=
 OpenBabel11042414453D

 36 39  0  0  1  0  0  0  0  0999 V2000
  191.2760  175.7860  144.5990 C   0  0  0  0  0  0  0  0  0  0  0  0
  194.4590  176.0810  144.5900 C   0  0  2  0  0  3  0  0  0  0  0  0
  187.8260  177.8550  147.3640 O   0  0  0  0  0  0  0  0  0  0  0  0
  193.4760  176.0240  143.4200 C   0  0  0  0  0  2  0  0  0  0  0  0
  190.2840  176.8120  146.3960 C   0  0  0  0  0  2  0  0  0  0  0  0
  193.9210  176.9420  145.7410 C   0  0  1  0  0  3  0  0  0  0  0  0
  189.9140  175.9720  144.2500 N   0  0  0  0  0  0  0  0  0  0  0  0
  192.8470  176.1900  146.5170 C   0  0  0  0  0  2  0  0  0  0  0  0
  187.2340  177.5250  146.3010 C   0  0  0  0  0  0  0  0  0  0  0  0
  189.3470  176.5500  145.2560 C   0  0  0  0  0  0  0  0  0  0  0  0
  192.2640  175.1280  143.6830 C   0  0  1  0  0  3  0  0  0  0  0  0
  194.9370  177.2650  146.6250 F   0  0  0  0  0  0  0  0  0  0  0  0
  191.5310  176.2490  145.8150 C   0  0  0  0  0  0  0  0  0  0  0  0
  187.9550  176.8820  145.2400 N   0  0  0  0  0  2  0  0  0  0  0  0
  185.8320  177.7930  146.1510 N   0  0  0  0  0  0  0  0  0  0  0  0
  185.0680  178.3500  147.2570 C   0  0  0  0  0  1  0  0  0  0  0  0
  193.5930  173.0840  142.1980 O   0  0  0  0  0  0  0  0  0  0  0  0
  193.3070  172.8250  143.3980 C   0  0  0  0  0  0  0  0  0  0  0  0
  192.6800  173.8290  144.2020 N   0  0  0  0  0  2  0  0  0  0  0  0
  193.8940  168.9900  145.1410 C   0  0  0  0  0  0  0  0  0  0  0  0
  194.7040  168.7610  147.1460 C   0  0  0  0  0  3  0  0  0  0  0  0
  193.6630  171.4950  143.9610 C   0  0  0  0  0  0  0  0  0  0  0  0
  195.5160  169.6570  146.5950 C   0  0  0  0  0  3  0  0  0  0  0  0
  192.7730  170.3530  143.5930 C   0  0  0  0  0  3  0  0  0  0  0  0
  195.0930  169.8620  145.1760 C   0  0  2  0  0  3  0  0  0  0  0  0
  193.6760  168.3650  146.2450 N   0  0  0  0  0  0  0  0  0  0  0  0
  192.8740  169.1900  144.1680 N   0  0  0  0  0  0  0  0  0  0  0  0
  195.6190  172.3750  145.2650 C   0  0  0  0  0  1  0  0  0  0  0  0
  194.7100  171.2770  144.8070 C   0  0  0  0  0  0  0  0  0  0  0  0
  184.5720  178.6470  144.2440 C   0  0  0  0  0  1  0  0  0  0  0  0
  185.1140  177.4130  144.9440 C   0  0  0  0  0  2  0  0  0  0  0  0
  195.7820  176.6250  144.0680 C   0  0  0  0  0  2  0  0  0  0  0  0
  196.1920  175.9000  142.8260 C   0  0  0  0  0  0  0  0  0  0  0  0
  196.4380  174.7050  142.8670 O   0  0  0  0  0  0  0  0  0  0  0  0
  196.2580  176.6330  141.5280 C   0  0  0  0  0  2  0  0  0  0  0  0
  195.6630  175.8260  140.4770 N   0  0  0  0  0  1  0  0  0  0  0  0
  1 13  2  0  0  0  0
  2 32  1  6  0  0  0
  2  6  1  0  0  0  0
  4 11  1  0  0  0  0
  4  2  1  0  0  0  0
  6  8  1  0  0  0  0
  6 12  1  1  0  0  0
  7  1  1  0  0  0  0
  7 10  2  0  0  0  0
  9  3  2  0  0  0  0
 10  5  1  0  0  0  0
 11 19  1  1  0  0  0
 11  1  1  0  0  0  0
 13  5  1  0  0  0  0
 13  8  1  0  0  0  0
 14 10  1  0  0  0  0
 14  9  1  0  0  0  0
 15  9  1  0  0  0  0
 15 16  1  0  0  0  0
 17 18  2  0  0  0  0
 18 22  1  0  0  0  0
 18 19  1  0  0  0  0
 20 25  1  0  0  0  0
 20 26  2  0  0  0  0
 22 29  2  0  0  0  0
 23 21  2  0  0  0  0
 24 22  1  0  0  0  0
 24 27  2  0  0  0  0
 25 23  1  1  0  0  0
 26 21  1  0  0  0  0
 27 20  1  0  0  0  0
 29 25  1  0  0  0  0
 29 28  1  0  0  0  0
 30 31  1  0  0  0  0
 31 15  1  0  0  0  0
 33 34  2  0  0  0  0
 33 32  1  0  0  0  0
 35 33  1  0  0  0  0
 36 35  1  0  0  0  0
M  END
>  <MODEL>
1

>  <REMARK>
 VINA RESULT:      -7.3      0.000      0.000
  Name = 
  6 active torsions:
  status: ('A' for Active; 'I' for Inactive)
    1  A    between atoms: C_4  and  C_11
    2  A    between atoms: C_5  and  C_21
    3  A    between atoms: C_6  and  C_27
    4  A    between atoms: C_11  and  C_21
    5  A    between atoms: C_28  and  N_34
    6  A    between atoms: N_29  and  C_30
                            x       y       z     vdW  Elec       q    Type
                         _______ _______ _______ _____ _____    ______ ____

>  <TORSDO>
F 6

$$$$
=
 OpenBabel11042414453D

 36 39  0  0  1  0  0  0  0  0999 V2000
  189.5840  174.4620  144.1520 C   0  0  0  0  0  0  0  0  0  0  0  0
  190.5660  171.9070  142.5000 C   0  0  2  0  0  3  0  0  0  0  0  0
  186.7230  178.2230  142.9280 O   0  0  0  0  0  0  0  0  0  0  0  0
  190.0720  172.0110  143.9430 C   0  0  0  0  0  2  0  0  0  0  0  0
  188.5050  176.0130  142.8500 C   0  0  0  0  0  2  0  0  0  0  0  0
  189.7270  172.7740  141.5500 C   0  0  1  0  0  3  0  0  0  0  0  0
  188.8320  175.2730  145.0390 N   0  0  0  0  0  0  0  0  0  0  0  0
  190.0950  174.2440  141.7020 C   0  0  0  0  0  2  0  0  0  0  0  0
  186.6460  178.1520  144.1850 C   0  0  0  0  0  0  0  0  0  0  0  0
  188.2200  176.1500  144.3140 C   0  0  0  0  0  0  0  0  0  0  0  0
  190.4460  173.3290  144.6240 C   0  0  1  0  0  3  0  0  0  0  0  0
  189.9540  172.4130  140.2330 F   0  0  0  0  0  0  0  0  0  0  0  0
  189.4290  174.8490  142.8940 C   0  0  0  0  0  0  0  0  0  0  0  0
  187.3700  177.1400  144.9000 N   0  0  0  0  0  2  0  0  0  0  0  0
  185.8310  179.0900  144.9040 N   0  0  0  0  0  0  0  0  0  0  0  0
  185.1750  180.1830  144.2030 C   0  0  0  0  0  1  0  0  0  0  0  0
  192.1310  174.6860  146.4870 O   0  0  0  0  0  0  0  0  0  0  0  0
  192.6480  174.3510  145.3870 C   0  0  0  0  0  0  0  0  0  0  0  0
  191.8620  173.6290  144.4340 N   0  0  0  0  0  2  0  0  0  0  0  0
  196.5860  175.4750  144.2400 C   0  0  0  0  0  0  0  0  0  0  0  0
  197.9410  174.0670  143.2860 C   0  0  0  0  0  3  0  0  0  0  0  0
  194.0740  174.6810  145.1230 C   0  0  0  0  0  0  0  0  0  0  0  0
  197.4400  173.3640  144.2960 C   0  0  0  0  0  3  0  0  0  0  0  0
  194.3720  176.0890  144.7230 C   0  0  0  0  0  3  0  0  0  0  0  0
  196.5230  174.2510  145.0750 C   0  0  2  0  0  3  0  0  0  0  0  0
  197.3870  175.3760  143.2370 N   0  0  0  0  0  0  0  0  0  0  0  0
  195.5460  176.4460  144.2900 N   0  0  0  0  0  0  0  0  0  0  0  0
  194.8720  172.3350  145.5270 C   0  0  0  0  0  1  0  0  0  0  0  0
  195.0920  173.7750  145.1840 C   0  0  0  0  0  0  0  0  0  0  0  0
  184.4700  178.3090  146.7720 C   0  0  0  0  0  1  0  0  0  0  0  0
  185.7290  179.0470  146.3550 C   0  0  0  0  0  2  0  0  0  0  0  0
  190.5200  170.4400  142.0910 C   0  0  0  0  0  2  0  0  0  0  0  0
  191.9030  169.9040  141.9090 C   0  0  0  0  0  0  0  0  0  0  0  0
  192.6140  170.3340  141.0140 O   0  0  0  0  0  0  0  0  0  0  0  0
  192.4290  168.8740  142.8510 C   0  0  0  0  0  2  0  0  0  0  0  0
  192.8270  169.5030  144.0980 N   0  0  0  0  0  1  0  0  0  0  0  0
  1 11  1  0  0  0  0
  1  7  1  0  0  0  0
  2 32  1  6  0  0  0
  2  4  1  0  0  0  0
  3  9  2  0  0  0  0
  4 11  1  0  0  0  0
  5 13  1  0  0  0  0
  5 10  1  0  0  0  0
  6 12  1  6  0  0  0
  6  8  1  0  0  0  0
  6  2  1  0  0  0  0
  8 13  1  0  0  0  0
  9 14  1  0  0  0  0
  9 15  1  0  0  0  0
 10 14  1  0  0  0  0
 10  7  2  0  0  0  0
 11 19  1  6  0  0  0
 13  1  2  0  0  0  0
 15 31  1  0  0  0  0
 16 15  1  0  0  0  0
 18 17  2  0  0  0  0
 19 18  1  0  0  0  0
 20 27  1  0  0  0  0
 20 25  1  0  0  0  0
 21 23  2  0  0  0  0
 22 29  2  0  0  0  0
 22 18  1  0  0  0  0
 24 22  1  0  0  0  0
 25 23  1  6  0  0  0
 25 29  1  0  0  0  0
 26 21  1  0  0  0  0
 26 20  2  0  0  0  0
 27 24  2  0  0  0  0
 29 28  1  0  0  0  0
 31 30  1  0  0  0  0
 33 32  1  0  0  0  0
 33 35  1  0  0  0  0
 34 33  2  0  0  0  0
 35 36  1  0  0  0  0
M  END
>  <MODEL>
2

>  <REMARK>
 VINA RESULT:      -7.3      2.876      5.295
  Name = 
  6 active torsions:
  status: ('A' for Active; 'I' for Inactive)
    1  A    between atoms: C_4  and  C_11
    2  A    between atoms: C_5  and  C_21
    3  A    between atoms: C_6  and  C_27
    4  A    between atoms: C_11  and  C_21
    5  A    between atoms: C_28  and  N_34
    6  A    between atoms: N_29  and  C_30
                            x       y       z     vdW  Elec       q    Type
                         _______ _______ _______ _____ _____    ______ ____

>  <TORSDO>
F 6

$$$$
=
 OpenBabel11042414453D

 36 39  0  0  1  0  0  0  0  0999 V2000
  190.3950  174.1330  143.2370 C   0  0  0  0  0  0  0  0  0  0  0  0
  191.7700  175.8680  145.5440 C   0  0  2  0  0  3  0  0  0  0  0  0
  191.7370  173.1910  138.6390 O   0  0  0  0  0  0  0  0  0  0  0  0
  191.0910  174.5000  145.6180 C   0  0  0  0  0  2  0  0  0  0  0  0
  191.4140  174.3830  141.1970 C   0  0  0  0  0  2  0  0  0  0  0  0
  192.6420  176.0010  144.2870 C   0  0  1  0  0  3  0  0  0  0  0  0
  190.0040  173.0160  142.4560 N   0  0  0  0  0  0  0  0  0  0  0  0
  191.7750  176.2240  143.0550 C   0  0  0  0  0  2  0  0  0  0  0  0
  190.9730  172.2380  138.9560 C   0  0  0  0  0  0  0  0  0  0  0  0
  190.5740  173.1480  141.3050 C   0  0  0  0  0  0  0  0  0  0  0  0
  189.9210  174.3440  144.6440 C   0  0  1  0  0  3  0  0  0  0  0  0
  193.5030  177.0780  144.4030 F   0  0  0  0  0  0  0  0  0  0  0  0
  191.1980  174.9400  142.5580 C   0  0  0  0  0  0  0  0  0  0  0  0
  190.3840  172.1850  140.2630 N   0  0  0  0  0  2  0  0  0  0  0  0
  190.6900  171.2030  138.0020 N   0  0  0  0  0  0  0  0  0  0  0  0
  191.1970  171.2980  136.6420 C   0  0  0  0  0  1  0  0  0  0  0  0
  188.4870  175.1650  146.9710 O   0  0  0  0  0  0  0  0  0  0  0  0
  188.2910  175.8260  145.9160 C   0  0  0  0  0  0  0  0  0  0  0  0
  189.0170  175.4860  144.7310 N   0  0  0  0  0  2  0  0  0  0  0  0
  185.2520  178.7940  146.1170 C   0  0  0  0  0  0  0  0  0  0  0  0
  184.1330  179.4020  144.3540 C   0  0  0  0  0  3  0  0  0  0  0  0
  187.3380  176.9670  145.9390 C   0  0  0  0  0  0  0  0  0  0  0  0
  185.3910  179.3980  143.9250 C   0  0  0  0  0  3  0  0  0  0  0  0
  186.5370  177.1470  147.1870 C   0  0  0  0  0  3  0  0  0  0  0  0
  186.2770  179.0460  145.0760 C   0  0  2  0  0  3  0  0  0  0  0  0
  184.0460  179.0000  145.7150 N   0  0  0  0  0  0  0  0  0  0  0  0
  185.5480  177.9890  147.2540 N   0  0  0  0  0  0  0  0  0  0  0  0
  187.8560  177.6710  143.5850 C   0  0  0  0  0  1  0  0  0  0  0  0
  187.1320  177.8130  144.8880 C   0  0  0  0  0  0  0  0  0  0  0  0
  190.4190  168.7810  137.8880 C   0  0  0  0  0  1  0  0  0  0  0  0
  189.8030  170.0970  138.3290 C   0  0  0  0  0  2  0  0  0  0  0  0
  192.5970  176.0530  146.8100 C   0  0  0  0  0  2  0  0  0  0  0  0
  191.7060  176.1570  148.0060 C   0  0  0  0  0  0  0  0  0  0  0  0
  191.5570  175.1950  148.7440 O   0  0  0  0  0  0  0  0  0  0  0  0
  191.0360  177.4520  148.3200 C   0  0  0  0  0  2  0  0  0  0  0  0
  191.5680  177.9940  149.5590 N   0  0  0  0  0  1  0  0  0  0  0  0
  1 11  1  0  0  0  0
  2  4  1  0  0  0  0
  2 32  1  1  0  0  0
  3  9  2  0  0  0  0
  5 10  1  0  0  0  0
  5 13  1  0  0  0  0
  6 12  1  1  0  0  0
  6  2  1  0  0  0  0
  7  1  1  0  0  0  0
  8  6  1  0  0  0  0
  9 14  1  0  0  0  0
 10  7  2  0  0  0  0
 11 19  1  6  0  0  0
 11  4  1  0  0  0  0
 13  8  1  0  0  0  0
 13  1  2  0  0  0  0
 14 10  1  0  0  0  0
 15 31  1  0  0  0  0
 15  9  1  0  0  0  0
 16 15  1  0  0  0  0
 18 22  1  0  0  0  0
 18 17  2  0  0  0  0
 19 18  1  0  0  0  0
 20 27  1  0  0  0  0
 21 26  1  0  0  0  0
 22 24  1  0  0  0  0
 23 21  2  0  0  0  0
 24 27  2  0  0  0  0
 25 23  1  6  0  0  0
 25 20  1  0  0  0  0
 26 20  2  0  0  0  0
 28 29  1  0  0  0  0
 29 25  1  0  0  0  0
 29 22  2  0  0  0  0
 30 31  1  0  0  0  0
 32 33  1  0  0  0  0
 33 35  1  0  0  0  0
 33 34  2  0  0  0  0
 35 36  1  0  0  0  0
M  END
>  <MODEL>
3

>  <REMARK>
 VINA RESULT:      -7.2      3.863      9.013
  Name = 
  6 active torsions:
  status: ('A' for Active; 'I' for Inactive)
    1  A    between atoms: C_4  and  C_11
    2  A    between atoms: C_5  and  C_21
    3  A    between atoms: C_6  and  C_27
    4  A    between atoms: C_11  and  C_21
    5  A    between atoms: C_28  and  N_34
    6  A    between atoms: N_29  and  C_30
                            x       y       z     vdW  Elec       q    Type
                         _______ _______ _______ _____ _____    ______ ____

>  <TORSDO>
F 6

$$$$
=
 OpenBabel11042414453D

 36 39  0  0  1  0  0  0  0  0999 V2000
  190.8450  176.0630  144.1490 C   0  0  0  0  0  0  0  0  0  0  0  0
  193.9980  175.7590  144.5890 C   0  0  2  0  0  3  0  0  0  0  0  0
  187.2510  177.3730  147.1810 O   0  0  0  0  0  0  0  0  0  0  0  0
  193.2240  176.3720  143.4200 C   0  0  0  0  0  2  0  0  0  0  0  0
  189.6950  176.4070  146.1040 C   0  0  0  0  0  2  0  0  0  0  0  0
  193.3800  176.1440  145.9400 C   0  0  1  0  0  3  0  0  0  0  0  0
  189.5930  176.6180  143.7830 N   0  0  0  0  0  0  0  0  0  0  0  0
  192.1100  175.3430  146.1970 C   0  0  0  0  0  2  0  0  0  0  0  0
  186.8110  177.6280  146.0270 C   0  0  0  0  0  0  0  0  0  0  0  0
  188.9380  176.8160  144.8780 C   0  0  0  0  0  0  0  0  0  0  0  0
  191.8880  175.6810  143.1410 C   0  0  1  0  0  3  0  0  0  0  0  0
  194.2640  175.8820  146.9720 F   0  0  0  0  0  0  0  0  0  0  0  0
  190.9460  175.9240  145.4630 C   0  0  0  0  0  0  0  0  0  0  0  0
  187.6180  177.3680  144.8690 N   0  0  0  0  0  2  0  0  0  0  0  0
  185.4940  178.1800  145.8710 N   0  0  0  0  0  0  0  0  0  0  0  0
  184.6280  178.3530  147.0260 C   0  0  0  0  0  1  0  0  0  0  0  0
  192.0790  174.1240  140.7560 O   0  0  0  0  0  0  0  0  0  0  0  0
  192.1030  173.4990  141.8510 C   0  0  0  0  0  0  0  0  0  0  0  0
  192.0550  174.2320  143.0780 N   0  0  0  0  0  2  0  0  0  0  0  0
  192.1310  169.2570  142.1560 C   0  0  0  0  0  0  0  0  0  0  0  0
  193.6530  168.2060  143.3010 C   0  0  0  0  0  3  0  0  0  0  0  0
  192.2180  172.0160  141.8400 C   0  0  0  0  0  0  0  0  0  0  0  0
  194.3590  169.0850  142.5970 C   0  0  0  0  0  3  0  0  0  0  0  0
  190.9390  171.2460  141.7870 C   0  0  0  0  0  3  0  0  0  0  0  0
  193.4200  169.8420  141.7140 C   0  0  2  0  0  3  0  0  0  0  0  0
  192.2600  168.3330  143.0430 N   0  0  0  0  0  0  0  0  0  0  0  0
  190.9060  169.9560  141.9590 N   0  0  0  0  0  0  0  0  0  0  0  0
  194.7220  172.0360  142.0210 C   0  0  0  0  0  1  0  0  0  0  0  0
  193.4010  171.3400  141.9150 C   0  0  0  0  0  0  0  0  0  0  0  0
  185.2940  179.8950  144.1470 C   0  0  0  0  0  1  0  0  0  0  0  0
  184.9500  178.4740  144.5530 C   0  0  0  0  0  2  0  0  0  0  0  0
  195.4440  176.2250  144.4920 C   0  0  0  0  0  2  0  0  0  0  0  0
  196.3660  175.0520  144.3930 C   0  0  0  0  0  0  0  0  0  0  0  0
  197.3990  175.1370  143.7470 O   0  0  0  0  0  0  0  0  0  0  0  0
  196.0430  173.7920  145.1230 C   0  0  0  0  0  2  0  0  0  0  0  0
  196.9710  173.6080  146.2250 N   0  0  0  0  0  1  0  0  0  0  0  0
  1 13  2  0  0  0  0
  2 32  1  1  0  0  0
  2  6  1  0  0  0  0
  4  2  1  0  0  0  0
  6  8  1  0  0  0  0
  6 12  1  1  0  0  0
  7  1  1  0  0  0  0
  7 10  2  0  0  0  0
  9  3  2  0  0  0  0
 10  5  1  0  0  0  0
 11 19  1  1  0  0  0
 11  4  1  0  0  0  0
 11  1  1  0  0  0  0
 13  5  1  0  0  0  0
 13  8  1  0  0  0  0
 14 10  1  0  0  0  0
 14  9  1  0  0  0  0
 15  9  1  0  0  0  0
 15 16  1  0  0  0  0
 17 18  2  0  0  0  0
 18 19  1  0  0  0  0
 20 26  2  0  0  0  0
 22 18  1  0  0  0  0
 22 29  2  0  0  0  0
 23 21  2  0  0  0  0
 24 22  1  0  0  0  0
 24 27  2  0  0  0  0
 25 29  1  0  0  0  0
 25 20  1  0  0  0  0
 25 23  1  1  0  0  0
 26 21  1  0  0  0  0
 27 20  1  0  0  0  0
 29 28  1  0  0  0  0
 30 31  1  0  0  0  0
 31 15  1  0  0  0  0
 33 32  1  0  0  0  0
 33 35  1  0  0  0  0
 34 33  2  0  0  0  0
 35 36  1  0  0  0  0
M  END
>  <MODEL>
4

>  <REMARK>
 VINA RESULT:      -7.0      1.958      2.416
  Name = 
  6 active torsions:
  status: ('A' for Active; 'I' for Inactive)
    1  A    between atoms: C_4  and  C_11
    2  A    between atoms: C_5  and  C_21
    3  A    between atoms: C_6  and  C_27
    4  A    between atoms: C_11  and  C_21
    5  A    between atoms: C_28  and  N_34
    6  A    between atoms: N_29  and  C_30
                            x       y       z     vdW  Elec       q    Type
                         _______ _______ _______ _____ _____    ______ ____

>  <TORSDO>
F 6

$$$$
=
 OpenBabel11042414453D

 36 39  0  0  1  0  0  0  0  0999 V2000
  192.9370  174.9900  142.5740 C   0  0  0  0  0  0  0  0  0  0  0  0
  192.3470  175.5860  145.6590 C   0  0  2  0  0  3  0  0  0  0  0  0
  196.8350  175.8870  139.7760 O   0  0  0  0  0  0  0  0  0  0  0  0
  192.0450  174.3400  144.8250 C   0  0  0  0  0  2  0  0  0  0  0  0
  194.8670  175.9770  141.8210 C   0  0  0  0  0  2  0  0  0  0  0  0
  193.7330  176.1610  145.3360 C   0  0  1  0  0  3  0  0  0  0  0  0
  193.3030  174.2990  141.3910 N   0  0  0  0  0  0  0  0  0  0  0  0
  193.7090  176.9030  144.0070 C   0  0  0  0  0  2  0  0  0  0  0  0
  196.2430  174.9290  139.2090 C   0  0  0  0  0  0  0  0  0  0  0  0
  194.3900  174.8480  140.9600 C   0  0  0  0  0  0  0  0  0  0  0  0
  191.7090  174.6480  143.3640 C   0  0  1  0  0  3  0  0  0  0  0  0
  194.1290  177.0560  146.3160 F   0  0  0  0  0  0  0  0  0  0  0  0
  193.8000  175.9560  142.8560 C   0  0  0  0  0  0  0  0  0  0  0  0
  195.0350  174.3910  139.7670 N   0  0  0  0  0  2  0  0  0  0  0  0
  196.7770  174.3760  137.9960 N   0  0  0  0  0  0  0  0  0  0  0  0
  197.9410  174.9780  137.3650 C   0  0  0  0  0  1  0  0  0  0  0  0
  188.9040  174.3400  143.7920 O   0  0  0  0  0  0  0  0  0  0  0  0
  189.3090  175.4850  143.4570 C   0  0  0  0  0  0  0  0  0  0  0  0
  190.7100  175.7080  143.2730 N   0  0  0  0  0  2  0  0  0  0  0  0
  186.2890  178.4780  143.3740 C   0  0  0  0  0  0  0  0  0  0  0  0
  184.5180  178.2770  142.1260 C   0  0  0  0  0  3  0  0  0  0  0  0
  188.3240  176.5880  143.2980 C   0  0  0  0  0  0  0  0  0  0  0  0
  185.5060  177.9400  141.3030 C   0  0  0  0  0  3  0  0  0  0  0  0
  188.0530  177.4240  144.5070 C   0  0  0  0  0  3  0  0  0  0  0  0
  186.7990  178.0950  142.0350 C   0  0  2  0  0  3  0  0  0  0  0  0
  185.0070  178.5870  143.4260 N   0  0  0  0  0  0  0  0  0  0  0  0
  187.0830  178.2910  144.5400 N   0  0  0  0  0  0  0  0  0  0  0  0
  187.8150  176.0220  140.9060 C   0  0  0  0  0  1  0  0  0  0  0  0
  187.6400  176.8430  142.1450 C   0  0  0  0  0  0  0  0  0  0  0  0
  197.0630  172.1100  137.1380 C   0  0  0  0  0  1  0  0  0  0  0  0
  196.1120  173.2810  137.3070 C   0  0  0  0  0  2  0  0  0  0  0  0
  192.2370  175.2070  147.1300 C   0  0  0  0  0  2  0  0  0  0  0  0
  191.1790  176.0210  147.8030 C   0  0  0  0  0  0  0  0  0  0  0  0
  191.4610  176.7130  148.7690 O   0  0  0  0  0  0  0  0  0  0  0  0
  189.7880  176.0200  147.2640 C   0  0  0  0  0  2  0  0  0  0  0  0
  189.2300  174.6810  147.3410 N   0  0  0  0  0  1  0  0  0  0  0  0
  1 13  2  0  0  0  0
  1 11  1  0  0  0  0
  2 32  1  1  0  0  0
  4  2  1  0  0  0  0
  5 13  1  0  0  0  0
  6  2  1  0  0  0  0
  6 12  1  1  0  0  0
  7  1  1  0  0  0  0
  8  6  1  0  0  0  0
  9 14  1  0  0  0  0
  9  3  2  0  0  0  0
 10  7  2  0  0  0  0
 10  5  1  0  0  0  0
 11 19  1  1  0  0  0
 11  4  1  0  0  0  0
 13  8  1  0  0  0  0
 14 10  1  0  0  0  0
 15  9  1  0  0  0  0
 16 15  1  0  0  0  0
 18 17  2  0  0  0  0
 19 18  1  0  0  0  0
 20 26  2  0  0  0  0
 20 27  1  0  0  0  0
 21 26  1  0  0  0  0
 22 18  1  0  0  0  0
 22 24  1  0  0  0  0
 23 21  2  0  0  0  0
 24 27  2  0  0  0  0
 25 23  1  6  0  0  0
 25 29  1  0  0  0  0
 25 20  1  0  0  0  0
 28 29  1  0  0  0  0
 29 22  2  0  0  0  0
 30 31  1  0  0  0  0
 31 15  1  0  0  0  0
 32 33  1  0  0  0  0
 33 34  2  0  0  0  0
 35 36  1  0  0  0  0
 35 33  1  0  0  0  0
M  END
>  <MODEL>
5

>  <REMARK>
 VINA RESULT:      -7.0      3.447      9.322
  Name = 
  6 active torsions:
  status: ('A' for Active; 'I' for Inactive)
    1  A    between atoms: C_4  and  C_11
    2  A    between atoms: C_5  and  C_21
    3  A    between atoms: C_6  and  C_27
    4  A    between atoms: C_11  and  C_21
    5  A    between atoms: C_28  and  N_34
    6  A    between atoms: N_29  and  C_30
                            x       y       z     vdW  Elec       q    Type
                         _______ _______ _______ _____ _____    ______ ____

>  <TORSDO>
F 6

$$$$
=
 OpenBabel11042414453D

 36 39  0  0  1  0  0  0  0  0999 V2000
  190.7900  173.7580  142.4000 C   0  0  0  0  0  0  0  0  0  0  0  0
  191.3950  175.3580  145.1010 C   0  0  2  0  0  3  0  0  0  0  0  0
  193.4000  173.1630  138.3180 O   0  0  0  0  0  0  0  0  0  0  0  0
  190.7770  173.9740  144.8980 C   0  0  0  0  0  2  0  0  0  0  0  0
  192.3290  174.1690  140.7480 C   0  0  0  0  0  2  0  0  0  0  0  0
  192.5770  175.5950  144.1510 C   0  0  1  0  0  3  0  0  0  0  0  0
  190.6770  172.6890  141.4750 N   0  0  0  0  0  0  0  0  0  0  0  0
  192.0820  175.8850  142.7400 C   0  0  0  0  0  2  0  0  0  0  0  0
  192.6170  172.1750  138.3490 C   0  0  0  0  0  0  0  0  0  0  0  0
  191.5410  172.9120  140.5410 C   0  0  0  0  0  0  0  0  0  0  0  0
  189.9330  173.8610  143.6260 C   0  0  1  0  0  3  0  0  0  0  0  0
  193.3280  176.6800  144.5690 F   0  0  0  0  0  0  0  0  0  0  0  0
  191.7180  174.6260  142.0240 C   0  0  0  0  0  0  0  0  0  0  0  0
  191.6890  172.0190  139.4320 N   0  0  0  0  0  2  0  0  0  0  0  0
  192.6540  171.2020  137.2940 N   0  0  0  0  0  0  0  0  0  0  0  0
  193.5160  171.4010  136.1390 C   0  0  0  0  0  1  0  0  0  0  0  0
  187.4550  173.8320  142.2110 O   0  0  0  0  0  0  0  0  0  0  0  0
  187.7850  174.9160  142.7630 C   0  0  0  0  0  0  0  0  0  0  0  0
  188.9960  174.9750  143.5230 N   0  0  0  0  0  2  0  0  0  0  0  0
  184.9020  178.0390  142.6070 C   0  0  0  0  0  0  0  0  0  0  0  0
  183.7550  178.4420  140.8030 C   0  0  0  0  0  3  0  0  0  0  0  0
  186.8900  176.0980  142.6430 C   0  0  0  0  0  0  0  0  0  0  0  0
  184.9960  178.3100  140.3470 C   0  0  0  0  0  3  0  0  0  0  0  0
  186.1420  176.4980  143.8720 C   0  0  0  0  0  3  0  0  0  0  0  0
  185.9030  178.0820  141.5130 C   0  0  2  0  0  3  0  0  0  0  0  0
  183.6950  178.2470  142.2110 N   0  0  0  0  0  0  0  0  0  0  0  0
  185.1970  177.3920  143.8410 N   0  0  0  0  0  0  0  0  0  0  0  0
  187.3610  176.4240  140.1990 C   0  0  0  0  0  1  0  0  0  0  0  0
  186.6900  176.7910  141.4850 C   0  0  0  0  0  0  0  0  0  0  0  0
  190.5540  170.3350  136.4030 C   0  0  0  0  0  1  0  0  0  0  0  0
  191.7550  170.0570  137.2900 C   0  0  0  0  0  2  0  0  0  0  0  0
  191.8260  175.4720  146.5560 C   0  0  0  0  0  2  0  0  0  0  0  0
  191.0250  176.5200  147.2590 C   0  0  0  0  0  0  0  0  0  0  0  0
  191.3400  176.8820  148.3830 O   0  0  0  0  0  0  0  0  0  0  0  0
  189.8640  177.1530  146.5680 C   0  0  0  0  0  2  0  0  0  0  0  0
  188.6450  176.4310  146.8880 N   0  0  0  0  0  1  0  0  0  0  0  0
  1 11  1  0  0  0  0
  2 32  1  1  0  0  0
  3  9  2  0  0  0  0
  4  2  1  0  0  0  0
  5 13  1  0  0  0  0
  6 12  1  1  0  0  0
  6  2  1  0  0  0  0
  7  1  1  0  0  0  0
  8  6  1  0  0  0  0
  9 14  1  0  0  0  0
 10  5  1  0  0  0  0
 10  7  2  0  0  0  0
 11 19  1  6  0  0  0
 11  4  1  0  0  0  0
 13  1  2  0  0  0  0
 13  8  1  0  0  0  0
 14 10  1  0  0  0  0
 15  9  1  0  0  0  0
 16 15  1  0  0  0  0
 17 18  2  0  0  0  0
 18 19  1  0  0  0  0
 20 27  1  0  0  0  0
 21 26  1  0  0  0  0
 22 18  1  0  0  0  0
 22 24  1  0  0  0  0
 23 21  2  0  0  0  0
 25 23  1  6  0  0  0
 25 20  1  0  0  0  0
 26 20  2  0  0  0  0
 27 24  2  0  0  0  0
 28 29  1  0  0  0  0
 29 25  1  0  0  0  0
 29 22  2  0  0  0  0
 30 31  1  0  0  0  0
 31 15  1  0  0  0  0
 32 33  1  0  0  0  0
 33 34  2  0  0  0  0
 35 36  1  0  0  0  0
 35 33  1  0  0  0  0
M  END
>  <MODEL>
6

>  <REMARK>
 VINA RESULT:      -6.9      3.866      9.349
  Name = 
  6 active torsions:
  status: ('A' for Active; 'I' for Inactive)
    1  A    between atoms: C_4  and  C_11
    2  A    between atoms: C_5  and  C_21
    3  A    between atoms: C_6  and  C_27
    4  A    between atoms: C_11  and  C_21
    5  A    between atoms: C_28  and  N_34
    6  A    between atoms: N_29  and  C_30
                            x       y       z     vdW  Elec       q    Type
                         _______ _______ _______ _____ _____    ______ ____

>  <TORSDO>
F 6

$$$$
=
 OpenBabel11042414453D

 36 39  0  0  1  0  0  0  0  0999 V2000
  191.4210  173.5970  144.0410 C   0  0  0  0  0  0  0  0  0  0  0  0
  190.0290  176.4730  143.9350 C   0  0  2  0  0  3  0  0  0  0  0  0
  195.8900  172.1960  145.4170 O   0  0  0  0  0  0  0  0  0  0  0  0
  189.4710  175.1300  144.4070 C   0  0  0  0  0  2  0  0  0  0  0  0
  193.6690  173.7030  144.4890 C   0  0  0  0  0  2  0  0  0  0  0  0
  191.4770  176.6800  144.4000 C   0  0  1  0  0  3  0  0  0  0  0  0
  191.7970  172.3090  144.4990 N   0  0  0  0  0  0  0  0  0  0  0  0
  192.4340  175.8440  143.5600 C   0  0  0  0  0  2  0  0  0  0  0  0
  195.1720  171.1680  145.5520 C   0  0  0  0  0  0  0  0  0  0  0  0
  193.0630  172.3590  144.7550 C   0  0  0  0  0  0  0  0  0  0  0  0
  190.0190  173.9320  143.6290 C   0  0  1  0  0  3  0  0  0  0  0  0
  191.8460  178.0080  144.2700 F   0  0  0  0  0  0  0  0  0  0  0  0
  192.4570  174.4230  144.0170 C   0  0  0  0  0  0  0  0  0  0  0  0
  193.7730  171.2140  145.2360 N   0  0  0  0  0  2  0  0  0  0  0  0
  195.7580  169.9440  146.0220 N   0  0  0  0  0  0  0  0  0  0  0  0
  197.1930  169.8550  146.2460 C   0  0  0  0  0  1  0  0  0  0  0  0
  189.6180  171.9270  141.6360 O   0  0  0  0  0  0  0  0  0  0  0  0
  189.7720  173.1120  141.2330 C   0  0  0  0  0  0  0  0  0  0  0  0
  189.9330  174.1630  142.1900 N   0  0  0  0  0  2  0  0  0  0  0  0
  189.3660  173.6100  137.0290 C   0  0  0  0  0  0  0  0  0  0  0  0
  190.6660  172.5710  135.6270 C   0  0  0  0  0  3  0  0  0  0  0  0
  189.7460  173.3930  139.7730 C   0  0  0  0  0  0  0  0  0  0  0  0
  191.5160  173.0420  136.5330 C   0  0  0  0  0  3  0  0  0  0  0  0
  188.4100  173.6870  139.1710 C   0  0  0  0  0  3  0  0  0  0  0  0
  190.7410  173.8340  137.5360 C   0  0  2  0  0  3  0  0  0  0  0  0
  189.3210  172.9050  135.9520 N   0  0  0  0  0  0  0  0  0  0  0  0
  188.2380  173.7640  137.8840 N   0  0  0  0  0  0  0  0  0  0  0  0
  192.2110  173.0220  139.4800 C   0  0  0  0  0  1  0  0  0  0  0  0
  190.8460  173.3570  138.9670 C   0  0  0  0  0  0  0  0  0  0  0  0
  194.6070  168.5230  147.6360 C   0  0  0  0  0  1  0  0  0  0  0  0
  194.9630  168.7350  146.1760 C   0  0  0  0  0  2  0  0  0  0  0  0
  189.1180  177.5730  144.4630 C   0  0  0  0  0  2  0  0  0  0  0  0
  188.0690  177.9140  143.4540 C   0  0  0  0  0  0  0  0  0  0  0  0
  186.9530  178.2500  143.8200 O   0  0  0  0  0  0  0  0  0  0  0  0
  188.4020  177.8850  142.0000 C   0  0  0  0  0  2  0  0  0  0  0  0
  187.5920  176.8820  141.3300 N   0  0  0  0  0  1  0  0  0  0  0  0
  1  7  1  0  0  0  0
  2  6  1  0  0  0  0
  2  4  1  0  0  0  0
  2 32  1  1  0  0  0
  3  9  2  0  0  0  0
  5 10  1  0  0  0  0
  6 12  1  6  0  0  0
  7 10  2  0  0  0  0
  8 13  1  0  0  0  0
  8  6  1  0  0  0  0
  9 15  1  0  0  0  0
 10 14  1  0  0  0  0
 11 19  1  6  0  0  0
 11  1  1  0  0  0  0
 11  4  1  0  0  0  0
 13  1  2  0  0  0  0
 13  5  1  0  0  0  0
 14  9  1  0  0  0  0
 15 31  1  0  0  0  0
 15 16  1  0  0  0  0
 18 17  2  0  0  0  0
 18 19  1  0  0  0  0
 20 25  1  0  0  0  0
 20 27  1  0  0  0  0
 21 26  1  0  0  0  0
 21 23  2  0  0  0  0
 22 18  1  0  0  0  0
 24 22  1  0  0  0  0
 25 23  1  6  0  0  0
 25 29  1  0  0  0  0
 26 20  2  0  0  0  0
 27 24  2  0  0  0  0
 29 28  1  0  0  0  0
 29 22  2  0  0  0  0
 31 30  1  0  0  0  0
 33 34  2  0  0  0  0
 33 32  1  0  0  0  0
 35 33  1  0  0  0  0
 36 35  1  0  0  0  0
M  END
>  <MODEL>
7

>  <REMARK>
 VINA RESULT:      -6.8      4.074      8.341
  Name = 
  6 active torsions:
  status: ('A' for Active; 'I' for Inactive)
    1  A    between atoms: C_4  and  C_11
    2  A    between atoms: C_5  and  C_21
    3  A    between atoms: C_6  and  C_27
    4  A    between atoms: C_11  and  C_21
    5  A    between atoms: C_28  and  N_34
    6  A    between atoms: N_29  and  C_30
                            x       y       z     vdW  Elec       q    Type
                         _______ _______ _______ _____ _____    ______ ____

>  <TORSDO>
F 6

$$$$
=
 OpenBabel11042414453D

 36 39  0  0  1  0  0  0  0  0999 V2000
  192.7480  174.4960  142.4290 C   0  0  0  0  0  0  0  0  0  0  0  0
  192.2730  175.4100  145.4560 C   0  0  2  0  0  3  0  0  0  0  0  0
  196.3250  175.4850  139.2580 O   0  0  0  0  0  0  0  0  0  0  0  0
  192.0840  174.0400  144.8040 C   0  0  0  0  0  2  0  0  0  0  0  0
  194.4870  175.6020  141.4200 C   0  0  0  0  0  2  0  0  0  0  0  0
  193.5520  176.1010  144.9620 C   0  0  1  0  0  3  0  0  0  0  0  0
  193.1290  173.7070  141.3140 N   0  0  0  0  0  0  0  0  0  0  0  0
  193.3530  176.6570  143.5580 C   0  0  0  0  0  2  0  0  0  0  0  0
  195.8270  174.3980  138.8560 C   0  0  0  0  0  0  0  0  0  0  0  0
  194.1090  174.3220  140.7400 C   0  0  0  0  0  0  0  0  0  0  0  0
  191.6250  174.1140  143.3460 C   0  0  1  0  0  3  0  0  0  0  0  0
  193.8880  177.1560  145.7940 F   0  0  0  0  0  0  0  0  0  0  0  0
  193.4950  175.5870  142.5270 C   0  0  0  0  0  0  0  0  0  0  0  0
  194.7340  173.7960  139.5650 N   0  0  0  0  0  2  0  0  0  0  0  0
  196.3550  173.7610  137.6820 N   0  0  0  0  0  0  0  0  0  0  0  0
  197.3920  174.4110  136.8970 C   0  0  0  0  0  1  0  0  0  0  0  0
  188.8800  173.3530  143.1590 O   0  0  0  0  0  0  0  0  0  0  0  0
  189.1400  174.5830  143.0720 C   0  0  0  0  0  0  0  0  0  0  0  0
  190.4940  175.0250  143.2030 N   0  0  0  0  0  2  0  0  0  0  0  0
  186.2170  177.5440  142.1870 C   0  0  0  0  0  0  0  0  0  0  0  0
  186.0220  179.3480  143.3870 C   0  0  0  0  0  3  0  0  0  0  0  0
  188.0270  175.5500  142.8720 C   0  0  0  0  0  0  0  0  0  0  0  0
  186.1150  178.3880  144.3010 C   0  0  0  0  0  3  0  0  0  0  0  0
  187.5790  175.7730  141.4650 C   0  0  0  0  0  3  0  0  0  0  0  0
  186.1980  177.0730  143.5930 C   0  0  2  0  0  3  0  0  0  0  0  0
  186.1120  178.8210  142.0680 N   0  0  0  0  0  0  0  0  0  0  0  0
  186.7480  176.7250  141.1510 N   0  0  0  0  0  0  0  0  0  0  0  0
  187.8600  176.1280  145.3090 C   0  0  0  0  0  1  0  0  0  0  0  0
  187.4370  176.2560  143.8800 C   0  0  0  0  0  0  0  0  0  0  0  0
  194.8800  172.7840  136.0020 C   0  0  0  0  0  1  0  0  0  0  0  0
  195.7950  172.5140  137.1830 C   0  0  0  0  0  2  0  0  0  0  0  0
  192.3010  175.2140  146.9660 C   0  0  0  0  0  2  0  0  0  0  0  0
  191.0280  175.7000  147.5800 C   0  0  0  0  0  0  0  0  0  0  0  0
  190.1450  174.9080  147.8710 O   0  0  0  0  0  0  0  0  0  0  0  0
  190.8570  177.1520  147.8790 C   0  0  0  0  0  2  0  0  0  0  0  0
  191.6210  177.5050  149.0630 N   0  0  0  0  0  1  0  0  0  0  0  0
  1 13  2  0  0  0  0
  1 11  1  0  0  0  0
  2 32  1  1  0  0  0
  4  2  1  0  0  0  0
  5 13  1  0  0  0  0
  6  2  1  0  0  0  0
  6 12  1  1  0  0  0
  7  1  1  0  0  0  0
  8  6  1  0  0  0  0
  9  3  2  0  0  0  0
  9 14  1  0  0  0  0
 10  7  2  0  0  0  0
 10  5  1  0  0  0  0
 11 19  1  1  0  0  0
 11  4  1  0  0  0  0
 13  8  1  0  0  0  0
 14 10  1  0  0  0  0
 15  9  1  0  0  0  0
 16 15  1  0  0  0  0
 18 17  2  0  0  0  0
 18 19  1  0  0  0  0
 20 25  1  0  0  0  0
 21 23  2  0  0  0  0
 22 18  1  0  0  0  0
 22 29  2  0  0  0  0
 24 22  1  0  0  0  0
 25 29  1  0  0  0  0
 25 23  1  1  0  0  0
 26 20  2  0  0  0  0
 26 21  1  0  0  0  0
 27 24  2  0  0  0  0
 27 20  1  0  0  0  0
 29 28  1  0  0  0  0
 30 31  1  0  0  0  0
 31 15  1  0  0  0  0
 32 33  1  0  0  0  0
 33 34  2  0  0  0  0
 33 35  1  0  0  0  0
 35 36  1  0  0  0  0
M  END
>  <MODEL>
8

>  <REMARK>
 VINA RESULT:      -6.8      3.404      9.075
  Name = 
  6 active torsions:
  status: ('A' for Active; 'I' for Inactive)
    1  A    between atoms: C_4  and  C_11
    2  A    between atoms: C_5  and  C_21
    3  A    between atoms: C_6  and  C_27
    4  A    between atoms: C_11  and  C_21
    5  A    between atoms: C_28  and  N_34
    6  A    between atoms: N_29  and  C_30
                            x       y       z     vdW  Elec       q    Type
                         _______ _______ _______ _____ _____    ______ ____

>  <TORSDO>
F 6

$$$$
=
 OpenBabel11042414453D

 36 39  0  0  1  0  0  0  0  0999 V2000
  190.3920  176.3920  143.8650 C   0  0  0  0  0  0  0  0  0  0  0  0
  193.3740  175.5170  144.6190 C   0  0  2  0  0  3  0  0  0  0  0  0
  186.4820  177.3340  146.6310 O   0  0  0  0  0  0  0  0  0  0  0  0
  192.8800  176.5350  143.5890 C   0  0  0  0  0  2  0  0  0  0  0  0
  188.9630  176.3510  145.6600 C   0  0  0  0  0  2  0  0  0  0  0  0
  192.5750  175.6030  145.9270 C   0  0  1  0  0  3  0  0  0  0  0  0
  189.2860  177.2050  143.5120 N   0  0  0  0  0  0  0  0  0  0  0  0
  191.2050  174.9580  145.7610 C   0  0  0  0  0  2  0  0  0  0  0  0
  186.2760  177.9580  145.5550 C   0  0  0  0  0  0  0  0  0  0  0  0
  188.4750  177.1880  144.5180 C   0  0  0  0  0  0  0  0  0  0  0  0
  191.5480  176.1520  142.9410 C   0  0  1  0  0  3  0  0  0  0  0  0
  193.2360  174.9390  146.9460 F   0  0  0  0  0  0  0  0  0  0  0  0
  190.2500  175.8830  145.0810 C   0  0  0  0  0  0  0  0  0  0  0  0
  187.2390  177.9100  144.4930 N   0  0  0  0  0  2  0  0  0  0  0  0
  185.0700  178.7200  145.3910 N   0  0  0  0  0  0  0  0  0  0  0  0
  184.0390  178.6940  146.4170 C   0  0  0  0  0  1  0  0  0  0  0  0
  189.5670  174.8990  141.3130 O   0  0  0  0  0  0  0  0  0  0  0  0
  190.5300  174.1820  141.6950 C   0  0  0  0  0  0  0  0  0  0  0  0
  191.5750  174.7690  142.4770 N   0  0  0  0  0  2  0  0  0  0  0  0
  190.9270  170.0220  140.9050 C   0  0  0  0  0  0  0  0  0  0  0  0
  192.3890  169.2650  139.4830 C   0  0  0  0  0  3  0  0  0  0  0  0
  190.5760  172.7500  141.2930 C   0  0  0  0  0  0  0  0  0  0  0  0
  191.8310  170.2790  138.8300 C   0  0  0  0  0  3  0  0  0  0  0  0
  190.2720  171.7460  142.3570 C   0  0  0  0  0  3  0  0  0  0  0  0
  190.7540  170.8550  139.6910 C   0  0  2  0  0  3  0  0  0  0  0  0
  191.8420  169.1230  140.7890 N   0  0  0  0  0  0  0  0  0  0  0  0
  190.4610  170.4720  142.1730 N   0  0  0  0  0  0  0  0  0  0  0  0
  191.2800  173.2540  138.9370 C   0  0  0  0  0  1  0  0  0  0  0  0
  190.9130  172.3170  140.0440 C   0  0  0  0  0  0  0  0  0  0  0  0
  183.9740  178.5770  143.2160 C   0  0  0  0  0  1  0  0  0  0  0  0
  184.7930  179.4410  144.1580 C   0  0  0  0  0  2  0  0  0  0  0  0
  194.8550  175.7730  144.8610 C   0  0  0  0  0  2  0  0  0  0  0  0
  195.6050  174.4810  144.9280 C   0  0  0  0  0  0  0  0  0  0  0  0
  196.7100  174.4400  145.4480 O   0  0  0  0  0  0  0  0  0  0  0  0
  194.9820  173.2340  144.3980 C   0  0  0  0  0  2  0  0  0  0  0  0
  194.7490  172.2990  145.4850 N   0  0  0  0  0  1  0  0  0  0  0  0
  1 13  2  0  0  0  0
  2 32  1  1  0  0  0
  2  6  1  0  0  0  0
  4  2  1  0  0  0  0
  6 12  1  1  0  0  0
  7  1  1  0  0  0  0
  7 10  2  0  0  0  0
  8  6  1  0  0  0  0
  9  3  2  0  0  0  0
 10  5  1  0  0  0  0
 11 19  1  1  0  0  0
 11  4  1  0  0  0  0
 11  1  1  0  0  0  0
 13  5  1  0  0  0  0
 13  8  1  0  0  0  0
 14 10  1  0  0  0  0
 14  9  1  0  0  0  0
 15  9  1  0  0  0  0
 15 16  1  0  0  0  0
 17 18  2  0  0  0  0
 18 19  1  0  0  0  0
 20 27  1  0  0  0  0
 21 26  1  0  0  0  0
 22 18  1  0  0  0  0
 22 24  1  0  0  0  0
 23 21  2  0  0  0  0
 25 23  1  6  0  0  0
 25 29  1  0  0  0  0
 25 20  1  0  0  0  0
 26 20  2  0  0  0  0
 27 24  2  0  0  0  0
 28 29  1  0  0  0  0
 29 22  2  0  0  0  0
 30 31  1  0  0  0  0
 31 15  1  0  0  0  0
 32 33  1  0  0  0  0
 33 34  2  0  0  0  0
 35 33  1  0  0  0  0
 35 36  1  0  0  0  0
M  END
>  <MODEL>
9

>  <REMARK>
 VINA RESULT:      -6.7      2.628      3.905
  Name = 
  6 active torsions:
  status: ('A' for Active; 'I' for Inactive)
    1  A    between atoms: C_4  and  C_11
    2  A    between atoms: C_5  and  C_21
    3  A    between atoms: C_6  and  C_27
    4  A    between atoms: C_11  and  C_21
    5  A    between atoms: C_28  and  N_34
    6  A    between atoms: N_29  and  C_30
                            x       y       z     vdW  Elec       q    Type
                         _______ _______ _______ _____ _____    ______ ____

>  <TORSDO>
F 6

$$$$
