=
 OpenBabel11042418433D

 34 38  0  0  1  0  0  0  0  0999 V2000
  188.5880  177.8070  141.8250 C   0  0  0  0  0  3  0  0  0  0  0  0
  186.5090  178.0800  143.6890 C   0  0  0  0  0  0  0  0  0  0  0  0
  184.9150  178.3590  141.8710 C   0  0  0  0  0  0  0  0  0  0  0  0
  187.8340  177.8780  144.1380 C   0  0  0  0  0  0  0  0  0  0  0  0
  183.9170  178.4890  142.7870 N   0  0  0  0  0  0  0  0  0  0  0  0
  188.8720  177.7350  143.1910 C   0  0  0  0  0  0  0  0  0  0  0  0
  186.2370  178.1500  142.3020 C   0  0  0  0  0  0  0  0  0  0  0  0
  184.1530  178.4210  144.1230 C   0  0  0  0  0  3  0  0  0  0  0  0
  187.2830  178.0130  141.3810 C   0  0  0  0  0  3  0  0  0  0  0  0
  185.4490  178.2170  144.5970 C   0  0  0  0  0  3  0  0  0  0  0  0
  184.6030  178.4460  140.4820 N   0  0  0  0  0  1  0  0  0  0  0  0
  188.1330  177.8040  145.6080 C   0  0  0  0  0  2  0  0  0  0  0  0
  187.2430  176.7720  146.2760 C   0  0  0  0  0  2  0  0  0  0  0  0
  188.0980  175.7230  146.9640 C   0  0  0  0  0  2  0  0  0  0  0  0
  190.4030  174.8980  147.1340 C   0  0  2  0  0  3  0  0  0  0  0  0
  189.7370  174.2210  146.0910 O   0  0  0  0  0  0  0  0  0  0  0  0
  189.4300  175.5830  146.2490 C   0  0  1  0  0  3  0  0  0  0  0  0
  194.4300  175.8320  145.8940 C   0  0  0  0  0  3  0  0  0  0  0  0
  191.8150  175.2230  146.7250 C   0  0  0  0  0  0  0  0  0  0  0  0
  191.8460  177.2240  148.1720 N   0  0  0  0  0  1  0  0  0  0  0  0
  191.8400  173.3450  145.2240 F   0  0  0  0  0  0  0  0  0  0  0  0
  193.7870  176.6460  146.8280 C   0  0  0  0  0  3  0  0  0  0  0  0
  192.4820  176.3570  147.2370 C   0  0  0  0  0  0  0  0  0  0  0  0
  192.4650  174.4220  145.7650 C   0  0  0  0  0  0  0  0  0  0  0  0
  193.7670  174.7250  145.3600 C   0  0  0  0  0  3  0  0  0  0  0  0
  190.2930  177.5190  143.6140 C   0  0  0  0  0  2  0  0  0  0  0  0
  190.0100  175.1330  142.8360 N   0  0  0  0  0  2  0  0  0  0  0  0
  190.3960  173.8840  142.2420 C   0  0  0  0  0  0  0  0  0  0  0  0
  192.0410  176.2800  142.5800 O   0  0  0  0  0  0  0  0  0  0  0  0
  191.5440  173.7570  141.6600 N   0  0  0  0  0  2  0  0  0  0  0  0
  190.8480  176.2850  142.9850 C   0  0  0  0  0  0  0  0  0  0  0  0
  190.1320  171.4430  142.2040 C   0  0  0  0  0  2  0  0  0  0  0  0
  189.3810  171.9470  143.4140 C   0  0  0  0  0  2  0  0  0  0  0  0
  189.4030  172.7730  142.1400 C   0  0  0  0  0  3  0  0  0  0  0  0
  1  6  1  0  0  0  0
  2  4  1  0  0  0  0
  2 10  1  0  0  0  0
  3  7  1  0  0  0  0
  3  5  2  0  0  0  0
  4 12  1  0  0  0  0
  5  8  1  0  0  0  0
  6 26  1  0  0  0  0
  6  4  2  0  0  0  0
  7  2  2  0  0  0  0
  8 10  2  0  0  0  0
  9  1  2  0  0  0  0
  9  7  1  0  0  0  0
 11  3  1  0  0  0  0
 12 13  1  0  0  0  0
 13 14  1  0  0  0  0
 15 19  1  6  0  0  0
 16 17  1  0  0  0  0
 16 15  1  0  0  0  0
 17 14  1  1  0  0  0
 17 15  1  0  0  0  0
 18 22  1  0  0  0  0
 19 23  1  0  0  0  0
 21 24  1  0  0  0  0
 22 23  2  0  0  0  0
 23 20  1  0  0  0  0
 24 19  2  0  0  0  0
 25 24  1  0  0  0  0
 25 18  2  0  0  0  0
 27 31  1  0  0  0  0
 28 27  1  0  0  0  0
 29 31  2  0  0  0  0
 30 28  2  0  0  0  0
 31 26  1  0  0  0  0
 32 33  1  0  0  0  0
 34 32  1  0  0  0  0
 34 28  1  0  0  0  0
 34 33  1  0  0  0  0
M  END
>  <MODEL>
1

>  <REMARK>
 VINA RESULT:      -7.9      0.000      0.000
  Name = 
  8 active torsions:
  status: ('A' for Active; 'I' for Inactive)
    1  A    between atoms: C_1  and  C_8
    2  A    between atoms: C_9  and  C_11
    3  A    between atoms: C_9  and  C_14
    4  A    between atoms: C_11  and  C_26
    5  A    between atoms: C_16  and  C_17
    6  A    between atoms: C_17  and  C_28
    7  A    between atoms: C_20  and  C_26
    8  A    between atoms: C_21  and  C_33
                            x       y       z     vdW  Elec       q    Type
                         _______ _______ _______ _____ _____    ______ ____

>  <TORSDO>
F 8

$$$$
=
 OpenBabel11042418433D

 34 38  0  0  1  0  0  0  0  0999 V2000
  186.5140  178.0390  142.8490 C   0  0  0  0  0  3  0  0  0  0  0  0
  187.0390  177.8610  145.6010 C   0  0  0  0  0  0  0  0  0  0  0  0
  184.7570  178.5570  146.0810 C   0  0  0  0  0  0  0  0  0  0  0  0
  188.0590  177.5620  144.6690 C   0  0  0  0  0  0  0  0  0  0  0  0
  185.0260  178.4670  147.4120 N   0  0  0  0  0  0  0  0  0  0  0  0
  187.7830  177.6480  143.2870 C   0  0  0  0  0  0  0  0  0  0  0  0
  185.7590  178.2560  145.1420 C   0  0  0  0  0  0  0  0  0  0  0  0
  186.2460  178.0870  147.8750 C   0  0  0  0  0  3  0  0  0  0  0  0
  185.5090  178.3400  143.7680 C   0  0  0  0  0  3  0  0  0  0  0  0
  187.2710  177.7800  146.9810 C   0  0  0  0  0  3  0  0  0  0  0  0
  183.4580  178.9680  145.6580 N   0  0  0  0  0  1  0  0  0  0  0  0
  189.4220  177.1460  145.1450 C   0  0  0  0  0  2  0  0  0  0  0  0
  189.4310  175.6670  145.4890 C   0  0  0  0  0  2  0  0  0  0  0  0
  190.4480  175.4000  146.5830 C   0  0  0  0  0  2  0  0  0  0  0  0
  192.7410  176.0680  146.0170 C   0  0  2  0  0  3  0  0  0  0  0  0
  192.7760  175.0100  146.9500 O   0  0  0  0  0  0  0  0  0  0  0  0
  191.7650  174.9520  145.9760 C   0  0  1  0  0  3  0  0  0  0  0  0
  195.8170  175.4550  143.0520 C   0  0  0  0  0  3  0  0  0  0  0  0
  193.8110  175.8770  144.9750 C   0  0  0  0  0  0  0  0  0  0  0  0
  192.2510  176.4960  143.1620 N   0  0  0  0  0  1  0  0  0  0  0  0
  195.3690  175.1780  146.6670 F   0  0  0  0  0  0  0  0  0  0  0  0
  194.5480  175.8840  142.6560 C   0  0  0  0  0  3  0  0  0  0  0  0
  193.5420  176.0840  143.6050 C   0  0  0  0  0  0  0  0  0  0  0  0
  195.0870  175.4220  145.3610 C   0  0  0  0  0  0  0  0  0  0  0  0
  196.0830  175.2200  144.4030 C   0  0  0  0  0  3  0  0  0  0  0  0
  188.8280  177.3410  142.2580 C   0  0  0  0  0  2  0  0  0  0  0  0
  189.2430  174.8560  142.0920 N   0  0  0  0  0  2  0  0  0  0  0  0
  189.0820  173.5220  141.5850 C   0  0  0  0  0  0  0  0  0  0  0  0
  187.7320  175.9510  140.6700 O   0  0  0  0  0  0  0  0  0  0  0  0
  188.1740  173.2560  140.7040 N   0  0  0  0  0  2  0  0  0  0  0  0
  188.5620  176.0220  141.6150 C   0  0  0  0  0  0  0  0  0  0  0  0
  190.7730  172.9480  143.2710 C   0  0  0  0  0  2  0  0  0  0  0  0
  189.4990  172.2410  143.6680 C   0  0  0  0  0  2  0  0  0  0  0  0
  189.8500  172.3970  142.1990 C   0  0  0  0  0  3  0  0  0  0  0  0
  1  6  2  0  0  0  0
  1  9  1  0  0  0  0
  2 10  1  0  0  0  0
  3  5  2  0  0  0  0
  4 12  1  0  0  0  0
  4  2  2  0  0  0  0
  5  8  1  0  0  0  0
  6  4  1  0  0  0  0
  7  2  1  0  0  0  0
  7  3  1  0  0  0  0
  9  7  2  0  0  0  0
 10  8  2  0  0  0  0
 11  3  1  0  0  0  0
 12 13  1  0  0  0  0
 13 14  1  0  0  0  0
 15 19  1  6  0  0  0
 15 16  1  0  0  0  0
 17 15  1  0  0  0  0
 17 14  1  1  0  0  0
 17 16  1  0  0  0  0
 18 25  1  0  0  0  0
 19 24  1  0  0  0  0
 20 23  1  0  0  0  0
 22 18  2  0  0  0  0
 22 23  1  0  0  0  0
 23 19  2  0  0  0  0
 24 21  1  0  0  0  0
 25 24  2  0  0  0  0
 26  6  1  0  0  0  0
 28 27  1  0  0  0  0
 28 34  1  0  0  0  0
 29 31  2  0  0  0  0
 30 28  2  0  0  0  0
 31 27  1  0  0  0  0
 31 26  1  0  0  0  0
 32 33  1  0  0  0  0
 34 32  1  0  0  0  0
 34 33  1  0  0  0  0
M  END
>  <MODEL>
2

>  <REMARK>
 VINA RESULT:      -7.8      2.169      3.100
  Name = 
  8 active torsions:
  status: ('A' for Active; 'I' for Inactive)
    1  A    between atoms: C_1  and  C_8
    2  A    between atoms: C_9  and  C_11
    3  A    between atoms: C_9  and  C_14
    4  A    between atoms: C_11  and  C_26
    5  A    between atoms: C_16  and  C_17
    6  A    between atoms: C_17  and  C_28
    7  A    between atoms: C_20  and  C_26
    8  A    between atoms: C_21  and  C_33
                            x       y       z     vdW  Elec       q    Type
                         _______ _______ _______ _____ _____    ______ ____

>  <TORSDO>
F 8

$$$$
=
 OpenBabel11042418433D

 34 38  0  0  1  0  0  0  0  0999 V2000
  188.6440  177.9170  142.7980 C   0  0  0  0  0  3  0  0  0  0  0  0
  187.6420  177.4260  145.3730 C   0  0  0  0  0  0  0  0  0  0  0  0
  185.3720  177.7160  144.5450 C   0  0  0  0  0  0  0  0  0  0  0  0
  189.0370  177.4100  145.1460 C   0  0  0  0  0  0  0  0  0  0  0  0
  184.9010  177.4760  145.7990 N   0  0  0  0  0  0  0  0  0  0  0  0
  189.5310  177.6520  143.8450 C   0  0  0  0  0  0  0  0  0  0  0  0
  186.7560  177.6960  144.3020 C   0  0  0  0  0  0  0  0  0  0  0  0
  185.7320  177.2110  146.8410 C   0  0  0  0  0  3  0  0  0  0  0  0
  187.2680  177.9400  143.0220 C   0  0  0  0  0  3  0  0  0  0  0  0
  187.1130  177.1820  146.6480 C   0  0  0  0  0  3  0  0  0  0  0  0
  184.4490  177.9950  143.4950 N   0  0  0  0  0  1  0  0  0  0  0  0
  189.9860  177.1260  146.2760 C   0  0  0  0  0  2  0  0  0  0  0  0
  190.2540  175.6360  146.3780 C   0  0  0  0  0  2  0  0  0  0  0  0
  191.6360  175.4010  146.9590 C   0  0  0  0  0  2  0  0  0  0  0  0
  193.9930  174.9820  146.4160 C   0  0  2  0  0  3  0  0  0  0  0  0
  193.2200  173.8590  146.0530 O   0  0  0  0  0  0  0  0  0  0  0  0
  192.6300  175.1180  145.8470 C   0  0  1  0  0  3  0  0  0  0  0  0
  197.0070  175.8230  143.4450 C   0  0  0  0  0  3  0  0  0  0  0  0
  195.0370  175.2560  145.3670 C   0  0  0  0  0  0  0  0  0  0  0  0
  196.0440  173.0230  145.6900 N   0  0  0  0  0  1  0  0  0  0  0  0
  194.1760  177.4780  145.0520 F   0  0  0  0  0  0  0  0  0  0  0  0
  196.9880  174.5790  144.0780 C   0  0  0  0  0  3  0  0  0  0  0  0
  196.0190  174.2940  145.0440 C   0  0  0  0  0  0  0  0  0  0  0  0
  195.0810  176.5160  144.7390 C   0  0  0  0  0  0  0  0  0  0  0  0
  196.0580  176.7910  143.7790 C   0  0  0  0  0  3  0  0  0  0  0  0
  191.0000  177.6460  143.5500 C   0  0  0  0  0  2  0  0  0  0  0  0
  190.4070  175.3840  142.5960 N   0  0  0  0  0  2  0  0  0  0  0  0
  190.6210  174.1520  141.8910 C   0  0  0  0  0  0  0  0  0  0  0  0
  192.5540  176.2970  142.3570 O   0  0  0  0  0  0  0  0  0  0  0  0
  191.7290  173.9380  141.2580 N   0  0  0  0  0  2  0  0  0  0  0  0
  191.3820  176.4120  142.8050 C   0  0  0  0  0  0  0  0  0  0  0  0
  188.1830  173.8830  142.0290 C   0  0  0  0  0  2  0  0  0  0  0  0
  188.5780  173.5890  140.6010 C   0  0  0  0  0  2  0  0  0  0  0  0
  189.4970  173.1800  141.7370 C   0  0  0  0  0  3  0  0  0  0  0  0
  1  9  2  0  0  0  0
  1  6  1  0  0  0  0
  2 10  1  0  0  0  0
  3  5  2  0  0  0  0
  4  2  1  0  0  0  0
  4 12  1  0  0  0  0
  5  8  1  0  0  0  0
  6  4  2  0  0  0  0
  7  3  1  0  0  0  0
  7  2  2  0  0  0  0
  9  7  1  0  0  0  0
 10  8  2  0  0  0  0
 11  3  1  0  0  0  0
 12 13  1  0  0  0  0
 13 14  1  0  0  0  0
 15 19  1  6  0  0  0
 16 15  1  0  0  0  0
 17 16  1  0  0  0  0
 17 15  1  0  0  0  0
 17 14  1  1  0  0  0
 18 25  2  0  0  0  0
 18 22  1  0  0  0  0
 22 23  2  0  0  0  0
 23 19  1  0  0  0  0
 23 20  1  0  0  0  0
 24 21  1  0  0  0  0
 24 19  2  0  0  0  0
 25 24  1  0  0  0  0
 26  6  1  0  0  0  0
 27 31  1  0  0  0  0
 28 27  1  0  0  0  0
 29 31  2  0  0  0  0
 30 28  2  0  0  0  0
 31 26  1  0  0  0  0
 33 34  1  0  0  0  0
 33 32  1  0  0  0  0
 34 28  1  0  0  0  0
 34 32  1  0  0  0  0
M  END
>  <MODEL>
3

>  <REMARK>
 VINA RESULT:      -7.8      2.073      3.007
  Name = 
  8 active torsions:
  status: ('A' for Active; 'I' for Inactive)
    1  A    between atoms: C_1  and  C_8
    2  A    between atoms: C_9  and  C_11
    3  A    between atoms: C_9  and  C_14
    4  A    between atoms: C_11  and  C_26
    5  A    between atoms: C_16  and  C_17
    6  A    between atoms: C_17  and  C_28
    7  A    between atoms: C_20  and  C_26
    8  A    between atoms: C_21  and  C_33
                            x       y       z     vdW  Elec       q    Type
                         _______ _______ _______ _____ _____    ______ ____

>  <TORSDO>
F 8

$$$$
=
 OpenBabel11042418433D

 34 38  0  0  1  0  0  0  0  0999 V2000
  187.5020  177.4710  142.9950 C   0  0  0  0  0  3  0  0  0  0  0  0
  186.5960  177.5140  145.6510 C   0  0  0  0  0  0  0  0  0  0  0  0
  184.5340  178.5870  144.9300 C   0  0  0  0  0  0  0  0  0  0  0  0
  187.8660  176.9700  145.3500 C   0  0  0  0  0  0  0  0  0  0  0  0
  184.1080  178.6020  146.2220 N   0  0  0  0  0  0  0  0  0  0  0  0
  188.3090  176.9460  144.0090 C   0  0  0  0  0  0  0  0  0  0  0  0
  185.7910  178.0420  144.6130 C   0  0  0  0  0  0  0  0  0  0  0  0
  184.8620  178.0980  147.2340 C   0  0  0  0  0  3  0  0  0  0  0  0
  186.2540  178.0140  143.2920 C   0  0  0  0  0  3  0  0  0  0  0  0
  186.1160  177.5480  146.9680 C   0  0  0  0  0  3  0  0  0  0  0  0
  183.6990  179.1370  143.9130 N   0  0  0  0  0  1  0  0  0  0  0  0
  188.7290  176.4100  146.4440 C   0  0  0  0  0  2  0  0  0  0  0  0
  189.7290  177.4520  146.9120 C   0  0  0  0  0  2  0  0  0  0  0  0
  190.9840  176.7670  147.4200 C   0  0  0  0  0  2  0  0  0  0  0  0
  192.9800  175.4950  146.7710 C   0  0  2  0  0  3  0  0  0  0  0  0
  191.8240  174.7810  146.3930 O   0  0  0  0  0  0  0  0  0  0  0  0
  191.7660  176.1780  146.2610 C   0  0  1  0  0  3  0  0  0  0  0  0
  196.0270  175.2420  143.7240 C   0  0  0  0  0  3  0  0  0  0  0  0
  194.0270  175.3960  145.6930 C   0  0  0  0  0  0  0  0  0  0  0  0
  193.7950  172.9380  145.6000 N   0  0  0  0  0  1  0  0  0  0  0  0
  194.3800  177.7720  145.7800 F   0  0  0  0  0  0  0  0  0  0  0  0
  195.3910  174.0800  144.1660 C   0  0  0  0  0  3  0  0  0  0  0  0
  194.4050  174.1470  145.1540 C   0  0  0  0  0  0  0  0  0  0  0  0
  194.6910  176.5590  145.2570 C   0  0  0  0  0  0  0  0  0  0  0  0
  195.6800  176.4780  144.2730 C   0  0  0  0  0  3  0  0  0  0  0  0
  189.6450  176.3800  143.6360 C   0  0  0  0  0  2  0  0  0  0  0  0
  189.5190  174.7580  141.7040 N   0  0  0  0  0  2  0  0  0  0  0  0
  189.4040  173.4810  141.0590 C   0  0  0  0  0  0  0  0  0  0  0  0
  189.3790  174.0350  143.9310 O   0  0  0  0  0  0  0  0  0  0  0  0
  189.4030  172.3890  141.7520 N   0  0  0  0  0  2  0  0  0  0  0  0
  189.5010  174.9890  143.1170 C   0  0  0  0  0  0  0  0  0  0  0  0
  188.2040  172.7070  139.0600 C   0  0  0  0  0  2  0  0  0  0  0  0
  188.3420  174.2070  138.9380 C   0  0  0  0  0  2  0  0  0  0  0  0
  189.4590  173.3950  139.5680 C   0  0  0  0  0  3  0  0  0  0  0  0
  1  9  2  0  0  0  0
  1  6  1  0  0  0  0
  2 10  1  0  0  0  0
  3  5  2  0  0  0  0
  4  2  1  0  0  0  0
  4 12  1  0  0  0  0
  5  8  1  0  0  0  0
  6  4  2  0  0  0  0
  7  3  1  0  0  0  0
  7  2  2  0  0  0  0
  9  7  1  0  0  0  0
 10  8  2  0  0  0  0
 11  3  1  0  0  0  0
 12 13  1  0  0  0  0
 13 14  1  0  0  0  0
 15 19  1  6  0  0  0
 16 15  1  0  0  0  0
 17 16  1  0  0  0  0
 17 15  1  0  0  0  0
 17 14  1  1  0  0  0
 18 22  2  0  0  0  0
 18 25  1  0  0  0  0
 22 23  1  0  0  0  0
 23 20  1  0  0  0  0
 23 19  2  0  0  0  0
 24 19  1  0  0  0  0
 24 21  1  0  0  0  0
 25 24  2  0  0  0  0
 26  6  1  0  0  0  0
 27 31  1  0  0  0  0
 28 27  1  0  0  0  0
 28 30  2  0  0  0  0
 31 26  1  0  0  0  0
 31 29  2  0  0  0  0
 32 34  1  0  0  0  0
 33 32  1  0  0  0  0
 33 34  1  0  0  0  0
 34 28  1  0  0  0  0
M  END
>  <MODEL>
4

>  <REMARK>
 VINA RESULT:      -7.7      2.176      2.988
  Name = 
  8 active torsions:
  status: ('A' for Active; 'I' for Inactive)
    1  A    between atoms: C_1  and  C_8
    2  A    between atoms: C_9  and  C_11
    3  A    between atoms: C_9  and  C_14
    4  A    between atoms: C_11  and  C_26
    5  A    between atoms: C_16  and  C_17
    6  A    between atoms: C_17  and  C_28
    7  A    between atoms: C_20  and  C_26
    8  A    between atoms: C_21  and  C_33
                            x       y       z     vdW  Elec       q    Type
                         _______ _______ _______ _____ _____    ______ ____

>  <TORSDO>
F 8

$$$$
=
 OpenBabel11042418433D

 34 38  0  0  1  0  0  0  0  0999 V2000
  184.8610  178.5460  145.1350 C   0  0  0  0  0  3  0  0  0  0  0  0
  185.9180  178.1470  142.5660 C   0  0  0  0  0  0  0  0  0  0  0  0
  183.6770  178.2650  141.6250 C   0  0  0  0  0  0  0  0  0  0  0  0
  186.7820  178.1800  143.6850 C   0  0  0  0  0  0  0  0  0  0  0  0
  184.2040  178.0700  140.3850 N   0  0  0  0  0  0  0  0  0  0  0  0
  186.2400  178.3880  144.9730 C   0  0  0  0  0  0  0  0  0  0  0  0
  184.5230  178.3080  142.7460 C   0  0  0  0  0  0  0  0  0  0  0  0
  185.5390  177.9170  140.1880 C   0  0  0  0  0  3  0  0  0  0  0  0
  184.0080  178.5060  144.0330 C   0  0  0  0  0  3  0  0  0  0  0  0
  186.4180  177.9510  141.2710 C   0  0  0  0  0  3  0  0  0  0  0  0
  182.2660  178.4120  141.7680 N   0  0  0  0  0  1  0  0  0  0  0  0
  188.2630  178.0070  143.5040 C   0  0  0  0  0  2  0  0  0  0  0  0
  188.5850  176.5730  143.1270 C   0  0  0  0  0  2  0  0  0  0  0  0
  189.9850  176.4960  142.5460 C   0  0  0  0  0  2  0  0  0  0  0  0
  192.3710  176.2910  143.0830 C   0  0  2  0  0  3  0  0  0  0  0  0
  191.8440  177.4370  143.7150 O   0  0  0  0  0  0  0  0  0  0  0  0
  191.0030  176.3120  143.6560 C   0  0  1  0  0  3  0  0  0  0  0  0
  195.0690  174.2790  145.7840 C   0  0  0  0  0  3  0  0  0  0  0  0
  193.3250  175.5800  144.0060 C   0  0  0  0  0  0  0  0  0  0  0  0
  192.8070  173.3980  142.9710 N   0  0  0  0  0  1  0  0  0  0  0  0
  193.8200  177.6480  145.1280 F   0  0  0  0  0  0  0  0  0  0  0  0
  194.3860  173.5440  144.8130 C   0  0  0  0  0  3  0  0  0  0  0  0
  193.5080  174.1820  143.9330 C   0  0  0  0  0  0  0  0  0  0  0  0
  194.0000  176.3080  145.0050 C   0  0  0  0  0  0  0  0  0  0  0  0
  194.8710  175.6580  145.8820 C   0  0  0  0  0  3  0  0  0  0  0  0
  187.1110  178.4330  146.1910 C   0  0  0  0  0  2  0  0  0  0  0  0
  188.9280  176.7390  146.6470 N   0  0  0  0  0  2  0  0  0  0  0  0
  189.4850  175.4700  147.0210 C   0  0  0  0  0  0  0  0  0  0  0  0
  186.6560  176.2010  146.8760 O   0  0  0  0  0  0  0  0  0  0  0  0
  188.7270  174.5240  147.4720 N   0  0  0  0  0  2  0  0  0  0  0  0
  187.5330  177.0580  146.5870 C   0  0  0  0  0  0  0  0  0  0  0  0
  191.6160  176.5780  147.5340 C   0  0  0  0  0  2  0  0  0  0  0  0
  191.4940  175.4030  148.4750 C   0  0  0  0  0  2  0  0  0  0  0  0
  190.9680  175.2910  147.0550 C   0  0  0  0  0  3  0  0  0  0  0  0
  2  7  1  0  0  0  0
  2  4  1  0  0  0  0
  3 11  1  0  0  0  0
  3  7  2  0  0  0  0
  4  6  2  0  0  0  0
  5  3  1  0  0  0  0
  6  1  1  0  0  0  0
  6 26  1  0  0  0  0
  7  9  1  0  0  0  0
  8  5  2  0  0  0  0
  8 10  1  0  0  0  0
  9  1  2  0  0  0  0
 10  2  2  0  0  0  0
 12  4  1  0  0  0  0
 13 12  1  0  0  0  0
 14 13  1  0  0  0  0
 15 17  1  0  0  0  0
 15 16  1  0  0  0  0
 15 19  1  1  0  0  0
 17 14  1  6  0  0  0
 17 16  1  0  0  0  0
 18 25  1  0  0  0  0
 19 24  1  0  0  0  0
 20 23  1  0  0  0  0
 22 18  2  0  0  0  0
 23 19  2  0  0  0  0
 23 22  1  0  0  0  0
 24 21  1  0  0  0  0
 24 25  2  0  0  0  0
 26 31  1  0  0  0  0
 27 28  1  0  0  0  0
 28 34  1  0  0  0  0
 28 30  2  0  0  0  0
 31 27  1  0  0  0  0
 31 29  2  0  0  0  0
 32 33  1  0  0  0  0
 34 32  1  0  0  0  0
 34 33  1  0  0  0  0
M  END
>  <MODEL>
5

>  <REMARK>
 VINA RESULT:      -7.7      2.167      4.279
  Name = 
  8 active torsions:
  status: ('A' for Active; 'I' for Inactive)
    1  A    between atoms: C_1  and  C_8
    2  A    between atoms: C_9  and  C_11
    3  A    between atoms: C_9  and  C_14
    4  A    between atoms: C_11  and  C_26
    5  A    between atoms: C_16  and  C_17
    6  A    between atoms: C_17  and  C_28
    7  A    between atoms: C_20  and  C_26
    8  A    between atoms: C_21  and  C_33
                            x       y       z     vdW  Elec       q    Type
                         _______ _______ _______ _____ _____    ______ ____

>  <TORSDO>
F 8

$$$$
=
 OpenBabel11042418433D

 34 38  0  0  1  0  0  0  0  0999 V2000
  188.1830  176.7900  144.2760 C   0  0  0  0  0  3  0  0  0  0  0  0
  189.4380  174.3350  144.7990 C   0  0  0  0  0  0  0  0  0  0  0  0
  189.2070  173.7180  142.4560 C   0  0  0  0  0  0  0  0  0  0  0  0
  189.2340  175.2580  145.8500 C   0  0  0  0  0  0  0  0  0  0  0  0
  189.8160  172.5310  142.7240 N   0  0  0  0  0  0  0  0  0  0  0  0
  188.6070  176.4940  145.5740 C   0  0  0  0  0  0  0  0  0  0  0  0
  189.0030  174.6490  143.4890 C   0  0  0  0  0  0  0  0  0  0  0  0
  190.2460  172.2090  143.9730 C   0  0  0  0  0  3  0  0  0  0  0  0
  188.3780  175.8770  143.2410 C   0  0  0  0  0  3  0  0  0  0  0  0
  190.0640  173.1020  145.0290 C   0  0  0  0  0  3  0  0  0  0  0  0
  188.7720  173.9940  141.1260 N   0  0  0  0  0  1  0  0  0  0  0  0
  189.6900  174.9330  147.2430 C   0  0  0  0  0  2  0  0  0  0  0  0
  190.9340  175.7300  147.5900 C   0  0  0  0  0  2  0  0  0  0  0  0
  192.1730  174.9150  147.2660 C   0  0  0  0  0  2  0  0  0  0  0  0
  193.1410  175.0490  145.0150 C   0  0  2  0  0  3  0  0  0  0  0  0
  192.3530  176.1940  145.2570 O   0  0  0  0  0  0  0  0  0  0  0  0
  193.0900  175.7000  146.3470 C   0  0  1  0  0  3  0  0  0  0  0  0
  196.7730  176.0740  142.9210 C   0  0  0  0  0  3  0  0  0  0  0  0
  194.4010  175.4300  144.2830 C   0  0  0  0  0  0  0  0  0  0  0  0
  193.1050  176.3390  142.3860 N   0  0  0  0  0  1  0  0  0  0  0  0
  195.7380  174.4890  146.0450 F   0  0  0  0  0  0  0  0  0  0  0  0
  195.5350  176.3720  142.3480 C   0  0  0  0  0  3  0  0  0  0  0  0
  194.3510  176.0440  143.0130 C   0  0  0  0  0  0  0  0  0  0  0  0
  195.6540  175.1120  144.8420 C   0  0  0  0  0  0  0  0  0  0  0  0
  196.8300  175.4400  144.1650 C   0  0  0  0  0  3  0  0  0  0  0  0
  188.3670  177.5070  146.6520 C   0  0  0  0  0  2  0  0  0  0  0  0
  186.2660  178.4310  145.5990 N   0  0  0  0  0  2  0  0  0  0  0  0
  184.8820  178.8050  145.5240 C   0  0  0  0  0  0  0  0  0  0  0  0
  186.2870  177.6200  147.8000 O   0  0  0  0  0  0  0  0  0  0  0  0
  184.0660  178.5110  146.4850 N   0  0  0  0  0  2  0  0  0  0  0  0
  186.9190  177.8540  146.7350 C   0  0  0  0  0  0  0  0  0  0  0  0
  185.3460  179.1850  143.1420 C   0  0  0  0  0  2  0  0  0  0  0  0
  184.1250  178.2990  143.2160 C   0  0  0  0  0  2  0  0  0  0  0  0
  184.3360  179.3820  144.2590 C   0  0  0  0  0  3  0  0  0  0  0  0
  1  6  1  0  0  0  0
  2 10  1  0  0  0  0
  2  4  1  0  0  0  0
  3  5  2  0  0  0  0
  3  7  1  0  0  0  0
  4 12  1  0  0  0  0
  5  8  1  0  0  0  0
  6  4  2  0  0  0  0
  6 26  1  0  0  0  0
  7  2  2  0  0  0  0
  8 10  2  0  0  0  0
  9  7  1  0  0  0  0
  9  1  2  0  0  0  0
 11  3  1  0  0  0  0
 12 13  1  0  0  0  0
 14 13  1  0  0  0  0
 15 19  1  6  0  0  0
 15 16  1  0  0  0  0
 15 17  1  0  0  0  0
 16 17  1  0  0  0  0
 17 14  1  1  0  0  0
 18 25  1  0  0  0  0
 19 24  1  0  0  0  0
 20 23  1  0  0  0  0
 22 18  2  0  0  0  0
 22 23  1  0  0  0  0
 23 19  2  0  0  0  0
 24 21  1  0  0  0  0
 25 24  2  0  0  0  0
 26 31  1  0  0  0  0
 27 31  1  0  0  0  0
 28 27  1  0  0  0  0
 28 30  2  0  0  0  0
 31 29  2  0  0  0  0
 32 33  1  0  0  0  0
 32 34  1  0  0  0  0
 33 34  1  0  0  0  0
 34 28  1  0  0  0  0
M  END
>  <MODEL>
6

>  <REMARK>
 VINA RESULT:      -7.6      2.344      5.729
  Name = 
  8 active torsions:
  status: ('A' for Active; 'I' for Inactive)
    1  A    between atoms: C_1  and  C_8
    2  A    between atoms: C_9  and  C_11
    3  A    between atoms: C_9  and  C_14
    4  A    between atoms: C_11  and  C_26
    5  A    between atoms: C_16  and  C_17
    6  A    between atoms: C_17  and  C_28
    7  A    between atoms: C_20  and  C_26
    8  A    between atoms: C_21  and  C_33
                            x       y       z     vdW  Elec       q    Type
                         _______ _______ _______ _____ _____    ______ ____

>  <TORSDO>
F 8

$$$$
=
 OpenBabel11042418433D

 34 38  0  0  1  0  0  0  0  0999 V2000
  192.6160  175.7300  142.7300 C   0  0  0  0  0  3  0  0  0  0  0  0
  191.0250  173.9550  144.2110 C   0  0  0  0  0  0  0  0  0  0  0  0
  189.9900  173.1670  142.1550 C   0  0  0  0  0  0  0  0  0  0  0  0
  191.9400  174.8020  144.8770 C   0  0  0  0  0  0  0  0  0  0  0  0
  189.2250  172.3110  142.8860 N   0  0  0  0  0  0  0  0  0  0  0  0
  192.7410  175.6870  144.1210 C   0  0  0  0  0  0  0  0  0  0  0  0
  190.9100  174.0100  142.8010 C   0  0  0  0  0  0  0  0  0  0  0  0
  189.3210  172.2390  144.2390 C   0  0  0  0  0  3  0  0  0  0  0  0
  191.7090  174.9000  142.0740 C   0  0  0  0  0  3  0  0  0  0  0  0
  190.2180  173.0570  144.9240 C   0  0  0  0  0  3  0  0  0  0  0  0
  189.8370  173.2010  140.7370 N   0  0  0  0  0  1  0  0  0  0  0  0
  192.0680  174.7530  146.3730 C   0  0  0  0  0  2  0  0  0  0  0  0
  191.4300  175.9810  146.9970 C   0  0  0  0  0  2  0  0  0  0  0  0
  189.9220  175.8160  147.0310 C   0  0  0  0  0  2  0  0  0  0  0  0
  187.7820  176.7890  146.3250 C   0  0  2  0  0  3  0  0  0  0  0  0
  188.4020  177.6440  147.2600 O   0  0  0  0  0  0  0  0  0  0  0  0
  189.2510  176.9940  146.3480 C   0  0  1  0  0  3  0  0  0  0  0  0
  185.9500  179.0410  143.1320 C   0  0  0  0  0  3  0  0  0  0  0  0
  187.1490  177.5950  145.2220 C   0  0  0  0  0  0  0  0  0  0  0  0
  185.6860  178.7710  146.8290 N   0  0  0  0  0  1  0  0  0  0  0  0
  188.4710  176.4380  143.5820 F   0  0  0  0  0  0  0  0  0  0  0  0
  185.5520  179.2620  144.4520 C   0  0  0  0  0  3  0  0  0  0  0  0
  186.1350  178.5390  145.4950 C   0  0  0  0  0  0  0  0  0  0  0  0
  187.5260  177.3640  143.8850 C   0  0  0  0  0  0  0  0  0  0  0  0
  186.9320  178.0890  142.8500 C   0  0  0  0  0  3  0  0  0  0  0  0
  193.7270  176.6050  144.7770 C   0  0  0  0  0  2  0  0  0  0  0  0
  195.5080  174.8570  145.1600 N   0  0  0  0  0  2  0  0  0  0  0  0
  196.8030  174.2460  145.0490 C   0  0  0  0  0  0  0  0  0  0  0  0
  195.9300  176.7900  143.8990 O   0  0  0  0  0  0  0  0  0  0  0  0
  197.7070  174.7520  144.2750 N   0  0  0  0  0  2  0  0  0  0  0  0
  195.1190  176.1080  144.5820 C   0  0  0  0  0  0  0  0  0  0  0  0
  195.7570  172.1390  145.7580 C   0  0  0  0  0  2  0  0  0  0  0  0
  196.7960  171.7870  144.7210 C   0  0  0  0  0  2  0  0  0  0  0  0
  197.0560  172.9220  145.6940 C   0  0  0  0  0  3  0  0  0  0  0  0
  1  6  1  0  0  0  0
  2  4  1  0  0  0  0
  2 10  1  0  0  0  0
  3  7  1  0  0  0  0
  3  5  2  0  0  0  0
  4 12  1  0  0  0  0
  5  8  1  0  0  0  0
  6 26  1  0  0  0  0
  6  4  2  0  0  0  0
  7  2  2  0  0  0  0
  8 10  2  0  0  0  0
  9  1  2  0  0  0  0
  9  7  1  0  0  0  0
 11  3  1  0  0  0  0
 12 13  1  0  0  0  0
 13 14  1  0  0  0  0
 15 19  1  6  0  0  0
 15 17  1  0  0  0  0
 15 16  1  0  0  0  0
 17 14  1  1  0  0  0
 17 16  1  0  0  0  0
 18 22  1  0  0  0  0
 19 23  1  0  0  0  0
 21 24  1  0  0  0  0
 22 23  2  0  0  0  0
 23 20  1  0  0  0  0
 24 19  2  0  0  0  0
 25 18  2  0  0  0  0
 25 24  1  0  0  0  0
 28 27  1  0  0  0  0
 28 34  1  0  0  0  0
 29 31  2  0  0  0  0
 30 28  2  0  0  0  0
 31 26  1  0  0  0  0
 31 27  1  0  0  0  0
 33 34  1  0  0  0  0
 33 32  1  0  0  0  0
 34 32  1  0  0  0  0
M  END
>  <MODEL>
7

>  <REMARK>
 VINA RESULT:      -7.5      2.715      6.204
  Name = 
  8 active torsions:
  status: ('A' for Active; 'I' for Inactive)
    1  A    between atoms: C_1  and  C_8
    2  A    between atoms: C_9  and  C_11
    3  A    between atoms: C_9  and  C_14
    4  A    between atoms: C_11  and  C_26
    5  A    between atoms: C_16  and  C_17
    6  A    between atoms: C_17  and  C_28
    7  A    between atoms: C_20  and  C_26
    8  A    between atoms: C_21  and  C_33
                            x       y       z     vdW  Elec       q    Type
                         _______ _______ _______ _____ _____    ______ ____

>  <TORSDO>
F 8

$$$$
=
 OpenBabel11042418433D

 34 38  0  0  1  0  0  0  0  0999 V2000
  192.4090  172.2430  144.3430 C   0  0  0  0  0  3  0  0  0  0  0  0
  192.4800  174.7760  145.5480 C   0  0  0  0  0  0  0  0  0  0  0  0
  194.9070  174.6500  145.6710 C   0  0  0  0  0  0  0  0  0  0  0  0
  191.2390  174.2020  145.1910 C   0  0  0  0  0  0  0  0  0  0  0  0
  194.9270  175.8790  146.2550 N   0  0  0  0  0  0  0  0  0  0  0  0
  191.2150  172.9290  144.5780 C   0  0  0  0  0  0  0  0  0  0  0  0
  193.6810  174.0690  145.3030 C   0  0  0  0  0  0  0  0  0  0  0  0
  193.7860  176.5780  146.4960 C   0  0  0  0  0  3  0  0  0  0  0  0
  193.6330  172.8060  144.7010 C   0  0  0  0  0  3  0  0  0  0  0  0
  192.5470  176.0400  146.1500 C   0  0  0  0  0  3  0  0  0  0  0  0
  196.1380  173.9640  145.4500 N   0  0  0  0  0  1  0  0  0  0  0  0
  189.9590  174.9430  145.4490 C   0  0  0  0  0  2  0  0  0  0  0  0
  189.4480  174.6440  146.8470 C   0  0  0  0  0  2  0  0  0  0  0  0
  188.3540  175.6280  147.2160 C   0  0  0  0  0  2  0  0  0  0  0  0
  186.7290  176.7760  145.7790 C   0  0  2  0  0  3  0  0  0  0  0  0
  187.4000  177.7240  146.5800 O   0  0  0  0  0  0  0  0  0  0  0  0
  188.1700  176.6480  146.1070 C   0  0  1  0  0  3  0  0  0  0  0  0
  186.1700  178.2550  141.7630 C   0  0  0  0  0  3  0  0  0  0  0  0
  186.5470  177.3120  144.3830 C   0  0  0  0  0  0  0  0  0  0  0  0
  185.5190  179.3870  145.2410 N   0  0  0  0  0  1  0  0  0  0  0  0
  187.4560  175.2870  143.4600 F   0  0  0  0  0  0  0  0  0  0  0  0
  185.7800  179.0390  142.8500 C   0  0  0  0  0  3  0  0  0  0  0  0
  185.9520  178.5720  144.1550 C   0  0  0  0  0  0  0  0  0  0  0  0
  186.9160  176.5190  143.2790 C   0  0  0  0  0  0  0  0  0  0  0  0
  186.7320  176.9950  141.9780 C   0  0  0  0  0  3  0  0  0  0  0  0
  189.9260  172.2760  144.1800 C   0  0  0  0  0  2  0  0  0  0  0  0
  189.8000  172.8730  141.7290 N   0  0  0  0  0  2  0  0  0  0  0  0
  189.8240  172.6420  140.3120 C   0  0  0  0  0  0  0  0  0  0  0  0
  190.1490  170.6650  142.4440 O   0  0  0  0  0  0  0  0  0  0  0  0
  190.1350  171.4800  139.8370 N   0  0  0  0  0  2  0  0  0  0  0  0
  189.9620  171.8750  142.7440 C   0  0  0  0  0  0  0  0  0  0  0  0
  188.8300  173.3460  138.1790 C   0  0  0  0  0  2  0  0  0  0  0  0
  188.1980  174.1920  139.2580 C   0  0  0  0  0  2  0  0  0  0  0  0
  189.6580  173.7910  139.3710 C   0  0  0  0  0  3  0  0  0  0  0  0
  1  6  2  0  0  0  0
  1  9  1  0  0  0  0
  2 10  1  0  0  0  0
  3  5  2  0  0  0  0
  4 12  1  0  0  0  0
  4  2  2  0  0  0  0
  5  8  1  0  0  0  0
  6  4  1  0  0  0  0
  7  2  1  0  0  0  0
  7  3  1  0  0  0  0
  9  7  2  0  0  0  0
 10  8  2  0  0  0  0
 11  3  1  0  0  0  0
 12 13  1  0  0  0  0
 13 14  1  0  0  0  0
 15 19  1  6  0  0  0
 15 17  1  0  0  0  0
 15 16  1  0  0  0  0
 17 16  1  0  0  0  0
 17 14  1  1  0  0  0
 18 25  2  0  0  0  0
 18 22  1  0  0  0  0
 22 23  2  0  0  0  0
 23 19  1  0  0  0  0
 23 20  1  0  0  0  0
 24 21  1  0  0  0  0
 24 19  2  0  0  0  0
 25 24  1  0  0  0  0
 26  6  1  0  0  0  0
 27 31  1  0  0  0  0
 28 27  1  0  0  0  0
 29 31  2  0  0  0  0
 30 28  2  0  0  0  0
 31 26  1  0  0  0  0
 32 33  1  0  0  0  0
 32 34  1  0  0  0  0
 33 34  1  0  0  0  0
 34 28  1  0  0  0  0
M  END
>  <MODEL>
8

>  <REMARK>
 VINA RESULT:      -7.5      2.540      6.866
  Name = 
  8 active torsions:
  status: ('A' for Active; 'I' for Inactive)
    1  A    between atoms: C_1  and  C_8
    2  A    between atoms: C_9  and  C_11
    3  A    between atoms: C_9  and  C_14
    4  A    between atoms: C_11  and  C_26
    5  A    between atoms: C_16  and  C_17
    6  A    between atoms: C_17  and  C_28
    7  A    between atoms: C_20  and  C_26
    8  A    between atoms: C_21  and  C_33
                            x       y       z     vdW  Elec       q    Type
                         _______ _______ _______ _____ _____    ______ ____

>  <TORSDO>
F 8

$$$$
=
 OpenBabel11042418433D

 34 38  0  0  1  0  0  0  0  0999 V2000
  190.4140  171.1080  141.9010 C   0  0  0  0  0  3  0  0  0  0  0  0
  189.1370  173.0180  140.2900 C   0  0  0  0  0  0  0  0  0  0  0  0
  189.9020  171.8490  138.2970 C   0  0  0  0  0  0  0  0  0  0  0  0
  189.0780  173.1320  141.6980 C   0  0  0  0  0  0  0  0  0  0  0  0
  189.2780  172.7830  137.5290 N   0  0  0  0  0  0  0  0  0  0  0  0
  189.7180  172.1620  142.4990 C   0  0  0  0  0  0  0  0  0  0  0  0
  189.8460  171.9450  139.6980 C   0  0  0  0  0  0  0  0  0  0  0  0
  188.5890  173.8200  138.0740 C   0  0  0  0  0  3  0  0  0  0  0  0
  190.4790  170.9980  140.5120 C   0  0  0  0  0  3  0  0  0  0  0  0
  188.5070  173.9560  139.4600 C   0  0  0  0  0  3  0  0  0  0  0  0
  190.6150  170.7890  137.6640 N   0  0  0  0  0  1  0  0  0  0  0  0
  188.3300  174.2690  142.3350 C   0  0  0  0  0  2  0  0  0  0  0  0
  189.2580  175.4470  142.5660 C   0  0  0  0  0  2  0  0  0  0  0  0
  188.6300  176.7130  142.0140 C   0  0  0  0  0  2  0  0  0  0  0  0
  187.4460  178.1130  143.6460 C   0  0  2  0  0  3  0  0  0  0  0  0
  186.8570  178.2730  142.3740 O   0  0  0  0  0  0  0  0  0  0  0  0
  187.3020  176.9800  142.6990 C   0  0  1  0  0  3  0  0  0  0  0  0
  184.4440  177.9520  146.7420 C   0  0  0  0  0  3  0  0  0  0  0  0
  186.3810  178.0570  144.7090 C   0  0  0  0  0  0  0  0  0  0  0  0
  185.3560  180.1490  143.8870 N   0  0  0  0  0  1  0  0  0  0  0  0
  187.3660  176.0670  145.6280 F   0  0  0  0  0  0  0  0  0  0  0  0
  184.4240  178.9930  145.8110 C   0  0  0  0  0  3  0  0  0  0  0  0
  185.3910  179.0590  144.8050 C   0  0  0  0  0  0  0  0  0  0  0  0
  186.4060  177.0260  145.6670 C   0  0  0  0  0  0  0  0  0  0  0  0
  185.4370  176.9740  146.6720 C   0  0  0  0  0  3  0  0  0  0  0  0
  189.6850  172.2360  143.9960 C   0  0  0  0  0  2  0  0  0  0  0  0
  190.9930  174.1470  145.0010 N   0  0  0  0  0  2  0  0  0  0  0  0
  192.1390  174.8190  145.5460 C   0  0  0  0  0  0  0  0  0  0  0  0
  191.9910  172.0720  144.5530 O   0  0  0  0  0  0  0  0  0  0  0  0
  193.2390  174.1750  145.7670 N   0  0  0  0  0  2  0  0  0  0  0  0
  190.9620  172.7970  144.5230 C   0  0  0  0  0  0  0  0  0  0  0  0
  190.5460  176.5660  146.2140 C   0  0  0  0  0  2  0  0  0  0  0  0
  191.4140  176.2790  147.4170 C   0  0  0  0  0  2  0  0  0  0  0  0
  192.0140  176.2300  146.0230 C   0  0  0  0  0  3  0  0  0  0  0  0
  1  6  1  0  0  0  0
  2  4  1  0  0  0  0
  3  7  2  0  0  0  0
  4 12  1  0  0  0  0
  4  6  2  0  0  0  0
  5  8  2  0  0  0  0
  5  3  1  0  0  0  0
  6 26  1  0  0  0  0
  7  2  1  0  0  0  0
  7  9  1  0  0  0  0
  8 10  1  0  0  0  0
  9  1  2  0  0  0  0
 10  2  2  0  0  0  0
 11  3  1  0  0  0  0
 12 13  1  0  0  0  0
 14 13  1  0  0  0  0
 15 19  1  1  0  0  0
 16 17  1  0  0  0  0
 16 15  1  0  0  0  0
 17 14  1  6  0  0  0
 17 15  1  0  0  0  0
 19 23  2  0  0  0  0
 19 24  1  0  0  0  0
 20 23  1  0  0  0  0
 21 24  1  0  0  0  0
 22 18  2  0  0  0  0
 23 22  1  0  0  0  0
 24 25  2  0  0  0  0
 25 18  1  0  0  0  0
 26 31  1  0  0  0  0
 27 28  1  0  0  0  0
 28 30  2  0  0  0  0
 28 34  1  0  0  0  0
 31 29  2  0  0  0  0
 31 27  1  0  0  0  0
 32 33  1  0  0  0  0
 34 32  1  0  0  0  0
 34 33  1  0  0  0  0
M  END
>  <MODEL>
9

>  <REMARK>
 VINA RESULT:      -7.5      2.675      6.807
  Name = 
  8 active torsions:
  status: ('A' for Active; 'I' for Inactive)
    1  A    between atoms: C_1  and  C_8
    2  A    between atoms: C_9  and  C_11
    3  A    between atoms: C_9  and  C_14
    4  A    between atoms: C_11  and  C_26
    5  A    between atoms: C_16  and  C_17
    6  A    between atoms: C_17  and  C_28
    7  A    between atoms: C_20  and  C_26
    8  A    between atoms: C_21  and  C_33
                            x       y       z     vdW  Elec       q    Type
                         _______ _______ _______ _____ _____    ______ ____

>  <TORSDO>
F 8

$$$$
