=
 OpenBabel11042416153D

 33 36  0  0  1  0  0  0  0  0999 V2000
  190.0160  173.1990  143.3400 N   0  0  0  0  0  2  0  0  0  0  0  0
  189.5000  174.5160  143.1110 C   0  0  0  0  0  0  0  0  0  0  0  0
  191.2330  178.1850  143.7120 S   0  0  0  0  0  0  0  0  0  0  0  0
  194.6770  175.9250  146.7930 F   0  0  0  0  0  0  0  0  0  0  0  0
  193.5830  175.8310  146.0000 C   0  0  0  0  0  0  0  0  0  0  0  0
  191.3760  175.6260  144.4060 C   0  0  0  0  0  0  0  0  0  0  0  0
  192.9390  174.5950  145.8320 C   0  0  0  0  0  3  0  0  0  0  0  0
  192.0010  176.8330  144.5770 C   0  0  0  0  0  0  0  0  0  0  0  0
  190.2140  175.6710  143.5880 N   0  0  0  0  0  0  0  0  0  0  0  0
  189.9050  177.0340  143.1380 C   0  0  1  0  0  3  0  0  0  0  0  0
  188.4240  174.6640  142.4710 O   0  0  0  0  0  0  0  0  0  0  0  0
  191.8350  174.5140  145.0370 N   0  0  0  0  0  0  0  0  0  0  0  0
  193.0980  176.9370  145.3670 N   0  0  0  0  0  0  0  0  0  0  0  0
  188.5640  177.4810  143.6340 C   0  0  0  0  0  0  0  0  0  0  0  0
  188.2340  177.4310  144.9940 C   0  0  0  0  0  3  0  0  0  0  0  0
  186.9630  177.8210  145.4230 C   0  0  0  0  0  3  0  0  0  0  0  0
  186.0060  178.2690  144.4950 C   0  0  0  0  0  0  0  0  0  0  0  0
  187.6190  177.9370  142.7110 C   0  0  0  0  0  3  0  0  0  0  0  0
  186.3400  178.3270  143.1320 C   0  0  0  0  0  0  0  0  0  0  0  0
  184.2560  178.5070  146.2290 C   0  0  0  0  0  1  0  0  0  0  0  0
  184.7230  178.6540  144.8950 O   0  0  0  0  0  0  0  0  0  0  0  0
  185.3840  178.7450  142.2000 O   0  0  0  0  0  0  0  0  0  0  0  0
  185.4380  178.3540  140.9200 O   0  0  0  0  0  0  0  0  0  0  0  0
  184.1030  178.3390  140.5030 C   0  0  0  0  0  1  0  0  0  0  0  0
  189.2920  172.0000  142.9370 C   0  0  0  0  0  2  0  0  0  0  0  0
  191.3070  170.2350  139.5890 C   0  0  0  0  0  3  0  0  0  0  0  0
  189.9060  171.9800  140.5160 C   0  0  0  0  0  3  0  0  0  0  0  0
  190.7180  170.1950  141.9390 C   0  0  0  0  0  3  0  0  0  0  0  0
  189.9710  171.3680  141.7730 C   0  0  0  0  0  0  0  0  0  0  0  0
  192.1320  168.4710  141.0110 O   0  0  0  0  0  1  0  0  0  0  0  0
  190.4970  172.0000  138.2060 F   0  0  0  0  0  0  0  0  0  0  0  0
  191.3870  169.6310  140.8470 C   0  0  0  0  0  0  0  0  0  0  0  0
  190.5700  171.4130  139.4240 C   0  0  0  0  0  0  0  0  0  0  0  0
  2  1  1  0  0  0  0
  2  9  1  0  0  0  0
  3  8  1  0  0  0  0
  5  4  1  0  0  0  0
  6  8  2  0  0  0  0
  6 12  1  0  0  0  0
  7  5  1  0  0  0  0
  8 13  1  0  0  0  0
  9  6  1  0  0  0  0
 10  9  1  0  0  0  0
 10 14  1  1  0  0  0
 10  3  1  0  0  0  0
 11  2  2  0  0  0  0
 12  7  2  0  0  0  0
 13  5  2  0  0  0  0
 14 15  1  0  0  0  0
 15 16  2  0  0  0  0
 17 21  1  0  0  0  0
 17 16  1  0  0  0  0
 18 19  1  0  0  0  0
 18 14  2  0  0  0  0
 19 17  2  0  0  0  0
 21 20  1  0  0  0  0
 22 19  1  0  0  0  0
 23 22  1  0  0  0  0
 24 23  1  0  0  0  0
 25  1  1  0  0  0  0
 26 32  1  0  0  0  0
 27 29  2  0  0  0  0
 29 28  1  0  0  0  0
 29 25  1  0  0  0  0
 31 33  1  0  0  0  0
 32 30  1  0  0  0  0
 32 28  2  0  0  0  0
 33 26  2  0  0  0  0
 33 27  1  0  0  0  0
M  END
>  <MODEL>
1

>  <REMARK>
 VINA RESULT:      -7.3      0.000      0.000
  Name = 
  6 active torsions:
  status: ('A' for Active; 'I' for Inactive)
    1  A    between atoms: N_1  and  C_12
    2  A    between atoms: C_3  and  C_26
    3  A    between atoms: O_10  and  O_29
    4  A    between atoms: C_12  and  C_14
    5  A    between atoms: C_21  and  O_33
    6  A    between atoms: C_27  and  O_29
                            x       y       z     vdW  Elec       q    Type
                         _______ _______ _______ _____ _____    ______ ____

>  <TORSDO>
F 6

$$$$
=
 OpenBabel11042416153D

 33 36  0  0  1  0  0  0  0  0999 V2000
  190.0130  173.2060  143.3170 N   0  0  0  0  0  2  0  0  0  0  0  0
  189.5100  174.5220  143.0610 C   0  0  0  0  0  0  0  0  0  0  0  0
  191.2400  178.1900  143.6740 S   0  0  0  0  0  0  0  0  0  0  0  0
  194.5870  175.9480  146.8730 F   0  0  0  0  0  0  0  0  0  0  0  0
  193.5150  175.8510  146.0500 C   0  0  0  0  0  0  0  0  0  0  0  0
  191.3530  175.6380  144.3970 C   0  0  0  0  0  0  0  0  0  0  0  0
  192.8710  174.6150  145.8770 C   0  0  0  0  0  3  0  0  0  0  0  0
  191.9780  176.8440  144.5740 C   0  0  0  0  0  0  0  0  0  0  0  0
  190.2140  175.6790  143.5460 N   0  0  0  0  0  0  0  0  0  0  0  0
  189.9240  177.0390  143.0750 C   0  0  1  0  0  3  0  0  0  0  0  0
  188.4520  174.6680  142.3890 O   0  0  0  0  0  0  0  0  0  0  0  0
  191.7900  174.5310  145.0520 N   0  0  0  0  0  0  0  0  0  0  0  0
  193.0530  176.9520  145.3930 N   0  0  0  0  0  0  0  0  0  0  0  0
  188.5710  177.4960  143.5280 C   0  0  0  0  0  0  0  0  0  0  0  0
  188.2000  177.4520  144.8780 C   0  0  0  0  0  3  0  0  0  0  0  0
  186.9190  177.8520  145.2670 C   0  0  0  0  0  3  0  0  0  0  0  0
  185.9940  178.3030  144.3090 C   0  0  0  0  0  0  0  0  0  0  0  0
  187.6580  177.9550  142.5760 C   0  0  0  0  0  3  0  0  0  0  0  0
  186.3690  178.3540  142.9570 C   0  0  0  0  0  0  0  0  0  0  0  0
  184.2220  178.6350  146.0050 C   0  0  0  0  0  1  0  0  0  0  0  0
  184.7010  178.6970  144.6690 O   0  0  0  0  0  0  0  0  0  0  0  0
  185.4450  178.7750  141.9950 O   0  0  0  0  0  0  0  0  0  0  0  0
  185.2640  178.0980  140.8530 O   0  0  0  0  0  0  0  0  0  0  0  0
  183.9280  178.3300  140.5160 C   0  0  0  0  0  1  0  0  0  0  0  0
  189.2960  172.0050  142.9060 C   0  0  0  0  0  2  0  0  0  0  0  0
  191.2330  170.1360  139.5690 C   0  0  0  0  0  3  0  0  0  0  0  0
  190.7130  170.1930  141.9340 C   0  0  0  0  0  3  0  0  0  0  0  0
  189.8760  171.9300  140.4680 C   0  0  0  0  0  3  0  0  0  0  0  0
  189.9890  171.3760  141.7490 C   0  0  0  0  0  0  0  0  0  0  0  0
  190.3810  171.8550  138.1070 O   0  0  0  0  0  1  0  0  0  0  0  0
  192.0470  168.4360  141.0290 F   0  0  0  0  0  0  0  0  0  0  0  0
  190.4960  171.3080  139.3790 C   0  0  0  0  0  0  0  0  0  0  0  0
  191.3370  169.5750  140.8470 C   0  0  0  0  0  0  0  0  0  0  0  0
  2  1  1  0  0  0  0
  2  9  1  0  0  0  0
  3  8  1  0  0  0  0
  5  4  1  0  0  0  0
  6  8  2  0  0  0  0
  6 12  1  0  0  0  0
  7  5  1  0  0  0  0
  8 13  1  0  0  0  0
  9  6  1  0  0  0  0
 10 14  1  1  0  0  0
 10  9  1  0  0  0  0
 10  3  1  0  0  0  0
 11  2  2  0  0  0  0
 12  7  2  0  0  0  0
 13  5  2  0  0  0  0
 14 15  1  0  0  0  0
 15 16  2  0  0  0  0
 17 21  1  0  0  0  0
 17 16  1  0  0  0  0
 18 19  1  0  0  0  0
 18 14  2  0  0  0  0
 19 17  2  0  0  0  0
 21 20  1  0  0  0  0
 22 19  1  0  0  0  0
 23 22  1  0  0  0  0
 24 23  1  0  0  0  0
 25  1  1  0  0  0  0
 26 33  1  0  0  0  0
 28 29  2  0  0  0  0
 29 27  1  0  0  0  0
 29 25  1  0  0  0  0
 30 32  1  0  0  0  0
 32 26  2  0  0  0  0
 32 28  1  0  0  0  0
 33 31  1  0  0  0  0
 33 27  2  0  0  0  0
M  END
>  <MODEL>
2

>  <REMARK>
 VINA RESULT:      -7.3      1.188      1.457
  Name = 
  6 active torsions:
  status: ('A' for Active; 'I' for Inactive)
    1  A    between atoms: N_1  and  C_12
    2  A    between atoms: C_3  and  C_26
    3  A    between atoms: O_10  and  O_29
    4  A    between atoms: C_12  and  C_14
    5  A    between atoms: C_21  and  O_33
    6  A    between atoms: C_27  and  O_29
                            x       y       z     vdW  Elec       q    Type
                         _______ _______ _______ _____ _____    ______ ____

>  <TORSDO>
F 6

$$$$
=
 OpenBabel11042416153D

 33 36  0  0  1  0  0  0  0  0999 V2000
  189.9460  173.4020  142.7630 N   0  0  0  0  0  2  0  0  0  0  0  0
  189.4080  174.7300  142.7410 C   0  0  0  0  0  0  0  0  0  0  0  0
  191.1100  178.2990  143.8310 S   0  0  0  0  0  0  0  0  0  0  0  0
  194.6600  175.6700  146.4660 F   0  0  0  0  0  0  0  0  0  0  0  0
  193.5470  175.6750  145.6940 C   0  0  0  0  0  0  0  0  0  0  0  0
  191.3030  175.6700  144.1390 C   0  0  0  0  0  0  0  0  0  0  0  0
  192.9140  174.4660  145.3630 C   0  0  0  0  0  3  0  0  0  0  0  0
  191.9160  176.8480  144.4710 C   0  0  0  0  0  0  0  0  0  0  0  0
  190.1190  175.8140  143.3640 N   0  0  0  0  0  0  0  0  0  0  0  0
  189.7820  177.2230  143.1260 C   0  0  1  0  0  3  0  0  0  0  0  0
  188.3140  174.9520  142.1550 O   0  0  0  0  0  0  0  0  0  0  0  0
  191.7920  174.4850  144.5910 N   0  0  0  0  0  0  0  0  0  0  0  0
  193.0330  176.8540  145.2410 N   0  0  0  0  0  0  0  0  0  0  0  0
  188.4490  177.5710  143.7130 C   0  0  0  0  0  0  0  0  0  0  0  0
  188.1830  177.3970  145.0780 C   0  0  0  0  0  3  0  0  0  0  0  0
  186.9190  177.6980  145.5910 C   0  0  0  0  0  3  0  0  0  0  0  0
  185.9040  178.1780  144.7440 C   0  0  0  0  0  0  0  0  0  0  0  0
  187.4450  178.0590  142.8730 C   0  0  0  0  0  3  0  0  0  0  0  0
  186.1720  178.3590  143.3780 C   0  0  0  0  0  0  0  0  0  0  0  0
  184.2840  178.3780  146.6040 C   0  0  0  0  0  1  0  0  0  0  0  0
  184.6270  178.4740  145.2290 O   0  0  0  0  0  0  0  0  0  0  0  0
  185.1600  178.8090  142.5250 O   0  0  0  0  0  0  0  0  0  0  0  0
  184.3710  177.9540  141.8620 O   0  0  0  0  0  0  0  0  0  0  0  0
  184.5290  178.3020  140.5170 C   0  0  0  0  0  1  0  0  0  0  0  0
  189.2270  172.2630  142.2060 C   0  0  0  0  0  2  0  0  0  0  0  0
  190.4690  171.6970  138.1410 C   0  0  0  0  0  3  0  0  0  0  0  0
  188.8690  172.5450  139.7500 C   0  0  0  0  0  3  0  0  0  0  0  0
  190.8490  171.3750  140.5130 C   0  0  0  0  0  3  0  0  0  0  0  0
  189.6500  172.0400  140.7960 C   0  0  0  0  0  0  0  0  0  0  0  0
  192.4510  170.5520  138.9030 O   0  0  0  0  0  1  0  0  0  0  0  0
  188.5140  172.8500  137.4130 F   0  0  0  0  0  0  0  0  0  0  0  0
  191.2590  171.2060  139.1850 C   0  0  0  0  0  0  0  0  0  0  0  0
  189.2760  172.3700  138.4240 C   0  0  0  0  0  0  0  0  0  0  0  0
  2  1  1  0  0  0  0
  2  9  1  0  0  0  0
  3  8  1  0  0  0  0
  5  4  1  0  0  0  0
  6  8  2  0  0  0  0
  6 12  1  0  0  0  0
  7  5  1  0  0  0  0
  8 13  1  0  0  0  0
  9  6  1  0  0  0  0
 10  9  1  0  0  0  0
 10 14  1  1  0  0  0
 10  3  1  0  0  0  0
 11  2  2  0  0  0  0
 12  7  2  0  0  0  0
 13  5  2  0  0  0  0
 14 15  1  0  0  0  0
 15 16  2  0  0  0  0
 17 21  1  0  0  0  0
 17 16  1  0  0  0  0
 18 19  1  0  0  0  0
 18 14  2  0  0  0  0
 19 17  2  0  0  0  0
 21 20  1  0  0  0  0
 22 19  1  0  0  0  0
 23 22  1  0  0  0  0
 24 23  1  0  0  0  0
 25  1  1  0  0  0  0
 26 33  2  0  0  0  0
 26 32  1  0  0  0  0
 27 29  2  0  0  0  0
 28 29  1  0  0  0  0
 29 25  1  0  0  0  0
 30 32  1  0  0  0  0
 31 33  1  0  0  0  0
 32 28  2  0  0  0  0
 33 27  1  0  0  0  0
M  END
>  <MODEL>
3

>  <REMARK>
 VINA RESULT:      -7.2      0.953      1.107
  Name = 
  6 active torsions:
  status: ('A' for Active; 'I' for Inactive)
    1  A    between atoms: N_1  and  C_12
    2  A    between atoms: C_3  and  C_26
    3  A    between atoms: O_10  and  O_29
    4  A    between atoms: C_12  and  C_14
    5  A    between atoms: C_21  and  O_33
    6  A    between atoms: C_27  and  O_29
                            x       y       z     vdW  Elec       q    Type
                         _______ _______ _______ _____ _____    ______ ____

>  <TORSDO>
F 6

$$$$
=
 OpenBabel11042416153D

 33 36  0  0  1  0  0  0  0  0999 V2000
  189.2760  175.9180  144.7700 N   0  0  0  0  0  2  0  0  0  0  0  0
  190.6470  175.7070  144.4120 C   0  0  0  0  0  0  0  0  0  0  0  0
  192.2940  174.2950  140.9320 S   0  0  0  0  0  0  0  0  0  0  0  0
  187.6900  172.3800  139.6650 F   0  0  0  0  0  0  0  0  0  0  0  0
  188.4760  173.0400  140.5500 C   0  0  0  0  0  0  0  0  0  0  0  0
  190.0470  174.3700  142.3430 C   0  0  0  0  0  0  0  0  0  0  0  0
  187.9450  173.4760  141.7740 C   0  0  0  0  0  3  0  0  0  0  0  0
  190.5650  173.9370  141.1520 C   0  0  0  0  0  0  0  0  0  0  0  0
  190.9850  175.0070  143.2020 N   0  0  0  0  0  0  0  0  0  0  0  0
  192.3380  175.0170  142.6320 C   0  0  1  0  0  3  0  0  0  0  0  0
  191.5630  176.1550  145.1550 O   0  0  0  0  0  0  0  0  0  0  0  0
  188.7470  174.1330  142.6590 N   0  0  0  0  0  0  0  0  0  0  0  0
  189.7870  173.2780  140.2580 N   0  0  0  0  0  0  0  0  0  0  0  0
  193.3010  174.2690  143.5030 C   0  0  0  0  0  0  0  0  0  0  0  0
  192.9700  173.0260  144.0590 C   0  0  0  0  0  3  0  0  0  0  0  0
  193.8750  172.3680  144.8950 C   0  0  0  0  0  3  0  0  0  0  0  0
  195.1240  172.9450  145.1840 C   0  0  0  0  0  0  0  0  0  0  0  0
  194.5460  174.8380  143.7800 C   0  0  0  0  0  3  0  0  0  0  0  0
  195.4590  174.1860  144.6220 C   0  0  0  0  0  0  0  0  0  0  0  0
  196.8160  171.1920  145.6240 C   0  0  0  0  0  1  0  0  0  0  0  0
  196.0430  172.3140  146.0290 O   0  0  0  0  0  0  0  0  0  0  0  0
  196.6880  174.7790  144.9280 O   0  0  0  0  0  0  0  0  0  0  0  0
  197.8150  174.4180  144.3010 O   0  0  0  0  0  0  0  0  0  0  0  0
  197.9400  175.3310  143.2500 C   0  0  0  0  0  1  0  0  0  0  0  0
  188.8880  176.5590  146.0200 C   0  0  0  0  0  2  0  0  0  0  0  0
  185.4220  179.0150  145.4320 C   0  0  0  0  0  3  0  0  0  0  0  0
  186.8370  177.6900  146.8870 C   0  0  0  0  0  3  0  0  0  0  0  0
  187.3870  177.9150  144.5380 C   0  0  0  0  0  3  0  0  0  0  0  0
  187.6720  177.3890  145.8050 C   0  0  0  0  0  0  0  0  0  0  0  0
  185.9840  179.2550  143.0990 O   0  0  0  0  0  1  0  0  0  0  0  0
  184.8980  178.7800  147.7470 F   0  0  0  0  0  0  0  0  0  0  0  0
  186.2640  178.7290  144.3540 C   0  0  0  0  0  0  0  0  0  0  0  0
  185.7120  178.4990  146.7010 C   0  0  0  0  0  0  0  0  0  0  0  0
  1 25  1  0  0  0  0
  2  1  1  0  0  0  0
  2 11  2  0  0  0  0
  3  8  1  0  0  0  0
  3 10  1  0  0  0  0
  4  5  1  0  0  0  0
  5  7  1  0  0  0  0
  6 12  1  0  0  0  0
  6  9  1  0  0  0  0
  7 12  2  0  0  0  0
  8  6  2  0  0  0  0
  9  2  1  0  0  0  0
 10  9  1  0  0  0  0
 10 14  1  1  0  0  0
 13  5  2  0  0  0  0
 13  8  1  0  0  0  0
 14 18  2  0  0  0  0
 14 15  1  0  0  0  0
 15 16  2  0  0  0  0
 16 17  1  0  0  0  0
 17 21  1  0  0  0  0
 18 19  1  0  0  0  0
 19 22  1  0  0  0  0
 19 17  2  0  0  0  0
 20 21  1  0  0  0  0
 23 22  1  0  0  0  0
 24 23  1  0  0  0  0
 26 33  1  0  0  0  0
 28 29  2  0  0  0  0
 29 25  1  0  0  0  0
 29 27  1  0  0  0  0
 30 32  1  0  0  0  0
 32 28  1  0  0  0  0
 32 26  2  0  0  0  0
 33 27  2  0  0  0  0
 33 31  1  0  0  0  0
M  END
>  <MODEL>
4

>  <REMARK>
 VINA RESULT:      -7.1      3.921      9.043
  Name = 
  6 active torsions:
  status: ('A' for Active; 'I' for Inactive)
    1  A    between atoms: N_1  and  C_12
    2  A    between atoms: C_3  and  C_26
    3  A    between atoms: O_10  and  O_29
    4  A    between atoms: C_12  and  C_14
    5  A    between atoms: C_21  and  O_33
    6  A    between atoms: C_27  and  O_29
                            x       y       z     vdW  Elec       q    Type
                         _______ _______ _______ _____ _____    ______ ____

>  <TORSDO>
F 6

$$$$
=
 OpenBabel11042416153D

 33 36  0  0  1  0  0  0  0  0999 V2000
  188.9700  175.6610  145.0210 N   0  0  0  0  0  2  0  0  0  0  0  0
  190.3680  175.5240  144.7380 C   0  0  0  0  0  0  0  0  0  0  0  0
  192.2850  174.5410  141.2480 S   0  0  0  0  0  0  0  0  0  0  0  0
  187.8370  172.6640  139.4700 F   0  0  0  0  0  0  0  0  0  0  0  0
  188.5420  173.2420  140.4720 C   0  0  0  0  0  0  0  0  0  0  0  0
  189.9480  174.4070  142.5010 C   0  0  0  0  0  0  0  0  0  0  0  0
  187.9180  173.5290  141.6970 C   0  0  0  0  0  3  0  0  0  0  0  0
  190.5570  174.1190  141.3100 C   0  0  0  0  0  0  0  0  0  0  0  0
  190.8070  174.9700  143.4860 N   0  0  0  0  0  0  0  0  0  0  0  0
  192.1940  175.0740  143.0150 C   0  0  1  0  0  3  0  0  0  0  0  0
  191.2190  175.9120  145.5850 O   0  0  0  0  0  0  0  0  0  0  0  0
  188.6380  174.1050  142.7000 N   0  0  0  0  0  0  0  0  0  0  0  0
  189.8610  173.5420  140.2990 N   0  0  0  0  0  0  0  0  0  0  0  0
  193.1210  174.2600  143.8650 C   0  0  0  0  0  0  0  0  0  0  0  0
  194.2680  174.8220  144.4410 C   0  0  0  0  0  3  0  0  0  0  0  0
  195.1320  174.0300  145.2000 C   0  0  0  0  0  3  0  0  0  0  0  0
  194.8590  172.6640  145.3930 C   0  0  0  0  0  0  0  0  0  0  0  0
  192.8420  172.9060  144.0640 C   0  0  0  0  0  3  0  0  0  0  0  0
  193.7070  172.1020  144.8210 C   0  0  0  0  0  0  0  0  0  0  0  0
  197.0160  171.4880  145.6940 C   0  0  0  0  0  1  0  0  0  0  0  0
  195.7140  171.8450  146.1370 O   0  0  0  0  0  0  0  0  0  0  0  0
  193.4430  170.7380  144.9850 O   0  0  0  0  0  0  0  0  0  0  0  0
  194.0730  169.8100  144.2530 O   0  0  0  0  0  0  0  0  0  0  0  0
  194.0760  168.6690  145.0610 C   0  0  0  0  0  1  0  0  0  0  0  0
  188.4810  176.1530  146.3030 C   0  0  0  0  0  2  0  0  0  0  0  0
  185.3060  178.9720  145.7060 C   0  0  0  0  0  3  0  0  0  0  0  0
  186.5080  177.4340  147.1420 C   0  0  0  0  0  3  0  0  0  0  0  0
  187.1980  177.7320  144.8380 C   0  0  0  0  0  3  0  0  0  0  0  0
  187.3640  177.1120  146.0830 C   0  0  0  0  0  0  0  0  0  0  0  0
  186.0080  179.2830  143.4200 O   0  0  0  0  0  1  0  0  0  0  0  0
  184.6430  178.6630  147.9760 F   0  0  0  0  0  0  0  0  0  0  0  0
  186.1700  178.6640  144.6520 C   0  0  0  0  0  0  0  0  0  0  0  0
  185.4780  178.3600  146.9530 C   0  0  0  0  0  0  0  0  0  0  0  0
  1 25  1  0  0  0  0
  2  1  1  0  0  0  0
  2 11  2  0  0  0  0
  3  8  1  0  0  0  0
  3 10  1  0  0  0  0
  4  5  1  0  0  0  0
  5  7  1  0  0  0  0
  6 12  1  0  0  0  0
  6  9  1  0  0  0  0
  7 12  2  0  0  0  0
  8  6  2  0  0  0  0
  9  2  1  0  0  0  0
 10  9  1  0  0  0  0
 10 14  1  1  0  0  0
 13  5  2  0  0  0  0
 13  8  1  0  0  0  0
 14 18  2  0  0  0  0
 14 15  1  0  0  0  0
 15 16  2  0  0  0  0
 16 17  1  0  0  0  0
 17 21  1  0  0  0  0
 18 19  1  0  0  0  0
 19 22  1  0  0  0  0
 19 17  2  0  0  0  0
 20 21  1  0  0  0  0
 23 22  1  0  0  0  0
 23 24  1  0  0  0  0
 26 33  1  0  0  0  0
 28 29  2  0  0  0  0
 29 25  1  0  0  0  0
 29 27  1  0  0  0  0
 30 32  1  0  0  0  0
 32 28  1  0  0  0  0
 32 26  2  0  0  0  0
 33 27  2  0  0  0  0
 33 31  1  0  0  0  0
M  END
>  <MODEL>
5

>  <REMARK>
 VINA RESULT:      -7.0      3.398      8.991
  Name = 
  6 active torsions:
  status: ('A' for Active; 'I' for Inactive)
    1  A    between atoms: N_1  and  C_12
    2  A    between atoms: C_3  and  C_26
    3  A    between atoms: O_10  and  O_29
    4  A    between atoms: C_12  and  C_14
    5  A    between atoms: C_21  and  O_33
    6  A    between atoms: C_27  and  O_29
                            x       y       z     vdW  Elec       q    Type
                         _______ _______ _______ _____ _____    ______ ____

>  <TORSDO>
F 6

$$$$
=
 OpenBabel11042416153D

 33 36  0  0  1  0  0  0  0  0999 V2000
  192.6940  175.4190  144.0830 N   0  0  0  0  0  2  0  0  0  0  0  0
  191.2700  175.4500  144.2370 C   0  0  0  0  0  0  0  0  0  0  0  0
  188.3230  173.6560  142.0190 S   0  0  0  0  0  0  0  0  0  0  0  0
  191.7310  173.0180  138.2190 F   0  0  0  0  0  0  0  0  0  0  0  0
  191.4370  173.4840  139.4570 C   0  0  0  0  0  0  0  0  0  0  0  0
  190.8620  174.4280  141.9530 C   0  0  0  0  0  0  0  0  0  0  0  0
  192.4160  174.1560  140.2060 C   0  0  0  0  0  3  0  0  0  0  0  0
  189.9060  173.7800  141.2170 C   0  0  0  0  0  0  0  0  0  0  0  0
  190.4150  174.9080  143.2140 N   0  0  0  0  0  0  0  0  0  0  0  0
  188.9880  174.6400  143.4350 C   0  0  1  0  0  3  0  0  0  0  0  0
  190.7640  175.9380  145.2840 O   0  0  0  0  0  0  0  0  0  0  0  0
  192.1080  174.6260  141.4470 N   0  0  0  0  0  0  0  0  0  0  0  0
  190.1900  173.3080  139.9780 N   0  0  0  0  0  0  0  0  0  0  0  0
  188.2150  175.9120  143.6080 C   0  0  0  0  0  0  0  0  0  0  0  0
  187.8830  176.3980  144.8800 C   0  0  0  0  0  3  0  0  0  0  0  0
  187.1320  177.5680  145.0100 C   0  0  0  0  0  3  0  0  0  0  0  0
  186.7040  178.2680  143.8680 C   0  0  0  0  0  0  0  0  0  0  0  0
  187.8000  176.6120  142.4730 C   0  0  0  0  0  3  0  0  0  0  0  0
  187.0420  177.7860  142.5940 C   0  0  0  0  0  0  0  0  0  0  0  0
  184.5370  179.4190  144.1960 C   0  0  0  0  0  1  0  0  0  0  0  0
  185.9400  179.4350  143.9690 O   0  0  0  0  0  0  0  0  0  0  0  0
  186.5970  178.4610  141.4540 O   0  0  0  0  0  0  0  0  0  0  0  0
  185.9630  177.8200  140.4630 O   0  0  0  0  0  0  0  0  0  0  0  0
  184.6470  178.2900  140.5270 C   0  0  0  0  0  1  0  0  0  0  0  0
  193.5950  176.0180  145.0600 C   0  0  0  0  0  2  0  0  0  0  0  0
  197.5160  174.3670  144.5250 C   0  0  0  0  0  3  0  0  0  0  0  0
  195.4560  174.5220  145.7910 C   0  0  0  0  0  3  0  0  0  0  0  0
  195.7490  175.8530  143.7890 C   0  0  0  0  0  3  0  0  0  0  0  0
  194.9670  175.4690  144.8840 C   0  0  0  0  0  0  0  0  0  0  0  0
  197.7980  175.6780  142.5200 O   0  0  0  0  0  1  0  0  0  0  0  0
  197.2060  173.0660  146.4990 F   0  0  0  0  0  0  0  0  0  0  0  0
  197.0220  175.3000  143.6090 C   0  0  0  0  0  0  0  0  0  0  0  0
  196.7300  173.9740  145.6150 C   0  0  0  0  0  0  0  0  0  0  0  0
  1  2  1  0  0  0  0
  1 25  1  0  0  0  0
  2 11  2  0  0  0  0
  3 10  1  0  0  0  0
  4  5  1  0  0  0  0
  5 13  2  0  0  0  0
  5  7  1  0  0  0  0
  6  9  1  0  0  0  0
  7 12  2  0  0  0  0
  8  6  2  0  0  0  0
  8  3  1  0  0  0  0
  9 10  1  0  0  0  0
  9  2  1  0  0  0  0
 10 14  1  6  0  0  0
 12  6  1  0  0  0  0
 13  8  1  0  0  0  0
 14 15  1  0  0  0  0
 15 16  2  0  0  0  0
 17 21  1  0  0  0  0
 17 16  1  0  0  0  0
 18 19  1  0  0  0  0
 18 14  2  0  0  0  0
 19 17  2  0  0  0  0
 21 20  1  0  0  0  0
 22 19  1  0  0  0  0
 23 24  1  0  0  0  0
 23 22  1  0  0  0  0
 26 33  1  0  0  0  0
 28 29  2  0  0  0  0
 29 25  1  0  0  0  0
 29 27  1  0  0  0  0
 30 32  1  0  0  0  0
 32 28  1  0  0  0  0
 32 26  2  0  0  0  0
 33 27  2  0  0  0  0
 33 31  1  0  0  0  0
M  END
>  <MODEL>
6

>  <REMARK>
 VINA RESULT:      -7.0      2.934      5.547
  Name = 
  6 active torsions:
  status: ('A' for Active; 'I' for Inactive)
    1  A    between atoms: N_1  and  C_12
    2  A    between atoms: C_3  and  C_26
    3  A    between atoms: O_10  and  O_29
    4  A    between atoms: C_12  and  C_14
    5  A    between atoms: C_21  and  O_33
    6  A    between atoms: C_27  and  O_29
                            x       y       z     vdW  Elec       q    Type
                         _______ _______ _______ _____ _____    ______ ____

>  <TORSDO>
F 6

$$$$
=
 OpenBabel11042416153D

 33 36  0  0  1  0  0  0  0  0999 V2000
  189.1020  176.8980  144.1330 N   0  0  0  0  0  2  0  0  0  0  0  0
  189.1770  175.6190  143.4910 C   0  0  0  0  0  0  0  0  0  0  0  0
  191.6340  172.4190  144.2270 S   0  0  0  0  0  0  0  0  0  0  0  0
  194.7720  175.5710  146.8120 F   0  0  0  0  0  0  0  0  0  0  0  0
  193.6480  175.3880  146.0770 C   0  0  0  0  0  0  0  0  0  0  0  0
  191.3810  175.0360  144.5980 C   0  0  0  0  0  0  0  0  0  0  0  0
  192.8280  176.4830  145.7620 C   0  0  0  0  0  3  0  0  0  0  0  0
  192.1880  173.9710  144.8990 C   0  0  0  0  0  0  0  0  0  0  0  0
  190.2600  174.7190  143.7830 N   0  0  0  0  0  0  0  0  0  0  0  0
  190.2390  173.3020  143.3970 C   0  0  1  0  0  3  0  0  0  0  0  0
  188.2760  175.2740  142.6780 O   0  0  0  0  0  0  0  0  0  0  0  0
  191.7030  176.2880  145.0170 N   0  0  0  0  0  0  0  0  0  0  0  0
  193.3130  174.1420  145.6360 N   0  0  0  0  0  0  0  0  0  0  0  0
  190.3180  173.1420  141.9090 C   0  0  0  0  0  0  0  0  0  0  0  0
  189.3300  172.4490  141.1960 C   0  0  0  0  0  3  0  0  0  0  0  0
  189.4480  172.2860  139.8140 C   0  0  0  0  0  3  0  0  0  0  0  0
  190.5560  172.8140  139.1280 C   0  0  0  0  0  0  0  0  0  0  0  0
  191.4130  173.6770  141.2280 C   0  0  0  0  0  3  0  0  0  0  0  0
  191.5410  173.5130  139.8410 C   0  0  0  0  0  0  0  0  0  0  0  0
  189.9800  173.4240  136.7990 C   0  0  0  0  0  1  0  0  0  0  0  0
  190.7050  172.6530  137.7470 O   0  0  0  0  0  0  0  0  0  0  0  0
  192.6600  174.0170  139.1700 O   0  0  0  0  0  0  0  0  0  0  0  0
  193.8720  174.0320  139.7400 O   0  0  0  0  0  0  0  0  0  0  0  0
  194.4840  175.1820  139.2320 C   0  0  0  0  0  1  0  0  0  0  0  0
  188.0630  177.8690  143.8150 C   0  0  0  0  0  2  0  0  0  0  0  0
  184.9270  177.6480  146.7300 C   0  0  0  0  0  3  0  0  0  0  0  0
  187.1610  177.0620  145.9990 C   0  0  0  0  0  3  0  0  0  0  0  0
  185.7470  178.4350  144.5900 C   0  0  0  0  0  3  0  0  0  0  0  0
  186.9610  177.7730  144.8110 C   0  0  0  0  0  0  0  0  0  0  0  0
  183.5280  179.0320  145.3360 O   0  0  0  0  0  1  0  0  0  0  0  0
  186.3340  176.2970  148.1010 F   0  0  0  0  0  0  0  0  0  0  0  0
  184.7310  178.3730  145.5520 C   0  0  0  0  0  0  0  0  0  0  0  0
  186.1440  176.9960  146.9560 C   0  0  0  0  0  0  0  0  0  0  0  0
  2  9  1  0  0  0  0
  2  1  1  0  0  0  0
  3  8  1  0  0  0  0
  5  4  1  0  0  0  0
  6  8  2  0  0  0  0
  6 12  1  0  0  0  0
  7  5  1  0  0  0  0
  8 13  1  0  0  0  0
  9  6  1  0  0  0  0
 10 14  1  6  0  0  0
 10  9  1  0  0  0  0
 10  3  1  0  0  0  0
 11  2  2  0  0  0  0
 12  7  2  0  0  0  0
 13  5  2  0  0  0  0
 15 14  2  0  0  0  0
 16 15  1  0  0  0  0
 17 16  2  0  0  0  0
 17 19  1  0  0  0  0
 18 14  1  0  0  0  0
 19 18  2  0  0  0  0
 20 21  1  0  0  0  0
 21 17  1  0  0  0  0
 22 23  1  0  0  0  0
 22 19  1  0  0  0  0
 24 23  1  0  0  0  0
 25  1  1  0  0  0  0
 25 29  1  0  0  0  0
 26 33  1  0  0  0  0
 27 33  2  0  0  0  0
 28 29  2  0  0  0  0
 28 32  1  0  0  0  0
 29 27  1  0  0  0  0
 30 32  1  0  0  0  0
 32 26  2  0  0  0  0
 33 31  1  0  0  0  0
M  END
>  <MODEL>
7

>  <REMARK>
 VINA RESULT:      -7.0      2.941      7.702
  Name = 
  6 active torsions:
  status: ('A' for Active; 'I' for Inactive)
    1  A    between atoms: N_1  and  C_12
    2  A    between atoms: C_3  and  C_26
    3  A    between atoms: O_10  and  O_29
    4  A    between atoms: C_12  and  C_14
    5  A    between atoms: C_21  and  O_33
    6  A    between atoms: C_27  and  O_29
                            x       y       z     vdW  Elec       q    Type
                         _______ _______ _______ _____ _____    ______ ____

>  <TORSDO>
F 6

$$$$
=
 OpenBabel11042416153D

 33 36  0  0  1  0  0  0  0  0999 V2000
  188.8040  176.9530  144.0130 N   0  0  0  0  0  2  0  0  0  0  0  0
  188.8890  175.6630  143.3960 C   0  0  0  0  0  0  0  0  0  0  0  0
  191.2990  172.4610  144.2630 S   0  0  0  0  0  0  0  0  0  0  0  0
  194.3790  175.6370  146.8880 F   0  0  0  0  0  0  0  0  0  0  0  0
  193.2770  175.4480  146.1220 C   0  0  0  0  0  0  0  0  0  0  0  0
  191.0540  175.0850  144.5800 C   0  0  0  0  0  0  0  0  0  0  0  0
  192.4740  176.5420  145.7630 C   0  0  0  0  0  3  0  0  0  0  0  0
  191.8430  174.0200  144.9250 C   0  0  0  0  0  0  0  0  0  0  0  0
  189.9550  174.7610  143.7370 N   0  0  0  0  0  0  0  0  0  0  0  0
  189.9360  173.3380  143.3750 C   0  0  1  0  0  3  0  0  0  0  0  0
  188.0100  175.3100  142.5620 O   0  0  0  0  0  0  0  0  0  0  0  0
  191.3720  176.3420  144.9870 N   0  0  0  0  0  0  0  0  0  0  0  0
  192.9470  174.1970  145.6930 N   0  0  0  0  0  0  0  0  0  0  0  0
  190.0590  173.1500  141.8940 C   0  0  0  0  0  0  0  0  0  0  0  0
  189.0730  172.4810  141.1580 C   0  0  0  0  0  3  0  0  0  0  0  0
  189.2320  172.2900  139.7830 C   0  0  0  0  0  3  0  0  0  0  0  0
  190.3790  172.7700  139.1270 C   0  0  0  0  0  0  0  0  0  0  0  0
  191.1950  173.6370  141.2420 C   0  0  0  0  0  3  0  0  0  0  0  0
  191.3640  173.4470  139.8630 C   0  0  0  0  0  0  0  0  0  0  0  0
  191.0240  171.3540  137.2020 C   0  0  0  0  0  1  0  0  0  0  0  0
  190.5690  172.5810  137.7550 O   0  0  0  0  0  0  0  0  0  0  0  0
  192.5210  173.9010  139.2230 O   0  0  0  0  0  0  0  0  0  0  0  0
  193.4900  174.5380  139.8950 O   0  0  0  0  0  0  0  0  0  0  0  0
  194.4080  174.9160  138.9110 C   0  0  0  0  0  1  0  0  0  0  0  0
  187.7810  177.9260  143.6460 C   0  0  0  0  0  2  0  0  0  0  0  0
  184.6670  177.9320  146.5930 C   0  0  0  0  0  3  0  0  0  0  0  0
  185.4640  178.5010  144.3770 C   0  0  0  0  0  3  0  0  0  0  0  0
  186.9330  177.3750  145.9400 C   0  0  0  0  0  3  0  0  0  0  0  0
  186.7130  177.9490  144.6820 C   0  0  0  0  0  0  0  0  0  0  0  0
  186.1240  176.7920  148.1400 O   0  0  0  0  0  1  0  0  0  0  0  0
  183.2380  179.0410  145.0400 F   0  0  0  0  0  0  0  0  0  0  0  0
  185.9080  177.3650  146.8940 C   0  0  0  0  0  0  0  0  0  0  0  0
  184.4430  178.4960  145.3320 C   0  0  0  0  0  0  0  0  0  0  0  0
  2  9  1  0  0  0  0
  2  1  1  0  0  0  0
  3  8  1  0  0  0  0
  5  4  1  0  0  0  0
  6  8  2  0  0  0  0
  6 12  1  0  0  0  0
  7  5  1  0  0  0  0
  8 13  1  0  0  0  0
  9  6  1  0  0  0  0
 10 14  1  6  0  0  0
 10  9  1  0  0  0  0
 10  3  1  0  0  0  0
 11  2  2  0  0  0  0
 12  7  2  0  0  0  0
 13  5  2  0  0  0  0
 15 14  2  0  0  0  0
 16 15  1  0  0  0  0
 17 16  2  0  0  0  0
 17 19  1  0  0  0  0
 18 14  1  0  0  0  0
 19 18  2  0  0  0  0
 20 21  1  0  0  0  0
 21 17  1  0  0  0  0
 22 19  1  0  0  0  0
 22 23  1  0  0  0  0
 24 23  1  0  0  0  0
 25  1  1  0  0  0  0
 25 29  1  0  0  0  0
 26 32  1  0  0  0  0
 27 29  2  0  0  0  0
 27 33  1  0  0  0  0
 28 32  2  0  0  0  0
 29 28  1  0  0  0  0
 31 33  1  0  0  0  0
 32 30  1  0  0  0  0
 33 26  2  0  0  0  0
M  END
>  <MODEL>
8

>  <REMARK>
 VINA RESULT:      -6.9      3.296      7.674
  Name = 
  6 active torsions:
  status: ('A' for Active; 'I' for Inactive)
    1  A    between atoms: N_1  and  C_12
    2  A    between atoms: C_3  and  C_26
    3  A    between atoms: O_10  and  O_29
    4  A    between atoms: C_12  and  C_14
    5  A    between atoms: C_21  and  O_33
    6  A    between atoms: C_27  and  O_29
                            x       y       z     vdW  Elec       q    Type
                         _______ _______ _______ _____ _____    ______ ____

>  <TORSDO>
F 6

$$$$
=
 OpenBabel11042416153D

 33 36  0  0  1  0  0  0  0  0999 V2000
  192.2860  175.4400  142.0950 N   0  0  0  0  0  2  0  0  0  0  0  0
  190.8870  175.4500  142.4030 C   0  0  0  0  0  0  0  0  0  0  0  0
  187.9890  172.6410  141.6760 S   0  0  0  0  0  0  0  0  0  0  0  0
  191.1060  170.4960  138.1910 F   0  0  0  0  0  0  0  0  0  0  0  0
  190.8680  171.4720  139.0990 C   0  0  0  0  0  0  0  0  0  0  0  0
  190.4050  173.4470  140.9260 C   0  0  0  0  0  0  0  0  0  0  0  0
  191.8230  172.4790  139.3160 C   0  0  0  0  0  3  0  0  0  0  0  0
  189.4720  172.4690  140.7070 C   0  0  0  0  0  0  0  0  0  0  0  0
  190.0160  174.4370  141.8700 N   0  0  0  0  0  0  0  0  0  0  0  0
  188.6550  174.2170  142.3750 C   0  0  1  0  0  3  0  0  0  0  0  0
  190.4200  176.3430  143.1620 O   0  0  0  0  0  0  0  0  0  0  0  0
  191.5700  173.4590  140.2280 N   0  0  0  0  0  0  0  0  0  0  0  0
  189.7000  171.4850  139.8020 N   0  0  0  0  0  0  0  0  0  0  0  0
  187.7560  175.3680  142.0400 C   0  0  0  0  0  0  0  0  0  0  0  0
  187.8160  176.0020  140.7920 C   0  0  0  0  0  3  0  0  0  0  0  0
  186.9890  177.0960  140.5210 C   0  0  0  0  0  3  0  0  0  0  0  0
  186.0920  177.5670  141.4950 C   0  0  0  0  0  0  0  0  0  0  0  0
  186.8580  175.8280  143.0050 C   0  0  0  0  0  3  0  0  0  0  0  0
  186.0280  176.9270  142.7430 C   0  0  0  0  0  0  0  0  0  0  0  0
  184.0550  178.5740  140.5130 C   0  0  0  0  0  1  0  0  0  0  0  0
  185.2640  178.6680  141.2550 O   0  0  0  0  0  0  0  0  0  0  0  0
  185.1580  177.4080  143.7270 O   0  0  0  0  0  0  0  0  0  0  0  0
  185.5580  178.3070  144.6370 O   0  0  0  0  0  0  0  0  0  0  0  0
  184.8310  177.9860  145.7870 C   0  0  0  0  0  1  0  0  0  0  0  0
  193.1920  176.4850  142.5560 C   0  0  0  0  0  2  0  0  0  0  0  0
  194.9460  175.2800  146.2780 C   0  0  0  0  0  3  0  0  0  0  0  0
  193.7200  176.9020  144.9610 C   0  0  0  0  0  3  0  0  0  0  0  0
  194.4820  174.8400  143.9410 C   0  0  0  0  0  3  0  0  0  0  0  0
  193.8260  176.0740  143.8380 C   0  0  0  0  0  0  0  0  0  0  0  0
  195.6850  173.2190  145.2670 O   0  0  0  0  0  1  0  0  0  0  0  0
  194.1880  177.3150  147.2620 F   0  0  0  0  0  0  0  0  0  0  0  0
  195.0390  174.4440  145.1620 C   0  0  0  0  0  0  0  0  0  0  0  0
  194.2820  176.5080  146.1790 C   0  0  0  0  0  0  0  0  0  0  0  0
  1  2  1  0  0  0  0
  1 25  1  0  0  0  0
  2 11  2  0  0  0  0
  3 10  1  0  0  0  0
  4  5  1  0  0  0  0
  5  7  2  0  0  0  0
  5 13  1  0  0  0  0
  6  9  1  0  0  0  0
  7 12  1  0  0  0  0
  8  6  1  0  0  0  0
  8  3  1  0  0  0  0
  9 10  1  0  0  0  0
  9  2  1  0  0  0  0
 10 14  1  6  0  0  0
 12  6  2  0  0  0  0
 13  8  2  0  0  0  0
 14 18  1  0  0  0  0
 15 14  2  0  0  0  0
 16 15  1  0  0  0  0
 16 17  2  0  0  0  0
 17 19  1  0  0  0  0
 19 18  2  0  0  0  0
 19 22  1  0  0  0  0
 20 21  1  0  0  0  0
 21 17  1  0  0  0  0
 22 23  1  0  0  0  0
 23 24  1  0  0  0  0
 25 29  1  0  0  0  0
 27 33  2  0  0  0  0
 28 32  1  0  0  0  0
 29 28  2  0  0  0  0
 29 27  1  0  0  0  0
 32 30  1  0  0  0  0
 32 26  2  0  0  0  0
 33 26  1  0  0  0  0
 33 31  1  0  0  0  0
M  END
>  <MODEL>
9

>  <REMARK>
 VINA RESULT:      -6.9      2.581      6.064
  Name = 
  6 active torsions:
  status: ('A' for Active; 'I' for Inactive)
    1  A    between atoms: N_1  and  C_12
    2  A    between atoms: C_3  and  C_26
    3  A    between atoms: O_10  and  O_29
    4  A    between atoms: C_12  and  C_14
    5  A    between atoms: C_21  and  O_33
    6  A    between atoms: C_27  and  O_29
                            x       y       z     vdW  Elec       q    Type
                         _______ _______ _______ _____ _____    ______ ____

>  <TORSDO>
F 6

$$$$
