=
 OpenBabel11042419553D

 41 46  0  0  1  0  0  0  0  0999 V2000
  192.9410  170.8230  144.2330 C   0  0  0  0  0  3  0  0  0  0  0  0
  194.9560  172.1430  144.5320 C   0  0  0  0  0  0  0  0  0  0  0  0
  193.0230  173.1420  143.4370 C   0  0  0  0  0  0  0  0  0  0  0  0
  195.0650  174.3930  143.7880 C   0  0  0  0  0  3  0  0  0  0  0  0
  195.6310  173.3100  144.3770 N   0  0  0  0  0  0  0  0  0  0  0  0
  193.5660  169.7590  144.8820 C   0  0  0  0  0  3  0  0  0  0  0  0
  195.5550  171.0420  145.1760 C   0  0  0  0  0  0  0  0  0  0  0  0
  194.8410  169.8900  145.3340 N   0  0  0  0  0  0  0  0  0  0  0  0
  193.6290  172.0320  144.0570 C   0  0  0  0  0  0  0  0  0  0  0  0
  193.7540  174.3390  143.3120 C   0  0  0  0  0  0  0  0  0  0  0  0
  189.2050  173.2280  143.3920 C   0  0  0  0  0  2  0  0  0  0  0  0
  189.4640  174.3210  141.1500 C   0  0  0  0  0  3  0  0  0  0  0  0
  191.6240  173.0590  142.9760 C   0  0  0  0  0  0  0  0  0  0  0  0
  191.3160  172.5980  141.5880 C   0  0  0  0  0  2  0  0  0  0  0  0
  190.6350  173.3780  143.8050 C   0  0  0  0  0  3  0  0  0  0  0  0
  190.8160  173.7730  140.7620 C   0  0  0  0  0  2  0  0  0  0  0  0
  188.7770  174.1660  142.2930 C   0  0  0  0  0  0  0  0  0  0  0  0
  187.2970  176.2060  142.7810 C   0  0  0  0  0  0  0  0  0  0  0  0
  187.5180  174.8440  142.3840 N   0  0  0  0  0  2  0  0  0  0  0  0
  188.2520  176.9510  143.1300 O   0  0  0  0  0  0  0  0  0  0  0  0
  185.9090  176.7320  142.8450 C   0  0  0  0  0  2  0  0  0  0  0  0
  185.9430  178.2100  143.1940 C   0  0  0  0  0  2  0  0  0  0  0  0
  185.7740  179.3910  145.4610 C   0  0  0  0  0  2  0  0  0  0  0  0
  183.8090  178.9790  144.0850 O   0  0  0  0  0  1  0  0  0  0  0  0
  185.0890  178.5210  144.4150 C   0  0  0  0  0  0  0  0  0  0  0  0
  185.7040  178.2290  146.4330 C   0  0  0  0  0  0  0  0  0  0  0  0
  184.8880  178.4860  147.5370 O   0  0  0  0  0  1  0  0  0  0  0  0
  186.9590  177.7470  146.8020 O   0  0  0  0  0  1  0  0  0  0  0  0
  185.0300  177.3610  145.3910 C   0  0  0  0  0  2  0  0  0  0  0  0
  197.9410  170.5660  144.6310 C   0  0  0  0  0  2  0  0  0  0  0  0
  197.5360  169.6980  145.8020 C   0  0  0  0  0  2  0  0  0  0  0  0
  196.9720  171.1040  145.6750 C   0  0  0  0  0  3  0  0  0  0  0  0
  193.1770  175.5590  142.6670 C   0  0  0  0  0  2  0  0  0  0  0  0
  193.0850  176.7020  143.6620 C   0  0  0  0  0  2  0  0  0  0  0  0
  191.7380  176.7060  144.3640 C   0  0  0  0  0  2  0  0  0  0  0  0
  191.8750  176.4060  145.8200 C   0  0  0  0  0  0  0  0  0  0  0  0
  194.1800  176.3410  146.8810 O   0  0  0  0  0  0  0  0  0  0  0  0
  193.0630  176.3700  146.3620 C   0  0  0  0  0  0  0  0  0  0  0  0
  190.6650  176.4800  146.7000 C   0  0  1  0  0  3  0  0  0  0  0  0
  189.5650  175.8950  146.0360 O   0  0  0  0  0  0  0  0  0  0  0  0
  190.1660  175.1310  147.0470 C   0  0  0  0  0  2  0  0  0  0  0  0
  1  6  1  0  0  0  0
  2  7  2  0  0  0  0
  3  9  1  0  0  0  0
  4  5  2  0  0  0  0
  5  2  1  0  0  0  0
  6  8  2  0  0  0  0
  7  8  1  0  0  0  0
  7 32  1  0  0  0  0
  9  1  2  0  0  0  0
  9  2  1  0  0  0  0
 10  3  2  0  0  0  0
 10  4  1  0  0  0  0
 11 15  1  0  0  0  0
 12 17  2  0  0  0  0
 13  3  1  0  0  0  0
 13 15  2  0  0  0  0
 14 13  1  0  0  0  0
 16 12  1  0  0  0  0
 16 14  1  0  0  0  0
 17 19  1  0  0  0  0
 17 11  1  0  0  0  0
 18 21  1  0  0  0  0
 18 20  2  0  0  0  0
 19 18  1  0  0  0  0
 21 22  1  0  0  0  0
 22 25  1  0  0  0  0
 23 26  1  0  0  0  0
 24 25  1  0  0  0  0
 25 29  1  0  0  0  0
 25 23  1  0  0  0  0
 26 28  1  0  0  0  0
 26 27  1  0  0  0  0
 29 26  1  0  0  0  0
 30 32  1  0  0  0  0
 30 31  1  0  0  0  0
 32 31  1  0  0  0  0
 33 10  1  0  0  0  0
 33 34  1  0  0  0  0
 34 35  1  0  0  0  0
 35 36  1  0  0  0  0
 36 38  2  0  0  0  0
 38 37  2  0  0  0  0
 39 36  1  6  0  0  0
 39 41  1  0  0  0  0
 40 39  1  0  0  0  0
 40 41  1  0  0  0  0
M  END
>  <MODEL>
1

>  <REMARK>
 VINA RESULT:      -6.9      0.000      0.000
  Name = 
  11 active torsions:
  status: ('A' for Active; 'I' for Inactive)
    1  A    between atoms: C_1  and  C_27
    2  A    between atoms: C_2  and  C_6
    3  A    between atoms: C_2  and  C_39
    4  A    between atoms: C_4  and  C_33
    5  A    between atoms: C_6  and  C_8
    6  A    between atoms: N_7  and  C_38
    7  A    between atoms: C_8  and  C_27
    8  A    between atoms: C_10  and  C_31
    9  A    between atoms: C_15  and  C_17
   10  A    between atoms: C_22  and  C_30
   11  A    between atoms: C_31  and  C_33
                            x       y       z     vdW  Elec       q    Type
                         _______ _______ _______ _____ _____    ______ ____

>  <TORSDO>
F 11

$$$$
=
 OpenBabel11042419553D

 41 46  0  0  1  0  0  0  0  0999 V2000
  187.9940  176.3620  142.7420 C   0  0  0  0  0  3  0  0  0  0  0  0
  187.4720  177.3850  144.8810 C   0  0  0  0  0  0  0  0  0  0  0  0
  189.0850  175.5620  144.7900 C   0  0  0  0  0  0  0  0  0  0  0  0
  188.5200  176.6480  146.8780 C   0  0  0  0  0  3  0  0  0  0  0  0
  187.6550  177.4630  146.2240 N   0  0  0  0  0  0  0  0  0  0  0  0
  187.1200  177.2540  142.1240 C   0  0  0  0  0  3  0  0  0  0  0  0
  186.5920  178.2650  144.2190 C   0  0  0  0  0  0  0  0  0  0  0  0
  186.4470  178.1740  142.8650 N   0  0  0  0  0  0  0  0  0  0  0  0
  188.1860  176.4230  144.1300 C   0  0  0  0  0  0  0  0  0  0  0  0
  189.2560  175.6880  146.1810 C   0  0  0  0  0  0  0  0  0  0  0  0
  191.8460  173.9790  142.6770 C   0  0  0  0  0  2  0  0  0  0  0  0
  191.5400  171.9760  144.1560 C   0  0  0  0  0  3  0  0  0  0  0  0
  189.8720  174.5820  144.0170 C   0  0  0  0  0  0  0  0  0  0  0  0
  189.3260  173.2140  143.7620 C   0  0  0  0  0  2  0  0  0  0  0  0
  191.0610  174.9240  143.5310 C   0  0  0  0  0  3  0  0  0  0  0  0
  190.1070  172.1950  144.5770 C   0  0  0  0  0  2  0  0  0  0  0  0
  192.3350  172.7520  143.4030 C   0  0  0  0  0  0  0  0  0  0  0  0
  194.8450  173.1010  142.9870 C   0  0  0  0  0  0  0  0  0  0  0  0
  193.6780  172.2920  143.2000 N   0  0  0  0  0  2  0  0  0  0  0  0
  194.7710  174.3580  142.9300 O   0  0  0  0  0  0  0  0  0  0  0  0
  196.1580  172.4430  142.7650 C   0  0  0  0  0  2  0  0  0  0  0  0
  196.1040  171.0150  143.2800 C   0  0  0  0  0  2  0  0  0  0  0  0
  197.1950  169.4610  144.9990 C   0  0  0  0  0  2  0  0  0  0  0  0
  197.7940  171.8150  144.8420 O   0  0  0  0  0  1  0  0  0  0  0  0
  196.7730  170.8800  144.6400 C   0  0  0  0  0  0  0  0  0  0  0  0
  196.1990  169.4840  146.1420 C   0  0  0  0  0  0  0  0  0  0  0  0
  196.8040  169.4040  147.3980 O   0  0  0  0  0  1  0  0  0  0  0  0
  195.1690  168.5570  145.9900 O   0  0  0  0  0  1  0  0  0  0  0  0
  195.7730  170.8910  145.7810 C   0  0  0  0  0  2  0  0  0  0  0  0
  184.4580  178.7110  145.4320 C   0  0  0  0  0  2  0  0  0  0  0  0
  184.5160  179.6120  144.2190 C   0  0  0  0  0  2  0  0  0  0  0  0
  185.7920  179.2870  144.9780 C   0  0  0  0  0  3  0  0  0  0  0  0
  190.1940  174.8110  146.9490 C   0  0  0  0  0  2  0  0  0  0  0  0
  191.5180  175.5160  147.1870 C   0  0  0  0  0  2  0  0  0  0  0  0
  192.6760  174.6940  146.6490 C   0  0  0  0  0  2  0  0  0  0  0  0
  193.8950  175.5310  146.4410 C   0  0  0  0  0  0  0  0  0  0  0  0
  196.1380  174.4120  146.0470 O   0  0  0  0  0  0  0  0  0  0  0  0
  195.0480  174.9520  146.2420 C   0  0  0  0  0  0  0  0  0  0  0  0
  193.7390  176.9880  146.1320 C   0  0  1  0  0  3  0  0  0  0  0  0
  194.8570  177.4360  145.3970 O   0  0  0  0  0  0  0  0  0  0  0  0
  193.6740  177.2280  144.6730 C   0  0  0  0  0  2  0  0  0  0  0  0
  1  9  1  0  0  0  0
  2  5  1  0  0  0  0
  3 10  2  0  0  0  0
  5  4  2  0  0  0  0
  6  1  2  0  0  0  0
  6  8  1  0  0  0  0
  7  2  1  0  0  0  0
  7 32  1  0  0  0  0
  8  7  2  0  0  0  0
  9  3  1  0  0  0  0
  9  2  2  0  0  0  0
 10  4  1  0  0  0  0
 10 33  1  0  0  0  0
 11 17  1  0  0  0  0
 11 15  1  0  0  0  0
 12 16  1  0  0  0  0
 13  3  1  0  0  0  0
 14 13  1  0  0  0  0
 14 16  1  0  0  0  0
 15 13  2  0  0  0  0
 17 12  2  0  0  0  0
 18 19  1  0  0  0  0
 19 17  1  0  0  0  0
 20 18  2  0  0  0  0
 21 18  1  0  0  0  0
 21 22  1  0  0  0  0
 22 25  1  0  0  0  0
 23 26  1  0  0  0  0
 25 24  1  0  0  0  0
 25 23  1  0  0  0  0
 25 29  1  0  0  0  0
 26 27  1  0  0  0  0
 28 26  1  0  0  0  0
 29 26  1  0  0  0  0
 31 32  1  0  0  0  0
 31 30  1  0  0  0  0
 32 30  1  0  0  0  0
 33 34  1  0  0  0  0
 35 34  1  0  0  0  0
 36 35  1  0  0  0  0
 37 38  2  0  0  0  0
 38 36  2  0  0  0  0
 39 36  1  6  0  0  0
 40 39  1  0  0  0  0
 41 40  1  0  0  0  0
 41 39  1  0  0  0  0
M  END
>  <MODEL>
2

>  <REMARK>
 VINA RESULT:      -6.8      3.437      9.277
  Name = 
  11 active torsions:
  status: ('A' for Active; 'I' for Inactive)
    1  A    between atoms: C_1  and  C_27
    2  A    between atoms: C_2  and  C_6
    3  A    between atoms: C_2  and  C_39
    4  A    between atoms: C_4  and  C_33
    5  A    between atoms: C_6  and  C_8
    6  A    between atoms: N_7  and  C_38
    7  A    between atoms: C_8  and  C_27
    8  A    between atoms: C_10  and  C_31
    9  A    between atoms: C_15  and  C_17
   10  A    between atoms: C_22  and  C_30
   11  A    between atoms: C_31  and  C_33
                            x       y       z     vdW  Elec       q    Type
                         _______ _______ _______ _____ _____    ______ ____

>  <TORSDO>
F 11

$$$$
=
 OpenBabel11042419553D

 41 46  0  0  1  0  0  0  0  0999 V2000
  194.6930  174.1440  145.3490 C   0  0  0  0  0  3  0  0  0  0  0  0
  194.4290  171.8130  144.7230 C   0  0  0  0  0  0  0  0  0  0  0  0
  192.4610  173.2430  144.8690 C   0  0  0  0  0  0  0  0  0  0  0  0
  192.2880  170.9130  144.2350 C   0  0  0  0  0  3  0  0  0  0  0  0
  193.6310  170.7750  144.3630 N   0  0  0  0  0  0  0  0  0  0  0  0
  196.0700  173.9460  145.4250 C   0  0  0  0  0  3  0  0  0  0  0  0
  195.8250  171.6530  144.8180 C   0  0  0  0  0  0  0  0  0  0  0  0
  196.6000  172.7230  145.1610 N   0  0  0  0  0  0  0  0  0  0  0  0
  193.8550  173.0780  144.9890 C   0  0  0  0  0  0  0  0  0  0  0  0
  191.6740  172.1430  144.4770 C   0  0  0  0  0  0  0  0  0  0  0  0
  191.1070  176.7670  144.2860 C   0  0  0  0  0  2  0  0  0  0  0  0
  189.2480  176.0790  145.8230 C   0  0  0  0  0  3  0  0  0  0  0  0
  191.8510  174.5660  145.0980 C   0  0  0  0  0  0  0  0  0  0  0  0
  191.4770  174.9910  146.4820 C   0  0  0  0  0  2  0  0  0  0  0  0
  191.6500  175.3890  144.0740 C   0  0  0  0  0  3  0  0  0  0  0  0
  189.9630  175.0120  146.6150 C   0  0  0  0  0  2  0  0  0  0  0  0
  189.6820  176.8000  144.7770 C   0  0  0  0  0  0  0  0  0  0  0  0
  187.8730  177.4940  143.0930 C   0  0  0  0  0  0  0  0  0  0  0  0
  188.7520  177.7280  144.2030 N   0  0  0  0  0  2  0  0  0  0  0  0
  187.8690  176.3940  142.4790 O   0  0  0  0  0  0  0  0  0  0  0  0
  186.9930  178.5920  142.6160 C   0  0  0  0  0  2  0  0  0  0  0  0
  185.5810  178.3690  143.1290 C   0  0  0  0  0  2  0  0  0  0  0  0
  186.1150  178.6030  145.6230 C   0  0  0  0  0  2  0  0  0  0  0  0
  185.4180  180.5100  144.2810 O   0  0  0  0  0  1  0  0  0  0  0  0
  185.3270  179.1210  144.4270 C   0  0  0  0  0  0  0  0  0  0  0  0
  184.8060  178.2070  146.2780 C   0  0  0  0  0  0  0  0  0  0  0  0
  184.5400  178.9220  147.4480 O   0  0  0  0  0  1  0  0  0  0  0  0
  184.6760  176.8300  146.4570 O   0  0  0  0  0  1  0  0  0  0  0  0
  184.0220  178.7150  145.0860 C   0  0  0  0  0  2  0  0  0  0  0  0
  196.9110  169.6730  145.8760 C   0  0  0  0  0  2  0  0  0  0  0  0
  197.9320  170.3700  145.0060 C   0  0  0  0  0  2  0  0  0  0  0  0
  196.4780  170.3210  144.5690 C   0  0  0  0  0  3  0  0  0  0  0  0
  190.1890  172.2430  144.3250 C   0  0  0  0  0  2  0  0  0  0  0  0
  189.7820  172.0640  142.8730 C   0  0  0  0  0  2  0  0  0  0  0  0
  189.0780  173.3030  142.3490 C   0  0  0  0  0  2  0  0  0  0  0  0
  189.6170  173.7230  141.0220 C   0  0  0  0  0  0  0  0  0  0  0  0
  192.1120  173.5980  140.5790 O   0  0  0  0  0  0  0  0  0  0  0  0
  190.9020  173.6600  140.7980 C   0  0  0  0  0  0  0  0  0  0  0  0
  188.6750  173.8890  139.8680 C   0  0  1  0  0  3  0  0  0  0  0  0
  189.3610  173.6380  138.6610 O   0  0  0  0  0  0  0  0  0  0  0  0
  188.5090  172.6240  139.1200 C   0  0  0  0  0  2  0  0  0  0  0  0
  1  6  1  0  0  0  0
  2  7  2  0  0  0  0
  2  9  1  0  0  0  0
  3  9  1  0  0  0  0
  3 13  1  0  0  0  0
  4  5  2  0  0  0  0
  4 10  1  0  0  0  0
  5  2  1  0  0  0  0
  7  8  1  0  0  0  0
  8  6  2  0  0  0  0
  9  1  2  0  0  0  0
 10  3  2  0  0  0  0
 11 17  1  0  0  0  0
 12 16  1  0  0  0  0
 13 14  1  0  0  0  0
 14 16  1  0  0  0  0
 15 11  1  0  0  0  0
 15 13  2  0  0  0  0
 17 12  2  0  0  0  0
 18 19  1  0  0  0  0
 19 17  1  0  0  0  0
 20 18  2  0  0  0  0
 21 18  1  0  0  0  0
 21 22  1  0  0  0  0
 22 25  1  0  0  0  0
 23 26  1  0  0  0  0
 24 25  1  0  0  0  0
 25 29  1  0  0  0  0
 25 23  1  0  0  0  0
 26 28  1  0  0  0  0
 26 27  1  0  0  0  0
 29 26  1  0  0  0  0
 31 30  1  0  0  0  0
 32  7  1  0  0  0  0
 32 31  1  0  0  0  0
 32 30  1  0  0  0  0
 33 10  1  0  0  0  0
 34 33  1  0  0  0  0
 35 34  1  0  0  0  0
 36 35  1  0  0  0  0
 37 38  2  0  0  0  0
 38 36  2  0  0  0  0
 39 36  1  1  0  0  0
 40 41  1  0  0  0  0
 40 39  1  0  0  0  0
 41 39  1  0  0  0  0
M  END
>  <MODEL>
3

>  <REMARK>
 VINA RESULT:      -6.8      1.927      4.049
  Name = 
  11 active torsions:
  status: ('A' for Active; 'I' for Inactive)
    1  A    between atoms: C_1  and  C_27
    2  A    between atoms: C_2  and  C_6
    3  A    between atoms: C_2  and  C_39
    4  A    between atoms: C_4  and  C_33
    5  A    between atoms: C_6  and  C_8
    6  A    between atoms: N_7  and  C_38
    7  A    between atoms: C_8  and  C_27
    8  A    between atoms: C_10  and  C_31
    9  A    between atoms: C_15  and  C_17
   10  A    between atoms: C_22  and  C_30
   11  A    between atoms: C_31  and  C_33
                            x       y       z     vdW  Elec       q    Type
                         _______ _______ _______ _____ _____    ______ ____

>  <TORSDO>
F 11

$$$$
=
 OpenBabel11042419553D

 41 46  0  0  1  0  0  0  0  0999 V2000
  187.6010  176.3770  142.2280 C   0  0  0  0  0  3  0  0  0  0  0  0
  187.3680  177.1940  144.5030 C   0  0  0  0  0  0  0  0  0  0  0  0
  188.9190  175.3740  144.0380 C   0  0  0  0  0  0  0  0  0  0  0  0
  188.6390  176.2580  146.2740 C   0  0  0  0  0  3  0  0  0  0  0  0
  187.7170  177.1400  145.8130 N   0  0  0  0  0  0  0  0  0  0  0  0
  186.6750  177.3330  141.8120 C   0  0  0  0  0  3  0  0  0  0  0  0
  186.4320  178.1410  144.0430 C   0  0  0  0  0  0  0  0  0  0  0  0
  186.1190  178.1830  142.7150 N   0  0  0  0  0  0  0  0  0  0  0  0
  187.9630  176.3020  143.5810 C   0  0  0  0  0  0  0  0  0  0  0  0
  189.2640  175.3630  145.4030 C   0  0  0  0  0  0  0  0  0  0  0  0
  191.3600  173.9800  141.4510 C   0  0  0  0  0  2  0  0  0  0  0  0
  191.2110  171.8510  142.7660 C   0  0  0  0  0  3  0  0  0  0  0  0
  189.5830  174.4660  143.0840 C   0  0  0  0  0  0  0  0  0  0  0  0
  188.9860  173.1310  142.7760 C   0  0  0  0  0  2  0  0  0  0  0  0
  190.7060  174.8460  142.4820 C   0  0  0  0  0  3  0  0  0  0  0  0
  189.8480  172.0360  143.3870 C   0  0  0  0  0  2  0  0  0  0  0  0
  191.9170  172.6890  141.9920 C   0  0  0  0  0  0  0  0  0  0  0  0
  194.4570  172.4360  142.2680 C   0  0  0  0  0  0  0  0  0  0  0  0
  193.2150  172.2430  141.5760 N   0  0  0  0  0  2  0  0  0  0  0  0
  194.5120  173.0770  143.3520 O   0  0  0  0  0  0  0  0  0  0  0  0
  195.7150  171.9250  141.6660 C   0  0  0  0  0  2  0  0  0  0  0  0
  195.6570  172.0860  140.1560 C   0  0  0  0  0  2  0  0  0  0  0  0
  197.4220  173.8630  140.6930 C   0  0  0  0  0  2  0  0  0  0  0  0
  197.7310  172.2590  138.8880 O   0  0  0  0  0  1  0  0  0  0  0  0
  196.7850  172.9670  139.6390 C   0  0  0  0  0  0  0  0  0  0  0  0
  196.9140  175.0720  139.9320 C   0  0  0  0  0  0  0  0  0  0  0  0
  197.9400  175.8650  139.4140 O   0  0  0  0  0  1  0  0  0  0  0  0
  195.9770  175.8170  140.6480 O   0  0  0  0  0  1  0  0  0  0  0  0
  196.2740  174.1810  138.8880 C   0  0  0  0  0  2  0  0  0  0  0  0
  184.4890  178.4760  145.5700 C   0  0  0  0  0  2  0  0  0  0  0  0
  184.3890  179.4790  144.4430 C   0  0  0  0  0  2  0  0  0  0  0  0
  185.7540  179.0930  144.9890 C   0  0  0  0  0  3  0  0  0  0  0  0
  190.2710  174.4080  145.9610 C   0  0  0  0  0  2  0  0  0  0  0  0
  191.4510  175.1560  146.5560 C   0  0  0  0  0  2  0  0  0  0  0  0
  192.7030  174.9490  145.7220 C   0  0  0  0  0  2  0  0  0  0  0  0
  193.1820  176.2290  145.1210 C   0  0  0  0  0  0  0  0  0  0  0  0
  191.5040  177.8890  144.1910 O   0  0  0  0  0  0  0  0  0  0  0  0
  192.3160  177.0800  144.6400 C   0  0  0  0  0  0  0  0  0  0  0  0
  194.5910  176.6730  145.3720 C   0  0  1  0  0  3  0  0  0  0  0  0
  195.4360  175.5440  145.4280 O   0  0  0  0  0  0  0  0  0  0  0  0
  195.4820  176.3030  144.2500 C   0  0  0  0  0  2  0  0  0  0  0  0
  1  9  1  0  0  0  0
  2  5  1  0  0  0  0
  3 10  2  0  0  0  0
  5  4  2  0  0  0  0
  6  1  2  0  0  0  0
  6  8  1  0  0  0  0
  7  2  1  0  0  0  0
  7 32  1  0  0  0  0
  8  7  2  0  0  0  0
  9  3  1  0  0  0  0
  9  2  2  0  0  0  0
 10 33  1  0  0  0  0
 10  4  1  0  0  0  0
 11 17  1  0  0  0  0
 11 15  1  0  0  0  0
 12 16  1  0  0  0  0
 13  3  1  0  0  0  0
 14 13  1  0  0  0  0
 14 16  1  0  0  0  0
 15 13  2  0  0  0  0
 17 12  2  0  0  0  0
 18 20  2  0  0  0  0
 19 17  1  0  0  0  0
 19 18  1  0  0  0  0
 21 18  1  0  0  0  0
 22 21  1  0  0  0  0
 24 25  1  0  0  0  0
 25 22  1  0  0  0  0
 25 23  1  0  0  0  0
 26 28  1  0  0  0  0
 26 23  1  0  0  0  0
 27 26  1  0  0  0  0
 29 25  1  0  0  0  0
 29 26  1  0  0  0  0
 31 32  1  0  0  0  0
 31 30  1  0  0  0  0
 32 30  1  0  0  0  0
 33 34  1  0  0  0  0
 35 34  1  0  0  0  0
 36 35  1  0  0  0  0
 37 38  2  0  0  0  0
 38 36  2  0  0  0  0
 39 36  1  6  0  0  0
 39 40  1  0  0  0  0
 41 39  1  0  0  0  0
 41 40  1  0  0  0  0
M  END
>  <MODEL>
4

>  <REMARK>
 VINA RESULT:      -6.7      3.323      9.219
  Name = 
  11 active torsions:
  status: ('A' for Active; 'I' for Inactive)
    1  A    between atoms: C_1  and  C_27
    2  A    between atoms: C_2  and  C_6
    3  A    between atoms: C_2  and  C_39
    4  A    between atoms: C_4  and  C_33
    5  A    between atoms: C_6  and  C_8
    6  A    between atoms: N_7  and  C_38
    7  A    between atoms: C_8  and  C_27
    8  A    between atoms: C_10  and  C_31
    9  A    between atoms: C_15  and  C_17
   10  A    between atoms: C_22  and  C_30
   11  A    between atoms: C_31  and  C_33
                            x       y       z     vdW  Elec       q    Type
                         _______ _______ _______ _____ _____    ______ ____

>  <TORSDO>
F 11

$$$$
=
 OpenBabel11042419553D

 41 46  0  0  1  0  0  0  0  0999 V2000
  193.9290  175.2360  146.0990 C   0  0  0  0  0  3  0  0  0  0  0  0
  194.1220  173.1990  144.7930 C   0  0  0  0  0  0  0  0  0  0  0  0
  191.9120  174.0290  145.3960 C   0  0  0  0  0  0  0  0  0  0  0  0
  192.1920  172.0160  144.0810 C   0  0  0  0  0  3  0  0  0  0  0  0
  193.5400  172.1590  144.1430 N   0  0  0  0  0  0  0  0  0  0  0  0
  195.3190  175.3480  146.0920 C   0  0  0  0  0  3  0  0  0  0  0  0
  195.5230  173.3440  144.8150 C   0  0  0  0  0  0  0  0  0  0  0  0
  196.0750  174.4130  145.4590 N   0  0  0  0  0  0  0  0  0  0  0  0
  193.3140  174.1610  145.4410 C   0  0  0  0  0  0  0  0  0  0  0  0
  191.3500  172.9440  144.6970 C   0  0  0  0  0  0  0  0  0  0  0  0
  189.8310  177.1830  145.9560 C   0  0  0  0  0  2  0  0  0  0  0  0
  188.2300  175.6620  147.1440 C   0  0  0  0  0  3  0  0  0  0  0  0
  191.0530  175.0480  146.0280 C   0  0  0  0  0  0  0  0  0  0  0  0
  190.6650  174.9160  147.4650 C   0  0  0  0  0  2  0  0  0  0  0  0
  190.6380  176.0940  145.3210 C   0  0  0  0  0  3  0  0  0  0  0  0
  189.1870  174.5730  147.5630 C   0  0  0  0  0  2  0  0  0  0  0  0
  188.4560  176.7550  146.3990 C   0  0  0  0  0  0  0  0  0  0  0  0
  186.1270  177.7050  146.9140 C   0  0  0  0  0  0  0  0  0  0  0  0
  187.3280  177.6000  146.1350 N   0  0  0  0  0  2  0  0  0  0  0  0
  185.9460  176.9970  147.9420 O   0  0  0  0  0  0  0  0  0  0  0  0
  185.0450  178.6200  146.4680 C   0  0  0  0  0  2  0  0  0  0  0  0
  185.5150  179.4100  145.2590 C   0  0  0  0  0  2  0  0  0  0  0  0
  185.3560  177.3360  143.7650 C   0  0  0  0  0  2  0  0  0  0  0  0
  183.6550  179.0750  143.7210 O   0  0  0  0  0  1  0  0  0  0  0  0
  185.0070  178.8050  143.9580 C   0  0  0  0  0  0  0  0  0  0  0  0
  186.2080  177.7240  142.5720 C   0  0  0  0  0  0  0  0  0  0  0  0
  185.7270  177.2110  141.3650 O   0  0  0  0  0  1  0  0  0  0  0  0
  187.5650  177.4600  142.7570 O   0  0  0  0  0  1  0  0  0  0  0  0
  185.8670  179.1860  142.7680 C   0  0  0  0  0  2  0  0  0  0  0  0
  197.0360  171.3980  145.1950 C   0  0  0  0  0  2  0  0  0  0  0  0
  197.8550  172.5370  144.6310 C   0  0  0  0  0  2  0  0  0  0  0  0
  196.4240  172.3330  144.1610 C   0  0  0  0  0  3  0  0  0  0  0  0
  189.8710  172.7390  144.6030 C   0  0  0  0  0  2  0  0  0  0  0  0
  189.3200  173.3630  143.3330 C   0  0  0  0  0  2  0  0  0  0  0  0
  188.9160  172.2940  142.3330 C   0  0  0  0  0  2  0  0  0  0  0  0
  188.9650  172.8060  140.9310 C   0  0  0  0  0  0  0  0  0  0  0  0
  188.1900  175.1690  140.4250 O   0  0  0  0  0  0  0  0  0  0  0  0
  188.5630  174.0220  140.6740 C   0  0  0  0  0  0  0  0  0  0  0  0
  189.7700  172.0640  139.9080 C   0  0  1  0  0  3  0  0  0  0  0  0
  190.8980  172.8320  139.5500 O   0  0  0  0  0  0  0  0  0  0  0  0
  191.1250  171.7490  140.4110 C   0  0  0  0  0  2  0  0  0  0  0  0
  2  7  2  0  0  0  0
  2  9  1  0  0  0  0
  3  9  1  0  0  0  0
  3 13  1  0  0  0  0
  4  5  2  0  0  0  0
  4 10  1  0  0  0  0
  5  2  1  0  0  0  0
  6  1  1  0  0  0  0
  7  8  1  0  0  0  0
  8  6  2  0  0  0  0
  9  1  2  0  0  0  0
 10  3  2  0  0  0  0
 11 17  1  0  0  0  0
 12 16  1  0  0  0  0
 13 14  1  0  0  0  0
 14 16  1  0  0  0  0
 15 11  1  0  0  0  0
 15 13  2  0  0  0  0
 17 12  2  0  0  0  0
 18 20  2  0  0  0  0
 19 17  1  0  0  0  0
 19 18  1  0  0  0  0
 21 18  1  0  0  0  0
 22 21  1  0  0  0  0
 23 25  1  0  0  0  0
 24 25  1  0  0  0  0
 25 22  1  0  0  0  0
 26 28  1  0  0  0  0
 26 29  1  0  0  0  0
 26 23  1  0  0  0  0
 27 26  1  0  0  0  0
 29 25  1  0  0  0  0
 31 30  1  0  0  0  0
 32 31  1  0  0  0  0
 32  7  1  0  0  0  0
 32 30  1  0  0  0  0
 33 10  1  0  0  0  0
 34 33  1  0  0  0  0
 35 34  1  0  0  0  0
 36 35  1  0  0  0  0
 37 38  2  0  0  0  0
 38 36  2  0  0  0  0
 39 41  1  0  0  0  0
 39 36  1  1  0  0  0
 40 39  1  0  0  0  0
 40 41  1  0  0  0  0
M  END
>  <MODEL>
5

>  <REMARK>
 VINA RESULT:      -6.7      2.204      4.860
  Name = 
  11 active torsions:
  status: ('A' for Active; 'I' for Inactive)
    1  A    between atoms: C_1  and  C_27
    2  A    between atoms: C_2  and  C_6
    3  A    between atoms: C_2  and  C_39
    4  A    between atoms: C_4  and  C_33
    5  A    between atoms: C_6  and  C_8
    6  A    between atoms: N_7  and  C_38
    7  A    between atoms: C_8  and  C_27
    8  A    between atoms: C_10  and  C_31
    9  A    between atoms: C_15  and  C_17
   10  A    between atoms: C_22  and  C_30
   11  A    between atoms: C_31  and  C_33
                            x       y       z     vdW  Elec       q    Type
                         _______ _______ _______ _____ _____    ______ ____

>  <TORSDO>
F 11

$$$$
=
 OpenBabel11042419553D

 41 46  0  0  1  0  0  0  0  0999 V2000
  187.6240  176.1820  142.3200 C   0  0  0  0  0  3  0  0  0  0  0  0
  187.4340  177.2560  144.4900 C   0  0  0  0  0  0  0  0  0  0  0  0
  188.8740  175.3070  144.2420 C   0  0  0  0  0  0  0  0  0  0  0  0
  188.6420  176.4470  146.3640 C   0  0  0  0  0  3  0  0  0  0  0  0
  187.7750  177.3250  145.8010 N   0  0  0  0  0  0  0  0  0  0  0  0
  186.7590  177.1390  141.7930 C   0  0  0  0  0  3  0  0  0  0  0  0
  186.5570  178.2010  143.9200 C   0  0  0  0  0  0  0  0  0  0  0  0
  186.2520  178.1150  142.5930 N   0  0  0  0  0  0  0  0  0  0  0  0
  187.9780  176.2350  143.6770 C   0  0  0  0  0  0  0  0  0  0  0  0
  189.2140  175.4260  145.6030 C   0  0  0  0  0  0  0  0  0  0  0  0
  189.3200  172.2110  142.0490 C   0  0  0  0  0  2  0  0  0  0  0  0
  190.8560  173.6540  140.6890 C   0  0  0  0  0  3  0  0  0  0  0  0
  189.4860  174.2620  143.3990 C   0  0  0  0  0  0  0  0  0  0  0  0
  190.9650  174.2390  143.1860 C   0  0  0  0  0  2  0  0  0  0  0  0
  188.7200  173.3290  142.8430 C   0  0  0  0  0  3  0  0  0  0  0  0
  191.2780  174.6380  141.7520 C   0  0  0  0  0  2  0  0  0  0  0  0
  189.9700  172.6480  140.7610 C   0  0  0  0  0  0  0  0  0  0  0  0
  190.3060  170.6140  139.2310 C   0  0  0  0  0  0  0  0  0  0  0  0
  189.7500  171.8950  139.5610 N   0  0  0  0  0  2  0  0  0  0  0  0
  191.1040  170.0240  140.0080 O   0  0  0  0  0  0  0  0  0  0  0  0
  189.9860  169.9950  137.9190 C   0  0  0  0  0  2  0  0  0  0  0  0
  191.1440  170.2110  136.9600 C   0  0  0  0  0  2  0  0  0  0  0  0
  191.3080  172.3420  135.5490 C   0  0  0  0  0  2  0  0  0  0  0  0
  190.8250  170.1780  134.5440 O   0  0  0  0  0  1  0  0  0  0  0  0
  190.7060  170.9520  135.7050 C   0  0  0  0  0  0  0  0  0  0  0  0
  189.9140  172.9280  135.6750 C   0  0  0  0  0  0  0  0  0  0  0  0
  189.4840  173.5730  134.5130 O   0  0  0  0  0  1  0  0  0  0  0  0
  189.7520  173.7190  136.8120 O   0  0  0  0  0  1  0  0  0  0  0  0
  189.3170  171.5460  135.8380 C   0  0  0  0  0  2  0  0  0  0  0  0
  184.5880  178.8480  145.3070 C   0  0  0  0  0  2  0  0  0  0  0  0
  184.6430  179.7580  144.1000 C   0  0  0  0  0  2  0  0  0  0  0  0
  185.9350  179.2890  144.7500 C   0  0  0  0  0  3  0  0  0  0  0  0
  190.1610  174.4800  146.2720 C   0  0  0  0  0  2  0  0  0  0  0  0
  191.2940  175.2360  146.9420 C   0  0  0  0  0  2  0  0  0  0  0  0
  192.6310  174.8750  146.3200 C   0  0  0  0  0  2  0  0  0  0  0  0
  193.1960  176.0120  145.5330 C   0  0  0  0  0  0  0  0  0  0  0  0
  191.6350  177.6100  144.3310 O   0  0  0  0  0  0  0  0  0  0  0  0
  192.3900  176.8310  144.9130 C   0  0  0  0  0  0  0  0  0  0  0  0
  194.6310  176.3970  145.7310 C   0  0  1  0  0  3  0  0  0  0  0  0
  195.3510  175.2890  146.2270 O   0  0  0  0  0  0  0  0  0  0  0  0
  195.5290  175.5960  144.8710 C   0  0  0  0  0  2  0  0  0  0  0  0
  1  9  1  0  0  0  0
  2  5  1  0  0  0  0
  3 10  2  0  0  0  0
  5  4  2  0  0  0  0
  6  1  2  0  0  0  0
  6  8  1  0  0  0  0
  7  2  1  0  0  0  0
  7 32  1  0  0  0  0
  8  7  2  0  0  0  0
  9  3  1  0  0  0  0
  9  2  2  0  0  0  0
 10 33  1  0  0  0  0
 10  4  1  0  0  0  0
 11 15  1  0  0  0  0
 12 17  2  0  0  0  0
 12 16  1  0  0  0  0
 13  3  1  0  0  0  0
 14 13  1  0  0  0  0
 15 13  2  0  0  0  0
 16 14  1  0  0  0  0
 17 11  1  0  0  0  0
 18 19  1  0  0  0  0
 18 20  2  0  0  0  0
 19 17  1  0  0  0  0
 21 18  1  0  0  0  0
 22 21  1  0  0  0  0
 23 26  1  0  0  0  0
 23 25  1  0  0  0  0
 24 25  1  0  0  0  0
 25 29  1  0  0  0  0
 25 22  1  0  0  0  0
 26 29  1  0  0  0  0
 26 28  1  0  0  0  0
 27 26  1  0  0  0  0
 31 32  1  0  0  0  0
 31 30  1  0  0  0  0
 32 30  1  0  0  0  0
 33 34  1  0  0  0  0
 35 34  1  0  0  0  0
 36 35  1  0  0  0  0
 37 38  2  0  0  0  0
 38 36  2  0  0  0  0
 39 36  1  6  0  0  0
 39 40  1  0  0  0  0
 41 39  1  0  0  0  0
 41 40  1  0  0  0  0
M  END
>  <MODEL>
6

>  <REMARK>
 VINA RESULT:      -6.6      3.903      8.858
  Name = 
  11 active torsions:
  status: ('A' for Active; 'I' for Inactive)
    1  A    between atoms: C_1  and  C_27
    2  A    between atoms: C_2  and  C_6
    3  A    between atoms: C_2  and  C_39
    4  A    between atoms: C_4  and  C_33
    5  A    between atoms: C_6  and  C_8
    6  A    between atoms: N_7  and  C_38
    7  A    between atoms: C_8  and  C_27
    8  A    between atoms: C_10  and  C_31
    9  A    between atoms: C_15  and  C_17
   10  A    between atoms: C_22  and  C_30
   11  A    between atoms: C_31  and  C_33
                            x       y       z     vdW  Elec       q    Type
                         _______ _______ _______ _____ _____    ______ ____

>  <TORSDO>
F 11

$$$$
=
 OpenBabel11042419553D

 41 46  0  0  1  0  0  0  0  0999 V2000
  194.2950  173.0330  145.3690 C   0  0  0  0  0  3  0  0  0  0  0  0
  196.4320  172.5960  144.3030 C   0  0  0  0  0  0  0  0  0  0  0  0
  195.5120  174.8510  144.2580 C   0  0  0  0  0  0  0  0  0  0  0  0
  197.6430  174.3340  143.2350 C   0  0  0  0  0  3  0  0  0  0  0  0
  197.5120  173.0360  143.6080 N   0  0  0  0  0  0  0  0  0  0  0  0
  194.2390  171.6950  145.7580 C   0  0  0  0  0  3  0  0  0  0  0  0
  196.3340  171.2500  144.7080 C   0  0  0  0  0  0  0  0  0  0  0  0
  195.2450  170.8450  145.4240 N   0  0  0  0  0  0  0  0  0  0  0  0
  195.3990  173.5000  144.6420 C   0  0  0  0  0  0  0  0  0  0  0  0
  196.6570  175.2690  143.5530 C   0  0  0  0  0  0  0  0  0  0  0  0
  192.3740  177.0280  144.1770 C   0  0  0  0  0  2  0  0  0  0  0  0
  192.1370  176.4110  146.5960 C   0  0  0  0  0  3  0  0  0  0  0  0
  194.4660  175.8180  144.6420 C   0  0  0  0  0  0  0  0  0  0  0  0
  194.6010  176.6100  145.9020 C   0  0  0  0  0  2  0  0  0  0  0  0
  193.4110  175.9980  143.8540 C   0  0  0  0  0  3  0  0  0  0  0  0
  193.5830  176.1210  146.9210 C   0  0  0  0  0  2  0  0  0  0  0  0
  191.5760  176.7330  145.4200 C   0  0  0  0  0  0  0  0  0  0  0  0
  189.1720  176.0480  144.8320 C   0  0  0  0  0  0  0  0  0  0  0  0
  190.1540  176.9180  145.4140 N   0  0  0  0  0  2  0  0  0  0  0  0
  189.5060  175.0000  144.2170 O   0  0  0  0  0  0  0  0  0  0  0  0
  187.7350  176.4200  144.9000 C   0  0  0  0  0  2  0  0  0  0  0  0
  187.6020  177.9330  144.8790 C   0  0  0  0  0  2  0  0  0  0  0  0
  185.6590  179.5670  144.5420 C   0  0  0  0  0  2  0  0  0  0  0  0
  186.8190  178.5550  142.6570 O   0  0  0  0  0  1  0  0  0  0  0  0
  186.4480  178.3850  143.9960 C   0  0  0  0  0  0  0  0  0  0  0  0
  184.4460  178.6650  144.6620 C   0  0  0  0  0  0  0  0  0  0  0  0
  183.3960  179.0450  143.8230 O   0  0  0  0  0  1  0  0  0  0  0  0
  184.0300  178.4770  145.9800 O   0  0  0  0  0  1  0  0  0  0  0  0
  185.2320  177.4880  144.1260 C   0  0  0  0  0  2  0  0  0  0  0  0
  197.0700  169.5580  143.0310 C   0  0  0  0  0  2  0  0  0  0  0  0
  196.7980  168.8480  144.3380 C   0  0  0  0  0  2  0  0  0  0  0  0
  197.3940  170.2460  144.3500 C   0  0  0  0  0  3  0  0  0  0  0  0
  196.8470  176.6860  143.1150 C   0  0  0  0  0  2  0  0  0  0  0  0
  196.7920  176.7950  141.6010 C   0  0  0  0  0  2  0  0  0  0  0  0
  195.4020  176.4700  141.0830 C   0  0  0  0  0  2  0  0  0  0  0  0
  195.4270  175.3290  140.1200 C   0  0  0  0  0  0  0  0  0  0  0  0
  197.3670  175.0880  138.5020 O   0  0  0  0  0  0  0  0  0  0  0  0
  196.4250  175.2100  139.2870 C   0  0  0  0  0  0  0  0  0  0  0  0
  194.5030  174.1690  140.3360 C   0  0  1  0  0  3  0  0  0  0  0  0
  193.1700  174.6290  140.3640 O   0  0  0  0  0  0  0  0  0  0  0  0
  193.5860  173.9870  139.1890 C   0  0  0  0  0  2  0  0  0  0  0  0
  1  6  1  0  0  0  0
  2  9  1  0  0  0  0
  2  7  2  0  0  0  0
  3  9  1  0  0  0  0
  3 13  1  0  0  0  0
  4 10  1  0  0  0  0
  4  5  2  0  0  0  0
  5  2  1  0  0  0  0
  7  8  1  0  0  0  0
  8  6  2  0  0  0  0
  9  1  2  0  0  0  0
 10  3  2  0  0  0  0
 11 17  1  0  0  0  0
 12 16  1  0  0  0  0
 13 14  1  0  0  0  0
 14 16  1  0  0  0  0
 15 11  1  0  0  0  0
 15 13  2  0  0  0  0
 17 12  2  0  0  0  0
 18 21  1  0  0  0  0
 18 19  1  0  0  0  0
 19 17  1  0  0  0  0
 20 18  2  0  0  0  0
 22 21  1  0  0  0  0
 23 26  1  0  0  0  0
 24 25  1  0  0  0  0
 25 29  1  0  0  0  0
 25 23  1  0  0  0  0
 25 22  1  0  0  0  0
 26 28  1  0  0  0  0
 27 26  1  0  0  0  0
 29 26  1  0  0  0  0
 30 31  1  0  0  0  0
 30 32  1  0  0  0  0
 31 32  1  0  0  0  0
 32  7  1  0  0  0  0
 33 10  1  0  0  0  0
 34 33  1  0  0  0  0
 35 34  1  0  0  0  0
 36 35  1  0  0  0  0
 37 38  2  0  0  0  0
 38 36  2  0  0  0  0
 39 36  1  6  0  0  0
 39 40  1  0  0  0  0
 41 39  1  0  0  0  0
 41 40  1  0  0  0  0
M  END
>  <MODEL>
7

>  <REMARK>
 VINA RESULT:      -6.6      2.694      4.442
  Name = 
  11 active torsions:
  status: ('A' for Active; 'I' for Inactive)
    1  A    between atoms: C_1  and  C_27
    2  A    between atoms: C_2  and  C_6
    3  A    between atoms: C_2  and  C_39
    4  A    between atoms: C_4  and  C_33
    5  A    between atoms: C_6  and  C_8
    6  A    between atoms: N_7  and  C_38
    7  A    between atoms: C_8  and  C_27
    8  A    between atoms: C_10  and  C_31
    9  A    between atoms: C_15  and  C_17
   10  A    between atoms: C_22  and  C_30
   11  A    between atoms: C_31  and  C_33
                            x       y       z     vdW  Elec       q    Type
                         _______ _______ _______ _____ _____    ______ ____

>  <TORSDO>
F 11

$$$$
=
 OpenBabel11042419553D

 41 46  0  0  1  0  0  0  0  0999 V2000
  187.4020  176.1820  143.0110 C   0  0  0  0  0  3  0  0  0  0  0  0
  187.3070  177.1350  145.2420 C   0  0  0  0  0  0  0  0  0  0  0  0
  189.0490  175.5190  144.7050 C   0  0  0  0  0  0  0  0  0  0  0  0
  188.8930  176.5290  146.8990 C   0  0  0  0  0  3  0  0  0  0  0  0
  187.8040  177.2330  146.5010 N   0  0  0  0  0  0  0  0  0  0  0  0
  186.3040  176.9620  142.6530 C   0  0  0  0  0  3  0  0  0  0  0  0
  186.1940  177.9020  144.8420 C   0  0  0  0  0  0  0  0  0  0  0  0
  185.7320  177.7940  143.5630 N   0  0  0  0  0  0  0  0  0  0  0  0
  187.9210  176.2650  144.3110 C   0  0  0  0  0  0  0  0  0  0  0  0
  189.5420  175.6650  146.0150 C   0  0  0  0  0  0  0  0  0  0  0  0
  191.2880  174.3000  141.8600 C   0  0  0  0  0  2  0  0  0  0  0  0
  191.7990  172.3660  143.3720 C   0  0  0  0  0  3  0  0  0  0  0  0
  189.7300  174.6410  143.7340 C   0  0  0  0  0  0  0  0  0  0  0  0
  189.3850  173.1890  143.6640 C   0  0  0  0  0  2  0  0  0  0  0  0
  190.6390  175.1490  142.9080 C   0  0  0  0  0  3  0  0  0  0  0  0
  190.5430  172.3650  144.2080 C   0  0  0  0  0  2  0  0  0  0  0  0
  192.1820  173.2180  142.4090 C   0  0  0  0  0  0  0  0  0  0  0  0
  194.5760  173.8830  141.7620 C   0  0  0  0  0  0  0  0  0  0  0  0
  193.4620  172.9790  141.8080 N   0  0  0  0  0  2  0  0  0  0  0  0
  194.5030  175.0420  142.2510 O   0  0  0  0  0  0  0  0  0  0  0  0
  195.8230  173.4700  141.0660 C   0  0  0  0  0  2  0  0  0  0  0  0
  195.6230  173.5720  139.5640 C   0  0  0  0  0  2  0  0  0  0  0  0
  195.9180  175.2740  137.6730 C   0  0  0  0  0  2  0  0  0  0  0  0
  196.8600  175.6470  139.8860 O   0  0  0  0  0  1  0  0  0  0  0  0
  196.4790  174.6740  138.9550 C   0  0  0  0  0  0  0  0  0  0  0  0
  197.1210  174.7310  136.9260 C   0  0  0  0  0  0  0  0  0  0  0  0
  197.9380  175.7340  136.4000 O   0  0  0  0  0  1  0  0  0  0  0  0
  196.7870  173.7660  135.9760 O   0  0  0  0  0  1  0  0  0  0  0  0
  197.6750  174.1270  138.1990 C   0  0  0  0  0  2  0  0  0  0  0  0
  184.3410  178.1070  146.4990 C   0  0  0  0  0  2  0  0  0  0  0  0
  184.0600  179.0470  145.3490 C   0  0  0  0  0  2  0  0  0  0  0  0
  185.4920  178.8200  145.8040 C   0  0  0  0  0  3  0  0  0  0  0  0
  190.7360  174.9070  146.5040 C   0  0  0  0  0  2  0  0  0  0  0  0
  192.0170  175.6590  146.1890 C   0  0  0  0  0  2  0  0  0  0  0  0
  193.1330  174.6990  145.8150 C   0  0  0  0  0  2  0  0  0  0  0  0
  194.4640  175.3760  145.8120 C   0  0  0  0  0  0  0  0  0  0  0  0
  194.5880  177.9100  145.8880 O   0  0  0  0  0  0  0  0  0  0  0  0
  194.5240  176.6800  145.8480 C   0  0  0  0  0  0  0  0  0  0  0  0
  195.6940  174.5730  146.1030 C   0  0  1  0  0  3  0  0  0  0  0  0
  195.7160  173.4300  145.2760 O   0  0  0  0  0  0  0  0  0  0  0  0
  196.5730  174.4800  144.9160 C   0  0  0  0  0  2  0  0  0  0  0  0
  1  9  1  0  0  0  0
  2  5  1  0  0  0  0
  3 10  2  0  0  0  0
  5  4  2  0  0  0  0
  6  1  2  0  0  0  0
  6  8  1  0  0  0  0
  7  2  1  0  0  0  0
  7 32  1  0  0  0  0
  8  7  2  0  0  0  0
  9  3  1  0  0  0  0
  9  2  2  0  0  0  0
 10 33  1  0  0  0  0
 10  4  1  0  0  0  0
 11 17  1  0  0  0  0
 11 15  1  0  0  0  0
 12 16  1  0  0  0  0
 13  3  1  0  0  0  0
 14 13  1  0  0  0  0
 14 16  1  0  0  0  0
 15 13  2  0  0  0  0
 17 12  2  0  0  0  0
 18 19  1  0  0  0  0
 18 20  2  0  0  0  0
 19 17  1  0  0  0  0
 21 18  1  0  0  0  0
 22 21  1  0  0  0  0
 23 25  1  0  0  0  0
 25 22  1  0  0  0  0
 25 24  1  0  0  0  0
 26 23  1  0  0  0  0
 26 29  1  0  0  0  0
 27 26  1  0  0  0  0
 28 26  1  0  0  0  0
 29 25  1  0  0  0  0
 31 32  1  0  0  0  0
 31 30  1  0  0  0  0
 32 30  1  0  0  0  0
 34 33  1  0  0  0  0
 35 34  1  0  0  0  0
 36 35  1  0  0  0  0
 36 38  2  0  0  0  0
 38 37  2  0  0  0  0
 39 36  1  6  0  0  0
 40 39  1  0  0  0  0
 41 40  1  0  0  0  0
 41 39  1  0  0  0  0
M  END
>  <MODEL>
8

>  <REMARK>
 VINA RESULT:      -6.5      3.930      9.422
  Name = 
  11 active torsions:
  status: ('A' for Active; 'I' for Inactive)
    1  A    between atoms: C_1  and  C_27
    2  A    between atoms: C_2  and  C_6
    3  A    between atoms: C_2  and  C_39
    4  A    between atoms: C_4  and  C_33
    5  A    between atoms: C_6  and  C_8
    6  A    between atoms: N_7  and  C_38
    7  A    between atoms: C_8  and  C_27
    8  A    between atoms: C_10  and  C_31
    9  A    between atoms: C_15  and  C_17
   10  A    between atoms: C_22  and  C_30
   11  A    between atoms: C_31  and  C_33
                            x       y       z     vdW  Elec       q    Type
                         _______ _______ _______ _____ _____    ______ ____

>  <TORSDO>
F 11

$$$$
=
 OpenBabel11042419553D

 41 46  0  0  1  0  0  0  0  0999 V2000
  195.3780  176.4560  143.8140 C   0  0  0  0  0  3  0  0  0  0  0  0
  195.6580  174.1320  143.1690 C   0  0  0  0  0  0  0  0  0  0  0  0
  193.6920  174.7900  144.4480 C   0  0  0  0  0  0  0  0  0  0  0  0
  194.0390  172.4990  143.7510 C   0  0  0  0  0  3  0  0  0  0  0  0
  195.2080  172.8520  143.1600 N   0  0  0  0  0  0  0  0  0  0  0  0
  196.5680  176.7610  143.1540 C   0  0  0  0  0  3  0  0  0  0  0  0
  196.8590  174.4800  142.5200 C   0  0  0  0  0  0  0  0  0  0  0  0
  197.2730  175.7810  142.5290 N   0  0  0  0  0  0  0  0  0  0  0  0
  194.9060  175.1360  143.8220 C   0  0  0  0  0  0  0  0  0  0  0  0
  193.2540  173.4530  144.4000 C   0  0  0  0  0  0  0  0  0  0  0  0
  191.0370  177.4710  145.0440 C   0  0  0  0  0  2  0  0  0  0  0  0
  190.7880  176.4240  147.3090 C   0  0  0  0  0  3  0  0  0  0  0  0
  192.8720  175.8320  145.0950 C   0  0  0  0  0  0  0  0  0  0  0  0
  193.2120  176.3100  146.4690 C   0  0  0  0  0  2  0  0  0  0  0  0
  191.8390  176.3580  144.4450 C   0  0  0  0  0  3  0  0  0  0  0  0
  192.1620  175.8160  147.4530 C   0  0  0  0  0  2  0  0  0  0  0  0
  190.2500  177.0770  146.2670 C   0  0  0  0  0  0  0  0  0  0  0  0
  187.7660  176.7180  146.8080 C   0  0  0  0  0  0  0  0  0  0  0  0
  188.8930  177.5150  146.4130 N   0  0  0  0  0  2  0  0  0  0  0  0
  187.8840  175.4860  147.0460 O   0  0  0  0  0  0  0  0  0  0  0  0
  186.4190  177.3410  146.8770 C   0  0  0  0  0  2  0  0  0  0  0  0
  186.3940  178.5920  146.0150 C   0  0  0  0  0  2  0  0  0  0  0  0
  185.3980  177.5050  143.9210 C   0  0  0  0  0  2  0  0  0  0  0  0
  183.9910  178.5430  145.6140 O   0  0  0  0  0  1  0  0  0  0  0  0
  185.2530  178.5600  145.0090 C   0  0  0  0  0  0  0  0  0  0  0  0
  185.4960  178.6170  142.8940 C   0  0  0  0  0  0  0  0  0  0  0  0
  184.4310  178.6250  141.9910 O   0  0  0  0  0  1  0  0  0  0  0  0
  186.7350  178.6640  142.2540 O   0  0  0  0  0  1  0  0  0  0  0  0
  185.3610  179.6670  143.9770 C   0  0  0  0  0  2  0  0  0  0  0  0
  197.9360  173.8060  140.3740 C   0  0  0  0  0  2  0  0  0  0  0  0
  196.9020  172.7650  140.7370 C   0  0  0  0  0  2  0  0  0  0  0  0
  197.7060  173.4440  141.8340 C   0  0  0  0  0  3  0  0  0  0  0  0
  191.9760  173.0120  145.0400 C   0  0  0  0  0  2  0  0  0  0  0  0
  190.9930  172.5160  143.9940 C   0  0  0  0  0  2  0  0  0  0  0  0
  189.7100  173.3280  144.0240 C   0  0  0  0  0  2  0  0  0  0  0  0
  189.1790  173.5710  142.6500 C   0  0  0  0  0  0  0  0  0  0  0  0
  187.1040  172.3390  141.8660 O   0  0  0  0  0  0  0  0  0  0  0  0
  188.1130  172.9330  142.2490 C   0  0  0  0  0  0  0  0  0  0  0  0
  189.6590  174.7630  141.8800 C   0  0  1  0  0  3  0  0  0  0  0  0
  188.6030  175.2700  141.0930 O   0  0  0  0  0  0  0  0  0  0  0  0
  188.9170  175.9850  142.2580 C   0  0  0  0  0  2  0  0  0  0  0  0
  1  9  1  0  0  0  0
  2  9  1  0  0  0  0
  3 13  1  0  0  0  0
  4 10  2  0  0  0  0
  5  2  2  0  0  0  0
  5  4  1  0  0  0  0
  6  1  2  0  0  0  0
  7  8  2  0  0  0  0
  7  2  1  0  0  0  0
  8  6  1  0  0  0  0
  9  3  2  0  0  0  0
 10  3  1  0  0  0  0
 10 33  1  0  0  0  0
 11 17  1  0  0  0  0
 12 16  1  0  0  0  0
 13 14  1  0  0  0  0
 14 16  1  0  0  0  0
 15 11  1  0  0  0  0
 15 13  2  0  0  0  0
 17 19  1  0  0  0  0
 17 12  2  0  0  0  0
 18 21  1  0  0  0  0
 18 20  2  0  0  0  0
 19 18  1  0  0  0  0
 22 21  1  0  0  0  0
 23 25  1  0  0  0  0
 25 24  1  0  0  0  0
 25 22  1  0  0  0  0
 26 23  1  0  0  0  0
 26 29  1  0  0  0  0
 27 26  1  0  0  0  0
 28 26  1  0  0  0  0
 29 25  1  0  0  0  0
 30 31  1  0  0  0  0
 30 32  1  0  0  0  0
 31 32  1  0  0  0  0
 32  7  1  0  0  0  0
 34 35  1  0  0  0  0
 34 33  1  0  0  0  0
 36 35  1  0  0  0  0
 37 38  2  0  0  0  0
 38 36  2  0  0  0  0
 39 41  1  0  0  0  0
 39 36  1  1  0  0  0
 40 39  1  0  0  0  0
 40 41  1  0  0  0  0
M  END
>  <MODEL>
9

>  <REMARK>
 VINA RESULT:      -6.5      2.307      4.839
  Name = 
  11 active torsions:
  status: ('A' for Active; 'I' for Inactive)
    1  A    between atoms: C_1  and  C_27
    2  A    between atoms: C_2  and  C_6
    3  A    between atoms: C_2  and  C_39
    4  A    between atoms: C_4  and  C_33
    5  A    between atoms: C_6  and  C_8
    6  A    between atoms: N_7  and  C_38
    7  A    between atoms: C_8  and  C_27
    8  A    between atoms: C_10  and  C_31
    9  A    between atoms: C_15  and  C_17
   10  A    between atoms: C_22  and  C_30
   11  A    between atoms: C_31  and  C_33
                            x       y       z     vdW  Elec       q    Type
                         _______ _______ _______ _____ _____    ______ ____

>  <TORSDO>
F 11

$$$$
