=
 OpenBabel11042415583D

 52 58  0  0  1  0  0  0  0  0999 V2000
  190.8410  176.9510  145.1590 C   0  0  0  0  0  0  0  0  0  0  0  0
  186.5210  177.3630  143.4370 C   0  0  1  0  0  3  0  0  0  0  0  0
  184.4270  178.4260  143.9560 C   0  0  0  0  0  0  0  0  0  0  0  0
  190.7830  176.4200  146.5680 C   0  0  1  0  0  3  0  0  0  0  0  0
  184.7880  179.4240  144.7780 C   0  0  0  0  0  3  0  0  0  0  0  0
  185.1590  177.1200  143.9630 C   0  0  1  0  0  3  0  0  0  0  0  0
  187.9410  177.1700  146.2540 C   0  0  0  0  0  0  0  0  0  0  0  0
  186.4780  177.0770  146.6280 C   0  0  0  0  0  2  0  0  0  0  0  0
  192.1130  176.1520  147.1060 N   0  0  0  0  0  1  0  0  0  0  0  0
  189.6970  177.1020  144.4680 C   0  0  0  0  0  3  0  0  0  0  0  0
  185.8270  178.4490  146.8660 C   0  0  0  0  0  2  0  0  0  0  0  0
  187.3900  176.4410  144.0510 O   0  0  0  0  0  0  0  0  0  0  0  0
  190.1090  177.3840  147.4280 N   0  0  0  0  0  0  0  0  0  0  0  0
  188.3240  176.8890  144.9800 C   0  0  0  0  0  0  0  0  0  0  0  0
  185.5430  176.7100  142.6770 O   0  0  0  0  0  0  0  0  0  0  0  0
  188.8470  177.6960  147.3070 C   0  0  0  0  0  3  0  0  0  0  0  0
  185.9840  179.3980  145.6760 C   0  0  0  0  0  2  0  0  0  0  0  0
  182.3280  178.2560  140.7340 C   0  0  0  0  0  0  0  0  0  0  0  0
  182.3230  177.4900  139.7560 O   0  0  0  0  0  0  0  0  0  0  0  0
  183.2580  178.5980  143.0790 C   0  0  0  0  0  0  0  0  0  0  0  0
  183.2790  178.0170  141.7680 N   0  0  0  0  0  2  0  0  0  0  0  0
  182.2450  179.2310  143.4880 O   0  0  0  0  0  0  0  0  0  0  0  0
  181.3350  179.3830  140.8170 C   0  0  0  0  0  2  0  0  0  0  0  0
  177.7680  180.0240  140.4480 C   0  0  0  0  0  2  0  0  0  0  0  0
  179.9130  178.9240  140.5630 C   0  0  1  0  0  3  0  0  0  0  0  0
  179.1930  178.6990  141.8880 C   0  0  1  0  0  3  0  0  0  0  0  0
  179.1470  180.0040  139.8320 C   0  0  0  0  0  2  0  0  0  0  0  0
  177.9710  179.6040  141.8940 C   0  0  0  0  0  2  0  0  0  0  0  0
  178.0850  177.0350  143.1830 O   0  0  0  0  0  1  0  0  0  0  0  0
  178.7710  177.2480  141.9870 C   0  0  0  0  0  2  0  0  0  0  0  0
  192.1530  177.3570  144.5180 C   0  0  2  0  0  3  0  0  0  0  0  0
  191.9280  177.8370  143.0890 C   0  0  0  0  0  1  0  0  0  0  0  0
  193.0740  176.3020  144.5180 O   0  0  0  0  0  0  0  0  0  0  0  0
  192.1460  174.4040  143.3420 C   0  0  2  0  0  3  0  0  0  0  0  0
  195.4830  175.2190  143.4000 C   0  0  0  0  0  2  0  0  0  0  0  0
  192.9560  175.6990  143.2660 C   0  0  2  0  0  3  0  0  0  0  0  0
  195.7890  174.0760  142.4490 C   0  0  0  0  0  2  0  0  0  0  0  0
  192.6160  173.5860  144.3500 O   0  0  0  0  0  1  0  0  0  0  0  0
  192.1880  173.6850  142.0110 C   0  0  1  0  0  3  0  0  0  0  0  0
  194.3120  175.6260  142.5270 C   0  0  2  0  0  3  0  0  0  0  0  0
  193.6040  173.2450  141.7210 C   0  0  0  0  0  2  0  0  0  0  0  0
  194.5730  174.4250  141.6080 C   0  0  2  0  0  3  0  0  0  0  0  0
  191.3060  172.5200  142.0120 N   0  0  0  0  0  2  0  0  0  0  0  0
  189.9440  172.9940  141.8000 C   0  0  2  0  0  3  0  0  0  0  0  0
  188.9940  172.2310  142.7060 C   0  0  0  0  0  1  0  0  0  0  0  0
  188.4910  173.8510  138.3990 C   0  0  0  0  0  0  0  0  0  0  0  0
  189.5320  172.8890  140.3540 C   0  0  0  0  0  0  0  0  0  0  0  0
  188.8220  173.9360  139.7500 C   0  0  0  0  0  3  0  0  0  0  0  0
  189.6070  171.7270  138.2800 C   0  0  0  0  0  3  0  0  0  0  0  0
  189.9040  171.8160  139.6010 N   0  0  0  0  0  0  0  0  0  0  0  0
  188.8940  172.7470  137.6510 C   0  0  0  0  0  3  0  0  0  0  0  0
  187.7120  174.9360  137.7600 C   0  0  0  0  0  1  0  0  0  0  0  0
  1  4  1  0  0  0  0
  2 15  1  6  0  0  0
  2  6  1  0  0  0  0
  2 12  1  0  0  0  0
  3  6  1  0  0  0  0
  3  5  2  0  0  0  0
  4  9  1  1  0  0  0
  4 13  1  0  0  0  0
  5 17  1  0  0  0  0
  6 15  1  6  0  0  0
  7  8  1  0  0  0  0
  7 16  1  0  0  0  0
  8 11  1  0  0  0  0
 10 14  1  0  0  0  0
 10  1  2  0  0  0  0
 12 14  1  0  0  0  0
 14  7  2  0  0  0  0
 16 13  2  0  0  0  0
 17 11  1  0  0  0  0
 18 23  1  0  0  0  0
 18 21  1  0  0  0  0
 19 18  2  0  0  0  0
 20 22  2  0  0  0  0
 20  3  1  0  0  0  0
 21 20  1  0  0  0  0
 24 28  1  0  0  0  0
 25 23  1  1  0  0  0
 25 26  1  0  0  0  0
 26 28  1  0  0  0  0
 26 30  1  6  0  0  0
 27 24  1  0  0  0  0
 27 25  1  0  0  0  0
 30 29  1  0  0  0  0
 31 32  1  6  0  0  0
 31  1  1  0  0  0  0
 33 31  1  0  0  0  0
 34 38  1  1  0  0  0
 36 34  1  0  0  0  0
 36 33  1  1  0  0  0
 37 35  1  0  0  0  0
 39 43  1  1  0  0  0
 39 34  1  0  0  0  0
 40 36  1  0  0  0  0
 40 35  1  1  0  0  0
 41 39  1  0  0  0  0
 42 41  1  1  0  0  0
 42 37  1  0  0  0  0
 42 40  1  0  0  0  0
 44 43  1  0  0  0  0
 44 45  1  1  0  0  0
 46 48  1  0  0  0  0
 47 44  1  0  0  0  0
 48 47  2  0  0  0  0
 49 50  2  0  0  0  0
 50 47  1  0  0  0  0
 51 49  1  0  0  0  0
 51 46  2  0  0  0  0
 52 46  1  0  0  0  0
M  END
>  <MODEL>
1

>  <REMARK>
 VINA RESULT:      -8.9      0.000      0.000
  Name = 
  10 active torsions:
  status: ('A' for Active; 'I' for Inactive)
    1  A    between atoms: C_1  and  C_30
    2  A    between atoms: C_6  and  C_30
    3  A    between atoms: C_8  and  C_33
    4  A    between atoms: C_9  and  O_18
    5  A    between atoms: C_10  and  C_16
    6  A    between atoms: C_12  and  C_52
    7  A    between atoms: C_13  and  C_17
    8  A    between atoms: C_16  and  N_48
    9  A    between atoms: O_18  and  C_33
   10  A    between atoms: C_23  and  N_48
                            x       y       z     vdW  Elec       q    Type
                         _______ _______ _______ _____ _____    ______ ____

>  <TORSDO>
F 10

$$$$
=
 OpenBabel11042415583D

 52 58  0  0  1  0  0  0  0  0999 V2000
  193.9340  170.0740  141.5930 C   0  0  0  0  0  0  0  0  0  0  0  0
  190.7020  173.3490  142.3790 C   0  0  1  0  0  3  0  0  0  0  0  0
  188.8180  174.3740  141.2910 C   0  0  0  0  0  0  0  0  0  0  0  0
  194.6850  170.3880  140.3240 C   0  0  1  0  0  3  0  0  0  0  0  0
  188.4620  173.4600  140.3750 C   0  0  0  0  0  3  0  0  0  0  0  0
  190.2540  174.5670  141.6680 C   0  0  1  0  0  3  0  0  0  0  0  0
  192.4000  172.2280  139.9610 C   0  0  0  0  0  0  0  0  0  0  0  0
  191.7380  173.4420  139.3490 C   0  0  0  0  0  2  0  0  0  0  0  0
  195.7920  169.4640  140.1020 N   0  0  0  0  0  1  0  0  0  0  0  0
  192.9840  170.9240  142.0200 C   0  0  0  0  0  3  0  0  0  0  0  0
  190.3610  173.1360  138.7390 C   0  0  0  0  0  2  0  0  0  0  0  0
  192.0760  173.1820  142.1230 O   0  0  0  0  0  0  0  0  0  0  0  0
  193.7750  170.3210  139.1870 N   0  0  0  0  0  0  0  0  0  0  0  0
  192.5030  172.1340  141.3130 C   0  0  0  0  0  0  0  0  0  0  0  0
  190.4550  174.5500  143.0560 O   0  0  0  0  0  0  0  0  0  0  0  0
  192.7820  171.1500  139.0130 C   0  0  0  0  0  3  0  0  0  0  0  0
  189.3980  172.4850  139.7340 C   0  0  0  0  0  2  0  0  0  0  0  0
  187.0730  177.6380  142.3490 C   0  0  0  0  0  0  0  0  0  0  0  0
  187.0580  178.7900  141.8830 O   0  0  0  0  0  0  0  0  0  0  0  0
  187.7890  175.2390  141.8890 C   0  0  0  0  0  0  0  0  0  0  0  0
  187.8620  176.6560  141.6830 N   0  0  0  0  0  2  0  0  0  0  0  0
  186.8440  174.7320  142.5570 O   0  0  0  0  0  0  0  0  0  0  0  0
  186.2570  177.3050  143.5680 C   0  0  0  0  0  2  0  0  0  0  0  0
  188.1740  177.2270  146.6640 C   0  0  0  0  0  2  0  0  0  0  0  0
  186.7950  177.9600  144.8250 C   0  0  1  0  0  3  0  0  0  0  0  0
  185.8830  177.6470  146.0060 C   0  0  1  0  0  3  0  0  0  0  0  0
  188.1530  177.3860  145.1620 C   0  0  0  0  0  2  0  0  0  0  0  0
  186.7330  176.9500  147.0570 C   0  0  0  0  0  2  0  0  0  0  0  0
  184.5520  178.6760  147.6930 O   0  0  0  0  0  1  0  0  0  0  0  0
  185.3220  178.9410  146.5600 C   0  0  0  0  0  2  0  0  0  0  0  0
  194.1970  168.8020  142.3760 C   0  0  2  0  0  3  0  0  0  0  0  0
  193.1140  168.5840  143.4260 C   0  0  0  0  0  1  0  0  0  0  0  0
  195.4520  168.8310  142.9960 O   0  0  0  0  0  0  0  0  0  0  0  0
  195.8740  171.0560  143.8400 C   0  0  2  0  0  3  0  0  0  0  0  0
  197.0350  168.1680  145.2950 C   0  0  0  0  0  2  0  0  0  0  0  0
  195.3050  169.6610  144.1060 C   0  0  2  0  0  3  0  0  0  0  0  0
  197.6350  168.9720  146.4340 C   0  0  0  0  0  2  0  0  0  0  0  0
  197.1530  170.9780  143.3260 O   0  0  0  0  0  1  0  0  0  0  0  0
  195.8630  171.8750  145.1130 C   0  0  1  0  0  3  0  0  0  0  0  0
  195.7520  168.9690  145.4140 C   0  0  2  0  0  3  0  0  0  0  0  0
  196.8040  171.2530  146.1190 C   0  0  0  0  0  2  0  0  0  0  0  0
  196.3870  169.8330  146.5110 C   0  0  2  0  0  3  0  0  0  0  0  0
  196.2670  173.2550  144.8570 N   0  0  0  0  0  2  0  0  0  0  0  0
  195.1760  173.9120  144.1470 C   0  0  2  0  0  3  0  0  0  0  0  0
  195.7320  174.6790  142.9600 C   0  0  0  0  0  1  0  0  0  0  0  0
  192.3440  175.2670  146.2810 C   0  0  0  0  0  0  0  0  0  0  0  0
  194.3730  174.8070  145.0550 C   0  0  0  0  0  0  0  0  0  0  0  0
  193.0590  174.4590  145.3990 C   0  0  0  0  0  3  0  0  0  0  0  0
  194.2570  176.7050  146.4830 C   0  0  0  0  0  3  0  0  0  0  0  0
  194.9330  175.9200  145.6080 N   0  0  0  0  0  0  0  0  0  0  0  0
  192.9460  176.3930  146.8390 C   0  0  0  0  0  3  0  0  0  0  0  0
  190.9440  174.9260  146.6240 C   0  0  0  0  0  1  0  0  0  0  0  0
  1 10  2  0  0  0  0
  1 31  1  0  0  0  0
  2 12  1  6  0  0  0
  2 15  1  0  0  0  0
  3 20  1  0  0  0  0
  4  9  1  6  0  0  0
  4  1  1  0  0  0  0
  5  3  2  0  0  0  0
  6  3  1  1  0  0  0
  6  2  1  0  0  0  0
  6 15  1  0  0  0  0
  7 14  2  0  0  0  0
  8  7  1  0  0  0  0
 11  8  1  0  0  0  0
 11 17  1  0  0  0  0
 13  4  1  0  0  0  0
 14 10  1  0  0  0  0
 14 12  1  0  0  0  0
 16 13  2  0  0  0  0
 16  7  1  0  0  0  0
 17  5  1  0  0  0  0
 18 23  1  0  0  0  0
 19 18  2  0  0  0  0
 20 22  2  0  0  0  0
 21 20  1  0  0  0  0
 21 18  1  0  0  0  0
 24 28  1  0  0  0  0
 25 23  1  6  0  0  0
 25 27  1  0  0  0  0
 25 26  1  0  0  0  0
 26 30  1  1  0  0  0
 26 28  1  0  0  0  0
 27 24  1  0  0  0  0
 30 29  1  0  0  0  0
 31 33  1  0  0  0  0
 31 32  1  1  0  0  0
 34 38  1  1  0  0  0
 34 36  1  0  0  0  0
 34 39  1  0  0  0  0
 35 37  1  0  0  0  0
 36 33  1  6  0  0  0
 36 40  1  0  0  0  0
 37 42  1  0  0  0  0
 39 43  1  6  0  0  0
 39 41  1  0  0  0  0
 40 35  1  6  0  0  0
 40 42  1  0  0  0  0
 42 41  1  6  0  0  0
 44 45  1  6  0  0  0
 44 43  1  0  0  0  0
 44 47  1  0  0  0  0
 46 52  1  0  0  0  0
 46 51  1  0  0  0  0
 47 48  1  0  0  0  0
 47 50  2  0  0  0  0
 48 46  2  0  0  0  0
 49 51  2  0  0  0  0
 50 49  1  0  0  0  0
M  END
>  <MODEL>
2

>  <REMARK>
 VINA RESULT:      -8.7      3.957      8.071
  Name = 
  10 active torsions:
  status: ('A' for Active; 'I' for Inactive)
    1  A    between atoms: C_1  and  C_30
    2  A    between atoms: C_6  and  C_30
    3  A    between atoms: C_8  and  C_33
    4  A    between atoms: C_9  and  O_18
    5  A    between atoms: C_10  and  C_16
    6  A    between atoms: C_12  and  C_52
    7  A    between atoms: C_13  and  C_17
    8  A    between atoms: C_16  and  N_48
    9  A    between atoms: O_18  and  C_33
   10  A    between atoms: C_23  and  N_48
                            x       y       z     vdW  Elec       q    Type
                         _______ _______ _______ _____ _____    ______ ____

>  <TORSDO>
F 10

$$$$
=
 OpenBabel11042415583D

 52 58  0  0  1  0  0  0  0  0999 V2000
  190.8810  176.4760  145.1090 C   0  0  0  0  0  0  0  0  0  0  0  0
  186.5420  177.1000  143.5030 C   0  0  1  0  0  3  0  0  0  0  0  0
  184.5770  178.4060  143.9700 C   0  0  0  0  0  0  0  0  0  0  0  0
  190.8390  176.1110  146.5700 C   0  0  1  0  0  3  0  0  0  0  0  0
  185.0630  179.4500  144.6600 C   0  0  0  0  0  3  0  0  0  0  0  0
  185.1890  177.0460  144.1000 C   0  0  1  0  0  3  0  0  0  0  0  0
  188.0650  177.0860  146.2720 C   0  0  0  0  0  0  0  0  0  0  0  0
  186.6180  177.1720  146.7050 C   0  0  0  0  0  2  0  0  0  0  0  0
  192.1630  175.7800  147.0880 N   0  0  0  0  0  1  0  0  0  0  0  0
  189.7250  176.6570  144.4450 C   0  0  0  0  0  3  0  0  0  0  0  0
  186.1040  178.6170  146.8080 C   0  0  0  0  0  2  0  0  0  0  0  0
  187.3520  176.1740  144.1870 O   0  0  0  0  0  0  0  0  0  0  0  0
  190.2940  177.2230  147.3380 N   0  0  0  0  0  0  0  0  0  0  0  0
  188.3630  176.6310  145.0260 C   0  0  0  0  0  0  0  0  0  0  0  0
  185.4760  176.4620  142.8570 O   0  0  0  0  0  0  0  0  0  0  0  0
  189.0610  177.6370  147.2260 C   0  0  0  0  0  3  0  0  0  0  0  0
  186.2910  179.4110  145.5130 C   0  0  0  0  0  2  0  0  0  0  0  0
  182.4130  178.2870  140.7890 C   0  0  0  0  0  0  0  0  0  0  0  0
  182.3900  177.5380  139.7980 O   0  0  0  0  0  0  0  0  0  0  0  0
  183.3900  178.5890  143.1200 C   0  0  0  0  0  0  0  0  0  0  0  0
  183.3860  178.0320  141.7980 N   0  0  0  0  0  2  0  0  0  0  0  0
  182.3830  179.2110  143.5610 O   0  0  0  0  0  0  0  0  0  0  0  0
  181.4170  179.4080  140.9130 C   0  0  0  0  0  2  0  0  0  0  0  0
  177.8610  180.0740  140.4950 C   0  0  0  0  0  2  0  0  0  0  0  0
  180.0030  178.9680  140.5890 C   0  0  1  0  0  3  0  0  0  0  0  0
  179.2490  178.6510  141.8750 C   0  0  1  0  0  3  0  0  0  0  0  0
  179.2560  180.0980  139.9160 C   0  0  0  0  0  2  0  0  0  0  0  0
  178.0260  179.5530  141.9120 C   0  0  0  0  0  2  0  0  0  0  0  0
  178.3600  176.8250  143.1210 O   0  0  0  0  0  1  0  0  0  0  0  0
  178.8260  177.1950  141.8600 C   0  0  0  0  0  2  0  0  0  0  0  0
  192.1940  176.6840  144.3800 C   0  0  2  0  0  3  0  0  0  0  0  0
  191.9850  177.5160  143.1210 C   0  0  0  0  0  1  0  0  0  0  0  0
  192.7920  175.4640  144.0410 O   0  0  0  0  0  0  0  0  0  0  0  0
  194.1580  174.7770  142.1690 C   0  0  2  0  0  3  0  0  0  0  0  0
  195.3240  175.2260  145.3690 C   0  0  0  0  0  2  0  0  0  0  0  0
  193.9180  175.7930  143.2870 C   0  0  2  0  0  3  0  0  0  0  0  0
  196.7390  174.9290  144.9070 C   0  0  0  0  0  2  0  0  0  0  0  0
  194.1330  173.4870  142.6600 O   0  0  0  0  0  1  0  0  0  0  0  0
  195.4790  175.0590  141.4840 C   0  0  1  0  0  3  0  0  0  0  0  0
  195.1320  176.1430  144.1770 C   0  0  2  0  0  3  0  0  0  0  0  0
  196.6100  174.8390  142.4630 C   0  0  0  0  0  2  0  0  0  0  0  0
  196.5340  175.7820  143.6670 C   0  0  2  0  0  3  0  0  0  0  0  0
  195.6660  174.1940  140.3220 N   0  0  0  0  0  2  0  0  0  0  0  0
  194.4930  174.3380  139.4690 C   0  0  2  0  0  3  0  0  0  0  0  0
  193.8420  172.9820  139.2680 C   0  0  0  0  0  1  0  0  0  0  0  0
  196.4520  175.5500  136.4510 C   0  0  0  0  0  0  0  0  0  0  0  0
  194.8330  174.9870  138.1520 C   0  0  0  0  0  0  0  0  0  0  0  0
  196.1580  174.9940  137.6950 C   0  0  0  0  0  3  0  0  0  0  0  0
  194.1200  176.0340  136.1380 C   0  0  0  0  0  3  0  0  0  0  0  0
  193.8530  175.5070  137.3590 N   0  0  0  0  0  0  0  0  0  0  0  0
  195.4290  176.0650  135.6580 C   0  0  0  0  0  3  0  0  0  0  0  0
  197.8540  175.5930  135.9750 C   0  0  0  0  0  1  0  0  0  0  0  0
  1  4  1  0  0  0  0
  2 15  1  6  0  0  0
  2  6  1  0  0  0  0
  2 12  1  0  0  0  0
  3  6  1  0  0  0  0
  3  5  2  0  0  0  0
  4  9  1  1  0  0  0
  4 13  1  0  0  0  0
  5 17  1  0  0  0  0
  6 15  1  6  0  0  0
  7  8  1  0  0  0  0
  7 16  1  0  0  0  0
  8 11  1  0  0  0  0
 10 14  1  0  0  0  0
 10  1  2  0  0  0  0
 12 14  1  0  0  0  0
 14  7  2  0  0  0  0
 16 13  2  0  0  0  0
 17 11  1  0  0  0  0
 18 23  1  0  0  0  0
 18 21  1  0  0  0  0
 19 18  2  0  0  0  0
 20 22  2  0  0  0  0
 20  3  1  0  0  0  0
 21 20  1  0  0  0  0
 24 28  1  0  0  0  0
 25 23  1  1  0  0  0
 25 26  1  0  0  0  0
 26 30  1  6  0  0  0
 26 28  1  0  0  0  0
 27 24  1  0  0  0  0
 27 25  1  0  0  0  0
 30 29  1  0  0  0  0
 31 32  1  6  0  0  0
 31  1  1  0  0  0  0
 33 31  1  0  0  0  0
 34 38  1  1  0  0  0
 34 36  1  0  0  0  0
 36 33  1  1  0  0  0
 36 40  1  0  0  0  0
 37 35  1  0  0  0  0
 39 43  1  6  0  0  0
 39 34  1  0  0  0  0
 39 41  1  0  0  0  0
 40 35  1  1  0  0  0
 42 41  1  6  0  0  0
 42 40  1  0  0  0  0
 42 37  1  0  0  0  0
 44 45  1  6  0  0  0
 44 43  1  0  0  0  0
 46 48  1  0  0  0  0
 47 44  1  0  0  0  0
 48 47  2  0  0  0  0
 49 50  2  0  0  0  0
 50 47  1  0  0  0  0
 51 49  1  0  0  0  0
 51 46  2  0  0  0  0
 52 46  1  0  0  0  0
M  END
>  <MODEL>
3

>  <REMARK>
 VINA RESULT:      -8.5      2.364      3.288
  Name = 
  10 active torsions:
  status: ('A' for Active; 'I' for Inactive)
    1  A    between atoms: C_1  and  C_30
    2  A    between atoms: C_6  and  C_30
    3  A    between atoms: C_8  and  C_33
    4  A    between atoms: C_9  and  O_18
    5  A    between atoms: C_10  and  C_16
    6  A    between atoms: C_12  and  C_52
    7  A    between atoms: C_13  and  C_17
    8  A    between atoms: C_16  and  N_48
    9  A    between atoms: O_18  and  C_33
   10  A    between atoms: C_23  and  N_48
                            x       y       z     vdW  Elec       q    Type
                         _______ _______ _______ _____ _____    ______ ____

>  <TORSDO>
F 10

$$$$
=
 OpenBabel11042415583D

 52 58  0  0  1  0  0  0  0  0999 V2000
  190.1370  177.1890  146.2940 C   0  0  0  0  0  0  0  0  0  0  0  0
  193.0130  176.0390  142.8010 C   0  0  1  0  0  3  0  0  0  0  0  0
  194.7190  174.4260  142.2770 C   0  0  0  0  0  0  0  0  0  0  0  0
  190.9310  177.4410  147.5500 C   0  0  1  0  0  3  0  0  0  0  0  0
  194.4570  173.4200  143.1260 C   0  0  0  0  0  3  0  0  0  0  0  0
  194.4760  175.8500  142.6710 C   0  0  1  0  0  3  0  0  0  0  0  0
  193.0240  176.0870  145.9610 C   0  0  0  0  0  0  0  0  0  0  0  0
  194.4650  175.7550  145.6440 C   0  0  0  0  0  2  0  0  0  0  0  0
  190.0900  177.9280  148.6390 N   0  0  0  0  0  1  0  0  0  0  0  0
  190.7890  176.8850  145.1570 C   0  0  0  0  0  3  0  0  0  0  0  0
  194.7200  174.2460  145.5010 C   0  0  0  0  0  2  0  0  0  0  0  0
  192.7930  177.0260  143.7810 O   0  0  0  0  0  0  0  0  0  0  0  0
  191.5850  176.2080  147.9710 N   0  0  0  0  0  0  0  0  0  0  0  0
  192.2460  176.6670  145.0090 C   0  0  0  0  0  0  0  0  0  0  0  0
  193.7300  176.5550  141.7140 O   0  0  0  0  0  0  0  0  0  0  0  0
  192.5280  175.6240  147.2830 C   0  0  0  0  0  3  0  0  0  0  0  0
  193.8100  173.5820  144.4650 C   0  0  0  0  0  2  0  0  0  0  0  0
  196.8040  174.9870  139.0900 C   0  0  0  0  0  0  0  0  0  0  0  0
  197.8310  175.6420  138.8450 O   0  0  0  0  0  0  0  0  0  0  0  0
  195.3070  174.1280  140.9610 C   0  0  0  0  0  0  0  0  0  0  0  0
  196.2910  175.0200  140.4190 N   0  0  0  0  0  2  0  0  0  0  0  0
  194.9630  173.0880  140.3320 O   0  0  0  0  0  0  0  0  0  0  0  0
  196.1510  174.1710  138.0090 C   0  0  0  0  0  2  0  0  0  0  0  0
  192.9220  175.1620  136.6450 C   0  0  0  0  0  2  0  0  0  0  0  0
  195.2900  175.0110  137.0860 C   0  0  1  0  0  3  0  0  0  0  0  0
  194.9960  174.2400  135.8030 C   0  0  1  0  0  3  0  0  0  0  0  0
  193.9550  175.2870  137.7410 C   0  0  0  0  0  2  0  0  0  0  0  0
  193.4840  174.1300  135.6830 C   0  0  0  0  0  2  0  0  0  0  0  0
  196.8130  175.5250  134.9520 O   0  0  0  0  0  1  0  0  0  0  0  0
  195.5620  175.0030  134.6230 C   0  0  0  0  0  2  0  0  0  0  0  0
  188.6220  177.2310  146.2910 C   0  0  2  0  0  3  0  0  0  0  0  0
  188.0460  175.8340  146.0930 C   0  0  0  0  0  1  0  0  0  0  0  0
  188.1330  178.0850  145.2940 O   0  0  0  0  0  0  0  0  0  0  0  0
  188.0660  177.0860  143.0940 C   0  0  2  0  0  3  0  0  0  0  0  0
  185.6680  179.2050  144.3460 C   0  0  0  0  0  2  0  0  0  0  0  0
  187.3760  177.2790  144.4460 C   0  0  2  0  0  3  0  0  0  0  0  0
  184.8370  179.0220  143.0890 C   0  0  0  0  0  2  0  0  0  0  0  0
  188.4590  178.2980  142.5630 O   0  0  0  0  0  1  0  0  0  0  0  0
  187.1440  176.3610  142.1370 C   0  0  1  0  0  3  0  0  0  0  0  0
  185.8900  177.7060  144.4100 C   0  0  2  0  0  3  0  0  0  0  0  0
  185.9410  177.2280  141.8430 C   0  0  0  0  0  2  0  0  0  0  0  0
  185.1160  177.5300  143.0970 C   0  0  2  0  0  3  0  0  0  0  0  0
  187.8280  176.0370  140.8880 N   0  0  0  0  0  2  0  0  0  0  0  0
  188.3790  174.6940  141.0190 C   0  0  2  0  0  3  0  0  0  0  0  0
  189.4590  174.6900  142.0860 C   0  0  0  0  0  1  0  0  0  0  0  0
  190.4990  172.8550  138.4620 C   0  0  0  0  0  0  0  0  0  0  0  0
  188.8990  174.1690  139.7060 C   0  0  0  0  0  0  0  0  0  0  0  0
  190.0570  173.3790  139.6760 C   0  0  0  0  0  3  0  0  0  0  0  0
  188.6230  173.8740  137.3620 C   0  0  0  0  0  3  0  0  0  0  0  0
  188.2160  174.3930  138.5470 N   0  0  0  0  0  0  0  0  0  0  0  0
  189.7760  173.0920  137.2960 C   0  0  0  0  0  3  0  0  0  0  0  0
  191.7390  172.0480  138.4160 C   0  0  0  0  0  1  0  0  0  0  0  0
  1  4  1  0  0  0  0
  2 15  1  6  0  0  0
  2 12  1  0  0  0  0
  3  6  1  0  0  0  0
  3  5  2  0  0  0  0
  4 13  1  0  0  0  0
  4  9  1  1  0  0  0
  5 17  1  0  0  0  0
  6 15  1  6  0  0  0
  6  2  1  0  0  0  0
  7 16  1  0  0  0  0
  8  7  1  0  0  0  0
 10  1  2  0  0  0  0
 11  8  1  0  0  0  0
 12 14  1  0  0  0  0
 14 10  1  0  0  0  0
 14  7  2  0  0  0  0
 16 13  2  0  0  0  0
 17 11  1  0  0  0  0
 18 21  1  0  0  0  0
 19 18  2  0  0  0  0
 20  3  1  0  0  0  0
 21 20  1  0  0  0  0
 22 20  2  0  0  0  0
 23 18  1  0  0  0  0
 24 27  1  0  0  0  0
 25 27  1  0  0  0  0
 25 23  1  1  0  0  0
 26 30  1  6  0  0  0
 26 25  1  0  0  0  0
 28 26  1  0  0  0  0
 28 24  1  0  0  0  0
 30 29  1  0  0  0  0
 31 32  1  6  0  0  0
 31  1  1  0  0  0  0
 33 31  1  0  0  0  0
 34 38  1  6  0  0  0
 34 36  1  0  0  0  0
 36 33  1  1  0  0  0
 37 42  1  0  0  0  0
 37 35  1  0  0  0  0
 39 43  1  6  0  0  0
 39 34  1  0  0  0  0
 40 35  1  6  0  0  0
 40 36  1  0  0  0  0
 41 39  1  0  0  0  0
 42 41  1  6  0  0  0
 42 40  1  0  0  0  0
 43 44  1  0  0  0  0
 44 45  1  1  0  0  0
 46 48  1  0  0  0  0
 47 44  1  0  0  0  0
 48 47  2  0  0  0  0
 49 50  2  0  0  0  0
 50 47  1  0  0  0  0
 51 49  1  0  0  0  0
 51 46  2  0  0  0  0
 52 46  1  0  0  0  0
M  END
>  <MODEL>
4

>  <REMARK>
 VINA RESULT:      -8.3      3.499      9.880
  Name = 
  10 active torsions:
  status: ('A' for Active; 'I' for Inactive)
    1  A    between atoms: C_1  and  C_30
    2  A    between atoms: C_6  and  C_30
    3  A    between atoms: C_8  and  C_33
    4  A    between atoms: C_9  and  O_18
    5  A    between atoms: C_10  and  C_16
    6  A    between atoms: C_12  and  C_52
    7  A    between atoms: C_13  and  C_17
    8  A    between atoms: C_16  and  N_48
    9  A    between atoms: O_18  and  C_33
   10  A    between atoms: C_23  and  N_48
                            x       y       z     vdW  Elec       q    Type
                         _______ _______ _______ _____ _____    ______ ____

>  <TORSDO>
F 10

$$$$
=
 OpenBabel11042415583D

 52 58  0  0  1  0  0  0  0  0999 V2000
  190.7410  176.6970  145.1670 C   0  0  0  0  0  0  0  0  0  0  0  0
  186.4090  177.2740  143.5270 C   0  0  1  0  0  3  0  0  0  0  0  0
  184.3750  178.4370  144.0710 C   0  0  0  0  0  0  0  0  0  0  0  0
  190.6890  176.1910  146.5860 C   0  0  1  0  0  3  0  0  0  0  0  0
  184.7970  179.4300  144.8680 C   0  0  0  0  0  3  0  0  0  0  0  0
  185.0490  177.1000  144.0840 C   0  0  1  0  0  3  0  0  0  0  0  0
  187.8770  177.0620  146.3170 C   0  0  0  0  0  0  0  0  0  0  0  0
  186.4200  177.0400  146.7220 C   0  0  0  0  0  2  0  0  0  0  0  0
  192.0170  175.8720  147.1010 N   0  0  0  0  0  1  0  0  0  0  0  0
  189.5910  176.8880  144.4970 C   0  0  0  0  0  3  0  0  0  0  0  0
  185.8350  178.4420  146.9500 C   0  0  0  0  0  2  0  0  0  0  0  0
  187.2490  176.3240  144.1370 O   0  0  0  0  0  0  0  0  0  0  0  0
  190.0770  177.1980  147.4430 N   0  0  0  0  0  0  0  0  0  0  0  0
  188.2210  176.7440  145.0410 C   0  0  0  0  0  0  0  0  0  0  0  0
  185.3870  176.6530  142.7970 O   0  0  0  0  0  0  0  0  0  0  0  0
  188.8280  177.5630  147.3430 C   0  0  0  0  0  3  0  0  0  0  0  0
  186.0080  179.3660  145.7420 C   0  0  0  0  0  2  0  0  0  0  0  0
  182.2160  178.3420  140.8850 C   0  0  0  0  0  0  0  0  0  0  0  0
  182.1710  177.5790  139.9050 O   0  0  0  0  0  0  0  0  0  0  0  0
  183.1970  178.6470  143.2140 C   0  0  0  0  0  0  0  0  0  0  0  0
  183.1780  178.0700  141.9010 N   0  0  0  0  0  2  0  0  0  0  0  0
  182.2100  179.3090  143.6420 O   0  0  0  0  0  0  0  0  0  0  0  0
  181.2590  179.4970  140.9880 C   0  0  0  0  0  2  0  0  0  0  0  0
  177.8930  180.4420  139.9630 C   0  0  0  0  0  2  0  0  0  0  0  0
  179.8860  179.1660  140.4390 C   0  0  1  0  0  3  0  0  0  0  0  0
  178.9030  178.9550  141.5850 C   0  0  1  0  0  3  0  0  0  0  0  0
  179.3620  180.3300  139.6270 C   0  0  0  0  0  2  0  0  0  0  0  0
  177.7740  179.9570  141.3970 C   0  0  0  0  0  2  0  0  0  0  0  0
  178.5310  176.9190  142.7640 O   0  0  0  0  0  1  0  0  0  0  0  0
  178.3630  177.5410  141.5270 C   0  0  0  0  0  2  0  0  0  0  0  0
  192.0560  177.0350  144.4930 C   0  0  2  0  0  3  0  0  0  0  0  0
  191.8690  178.1560  143.4790 C   0  0  0  0  0  1  0  0  0  0  0  0
  192.6100  175.9160  143.8580 O   0  0  0  0  0  0  0  0  0  0  0  0
  194.0650  175.7580  141.9340 C   0  0  2  0  0  3  0  0  0  0  0  0
  194.9810  174.9370  145.1420 C   0  0  0  0  0  2  0  0  0  0  0  0
  193.8230  176.3480  143.3240 C   0  0  2  0  0  3  0  0  0  0  0  0
  196.3970  174.6510  144.6750 C   0  0  0  0  0  2  0  0  0  0  0  0
  193.8750  174.3900  141.9380 O   0  0  0  0  0  1  0  0  0  0  0  0
  195.4620  176.0980  141.4590 C   0  0  1  0  0  3  0  0  0  0  0  0
  194.9820  176.2240  144.3400 C   0  0  2  0  0  3  0  0  0  0  0  0
  196.4760  175.4230  142.3530 C   0  0  0  0  0  2  0  0  0  0  0  0
  196.3830  175.8960  143.8060 C   0  0  2  0  0  3  0  0  0  0  0  0
  195.6680  175.6700  140.0770 N   0  0  0  0  0  2  0  0  0  0  0  0
  196.9050  174.9000  140.0320 C   0  0  2  0  0  3  0  0  0  0  0  0
  197.9410  175.6520  139.2160 C   0  0  0  0  0  1  0  0  0  0  0  0
  195.1890  171.7860  138.7010 C   0  0  0  0  0  0  0  0  0  0  0  0
  196.6820  173.5100  139.4950 C   0  0  0  0  0  0  0  0  0  0  0  0
  195.3800  173.0550  139.2470 C   0  0  0  0  0  3  0  0  0  0  0  0
  197.5700  171.4810  138.6260 C   0  0  0  0  0  3  0  0  0  0  0  0
  197.7390  172.7090  139.1760 N   0  0  0  0  0  0  0  0  0  0  0  0
  196.2870  170.9950  138.3750 C   0  0  0  0  0  3  0  0  0  0  0  0
  193.8160  171.2840  138.4670 C   0  0  0  0  0  1  0  0  0  0  0  0
  1  4  1  0  0  0  0
  2 15  1  6  0  0  0
  2  6  1  0  0  0  0
  2 12  1  0  0  0  0
  3  6  1  0  0  0  0
  3  5  2  0  0  0  0
  4  9  1  1  0  0  0
  4 13  1  0  0  0  0
  5 17  1  0  0  0  0
  6 15  1  6  0  0  0
  7  8  1  0  0  0  0
  7 16  1  0  0  0  0
  8 11  1  0  0  0  0
 10 14  1  0  0  0  0
 10  1  2  0  0  0  0
 12 14  1  0  0  0  0
 14  7  2  0  0  0  0
 16 13  2  0  0  0  0
 17 11  1  0  0  0  0
 18 23  1  0  0  0  0
 18 21  1  0  0  0  0
 19 18  2  0  0  0  0
 20 22  2  0  0  0  0
 20  3  1  0  0  0  0
 21 20  1  0  0  0  0
 24 28  1  0  0  0  0
 25 23  1  1  0  0  0
 25 26  1  0  0  0  0
 26 30  1  6  0  0  0
 27 24  1  0  0  0  0
 27 25  1  0  0  0  0
 28 26  1  0  0  0  0
 30 29  1  0  0  0  0
 31 32  1  6  0  0  0
 31  1  1  0  0  0  0
 33 31  1  0  0  0  0
 34 38  1  1  0  0  0
 34 36  1  0  0  0  0
 36 33  1  1  0  0  0
 36 40  1  0  0  0  0
 37 35  1  0  0  0  0
 39 43  1  6  0  0  0
 39 34  1  0  0  0  0
 39 41  1  0  0  0  0
 40 35  1  1  0  0  0
 42 41  1  6  0  0  0
 42 40  1  0  0  0  0
 42 37  1  0  0  0  0
 44 45  1  6  0  0  0
 44 43  1  0  0  0  0
 46 48  1  0  0  0  0
 47 44  1  0  0  0  0
 48 47  2  0  0  0  0
 49 50  2  0  0  0  0
 50 47  1  0  0  0  0
 51 49  1  0  0  0  0
 51 46  2  0  0  0  0
 52 46  1  0  0  0  0
M  END
>  <MODEL>
5

>  <REMARK>
 VINA RESULT:      -8.3      2.569      3.528
  Name = 
  10 active torsions:
  status: ('A' for Active; 'I' for Inactive)
    1  A    between atoms: C_1  and  C_30
    2  A    between atoms: C_6  and  C_30
    3  A    between atoms: C_8  and  C_33
    4  A    between atoms: C_9  and  O_18
    5  A    between atoms: C_10  and  C_16
    6  A    between atoms: C_12  and  C_52
    7  A    between atoms: C_13  and  C_17
    8  A    between atoms: C_16  and  N_48
    9  A    between atoms: O_18  and  C_33
   10  A    between atoms: C_23  and  N_48
                            x       y       z     vdW  Elec       q    Type
                         _______ _______ _______ _____ _____    ______ ____

>  <TORSDO>
F 10

$$$$
=
 OpenBabel11042415583D

 52 58  0  0  1  0  0  0  0  0999 V2000
  191.1330  176.5710  145.8910 C   0  0  0  0  0  0  0  0  0  0  0  0
  193.8100  175.9300  142.1220 C   0  0  1  0  0  3  0  0  0  0  0  0
  195.3200  174.3040  141.1910 C   0  0  0  0  0  0  0  0  0  0  0  0
  191.9690  176.4550  147.1400 C   0  0  1  0  0  3  0  0  0  0  0  0
  194.9620  173.1680  141.8110 C   0  0  0  0  0  3  0  0  0  0  0  0
  195.2410  175.6230  141.8960 C   0  0  1  0  0  3  0  0  0  0  0  0
  193.8750  175.2760  145.2130 C   0  0  0  0  0  0  0  0  0  0  0  0
  195.2660  174.8750  144.7740 C   0  0  0  0  0  2  0  0  0  0  0  0
  191.2040  176.7750  148.3410 N   0  0  0  0  0  1  0  0  0  0  0  0
  191.7290  176.4600  144.6910 C   0  0  0  0  0  3  0  0  0  0  0  0
  195.3510  173.4170  144.2960 C   0  0  0  0  0  2  0  0  0  0  0  0
  193.7150  176.6920  143.3010 O   0  0  0  0  0  0  0  0  0  0  0  0
  192.4900  175.0990  147.2560 N   0  0  0  0  0  0  0  0  0  0  0  0
  193.1510  176.1300  144.4410 C   0  0  0  0  0  0  0  0  0  0  0  0
  194.5630  176.5960  141.1460 O   0  0  0  0  0  0  0  0  0  0  0  0
  193.3520  174.5870  146.4210 C   0  0  0  0  0  3  0  0  0  0  0  0
  194.3580  173.0960  143.1770 C   0  0  0  0  0  2  0  0  0  0  0  0
  196.4340  172.7280  137.8600 C   0  0  0  0  0  0  0  0  0  0  0  0
  196.0800  171.7160  137.2320 O   0  0  0  0  0  0  0  0  0  0  0  0
  195.8510  174.2450  139.8200 C   0  0  0  0  0  0  0  0  0  0  0  0
  195.7910  173.0050  139.1020 N   0  0  0  0  0  2  0  0  0  0  0  0
  196.3340  175.2800  139.2820 O   0  0  0  0  0  0  0  0  0  0  0  0
  197.4940  173.6360  137.2970 C   0  0  0  0  0  2  0  0  0  0  0  0
  196.9880  176.4810  135.0800 C   0  0  0  0  0  2  0  0  0  0  0  0
  197.0950  174.2390  135.9650 C   0  0  1  0  0  3  0  0  0  0  0  0
  195.6420  174.6990  136.0160 C   0  0  1  0  0  3  0  0  0  0  0  0
  197.9300  175.4690  135.6880 C   0  0  0  0  0  2  0  0  0  0  0  0
  195.6330  176.1870  135.7010 C   0  0  0  0  0  2  0  0  0  0  0  0
  193.6420  173.4980  135.5380 O   0  0  0  0  0  1  0  0  0  0  0  0
  194.8410  173.9390  134.9790 C   0  0  0  0  0  2  0  0  0  0  0  0
  189.6310  176.7700  145.9570 C   0  0  2  0  0  3  0  0  0  0  0  0
  188.9120  175.4270  145.9860 C   0  0  0  0  0  1  0  0  0  0  0  0
  189.1650  177.5280  144.8760 O   0  0  0  0  0  0  0  0  0  0  0  0
  188.8330  176.3970  142.7650 C   0  0  2  0  0  3  0  0  0  0  0  0
  186.6260  178.6410  144.1410 C   0  0  0  0  0  2  0  0  0  0  0  0
  188.3040  176.6880  144.1710 C   0  0  2  0  0  3  0  0  0  0  0  0
  185.6540  178.4010  143.0000 C   0  0  0  0  0  2  0  0  0  0  0  0
  189.1810  177.5660  142.1170 O   0  0  0  0  0  1  0  0  0  0  0  0
  187.7980  175.6350  141.9660 C   0  0  1  0  0  3  0  0  0  0  0  0
  186.8310  177.1450  144.2750 C   0  0  2  0  0  3  0  0  0  0  0  0
  186.5830  176.5090  141.7550 C   0  0  0  0  0  2  0  0  0  0  0  0
  185.9100  176.9060  143.0710 C   0  0  2  0  0  3  0  0  0  0  0  0
  188.3310  175.2200  140.6700 N   0  0  0  0  0  2  0  0  0  0  0  0
  188.3550  173.7630  140.6470 C   0  0  2  0  0  3  0  0  0  0  0  0
  187.8630  173.2260  141.9790 C   0  0  0  0  0  1  0  0  0  0  0  0
  191.5280  171.6810  140.7260 C   0  0  0  0  0  0  0  0  0  0  0  0
  189.7230  173.2290  140.3090 C   0  0  0  0  0  0  0  0  0  0  0  0
  190.2850  172.2020  141.0800 C   0  0  0  0  0  3  0  0  0  0  0  0
  191.5970  173.1720  138.8450 C   0  0  0  0  0  3  0  0  0  0  0  0
  190.3960  173.6840  139.2140 N   0  0  0  0  0  0  0  0  0  0  0  0
  192.1880  172.1570  139.5960 C   0  0  0  0  0  3  0  0  0  0  0  0
  192.1450  170.6190  141.5540 C   0  0  0  0  0  1  0  0  0  0  0  0
  1 31  1  0  0  0  0
  1  4  1  0  0  0  0
  2 15  1  6  0  0  0
  2 12  1  0  0  0  0
  3  5  2  0  0  0  0
  3  6  1  0  0  0  0
  4 13  1  0  0  0  0
  4  9  1  1  0  0  0
  5 17  1  0  0  0  0
  6 15  1  6  0  0  0
  6  2  1  0  0  0  0
  7 16  1  0  0  0  0
  8  7  1  0  0  0  0
 10  1  2  0  0  0  0
 11  8  1  0  0  0  0
 12 14  1  0  0  0  0
 14 10  1  0  0  0  0
 14  7  2  0  0  0  0
 16 13  2  0  0  0  0
 17 11  1  0  0  0  0
 18 21  1  0  0  0  0
 19 18  2  0  0  0  0
 20  3  1  0  0  0  0
 21 20  1  0  0  0  0
 22 20  2  0  0  0  0
 23 18  1  0  0  0  0
 24 27  1  0  0  0  0
 24 28  1  0  0  0  0
 25 26  1  0  0  0  0
 25 23  1  1  0  0  0
 26 30  1  6  0  0  0
 27 25  1  0  0  0  0
 28 26  1  0  0  0  0
 30 29  1  0  0  0  0
 31 32  1  6  0  0  0
 33 31  1  0  0  0  0
 34 38  1  6  0  0  0
 34 36  1  0  0  0  0
 36 40  1  0  0  0  0
 36 33  1  6  0  0  0
 37 42  1  0  0  0  0
 37 35  1  0  0  0  0
 39 43  1  6  0  0  0
 39 34  1  0  0  0  0
 40 35  1  6  0  0  0
 41 39  1  0  0  0  0
 42 41  1  6  0  0  0
 42 40  1  0  0  0  0
 44 43  1  0  0  0  0
 44 45  1  1  0  0  0
 46 48  1  0  0  0  0
 46 52  1  0  0  0  0
 47 44  1  0  0  0  0
 47 48  2  0  0  0  0
 49 50  2  0  0  0  0
 49 51  1  0  0  0  0
 50 47  1  0  0  0  0
 51 46  2  0  0  0  0
M  END
>  <MODEL>
6

>  <REMARK>
 VINA RESULT:      -8.3      3.870     10.331
  Name = 
  10 active torsions:
  status: ('A' for Active; 'I' for Inactive)
    1  A    between atoms: C_1  and  C_30
    2  A    between atoms: C_6  and  C_30
    3  A    between atoms: C_8  and  C_33
    4  A    between atoms: C_9  and  O_18
    5  A    between atoms: C_10  and  C_16
    6  A    between atoms: C_12  and  C_52
    7  A    between atoms: C_13  and  C_17
    8  A    between atoms: C_16  and  N_48
    9  A    between atoms: O_18  and  C_33
   10  A    between atoms: C_23  and  N_48
                            x       y       z     vdW  Elec       q    Type
                         _______ _______ _______ _____ _____    ______ ____

>  <TORSDO>
F 10

$$$$
=
 OpenBabel11042415583D

 52 58  0  0  1  0  0  0  0  0999 V2000
  193.6330  170.1060  141.9260 C   0  0  0  0  0  0  0  0  0  0  0  0
  190.4690  173.4660  142.6250 C   0  0  1  0  0  3  0  0  0  0  0  0
  188.6330  174.5300  141.4910 C   0  0  0  0  0  0  0  0  0  0  0  0
  194.4170  170.3920  140.6710 C   0  0  1  0  0  3  0  0  0  0  0  0
  188.2730  173.6180  140.5750 C   0  0  0  0  0  3  0  0  0  0  0  0
  190.0660  174.6900  141.8970 C   0  0  1  0  0  3  0  0  0  0  0  0
  192.1870  172.2860  140.2490 C   0  0  0  0  0  0  0  0  0  0  0  0
  191.5680  173.5120  139.6160 C   0  0  0  0  0  2  0  0  0  0  0  0
  195.5050  169.4390  140.4770 N   0  0  0  0  0  1  0  0  0  0  0  0
  192.6960  170.9830  142.3280 C   0  0  0  0  0  3  0  0  0  0  0  0
  190.1970  173.2360  138.9800 C   0  0  0  0  0  2  0  0  0  0  0  0
  191.8430  173.2630  142.3980 O   0  0  0  0  0  0  0  0  0  0  0  0
  193.5300  170.3410  139.5170 N   0  0  0  0  0  0  0  0  0  0  0  0
  192.2600  172.1990  141.6040 C   0  0  0  0  0  0  0  0  0  0  0  0
  190.2380  174.6770  143.2890 O   0  0  0  0  0  0  0  0  0  0  0  0
  192.5610  171.1930  139.3160 C   0  0  0  0  0  3  0  0  0  0  0  0
  189.1970  172.6160  139.9590 C   0  0  0  0  0  2  0  0  0  0  0  0
  186.9110  177.8440  142.4240 C   0  0  0  0  0  0  0  0  0  0  0  0
  186.8930  178.9740  141.9070 O   0  0  0  0  0  0  0  0  0  0  0  0
  187.6140  175.4240  142.0630 C   0  0  0  0  0  0  0  0  0  0  0  0
  187.6890  176.8310  141.7930 N   0  0  0  0  0  2  0  0  0  0  0  0
  186.6760  174.9510  142.7640 O   0  0  0  0  0  0  0  0  0  0  0  0
  186.1090  177.5680  143.6670 C   0  0  0  0  0  2  0  0  0  0  0  0
  188.5880  177.1090  146.2960 C   0  0  0  0  0  2  0  0  0  0  0  0
  186.8190  178.0170  144.9290 C   0  0  1  0  0  3  0  0  0  0  0  0
  186.1840  177.3540  146.1460 C   0  0  1  0  0  3  0  0  0  0  0  0
  188.2620  177.5670  144.8930 C   0  0  0  0  0  2  0  0  0  0  0  0
  187.2810  176.5730  146.8540 C   0  0  0  0  0  2  0  0  0  0  0  0
  186.4030  178.5050  148.2200 O   0  0  0  0  0  1  0  0  0  0  0  0
  185.6270  178.4230  147.0640 C   0  0  0  0  0  2  0  0  0  0  0  0
  193.8480  168.8340  142.7220 C   0  0  2  0  0  3  0  0  0  0  0  0
  192.8060  168.7080  143.8270 C   0  0  0  0  0  1  0  0  0  0  0  0
  195.1310  168.7880  143.2810 O   0  0  0  0  0  0  0  0  0  0  0  0
  195.8340  171.0200  143.8870 C   0  0  2  0  0  3  0  0  0  0  0  0
  196.7370  168.1670  145.5760 C   0  0  0  0  0  2  0  0  0  0  0  0
  195.1290  169.7300  144.3090 C   0  0  2  0  0  3  0  0  0  0  0  0
  197.4750  169.0000  146.6080 C   0  0  0  0  0  2  0  0  0  0  0  0
  197.0710  170.7490  143.3370 O   0  0  0  0  0  1  0  0  0  0  0  0
  195.9730  171.9500  145.0740 C   0  0  1  0  0  3  0  0  0  0  0  0
  195.5580  169.1160  145.6620 C   0  0  2  0  0  3  0  0  0  0  0  0
  196.8860  171.3210  146.1010 C   0  0  0  0  0  2  0  0  0  0  0  0
  196.3340  170.0010  146.6460 C   0  0  2  0  0  3  0  0  0  0  0  0
  196.5130  173.2450  144.6690 N   0  0  0  0  0  2  0  0  0  0  0  0
  195.4490  174.2320  144.8050 C   0  0  2  0  0  3  0  0  0  0  0  0
  194.2990  173.6320  145.5950 C   0  0  0  0  0  1  0  0  0  0  0  0
  195.0200  174.6380  141.0550 C   0  0  0  0  0  0  0  0  0  0  0  0
  194.9880  174.7500  143.4670 C   0  0  0  0  0  0  0  0  0  0  0  0
  195.4920  174.1870  142.2870 C   0  0  0  0  0  3  0  0  0  0  0  0
  193.5440  176.1490  142.1980 C   0  0  0  0  0  3  0  0  0  0  0  0
  194.0280  175.7140  143.3880 N   0  0  0  0  0  0  0  0  0  0  0  0
  194.0310  175.6170  141.0050 C   0  0  0  0  0  3  0  0  0  0  0  0
  195.5710  174.0730  139.8020 C   0  0  0  0  0  1  0  0  0  0  0  0
  1 10  2  0  0  0  0
  1 31  1  0  0  0  0
  2 12  1  6  0  0  0
  2 15  1  0  0  0  0
  3 20  1  0  0  0  0
  4  9  1  6  0  0  0
  4  1  1  0  0  0  0
  5  3  2  0  0  0  0
  6  3  1  1  0  0  0
  6  2  1  0  0  0  0
  6 15  1  0  0  0  0
  7 14  2  0  0  0  0
  8  7  1  0  0  0  0
 11  8  1  0  0  0  0
 11 17  1  0  0  0  0
 13  4  1  0  0  0  0
 14 10  1  0  0  0  0
 14 12  1  0  0  0  0
 16 13  2  0  0  0  0
 16  7  1  0  0  0  0
 17  5  1  0  0  0  0
 18 23  1  0  0  0  0
 19 18  2  0  0  0  0
 20 22  2  0  0  0  0
 21 20  1  0  0  0  0
 21 18  1  0  0  0  0
 24 28  1  0  0  0  0
 25 23  1  6  0  0  0
 25 26  1  0  0  0  0
 26 28  1  0  0  0  0
 26 30  1  1  0  0  0
 27 25  1  0  0  0  0
 27 24  1  0  0  0  0
 30 29  1  0  0  0  0
 31 33  1  0  0  0  0
 31 32  1  1  0  0  0
 34 38  1  1  0  0  0
 34 36  1  0  0  0  0
 34 39  1  0  0  0  0
 35 37  1  0  0  0  0
 36 33  1  6  0  0  0
 36 40  1  0  0  0  0
 37 42  1  0  0  0  0
 39 43  1  6  0  0  0
 39 41  1  0  0  0  0
 40 35  1  6  0  0  0
 40 42  1  0  0  0  0
 42 41  1  6  0  0  0
 43 44  1  0  0  0  0
 44 45  1  6  0  0  0
 46 48  1  0  0  0  0
 47 44  1  0  0  0  0
 48 47  2  0  0  0  0
 49 50  2  0  0  0  0
 50 47  1  0  0  0  0
 51 46  2  0  0  0  0
 51 49  1  0  0  0  0
 52 46  1  0  0  0  0
M  END
>  <MODEL>
7

>  <REMARK>
 VINA RESULT:      -8.2      3.924      7.740
  Name = 
  10 active torsions:
  status: ('A' for Active; 'I' for Inactive)
    1  A    between atoms: C_1  and  C_30
    2  A    between atoms: C_6  and  C_30
    3  A    between atoms: C_8  and  C_33
    4  A    between atoms: C_9  and  O_18
    5  A    between atoms: C_10  and  C_16
    6  A    between atoms: C_12  and  C_52
    7  A    between atoms: C_13  and  C_17
    8  A    between atoms: C_16  and  N_48
    9  A    between atoms: O_18  and  C_33
   10  A    between atoms: C_23  and  N_48
                            x       y       z     vdW  Elec       q    Type
                         _______ _______ _______ _____ _____    ______ ____

>  <TORSDO>
F 10

$$$$
=
 OpenBabel11042415583D

 52 58  0  0  1  0  0  0  0  0999 V2000
  191.0190  176.0800  146.4650 C   0  0  0  0  0  0  0  0  0  0  0  0
  192.1890  174.4020  142.2690 C   0  0  1  0  0  3  0  0  0  0  0  0
  193.9010  173.0670  141.2330 C   0  0  0  0  0  0  0  0  0  0  0  0
  192.1590  176.8860  147.0310 C   0  0  1  0  0  3  0  0  0  0  0  0
  194.4120  172.3750  142.2630 C   0  0  0  0  0  3  0  0  0  0  0  0
  193.3980  174.4650  141.4190 C   0  0  1  0  0  3  0  0  0  0  0  0
  193.6190  175.5080  144.8610 C   0  0  0  0  0  0  0  0  0  0  0  0
  194.7740  175.3740  143.8940 C   0  0  0  0  0  2  0  0  0  0  0  0
  191.7970  177.5390  148.2850 N   0  0  0  0  0  1  0  0  0  0  0  0
  191.1420  175.5430  145.2380 C   0  0  0  0  0  3  0  0  0  0  0  0
  195.4290  173.9850  143.9250 C   0  0  0  0  0  2  0  0  0  0  0  0
  192.1190  175.5970  143.0080 O   0  0  0  0  0  0  0  0  0  0  0  0
  193.3070  176.0180  147.2630 N   0  0  0  0  0  0  0  0  0  0  0  0
  192.3490  175.5730  144.3800 C   0  0  0  0  0  0  0  0  0  0  0  0
  192.1110  174.6500  140.8930 O   0  0  0  0  0  0  0  0  0  0  0  0
  193.9680  175.4300  146.3030 C   0  0  0  0  0  3  0  0  0  0  0  0
  194.4340  172.8480  143.6810 C   0  0  0  0  0  2  0  0  0  0  0  0
  192.6650  172.3320  137.6620 C   0  0  0  0  0  0  0  0  0  0  0  0
  192.0250  172.9910  136.8260 O   0  0  0  0  0  0  0  0  0  0  0  0
  193.8880  172.4640  139.8900 C   0  0  0  0  0  0  0  0  0  0  0  0
  192.9410  172.9360  138.9220 N   0  0  0  0  0  2  0  0  0  0  0  0
  194.7170  171.5580  139.5940 O   0  0  0  0  0  0  0  0  0  0  0  0
  193.1480  170.9480  137.3240 C   0  0  0  0  0  2  0  0  0  0  0  0
  189.6910  169.8040  137.2200 C   0  0  0  0  0  2  0  0  0  0  0  0
  192.0820  169.8920  137.5390 C   0  0  1  0  0  3  0  0  0  0  0  0
  191.4150  170.0930  138.8950 C   0  0  1  0  0  3  0  0  0  0  0  0
  190.9960  170.0400  136.4960 C   0  0  0  0  0  2  0  0  0  0  0  0
  189.9290  170.2910  138.6390 C   0  0  0  0  0  2  0  0  0  0  0  0
  190.8190  168.9120  140.8760 O   0  0  0  0  0  1  0  0  0  0  0  0
  191.6400  168.8630  139.7500 C   0  0  0  0  0  2  0  0  0  0  0  0
  189.7550  175.8240  147.2630 C   0  0  2  0  0  3  0  0  0  0  0  0
  189.0580  174.5600  146.7760 C   0  0  0  0  0  1  0  0  0  0  0  0
  188.8710  176.9080  147.1840 O   0  0  0  0  0  0  0  0  0  0  0  0
  187.7740  176.8740  145.0300 C   0  0  2  0  0  3  0  0  0  0  0  0
  186.3430  178.0420  147.9270 C   0  0  0  0  0  2  0  0  0  0  0  0
  187.7560  176.4330  146.4950 C   0  0  2  0  0  3  0  0  0  0  0  0
  185.0370  178.2910  147.1930 C   0  0  0  0  0  2  0  0  0  0  0  0
  188.0000  178.2320  144.9260 O   0  0  0  0  0  1  0  0  0  0  0  0
  186.4710  176.4990  144.3560 C   0  0  1  0  0  3  0  0  0  0  0  0
  186.4430  176.6770  147.2750 C   0  0  2  0  0  3  0  0  0  0  0  0
  185.3380  177.2760  144.9860 C   0  0  0  0  0  2  0  0  0  0  0  0
  185.1650  176.9600  146.4730 C   0  0  2  0  0  3  0  0  0  0  0  0
  186.5180  176.7790  142.9230 N   0  0  0  0  0  2  0  0  0  0  0  0
  187.9150  176.7420  142.5100 C   0  0  2  0  0  3  0  0  0  0  0  0
  188.2030  177.9150  141.5900 C   0  0  0  0  0  1  0  0  0  0  0  0
  188.9020  173.1060  142.0420 C   0  0  0  0  0  0  0  0  0  0  0  0
  188.2730  175.4300  141.8600 C   0  0  0  0  0  0  0  0  0  0  0  0
  188.6230  174.3280  142.6520 C   0  0  0  0  0  3  0  0  0  0  0  0
  188.4410  174.0920  139.9010 C   0  0  0  0  0  3  0  0  0  0  0  0
  188.1920  175.2790  140.5070 N   0  0  0  0  0  0  0  0  0  0  0  0
  188.8010  172.9780  140.6590 C   0  0  0  0  0  3  0  0  0  0  0  0
  189.3050  171.9450  142.8680 C   0  0  0  0  0  1  0  0  0  0  0  0
  1  4  1  0  0  0  0
  1 31  1  0  0  0  0
  2 15  1  6  0  0  0
  2 12  1  0  0  0  0
  3  6  1  0  0  0  0
  3  5  2  0  0  0  0
  4 13  1  0  0  0  0
  4  9  1  1  0  0  0
  5 17  1  0  0  0  0
  6 15  1  6  0  0  0
  6  2  1  0  0  0  0
  7 16  1  0  0  0  0
  8 11  1  0  0  0  0
  8  7  1  0  0  0  0
 10  1  2  0  0  0  0
 12 14  1  0  0  0  0
 14  7  2  0  0  0  0
 14 10  1  0  0  0  0
 16 13  2  0  0  0  0
 17 11  1  0  0  0  0
 18 21  1  0  0  0  0
 19 18  2  0  0  0  0
 20  3  1  0  0  0  0
 21 20  1  0  0  0  0
 22 20  2  0  0  0  0
 23 18  1  0  0  0  0
 24 28  1  0  0  0  0
 25 23  1  6  0  0  0
 25 26  1  0  0  0  0
 26 30  1  1  0  0  0
 27 24  1  0  0  0  0
 27 25  1  0  0  0  0
 28 26  1  0  0  0  0
 30 29  1  0  0  0  0
 31 32  1  6  0  0  0
 33 31  1  0  0  0  0
 34 38  1  1  0  0  0
 34 36  1  0  0  0  0
 36 33  1  1  0  0  0
 36 40  1  0  0  0  0
 37 35  1  0  0  0  0
 39 43  1  6  0  0  0
 39 41  1  0  0  0  0
 39 34  1  0  0  0  0
 40 35  1  1  0  0  0
 42 41  1  6  0  0  0
 42 37  1  0  0  0  0
 42 40  1  0  0  0  0
 44 45  1  6  0  0  0
 44 43  1  0  0  0  0
 46 48  1  0  0  0  0
 46 52  1  0  0  0  0
 47 44  1  0  0  0  0
 47 48  2  0  0  0  0
 49 50  2  0  0  0  0
 49 51  1  0  0  0  0
 50 47  1  0  0  0  0
 51 46  2  0  0  0  0
M  END
>  <MODEL>
8

>  <REMARK>
 VINA RESULT:      -8.2      3.901      9.414
  Name = 
  10 active torsions:
  status: ('A' for Active; 'I' for Inactive)
    1  A    between atoms: C_1  and  C_30
    2  A    between atoms: C_6  and  C_30
    3  A    between atoms: C_8  and  C_33
    4  A    between atoms: C_9  and  O_18
    5  A    between atoms: C_10  and  C_16
    6  A    between atoms: C_12  and  C_52
    7  A    between atoms: C_13  and  C_17
    8  A    between atoms: C_16  and  N_48
    9  A    between atoms: O_18  and  C_33
   10  A    between atoms: C_23  and  N_48
                            x       y       z     vdW  Elec       q    Type
                         _______ _______ _______ _____ _____    ______ ____

>  <TORSDO>
F 10

$$$$
=
 OpenBabel11042415583D

 52 58  0  0  1  0  0  0  0  0999 V2000
  190.9900  176.0580  146.3450 C   0  0  0  0  0  0  0  0  0  0  0  0
  191.8390  174.0790  142.2030 C   0  0  1  0  0  3  0  0  0  0  0  0
  193.3650  172.5240  141.1840 C   0  0  0  0  0  0  0  0  0  0  0  0
  192.2280  176.7610  146.8400 C   0  0  1  0  0  3  0  0  0  0  0  0
  193.8320  171.8270  142.2320 C   0  0  0  0  0  3  0  0  0  0  0  0
  193.0200  173.9750  141.3170 C   0  0  1  0  0  3  0  0  0  0  0  0
  193.4610  175.1390  144.6990 C   0  0  0  0  0  0  0  0  0  0  0  0
  194.5630  174.8390  143.7080 C   0  0  0  0  0  2  0  0  0  0  0  0
  191.9770  177.5040  148.0710 N   0  0  0  0  0  1  0  0  0  0  0  0
  191.0150  175.4570  145.1420 C   0  0  0  0  0  3  0  0  0  0  0  0
  195.0680  173.3900  143.7870 C   0  0  0  0  0  2  0  0  0  0  0  0
  191.9210  175.3070  142.8860 O   0  0  0  0  0  0  0  0  0  0  0  0
  193.2830  175.7860  147.0810 N   0  0  0  0  0  0  0  0  0  0  0  0
  192.1900  175.3190  144.2500 C   0  0  0  0  0  0  0  0  0  0  0  0
  191.7430  174.2740  140.8190 O   0  0  0  0  0  0  0  0  0  0  0  0
  193.8470  175.0880  146.1330 C   0  0  0  0  0  3  0  0  0  0  0  0
  193.9500  172.3580  143.6250 C   0  0  0  0  0  2  0  0  0  0  0  0
  193.7640  172.0370  137.3860 C   0  0  0  0  0  0  0  0  0  0  0  0
  194.6110  172.4170  136.5600 O   0  0  0  0  0  0  0  0  0  0  0  0
  193.2450  171.8670  139.8720 C   0  0  0  0  0  0  0  0  0  0  0  0
  193.9350  172.4260  138.7460 N   0  0  0  0  0  2  0  0  0  0  0  0
  192.5590  170.8130  139.7510 O   0  0  0  0  0  0  0  0  0  0  0  0
  192.6150  171.1700  136.9480 C   0  0  0  0  0  2  0  0  0  0  0  0
  189.2850  171.5400  135.5200 C   0  0  0  0  0  2  0  0  0  0  0  0
  191.3520  171.9670  136.6900 C   0  0  1  0  0  3  0  0  0  0  0  0
  191.4320  172.6420  135.3250 C   0  0  1  0  0  3  0  0  0  0  0  0
  190.1600  171.0370  136.6450 C   0  0  0  0  0  2  0  0  0  0  0  0
  190.2430  172.1520  134.5130 C   0  0  0  0  0  2  0  0  0  0  0  0
  191.4690  174.4630  136.8600 O   0  0  0  0  0  1  0  0  0  0  0  0
  191.3590  174.1450  135.5070 C   0  0  0  0  0  2  0  0  0  0  0  0
  189.7330  175.9750  147.1880 C   0  0  2  0  0  3  0  0  0  0  0  0
  188.9870  174.6750  146.9170 C   0  0  0  0  0  1  0  0  0  0  0  0
  188.8820  177.0620  146.9490 O   0  0  0  0  0  0  0  0  0  0  0  0
  187.6970  176.9340  144.8460 C   0  0  2  0  0  3  0  0  0  0  0  0
  186.3460  178.1170  147.7740 C   0  0  0  0  0  2  0  0  0  0  0  0
  187.7590  176.5290  146.3190 C   0  0  2  0  0  3  0  0  0  0  0  0
  185.0010  178.2970  147.0920 C   0  0  0  0  0  2  0  0  0  0  0  0
  187.8650  178.2970  144.7010 O   0  0  0  0  0  1  0  0  0  0  0  0
  186.3830  176.4930  144.2380 C   0  0  1  0  0  3  0  0  0  0  0  0
  186.4720  176.7410  147.1490 C   0  0  2  0  0  3  0  0  0  0  0  0
  185.2480  177.2410  144.8970 C   0  0  0  0  0  2  0  0  0  0  0  0
  185.1510  176.9550  146.3980 C   0  0  2  0  0  3  0  0  0  0  0  0
  186.3580  176.7400  142.7980 N   0  0  0  0  0  2  0  0  0  0  0  0
  187.7220  176.6100  142.3020 C   0  0  2  0  0  3  0  0  0  0  0  0
  188.0410  177.7760  141.3830 C   0  0  0  0  0  1  0  0  0  0  0  0
  188.2770  174.0090  139.5920 C   0  0  0  0  0  0  0  0  0  0  0  0
  187.9470  175.2880  141.6140 C   0  0  0  0  0  0  0  0  0  0  0  0
  188.0170  175.2290  140.2150 C   0  0  0  0  0  3  0  0  0  0  0  0
  188.4290  172.9630  141.7490 C   0  0  0  0  0  3  0  0  0  0  0  0
  188.1550  174.1530  142.3400 N   0  0  0  0  0  0  0  0  0  0  0  0
  188.4970  172.8680  140.3590 C   0  0  0  0  0  3  0  0  0  0  0  0
  188.3190  173.9300  138.1140 C   0  0  0  0  0  1  0  0  0  0  0  0
  1  4  1  0  0  0  0
  1 31  1  0  0  0  0
  2 15  1  6  0  0  0
  2 12  1  0  0  0  0
  3  6  1  0  0  0  0
  3  5  2  0  0  0  0
  4 13  1  0  0  0  0
  4  9  1  1  0  0  0
  5 17  1  0  0  0  0
  6 15  1  6  0  0  0
  6  2  1  0  0  0  0
  7 16  1  0  0  0  0
  8 11  1  0  0  0  0
  8  7  1  0  0  0  0
 10  1  2  0  0  0  0
 12 14  1  0  0  0  0
 14  7  2  0  0  0  0
 14 10  1  0  0  0  0
 16 13  2  0  0  0  0
 17 11  1  0  0  0  0
 18 21  1  0  0  0  0
 19 18  2  0  0  0  0
 20  3  1  0  0  0  0
 21 20  1  0  0  0  0
 22 20  2  0  0  0  0
 23 18  1  0  0  0  0
 24 27  1  0  0  0  0
 25 23  1  6  0  0  0
 26 30  1  1  0  0  0
 26 25  1  0  0  0  0
 27 25  1  0  0  0  0
 28 26  1  0  0  0  0
 28 24  1  0  0  0  0
 30 29  1  0  0  0  0
 31 32  1  6  0  0  0
 33 31  1  0  0  0  0
 34 38  1  1  0  0  0
 34 36  1  0  0  0  0
 36 33  1  1  0  0  0
 36 40  1  0  0  0  0
 37 35  1  0  0  0  0
 39 43  1  6  0  0  0
 39 34  1  0  0  0  0
 39 41  1  0  0  0  0
 40 35  1  6  0  0  0
 42 41  1  6  0  0  0
 42 37  1  0  0  0  0
 42 40  1  0  0  0  0
 44 45  1  6  0  0  0
 44 43  1  0  0  0  0
 46 48  2  0  0  0  0
 46 51  1  0  0  0  0
 47 44  1  0  0  0  0
 47 50  2  0  0  0  0
 48 47  1  0  0  0  0
 49 50  1  0  0  0  0
 51 49  2  0  0  0  0
 52 46  1  0  0  0  0
M  END
>  <MODEL>
9

>  <REMARK>
 VINA RESULT:      -8.1      3.845      9.271
  Name = 
  10 active torsions:
  status: ('A' for Active; 'I' for Inactive)
    1  A    between atoms: C_1  and  C_30
    2  A    between atoms: C_6  and  C_30
    3  A    between atoms: C_8  and  C_33
    4  A    between atoms: C_9  and  O_18
    5  A    between atoms: C_10  and  C_16
    6  A    between atoms: C_12  and  C_52
    7  A    between atoms: C_13  and  C_17
    8  A    between atoms: C_16  and  N_48
    9  A    between atoms: O_18  and  C_33
   10  A    between atoms: C_23  and  N_48
                            x       y       z     vdW  Elec       q    Type
                         _______ _______ _______ _____ _____    ______ ____

>  <TORSDO>
F 10

$$$$
