=
 OpenBabel11042416553D

 35 38  0  0  1  0  0  0  0  0999 V2000
  193.4190  175.2900  144.4550 C   0  0  0  0  0  0  0  0  0  0  0  0
  193.6190  173.9330  144.2210 C   0  0  0  0  0  3  0  0  0  0  0  0
  191.2550  173.4910  144.5800 C   0  0  0  0  0  0  0  0  0  0  0  0
  191.0490  174.8740  144.8060 C   0  0  0  0  0  0  0  0  0  0  0  0
  192.1340  175.7540  144.7420 C   0  0  0  0  0  3  0  0  0  0  0  0
  192.5590  173.0190  144.2720 C   0  0  0  0  0  0  0  0  0  0  0  0
  189.9010  172.3700  144.7950 Cl  0  0  0  0  0  0  0  0  0  0  0  0
  187.1970  176.5780  145.6320 C   0  0  0  0  0  0  0  0  0  0  0  0
  188.9200  175.9310  144.0580 C   0  0  0  0  0  3  0  0  0  0  0  0
  189.7140  175.4370  145.1050 C   0  0  0  0  0  0  0  0  0  0  0  0
  187.9840  176.0910  146.6840 C   0  0  0  0  0  3  0  0  0  0  0  0
  187.6690  176.4940  144.3190 C   0  0  0  0  0  3  0  0  0  0  0  0
  189.2360  175.5270  146.4280 C   0  0  0  0  0  0  0  0  0  0  0  0
  189.9920  175.0470  147.4920 O   0  0  0  0  0  1  0  0  0  0  0  0
  185.8500  177.1800  145.8880 C   0  0  2  0  0  3  0  0  0  0  0  0
  185.6600  178.3710  145.0710 N   0  0  0  0  0  2  0  0  0  0  0  0
  183.3830  178.1410  142.2960 O   0  0  0  0  0  0  0  0  0  0  0  0
  185.6590  178.5900  142.2060 N   0  0  0  0  0  1  0  0  0  0  0  0
  184.4780  178.1840  144.3430 N   0  0  0  0  0  2  0  0  0  0  0  0
  184.4630  178.2990  142.9220 C   0  0  0  0  0  0  0  0  0  0  0  0
  185.6930  177.5220  147.3630 C   0  0  0  0  0  2  0  0  0  0  0  0
  185.9140  179.0060  147.6060 C   0  0  0  0  0  2  0  0  0  0  0  0
  187.0190  179.1940  148.4370 O   0  0  0  0  0  1  0  0  0  0  0  0
  193.2670  170.8290  144.9200 O   0  0  0  0  0  0  0  0  0  0  0  0
  192.8810  171.5980  143.9980 C   0  0  0  0  0  0  0  0  0  0  0  0
  192.7270  171.1020  142.6990 O   0  0  0  0  0  0  0  0  0  0  0  0
  191.8600  170.0160  142.3960 C   0  0  0  0  0  2  0  0  0  0  0  0
  190.5860  170.5240  141.9140 N   0  0  0  0  0  2  0  0  0  0  0  0
  190.0420  171.6400  139.8850 N   0  0  0  0  0  2  0  0  0  0  0  0
  190.8790  171.6840  141.0930 C   0  0  1  0  0  3  0  0  0  0  0  0
  189.6950  172.5290  141.0010 C   0  0  0  0  0  2  0  0  0  0  0  0
  194.5330  176.1830  144.3890 N   0  0  0  0  0  2  0  0  0  0  0  0
  195.9920  176.0110  142.6270 O   0  0  0  0  0  0  0  0  0  0  0  0
  196.5950  176.9090  143.4900 N   0  0  0  0  0  2  0  0  0  0  0  0
  195.8560  175.7630  143.9550 C   0  0  1  0  0  3  0  0  0  0  0  0
  1  5  1  0  0  0  0
  2  6  1  0  0  0  0
  2  1  2  0  0  0  0
  3  7  1  0  0  0  0
  3  4  1  0  0  0  0
  4 10  1  0  0  0  0
  5  4  2  0  0  0  0
  6  3  2  0  0  0  0
  8 15  1  0  0  0  0
  8 11  1  0  0  0  0
  9 12  1  0  0  0  0
  9 10  2  0  0  0  0
 10 13  1  0  0  0  0
 12  8  2  0  0  0  0
 13 11  2  0  0  0  0
 13 14  1  0  0  0  0
 15 21  1  1  0  0  0
 16 15  1  0  0  0  0
 17 20  2  0  0  0  0
 18 20  1  0  0  0  0
 19 16  1  0  0  0  0
 20 19  1  0  0  0  0
 21 22  1  0  0  0  0
 22 23  1  0  0  0  0
 25  6  1  0  0  0  0
 25 24  2  0  0  0  0
 26 25  1  0  0  0  0
 27 26  1  0  0  0  0
 28 27  1  0  0  0  0
 29 31  1  0  0  0  0
 29 30  1  0  0  0  0
 30 28  1  1  0  0  0
 31 30  1  0  0  0  0
 32  1  1  0  0  0  0
 33 34  1  0  0  0  0
 33 35  1  0  0  0  0
 34 35  1  0  0  0  0
 35 32  1  1  0  0  0
M  END
>  <MODEL>
1

>  <REMARK>
 VINA RESULT:      -6.2      0.000      0.000
  Name = 
  13 active torsions:
  status: ('A' for Active; 'I' for Inactive)
    1  A    between atoms: C_2  and  C_19
    2  A    between atoms: N_3  and  C_7
    3  A    between atoms: N_3  and  C_33
    4  A    between atoms: N_4  and  C_19
    5  A    between atoms: N_4  and  N_25
    6  A    between atoms: C_6  and  C_11
    7  A    between atoms: N_9  and  C_17
    8  A    between atoms: N_9  and  C_29
    9  A    between atoms: C_17  and  O_20
   10  A    between atoms: C_18  and  C_31
   11  A    between atoms: C_19  and  C_31
   12  A    between atoms: O_20  and  C_24
   13  A    between atoms: C_24  and  C_26
                            x       y       z     vdW  Elec       q    Type
                         _______ _______ _______ _____ _____    ______ ____

>  <TORSDO>
F 13

$$$$
=
 OpenBabel11042416553D

 35 38  0  0  1  0  0  0  0  0999 V2000
  189.2960  177.3520  143.5140 C   0  0  0  0  0  0  0  0  0  0  0  0
  188.4070  177.5430  144.5670 C   0  0  0  0  0  3  0  0  0  0  0  0
  189.9450  176.4520  146.1040 C   0  0  0  0  0  0  0  0  0  0  0  0
  190.8560  176.2690  145.0330 C   0  0  0  0  0  0  0  0  0  0  0  0
  190.5170  176.7210  143.7530 C   0  0  0  0  0  3  0  0  0  0  0  0
  188.7080  177.1090  145.8650 C   0  0  0  0  0  0  0  0  0  0  0  0
  190.3240  175.7590  147.6880 Cl  0  0  0  0  0  0  0  0  0  0  0  0
  194.7050  174.4320  145.5080 C   0  0  0  0  0  0  0  0  0  0  0  0
  193.2880  176.3950  145.5590 C   0  0  0  0  0  3  0  0  0  0  0  0
  192.1710  175.6170  145.2160 C   0  0  0  0  0  0  0  0  0  0  0  0
  193.5970  173.6490  145.1620 C   0  0  0  0  0  3  0  0  0  0  0  0
  194.5450  175.8060  145.7080 C   0  0  0  0  0  3  0  0  0  0  0  0
  192.3360  174.2330  145.0120 C   0  0  0  0  0  0  0  0  0  0  0  0
  191.2540  173.4280  144.6730 O   0  0  0  0  0  1  0  0  0  0  0  0
  196.0620  173.8220  145.6800 C   0  0  2  0  0  3  0  0  0  0  0  0
  197.0720  174.6250  145.0050 N   0  0  0  0  0  2  0  0  0  0  0  0
  196.7670  175.1760  141.4630 O   0  0  0  0  0  0  0  0  0  0  0  0
  196.9800  176.7900  143.1180 N   0  0  0  0  0  1  0  0  0  0  0  0
  196.9490  174.3700  143.6330 N   0  0  0  0  0  2  0  0  0  0  0  0
  196.8930  175.4360  142.6880 C   0  0  0  0  0  0  0  0  0  0  0  0
  196.0750  172.3980  145.1410 C   0  0  0  0  0  2  0  0  0  0  0  0
  196.8100  171.4620  146.0860 C   0  0  0  0  0  2  0  0  0  0  0  0
  196.1900  170.2130  146.1010 O   0  0  0  0  0  1  0  0  0  0  0  0
  187.8310  178.3250  147.7280 O   0  0  0  0  0  0  0  0  0  0  0  0
  187.6950  177.3710  146.9150 C   0  0  0  0  0  0  0  0  0  0  0  0
  186.5570  176.5600  146.9820 O   0  0  0  0  0  0  0  0  0  0  0  0
  185.2460  177.0670  146.7750 C   0  0  0  0  0  2  0  0  0  0  0  0
  185.0710  177.4230  145.3760 N   0  0  0  0  0  2  0  0  0  0  0  0
  185.2990  179.6050  144.4560 N   0  0  0  0  0  2  0  0  0  0  0  0
  184.4970  178.7550  145.3480 C   0  0  1  0  0  3  0  0  0  0  0  0
  184.0150  179.0520  144.0050 C   0  0  0  0  0  2  0  0  0  0  0  0
  188.9430  177.8140  142.2090 N   0  0  0  0  0  2  0  0  0  0  0  0
  187.4690  177.8580  140.4510 O   0  0  0  0  0  0  0  0  0  0  0  0
  187.0320  176.8110  141.2440 N   0  0  0  0  0  2  0  0  0  0  0  0
  187.5660  178.0310  141.7940 C   0  0  1  0  0  3  0  0  0  0  0  0
  1  5  2  0  0  0  0
  1  2  1  0  0  0  0
  2  6  2  0  0  0  0
  3  7  1  0  0  0  0
  4 10  1  0  0  0  0
  4  3  2  0  0  0  0
  5  4  1  0  0  0  0
  6  3  1  0  0  0  0
  6 25  1  0  0  0  0
  8 15  1  0  0  0  0
  8 12  1  0  0  0  0
  9 12  2  0  0  0  0
 10  9  1  0  0  0  0
 11  8  2  0  0  0  0
 13 11  1  0  0  0  0
 13 10  2  0  0  0  0
 14 13  1  0  0  0  0
 15 21  1  6  0  0  0
 16 15  1  0  0  0  0
 17 20  2  0  0  0  0
 19 16  1  0  0  0  0
 20 18  1  0  0  0  0
 20 19  1  0  0  0  0
 21 22  1  0  0  0  0
 22 23  1  0  0  0  0
 25 26  1  0  0  0  0
 25 24  2  0  0  0  0
 27 26  1  0  0  0  0
 28 27  1  0  0  0  0
 29 30  1  0  0  0  0
 30 28  1  6  0  0  0
 31 29  1  0  0  0  0
 31 30  1  0  0  0  0
 32  1  1  0  0  0  0
 33 34  1  0  0  0  0
 33 35  1  0  0  0  0
 34 35  1  0  0  0  0
 35 32  1  6  0  0  0
M  END
>  <MODEL>
2

>  <REMARK>
 VINA RESULT:      -6.1      2.924      8.922
  Name = 
  13 active torsions:
  status: ('A' for Active; 'I' for Inactive)
    1  A    between atoms: C_2  and  C_19
    2  A    between atoms: N_3  and  C_7
    3  A    between atoms: N_3  and  C_33
    4  A    between atoms: N_4  and  C_19
    5  A    between atoms: N_4  and  N_25
    6  A    between atoms: C_6  and  C_11
    7  A    between atoms: N_9  and  C_17
    8  A    between atoms: N_9  and  C_29
    9  A    between atoms: C_17  and  O_20
   10  A    between atoms: C_18  and  C_31
   11  A    between atoms: C_19  and  C_31
   12  A    between atoms: O_20  and  C_24
   13  A    between atoms: C_24  and  C_26
                            x       y       z     vdW  Elec       q    Type
                         _______ _______ _______ _____ _____    ______ ____

>  <TORSDO>
F 13

$$$$
=
 OpenBabel11042416553D

 35 38  0  0  1  0  0  0  0  0999 V2000
  193.2620  171.8350  144.5650 C   0  0  0  0  0  0  0  0  0  0  0  0
  194.5010  172.4070  144.8400 C   0  0  0  0  0  3  0  0  0  0  0  0
  193.4470  174.5560  145.2740 C   0  0  0  0  0  0  0  0  0  0  0  0
  192.1850  173.9700  145.0060 C   0  0  0  0  0  0  0  0  0  0  0  0
  192.1110  172.6180  144.6540 C   0  0  0  0  0  3  0  0  0  0  0  0
  194.6190  173.7560  145.2000 C   0  0  0  0  0  0  0  0  0  0  0  0
  193.5430  176.2950  145.5870 Cl  0  0  0  0  0  0  0  0  0  0  0  0
  188.4830  176.1250  145.2770 C   0  0  0  0  0  0  0  0  0  0  0  0
  190.1910  174.7370  146.2880 C   0  0  0  0  0  3  0  0  0  0  0  0
  190.9230  174.7370  145.0900 C   0  0  0  0  0  0  0  0  0  0  0  0
  189.2050  176.1280  144.0770 C   0  0  0  0  0  3  0  0  0  0  0  0
  188.9820  175.4290  146.3820 C   0  0  0  0  0  3  0  0  0  0  0  0
  190.4150  175.4370  143.9770 C   0  0  0  0  0  0  0  0  0  0  0  0
  191.1110  175.4620  142.7730 O   0  0  0  0  0  1  0  0  0  0  0  0
  187.1870  176.8660  145.4040 C   0  0  2  0  0  3  0  0  0  0  0  0
  187.0890  177.8990  144.3830 N   0  0  0  0  0  2  0  0  0  0  0  0
  183.8670  178.1200  142.7970 O   0  0  0  0  0  0  0  0  0  0  0  0
  184.8240  179.6620  144.2450 N   0  0  0  0  0  1  0  0  0  0  0  0
  185.9850  177.5790  143.5820 N   0  0  0  0  0  2  0  0  0  0  0  0
  184.8510  178.4410  143.5130 C   0  0  0  0  0  0  0  0  0  0  0  0
  187.0620  177.4820  146.7910 C   0  0  0  0  0  2  0  0  0  0  0  0
  185.6040  177.6840  147.1690 C   0  0  0  0  0  2  0  0  0  0  0  0
  184.8210  176.6740  146.6080 O   0  0  0  0  0  1  0  0  0  0  0  0
  196.6950  173.7470  146.3870 O   0  0  0  0  0  0  0  0  0  0  0  0
  195.9840  174.2610  145.4800 C   0  0  0  0  0  0  0  0  0  0  0  0
  196.4970  175.3060  144.7060 O   0  0  0  0  0  0  0  0  0  0  0  0
  197.3310  175.0800  143.5770 C   0  0  0  0  0  2  0  0  0  0  0  0
  196.5140  174.9170  142.3860 N   0  0  0  0  0  2  0  0  0  0  0  0
  195.3380  176.1780  140.7470 N   0  0  0  0  0  2  0  0  0  0  0  0
  195.9380  176.2150  142.0890 C   0  0  1  0  0  3  0  0  0  0  0  0
  194.4930  176.0870  141.9450 C   0  0  0  0  0  2  0  0  0  0  0  0
  193.1950  170.4540  144.2040 N   0  0  0  0  0  2  0  0  0  0  0  0
  194.0560  169.0930  145.8380 O   0  0  0  0  0  0  0  0  0  0  0  0
  193.6280  168.2220  144.8510 N   0  0  0  0  0  2  0  0  0  0  0  0
  194.2310  169.4950  144.5540 C   0  0  1  0  0  3  0  0  0  0  0  0
  1  5  2  0  0  0  0
  1  2  1  0  0  0  0
  2  6  2  0  0  0  0
  3  7  1  0  0  0  0
  4 10  1  0  0  0  0
  4  3  2  0  0  0  0
  5  4  1  0  0  0  0
  6  3  1  0  0  0  0
  6 25  1  0  0  0  0
  8 15  1  0  0  0  0
  8 12  1  0  0  0  0
  9 12  2  0  0  0  0
 10  9  1  0  0  0  0
 11  8  2  0  0  0  0
 13 11  1  0  0  0  0
 13 10  2  0  0  0  0
 14 13  1  0  0  0  0
 15 21  1  1  0  0  0
 16 15  1  0  0  0  0
 17 20  2  0  0  0  0
 19 16  1  0  0  0  0
 20 19  1  0  0  0  0
 20 18  1  0  0  0  0
 21 22  1  0  0  0  0
 23 22  1  0  0  0  0
 25 24  2  0  0  0  0
 26 25  1  0  0  0  0
 27 26  1  0  0  0  0
 28 27  1  0  0  0  0
 29 31  1  0  0  0  0
 29 30  1  0  0  0  0
 30 28  1  6  0  0  0
 31 30  1  0  0  0  0
 32  1  1  0  0  0  0
 34 33  1  0  0  0  0
 35 32  1  1  0  0  0
 35 34  1  0  0  0  0
 35 33  1  0  0  0  0
M  END
>  <MODEL>
3

>  <REMARK>
 VINA RESULT:      -5.9      2.514      4.498
  Name = 
  13 active torsions:
  status: ('A' for Active; 'I' for Inactive)
    1  A    between atoms: C_2  and  C_19
    2  A    between atoms: N_3  and  C_7
    3  A    between atoms: N_3  and  C_33
    4  A    between atoms: N_4  and  C_19
    5  A    between atoms: N_4  and  N_25
    6  A    between atoms: C_6  and  C_11
    7  A    between atoms: N_9  and  C_17
    8  A    between atoms: N_9  and  C_29
    9  A    between atoms: C_17  and  O_20
   10  A    between atoms: C_18  and  C_31
   11  A    between atoms: C_19  and  C_31
   12  A    between atoms: O_20  and  C_24
   13  A    between atoms: C_24  and  C_26
                            x       y       z     vdW  Elec       q    Type
                         _______ _______ _______ _____ _____    ______ ____

>  <TORSDO>
F 13

$$$$
=
 OpenBabel11042416553D

 35 38  0  0  1  0  0  0  0  0999 V2000
  193.1630  175.1990  143.9750 C   0  0  0  0  0  0  0  0  0  0  0  0
  193.3500  173.8250  143.8550 C   0  0  0  0  0  3  0  0  0  0  0  0
  191.0290  173.4260  144.4630 C   0  0  0  0  0  0  0  0  0  0  0  0
  190.8360  174.8250  144.5730 C   0  0  0  0  0  0  0  0  0  0  0  0
  191.9070  175.6920  144.3290 C   0  0  0  0  0  3  0  0  0  0  0  0
  192.3030  172.9230  144.0870 C   0  0  0  0  0  0  0  0  0  0  0  0
  189.7060  172.3350  144.9040 Cl  0  0  0  0  0  0  0  0  0  0  0  0
  187.0650  176.6130  145.5740 C   0  0  0  0  0  0  0  0  0  0  0  0
  188.6630  175.8540  143.9210 C   0  0  0  0  0  3  0  0  0  0  0  0
  189.5300  175.4180  144.9350 C   0  0  0  0  0  0  0  0  0  0  0  0
  187.9250  176.1840  146.5930 C   0  0  0  0  0  3  0  0  0  0  0  0
  187.4370  176.4430  144.2380 C   0  0  0  0  0  3  0  0  0  0  0  0
  189.1520  175.5930  146.2810 C   0  0  0  0  0  0  0  0  0  0  0  0
  189.9830  175.1730  147.3140 O   0  0  0  0  0  1  0  0  0  0  0  0
  185.7430  177.2420  145.8910 C   0  0  2  0  0  3  0  0  0  0  0  0
  185.5550  178.4550  145.1080 N   0  0  0  0  0  2  0  0  0  0  0  0
  183.2540  178.2730  142.3490 O   0  0  0  0  0  0  0  0  0  0  0  0
  185.5410  178.6530  142.2420 N   0  0  0  0  0  1  0  0  0  0  0  0
  184.3630  178.2980  144.3890 N   0  0  0  0  0  2  0  0  0  0  0  0
  184.3420  178.4040  142.9670 C   0  0  0  0  0  0  0  0  0  0  0  0
  185.6460  177.5540  147.3780 C   0  0  0  0  0  2  0  0  0  0  0  0
  185.8580  179.0360  147.6400 C   0  0  0  0  0  2  0  0  0  0  0  0
  186.9960  179.2240  148.4250 O   0  0  0  0  0  1  0  0  0  0  0  0
  192.1890  170.8380  142.9210 O   0  0  0  0  0  0  0  0  0  0  0  0
  192.6080  171.4820  143.9220 C   0  0  0  0  0  0  0  0  0  0  0  0
  193.3960  170.8370  144.8810 O   0  0  0  0  0  0  0  0  0  0  0  0
  193.8570  169.5030  144.7170 C   0  0  0  0  0  2  0  0  0  0  0  0
  195.1240  169.3320  145.4100 N   0  0  0  0  0  2  0  0  0  0  0  0
  197.0090  170.5360  146.2200 N   0  0  0  0  0  2  0  0  0  0  0  0
  195.7660  170.6330  145.4410 C   0  0  1  0  0  3  0  0  0  0  0  0
  197.0490  170.5600  144.7520 C   0  0  0  0  0  2  0  0  0  0  0  0
  194.2620  176.0780  143.7260 N   0  0  0  0  0  2  0  0  0  0  0  0
  196.0330  176.2470  142.2770 O   0  0  0  0  0  0  0  0  0  0  0  0
  196.5340  176.6870  143.4900 N   0  0  0  0  0  2  0  0  0  0  0  0
  195.5930  175.6010  143.3870 C   0  0  1  0  0  3  0  0  0  0  0  0
  1  5  1  0  0  0  0
  2  1  2  0  0  0  0
  2  6  1  0  0  0  0
  3  4  1  0  0  0  0
  3  7  1  0  0  0  0
  4 10  1  0  0  0  0
  5  4  2  0  0  0  0
  6  3  2  0  0  0  0
  8 15  1  0  0  0  0
  8 11  1  0  0  0  0
  9 12  1  0  0  0  0
  9 10  2  0  0  0  0
 10 13  1  0  0  0  0
 12  8  2  0  0  0  0
 13 11  2  0  0  0  0
 13 14  1  0  0  0  0
 15 21  1  1  0  0  0
 16 15  1  0  0  0  0
 17 20  2  0  0  0  0
 18 20  1  0  0  0  0
 19 16  1  0  0  0  0
 20 19  1  0  0  0  0
 21 22  1  0  0  0  0
 22 23  1  0  0  0  0
 24 25  2  0  0  0  0
 25  6  1  0  0  0  0
 25 26  1  0  0  0  0
 27 26  1  0  0  0  0
 27 28  1  0  0  0  0
 30 28  1  6  0  0  0
 30 29  1  0  0  0  0
 31 30  1  0  0  0  0
 31 29  1  0  0  0  0
 32  1  1  0  0  0  0
 33 35  1  0  0  0  0
 33 34  1  0  0  0  0
 35 34  1  0  0  0  0
 35 32  1  1  0  0  0
M  END
>  <MODEL>
4

>  <REMARK>
 VINA RESULT:      -5.9      1.855      2.741
  Name = 
  13 active torsions:
  status: ('A' for Active; 'I' for Inactive)
    1  A    between atoms: C_2  and  C_19
    2  A    between atoms: N_3  and  C_7
    3  A    between atoms: N_3  and  C_33
    4  A    between atoms: N_4  and  C_19
    5  A    between atoms: N_4  and  N_25
    6  A    between atoms: C_6  and  C_11
    7  A    between atoms: N_9  and  C_17
    8  A    between atoms: N_9  and  C_29
    9  A    between atoms: C_17  and  O_20
   10  A    between atoms: C_18  and  C_31
   11  A    between atoms: C_19  and  C_31
   12  A    between atoms: O_20  and  C_24
   13  A    between atoms: C_24  and  C_26
                            x       y       z     vdW  Elec       q    Type
                         _______ _______ _______ _____ _____    ______ ____

>  <TORSDO>
F 13

$$$$
=
 OpenBabel11042416553D

 35 38  0  0  1  0  0  0  0  0999 V2000
  188.8820  176.1300  145.6350 C   0  0  0  0  0  0  0  0  0  0  0  0
  188.3580  176.2410  144.3500 C   0  0  0  0  0  3  0  0  0  0  0  0
  190.4380  175.4130  143.3980 C   0  0  0  0  0  0  0  0  0  0  0  0
  190.9660  175.2880  144.7070 C   0  0  0  0  0  0  0  0  0  0  0  0
  190.1810  175.6500  145.8070 C   0  0  0  0  0  3  0  0  0  0  0  0
  189.1100  175.8860  143.2220 C   0  0  0  0  0  0  0  0  0  0  0  0
  191.4840  175.0810  142.0100 Cl  0  0  0  0  0  0  0  0  0  0  0  0
  194.8950  173.7620  145.5180 C   0  0  0  0  0  0  0  0  0  0  0  0
  192.5540  173.3940  145.0200 C   0  0  0  0  0  3  0  0  0  0  0  0
  192.3310  174.7790  144.9640 C   0  0  0  0  0  0  0  0  0  0  0  0
  194.6810  175.1460  145.4680 C   0  0  0  0  0  3  0  0  0  0  0  0
  193.8270  172.8890  145.2910 C   0  0  0  0  0  3  0  0  0  0  0  0
  193.4080  175.6560  145.1970 C   0  0  0  0  0  0  0  0  0  0  0  0
  193.2290  177.0340  145.1500 O   0  0  0  0  0  1  0  0  0  0  0  0
  196.2530  173.1980  145.8010 C   0  0  2  0  0  3  0  0  0  0  0  0
  197.2900  174.1140  145.3470 N   0  0  0  0  0  2  0  0  0  0  0  0
  197.9410  174.2980  141.8130 O   0  0  0  0  0  0  0  0  0  0  0  0
  197.3220  176.0410  143.2160 N   0  0  0  0  0  1  0  0  0  0  0  0
  197.6340  173.7300  144.0430 N   0  0  0  0  0  2  0  0  0  0  0  0
  197.6440  174.6750  142.9760 C   0  0  0  0  0  0  0  0  0  0  0  0
  196.4150  171.8420  145.1260 C   0  0  0  0  0  2  0  0  0  0  0  0
  196.7700  170.7670  146.1400 C   0  0  0  0  0  2  0  0  0  0  0  0
  195.6280  170.0450  146.4900 O   0  0  0  0  0  1  0  0  0  0  0  0
  188.2710  175.0380  141.1490 O   0  0  0  0  0  0  0  0  0  0  0  0
  188.4530  176.0340  141.9010 C   0  0  0  0  0  0  0  0  0  0  0  0
  188.0060  177.2970  141.5000 O   0  0  0  0  0  0  0  0  0  0  0  0
  186.6800  177.5250  141.0390 C   0  0  0  0  0  2  0  0  0  0  0  0
  185.7330  177.2290  142.1020 N   0  0  0  0  0  2  0  0  0  0  0  0
  183.7070  178.3520  142.6430 N   0  0  0  0  0  2  0  0  0  0  0  0
  185.1650  178.4960  142.5240 C   0  0  1  0  0  3  0  0  0  0  0  0
  184.5570  178.3430  143.8410 C   0  0  0  0  0  2  0  0  0  0  0  0
  188.0740  176.5020  146.7530 N   0  0  0  0  0  2  0  0  0  0  0  0
  185.8000  176.8020  146.8320 O   0  0  0  0  0  0  0  0  0  0  0  0
  186.2820  177.5200  147.9130 N   0  0  0  0  0  2  0  0  0  0  0  0
  186.9780  177.4530  146.6530 C   0  0  1  0  0  3  0  0  0  0  0  0
  1  5  1  0  0  0  0
  1 32  1  0  0  0  0
  2  1  2  0  0  0  0
  3  4  1  0  0  0  0
  4 10  1  0  0  0  0
  4  5  2  0  0  0  0
  6  3  2  0  0  0  0
  6  2  1  0  0  0  0
  7  3  1  0  0  0  0
  8 15  1  0  0  0  0
  9 12  1  0  0  0  0
 10  9  2  0  0  0  0
 10 13  1  0  0  0  0
 11  8  1  0  0  0  0
 12  8  2  0  0  0  0
 13 11  2  0  0  0  0
 14 13  1  0  0  0  0
 15 21  1  6  0  0  0
 16 15  1  0  0  0  0
 17 20  2  0  0  0  0
 19 16  1  0  0  0  0
 20 18  1  0  0  0  0
 20 19  1  0  0  0  0
 21 22  1  0  0  0  0
 22 23  1  0  0  0  0
 24 25  2  0  0  0  0
 25  6  1  0  0  0  0
 26 25  1  0  0  0  0
 27 26  1  0  0  0  0
 27 28  1  0  0  0  0
 29 31  1  0  0  0  0
 30 28  1  6  0  0  0
 30 29  1  0  0  0  0
 30 31  1  0  0  0  0
 33 34  1  0  0  0  0
 35 32  1  1  0  0  0
 35 33  1  0  0  0  0
 35 34  1  0  0  0  0
M  END
>  <MODEL>
5

>  <REMARK>
 VINA RESULT:      -5.9      3.107      8.962
  Name = 
  13 active torsions:
  status: ('A' for Active; 'I' for Inactive)
    1  A    between atoms: C_2  and  C_19
    2  A    between atoms: N_3  and  C_7
    3  A    between atoms: N_3  and  C_33
    4  A    between atoms: N_4  and  C_19
    5  A    between atoms: N_4  and  N_25
    6  A    between atoms: C_6  and  C_11
    7  A    between atoms: N_9  and  C_17
    8  A    between atoms: N_9  and  C_29
    9  A    between atoms: C_17  and  O_20
   10  A    between atoms: C_18  and  C_31
   11  A    between atoms: C_19  and  C_31
   12  A    between atoms: O_20  and  C_24
   13  A    between atoms: C_24  and  C_26
                            x       y       z     vdW  Elec       q    Type
                         _______ _______ _______ _____ _____    ______ ____

>  <TORSDO>
F 13

$$$$
=
 OpenBabel11042416553D

 35 38  0  0  1  0  0  0  0  0999 V2000
  192.2330  172.6480  144.4620 C   0  0  0  0  0  0  0  0  0  0  0  0
  193.4200  173.3710  144.5270 C   0  0  0  0  0  3  0  0  0  0  0  0
  192.1890  175.4050  145.0430 C   0  0  0  0  0  0  0  0  0  0  0  0
  190.9810  174.6650  144.9890 C   0  0  0  0  0  0  0  0  0  0  0  0
  191.0210  173.2970  144.6980 C   0  0  0  0  0  3  0  0  0  0  0  0
  193.4250  174.7420  144.8190 C   0  0  0  0  0  0  0  0  0  0  0  0
  192.1180  177.1570  145.2780 Cl  0  0  0  0  0  0  0  0  0  0  0  0
  187.1780  176.5360  145.6660 C   0  0  0  0  0  0  0  0  0  0  0  0
  188.9180  175.7870  144.1570 C   0  0  0  0  0  3  0  0  0  0  0  0
  189.6620  175.2850  145.2370 C   0  0  0  0  0  0  0  0  0  0  0  0
  187.9160  176.0420  146.7500 C   0  0  0  0  0  3  0  0  0  0  0  0
  187.6830  176.4030  144.3700 C   0  0  0  0  0  3  0  0  0  0  0  0
  189.1510  175.4240  146.5430 C   0  0  0  0  0  0  0  0  0  0  0  0
  189.8570  174.9400  147.6390 O   0  0  0  0  0  1  0  0  0  0  0  0
  185.8490  177.1950  145.8690 C   0  0  2  0  0  3  0  0  0  0  0  0
  185.7460  178.3960  145.0530 N   0  0  0  0  0  2  0  0  0  0  0  0
  183.4150  178.2880  142.3150 O   0  0  0  0  0  0  0  0  0  0  0  0
  185.7250  178.4710  142.1810 N   0  0  0  0  0  1  0  0  0  0  0  0
  184.5390  178.3080  144.3460 N   0  0  0  0  0  2  0  0  0  0  0  0
  184.5150  178.3540  142.9220 C   0  0  0  0  0  0  0  0  0  0  0  0
  185.6470  177.5380  147.3400 C   0  0  0  0  0  2  0  0  0  0  0  0
  185.8870  179.0180  147.5930 C   0  0  0  0  0  2  0  0  0  0  0  0
  187.0220  179.1880  148.3850 O   0  0  0  0  0  1  0  0  0  0  0  0
  195.5940  175.1120  145.7560 O   0  0  0  0  0  0  0  0  0  0  0  0
  194.7450  175.4140  144.8730 C   0  0  0  0  0  0  0  0  0  0  0  0
  195.0600  176.3780  143.9090 O   0  0  0  0  0  0  0  0  0  0  0  0
  195.4760  176.0330  142.5940 C   0  0  0  0  0  2  0  0  0  0  0  0
  194.3550  176.1550  141.6760 N   0  0  0  0  0  2  0  0  0  0  0  0
  194.1920  175.0760  139.5630 N   0  0  0  0  0  2  0  0  0  0  0  0
  194.2080  174.8700  141.0180 C   0  0  1  0  0  3  0  0  0  0  0  0
  195.4030  174.5850  140.2340 C   0  0  0  0  0  2  0  0  0  0  0  0
  192.2820  171.2510  144.1630 N   0  0  0  0  0  2  0  0  0  0  0  0
  193.0630  169.1290  144.5540 O   0  0  0  0  0  0  0  0  0  0  0  0
  193.6430  169.4960  143.3520 N   0  0  0  0  0  2  0  0  0  0  0  0
  193.4480  170.4250  144.4350 C   0  0  1  0  0  3  0  0  0  0  0  0
  1  2  2  0  0  0  0
  1  5  1  0  0  0  0
  2  6  1  0  0  0  0
  3  7  1  0  0  0  0
  4  3  1  0  0  0  0
  4 10  1  0  0  0  0
  5  4  2  0  0  0  0
  6 25  1  0  0  0  0
  6  3  2  0  0  0  0
  8 15  1  0  0  0  0
  8 11  1  0  0  0  0
  9 12  1  0  0  0  0
  9 10  2  0  0  0  0
 10 13  1  0  0  0  0
 12  8  2  0  0  0  0
 13 11  2  0  0  0  0
 13 14  1  0  0  0  0
 15 21  1  1  0  0  0
 16 15  1  0  0  0  0
 17 20  2  0  0  0  0
 18 20  1  0  0  0  0
 19 16  1  0  0  0  0
 20 19  1  0  0  0  0
 21 22  1  0  0  0  0
 22 23  1  0  0  0  0
 25 24  2  0  0  0  0
 26 25  1  0  0  0  0
 27 26  1  0  0  0  0
 28 27  1  0  0  0  0
 29 31  1  0  0  0  0
 29 30  1  0  0  0  0
 30 28  1  1  0  0  0
 31 30  1  0  0  0  0
 32  1  1  0  0  0  0
 34 35  1  0  0  0  0
 34 33  1  0  0  0  0
 35 32  1  6  0  0  0
 35 33  1  0  0  0  0
M  END
>  <MODEL>
6

>  <REMARK>
 VINA RESULT:      -5.9      1.943      3.786
  Name = 
  13 active torsions:
  status: ('A' for Active; 'I' for Inactive)
    1  A    between atoms: C_2  and  C_19
    2  A    between atoms: N_3  and  C_7
    3  A    between atoms: N_3  and  C_33
    4  A    between atoms: N_4  and  C_19
    5  A    between atoms: N_4  and  N_25
    6  A    between atoms: C_6  and  C_11
    7  A    between atoms: N_9  and  C_17
    8  A    between atoms: N_9  and  C_29
    9  A    between atoms: C_17  and  O_20
   10  A    between atoms: C_18  and  C_31
   11  A    between atoms: C_19  and  C_31
   12  A    between atoms: O_20  and  C_24
   13  A    between atoms: C_24  and  C_26
                            x       y       z     vdW  Elec       q    Type
                         _______ _______ _______ _____ _____    ______ ____

>  <TORSDO>
F 13

$$$$
=
 OpenBabel11042416553D

 35 38  0  0  1  0  0  0  0  0999 V2000
  188.9200  177.2650  143.1770 C   0  0  0  0  0  0  0  0  0  0  0  0
  188.2270  177.2190  144.3830 C   0  0  0  0  0  3  0  0  0  0  0  0
  190.1740  176.2820  145.5010 C   0  0  0  0  0  0  0  0  0  0  0  0
  190.8830  176.3400  144.2750 C   0  0  0  0  0  0  0  0  0  0  0  0
  190.2450  176.8300  143.1310 C   0  0  0  0  0  3  0  0  0  0  0  0
  188.8300  176.7400  145.5540 C   0  0  0  0  0  0  0  0  0  0  0  0
  190.9450  175.5370  146.9100 Cl  0  0  0  0  0  0  0  0  0  0  0  0
  194.9860  175.1460  143.8780 C   0  0  0  0  0  0  0  0  0  0  0  0
  193.3230  176.7940  144.4960 C   0  0  0  0  0  3  0  0  0  0  0  0
  192.2910  175.9050  144.1550 C   0  0  0  0  0  0  0  0  0  0  0  0
  193.9630  174.2530  143.5310 C   0  0  0  0  0  3  0  0  0  0  0  0
  194.6600  176.4160  144.3630 C   0  0  0  0  0  3  0  0  0  0  0  0
  192.6230  174.6260  143.6630 C   0  0  0  0  0  0  0  0  0  0  0  0
  191.6310  173.7170  143.3150 O   0  0  0  0  0  1  0  0  0  0  0  0
  196.4270  174.7600  143.7490 C   0  0  2  0  0  3  0  0  0  0  0  0
  196.9840  174.4260  145.0520 N   0  0  0  0  0  2  0  0  0  0  0  0
  197.8120  170.9250  145.1110 O   0  0  0  0  0  0  0  0  0  0  0  0
  195.8050  171.9000  145.7510 N   0  0  0  0  0  1  0  0  0  0  0  0
  197.7060  173.2350  144.8950 N   0  0  0  0  0  2  0  0  0  0  0  0
  197.1350  171.9770  145.2480 C   0  0  0  0  0  0  0  0  0  0  0  0
  197.2230  175.8900  143.1090 C   0  0  0  0  0  2  0  0  0  0  0  0
  197.9280  175.4160  141.8490 C   0  0  0  0  0  2  0  0  0  0  0  0
  197.2880  175.9310  140.7210 O   0  0  0  0  0  1  0  0  0  0  0  0
  187.6400  175.6640  147.3270 O   0  0  0  0  0  0  0  0  0  0  0  0
  188.0050  176.7430  146.7860 C   0  0  0  0  0  0  0  0  0  0  0  0
  187.6530  177.9650  147.3670 O   0  0  0  0  0  0  0  0  0  0  0  0
  186.3130  178.2840  147.7200 C   0  0  0  0  0  2  0  0  0  0  0  0
  185.7120  179.1010  146.6780 N   0  0  0  0  0  2  0  0  0  0  0  0
  184.0340  179.0430  144.9930 N   0  0  0  0  0  2  0  0  0  0  0  0
  184.5380  178.3880  146.2080 C   0  0  1  0  0  3  0  0  0  0  0  0
  184.8140  177.8020  144.9020 C   0  0  0  0  0  2  0  0  0  0  0  0
  188.2620  177.7650  142.0120 N   0  0  0  0  0  2  0  0  0  0  0  0
  186.0210  177.9660  141.5610 O   0  0  0  0  0  0  0  0  0  0  0  0
  186.6210  177.9070  140.3150 N   0  0  0  0  0  2  0  0  0  0  0  0
  187.0850  177.1320  141.4370 C   0  0  1  0  0  3  0  0  0  0  0  0
  1  2  1  0  0  0  0
  2  6  2  0  0  0  0
  3  6  1  0  0  0  0
  3  7  1  0  0  0  0
  4  3  2  0  0  0  0
  5  1  2  0  0  0  0
  5  4  1  0  0  0  0
  6 25  1  0  0  0  0
  8 12  1  0  0  0  0
 10  4  1  0  0  0  0
 10  9  1  0  0  0  0
 11 13  1  0  0  0  0
 11  8  2  0  0  0  0
 12  9  2  0  0  0  0
 13 10  2  0  0  0  0
 14 13  1  0  0  0  0
 15 21  1  1  0  0  0
 15  8  1  0  0  0  0
 15 16  1  0  0  0  0
 17 20  2  0  0  0  0
 19 16  1  0  0  0  0
 19 20  1  0  0  0  0
 20 18  1  0  0  0  0
 22 21  1  0  0  0  0
 23 22  1  0  0  0  0
 25 24  2  0  0  0  0
 25 26  1  0  0  0  0
 26 27  1  0  0  0  0
 28 27  1  0  0  0  0
 29 30  1  0  0  0  0
 30 28  1  6  0  0  0
 31 29  1  0  0  0  0
 31 30  1  0  0  0  0
 32  1  1  0  0  0  0
 34 35  1  0  0  0  0
 34 33  1  0  0  0  0
 35 33  1  0  0  0  0
 35 32  1  1  0  0  0
M  END
>  <MODEL>
7

>  <REMARK>
 VINA RESULT:      -5.8      2.815      9.393
  Name = 
  13 active torsions:
  status: ('A' for Active; 'I' for Inactive)
    1  A    between atoms: C_2  and  C_19
    2  A    between atoms: N_3  and  C_7
    3  A    between atoms: N_3  and  C_33
    4  A    between atoms: N_4  and  C_19
    5  A    between atoms: N_4  and  N_25
    6  A    between atoms: C_6  and  C_11
    7  A    between atoms: N_9  and  C_17
    8  A    between atoms: N_9  and  C_29
    9  A    between atoms: C_17  and  O_20
   10  A    between atoms: C_18  and  C_31
   11  A    between atoms: C_19  and  C_31
   12  A    between atoms: O_20  and  C_24
   13  A    between atoms: C_24  and  C_26
                            x       y       z     vdW  Elec       q    Type
                         _______ _______ _______ _____ _____    ______ ____

>  <TORSDO>
F 13

$$$$
=
 OpenBabel11042416553D

 35 38  0  0  1  0  0  0  0  0999 V2000
  185.9490  178.6880  144.8270 C   0  0  0  0  0  0  0  0  0  0  0  0
  185.0860  178.6890  143.7360 C   0  0  0  0  0  3  0  0  0  0  0  0
  186.8490  177.8210  142.3010 C   0  0  0  0  0  0  0  0  0  0  0  0
  187.7240  177.8090  143.4160 C   0  0  0  0  0  0  0  0  0  0  0  0
  187.2620  178.2440  144.6630 C   0  0  0  0  0  3  0  0  0  0  0  0
  185.5080  178.2580  142.4700 C   0  0  0  0  0  0  0  0  0  0  0  0
  187.4800  177.3960  140.7030 Cl  0  0  0  0  0  0  0  0  0  0  0  0
  191.7980  176.5070  143.0610 C   0  0  0  0  0  0  0  0  0  0  0  0
  190.1670  178.2810  143.2970 C   0  0  0  0  0  3  0  0  0  0  0  0
  189.1240  177.3420  143.3170 C   0  0  0  0  0  0  0  0  0  0  0  0
  190.7630  175.5630  143.0750 C   0  0  0  0  0  3  0  0  0  0  0  0
  191.4950  177.8660  143.1740 C   0  0  0  0  0  3  0  0  0  0  0  0
  189.4330  175.9720  143.1990 C   0  0  0  0  0  0  0  0  0  0  0  0
  188.4280  175.0110  143.2150 O   0  0  0  0  0  1  0  0  0  0  0  0
  193.2300  176.0850  142.9360 C   0  0  2  0  0  3  0  0  0  0  0  0
  193.4280  175.3030  141.7240 N   0  0  0  0  0  2  0  0  0  0  0  0
  196.6530  175.6510  140.1670 O   0  0  0  0  0  0  0  0  0  0  0  0
  195.7750  173.7450  141.1610 N   0  0  0  0  0  1  0  0  0  0  0  0
  194.5130  175.8710  141.0430 N   0  0  0  0  0  2  0  0  0  0  0  0
  195.6870  175.1110  140.7670 C   0  0  0  0  0  0  0  0  0  0  0  0
  193.6540  175.2800  144.1580 C   0  0  0  0  0  2  0  0  0  0  0  0
  194.1120  176.1940  145.2820 C   0  0  0  0  0  2  0  0  0  0  0  0
  194.9630  175.5010  146.1440 O   0  0  0  0  0  1  0  0  0  0  0  0
  184.8290  178.6270  140.2070 O   0  0  0  0  0  0  0  0  0  0  0  0
  184.5050  178.2910  141.3790 C   0  0  0  0  0  0  0  0  0  0  0  0
  183.1850  177.9170  141.6540 O   0  0  0  0  0  0  0  0  0  0  0  0
  182.1020  178.2640  140.8010 C   0  0  0  0  0  2  0  0  0  0  0  0
  181.0550  178.9100  141.5760 N   0  0  0  0  0  2  0  0  0  0  0  0
  178.8630  178.5720  142.4360 N   0  0  0  0  0  2  0  0  0  0  0  0
  179.9180  178.0080  141.5810 C   0  0  1  0  0  3  0  0  0  0  0  0
  178.7690  178.6680  140.9730 C   0  0  0  0  0  2  0  0  0  0  0  0
  185.4710  179.1350  146.0970 N   0  0  0  0  0  2  0  0  0  0  0  0
  185.2130  176.9990  146.8930 O   0  0  0  0  0  0  0  0  0  0  0  0
  185.6750  177.7200  147.9800 N   0  0  0  0  0  2  0  0  0  0  0  0
  184.7530  178.2690  147.0200 C   0  0  1  0  0  3  0  0  0  0  0  0
  1 32  1  0  0  0  0
  2  1  2  0  0  0  0
  3  6  2  0  0  0  0
  3  4  1  0  0  0  0
  4  5  2  0  0  0  0
  5  1  1  0  0  0  0
  6  2  1  0  0  0  0
  7  3  1  0  0  0  0
  8 11  2  0  0  0  0
  8 12  1  0  0  0  0
  9 10  1  0  0  0  0
 10  4  1  0  0  0  0
 11 13  1  0  0  0  0
 12  9  2  0  0  0  0
 13 14  1  0  0  0  0
 13 10  2  0  0  0  0
 15  8  1  0  0  0  0
 15 21  1  1  0  0  0
 16 15  1  0  0  0  0
 17 20  2  0  0  0  0
 19 16  1  0  0  0  0
 20 19  1  0  0  0  0
 20 18  1  0  0  0  0
 21 22  1  0  0  0  0
 22 23  1  0  0  0  0
 24 25  2  0  0  0  0
 25 26  1  0  0  0  0
 25  6  1  0  0  0  0
 27 28  1  0  0  0  0
 27 26  1  0  0  0  0
 30 28  1  1  0  0  0
 30 29  1  0  0  0  0
 31 30  1  0  0  0  0
 31 29  1  0  0  0  0
 33 35  1  0  0  0  0
 33 34  1  0  0  0  0
 35 32  1  6  0  0  0
 35 34  1  0  0  0  0
M  END
>  <MODEL>
8

>  <REMARK>
 VINA RESULT:      -5.8      3.358      9.568
  Name = 
  13 active torsions:
  status: ('A' for Active; 'I' for Inactive)
    1  A    between atoms: C_2  and  C_19
    2  A    between atoms: N_3  and  C_7
    3  A    between atoms: N_3  and  C_33
    4  A    between atoms: N_4  and  C_19
    5  A    between atoms: N_4  and  N_25
    6  A    between atoms: C_6  and  C_11
    7  A    between atoms: N_9  and  C_17
    8  A    between atoms: N_9  and  C_29
    9  A    between atoms: C_17  and  O_20
   10  A    between atoms: C_18  and  C_31
   11  A    between atoms: C_19  and  C_31
   12  A    between atoms: O_20  and  C_24
   13  A    between atoms: C_24  and  C_26
                            x       y       z     vdW  Elec       q    Type
                         _______ _______ _______ _____ _____    ______ ____

>  <TORSDO>
F 13

$$$$
=
 OpenBabel11042416553D

 35 38  0  0  1  0  0  0  0  0999 V2000
  185.9430  178.8200  144.6660 C   0  0  0  0  0  0  0  0  0  0  0  0
  185.0380  178.8220  143.6080 C   0  0  0  0  0  3  0  0  0  0  0  0
  186.6420  177.6590  142.1950 C   0  0  0  0  0  0  0  0  0  0  0  0
  187.5580  177.6470  143.2770 C   0  0  0  0  0  0  0  0  0  0  0  0
  187.1950  178.2280  144.4960 C   0  0  0  0  0  3  0  0  0  0  0  0
  185.3600  178.2460  142.3710 C   0  0  0  0  0  0  0  0  0  0  0  0
  187.1580  177.0410  140.6190 Cl  0  0  0  0  0  0  0  0  0  0  0  0
  191.4620  175.9050  142.9010 C   0  0  0  0  0  0  0  0  0  0  0  0
  190.0360  177.8500  143.1180 C   0  0  0  0  0  3  0  0  0  0  0  0
  188.8970  177.0300  143.1710 C   0  0  0  0  0  0  0  0  0  0  0  0
  190.3320  175.0790  142.9490 C   0  0  0  0  0  3  0  0  0  0  0  0
  191.3090  177.2910  142.9890 C   0  0  0  0  0  3  0  0  0  0  0  0
  189.0550  175.6320  143.0790 C   0  0  0  0  0  0  0  0  0  0  0  0
  187.9530  174.7860  143.1280 O   0  0  0  0  0  1  0  0  0  0  0  0
  192.8380  175.3280  142.7690 C   0  0  2  0  0  3  0  0  0  0  0  0
  193.2360  174.6680  144.0040 N   0  0  0  0  0  2  0  0  0  0  0  0
  194.0160  176.7950  146.7990 O   0  0  0  0  0  0  0  0  0  0  0  0
  192.3270  175.2070  146.6760 N   0  0  0  0  0  1  0  0  0  0  0  0
  193.8770  175.6310  144.7940 N   0  0  0  0  0  2  0  0  0  0  0  0
  193.4300  175.9140  146.1180 C   0  0  0  0  0  0  0  0  0  0  0  0
  193.8370  176.4190  142.4080 C   0  0  0  0  0  2  0  0  0  0  0  0
  194.7470  175.9730  141.2740 C   0  0  0  0  0  2  0  0  0  0  0  0
  195.8880  175.3600  141.7910 O   0  0  0  0  0  1  0  0  0  0  0  0
  184.6040  178.6500  140.1380 O   0  0  0  0  0  0  0  0  0  0  0  0
  184.3210  178.2950  141.3150 C   0  0  0  0  0  0  0  0  0  0  0  0
  183.0120  177.9150  141.6280 O   0  0  0  0  0  0  0  0  0  0  0  0
  181.8970  178.2900  140.8300 C   0  0  0  0  0  2  0  0  0  0  0  0
  180.8150  178.7520  141.6830 N   0  0  0  0  0  2  0  0  0  0  0  0
  178.8260  177.5330  142.1490 N   0  0  0  0  0  2  0  0  0  0  0  0
  179.5810  178.2470  141.1090 C   0  0  1  0  0  3  0  0  0  0  0  0
  178.4430  178.8940  141.7510 C   0  0  0  0  0  2  0  0  0  0  0  0
  185.5660  179.4170  145.9080 N   0  0  0  0  0  2  0  0  0  0  0  0
  186.6420  178.2300  147.5510 O   0  0  0  0  0  0  0  0  0  0  0  0
  186.1140  179.3290  148.2060 N   0  0  0  0  0  2  0  0  0  0  0  0
  185.4200  178.6550  147.1380 C   0  0  1  0  0  3  0  0  0  0  0  0
  1 32  1  0  0  0  0
  2  1  2  0  0  0  0
  3  6  2  0  0  0  0
  3  4  1  0  0  0  0
  4  5  2  0  0  0  0
  5  1  1  0  0  0  0
  6  2  1  0  0  0  0
  7  3  1  0  0  0  0
  8 11  2  0  0  0  0
  8 12  1  0  0  0  0
  9 10  1  0  0  0  0
 10  4  1  0  0  0  0
 11 13  1  0  0  0  0
 12  9  2  0  0  0  0
 13 14  1  0  0  0  0
 13 10  2  0  0  0  0
 15 21  1  1  0  0  0
 15  8  1  0  0  0  0
 15 16  1  0  0  0  0
 16 19  1  0  0  0  0
 19 20  1  0  0  0  0
 20 18  1  0  0  0  0
 20 17  2  0  0  0  0
 22 23  1  0  0  0  0
 22 21  1  0  0  0  0
 24 25  2  0  0  0  0
 25 26  1  0  0  0  0
 25  6  1  0  0  0  0
 27 26  1  0  0  0  0
 27 28  1  0  0  0  0
 30 28  1  1  0  0  0
 30 31  1  0  0  0  0
 30 29  1  0  0  0  0
 31 29  1  0  0  0  0
 33 34  1  0  0  0  0
 35 32  1  6  0  0  0
 35 33  1  0  0  0  0
 35 34  1  0  0  0  0
M  END
>  <MODEL>
9

>  <REMARK>
 VINA RESULT:      -5.8      3.296      9.464
  Name = 
  13 active torsions:
  status: ('A' for Active; 'I' for Inactive)
    1  A    between atoms: C_2  and  C_19
    2  A    between atoms: N_3  and  C_7
    3  A    between atoms: N_3  and  C_33
    4  A    between atoms: N_4  and  C_19
    5  A    between atoms: N_4  and  N_25
    6  A    between atoms: C_6  and  C_11
    7  A    between atoms: N_9  and  C_17
    8  A    between atoms: N_9  and  C_29
    9  A    between atoms: C_17  and  O_20
   10  A    between atoms: C_18  and  C_31
   11  A    between atoms: C_19  and  C_31
   12  A    between atoms: O_20  and  C_24
   13  A    between atoms: C_24  and  C_26
                            x       y       z     vdW  Elec       q    Type
                         _______ _______ _______ _____ _____    ______ ____

>  <TORSDO>
F 13

$$$$
