=
 OpenBabel11042418533D

 27 29  0  0  1  0  0  0  0  0999 V2000
  192.4610  175.8110  144.2330 C   0  0  0  0  0  2  0  0  0  0  0  0
  193.3120  176.0130  146.5700 C   0  0  0  0  0  1  0  0  0  0  0  0
  192.1930  176.3860  145.6150 C   0  0  2  0  0  3  0  0  0  0  0  0
  190.9010  175.9340  146.1280 N   0  0  0  0  0  2  0  0  0  0  0  0
  189.7990  177.9800  145.9440 O   0  0  0  0  0  0  0  0  0  0  0  0
  189.7510  176.7740  146.3070 C   0  0  0  0  0  0  0  0  0  0  0  0
  188.5610  176.2380  146.9190 N   0  0  0  0  0  0  0  0  0  0  0  0
  188.6360  174.9050  147.5080 C   0  0  0  0  0  1  0  0  0  0  0  0
  184.9750  177.1870  146.3750 C   0  0  0  0  0  3  0  0  0  0  0  0
  187.3130  176.9660  146.9730 C   0  0  0  0  0  0  0  0  0  0  0  0
  186.1690  176.4680  146.3250 C   0  0  0  0  0  3  0  0  0  0  0  0
  184.9230  178.3980  147.0650 C   0  0  0  0  0  3  0  0  0  0  0  0
  187.2270  178.1550  147.6360 N   0  0  0  0  0  0  0  0  0  0  0  0
  186.0740  178.8710  147.6960 C   0  0  0  0  0  3  0  0  0  0  0  0
  191.7490  176.5890  143.2310 N   0  0  0  0  0  2  0  0  0  0  0  0
  191.0080  175.6530  142.3980 C   0  0  0  0  0  2  0  0  0  0  0  0
  189.5440  175.9340  142.4790 C   0  0  0  0  0  0  0  0  0  0  0  0
  187.7320  177.4690  142.9490 C   0  0  0  0  0  0  0  0  0  0  0  0
  187.2880  178.6900  143.3430 N   0  0  0  0  0  2  0  0  0  0  0  0
  185.0300  177.9680  143.0750 C   0  0  0  0  0  3  0  0  0  0  0  0
  185.9560  178.9590  143.4130 C   0  0  0  0  0  0  0  0  0  0  0  0
  189.1010  177.1980  142.8850 C   0  0  0  0  0  3  0  0  0  0  0  0
  188.6140  174.9430  142.1330 C   0  0  0  0  0  3  0  0  0  0  0  0
  187.2430  175.2100  142.1960 C   0  0  0  0  0  3  0  0  0  0  0  0
  186.7980  176.4700  142.6040 C   0  0  0  0  0  0  0  0  0  0  0  0
  185.4700  176.7450  142.6760 N   0  0  0  0  0  0  0  0  0  0  0  0
  185.5600  180.0950  143.7790 O   0  0  0  0  0  0  0  0  0  0  0  0
  1  3  1  0  0  0  0
  3  4  1  0  0  0  0
  3  2  1  1  0  0  0
  4  6  1  0  0  0  0
  5  6  2  0  0  0  0
  6  7  1  0  0  0  0
  7 10  1  0  0  0  0
  7  8  1  0  0  0  0
  9 12  1  0  0  0  0
 10 13  2  0  0  0  0
 11  9  2  0  0  0  0
 11 10  1  0  0  0  0
 12 14  2  0  0  0  0
 13 14  1  0  0  0  0
 15  1  1  0  0  0  0
 16 17  1  0  0  0  0
 16 15  1  0  0  0  0
 17 22  1  0  0  0  0
 18 19  1  0  0  0  0
 19 21  1  0  0  0  0
 20 21  1  0  0  0  0
 21 27  2  0  0  0  0
 22 18  2  0  0  0  0
 23 24  1  0  0  0  0
 23 17  2  0  0  0  0
 24 25  2  0  0  0  0
 25 26  1  0  0  0  0
 25 18  1  0  0  0  0
 26 20  2  0  0  0  0
M  END
>  <MODEL>
1

>  <REMARK>
 VINA RESULT:      -6.6      0.000      0.000
  Name = 
  6 active torsions:
  status: ('A' for Active; 'I' for Inactive)
    1  A    between atoms: C_2  and  C_3
    2  A    between atoms: C_3  and  N_25
    3  A    between atoms: N_6  and  C_24
    4  A    between atoms: C_7  and  N_26
    5  A    between atoms: C_15  and  C_24
    6  A    between atoms: C_15  and  N_25
                            x       y       z     vdW  Elec       q    Type
                         _______ _______ _______ _____ _____    ______ ____

>  <TORSDO>
F 6

$$$$
=
 OpenBabel11042418533D

 27 29  0  0  1  0  0  0  0  0999 V2000
  188.4970  172.8680  142.3540 C   0  0  0  0  0  2  0  0  0  0  0  0
  190.2110  174.1940  141.1170 C   0  0  0  0  0  1  0  0  0  0  0  0
  188.8380  174.2270  141.7650 C   0  0  2  0  0  3  0  0  0  0  0  0
  188.7720  175.2730  142.7840 N   0  0  0  0  0  2  0  0  0  0  0  0
  186.4700  175.6250  142.6690 O   0  0  0  0  0  0  0  0  0  0  0  0
  187.5750  175.9630  143.1730 C   0  0  0  0  0  0  0  0  0  0  0  0
  187.6490  177.0480  144.1180 N   0  0  0  0  0  0  0  0  0  0  0  0
  188.9720  177.5300  144.5030 C   0  0  0  0  0  1  0  0  0  0  0  0
  184.7120  177.7220  146.3480 C   0  0  0  0  0  3  0  0  0  0  0  0
  186.4760  177.6720  144.6880 C   0  0  0  0  0  0  0  0  0  0  0  0
  185.8510  177.1160  145.8170 C   0  0  0  0  0  3  0  0  0  0  0  0
  184.1980  178.8740  145.7550 C   0  0  0  0  0  3  0  0  0  0  0  0
  185.9450  178.7980  144.1310 N   0  0  0  0  0  0  0  0  0  0  0  0
  184.8360  179.4030  144.6330 C   0  0  0  0  0  3  0  0  0  0  0  0
  189.6790  172.2920  142.9780 N   0  0  0  0  0  2  0  0  0  0  0  0
  189.4340  172.2380  144.4110 C   0  0  0  0  0  2  0  0  0  0  0  0
  190.2120  173.3020  145.1120 C   0  0  0  0  0  0  0  0  0  0  0  0
  192.2550  174.5760  145.3600 C   0  0  0  0  0  0  0  0  0  0  0  0
  193.5320  174.8490  144.9900 N   0  0  0  0  0  2  0  0  0  0  0  0
  193.6640  176.5530  146.6540 C   0  0  0  0  0  3  0  0  0  0  0  0
  194.2480  175.8220  145.6160 C   0  0  0  0  0  0  0  0  0  0  0  0
  191.5280  173.5720  144.7170 C   0  0  0  0  0  3  0  0  0  0  0  0
  189.6250  174.0400  146.1480 C   0  0  0  0  0  3  0  0  0  0  0  0
  190.3490  175.0470  146.7950 C   0  0  0  0  0  3  0  0  0  0  0  0
  191.6630  175.3170  146.4050 C   0  0  0  0  0  0  0  0  0  0  0  0
  192.3840  176.2860  147.0260 N   0  0  0  0  0  0  0  0  0  0  0  0
  195.4310  176.0620  145.2610 O   0  0  0  0  0  0  0  0  0  0  0  0
  1 15  1  0  0  0  0
  3  2  1  1  0  0  0
  3  1  1  0  0  0  0
  3  4  1  0  0  0  0
  4  6  1  0  0  0  0
  5  6  2  0  0  0  0
  6  7  1  0  0  0  0
  7  8  1  0  0  0  0
  7 10  1  0  0  0  0
 10 11  2  0  0  0  0
 11  9  1  0  0  0  0
 12  9  2  0  0  0  0
 13 14  2  0  0  0  0
 13 10  1  0  0  0  0
 14 12  1  0  0  0  0
 15 16  1  0  0  0  0
 16 17  1  0  0  0  0
 17 23  1  0  0  0  0
 18 25  2  0  0  0  0
 19 18  1  0  0  0  0
 19 21  1  0  0  0  0
 20 26  2  0  0  0  0
 21 20  1  0  0  0  0
 22 17  2  0  0  0  0
 22 18  1  0  0  0  0
 23 24  2  0  0  0  0
 25 24  1  0  0  0  0
 25 26  1  0  0  0  0
 27 21  2  0  0  0  0
M  END
>  <MODEL>
2

>  <REMARK>
 VINA RESULT:      -6.6      2.563      5.556
  Name = 
  6 active torsions:
  status: ('A' for Active; 'I' for Inactive)
    1  A    between atoms: C_2  and  C_3
    2  A    between atoms: C_3  and  N_25
    3  A    between atoms: N_6  and  C_24
    4  A    between atoms: C_7  and  N_26
    5  A    between atoms: C_15  and  C_24
    6  A    between atoms: C_15  and  N_25
                            x       y       z     vdW  Elec       q    Type
                         _______ _______ _______ _____ _____    ______ ____

>  <TORSDO>
F 6

$$$$
=
 OpenBabel11042418533D

 27 29  0  0  1  0  0  0  0  0999 V2000
  190.1860  176.9850  146.1110 C   0  0  0  0  0  2  0  0  0  0  0  0
  189.9160  177.8930  143.8030 C   0  0  0  0  0  1  0  0  0  0  0  0
  190.9100  177.4170  144.8470 C   0  0  2  0  0  3  0  0  0  0  0  0
  191.7360  176.3320  144.3190 N   0  0  0  0  0  2  0  0  0  0  0  0
  193.6940  176.9000  145.4490 O   0  0  0  0  0  0  0  0  0  0  0  0
  193.1260  176.1390  144.6210 C   0  0  0  0  0  0  0  0  0  0  0  0
  193.8640  175.0920  143.9600 N   0  0  0  0  0  0  0  0  0  0  0  0
  193.2120  174.3850  142.8630 C   0  0  0  0  0  1  0  0  0  0  0  0
  196.7590  173.7180  145.9060 C   0  0  0  0  0  3  0  0  0  0  0  0
  195.2100  174.7250  144.3380 C   0  0  0  0  0  0  0  0  0  0  0  0
  195.4530  174.0550  145.5490 C   0  0  0  0  0  3  0  0  0  0  0  0
  197.8160  174.0510  145.0610 C   0  0  0  0  0  3  0  0  0  0  0  0
  196.2680  175.0380  143.5360 N   0  0  0  0  0  0  0  0  0  0  0  0
  197.5480  174.7190  143.8660 C   0  0  0  0  0  3  0  0  0  0  0  0
  189.4030  175.7880  145.8440 N   0  0  0  0  0  2  0  0  0  0  0  0
  188.3120  175.7560  146.8070 C   0  0  0  0  0  2  0  0  0  0  0  0
  187.1770  176.6020  146.3320 C   0  0  0  0  0  0  0  0  0  0  0  0
  185.7280  177.3410  144.5400 C   0  0  0  0  0  0  0  0  0  0  0  0
  185.3510  177.3160  143.2360 N   0  0  0  0  0  2  0  0  0  0  0  0
  183.6230  178.8970  143.6920 C   0  0  0  0  0  3  0  0  0  0  0  0
  184.3130  178.0770  142.7950 C   0  0  0  0  0  0  0  0  0  0  0  0
  186.7980  176.5630  144.9850 C   0  0  0  0  0  3  0  0  0  0  0  0
  186.4800  177.4180  147.2330 C   0  0  0  0  0  3  0  0  0  0  0  0
  185.4070  178.2000  146.7920 C   0  0  0  0  0  3  0  0  0  0  0  0
  185.0290  178.1660  145.4470 C   0  0  0  0  0  0  0  0  0  0  0  0
  183.9940  178.9230  144.9990 N   0  0  0  0  0  0  0  0  0  0  0  0
  183.9760  178.0420  141.5830 O   0  0  0  0  0  0  0  0  0  0  0  0
  3  2  1  6  0  0  0
  3  1  1  0  0  0  0
  4  6  1  0  0  0  0
  4  3  1  0  0  0  0
  6  5  2  0  0  0  0
  7 10  1  0  0  0  0
  7  6  1  0  0  0  0
  8  7  1  0  0  0  0
 10 11  2  0  0  0  0
 11  9  1  0  0  0  0
 12  9  2  0  0  0  0
 13 14  2  0  0  0  0
 13 10  1  0  0  0  0
 14 12  1  0  0  0  0
 15  1  1  0  0  0  0
 15 16  1  0  0  0  0
 17 16  1  0  0  0  0
 17 23  1  0  0  0  0
 18 22  1  0  0  0  0
 18 25  2  0  0  0  0
 19 18  1  0  0  0  0
 20 26  2  0  0  0  0
 21 19  1  0  0  0  0
 21 20  1  0  0  0  0
 22 17  2  0  0  0  0
 24 23  2  0  0  0  0
 25 24  1  0  0  0  0
 26 25  1  0  0  0  0
 27 21  2  0  0  0  0
M  END
>  <MODEL>
3

>  <REMARK>
 VINA RESULT:      -6.6      2.643      6.468
  Name = 
  6 active torsions:
  status: ('A' for Active; 'I' for Inactive)
    1  A    between atoms: C_2  and  C_3
    2  A    between atoms: C_3  and  N_25
    3  A    between atoms: N_6  and  C_24
    4  A    between atoms: C_7  and  N_26
    5  A    between atoms: C_15  and  C_24
    6  A    between atoms: C_15  and  N_25
                            x       y       z     vdW  Elec       q    Type
                         _______ _______ _______ _____ _____    ______ ____

>  <TORSDO>
F 6

$$$$
=
 OpenBabel11042418533D

 27 29  0  0  1  0  0  0  0  0999 V2000
  188.5950  175.2460  147.2470 C   0  0  0  0  0  2  0  0  0  0  0  0
  191.0750  175.3630  147.5060 C   0  0  0  0  0  1  0  0  0  0  0  0
  189.9340  174.8660  146.6360 C   0  0  2  0  0  3  0  0  0  0  0  0
  190.0570  175.3850  145.2750 N   0  0  0  0  0  2  0  0  0  0  0  0
  189.7890  173.3460  144.1760 O   0  0  0  0  0  0  0  0  0  0  0  0
  190.0140  174.5840  144.0860 C   0  0  0  0  0  0  0  0  0  0  0  0
  190.2480  175.1940  142.8010 N   0  0  0  0  0  0  0  0  0  0  0  0
  190.7100  176.5790  142.7770 C   0  0  0  0  0  1  0  0  0  0  0  0
  188.5870  173.6990  139.7910 C   0  0  0  0  0  3  0  0  0  0  0  0
  190.0500  174.4930  141.5530 C   0  0  0  0  0  0  0  0  0  0  0  0
  188.7660  174.3900  140.9910 C   0  0  0  0  0  3  0  0  0  0  0  0
  189.6830  173.1130  139.1590 C   0  0  0  0  0  3  0  0  0  0  0  0
  191.0990  173.9060  140.9090 N   0  0  0  0  0  0  0  0  0  0  0  0
  190.9450  173.2280  139.7400 C   0  0  0  0  0  3  0  0  0  0  0  0
  188.1720  176.5410  146.7340 N   0  0  0  0  0  2  0  0  0  0  0  0
  186.7230  176.6040  146.8500 C   0  0  0  0  0  2  0  0  0  0  0  0
  186.1220  177.1100  145.5800 C   0  0  0  0  0  0  0  0  0  0  0  0
  186.1660  177.2710  143.1660 C   0  0  0  0  0  0  0  0  0  0  0  0
  186.7480  176.9910  141.9710 N   0  0  0  0  0  2  0  0  0  0  0  0
  185.0330  178.2020  140.8380 C   0  0  0  0  0  3  0  0  0  0  0  0
  186.2050  177.4410  140.8080 C   0  0  0  0  0  0  0  0  0  0  0  0
  186.7320  176.8110  144.3570 C   0  0  0  0  0  3  0  0  0  0  0  0
  184.9430  177.8670  145.6100 C   0  0  0  0  0  3  0  0  0  0  0  0
  184.3730  178.3300  144.4200 C   0  0  0  0  0  3  0  0  0  0  0  0
  184.9810  178.0360  143.1970 C   0  0  0  0  0  0  0  0  0  0  0  0
  184.4450  178.4820  142.0310 N   0  0  0  0  0  0  0  0  0  0  0  0
  186.7560  177.1720  139.7090 O   0  0  0  0  0  0  0  0  0  0  0  0
  3  1  1  0  0  0  0
  3  2  1  1  0  0  0
  4  3  1  0  0  0  0
  6  5  2  0  0  0  0
  6  4  1  0  0  0  0
  7  6  1  0  0  0  0
  8  7  1  0  0  0  0
  9 11  1  0  0  0  0
 10  7  1  0  0  0  0
 11 10  2  0  0  0  0
 12 14  1  0  0  0  0
 12  9  2  0  0  0  0
 13 10  1  0  0  0  0
 14 13  2  0  0  0  0
 15 16  1  0  0  0  0
 15  1  1  0  0  0  0
 17 23  1  0  0  0  0
 17 16  1  0  0  0  0
 18 25  2  0  0  0  0
 18 22  1  0  0  0  0
 19 18  1  0  0  0  0
 20 26  2  0  0  0  0
 21 20  1  0  0  0  0
 21 19  1  0  0  0  0
 22 17  2  0  0  0  0
 24 23  2  0  0  0  0
 25 24  1  0  0  0  0
 26 25  1  0  0  0  0
 27 21  2  0  0  0  0
M  END
>  <MODEL>
4

>  <REMARK>
 VINA RESULT:      -6.5      2.336      5.435
  Name = 
  6 active torsions:
  status: ('A' for Active; 'I' for Inactive)
    1  A    between atoms: C_2  and  C_3
    2  A    between atoms: C_3  and  N_25
    3  A    between atoms: N_6  and  C_24
    4  A    between atoms: C_7  and  N_26
    5  A    between atoms: C_15  and  C_24
    6  A    between atoms: C_15  and  N_25
                            x       y       z     vdW  Elec       q    Type
                         _______ _______ _______ _____ _____    ______ ____

>  <TORSDO>
F 6

$$$$
=
 OpenBabel11042418533D

 27 29  0  0  1  0  0  0  0  0999 V2000
  187.7590  175.7190  140.4960 C   0  0  0  0  0  2  0  0  0  0  0  0
  187.9110  173.8070  142.0920 C   0  0  0  0  0  1  0  0  0  0  0  0
  188.6620  174.9630  141.4570 C   0  0  2  0  0  3  0  0  0  0  0  0
  189.2020  175.8550  142.4810 N   0  0  0  0  0  2  0  0  0  0  0  0
  191.1320  174.6260  142.9300 O   0  0  0  0  0  0  0  0  0  0  0  0
  190.4160  175.6250  143.2110 C   0  0  0  0  0  0  0  0  0  0  0  0
  190.7960  176.5250  144.2710 N   0  0  0  0  0  0  0  0  0  0  0  0
  189.8290  177.5340  144.6900 C   0  0  0  0  0  1  0  0  0  0  0  0
  193.4200  176.0280  146.9030 C   0  0  0  0  0  3  0  0  0  0  0  0
  192.0820  176.4610  144.9300 C   0  0  0  0  0  0  0  0  0  0  0  0
  192.1730  176.0740  146.2770 C   0  0  0  0  0  3  0  0  0  0  0  0
  194.5670  176.3700  146.1890 C   0  0  0  0  0  3  0  0  0  0  0  0
  193.2240  176.7920  144.2620 N   0  0  0  0  0  0  0  0  0  0  0  0
  194.4470  176.7540  144.8530 C   0  0  0  0  0  3  0  0  0  0  0  0
  187.6150  177.0970  140.9390 N   0  0  0  0  0  2  0  0  0  0  0  0
  186.2210  177.4720  140.7530 C   0  0  0  0  0  2  0  0  0  0  0  0
  185.5870  177.7800  142.0690 C   0  0  0  0  0  0  0  0  0  0  0  0
  185.6840  177.7790  144.4880 C   0  0  0  0  0  0  0  0  0  0  0  0
  186.3310  177.4900  145.6460 N   0  0  0  0  0  2  0  0  0  0  0  0
  184.5030  178.3720  146.9010 C   0  0  0  0  0  3  0  0  0  0  0  0
  185.7660  177.7740  146.8510 C   0  0  0  0  0  0  0  0  0  0  0  0
  186.2670  177.4790  143.2550 C   0  0  0  0  0  3  0  0  0  0  0  0
  184.3240  178.3860  142.1200 C   0  0  0  0  0  3  0  0  0  0  0  0
  183.7360  178.6880  143.3530 C   0  0  0  0  0  3  0  0  0  0  0  0
  184.4110  178.3850  144.5380 C   0  0  0  0  0  0  0  0  0  0  0  0
  183.8530  178.6660  145.7440 N   0  0  0  0  0  0  0  0  0  0  0  0
  186.3790  177.5010  147.9150 O   0  0  0  0  0  0  0  0  0  0  0  0
  1 15  1  0  0  0  0
  1  3  1  0  0  0  0
  3  2  1  1  0  0  0
  3  4  1  0  0  0  0
  4  6  1  0  0  0  0
  5  6  2  0  0  0  0
  6  7  1  0  0  0  0
  7  8  1  0  0  0  0
  7 10  1  0  0  0  0
 10 11  2  0  0  0  0
 11  9  1  0  0  0  0
 12  9  2  0  0  0  0
 13 14  2  0  0  0  0
 13 10  1  0  0  0  0
 14 12  1  0  0  0  0
 16 15  1  0  0  0  0
 16 17  1  0  0  0  0
 17 23  2  0  0  0  0
 17 22  1  0  0  0  0
 18 25  1  0  0  0  0
 18 19  1  0  0  0  0
 19 21  1  0  0  0  0
 21 20  1  0  0  0  0
 21 27  2  0  0  0  0
 22 18  2  0  0  0  0
 23 24  1  0  0  0  0
 24 25  2  0  0  0  0
 25 26  1  0  0  0  0
 26 20  2  0  0  0  0
M  END
>  <MODEL>
5

>  <REMARK>
 VINA RESULT:      -6.5      2.113      5.433
  Name = 
  6 active torsions:
  status: ('A' for Active; 'I' for Inactive)
    1  A    between atoms: C_2  and  C_3
    2  A    between atoms: C_3  and  N_25
    3  A    between atoms: N_6  and  C_24
    4  A    between atoms: C_7  and  N_26
    5  A    between atoms: C_15  and  C_24
    6  A    between atoms: C_15  and  N_25
                            x       y       z     vdW  Elec       q    Type
                         _______ _______ _______ _____ _____    ______ ____

>  <TORSDO>
F 6

$$$$
=
 OpenBabel11042418533D

 27 29  0  0  1  0  0  0  0  0999 V2000
  191.4230  174.3600  143.1940 C   0  0  0  0  0  2  0  0  0  0  0  0
  190.5540  173.8200  140.9170 C   0  0  0  0  0  1  0  0  0  0  0  0
  190.1950  174.3390  142.2980 C   0  0  2  0  0  3  0  0  0  0  0  0
  189.5870  175.6660  142.2100 N   0  0  0  0  0  2  0  0  0  0  0  0
  187.3990  174.9450  141.8520 O   0  0  0  0  0  0  0  0  0  0  0  0
  188.1980  175.9150  141.9510 C   0  0  0  0  0  0  0  0  0  0  0  0
  187.7320  177.2690  141.7850 N   0  0  0  0  0  0  0  0  0  0  0  0
  188.7300  178.3290  141.7000 C   0  0  0  0  0  1  0  0  0  0  0  0
  184.1640  177.9060  142.7430 C   0  0  0  0  0  3  0  0  0  0  0  0
  186.3290  177.6090  141.6980 C   0  0  0  0  0  0  0  0  0  0  0  0
  185.5180  177.5870  142.8450 C   0  0  0  0  0  3  0  0  0  0  0  0
  183.6210  178.2400  141.5030 C   0  0  0  0  0  3  0  0  0  0  0  0
  185.7650  177.9380  140.5000 N   0  0  0  0  0  0  0  0  0  0  0  0
  184.4480  178.2500  140.3800 C   0  0  0  0  0  3  0  0  0  0  0  0
  191.7260  175.7300  143.5800 N   0  0  0  0  0  2  0  0  0  0  0  0
  191.8600  175.7560  145.0290 C   0  0  0  0  0  2  0  0  0  0  0  0
  190.5180  175.8780  145.6710 C   0  0  0  0  0  0  0  0  0  0  0  0
  188.4340  177.0790  145.9470 C   0  0  0  0  0  0  0  0  0  0  0  0
  187.6270  178.1310  145.6560 N   0  0  0  0  0  2  0  0  0  0  0  0
  185.9580  177.2760  147.1310 C   0  0  0  0  0  3  0  0  0  0  0  0
  186.3990  178.2480  146.2290 C   0  0  0  0  0  0  0  0  0  0  0  0
  189.6960  176.9680  145.3590 C   0  0  0  0  0  3  0  0  0  0  0  0
  190.0730  174.8990  146.5700 C   0  0  0  0  0  3  0  0  0  0  0  0
  188.8100  175.0060  147.1610 C   0  0  0  0  0  3  0  0  0  0  0  0
  187.9890  176.0940  146.8530 C   0  0  0  0  0  0  0  0  0  0  0  0
  186.7620  176.2180  147.4230 N   0  0  0  0  0  0  0  0  0  0  0  0
  185.6630  179.2290  145.9480 O   0  0  0  0  0  0  0  0  0  0  0  0
  1 15  1  0  0  0  0
  3  2  1  6  0  0  0
  3  1  1  0  0  0  0
  4  3  1  0  0  0  0
  5  6  2  0  0  0  0
  6  4  1  0  0  0  0
  7  6  1  0  0  0  0
  8  7  1  0  0  0  0
  9 11  1  0  0  0  0
 10  7  1  0  0  0  0
 10 11  2  0  0  0  0
 12  9  2  0  0  0  0
 13 10  1  0  0  0  0
 14 13  2  0  0  0  0
 14 12  1  0  0  0  0
 15 16  1  0  0  0  0
 16 17  1  0  0  0  0
 17 23  1  0  0  0  0
 18 25  2  0  0  0  0
 19 18  1  0  0  0  0
 19 21  1  0  0  0  0
 20 26  2  0  0  0  0
 21 20  1  0  0  0  0
 22 17  2  0  0  0  0
 22 18  1  0  0  0  0
 23 24  2  0  0  0  0
 25 24  1  0  0  0  0
 25 26  1  0  0  0  0
 27 21  2  0  0  0  0
M  END
>  <MODEL>
6

>  <REMARK>
 VINA RESULT:      -6.5      1.994      4.629
  Name = 
  6 active torsions:
  status: ('A' for Active; 'I' for Inactive)
    1  A    between atoms: C_2  and  C_3
    2  A    between atoms: C_3  and  N_25
    3  A    between atoms: N_6  and  C_24
    4  A    between atoms: C_7  and  N_26
    5  A    between atoms: C_15  and  C_24
    6  A    between atoms: C_15  and  N_25
                            x       y       z     vdW  Elec       q    Type
                         _______ _______ _______ _____ _____    ______ ____

>  <TORSDO>
F 6

$$$$
=
 OpenBabel11042418533D

 27 29  0  0  1  0  0  0  0  0999 V2000
  192.7350  176.2740  145.8800 C   0  0  0  0  0  2  0  0  0  0  0  0
  191.2690  175.3650  147.6830 C   0  0  0  0  0  1  0  0  0  0  0  0
  191.4400  176.4670  146.6530 C   0  0  2  0  0  3  0  0  0  0  0  0
  190.2920  176.5130  145.7480 N   0  0  0  0  0  2  0  0  0  0  0  0
  188.8290  177.5850  147.2150 O   0  0  0  0  0  0  0  0  0  0  0  0
  189.0030  177.0470  146.0870 C   0  0  0  0  0  0  0  0  0  0  0  0
  187.9160  176.9460  145.1470 N   0  0  0  0  0  0  0  0  0  0  0  0
  188.1190  176.1320  143.9530 C   0  0  0  0  0  1  0  0  0  0  0  0
  184.4610  177.7140  146.3830 C   0  0  0  0  0  3  0  0  0  0  0  0
  186.6470  177.6110  145.3430 C   0  0  0  0  0  0  0  0  0  0  0  0
  185.6860  177.0680  146.2130 C   0  0  0  0  0  3  0  0  0  0  0  0
  184.1950  178.8910  145.6860 C   0  0  0  0  0  3  0  0  0  0  0  0
  186.3530  178.7630  144.6740 N   0  0  0  0  0  0  0  0  0  0  0  0
  185.1650  179.4060  144.8260 C   0  0  0  0  0  3  0  0  0  0  0  0
  193.1570  174.8850  145.9680 N   0  0  0  0  0  2  0  0  0  0  0  0
  193.3460  174.3990  144.6090 C   0  0  0  0  0  2  0  0  0  0  0  0
  192.0570  173.8890  144.0560 C   0  0  0  0  0  0  0  0  0  0  0  0
  190.4110  173.8560  142.2810 C   0  0  0  0  0  0  0  0  0  0  0  0
  189.9630  174.2860  141.0740 N   0  0  0  0  0  2  0  0  0  0  0  0
  188.0400  172.8890  141.2750 C   0  0  0  0  0  3  0  0  0  0  0  0
  188.7940  173.8220  140.5570 C   0  0  0  0  0  0  0  0  0  0  0  0
  191.6100  174.3410  142.8090 C   0  0  0  0  0  3  0  0  0  0  0  0
  191.3040  172.9480  144.7720 C   0  0  0  0  0  3  0  0  0  0  0  0
  190.1030  172.4600  144.2480 C   0  0  0  0  0  3  0  0  0  0  0  0
  189.6530  172.9110  143.0050 C   0  0  0  0  0  0  0  0  0  0  0  0
  188.4860  172.4530  142.4830 N   0  0  0  0  0  0  0  0  0  0  0  0
  188.3930  174.2310  139.4370 O   0  0  0  0  0  0  0  0  0  0  0  0
  1 15  1  0  0  0  0
  1  3  1  0  0  0  0
  3  2  1  1  0  0  0
  4  6  1  0  0  0  0
  4  3  1  0  0  0  0
  6  5  2  0  0  0  0
  7 10  1  0  0  0  0
  7  6  1  0  0  0  0
  8  7  1  0  0  0  0
 10 11  2  0  0  0  0
 11  9  1  0  0  0  0
 12  9  2  0  0  0  0
 13 14  2  0  0  0  0
 13 10  1  0  0  0  0
 14 12  1  0  0  0  0
 16 15  1  0  0  0  0
 17 16  1  0  0  0  0
 17 23  1  0  0  0  0
 18 22  1  0  0  0  0
 18 25  2  0  0  0  0
 19 18  1  0  0  0  0
 20 26  2  0  0  0  0
 21 19  1  0  0  0  0
 21 20  1  0  0  0  0
 22 17  2  0  0  0  0
 24 23  2  0  0  0  0
 25 24  1  0  0  0  0
 26 25  1  0  0  0  0
 27 21  2  0  0  0  0
M  END
>  <MODEL>
7

>  <REMARK>
 VINA RESULT:      -6.4      2.628      3.813
  Name = 
  6 active torsions:
  status: ('A' for Active; 'I' for Inactive)
    1  A    between atoms: C_2  and  C_3
    2  A    between atoms: C_3  and  N_25
    3  A    between atoms: N_6  and  C_24
    4  A    between atoms: C_7  and  N_26
    5  A    between atoms: C_15  and  C_24
    6  A    between atoms: C_15  and  N_25
                            x       y       z     vdW  Elec       q    Type
                         _______ _______ _______ _____ _____    ______ ____

>  <TORSDO>
F 6

$$$$
=
 OpenBabel11042418533D

 27 29  0  0  1  0  0  0  0  0999 V2000
  187.8630  173.0340  142.0100 C   0  0  0  0  0  2  0  0  0  0  0  0
  189.3840  174.1610  140.3840 C   0  0  0  0  0  1  0  0  0  0  0  0
  188.2340  174.3550  141.3560 C   0  0  2  0  0  3  0  0  0  0  0  0
  188.5710  175.3610  142.3620 N   0  0  0  0  0  2  0  0  0  0  0  0
  186.3890  175.7970  143.0580 O   0  0  0  0  0  0  0  0  0  0  0  0
  187.6140  176.0770  143.1580 C   0  0  0  0  0  0  0  0  0  0  0  0
  188.0590  177.1210  144.0460 N   0  0  0  0  0  0  0  0  0  0  0  0
  189.4540  177.5410  143.9630 C   0  0  0  0  0  1  0  0  0  0  0  0
  185.4520  179.3750  145.5220 C   0  0  0  0  0  3  0  0  0  0  0  0
  187.1830  177.7610  145.0020 C   0  0  0  0  0  0  0  0  0  0  0  0
  186.2830  178.7570  144.5870 C   0  0  0  0  0  3  0  0  0  0  0  0
  185.5220  179.0040  146.8640 C   0  0  0  0  0  3  0  0  0  0  0  0
  187.2270  177.4240  146.3230 N   0  0  0  0  0  0  0  0  0  0  0  0
  186.4270  178.0150  147.2500 C   0  0  0  0  0  3  0  0  0  0  0  0
  189.0360  172.1760  142.0850 N   0  0  0  0  0  2  0  0  0  0  0  0
  189.2980  171.9180  143.4930 C   0  0  0  0  0  2  0  0  0  0  0  0
  190.2910  172.8980  144.0240 C   0  0  0  0  0  0  0  0  0  0  0  0
  190.9200  174.5460  145.6820 C   0  0  0  0  0  0  0  0  0  0  0  0
  190.6400  175.2730  146.7940 N   0  0  0  0  0  2  0  0  0  0  0  0
  192.7720  176.3350  146.6520 C   0  0  0  0  0  3  0  0  0  0  0  0
  191.5410  176.1630  147.2910 C   0  0  0  0  0  0  0  0  0  0  0  0
  189.9890  173.6380  145.1730 C   0  0  0  0  0  3  0  0  0  0  0  0
  191.5280  173.0660  143.3870 C   0  0  0  0  0  3  0  0  0  0  0  0
  192.4640  173.9740  143.8930 C   0  0  0  0  0  3  0  0  0  0  0  0
  192.1640  174.7160  145.0380 C   0  0  0  0  0  0  0  0  0  0  0  0
  193.0580  175.6070  145.5400 N   0  0  0  0  0  0  0  0  0  0  0  0
  191.2660  176.8280  148.3230 O   0  0  0  0  0  0  0  0  0  0  0  0
  1 15  1  0  0  0  0
  3  2  1  6  0  0  0
  3  1  1  0  0  0  0
  3  4  1  0  0  0  0
  4  6  1  0  0  0  0
  5  6  2  0  0  0  0
  6  7  1  0  0  0  0
  7 10  1  0  0  0  0
  8  7  1  0  0  0  0
  9 12  1  0  0  0  0
 10 13  2  0  0  0  0
 11 10  1  0  0  0  0
 11  9  2  0  0  0  0
 12 14  2  0  0  0  0
 13 14  1  0  0  0  0
 15 16  1  0  0  0  0
 16 17  1  0  0  0  0
 17 22  1  0  0  0  0
 18 19  1  0  0  0  0
 19 21  1  0  0  0  0
 20 21  1  0  0  0  0
 21 27  2  0  0  0  0
 22 18  2  0  0  0  0
 23 24  1  0  0  0  0
 23 17  2  0  0  0  0
 24 25  2  0  0  0  0
 25 26  1  0  0  0  0
 25 18  1  0  0  0  0
 26 20  2  0  0  0  0
M  END
>  <MODEL>
8

>  <REMARK>
 VINA RESULT:      -6.4      2.411      5.171
  Name = 
  6 active torsions:
  status: ('A' for Active; 'I' for Inactive)
    1  A    between atoms: C_2  and  C_3
    2  A    between atoms: C_3  and  N_25
    3  A    between atoms: N_6  and  C_24
    4  A    between atoms: C_7  and  N_26
    5  A    between atoms: C_15  and  C_24
    6  A    between atoms: C_15  and  N_25
                            x       y       z     vdW  Elec       q    Type
                         _______ _______ _______ _____ _____    ______ ____

>  <TORSDO>
F 6

$$$$
=
 OpenBabel11042418533D

 27 29  0  0  1  0  0  0  0  0999 V2000
  188.7820  175.5470  147.1160 C   0  0  0  0  0  2  0  0  0  0  0  0
  191.2100  175.7580  147.6510 C   0  0  0  0  0  1  0  0  0  0  0  0
  190.1880  175.1130  146.7330 C   0  0  2  0  0  3  0  0  0  0  0  0
  190.4720  175.4320  145.3350 N   0  0  0  0  0  2  0  0  0  0  0  0
  189.5500  173.4980  144.4160 O   0  0  0  0  0  0  0  0  0  0  0  0
  190.1680  174.5790  144.2210 C   0  0  0  0  0  0  0  0  0  0  0  0
  190.5890  174.9550  142.8950 N   0  0  0  0  0  0  0  0  0  0  0  0
  191.4780  176.1040  142.7610 C   0  0  0  0  0  1  0  0  0  0  0  0
  188.5650  173.8650  139.9330 C   0  0  0  0  0  3  0  0  0  0  0  0
  190.1700  174.2420  141.7090 C   0  0  0  0  0  0  0  0  0  0  0  0
  188.9620  174.5700  141.0700 C   0  0  0  0  0  3  0  0  0  0  0  0
  189.3660  172.8370  139.4400 C   0  0  0  0  0  3  0  0  0  0  0  0
  190.9280  173.2290  141.2010 N   0  0  0  0  0  0  0  0  0  0  0  0
  190.5580  172.5290  140.0950 C   0  0  0  0  0  3  0  0  0  0  0  0
  188.5850  176.9440  146.7600 N   0  0  0  0  0  2  0  0  0  0  0  0
  187.1640  177.1360  146.5110 C   0  0  0  0  0  2  0  0  0  0  0  0
  186.9230  177.4010  145.0620 C   0  0  0  0  0  0  0  0  0  0  0  0
  185.3810  177.7920  143.2370 C   0  0  0  0  0  0  0  0  0  0  0  0
  184.1150  177.9160  142.7630 N   0  0  0  0  0  2  0  0  0  0  0  0
  184.9610  178.2970  140.5660 C   0  0  0  0  0  3  0  0  0  0  0  0
  183.8840  178.1660  141.4470 C   0  0  0  0  0  0  0  0  0  0  0  0
  185.6110  177.5290  144.5890 C   0  0  0  0  0  3  0  0  0  0  0  0
  188.0030  177.5390  144.1800 C   0  0  0  0  0  3  0  0  0  0  0  0
  187.7770  177.8010  142.8250 C   0  0  0  0  0  3  0  0  0  0  0  0
  186.4690  177.9270  142.3500 C   0  0  0  0  0  0  0  0  0  0  0  0
  186.2310  178.1760  141.0360 N   0  0  0  0  0  0  0  0  0  0  0  0
  182.7040  178.2790  141.0240 O   0  0  0  0  0  0  0  0  0  0  0  0
  3  1  1  0  0  0  0
  3  2  1  1  0  0  0
  4  3  1  0  0  0  0
  6  5  2  0  0  0  0
  6  4  1  0  0  0  0
  7  6  1  0  0  0  0
  8  7  1  0  0  0  0
  9 11  1  0  0  0  0
 10  7  1  0  0  0  0
 11 10  2  0  0  0  0
 12  9  2  0  0  0  0
 12 14  1  0  0  0  0
 13 10  1  0  0  0  0
 14 13  2  0  0  0  0
 15  1  1  0  0  0  0
 16 15  1  0  0  0  0
 17 16  1  0  0  0  0
 18 22  2  0  0  0  0
 19 18  1  0  0  0  0
 20 26  2  0  0  0  0
 20 21  1  0  0  0  0
 21 19  1  0  0  0  0
 22 17  1  0  0  0  0
 23 17  2  0  0  0  0
 24 23  1  0  0  0  0
 25 24  2  0  0  0  0
 25 18  1  0  0  0  0
 26 25  1  0  0  0  0
 27 21  2  0  0  0  0
M  END
>  <MODEL>
9

>  <REMARK>
 VINA RESULT:      -6.4      2.304      5.235
  Name = 
  6 active torsions:
  status: ('A' for Active; 'I' for Inactive)
    1  A    between atoms: C_2  and  C_3
    2  A    between atoms: C_3  and  N_25
    3  A    between atoms: N_6  and  C_24
    4  A    between atoms: C_7  and  N_26
    5  A    between atoms: C_15  and  C_24
    6  A    between atoms: C_15  and  N_25
                            x       y       z     vdW  Elec       q    Type
                         _______ _______ _______ _____ _____    ______ ____

>  <TORSDO>
F 6

$$$$
