=
 OpenBabel11042419003D

 41 45  0  0  1  0  0  0  0  0999 V2000
  190.2810  173.4200  140.9870 C   0  0  0  0  0  0  0  0  0  0  0  0
  192.1310  174.2880  142.3440 C   0  0  0  0  0  0  0  0  0  0  0  0
  191.3950  172.2710  139.0610 C   0  0  0  0  0  2  0  0  0  0  0  0
  190.1810  172.7490  138.2450 C   0  0  0  0  0  2  0  0  0  0  0  0
  192.4010  172.0990  141.3580 C   0  0  0  0  0  0  0  0  0  0  0  0
  187.8350  173.0470  141.2670 C   0  0  0  0  0  1  0  0  0  0  0  0
  191.1370  172.2500  140.5730 C   0  0  0  0  0  0  0  0  0  0  0  0
  192.8220  175.2470  142.9960 C   0  0  2  0  0  3  0  0  0  0  0  0
  188.9250  173.5010  140.3130 C   0  0  2  0  0  3  0  0  0  0  0  0
  191.2110  177.2220  143.1250 C   0  0  0  0  0  3  0  0  0  0  0  0
  187.8160  173.1000  138.2240 O   0  0  0  0  0  1  0  0  0  0  0  0
  190.7420  174.4070  141.7950 C   0  0  0  0  0  0  0  0  0  0  0  0
  188.8680  172.6610  139.0280 C   0  0  1  0  0  3  0  0  0  0  0  0
  192.3990  176.6440  143.2160 C   0  0  0  0  0  3  0  0  0  0  0  0
  189.7700  175.4500  142.1740 C   0  0  0  0  0  3  0  0  0  0  0  0
  189.9330  176.6260  142.7640 C   0  0  0  0  0  0  0  0  0  0  0  0
  193.1640  170.9040  141.2370 N   0  0  0  0  0  1  0  0  0  0  0  0
  192.8220  173.0450  142.1360 N   0  0  0  0  0  0  0  0  0  0  0  0
  194.1390  174.9070  143.4590 N   0  0  0  0  0  2  0  0  0  0  0  0
  195.3840  175.1780  145.5420 C   0  0  1  0  0  3  0  0  0  0  0  0
  193.1480  174.1830  145.5410 C   0  0  0  0  0  2  0  0  0  0  0  0
  196.2740  174.3790  146.2600 O   0  0  0  0  0  1  0  0  0  0  0  0
  194.4350  174.2840  144.7420 C   0  0  1  0  0  3  0  0  0  0  0  0
  193.2220  175.3040  146.5120 C   0  0  0  0  0  0  0  0  0  0  0  0
  192.2410  175.6400  147.3540 C   0  0  0  0  0  3  0  0  0  0  0  0
  194.5390  175.9870  146.5120 C   0  0  2  0  0  3  0  0  0  0  0  0
  194.3970  177.4090  145.9940 C   0  0  0  0  0  1  0  0  0  0  0  0
  190.9150  174.9970  147.3750 C   0  0  0  0  0  3  0  0  0  0  0  0
  189.7600  175.5380  146.9600 C   0  0  0  0  0  3  0  0  0  0  0  0
  188.3830  177.5840  146.6940 C   0  0  0  0  0  2  0  0  0  0  0  0
  189.5170  176.9210  146.5020 C   0  0  0  0  0  3  0  0  0  0  0  0
  188.7180  177.4670  142.9840 C   0  0  0  0  0  2  0  0  0  0  0  0
  187.2260  177.7430  141.0840 N   0  0  0  0  0  0  0  0  0  0  0  0
  187.5060  176.9070  142.2460 C   0  0  2  0  0  3  0  0  0  0  0  0
  186.0800  178.2890  141.1690 N   0  0  0  0  0  0  0  0  0  0  0  0
  185.4510  177.8930  142.3770 C   0  0  0  0  0  0  0  0  0  0  0  0
  186.2530  177.0750  143.0470 C   0  0  0  0  0  0  0  0  0  0  0  0
  185.9410  176.3740  144.3280 C   0  0  0  0  0  1  0  0  0  0  0  0
  183.1050  178.0890  142.0170 O   0  0  0  0  0  0  0  0  0  0  0  0
  184.0960  178.3300  142.7560 C   0  0  0  0  0  0  0  0  0  0  0  0
  183.8990  179.0400  143.9740 N   0  0  0  0  0  1  0  0  0  0  0  0
  1 12  1  0  0  0  0
  2  8  1  0  0  0  0
  3  7  1  0  0  0  0
  4 13  1  0  0  0  0
  4  3  1  0  0  0  0
  5 18  2  0  0  0  0
  7  1  2  0  0  0  0
  7  5  1  0  0  0  0
  8 14  1  0  0  0  0
  8 19  1  6  0  0  0
  9  1  1  0  0  0  0
  9  6  1  1  0  0  0
 10 14  2  0  0  0  0
 12 15  1  0  0  0  0
 12  2  2  0  0  0  0
 13 11  1  6  0  0  0
 13  9  1  0  0  0  0
 15 16  2  0  0  0  0
 16 32  1  0  0  0  0
 16 10  1  0  0  0  0
 17  5  1  0  0  0  0
 18  2  1  0  0  0  0
 20 22  1  1  0  0  0
 20 26  1  0  0  0  0
 21 24  1  0  0  0  0
 23 19  1  6  0  0  0
 23 21  1  0  0  0  0
 23 20  1  0  0  0  0
 24 25  2  0  0  0  0
 25 28  1  0  0  0  0
 26 27  1  6  0  0  0
 26 24  1  0  0  0  0
 29 28  2  0  0  0  0
 31 30  2  0  0  0  0
 31 29  1  0  0  0  0
 33 35  2  0  0  0  0
 33 34  1  0  0  0  0
 34 32  1  1  0  0  0
 34 37  1  0  0  0  0
 35 36  1  0  0  0  0
 36 40  1  0  0  0  0
 36 37  2  0  0  0  0
 37 38  1  0  0  0  0
 39 40  2  0  0  0  0
 40 41  1  0  0  0  0
M  END
>  <MODEL>
1

>  <REMARK>
 VINA RESULT:      -8.3      0.000      0.000
  Name = 
  7 active torsions:
  status: ('A' for Active; 'I' for Inactive)
    1  A    between atoms: C_10  and  C_25
    2  A    between atoms: C_12  and  C_17
    3  A    between atoms: C_16  and  N_21
    4  A    between atoms: N_21  and  C_23
    5  A    between atoms: C_25  and  C_37
    6  A    between atoms: C_32  and  C_35
    7  A    between atoms: C_34  and  C_38
                            x       y       z     vdW  Elec       q    Type
                         _______ _______ _______ _____ _____    ______ ____

>  <TORSDO>
F 7

$$$$
=
 OpenBabel11042419003D

 41 45  0  0  1  0  0  0  0  0999 V2000
  190.7230  173.0600  142.4310 C   0  0  0  0  0  0  0  0  0  0  0  0
  192.2290  173.8950  144.1760 C   0  0  0  0  0  0  0  0  0  0  0  0
  192.0200  171.2460  141.2920 C   0  0  0  0  0  2  0  0  0  0  0  0
  191.2910  171.7070  140.0160 C   0  0  0  0  0  2  0  0  0  0  0  0
  192.1880  171.5120  143.7850 C   0  0  0  0  0  0  0  0  0  0  0  0
  188.3030  173.2450  141.8700 C   0  0  0  0  0  1  0  0  0  0  0  0
  191.3150  171.6810  142.5820 C   0  0  0  0  0  0  0  0  0  0  0  0
  192.9190  174.8460  144.8420 C   0  0  2  0  0  3  0  0  0  0  0  0
  189.7140  173.2110  141.3090 C   0  0  2  0  0  3  0  0  0  0  0  0
  191.9420  177.0500  144.0050 C   0  0  0  0  0  3  0  0  0  0  0  0
  189.2340  172.4790  139.0750 O   0  0  0  0  0  1  0  0  0  0  0  0
  191.1620  174.1220  143.1500 C   0  0  0  0  0  0  0  0  0  0  0  0
  189.8290  172.0820  140.2730 C   0  0  1  0  0  3  0  0  0  0  0  0
  192.8420  176.3040  144.6270 C   0  0  0  0  0  3  0  0  0  0  0  0
  190.4400  175.3930  142.9480 C   0  0  0  0  0  3  0  0  0  0  0  0
  190.7250  176.6320  143.3250 C   0  0  0  0  0  0  0  0  0  0  0  0
  192.5990  170.2060  144.1750 N   0  0  0  0  0  1  0  0  0  0  0  0
  192.5890  172.5350  144.4710 N   0  0  0  0  0  0  0  0  0  0  0  0
  193.8880  174.4010  145.8050 N   0  0  0  0  0  2  0  0  0  0  0  0
  196.1770  173.5510  145.8100 C   0  0  1  0  0  3  0  0  0  0  0  0
  195.5910  175.5600  144.5420 C   0  0  0  0  0  2  0  0  0  0  0  0
  197.3040  173.7830  146.5980 O   0  0  0  0  0  1  0  0  0  0  0  0
  195.2900  174.7970  145.8190 C   0  0  1  0  0  3  0  0  0  0  0  0
  196.2840  174.5760  143.6730 C   0  0  0  0  0  0  0  0  0  0  0  0
  196.6440  174.8090  142.4080 C   0  0  0  0  0  3  0  0  0  0  0  0
  196.6090  173.3100  144.3730 C   0  0  2  0  0  3  0  0  0  0  0  0
  195.8040  172.1600  143.7890 C   0  0  0  0  0  1  0  0  0  0  0  0
  196.3270  176.0460  141.6720 C   0  0  0  0  0  3  0  0  0  0  0  0
  195.1290  176.3990  141.1850 C   0  0  0  0  0  3  0  0  0  0  0  0
  193.6560  174.6010  140.3180 C   0  0  0  0  0  2  0  0  0  0  0  0
  193.8870  175.6000  141.1620 C   0  0  0  0  0  3  0  0  0  0  0  0
  189.7760  177.7140  142.9270 C   0  0  0  0  0  2  0  0  0  0  0  0
  187.8470  177.7070  141.4480 N   0  0  0  0  0  0  0  0  0  0  0  0
  188.3680  177.1720  142.7000 C   0  0  2  0  0  3  0  0  0  0  0  0
  186.8150  178.4250  141.6420 N   0  0  0  0  0  0  0  0  0  0  0  0
  186.5120  178.4600  143.0270 C   0  0  0  0  0  0  0  0  0  0  0  0
  187.4000  177.7330  143.6940 C   0  0  0  0  0  0  0  0  0  0  0  0
  187.3970  177.4480  145.1600 C   0  0  0  0  0  1  0  0  0  0  0  0
  185.4890  180.3000  144.1410 O   0  0  0  0  0  0  0  0  0  0  0  0
  185.3510  179.1820  143.5770 C   0  0  0  0  0  0  0  0  0  0  0  0
  184.0510  178.6090  143.4780 N   0  0  0  0  0  1  0  0  0  0  0  0
  1  7  2  0  0  0  0
  1 12  1  0  0  0  0
  2 18  1  0  0  0  0
  2  8  1  0  0  0  0
  3  7  1  0  0  0  0
  4 13  1  0  0  0  0
  4  3  1  0  0  0  0
  5 17  1  0  0  0  0
  5 18  2  0  0  0  0
  7  5  1  0  0  0  0
  8 19  1  6  0  0  0
  9  6  1  1  0  0  0
  9  1  1  0  0  0  0
 10 14  2  0  0  0  0
 12  2  2  0  0  0  0
 13 11  1  6  0  0  0
 13  9  1  0  0  0  0
 14  8  1  0  0  0  0
 15 12  1  0  0  0  0
 15 16  2  0  0  0  0
 16 10  1  0  0  0  0
 20 23  1  0  0  0  0
 20 22  1  1  0  0  0
 21 23  1  0  0  0  0
 23 19  1  6  0  0  0
 24 26  1  0  0  0  0
 24 21  1  0  0  0  0
 25 24  2  0  0  0  0
 26 27  1  6  0  0  0
 26 20  1  0  0  0  0
 28 25  1  0  0  0  0
 29 28  2  0  0  0  0
 30 31  2  0  0  0  0
 31 29  1  0  0  0  0
 32 16  1  0  0  0  0
 33 35  2  0  0  0  0
 33 34  1  0  0  0  0
 34 32  1  1  0  0  0
 34 37  1  0  0  0  0
 35 36  1  0  0  0  0
 36 40  1  0  0  0  0
 36 37  2  0  0  0  0
 37 38  1  0  0  0  0
 40 39  2  0  0  0  0
 41 40  1  0  0  0  0
M  END
>  <MODEL>
2

>  <REMARK>
 VINA RESULT:      -7.7      1.909      3.423
  Name = 
  7 active torsions:
  status: ('A' for Active; 'I' for Inactive)
    1  A    between atoms: C_10  and  C_25
    2  A    between atoms: C_12  and  C_17
    3  A    between atoms: C_16  and  N_21
    4  A    between atoms: N_21  and  C_23
    5  A    between atoms: C_25  and  C_37
    6  A    between atoms: C_32  and  C_35
    7  A    between atoms: C_34  and  C_38
                            x       y       z     vdW  Elec       q    Type
                         _______ _______ _______ _____ _____    ______ ____

>  <TORSDO>
F 7

$$$$
=
 OpenBabel11042419003D

 41 45  0  0  1  0  0  0  0  0999 V2000
  190.8250  172.3360  140.0770 C   0  0  0  0  0  0  0  0  0  0  0  0
  189.3140  173.9260  141.1760 C   0  0  0  0  0  0  0  0  0  0  0  0
  189.4190  171.2430  138.3170 C   0  0  0  0  0  2  0  0  0  0  0  0
  190.2590  169.9870  138.6120 C   0  0  0  0  0  2  0  0  0  0  0  0
  189.1410  173.6980  138.7770 C   0  0  0  0  0  0  0  0  0  0  0  0
  193.2780  171.9150  139.9910 C   0  0  0  0  0  1  0  0  0  0  0  0
  190.0920  172.5420  138.7750 C   0  0  0  0  0  0  0  0  0  0  0  0
  188.6860  174.4820  142.2330 C   0  0  2  0  0  3  0  0  0  0  0  0
  191.9040  171.2710  140.0500 C   0  0  2  0  0  3  0  0  0  0  0  0
  189.9210  173.5620  144.2690 C   0  0  0  0  0  3  0  0  0  0  0  0
  192.4310  169.1250  139.1160 O   0  0  0  0  0  1  0  0  0  0  0  0
  190.4540  172.9540  141.2260 C   0  0  0  0  0  0  0  0  0  0  0  0
  191.7350  170.3080  138.8650 C   0  0  1  0  0  3  0  0  0  0  0  0
  188.9190  174.1750  143.6580 C   0  0  0  0  0  3  0  0  0  0  0  0
  191.3080  172.7130  142.4040 C   0  0  0  0  0  3  0  0  0  0  0  0
  191.1260  172.9880  143.6890 C   0  0  0  0  0  0  0  0  0  0  0  0
  188.5820  174.1480  137.5480 N   0  0  0  0  0  1  0  0  0  0  0  0
  188.8060  174.2870  139.8800 N   0  0  0  0  0  0  0  0  0  0  0  0
  187.6270  175.4110  141.9530 N   0  0  0  0  0  2  0  0  0  0  0  0
  186.8510  177.5330  142.8800 C   0  0  1  0  0  3  0  0  0  0  0  0
  189.2040  177.2120  142.2900 C   0  0  0  0  0  2  0  0  0  0  0  0
  186.3680  178.7220  142.3320 O   0  0  0  0  0  1  0  0  0  0  0  0
  187.7880  176.8580  141.8760 C   0  0  1  0  0  3  0  0  0  0  0  0
  189.0760  177.6940  143.6880 C   0  0  0  0  0  0  0  0  0  0  0  0
  190.1070  178.0220  144.4710 C   0  0  0  0  0  3  0  0  0  0  0  0
  187.6670  177.8480  144.1230 C   0  0  2  0  0  3  0  0  0  0  0  0
  187.3350  176.8410  145.2130 C   0  0  0  0  0  1  0  0  0  0  0  0
  191.5210  177.8690  144.0830 C   0  0  0  0  0  3  0  0  0  0  0  0
  192.4010  177.0000  144.6010 C   0  0  0  0  0  3  0  0  0  0  0  0
  193.1860  175.6630  146.5370 C   0  0  0  0  0  2  0  0  0  0  0  0
  192.2080  176.0850  145.7440 C   0  0  0  0  0  3  0  0  0  0  0  0
  192.1980  172.5780  144.6440 C   0  0  0  0  0  2  0  0  0  0  0  0
  193.9050  170.8470  144.6340 N   0  0  0  0  0  0  0  0  0  0  0  0
  193.4170  172.0190  143.9160 C   0  0  2  0  0  3  0  0  0  0  0  0
  195.0860  171.0280  145.0710 N   0  0  0  0  0  0  0  0  0  0  0  0
  195.5380  172.3220  144.7050 C   0  0  0  0  0  0  0  0  0  0  0  0
  194.5880  172.9460  144.0200 C   0  0  0  0  0  0  0  0  0  0  0  0
  194.6860  174.2950  143.3870 C   0  0  0  0  0  1  0  0  0  0  0  0
  197.8440  172.6830  144.2320 O   0  0  0  0  0  0  0  0  0  0  0  0
  196.8830  172.8250  145.0340 C   0  0  0  0  0  0  0  0  0  0  0  0
  197.1070  173.4780  146.2790 N   0  0  0  0  0  1  0  0  0  0  0  0
  1 12  1  0  0  0  0
  2 12  2  0  0  0  0
  2  8  1  0  0  0  0
  3  4  1  0  0  0  0
  3  7  1  0  0  0  0
  4 13  1  0  0  0  0
  5 18  2  0  0  0  0
  7  5  1  0  0  0  0
  7  1  2  0  0  0  0
  8 19  1  6  0  0  0
  8 14  1  0  0  0  0
  9  6  1  6  0  0  0
  9  1  1  0  0  0  0
 12 15  1  0  0  0  0
 13 11  1  1  0  0  0
 13  9  1  0  0  0  0
 14 10  2  0  0  0  0
 15 16  2  0  0  0  0
 16 10  1  0  0  0  0
 16 32  1  0  0  0  0
 17  5  1  0  0  0  0
 18  2  1  0  0  0  0
 20 22  1  6  0  0  0
 20 26  1  0  0  0  0
 21 24  1  0  0  0  0
 23 19  1  1  0  0  0
 23 21  1  0  0  0  0
 23 20  1  0  0  0  0
 24 26  1  0  0  0  0
 24 25  2  0  0  0  0
 26 27  1  1  0  0  0
 28 25  1  0  0  0  0
 28 29  2  0  0  0  0
 29 31  1  0  0  0  0
 31 30  2  0  0  0  0
 33 35  2  0  0  0  0
 34 37  1  0  0  0  0
 34 33  1  0  0  0  0
 34 32  1  1  0  0  0
 36 40  1  0  0  0  0
 36 35  1  0  0  0  0
 37 36  2  0  0  0  0
 38 37  1  0  0  0  0
 39 40  2  0  0  0  0
 40 41  1  0  0  0  0
M  END
>  <MODEL>
3

>  <REMARK>
 VINA RESULT:      -7.6      2.445      7.329
  Name = 
  7 active torsions:
  status: ('A' for Active; 'I' for Inactive)
    1  A    between atoms: C_10  and  C_25
    2  A    between atoms: C_12  and  C_17
    3  A    between atoms: C_16  and  N_21
    4  A    between atoms: N_21  and  C_23
    5  A    between atoms: C_25  and  C_37
    6  A    between atoms: C_32  and  C_35
    7  A    between atoms: C_34  and  C_38
                            x       y       z     vdW  Elec       q    Type
                         _______ _______ _______ _____ _____    ______ ____

>  <TORSDO>
F 7

$$$$
=
 OpenBabel11042419003D

 41 45  0  0  1  0  0  0  0  0999 V2000
  192.4230  174.9720  145.7090 C   0  0  0  0  0  0  0  0  0  0  0  0
  190.1280  175.8370  145.7240 C   0  0  0  0  0  0  0  0  0  0  0  0
  193.8170  176.8610  146.5810 C   0  0  0  0  0  2  0  0  0  0  0  0
  194.8940  176.3390  145.6130 C   0  0  0  0  0  2  0  0  0  0  0  0
  191.5540  176.4220  147.5840 C   0  0  0  0  0  0  0  0  0  0  0  0
  193.5320  172.7530  145.4910 C   0  0  0  0  0  1  0  0  0  0  0  0
  192.7470  175.8140  146.9160 C   0  0  1  0  0  3  0  0  0  0  0  0
  188.9310  176.1330  145.1750 C   0  0  0  0  0  0  0  0  0  0  0  0
  193.5970  174.2210  145.1100 C   0  0  2  0  0  3  0  0  0  0  0  0
  188.9210  174.8860  142.9480 C   0  0  0  0  0  3  0  0  0  0  0  0
  195.9470  174.4120  144.6660 O   0  0  0  0  0  1  0  0  0  0  0  0
  191.2050  174.9930  145.1130 C   0  0  0  0  0  0  0  0  0  0  0  0
  194.9460  174.8090  145.5530 C   0  0  1  0  0  3  0  0  0  0  0  0
  188.4700  175.7760  143.8190 C   0  0  0  0  0  3  0  0  0  0  0  0
  191.0120  174.0630  143.9850 C   0  0  0  0  0  3  0  0  0  0  0  0
  190.0460  173.9710  143.0800 C   0  0  0  0  0  0  0  0  0  0  0  0
  191.6990  177.0250  148.8660 N   0  0  0  0  0  1  0  0  0  0  0  0
  190.3940  176.4230  147.0100 N   0  0  0  0  0  0  0  0  0  0  0  0
  188.0360  176.9460  145.9520 N   0  0  0  0  0  2  0  0  0  0  0  0
  186.4010  177.2270  147.7430 C   0  0  1  0  0  3  0  0  0  0  0  0
  185.6780  176.9650  145.4200 C   0  0  0  0  0  2  0  0  0  0  0  0
  185.7010  176.3520  148.5740 O   0  0  0  0  0  1  0  0  0  0  0  0
  186.7250  176.5210  146.4250 C   0  0  1  0  0  3  0  0  0  0  0  0
  185.0690  178.1770  146.0240 C   0  0  0  0  0  0  0  0  0  0  0  0
  184.1590  178.9450  145.4200 C   0  0  0  0  0  3  0  0  0  0  0  0
  185.5210  178.4220  147.4160 C   0  0  2  0  0  3  0  0  0  0  0  0
  186.3490  179.6940  147.4870 C   0  0  0  0  0  1  0  0  0  0  0  0
  183.6960  178.7450  144.0350 C   0  0  0  0  0  3  0  0  0  0  0  0
  184.4500  178.7980  142.9270 C   0  0  0  0  0  3  0  0  0  0  0  0
  186.7680  178.5160  142.0910 C   0  0  0  0  0  2  0  0  0  0  0  0
  185.8720  179.1780  142.8140 C   0  0  0  0  0  3  0  0  0  0  0  0
  190.1700  172.9100  142.0370 C   0  0  0  0  0  2  0  0  0  0  0  0
  188.7620  172.6730  140.0700 N   0  0  0  0  0  0  0  0  0  0  0  0
  189.8530  173.4500  140.6450 C   0  0  2  0  0  3  0  0  0  0  0  0
  189.1300  172.0630  139.0160 N   0  0  0  0  0  0  0  0  0  0  0  0
  190.4930  172.3510  138.7500 C   0  0  0  0  0  0  0  0  0  0  0  0
  190.9650  173.1680  139.6830 C   0  0  0  0  0  0  0  0  0  0  0  0
  192.3290  173.7720  139.7320 C   0  0  0  0  0  1  0  0  0  0  0  0
  191.0780  172.3490  136.4410 O   0  0  0  0  0  0  0  0  0  0  0  0
  191.2110  171.8210  137.5770 C   0  0  0  0  0  0  0  0  0  0  0  0
  192.0640  170.6910  137.7230 N   0  0  0  0  0  1  0  0  0  0  0  0
  1  7  1  0  0  0  0
  2 18  1  0  0  0  0
  4  3  1  0  0  0  0
  5 17  1  0  0  0  0
  7  3  1  6  0  0  0
  7  5  1  0  0  0  0
  8  2  2  0  0  0  0
  8 19  1  0  0  0  0
  9  6  1  1  0  0  0
  9 13  1  0  0  0  0
  9  1  1  0  0  0  0
 10 16  1  0  0  0  0
 10 14  2  0  0  0  0
 12  1  2  0  0  0  0
 12  2  1  0  0  0  0
 13 11  1  6  0  0  0
 13  4  1  0  0  0  0
 14  8  1  0  0  0  0
 15 12  1  0  0  0  0
 16 15  2  0  0  0  0
 18  5  2  0  0  0  0
 20 22  1  1  0  0  0
 21 24  1  0  0  0  0
 21 23  1  0  0  0  0
 23 19  1  6  0  0  0
 23 20  1  0  0  0  0
 24 26  1  0  0  0  0
 25 24  2  0  0  0  0
 26 27  1  6  0  0  0
 26 20  1  0  0  0  0
 28 25  1  0  0  0  0
 29 28  2  0  0  0  0
 30 31  2  0  0  0  0
 31 29  1  0  0  0  0
 32 16  1  0  0  0  0
 33 34  1  0  0  0  0
 34 32  1  1  0  0  0
 35 33  2  0  0  0  0
 36 35  1  0  0  0  0
 36 37  2  0  0  0  0
 37 38  1  0  0  0  0
 37 34  1  0  0  0  0
 39 40  2  0  0  0  0
 40 41  1  0  0  0  0
 40 36  1  0  0  0  0
M  END
>  <MODEL>
4

>  <REMARK>
 VINA RESULT:      -7.4      2.744      7.752
  Name = 
  7 active torsions:
  status: ('A' for Active; 'I' for Inactive)
    1  A    between atoms: C_10  and  C_25
    2  A    between atoms: C_12  and  C_17
    3  A    between atoms: C_16  and  N_21
    4  A    between atoms: N_21  and  C_23
    5  A    between atoms: C_25  and  C_37
    6  A    between atoms: C_32  and  C_35
    7  A    between atoms: C_34  and  C_38
                            x       y       z     vdW  Elec       q    Type
                         _______ _______ _______ _____ _____    ______ ____

>  <TORSDO>
F 7

$$$$
=
 OpenBabel11042419003D

 41 45  0  0  1  0  0  0  0  0999 V2000
  186.9930  177.8700  144.9690 C   0  0  0  0  0  0  0  0  0  0  0  0
  188.5010  176.8580  143.3200 C   0  0  0  0  0  0  0  0  0  0  0  0
  187.3640  176.5460  147.0610 C   0  0  0  0  0  2  0  0  0  0  0  0
  185.8680  176.7910  147.3250 C   0  0  0  0  0  2  0  0  0  0  0  0
  189.3180  177.0990  145.5810 C   0  0  0  0  0  0  0  0  0  0  0  0
  185.6590  179.9630  145.1740 C   0  0  0  0  0  1  0  0  0  0  0  0
  187.9740  177.5410  146.0650 C   0  0  1  0  0  3  0  0  0  0  0  0
  188.8090  176.2790  142.1400 C   0  0  0  0  0  0  0  0  0  0  0  0
  185.6790  178.4670  145.4340 C   0  0  2  0  0  3  0  0  0  0  0  0
  186.7460  176.6560  140.6840 C   0  0  0  0  0  3  0  0  0  0  0  0
  184.0590  178.3490  147.1990 O   0  0  0  0  0  1  0  0  0  0  0  0
  187.2090  177.5290  143.6740 C   0  0  0  0  0  0  0  0  0  0  0  0
  185.4180  178.1990  146.9240 C   0  0  1  0  0  3  0  0  0  0  0  0
  187.9050  176.0920  140.9880 C   0  0  0  0  0  3  0  0  0  0  0  0
  186.1960  177.9800  142.7000 C   0  0  0  0  0  3  0  0  0  0  0  0
  185.9980  177.6580  141.4290 C   0  0  0  0  0  0  0  0  0  0  0  0
  190.3990  177.0020  146.5020 N   0  0  0  0  0  1  0  0  0  0  0  0
  189.5130  176.7890  144.3380 N   0  0  0  0  0  0  0  0  0  0  0  0
  190.1230  175.7120  142.0100 N   0  0  0  0  0  2  0  0  0  0  0  0
  191.3860  173.9390  140.9040 C   0  0  1  0  0  3  0  0  0  0  0  0
  191.1320  173.9620  143.3380 C   0  0  0  0  0  2  0  0  0  0  0  0
  191.0630  172.6820  140.3920 O   0  0  0  0  0  1  0  0  0  0  0  0
  190.4190  174.2850  142.0380 C   0  0  1  0  0  3  0  0  0  0  0  0
  192.5640  173.8530  142.9620 C   0  0  0  0  0  0  0  0  0  0  0  0
  193.5610  173.6700  143.8310 C   0  0  0  0  0  3  0  0  0  0  0  0
  192.7850  173.8970  141.4960 C   0  0  2  0  0  3  0  0  0  0  0  0
  193.5350  175.1620  141.1110 C   0  0  0  0  0  1  0  0  0  0  0  0
  193.3860  173.6360  145.2950 C   0  0  0  0  0  3  0  0  0  0  0  0
  193.5230  174.6700  146.1380 C   0  0  0  0  0  3  0  0  0  0  0  0
  194.1920  176.9800  146.7430 C   0  0  0  0  0  2  0  0  0  0  0  0
  193.9900  176.0370  145.8310 C   0  0  0  0  0  3  0  0  0  0  0  0
  184.8440  178.2900  140.7250 C   0  0  0  0  0  2  0  0  0  0  0  0
  182.8200  177.3080  139.8030 N   0  0  0  0  0  0  0  0  0  0  0  0
  183.5310  177.5810  141.0460 C   0  0  2  0  0  3  0  0  0  0  0  0
  181.7030  177.9170  139.7620 N   0  0  0  0  0  0  0  0  0  0  0  0
  181.5220  178.6600  140.9570 C   0  0  0  0  0  0  0  0  0  0  0  0
  182.5750  178.4930  141.7480 C   0  0  0  0  0  0  0  0  0  0  0  0
  182.7490  179.0410  143.1260 C   0  0  0  0  0  1  0  0  0  0  0  0
  180.0940  180.5400  140.6370 O   0  0  0  0  0  0  0  0  0  0  0  0
  180.3100  179.4510  141.2330 C   0  0  0  0  0  0  0  0  0  0  0  0
  179.3670  178.9860  142.1930 N   0  0  0  0  0  1  0  0  0  0  0  0
  1  9  1  0  0  0  0
  1  7  1  0  0  0  0
  2 12  1  0  0  0  0
  2 18  1  0  0  0  0
  3  4  1  0  0  0  0
  5  7  1  0  0  0  0
  5 17  1  0  0  0  0
  7  3  1  6  0  0  0
  8  2  2  0  0  0  0
  9  6  1  1  0  0  0
  9 13  1  0  0  0  0
 10 14  2  0  0  0  0
 10 16  1  0  0  0  0
 12  1  2  0  0  0  0
 13 11  1  6  0  0  0
 13  4  1  0  0  0  0
 14  8  1  0  0  0  0
 15 12  1  0  0  0  0
 16 15  2  0  0  0  0
 18  5  2  0  0  0  0
 19  8  1  0  0  0  0
 20 22  1  1  0  0  0
 20 26  1  0  0  0  0
 20 23  1  0  0  0  0
 23 19  1  1  0  0  0
 23 21  1  0  0  0  0
 24 21  1  0  0  0  0
 24 25  2  0  0  0  0
 25 28  1  0  0  0  0
 26 27  1  1  0  0  0
 26 24  1  0  0  0  0
 28 29  2  0  0  0  0
 31 29  1  0  0  0  0
 31 30  2  0  0  0  0
 32 16  1  0  0  0  0
 33 34  1  0  0  0  0
 34 32  1  6  0  0  0
 34 37  1  0  0  0  0
 35 33  2  0  0  0  0
 35 36  1  0  0  0  0
 36 40  1  0  0  0  0
 36 37  2  0  0  0  0
 37 38  1  0  0  0  0
 39 40  2  0  0  0  0
 40 41  1  0  0  0  0
M  END
>  <MODEL>
5

>  <REMARK>
 VINA RESULT:      -7.2      2.790      6.094
  Name = 
  7 active torsions:
  status: ('A' for Active; 'I' for Inactive)
    1  A    between atoms: C_10  and  C_25
    2  A    between atoms: C_12  and  C_17
    3  A    between atoms: C_16  and  N_21
    4  A    between atoms: N_21  and  C_23
    5  A    between atoms: C_25  and  C_37
    6  A    between atoms: C_32  and  C_35
    7  A    between atoms: C_34  and  C_38
                            x       y       z     vdW  Elec       q    Type
                         _______ _______ _______ _____ _____    ______ ____

>  <TORSDO>
F 7

$$$$
=
 OpenBabel11042419003D

 41 45  0  0  1  0  0  0  0  0999 V2000
  192.3230  174.9810  145.1840 C   0  0  0  0  0  0  0  0  0  0  0  0
  190.0870  175.8370  144.6520 C   0  0  0  0  0  0  0  0  0  0  0  0
  193.4510  176.8650  146.3880 C   0  0  0  0  0  2  0  0  0  0  0  0
  194.7340  176.3590  145.7050 C   0  0  0  0  0  2  0  0  0  0  0  0
  191.0160  176.4060  146.8080 C   0  0  0  0  0  0  0  0  0  0  0  0
  193.4660  172.7690  145.2190 C   0  0  0  0  0  1  0  0  0  0  0  0
  192.3390  175.8100  146.4430 C   0  0  1  0  0  3  0  0  0  0  0  0
  189.0570  176.1350  143.8330 C   0  0  0  0  0  0  0  0  0  0  0  0
  193.6120  174.2420  144.8800 C   0  0  2  0  0  3  0  0  0  0  0  0
  189.5950  174.9140  141.6570 C   0  0  0  0  0  3  0  0  0  0  0  0
  195.9980  174.4470  145.0210 O   0  0  0  0  0  1  0  0  0  0  0  0
  191.2850  175.0040  144.3120 C   0  0  0  0  0  0  0  0  0  0  0  0
  194.8090  174.8300  145.6430 C   0  0  1  0  0  3  0  0  0  0  0  0
  188.9410  175.7920  142.4020 C   0  0  0  0  0  3  0  0  0  0  0  0
  191.3770  174.0870  143.1600 C   0  0  0  0  0  3  0  0  0  0  0  0
  190.6600  174.0020  142.0480 C   0  0  0  0  0  0  0  0  0  0  0  0
  190.8420  176.9940  148.0930 N   0  0  0  0  0  1  0  0  0  0  0  0
  190.0290  176.4090  145.9700 N   0  0  0  0  0  0  0  0  0  0  0  0
  187.9950  176.9360  144.3780 N   0  0  0  0  0  2  0  0  0  0  0  0
  186.0060  177.2590  145.7560 C   0  0  1  0  0  3  0  0  0  0  0  0
  185.8050  176.7570  143.3700 C   0  0  0  0  0  2  0  0  0  0  0  0
  185.1860  176.4120  146.5040 O   0  0  0  0  0  1  0  0  0  0  0  0
  186.6340  176.4680  144.6070 C   0  0  1  0  0  3  0  0  0  0  0  0
  185.0270  177.9720  143.7160 C   0  0  0  0  0  0  0  0  0  0  0  0
  184.2320  178.6270  142.8660 C   0  0  0  0  0  3  0  0  0  0  0  0
  185.1610  178.3620  145.1410 C   0  0  2  0  0  3  0  0  0  0  0  0
  185.8960  179.6880  145.2610 C   0  0  0  0  0  1  0  0  0  0  0  0
  184.0830  178.2820  141.4410 C   0  0  0  0  0  3  0  0  0  0  0  0
  182.9330  178.1990  140.7560 C   0  0  0  0  0  3  0  0  0  0  0  0
  180.7320  179.3170  140.9960 C   0  0  0  0  0  2  0  0  0  0  0  0
  181.5560  178.3140  141.2760 C   0  0  0  0  0  3  0  0  0  0  0  0
  191.0400  172.9540  141.0550 C   0  0  0  0  0  2  0  0  0  0  0  0
  189.3200  171.9450  139.6650 N   0  0  0  0  0  0  0  0  0  0  0  0
  190.2310  173.0790  139.7670 C   0  0  2  0  0  3  0  0  0  0  0  0
  189.5760  171.2330  138.6420 N   0  0  0  0  0  0  0  0  0  0  0  0
  190.6710  171.7910  137.9350 C   0  0  0  0  0  0  0  0  0  0  0  0
  191.0930  172.8840  138.5590 C   0  0  0  0  0  0  0  0  0  0  0  0
  192.1730  173.8090  138.1050 C   0  0  0  0  0  1  0  0  0  0  0  0
  192.2190  170.4850  136.6810 O   0  0  0  0  0  0  0  0  0  0  0  0
  191.1940  171.2170  136.6820 C   0  0  0  0  0  0  0  0  0  0  0  0
  190.5380  171.4970  135.4500 N   0  0  0  0  0  1  0  0  0  0  0  0
  1  7  1  0  0  0  0
  2 18  1  0  0  0  0
  4  3  1  0  0  0  0
  5 17  1  0  0  0  0
  7  3  1  6  0  0  0
  7  5  1  0  0  0  0
  8 19  1  0  0  0  0
  8  2  2  0  0  0  0
  9  1  1  0  0  0  0
  9  6  1  1  0  0  0
  9 13  1  0  0  0  0
 10 16  1  0  0  0  0
 10 14  2  0  0  0  0
 12  2  1  0  0  0  0
 12  1  2  0  0  0  0
 13 11  1  6  0  0  0
 13  4  1  0  0  0  0
 14  8  1  0  0  0  0
 15 12  1  0  0  0  0
 16 15  2  0  0  0  0
 18  5  2  0  0  0  0
 20 22  1  6  0  0  0
 21 24  1  0  0  0  0
 21 23  1  0  0  0  0
 23 19  1  6  0  0  0
 23 20  1  0  0  0  0
 24 26  1  0  0  0  0
 25 24  2  0  0  0  0
 26 27  1  6  0  0  0
 26 20  1  0  0  0  0
 28 25  1  0  0  0  0
 29 31  1  0  0  0  0
 29 28  2  0  0  0  0
 30 31  2  0  0  0  0
 32 16  1  0  0  0  0
 33 34  1  0  0  0  0
 34 32  1  1  0  0  0
 35 33  2  0  0  0  0
 36 37  2  0  0  0  0
 36 35  1  0  0  0  0
 37 34  1  0  0  0  0
 38 37  1  0  0  0  0
 39 40  2  0  0  0  0
 40 36  1  0  0  0  0
 41 40  1  0  0  0  0
M  END
>  <MODEL>
6

>  <REMARK>
 VINA RESULT:      -7.1      2.713      8.213
  Name = 
  7 active torsions:
  status: ('A' for Active; 'I' for Inactive)
    1  A    between atoms: C_10  and  C_25
    2  A    between atoms: C_12  and  C_17
    3  A    between atoms: C_16  and  N_21
    4  A    between atoms: N_21  and  C_23
    5  A    between atoms: C_25  and  C_37
    6  A    between atoms: C_32  and  C_35
    7  A    between atoms: C_34  and  C_38
                            x       y       z     vdW  Elec       q    Type
                         _______ _______ _______ _____ _____    ______ ____

>  <TORSDO>
F 7

$$$$
=
 OpenBabel11042419003D

 41 45  0  0  1  0  0  0  0  0999 V2000
  186.4240  177.0810  144.4860 C   0  0  0  0  0  0  0  0  0  0  0  0
  187.6580  175.9590  142.6880 C   0  0  0  0  0  0  0  0  0  0  0  0
  185.7490  179.2860  143.5090 C   0  0  0  0  0  2  0  0  0  0  0  0
  185.9410  179.8290  144.9360 C   0  0  0  0  0  2  0  0  0  0  0  0
  185.6940  177.2240  142.0730 C   0  0  0  0  0  0  0  0  0  0  0  0
  185.3950  176.4450  146.6630 C   0  0  0  0  0  1  0  0  0  0  0  0
  185.5550  177.7650  143.4610 C   0  0  0  0  0  0  0  0  0  0  0  0
  188.7190  175.3230  142.1470 C   0  0  0  0  0  0  0  0  0  0  0  0
  186.1880  177.5070  145.9220 C   0  0  2  0  0  3  0  0  0  0  0  0
  190.1800  174.7010  144.1450 C   0  0  0  0  0  3  0  0  0  0  0  0
  185.6510  179.4160  147.2730 O   0  0  0  0  0  1  0  0  0  0  0  0
  187.4400  176.2520  144.1410 C   0  0  2  0  0  3  0  0  0  0  0  0
  185.4530  178.8540  146.0120 C   0  0  1  0  0  3  0  0  0  0  0  0
  189.9340  174.8760  142.8550 C   0  0  0  0  0  3  0  0  0  0  0  0
  188.1580  175.5990  145.2520 C   0  0  0  0  0  3  0  0  0  0  0  0
  189.2920  174.9110  145.2780 C   0  0  0  0  0  0  0  0  0  0  0  0
  184.7560  177.6080  141.0740 N   0  0  0  0  0  1  0  0  0  0  0  0
  186.6610  176.4220  141.7610 N   0  0  0  0  0  0  0  0  0  0  0  0
  188.7110  175.1290  140.7230 N   0  0  0  0  0  2  0  0  0  0  0  0
  189.0540  173.7920  138.7090 C   0  0  1  0  0  3  0  0  0  0  0  0
  188.8150  172.7200  140.8960 C   0  0  0  0  0  2  0  0  0  0  0  0
  188.2070  173.1930  137.7770 O   0  0  0  0  0  1  0  0  0  0  0  0
  188.3350  173.8890  140.0560 C   0  0  1  0  0  3  0  0  0  0  0  0
  190.0490  172.2520  140.2160 C   0  0  0  0  0  0  0  0  0  0  0  0
  190.8500  171.2900  140.6820 C   0  0  0  0  0  3  0  0  0  0  0  0
  190.2800  172.9160  138.9100 C   0  0  2  0  0  3  0  0  0  0  0  0
  191.5220  173.7910  138.9720 C   0  0  0  0  0  1  0  0  0  0  0  0
  190.6640  170.6180  141.9810 C   0  0  0  0  0  3  0  0  0  0  0  0
  191.2560  170.9440  143.1390 C   0  0  0  0  0  3  0  0  0  0  0  0
  193.6050  171.7360  143.2110 C   0  0  0  0  0  2  0  0  0  0  0  0
  192.3060  171.9580  143.3690 C   0  0  0  0  0  3  0  0  0  0  0  0
  189.7610  174.3970  146.5990 C   0  0  0  0  0  2  0  0  0  0  0  0
  190.4390  176.6990  146.9880 N   0  0  0  0  0  0  0  0  0  0  0  0
  190.8180  175.3100  147.2150 C   0  0  2  0  0  3  0  0  0  0  0  0
  191.2990  177.3050  146.2720 N   0  0  0  0  0  0  0  0  0  0  0  0
  192.3510  176.4160  145.9360 C   0  0  0  0  0  0  0  0  0  0  0  0
  192.1140  175.2240  146.4710 C   0  0  0  0  0  0  0  0  0  0  0  0
  193.0090  174.0300  146.4210 C   0  0  0  0  0  1  0  0  0  0  0  0
  193.6060  176.5400  143.9150 O   0  0  0  0  0  0  0  0  0  0  0  0
  193.5230  176.8230  145.1400 C   0  0  0  0  0  0  0  0  0  0  0  0
  194.5830  177.5410  145.7610 N   0  0  0  0  0  1  0  0  0  0  0  0
  1  9  1  0  0  0  0
  2 12  1  0  0  0  0
  3  4  1  0  0  0  0
  4 13  1  0  0  0  0
  5  7  1  0  0  0  0
  7  3  1  0  0  0  0
  7  1  2  0  0  0  0
  8  2  2  0  0  0  0
  8 14  1  0  0  0  0
  9 13  1  0  0  0  0
  9  6  1  6  0  0  0
 10 16  1  0  0  0  0
 12  1  1  0  0  0  0
 12 15  1  1  0  0  0
 13 11  1  1  0  0  0
 14 10  2  0  0  0  0
 15 16  2  0  0  0  0
 16 32  1  0  0  0  0
 17  5  1  0  0  0  0
 18  5  2  0  0  0  0
 18  2  1  0  0  0  0
 19  8  1  0  0  0  0
 20 22  1  6  0  0  0
 20 26  1  0  0  0  0
 20 23  1  0  0  0  0
 23 19  1  1  0  0  0
 23 21  1  0  0  0  0
 24 25  2  0  0  0  0
 24 21  1  0  0  0  0
 25 28  1  0  0  0  0
 26 27  1  1  0  0  0
 26 24  1  0  0  0  0
 28 29  2  0  0  0  0
 29 31  1  0  0  0  0
 30 31  2  0  0  0  0
 33 34  1  0  0  0  0
 34 32  1  6  0  0  0
 35 33  2  0  0  0  0
 36 35  1  0  0  0  0
 36 37  2  0  0  0  0
 37 34  1  0  0  0  0
 38 37  1  0  0  0  0
 39 40  2  0  0  0  0
 40 41  1  0  0  0  0
 40 36  1  0  0  0  0
M  END
>  <MODEL>
7

>  <REMARK>
 VINA RESULT:      -7.0      2.355      7.814
  Name = 
  7 active torsions:
  status: ('A' for Active; 'I' for Inactive)
    1  A    between atoms: C_10  and  C_25
    2  A    between atoms: C_12  and  C_17
    3  A    between atoms: C_16  and  N_21
    4  A    between atoms: N_21  and  C_23
    5  A    between atoms: C_25  and  C_37
    6  A    between atoms: C_32  and  C_35
    7  A    between atoms: C_34  and  C_38
                            x       y       z     vdW  Elec       q    Type
                         _______ _______ _______ _____ _____    ______ ____

>  <TORSDO>
F 7

$$$$
=
 OpenBabel11042419003D

 41 45  0  0  1  0  0  0  0  0999 V2000
  190.4060  173.0630  142.0800 C   0  0  0  0  0  0  0  0  0  0  0  0
  192.1880  173.2660  143.7520 C   0  0  0  0  0  0  0  0  0  0  0  0
  191.6020  173.0430  139.8800 C   0  0  0  0  0  2  0  0  0  0  0  0
  190.3650  173.7910  139.3500 C   0  0  0  0  0  2  0  0  0  0  0  0
  192.6020  171.8400  141.8470 C   0  0  0  0  0  0  0  0  0  0  0  0
  187.9860  172.4740  142.0590 C   0  0  0  0  0  1  0  0  0  0  0  0
  191.3360  172.2830  141.1860 C   0  0  0  0  0  0  0  0  0  0  0  0
  192.8140  173.8270  144.8090 C   0  0  2  0  0  3  0  0  0  0  0  0
  189.0510  173.3880  141.4800 C   0  0  2  0  0  3  0  0  0  0  0  0
  191.0800  175.4090  145.8120 C   0  0  0  0  0  3  0  0  0  0  0  0
  187.9830  173.9850  139.4160 O   0  0  0  0  0  1  0  0  0  0  0  0
  190.7980  173.5620  143.2790 C   0  0  0  0  0  0  0  0  0  0  0  0
  189.0550  173.2680  139.9480 C   0  0  1  0  0  3  0  0  0  0  0  0
  192.3020  174.9210  145.6570 C   0  0  0  0  0  3  0  0  0  0  0  0
  189.7600  174.2410  144.0770 C   0  0  0  0  0  3  0  0  0  0  0  0
  189.8450  174.9950  145.1650 C   0  0  0  0  0  0  0  0  0  0  0  0
  193.4400  170.8920  141.1930 N   0  0  0  0  0  1  0  0  0  0  0  0
  192.9580  172.3140  142.9980 N   0  0  0  0  0  0  0  0  0  0  0  0
  194.1470  173.3760  145.0980 N   0  0  0  0  0  2  0  0  0  0  0  0
  196.4960  173.3970  145.7630 C   0  0  1  0  0  3  0  0  0  0  0  0
  195.4920  175.3360  144.6590 C   0  0  0  0  0  2  0  0  0  0  0  0
  197.1840  173.7910  146.9110 O   0  0  0  0  0  1  0  0  0  0  0  0
  195.2090  174.2140  145.6400 C   0  0  1  0  0  3  0  0  0  0  0  0
  196.7250  174.9110  143.9500 C   0  0  0  0  0  0  0  0  0  0  0  0
  197.2730  175.5720  142.9270 C   0  0  0  0  0  3  0  0  0  0  0  0
  197.3450  173.6990  144.5390 C   0  0  2  0  0  3  0  0  0  0  0  0
  197.2610  172.5350  143.5650 C   0  0  0  0  0  1  0  0  0  0  0  0
  196.6810  176.7690  142.3040 C   0  0  0  0  0  3  0  0  0  0  0  0
  195.8360  176.7910  141.2630 C   0  0  0  0  0  3  0  0  0  0  0  0
  194.3490  174.8850  140.7070 C   0  0  0  0  0  2  0  0  0  0  0  0
  195.3940  175.6550  140.4280 C   0  0  0  0  0  3  0  0  0  0  0  0
  188.5780  175.5610  145.7170 C   0  0  0  0  0  2  0  0  0  0  0  0
  188.1150  177.5960  146.9630 N   0  0  0  0  0  0  0  0  0  0  0  0
  188.5800  177.0870  145.6790 C   0  0  2  0  0  3  0  0  0  0  0  0
  187.0390  178.2640  146.8360 N   0  0  0  0  0  0  0  0  0  0  0  0
  186.6530  178.2910  145.4720 C   0  0  0  0  0  0  0  0  0  0  0  0
  187.5320  177.6110  144.7470 C   0  0  0  0  0  0  0  0  0  0  0  0
  187.5360  177.4590  143.2620 C   0  0  0  0  0  1  0  0  0  0  0  0
  185.5750  180.0370  144.2620 O   0  0  0  0  0  0  0  0  0  0  0  0
  185.4630  179.0140  144.9890 C   0  0  0  0  0  0  0  0  0  0  0  0
  184.1640  178.5580  145.3510 N   0  0  0  0  0  1  0  0  0  0  0  0
  1 12  1  0  0  0  0
  2  8  1  0  0  0  0
  3  7  1  0  0  0  0
  4  3  1  0  0  0  0
  4 13  1  0  0  0  0
  5 18  2  0  0  0  0
  7  5  1  0  0  0  0
  7  1  2  0  0  0  0
  8 19  1  6  0  0  0
  8 14  1  0  0  0  0
  9  6  1  1  0  0  0
  9  1  1  0  0  0  0
 12  2  2  0  0  0  0
 12 15  1  0  0  0  0
 13 11  1  6  0  0  0
 13  9  1  0  0  0  0
 14 10  2  0  0  0  0
 15 16  2  0  0  0  0
 16 32  1  0  0  0  0
 16 10  1  0  0  0  0
 17  5  1  0  0  0  0
 18  2  1  0  0  0  0
 20 22  1  1  0  0  0
 21 23  1  0  0  0  0
 23 19  1  6  0  0  0
 23 20  1  0  0  0  0
 24 26  1  0  0  0  0
 24 21  1  0  0  0  0
 25 24  2  0  0  0  0
 26 27  1  6  0  0  0
 26 20  1  0  0  0  0
 28 25  1  0  0  0  0
 29 28  2  0  0  0  0
 31 30  2  0  0  0  0
 31 29  1  0  0  0  0
 34 32  1  1  0  0  0
 34 33  1  0  0  0  0
 35 33  2  0  0  0  0
 36 35  1  0  0  0  0
 37 36  2  0  0  0  0
 37 34  1  0  0  0  0
 38 37  1  0  0  0  0
 39 40  2  0  0  0  0
 40 41  1  0  0  0  0
 40 36  1  0  0  0  0
M  END
>  <MODEL>
8

>  <REMARK>
 VINA RESULT:      -7.0      2.292      3.885
  Name = 
  7 active torsions:
  status: ('A' for Active; 'I' for Inactive)
    1  A    between atoms: C_10  and  C_25
    2  A    between atoms: C_12  and  C_17
    3  A    between atoms: C_16  and  N_21
    4  A    between atoms: N_21  and  C_23
    5  A    between atoms: C_25  and  C_37
    6  A    between atoms: C_32  and  C_35
    7  A    between atoms: C_34  and  C_38
                            x       y       z     vdW  Elec       q    Type
                         _______ _______ _______ _____ _____    ______ ____

>  <TORSDO>
F 7

$$$$
=
 OpenBabel11042419003D

 41 45  0  0  1  0  0  0  0  0999 V2000
  187.9860  176.4170  144.1450 C   0  0  0  0  0  0  0  0  0  0  0  0
  189.8800  174.9140  144.5540 C   0  0  0  0  0  0  0  0  0  0  0  0
  187.0950  176.9450  146.4250 C   0  0  0  0  0  2  0  0  0  0  0  0
  185.7190  176.9790  145.7350 C   0  0  0  0  0  2  0  0  0  0  0  0
  189.5770  176.7660  146.0740 C   0  0  0  0  0  0  0  0  0  0  0  0
  187.1080  177.7660  142.2450 C   0  0  0  0  0  1  0  0  0  0  0  0
  188.2650  177.1210  145.4490 C   0  0  1  0  0  3  0  0  0  0  0  0
  190.5930  173.7780  144.4000 C   0  0  0  0  0  0  0  0  0  0  0  0
  186.7370  176.8750  143.4170 C   0  0  2  0  0  3  0  0  0  0  0  0
  189.5530  172.6390  142.3660 C   0  0  0  0  0  3  0  0  0  0  0  0
  184.4890  177.6250  143.7900 O   0  0  0  0  0  1  0  0  0  0  0  0
  188.7150  175.3550  143.7220 C   0  0  0  0  0  0  0  0  0  0  0  0
  185.7680  177.6230  144.3460 C   0  0  1  0  0  3  0  0  0  0  0  0
  190.3150  172.6840  143.4480 C   0  0  0  0  0  3  0  0  0  0  0  0
  188.3730  174.8130  142.3920 C   0  0  0  0  0  3  0  0  0  0  0  0
  188.7360  173.6930  141.7830 C   0  0  0  0  0  0  0  0  0  0  0  0
  190.0670  177.5410  147.1640 N   0  0  0  0  0  1  0  0  0  0  0  0
  190.2700  175.7580  145.6500 N   0  0  0  0  0  0  0  0  0  0  0  0
  191.6910  173.5640  145.3020 N   0  0  0  0  0  2  0  0  0  0  0  0
  193.9940  172.7620  145.1960 C   0  0  1  0  0  3  0  0  0  0  0  0
  193.1790  174.4350  143.6080 C   0  0  0  0  0  2  0  0  0  0  0  0
  195.2010  173.1740  145.7630 O   0  0  0  0  0  1  0  0  0  0  0  0
  193.0670  173.9690  145.0480 C   0  0  1  0  0  3  0  0  0  0  0  0
  193.7970  173.2910  142.8920 C   0  0  0  0  0  0  0  0  0  0  0  0
  193.9890  173.2420  141.5710 C   0  0  0  0  0  3  0  0  0  0  0  0
  194.2550  172.2140  143.8030 C   0  0  2  0  0  3  0  0  0  0  0  0
  193.4300  170.9550  143.5920 C   0  0  0  0  0  1  0  0  0  0  0  0
  193.5350  174.2820  140.6310 C   0  0  0  0  0  3  0  0  0  0  0  0
  194.2700  175.2930  140.1440 C   0  0  0  0  0  3  0  0  0  0  0  0
  195.9650  176.3870  141.5870 C   0  0  0  0  0  2  0  0  0  0  0  0
  195.6490  175.6730  140.5130 C   0  0  0  0  0  3  0  0  0  0  0  0
  188.1770  173.4300  140.4230 C   0  0  0  0  0  2  0  0  0  0  0  0
  188.0290  174.7420  138.3820 N   0  0  0  0  0  0  0  0  0  0  0  0
  188.9630  174.1640  139.3400 C   0  0  2  0  0  3  0  0  0  0  0  0
  188.1890  174.2480  137.2200 N   0  0  0  0  0  0  0  0  0  0  0  0
  189.2380  173.2930  137.2480 C   0  0  0  0  0  0  0  0  0  0  0  0
  189.7280  173.2090  138.4780 C   0  0  0  0  0  0  0  0  0  0  0  0
  190.8880  172.3790  138.9200 C   0  0  0  0  0  1  0  0  0  0  0  0
  189.3170  171.3820  135.8290 O   0  0  0  0  0  0  0  0  0  0  0  0
  189.6910  172.5640  136.0500 C   0  0  0  0  0  0  0  0  0  0  0  0
  190.5720  173.1990  135.1290 N   0  0  0  0  0  1  0  0  0  0  0  0
  1  7  1  0  0  0  0
  2 18  1  0  0  0  0
  4  3  1  0  0  0  0
  5 17  1  0  0  0  0
  7  5  1  0  0  0  0
  7  3  1  1  0  0  0
  8  2  2  0  0  0  0
  8 19  1  0  0  0  0
  9  6  1  6  0  0  0
  9  1  1  0  0  0  0
  9 13  1  0  0  0  0
 10 14  2  0  0  0  0
 12  1  2  0  0  0  0
 12  2  1  0  0  0  0
 13 11  1  6  0  0  0
 13  4  1  0  0  0  0
 14  8  1  0  0  0  0
 15 12  1  0  0  0  0
 16 10  1  0  0  0  0
 16 15  2  0  0  0  0
 18  5  2  0  0  0  0
 20 22  1  6  0  0  0
 21 23  1  0  0  0  0
 23 20  1  0  0  0  0
 23 19  1  6  0  0  0
 24 21  1  0  0  0  0
 24 26  1  0  0  0  0
 25 24  2  0  0  0  0
 26 27  1  6  0  0  0
 26 20  1  0  0  0  0
 28 25  1  0  0  0  0
 29 31  1  0  0  0  0
 29 28  2  0  0  0  0
 31 30  2  0  0  0  0
 32 16  1  0  0  0  0
 33 34  1  0  0  0  0
 34 32  1  1  0  0  0
 35 36  1  0  0  0  0
 35 33  2  0  0  0  0
 36 37  2  0  0  0  0
 37 38  1  0  0  0  0
 37 34  1  0  0  0  0
 39 40  2  0  0  0  0
 40 36  1  0  0  0  0
 41 40  1  0  0  0  0
M  END
>  <MODEL>
9

>  <REMARK>
 VINA RESULT:      -7.0      2.710      6.618
  Name = 
  7 active torsions:
  status: ('A' for Active; 'I' for Inactive)
    1  A    between atoms: C_10  and  C_25
    2  A    between atoms: C_12  and  C_17
    3  A    between atoms: C_16  and  N_21
    4  A    between atoms: N_21  and  C_23
    5  A    between atoms: C_25  and  C_37
    6  A    between atoms: C_32  and  C_35
    7  A    between atoms: C_34  and  C_38
                            x       y       z     vdW  Elec       q    Type
                         _______ _______ _______ _____ _____    ______ ____

>  <TORSDO>
F 7

$$$$
