=
 OpenBabel11042418113D

 25 29  0  0  1  0  0  0  0  0999 V2000
  188.7220  177.2830  144.4760 C   0  0  0  0  0  0  0  0  0  0  0  0
  184.0690  178.3390  141.7790 O   0  0  0  0  0  0  0  0  0  0  0  0
  186.3770  176.7540  145.8090 C   0  0  0  0  0  3  0  0  0  0  0  0
  188.8280  178.2950  141.9600 N   0  0  0  0  0  0  0  0  0  0  0  0
  187.6020  178.0570  142.5300 C   0  0  0  0  0  0  0  0  0  0  0  0
  188.7960  176.7820  145.7320 C   0  0  0  0  0  0  0  0  0  0  0  0
  190.2370  176.6310  146.1330 C   0  0  2  0  0  3  0  0  0  0  0  0
  187.6200  176.5070  146.4420 C   0  0  0  0  0  3  0  0  0  0  0  0
  185.1170  178.0870  142.4280 C   0  0  0  0  0  0  0  0  0  0  0  0
  184.9980  177.5300  143.8280 C   0  0  0  0  0  2  0  0  0  0  0  0
  189.9330  177.5160  143.9240 C   0  0  0  0  0  0  0  0  0  0  0  0
  187.5310  177.5380  143.8250 C   0  0  0  0  0  0  0  0  0  0  0  0
  190.0000  178.0370  142.6280 C   0  0  0  0  0  3  0  0  0  0  0  0
  186.3260  177.2700  144.4920 C   0  0  0  0  0  0  0  0  0  0  0  0
  191.0160  177.1480  144.8870 C   0  0  0  0  0  2  0  0  0  0  0  0
  186.3940  178.3340  141.8230 N   0  0  0  0  0  2  0  0  0  0  0  0
  190.5790  175.1680  146.3610 C   0  0  0  0  0  2  0  0  0  0  0  0
  191.7150  174.7880  145.5380 N   0  0  0  0  0  2  0  0  0  0  0  0
  191.2440  174.0270  143.0100 S   0  0  0  0  0  0  0  0  0  0  0  0
  191.3200  173.6190  144.7720 C   0  0  2  0  0  3  0  0  0  0  0  0
  189.3560  172.4300  144.0840 N   0  0  0  0  0  2  0  0  0  0  0  0
  189.6590  173.1390  142.8460 C   0  0  1  0  0  3  0  0  0  0  0  0
  189.9310  173.1960  145.1760 C   0  0  0  0  0  2  0  0  0  0  0  0
  188.7650  174.7420  141.1570 C   0  0  0  0  0  1  0  0  0  0  0  0
  188.5340  174.1090  142.5160 C   0  0  0  0  0  2  0  0  0  0  0  0
  1  6  1  0  0  0  0
  2  9  2  0  0  0  0
  3  8  1  0  0  0  0
  4  5  2  0  0  0  0
  4 13  1  0  0  0  0
  5 12  1  0  0  0  0
  6  7  1  0  0  0  0
  6  8  2  0  0  0  0
  7 17  1  6  0  0  0
  9 10  1  0  0  0  0
 10 14  1  0  0  0  0
 11  1  1  0  0  0  0
 11 15  1  0  0  0  0
 12  1  2  0  0  0  0
 12 14  1  0  0  0  0
 13 11  2  0  0  0  0
 14  3  2  0  0  0  0
 15  7  1  0  0  0  0
 16  9  1  0  0  0  0
 16  5  1  0  0  0  0
 18 17  1  0  0  0  0
 19 20  1  0  0  0  0
 20 23  1  0  0  0  0
 20 18  1  1  0  0  0
 21 23  1  0  0  0  0
 22 25  1  1  0  0  0
 22 19  1  0  0  0  0
 22 21  1  0  0  0  0
 24 25  1  0  0  0  0
M  END
>  <MODEL>
1

>  <REMARK>
 VINA RESULT:      -7.0      0.000      0.000
  Name = 
  4 active torsions:
  status: ('A' for Active; 'I' for Inactive)
    1  A    between atoms: N_7  and  C_11
    2  A    between atoms: N_7  and  C_20
    3  A    between atoms: C_8  and  C_20
    4  A    between atoms: C_16  and  C_24
                            x       y       z     vdW  Elec       q    Type
                         _______ _______ _______ _____ _____    ______ ____

>  <TORSDO>
F 4

$$$$
=
 OpenBabel11042418113D

 25 29  0  0  1  0  0  0  0  0999 V2000
  188.6150  177.6290  144.1330 C   0  0  0  0  0  0  0  0  0  0  0  0
  183.5220  178.9040  145.7090 O   0  0  0  0  0  0  0  0  0  0  0  0
  188.0450  177.3490  146.8070 C   0  0  0  0  0  3  0  0  0  0  0  0
  186.8200  178.5050  142.2950 N   0  0  0  0  0  0  0  0  0  0  0  0
  186.4280  178.3890  143.6060 C   0  0  0  0  0  0  0  0  0  0  0  0
  189.5960  177.1870  144.9550 C   0  0  0  0  0  0  0  0  0  0  0  0
  190.8510  176.9460  144.1640 C   0  0  2  0  0  3  0  0  0  0  0  0
  189.3400  177.0390  146.3250 C   0  0  0  0  0  3  0  0  0  0  0  0
  184.7000  178.6050  145.3820 C   0  0  0  0  0  0  0  0  0  0  0  0
  185.6590  178.1290  146.4490 C   0  0  0  0  0  2  0  0  0  0  0  0
  189.0110  177.7420  142.8450 C   0  0  0  0  0  0  0  0  0  0  0  0
  187.3410  177.9430  144.5640 C   0  0  0  0  0  0  0  0  0  0  0  0
  188.0940  178.1910  141.8900 C   0  0  0  0  0  3  0  0  0  0  0  0
  187.0340  177.8010  145.9250 C   0  0  0  0  0  0  0  0  0  0  0  0
  190.4440  177.3400  142.7130 C   0  0  0  0  0  2  0  0  0  0  0  0
  185.1000  178.7230  144.0100 N   0  0  0  0  0  2  0  0  0  0  0  0
  191.2270  175.4750  144.1930 C   0  0  0  0  0  2  0  0  0  0  0  0
  192.0960  175.1600  143.0700 N   0  0  0  0  0  2  0  0  0  0  0  0
  193.2610  174.4550  145.3800 S   0  0  0  0  0  0  0  0  0  0  0  0
  193.4010  174.8290  143.6140 C   0  0  2  0  0  3  0  0  0  0  0  0
  195.3660  175.8840  144.4900 N   0  0  0  0  0  2  0  0  0  0  0  0
  194.7390  175.4630  145.7370 C   0  0  1  0  0  3  0  0  0  0  0  0
  194.3140  176.0220  143.4980 C   0  0  0  0  0  2  0  0  0  0  0  0
  192.9670  176.5320  147.1290 C   0  0  0  0  0  1  0  0  0  0  0  0
  194.3670  176.6820  146.5680 C   0  0  0  0  0  2  0  0  0  0  0  0
  1 12  2  0  0  0  0
  1  6  1  0  0  0  0
  4  5  2  0  0  0  0
  5 16  1  0  0  0  0
  5 12  1  0  0  0  0
  6  8  2  0  0  0  0
  7 17  1  6  0  0  0
  7  6  1  0  0  0  0
  8  3  1  0  0  0  0
  9  2  2  0  0  0  0
  9 10  1  0  0  0  0
 11  1  1  0  0  0  0
 12 14  1  0  0  0  0
 13  4  1  0  0  0  0
 13 11  2  0  0  0  0
 14 10  1  0  0  0  0
 14  3  2  0  0  0  0
 15 11  1  0  0  0  0
 15  7  1  0  0  0  0
 16  9  1  0  0  0  0
 18 17  1  0  0  0  0
 19 22  1  0  0  0  0
 20 18  1  1  0  0  0
 20 19  1  0  0  0  0
 21 22  1  0  0  0  0
 22 25  1  6  0  0  0
 23 20  1  0  0  0  0
 23 21  1  0  0  0  0
 25 24  1  0  0  0  0
M  END
>  <MODEL>
2

>  <REMARK>
 VINA RESULT:      -6.9      2.322      3.659
  Name = 
  4 active torsions:
  status: ('A' for Active; 'I' for Inactive)
    1  A    between atoms: N_7  and  C_11
    2  A    between atoms: N_7  and  C_20
    3  A    between atoms: C_8  and  C_20
    4  A    between atoms: C_16  and  C_24
                            x       y       z     vdW  Elec       q    Type
                         _______ _______ _______ _____ _____    ______ ____

>  <TORSDO>
F 4

$$$$
=
 OpenBabel11042418113D

 25 29  0  0  1  0  0  0  0  0999 V2000
  187.4450  177.8890  144.0370 C   0  0  0  0  0  0  0  0  0  0  0  0
  183.3240  178.4110  140.4610 O   0  0  0  0  0  0  0  0  0  0  0  0
  184.9080  178.0140  145.0880 C   0  0  0  0  0  3  0  0  0  0  0  0
  187.9820  178.0290  141.3800 N   0  0  0  0  0  0  0  0  0  0  0  0
  186.6760  178.0890  141.7990 C   0  0  0  0  0  0  0  0  0  0  0  0
  187.3030  177.8130  145.3810 C   0  0  0  0  0  0  0  0  0  0  0  0
  188.6540  177.6780  146.0270 C   0  0  2  0  0  3  0  0  0  0  0  0
  186.0240  177.8800  145.9500 C   0  0  0  0  0  3  0  0  0  0  0  0
  184.2460  178.2930  141.3090 C   0  0  0  0  0  0  0  0  0  0  0  0
  183.8890  178.2260  142.7760 C   0  0  0  0  0  2  0  0  0  0  0  0
  188.7340  177.8310  143.6340 C   0  0  0  0  0  0  0  0  0  0  0  0
  186.3840  178.0210  143.1630 C   0  0  0  0  0  0  0  0  0  0  0  0
  189.0220  177.9010  142.2670 C   0  0  0  0  0  3  0  0  0  0  0  0
  185.0820  178.0830  143.6850 C   0  0  0  0  0  0  0  0  0  0  0  0
  189.6360  177.7020  144.8190 C   0  0  0  0  0  2  0  0  0  0  0  0
  185.6080  178.2250  140.8630 N   0  0  0  0  0  2  0  0  0  0  0  0
  188.7750  176.3420  146.7410 C   0  0  0  0  0  2  0  0  0  0  0  0
  190.1090  176.1950  147.2990 N   0  0  0  0  0  2  0  0  0  0  0  0
  192.2170  175.1450  146.0160 S   0  0  0  0  0  0  0  0  0  0  0  0
  190.6250  174.9150  146.8480 C   0  0  2  0  0  3  0  0  0  0  0  0
  190.4400  173.3820  145.0150 N   0  0  0  0  0  2  0  0  0  0  0  0
  191.7100  174.0150  144.6770 C   0  0  1  0  0  3  0  0  0  0  0  0
  189.6880  174.3230  145.8280 C   0  0  0  0  0  2  0  0  0  0  0  0
  192.5110  175.9640  143.3440 C   0  0  0  0  0  1  0  0  0  0  0  0
  191.5810  174.7670  143.3620 C   0  0  0  0  0  2  0  0  0  0  0  0
  1  6  1  0  0  0  0
  2  9  2  0  0  0  0
  3  8  1  0  0  0  0
  4  5  2  0  0  0  0
  4 13  1  0  0  0  0
  5 12  1  0  0  0  0
  6  8  2  0  0  0  0
  6  7  1  0  0  0  0
  7 17  1  6  0  0  0
  9 10  1  0  0  0  0
 10 14  1  0  0  0  0
 11  1  1  0  0  0  0
 11 15  1  0  0  0  0
 12 14  1  0  0  0  0
 12  1  2  0  0  0  0
 13 11  2  0  0  0  0
 14  3  2  0  0  0  0
 15  7  1  0  0  0  0
 16  9  1  0  0  0  0
 16  5  1  0  0  0  0
 17 18  1  0  0  0  0
 19 20  1  0  0  0  0
 20 18  1  6  0  0  0
 21 23  1  0  0  0  0
 22 25  1  6  0  0  0
 22 21  1  0  0  0  0
 22 19  1  0  0  0  0
 23 20  1  0  0  0  0
 24 25  1  0  0  0  0
M  END
>  <MODEL>
3

>  <REMARK>
 VINA RESULT:      -6.8      1.681      2.127
  Name = 
  4 active torsions:
  status: ('A' for Active; 'I' for Inactive)
    1  A    between atoms: N_7  and  C_11
    2  A    between atoms: N_7  and  C_20
    3  A    between atoms: C_8  and  C_20
    4  A    between atoms: C_16  and  C_24
                            x       y       z     vdW  Elec       q    Type
                         _______ _______ _______ _____ _____    ______ ____

>  <TORSDO>
F 4

$$$$
=
 OpenBabel11042418113D

 25 29  0  0  1  0  0  0  0  0999 V2000
  186.3600  177.2650  144.9390 C   0  0  0  0  0  0  0  0  0  0  0  0
  183.3230  178.5960  140.5750 O   0  0  0  0  0  0  0  0  0  0  0  0
  187.3320  176.5070  142.4820 C   0  0  0  0  0  3  0  0  0  0  0  0
  184.0160  178.5890  145.2870 N   0  0  0  0  0  0  0  0  0  0  0  0
  184.4160  178.2680  144.0140 C   0  0  0  0  0  0  0  0  0  0  0  0
  187.5410  176.6040  144.8920 C   0  0  0  0  0  0  0  0  0  0  0  0
  188.0740  176.4180  146.2850 C   0  0  2  0  0  3  0  0  0  0  0  0
  188.0610  176.1970  143.6560 C   0  0  0  0  0  3  0  0  0  0  0  0
  184.0440  178.2730  141.5540 C   0  0  0  0  0  0  0  0  0  0  0  0
  185.3350  177.5310  141.3020 C   0  0  0  0  0  2  0  0  0  0  0  0
  185.9730  177.5750  146.1960 C   0  0  0  0  0  0  0  0  0  0  0  0
  185.6190  177.5840  143.8180 C   0  0  0  0  0  0  0  0  0  0  0  0
  184.7680  178.2580  146.3880 C   0  0  0  0  0  3  0  0  0  0  0  0
  186.1040  177.2070  142.5570 C   0  0  0  0  0  0  0  0  0  0  0  0
  186.9840  177.0800  147.1800 C   0  0  0  0  0  2  0  0  0  0  0  0
  183.6210  178.6170  142.8810 N   0  0  0  0  0  2  0  0  0  0  0  0
  189.3840  177.1670  146.4600 C   0  0  0  0  0  2  0  0  0  0  0  0
  190.4330  176.2470  146.8680 N   0  0  0  0  0  2  0  0  0  0  0  0
  192.6690  174.9940  146.0790 S   0  0  0  0  0  0  0  0  0  0  0  0
  191.0970  175.7880  145.6610 C   0  0  2  0  0  3  0  0  0  0  0  0
  192.5250  176.5900  143.9120 N   0  0  0  0  0  2  0  0  0  0  0  0
  193.5070  175.8790  144.7220 C   0  0  1  0  0  3  0  0  0  0  0  0
  191.4310  176.9700  144.7880 C   0  0  0  0  0  2  0  0  0  0  0  0
  194.3410  177.0350  146.7680 C   0  0  0  0  0  1  0  0  0  0  0  0
  194.5320  176.8580  145.2740 C   0  0  0  0  0  2  0  0  0  0  0  0
  1 11  1  0  0  0  0
  2  9  2  0  0  0  0
  3 14  2  0  0  0  0
  3  8  1  0  0  0  0
  4 13  1  0  0  0  0
  5  4  2  0  0  0  0
  6  1  1  0  0  0  0
  6  7  1  0  0  0  0
  7 17  1  6  0  0  0
  7 15  1  0  0  0  0
  8  6  2  0  0  0  0
  9 16  1  0  0  0  0
 10  9  1  0  0  0  0
 10 14  1  0  0  0  0
 11 13  2  0  0  0  0
 11 15  1  0  0  0  0
 12  5  1  0  0  0  0
 12  1  2  0  0  0  0
 14 12  1  0  0  0  0
 16  5  1  0  0  0  0
 17 18  1  0  0  0  0
 20 19  1  0  0  0  0
 20 18  1  1  0  0  0
 21 22  1  0  0  0  0
 21 23  1  0  0  0  0
 22 25  1  1  0  0  0
 22 19  1  0  0  0  0
 23 20  1  0  0  0  0
 25 24  1  0  0  0  0
M  END
>  <MODEL>
4

>  <REMARK>
 VINA RESULT:      -6.8      2.337      4.041
  Name = 
  4 active torsions:
  status: ('A' for Active; 'I' for Inactive)
    1  A    between atoms: N_7  and  C_11
    2  A    between atoms: N_7  and  C_20
    3  A    between atoms: C_8  and  C_20
    4  A    between atoms: C_16  and  C_24
                            x       y       z     vdW  Elec       q    Type
                         _______ _______ _______ _____ _____    ______ ____

>  <TORSDO>
F 4

$$$$
=
 OpenBabel11042418113D

 25 29  0  0  1  0  0  0  0  0999 V2000
  186.3610  177.1190  145.0170 C   0  0  0  0  0  0  0  0  0  0  0  0
  183.8210  178.6120  140.3960 O   0  0  0  0  0  0  0  0  0  0  0  0
  187.5570  176.3760  142.6580 C   0  0  0  0  0  3  0  0  0  0  0  0
  184.0310  178.5050  145.1530 N   0  0  0  0  0  0  0  0  0  0  0  0
  184.5490  178.1940  143.9200 C   0  0  0  0  0  0  0  0  0  0  0  0
  187.5220  176.4250  145.0780 C   0  0  0  0  0  0  0  0  0  0  0  0
  187.9050  176.2010  146.5140 C   0  0  2  0  0  3  0  0  0  0  0  0
  188.1540  176.0250  143.8930 C   0  0  0  0  0  3  0  0  0  0  0  0
  184.4290  178.2520  141.4370 C   0  0  0  0  0  0  0  0  0  0  0  0
  185.7190  177.4770  141.3010 C   0  0  0  0  0  2  0  0  0  0  0  0
  185.8560  177.4190  146.2350 C   0  0  0  0  0  0  0  0  0  0  0  0
  185.7460  177.4790  143.8340 C   0  0  0  0  0  0  0  0  0  0  0  0
  184.6570  178.1330  146.3170 C   0  0  0  0  0  3  0  0  0  0  0  0
  186.3470  177.1100  142.6210 C   0  0  0  0  0  0  0  0  0  0  0  0
  186.7480  176.8790  147.3070 C   0  0  0  0  0  2  0  0  0  0  0  0
  183.8830  178.5850  142.7210 N   0  0  0  0  0  2  0  0  0  0  0  0
  189.2110  176.9080  146.8360 C   0  0  0  0  0  2  0  0  0  0  0  0
  190.2870  175.9380  146.9520 N   0  0  0  0  0  2  0  0  0  0  0  0
  191.8050  175.4460  144.7970 S   0  0  0  0  0  0  0  0  0  0  0  0
  191.4310  176.4760  146.2370 C   0  0  2  0  0  3  0  0  0  0  0  0
  193.8270  176.4390  146.2760 N   0  0  0  0  0  2  0  0  0  0  0  0
  193.5860  175.5020  145.1860 C   0  0  1  0  0  3  0  0  0  0  0  0
  192.6480  176.4320  147.1250 C   0  0  0  0  0  2  0  0  0  0  0  0
  193.1190  173.0530  145.1080 C   0  0  0  0  0  1  0  0  0  0  0  0
  194.0940  174.1200  145.5680 C   0  0  0  0  0  2  0  0  0  0  0  0
  1  6  1  0  0  0  0
  1 11  1  0  0  0  0
  2  9  2  0  0  0  0
  3  8  1  0  0  0  0
  4 13  1  0  0  0  0
  5  4  2  0  0  0  0
  6  7  1  0  0  0  0
  7 17  1  6  0  0  0
  7 15  1  0  0  0  0
  8  6  2  0  0  0  0
  9 16  1  0  0  0  0
 10  9  1  0  0  0  0
 10 14  1  0  0  0  0
 11 13  2  0  0  0  0
 11 15  1  0  0  0  0
 12  5  1  0  0  0  0
 12  1  2  0  0  0  0
 14  3  2  0  0  0  0
 14 12  1  0  0  0  0
 16  5  1  0  0  0  0
 17 18  1  0  0  0  0
 19 22  1  0  0  0  0
 19 20  1  0  0  0  0
 20 18  1  1  0  0  0
 20 23  1  0  0  0  0
 21 23  1  0  0  0  0
 22 25  1  1  0  0  0
 22 21  1  0  0  0  0
 24 25  1  0  0  0  0
M  END
>  <MODEL>
5

>  <REMARK>
 VINA RESULT:      -6.7      2.340      3.911
  Name = 
  4 active torsions:
  status: ('A' for Active; 'I' for Inactive)
    1  A    between atoms: N_7  and  C_11
    2  A    between atoms: N_7  and  C_20
    3  A    between atoms: C_8  and  C_20
    4  A    between atoms: C_16  and  C_24
                            x       y       z     vdW  Elec       q    Type
                         _______ _______ _______ _____ _____    ______ ____

>  <TORSDO>
F 4

$$$$
=
 OpenBabel11042418113D

 25 29  0  0  1  0  0  0  0  0999 V2000
  188.6390  177.5370  144.6020 C   0  0  0  0  0  0  0  0  0  0  0  0
  183.4680  178.6650  143.1790 O   0  0  0  0  0  0  0  0  0  0  0  0
  186.7480  177.3680  146.5900 C   0  0  0  0  0  3  0  0  0  0  0  0
  188.0730  178.2380  142.0420 N   0  0  0  0  0  0  0  0  0  0  0  0
  187.0500  178.1720  142.9550 C   0  0  0  0  0  0  0  0  0  0  0  0
  189.0440  177.1810  145.8440 C   0  0  0  0  0  0  0  0  0  0  0  0
  190.5300  176.9550  145.8480 C   0  0  2  0  0  3  0  0  0  0  0  0
  188.1060  177.0920  146.8820 C   0  0  0  0  0  3  0  0  0  0  0  0
  184.6440  178.4020  143.5410 C   0  0  0  0  0  0  0  0  0  0  0  0
  184.9010  178.0240  144.9800 C   0  0  0  0  0  2  0  0  0  0  0  0
  189.6520  177.6010  143.7100 C   0  0  0  0  0  0  0  0  0  0  0  0
  187.3260  177.8150  144.2770 C   0  0  0  0  0  0  0  0  0  0  0  0
  189.3720  177.9600  142.3880 C   0  0  0  0  0  3  0  0  0  0  0  0
  186.3490  177.7310  145.2800 C   0  0  0  0  0  0  0  0  0  0  0  0
  190.9450  177.2560  144.3770 C   0  0  0  0  0  2  0  0  0  0  0  0
  185.7060  178.4670  142.5780 N   0  0  0  0  0  2  0  0  0  0  0  0
  190.8500  175.5050  146.1690 C   0  0  0  0  0  2  0  0  0  0  0  0
  191.8310  174.9920  145.2260 N   0  0  0  0  0  2  0  0  0  0  0  0
  194.1860  175.8960  146.1370 S   0  0  0  0  0  0  0  0  0  0  0  0
  192.9800  174.5520  145.9980 C   0  0  2  0  0  3  0  0  0  0  0  0
  195.0500  173.3750  145.7350 N   0  0  0  0  0  2  0  0  0  0  0  0
  195.5510  174.7440  145.7670 C   0  0  1  0  0  3  0  0  0  0  0  0
  193.6730  173.4260  145.2760 C   0  0  0  0  0  2  0  0  0  0  0  0
  195.6150  176.3790  143.8850 C   0  0  0  0  0  1  0  0  0  0  0  0
  196.1990  175.0920  144.4360 C   0  0  0  0  0  2  0  0  0  0  0  0
  1  6  1  0  0  0  0
  2  9  2  0  0  0  0
  3  8  1  0  0  0  0
  4 13  1  0  0  0  0
  4  5  2  0  0  0  0
  5 12  1  0  0  0  0
  6  7  1  0  0  0  0
  6  8  2  0  0  0  0
  7 17  1  6  0  0  0
  9 10  1  0  0  0  0
 10 14  1  0  0  0  0
 11 15  1  0  0  0  0
 11  1  1  0  0  0  0
 12  1  2  0  0  0  0
 12 14  1  0  0  0  0
 13 11  2  0  0  0  0
 14  3  2  0  0  0  0
 15  7  1  0  0  0  0
 16  5  1  0  0  0  0
 16  9  1  0  0  0  0
 18 17  1  0  0  0  0
 20 18  1  6  0  0  0
 20 19  1  0  0  0  0
 21 22  1  0  0  0  0
 22 25  1  6  0  0  0
 22 19  1  0  0  0  0
 23 21  1  0  0  0  0
 23 20  1  0  0  0  0
 24 25  1  0  0  0  0
M  END
>  <MODEL>
6

>  <REMARK>
 VINA RESULT:      -6.7      2.254      3.200
  Name = 
  4 active torsions:
  status: ('A' for Active; 'I' for Inactive)
    1  A    between atoms: N_7  and  C_11
    2  A    between atoms: N_7  and  C_20
    3  A    between atoms: C_8  and  C_20
    4  A    between atoms: C_16  and  C_24
                            x       y       z     vdW  Elec       q    Type
                         _______ _______ _______ _____ _____    ______ ____

>  <TORSDO>
F 4

$$$$
=
 OpenBabel11042418113D

 25 29  0  0  1  0  0  0  0  0999 V2000
  188.4900  177.5810  144.2710 C   0  0  0  0  0  0  0  0  0  0  0  0
  183.3220  179.0410  145.3640 O   0  0  0  0  0  0  0  0  0  0  0  0
  187.6940  177.4260  146.8970 C   0  0  0  0  0  3  0  0  0  0  0  0
  186.8770  178.4210  142.2560 N   0  0  0  0  0  0  0  0  0  0  0  0
  186.3760  178.3700  143.5330 C   0  0  0  0  0  0  0  0  0  0  0  0
  189.3870  177.1500  145.1890 C   0  0  0  0  0  0  0  0  0  0  0  0
  190.6970  176.8460  144.5160 C   0  0  2  0  0  3  0  0  0  0  0  0
  189.0160  177.0660  146.5380 C   0  0  0  0  0  3  0  0  0  0  0  0
  184.5140  178.7010  145.1500 C   0  0  0  0  0  0  0  0  0  0  0  0
  185.3680  178.2470  146.3100 C   0  0  0  0  0  2  0  0  0  0  0  0
  188.9940  177.6300  143.0180 C   0  0  0  0  0  0  0  0  0  0  0  0
  187.1940  177.9420  144.5810 C   0  0  0  0  0  0  0  0  0  0  0  0
  188.1710  178.0610  141.9710 C   0  0  0  0  0  3  0  0  0  0  0  0
  186.7720  177.8650  145.9170 C   0  0  0  0  0  0  0  0  0  0  0  0
  190.4220  177.1890  143.0210 C   0  0  0  0  0  2  0  0  0  0  0  0
  185.0290  178.7520  143.8110 N   0  0  0  0  0  2  0  0  0  0  0  0
  191.0290  175.3690  144.6340 C   0  0  0  0  0  2  0  0  0  0  0  0
  191.7380  174.9210  143.4460 N   0  0  0  0  0  2  0  0  0  0  0  0
  190.6790  173.3520  141.5460 S   0  0  0  0  0  0  0  0  0  0  0  0
  191.3580  173.5380  143.2140 C   0  0  2  0  0  3  0  0  0  0  0  0
  189.5390  172.0260  143.5970 N   0  0  0  0  0  2  0  0  0  0  0  0
  189.3150  172.3250  142.1880 C   0  0  1  0  0  3  0  0  0  0  0  0
  190.2610  173.1480  144.1710 C   0  0  0  0  0  2  0  0  0  0  0  0
  188.1920  174.4120  141.4120 C   0  0  0  0  0  1  0  0  0  0  0  0
  187.9820  173.0360  142.0140 C   0  0  0  0  0  2  0  0  0  0  0  0
  1 12  2  0  0  0  0
  1  6  1  0  0  0  0
  4  5  2  0  0  0  0
  5 16  1  0  0  0  0
  5 12  1  0  0  0  0
  6  8  2  0  0  0  0
  7 17  1  6  0  0  0
  7  6  1  0  0  0  0
  8  3  1  0  0  0  0
  9  2  2  0  0  0  0
  9 10  1  0  0  0  0
 11 15  1  0  0  0  0
 11  1  1  0  0  0  0
 12 14  1  0  0  0  0
 13  4  1  0  0  0  0
 13 11  2  0  0  0  0
 14 10  1  0  0  0  0
 14  3  2  0  0  0  0
 15  7  1  0  0  0  0
 16  9  1  0  0  0  0
 18 17  1  0  0  0  0
 19 22  1  0  0  0  0
 19 20  1  0  0  0  0
 20 18  1  1  0  0  0
 20 23  1  0  0  0  0
 21 23  1  0  0  0  0
 22 25  1  1  0  0  0
 22 21  1  0  0  0  0
 24 25  1  0  0  0  0
M  END
>  <MODEL>
7

>  <REMARK>
 VINA RESULT:      -6.6      1.491      1.806
  Name = 
  4 active torsions:
  status: ('A' for Active; 'I' for Inactive)
    1  A    between atoms: N_7  and  C_11
    2  A    between atoms: N_7  and  C_20
    3  A    between atoms: C_8  and  C_20
    4  A    between atoms: C_16  and  C_24
                            x       y       z     vdW  Elec       q    Type
                         _______ _______ _______ _____ _____    ______ ____

>  <TORSDO>
F 4

$$$$
=
 OpenBabel11042418113D

 25 29  0  0  1  0  0  0  0  0999 V2000
  190.8470  176.6190  145.3840 C   0  0  0  0  0  0  0  0  0  0  0  0
  185.4600  177.4950  144.8770 O   0  0  0  0  0  0  0  0  0  0  0  0
  189.2200  175.3950  147.2300 C   0  0  0  0  0  3  0  0  0  0  0  0
  189.9270  178.2140  143.3890 N   0  0  0  0  0  0  0  0  0  0  0  0
  189.0260  177.6400  144.2520 C   0  0  0  0  0  0  0  0  0  0  0  0
  191.4240  175.8480  146.3360 C   0  0  0  0  0  0  0  0  0  0  0  0
  192.9160  175.8500  146.1560 C   0  0  2  0  0  3  0  0  0  0  0  0
  190.6230  175.2160  147.2970 C   0  0  0  0  0  3  0  0  0  0  0  0
  186.6900  177.2740  145.0240 C   0  0  0  0  0  0  0  0  0  0  0  0
  187.1460  176.3830  146.1560 C   0  0  0  0  0  2  0  0  0  0  0  0
  191.7420  177.1800  144.5400 C   0  0  0  0  0  0  0  0  0  0  0  0
  189.4840  176.8190  145.2850 C   0  0  0  0  0  0  0  0  0  0  0  0
  191.2790  178.0030  143.5080 C   0  0  0  0  0  3  0  0  0  0  0  0
  188.6400  176.1980  146.2180 C   0  0  0  0  0  0  0  0  0  0  0  0
  193.1300  176.7780  144.9230 C   0  0  0  0  0  2  0  0  0  0  0  0
  187.6250  177.8730  144.1150 N   0  0  0  0  0  2  0  0  0  0  0  0
  193.4160  174.4550  145.8220 C   0  0  0  0  0  2  0  0  0  0  0  0
  193.9720  174.4340  144.4780 N   0  0  0  0  0  2  0  0  0  0  0  0
  192.1010  173.9700  142.6140 S   0  0  0  0  0  0  0  0  0  0  0  0
  193.3420  173.3340  143.7690 C   0  0  2  0  0  3  0  0  0  0  0  0
  191.5780  171.7320  144.0230 N   0  0  0  0  0  2  0  0  0  0  0  0
  190.9180  172.6830  143.1360 C   0  0  1  0  0  3  0  0  0  0  0  0
  192.6080  172.4560  144.7480 C   0  0  0  0  0  2  0  0  0  0  0  0
  188.9430  174.1840  142.8830 C   0  0  0  0  0  1  0  0  0  0  0  0
  189.7240  173.3080  143.8420 C   0  0  0  0  0  2  0  0  0  0  0  0
  1  6  1  0  0  0  0
  2  9  2  0  0  0  0
  3  8  1  0  0  0  0
  4 13  1  0  0  0  0
  4  5  2  0  0  0  0
  5 12  1  0  0  0  0
  6  8  2  0  0  0  0
  7 17  1  6  0  0  0
  7  6  1  0  0  0  0
  9 10  1  0  0  0  0
 10 14  1  0  0  0  0
 11 15  1  0  0  0  0
 11  1  1  0  0  0  0
 12  1  2  0  0  0  0
 12 14  1  0  0  0  0
 13 11  2  0  0  0  0
 14  3  2  0  0  0  0
 15  7  1  0  0  0  0
 16  5  1  0  0  0  0
 16  9  1  0  0  0  0
 18 17  1  0  0  0  0
 19 22  1  0  0  0  0
 19 20  1  0  0  0  0
 20 18  1  1  0  0  0
 20 23  1  0  0  0  0
 21 23  1  0  0  0  0
 22 25  1  1  0  0  0
 22 21  1  0  0  0  0
 24 25  1  0  0  0  0
M  END
>  <MODEL>
8

>  <REMARK>
 VINA RESULT:      -6.6      1.726      2.563
  Name = 
  4 active torsions:
  status: ('A' for Active; 'I' for Inactive)
    1  A    between atoms: N_7  and  C_11
    2  A    between atoms: N_7  and  C_20
    3  A    between atoms: C_8  and  C_20
    4  A    between atoms: C_16  and  C_24
                            x       y       z     vdW  Elec       q    Type
                         _______ _______ _______ _____ _____    ______ ____

>  <TORSDO>
F 4

$$$$
=
 OpenBabel11042418113D

 25 29  0  0  1  0  0  0  0  0999 V2000
  189.2430  177.5530  144.4580 C   0  0  0  0  0  0  0  0  0  0  0  0
  184.0290  178.1830  146.0270 O   0  0  0  0  0  0  0  0  0  0  0  0
  188.7210  177.2770  147.1420 C   0  0  0  0  0  3  0  0  0  0  0  0
  187.3430  178.1270  142.6060 N   0  0  0  0  0  0  0  0  0  0  0  0
  186.9730  177.9990  143.9220 C   0  0  0  0  0  0  0  0  0  0  0  0
  190.2750  177.2700  145.2870 C   0  0  0  0  0  0  0  0  0  0  0  0
  191.5500  177.1750  144.4950 C   0  0  2  0  0  3  0  0  0  0  0  0
  190.0450  177.1290  146.6620 C   0  0  0  0  0  3  0  0  0  0  0  0
  185.2360  178.0340  145.7020 C   0  0  0  0  0  0  0  0  0  0  0  0
  186.2510  177.7220  146.7760 C   0  0  0  0  0  2  0  0  0  0  0  0
  189.6170  177.6790  143.1650 C   0  0  0  0  0  0  0  0  0  0  0  0
  187.9390  177.7060  144.8870 C   0  0  0  0  0  0  0  0  0  0  0  0
  188.6470  177.9740  142.2020 C   0  0  0  0  0  3  0  0  0  0  0  0
  187.6560  177.5650  146.2540 C   0  0  0  0  0  0  0  0  0  0  0  0
  191.0910  177.4680  143.0360 C   0  0  0  0  0  2  0  0  0  0  0  0
  185.6130  178.1650  144.3240 N   0  0  0  0  0  2  0  0  0  0  0  0
  192.1190  175.7680  144.5640 C   0  0  0  0  0  2  0  0  0  0  0  0
  193.4480  175.7970  145.1540 N   0  0  0  0  0  2  0  0  0  0  0  0
  194.9750  173.8160  144.1880 S   0  0  0  0  0  0  0  0  0  0  0  0
  194.3980  175.5290  144.0880 C   0  0  2  0  0  3  0  0  0  0  0  0
  196.7250  175.7720  143.5740 N   0  0  0  0  0  2  0  0  0  0  0  0
  196.6960  174.3520  143.9060 C   0  0  1  0  0  3  0  0  0  0  0  0
  195.6120  176.4030  144.2610 C   0  0  0  0  0  2  0  0  0  0  0  0
  196.8320  173.1420  146.0820 C   0  0  0  0  0  1  0  0  0  0  0  0
  197.5470  174.0900  145.1390 C   0  0  0  0  0  2  0  0  0  0  0  0
  1 12  2  0  0  0  0
  1  6  1  0  0  0  0
  4  5  2  0  0  0  0
  5 16  1  0  0  0  0
  5 12  1  0  0  0  0
  6  8  2  0  0  0  0
  7 17  1  6  0  0  0
  7  6  1  0  0  0  0
  8  3  1  0  0  0  0
  9  2  2  0  0  0  0
  9 10  1  0  0  0  0
 11  1  1  0  0  0  0
 12 14  1  0  0  0  0
 13  4  1  0  0  0  0
 13 11  2  0  0  0  0
 14 10  1  0  0  0  0
 14  3  2  0  0  0  0
 15 11  1  0  0  0  0
 15  7  1  0  0  0  0
 16  9  1  0  0  0  0
 17 18  1  0  0  0  0
 20 19  1  0  0  0  0
 20 23  1  0  0  0  0
 20 18  1  1  0  0  0
 21 22  1  0  0  0  0
 21 23  1  0  0  0  0
 22 19  1  0  0  0  0
 22 25  1  1  0  0  0
 25 24  1  0  0  0  0
M  END
>  <MODEL>
9

>  <REMARK>
 VINA RESULT:      -6.5      3.045      4.314
  Name = 
  4 active torsions:
  status: ('A' for Active; 'I' for Inactive)
    1  A    between atoms: N_7  and  C_11
    2  A    between atoms: N_7  and  C_20
    3  A    between atoms: C_8  and  C_20
    4  A    between atoms: C_16  and  C_24
                            x       y       z     vdW  Elec       q    Type
                         _______ _______ _______ _____ _____    ______ ____

>  <TORSDO>
F 4

$$$$
