=
 OpenBabel11042413473D

 30 32  0  0  1  0  0  0  0  0999 V2000
  190.9730  174.4380  144.7390 C   0  0  0  0  0  0  0  0  0  0  0  0
  190.1100  174.3970  143.5910 N   0  0  0  0  0  0  0  0  0  0  0  0
  188.8510  176.3350  144.3360 C   0  0  0  0  0  0  0  0  0  0  0  0
  189.7090  176.4200  145.5480 C   0  0  0  0  0  0  0  0  0  0  0  0
  189.0780  175.3830  143.4270 C   0  0  0  0  0  3  0  0  0  0  0  0
  189.4390  177.2870  146.5200 C   0  0  0  0  0  2  0  0  0  0  0  0
  191.7440  173.4740  144.9940 O   0  0  0  0  0  0  0  0  0  0  0  0
  191.0050  175.6560  145.6140 C   0  0  2  0  0  3  0  0  0  0  0  0
  186.7220  177.3980  145.0380 C   0  0  0  0  0  3  0  0  0  0  0  0
  188.7440  178.0570  141.9760 N   0  0  0  0  0  1  0  0  0  0  0  0
  185.6730  178.2930  144.8330 C   0  0  0  0  0  0  0  0  0  0  0  0
  187.7460  177.2830  144.0920 C   0  0  0  0  0  0  0  0  0  0  0  0
  186.6620  178.9600  142.7660 N   0  0  0  0  0  0  0  0  0  0  0  0
  185.6560  179.0700  143.6740 C   0  0  0  0  0  3  0  0  0  0  0  0
  187.6990  178.0970  142.9440 C   0  0  0  0  0  0  0  0  0  0  0  0
  184.3550  178.4310  146.0320 S   0  0  0  0  0  0  0  0  0  0  0  0
  185.5160  178.5790  147.4200 C   0  0  0  0  0  1  0  0  0  0  0  0
  188.9460  172.5320  142.4530 C   0  0  0  0  0  2  0  0  0  0  0  0
  190.6940  172.9220  140.2700 O   0  0  0  0  0  0  0  0  0  0  0  0
  190.2560  173.3220  142.6120 C   0  0  1  0  0  3  0  0  0  0  0  0
  189.5970  173.3910  139.5360 C   0  0  2  0  0  3  0  0  0  0  0  0
  188.3110  172.7260  140.0310 C   0  0  0  0  0  2  0  0  0  0  0  0
  187.9740  173.1560  141.4550 C   0  0  0  0  0  2  0  0  0  0  0  0
  190.8540  173.8520  141.3040 C   0  0  0  0  0  2  0  0  0  0  0  0
  189.1890  173.7730  137.2360 C   0  0  0  0  0  2  0  0  0  0  0  0
  189.8010  173.0990  138.1400 N   0  0  0  0  0  0  0  0  0  0  0  0
  193.3340  176.5660  146.0540 N   0  0  0  0  0  2  0  0  0  0  0  0
  192.1620  176.5290  145.2380 C   0  0  0  0  0  0  0  0  0  0  0  0
  192.0890  177.2320  144.1940 O   0  0  0  0  0  0  0  0  0  0  0  0
  194.4780  177.3990  145.7240 C   0  0  0  0  0  1  0  0  0  0  0  0
  1  7  2  0  0  0  0
  1  8  1  0  0  0  0
  2  1  1  0  0  0  0
  3  4  1  0  0  0  0
  4  8  1  0  0  0  0
  4  6  2  0  0  0  0
  5  2  1  0  0  0  0
  5  3  2  0  0  0  0
  8 28  1  6  0  0  0
 10 15  1  0  0  0  0
 11  9  1  0  0  0  0
 11 16  1  0  0  0  0
 12  3  1  0  0  0  0
 12  9  2  0  0  0  0
 13 15  2  0  0  0  0
 13 14  1  0  0  0  0
 14 11  2  0  0  0  0
 15 12  1  0  0  0  0
 16 17  1  0  0  0  0
 18 20  1  0  0  0  0
 19 24  1  0  0  0  0
 20 24  1  6  0  0  0
 20  2  1  0  0  0  0
 21 26  1  6  0  0  0
 21 22  1  0  0  0  0
 21 19  1  0  0  0  0
 22 23  1  0  0  0  0
 23 18  1  0  0  0  0
 25 26  2  0  0  0  0
 28 27  1  0  0  0  0
 29 28  2  0  0  0  0
 30 27  1  0  0  0  0
M  END
>  <MODEL>
1

>  <REMARK>
 VINA RESULT:      -7.2      0.000      0.000
  Name = 
  5 active torsions:
  status: ('A' for Active; 'I' for Inactive)
    1  A    between atoms: C_2  and  C_27
    2  A    between atoms: N_4  and  C_10
    3  A    between atoms: C_9  and  C_21
    4  A    between atoms: C_14  and  S_17
    5  A    between atoms: C_18  and  N_25
                            x       y       z     vdW  Elec       q    Type
                         _______ _______ _______ _____ _____    ______ ____

>  <TORSDO>
F 5

$$$$
=
 OpenBabel11042413473D

 30 32  0  0  1  0  0  0  0  0999 V2000
  191.1420  177.7540  143.5140 C   0  0  0  0  0  0  0  0  0  0  0  0
  189.8460  177.1420  143.4220 N   0  0  0  0  0  0  0  0  0  0  0  0
  190.7610  175.1020  142.4740 C   0  0  0  0  0  0  0  0  0  0  0  0
  192.1260  175.6910  142.5390 C   0  0  0  0  0  0  0  0  0  0  0  0
  189.7130  175.8040  142.9140 C   0  0  0  0  0  3  0  0  0  0  0  0
  193.1710  175.0600  142.0090 C   0  0  0  0  0  2  0  0  0  0  0  0
  191.2500  178.9850  143.7680 O   0  0  0  0  0  0  0  0  0  0  0  0
  192.3810  176.9230  143.3660 C   0  0  2  0  0  3  0  0  0  0  0  0
  190.1720  173.5930  140.5940 C   0  0  0  0  0  3  0  0  0  0  0  0
  191.0530  172.6920  144.1030 N   0  0  0  0  0  1  0  0  0  0  0  0
  189.9470  172.3220  140.0670 C   0  0  0  0  0  0  0  0  0  0  0  0
  190.5190  173.7470  141.9400 C   0  0  0  0  0  0  0  0  0  0  0  0
  190.4200  171.3660  142.2010 N   0  0  0  0  0  0  0  0  0  0  0  0
  190.0710  171.2080  140.8970 C   0  0  0  0  0  3  0  0  0  0  0  0
  190.6490  172.5950  142.7400 C   0  0  0  0  0  0  0  0  0  0  0  0
  189.4870  172.1240  138.3510 S   0  0  0  0  0  0  0  0  0  0  0  0
  188.4700  173.6290  138.3600 C   0  0  0  0  0  1  0  0  0  0  0  0
  187.5550  177.7820  142.7360 C   0  0  0  0  0  2  0  0  0  0  0  0
  186.9180  178.0020  145.4790 O   0  0  0  0  0  0  0  0  0  0  0  0
  188.6560  177.8990  143.8040 C   0  0  1  0  0  3  0  0  0  0  0  0
  186.1050  176.8710  145.3320 C   0  0  2  0  0  3  0  0  0  0  0  0
  185.5630  176.7950  143.9030 C   0  0  0  0  0  2  0  0  0  0  0  0
  186.6780  176.5420  142.8960 C   0  0  0  0  0  2  0  0  0  0  0  0
  188.2160  177.5420  145.2280 C   0  0  0  0  0  2  0  0  0  0  0  0
  184.4460  178.0640  146.5270 C   0  0  0  0  0  2  0  0  0  0  0  0
  185.0170  176.9430  146.2730 N   0  0  0  0  0  0  0  0  0  0  0  0
  192.1830  175.6900  145.5770 N   0  0  0  0  0  2  0  0  0  0  0  0
  192.9210  176.5600  144.7150 C   0  0  0  0  0  0  0  0  0  0  0  0
  194.0310  177.0300  145.0820 O   0  0  0  0  0  0  0  0  0  0  0  0
  192.6720  175.3130  146.8930 C   0  0  0  0  0  1  0  0  0  0  0  0
  1  7  2  0  0  0  0
  2  1  1  0  0  0  0
  2 20  1  0  0  0  0
  3  4  1  0  0  0  0
  3  5  2  0  0  0  0
  4  8  1  0  0  0  0
  5  2  1  0  0  0  0
  6  4  2  0  0  0  0
  8  1  1  0  0  0  0
  8 28  1  1  0  0  0
  9 12  1  0  0  0  0
 11  9  2  0  0  0  0
 11 14  1  0  0  0  0
 12  3  1  0  0  0  0
 12 15  2  0  0  0  0
 13 15  1  0  0  0  0
 14 13  2  0  0  0  0
 15 10  1  0  0  0  0
 16 17  1  0  0  0  0
 16 11  1  0  0  0  0
 18 23  1  0  0  0  0
 20 18  1  6  0  0  0
 20 24  1  0  0  0  0
 21 19  1  0  0  0  0
 21 26  1  1  0  0  0
 22 21  1  0  0  0  0
 23 22  1  0  0  0  0
 24 19  1  0  0  0  0
 26 25  2  0  0  0  0
 27 30  1  0  0  0  0
 28 29  2  0  0  0  0
 28 27  1  0  0  0  0
M  END
>  <MODEL>
2

>  <REMARK>
 VINA RESULT:      -7.1      3.131      6.505
  Name = 
  5 active torsions:
  status: ('A' for Active; 'I' for Inactive)
    1  A    between atoms: C_2  and  C_27
    2  A    between atoms: N_4  and  C_10
    3  A    between atoms: C_9  and  C_21
    4  A    between atoms: C_14  and  S_17
    5  A    between atoms: C_18  and  N_25
                            x       y       z     vdW  Elec       q    Type
                         _______ _______ _______ _____ _____    ______ ____

>  <TORSDO>
F 5

$$$$
=
 OpenBabel11042413473D

 30 32  0  0  1  0  0  0  0  0999 V2000
  188.6770  176.0400  142.4290 C   0  0  0  0  0  0  0  0  0  0  0  0
  189.5010  174.8870  142.6610 N   0  0  0  0  0  0  0  0  0  0  0  0
  191.1950  176.1960  143.8070 C   0  0  0  0  0  0  0  0  0  0  0  0
  190.3860  177.4250  143.5860 C   0  0  0  0  0  0  0  0  0  0  0  0
  190.7410  175.0160  143.3760 C   0  0  0  0  0  3  0  0  0  0  0  0
  190.8620  178.6250  143.9070 C   0  0  0  0  0  2  0  0  0  0  0  0
  187.6960  175.9760  141.6390 O   0  0  0  0  0  0  0  0  0  0  0  0
  188.9450  177.3180  143.1660 C   0  0  2  0  0  3  0  0  0  0  0  0
  193.6740  176.2750  143.7510 C   0  0  0  0  0  3  0  0  0  0  0  0
  191.4210  176.2560  146.7210 N   0  0  0  0  0  1  0  0  0  0  0  0
  194.9140  176.3170  144.3880 C   0  0  0  0  0  0  0  0  0  0  0  0
  192.4970  176.2310  144.5040 C   0  0  0  0  0  0  0  0  0  0  0  0
  193.8140  176.2830  146.5050 N   0  0  0  0  0  0  0  0  0  0  0  0
  194.9650  176.3130  145.7820 C   0  0  0  0  0  3  0  0  0  0  0  0
  192.5920  176.2450  145.9090 C   0  0  0  0  0  0  0  0  0  0  0  0
  196.4210  176.3560  143.4280 S   0  0  0  0  0  0  0  0  0  0  0  0
  195.5210  176.3210  141.8520 C   0  0  0  0  0  1  0  0  0  0  0  0
  189.4480  173.4600  140.6390 C   0  0  0  0  0  2  0  0  0  0  0  0
  189.5190  171.2190  142.3570 O   0  0  0  0  0  0  0  0  0  0  0  0
  189.0960  173.5870  142.1310 C   0  0  1  0  0  3  0  0  0  0  0  0
  190.8150  170.9620  141.8920 C   0  0  2  0  0  3  0  0  0  0  0  0
  190.9680  171.4680  140.4560 C   0  0  0  0  0  2  0  0  0  0  0  0
  190.8790  172.9890  140.3880 C   0  0  0  0  0  2  0  0  0  0  0  0
  189.6160  172.4490  143.0180 C   0  0  0  0  0  2  0  0  0  0  0  0
  190.9030  168.8110  140.9100 C   0  0  0  0  0  2  0  0  0  0  0  0
  191.0680  169.5460  141.9480 N   0  0  0  0  0  0  0  0  0  0  0  0
  188.1660  176.5250  145.4500 N   0  0  0  0  0  2  0  0  0  0  0  0
  188.0330  177.4290  144.3500 C   0  0  0  0  0  0  0  0  0  0  0  0
  187.1470  178.3250  144.3640 O   0  0  0  0  0  0  0  0  0  0  0  0
  187.3030  176.5990  146.6160 C   0  0  0  0  0  1  0  0  0  0  0  0
  1  2  1  0  0  0  0
  1  8  1  0  0  0  0
  2  5  1  0  0  0  0
  3 12  1  0  0  0  0
  4  3  1  0  0  0  0
  4  6  2  0  0  0  0
  5  3  2  0  0  0  0
  7  1  2  0  0  0  0
  8  4  1  0  0  0  0
  8 28  1  1  0  0  0
  9 11  2  0  0  0  0
  9 12  1  0  0  0  0
 11 14  1  0  0  0  0
 12 15  2  0  0  0  0
 14 13  2  0  0  0  0
 15 13  1  0  0  0  0
 15 10  1  0  0  0  0
 16 11  1  0  0  0  0
 17 16  1  0  0  0  0
 19 24  1  0  0  0  0
 20 18  1  6  0  0  0
 20  2  1  0  0  0  0
 20 24  1  0  0  0  0
 21 26  1  6  0  0  0
 21 19  1  0  0  0  0
 22 21  1  0  0  0  0
 23 22  1  0  0  0  0
 23 18  1  0  0  0  0
 25 26  2  0  0  0  0
 27 30  1  0  0  0  0
 28 29  2  0  0  0  0
 28 27  1  0  0  0  0
M  END
>  <MODEL>
3

>  <REMARK>
 VINA RESULT:      -7.1      3.398      5.860
  Name = 
  5 active torsions:
  status: ('A' for Active; 'I' for Inactive)
    1  A    between atoms: C_2  and  C_27
    2  A    between atoms: N_4  and  C_10
    3  A    between atoms: C_9  and  C_21
    4  A    between atoms: C_14  and  S_17
    5  A    between atoms: C_18  and  N_25
                            x       y       z     vdW  Elec       q    Type
                         _______ _______ _______ _____ _____    ______ ____

>  <TORSDO>
F 5

$$$$
=
 OpenBabel11042413473D

 30 32  0  0  1  0  0  0  0  0999 V2000
  189.7630  175.1740  145.9990 C   0  0  0  0  0  0  0  0  0  0  0  0
  190.0980  176.4310  145.3890 N   0  0  0  0  0  0  0  0  0  0  0  0
  192.3220  175.6660  144.7850 C   0  0  0  0  0  0  0  0  0  0  0  0
  192.0310  174.3470  145.4110 C   0  0  0  0  0  0  0  0  0  0  0  0
  191.3840  176.6170  144.7760 C   0  0  0  0  0  3  0  0  0  0  0  0
  192.9790  173.4220  145.5310 C   0  0  0  0  0  2  0  0  0  0  0  0
  188.7250  175.0650  146.7070 O   0  0  0  0  0  0  0  0  0  0  0  0
  190.6160  173.9660  145.7530 C   0  0  2  0  0  3  0  0  0  0  0  0
  193.7980  175.7150  142.7920 C   0  0  0  0  0  3  0  0  0  0  0  0
  194.5540  176.8360  146.2670 N   0  0  0  0  0  1  0  0  0  0  0  0
  195.0170  175.9970  142.1770 C   0  0  0  0  0  0  0  0  0  0  0  0
  193.6240  175.9640  144.1570 C   0  0  0  0  0  0  0  0  0  0  0  0
  195.8770  176.7760  144.2610 N   0  0  0  0  0  0  0  0  0  0  0  0
  196.0590  176.5270  142.9380 C   0  0  0  0  0  3  0  0  0  0  0  0
  194.6960  176.5140  144.8860 C   0  0  0  0  0  0  0  0  0  0  0  0
  195.2480  175.6650  140.4360 S   0  0  0  0  0  0  0  0  0  0  0  0
  197.0570  175.6670  140.5860 C   0  0  0  0  0  1  0  0  0  0  0  0
  188.3840  177.6680  144.1000 C   0  0  0  0  0  2  0  0  0  0  0  0
  187.1430  178.2860  146.5600 O   0  0  0  0  0  0  0  0  0  0  0  0
  189.1430  177.5360  145.4310 C   0  0  1  0  0  3  0  0  0  0  0  0
  186.0900  177.4410  146.1880 C   0  0  2  0  0  3  0  0  0  0  0  0
  185.9490  177.4150  144.6650 C   0  0  0  0  0  2  0  0  0  0  0  0
  187.1580  176.7620  144.0040 C   0  0  0  0  0  2  0  0  0  0  0  0
  188.2530  177.4420  146.6760 C   0  0  0  0  0  2  0  0  0  0  0  0
  184.0650  178.6650  146.1370 C   0  0  0  0  0  2  0  0  0  0  0  0
  184.8690  177.9090  146.7910 N   0  0  0  0  0  0  0  0  0  0  0  0
  189.7510  173.6810  143.3820 N   0  0  0  0  0  2  0  0  0  0  0  0
  190.0120  173.1230  144.6720 C   0  0  0  0  0  0  0  0  0  0  0  0
  189.7370  171.9170  144.9120 O   0  0  0  0  0  0  0  0  0  0  0  0
  189.1670  172.8980  142.3070 C   0  0  0  0  0  1  0  0  0  0  0  0
  1  7  2  0  0  0  0
  2 20  1  0  0  0  0
  2  1  1  0  0  0  0
  3  4  1  0  0  0  0
  4  6  2  0  0  0  0
  4  8  1  0  0  0  0
  5  3  2  0  0  0  0
  5  2  1  0  0  0  0
  8 28  1  6  0  0  0
  8  1  1  0  0  0  0
  9 12  1  0  0  0  0
 11  9  2  0  0  0  0
 11 14  1  0  0  0  0
 12  3  1  0  0  0  0
 12 15  2  0  0  0  0
 13 15  1  0  0  0  0
 14 13  2  0  0  0  0
 15 10  1  0  0  0  0
 16 17  1  0  0  0  0
 16 11  1  0  0  0  0
 19 24  1  0  0  0  0
 20 18  1  6  0  0  0
 20 24  1  0  0  0  0
 21 19  1  0  0  0  0
 21 26  1  1  0  0  0
 22 21  1  0  0  0  0
 23 18  1  0  0  0  0
 23 22  1  0  0  0  0
 25 26  2  0  0  0  0
 27 28  1  0  0  0  0
 28 29  2  0  0  0  0
 30 27  1  0  0  0  0
M  END
>  <MODEL>
4

>  <REMARK>
 VINA RESULT:      -7.1      3.432      7.445
  Name = 
  5 active torsions:
  status: ('A' for Active; 'I' for Inactive)
    1  A    between atoms: C_2  and  C_27
    2  A    between atoms: N_4  and  C_10
    3  A    between atoms: C_9  and  C_21
    4  A    between atoms: C_14  and  S_17
    5  A    between atoms: C_18  and  N_25
                            x       y       z     vdW  Elec       q    Type
                         _______ _______ _______ _____ _____    ______ ____

>  <TORSDO>
F 5

$$$$
=
 OpenBabel11042413473D

 30 32  0  0  1  0  0  0  0  0999 V2000
  193.3580  176.2890  144.6240 C   0  0  0  0  0  0  0  0  0  0  0  0
  191.9440  176.0330  144.6010 N   0  0  0  0  0  0  0  0  0  0  0  0
  192.1740  174.3270  142.8880 C   0  0  0  0  0  0  0  0  0  0  0  0
  193.6430  174.5580  142.8640 C   0  0  0  0  0  0  0  0  0  0  0  0
  191.4060  175.0250  143.7290 C   0  0  0  0  0  3  0  0  0  0  0  0
  194.4160  173.9570  141.9630 C   0  0  0  0  0  2  0  0  0  0  0  0
  193.8150  177.2960  145.2300 O   0  0  0  0  0  0  0  0  0  0  0  0
  194.3080  175.3290  143.9720 C   0  0  2  0  0  3  0  0  0  0  0  0
  191.1090  173.7220  140.7300 C   0  0  0  0  0  3  0  0  0  0  0  0
  191.7760  171.5420  143.6800 N   0  0  0  0  0  1  0  0  0  0  0  0
  190.5000  172.8000  139.8800 C   0  0  0  0  0  0  0  0  0  0  0  0
  191.5230  173.3360  142.0090 C   0  0  0  0  0  0  0  0  0  0  0  0
  190.7240  171.1210  141.5600 N   0  0  0  0  0  0  0  0  0  0  0  0
  190.3070  171.4900  140.3200 C   0  0  0  0  0  3  0  0  0  0  0  0
  191.3240  172.0000  142.4080 C   0  0  0  0  0  0  0  0  0  0  0  0
  189.9550  173.2950  138.2510 S   0  0  0  0  0  0  0  0  0  0  0  0
  188.3860  173.9550  138.8820 C   0  0  0  0  0  1  0  0  0  0  0  0
  190.4200  177.9840  144.6330 C   0  0  0  0  0  2  0  0  0  0  0  0
  188.9980  176.6950  146.7040 O   0  0  0  0  0  0  0  0  0  0  0  0
  191.0490  176.8310  145.4350 C   0  0  1  0  0  3  0  0  0  0  0  0
  187.9400  176.5180  145.8040 C   0  0  2  0  0  3  0  0  0  0  0  0
  187.9350  177.6460  144.7700 C   0  0  0  0  0  2  0  0  0  0  0  0
  189.1620  177.5800  143.8670 C   0  0  0  0  0  2  0  0  0  0  0  0
  190.0470  175.9360  146.1740 C   0  0  0  0  0  2  0  0  0  0  0  0
  185.6010  176.8520  145.9560 C   0  0  0  0  0  2  0  0  0  0  0  0
  186.6950  176.5050  146.5290 N   0  0  0  0  0  0  0  0  0  0  0  0
  196.2980  174.3530  145.2120 N   0  0  0  0  0  2  0  0  0  0  0  0
  194.8850  174.4020  144.9980 C   0  0  0  0  0  0  0  0  0  0  0  0
  194.1130  173.6660  145.6680 O   0  0  0  0  0  0  0  0  0  0  0  0
  196.8980  173.4690  146.1970 C   0  0  0  0  0  1  0  0  0  0  0  0
  1  7  2  0  0  0  0
  2  1  1  0  0  0  0
  3  5  2  0  0  0  0
  4  3  1  0  0  0  0
  4  8  1  0  0  0  0
  5  2  1  0  0  0  0
  6  4  2  0  0  0  0
  8  1  1  0  0  0  0
  8 28  1  1  0  0  0
  9 12  1  0  0  0  0
 11 14  1  0  0  0  0
 11  9  2  0  0  0  0
 12 15  2  0  0  0  0
 12  3  1  0  0  0  0
 13 15  1  0  0  0  0
 14 13  2  0  0  0  0
 15 10  1  0  0  0  0
 16 17  1  0  0  0  0
 16 11  1  0  0  0  0
 18 20  1  0  0  0  0
 20  2  1  6  0  0  0
 20 24  1  0  0  0  0
 21 26  1  1  0  0  0
 21 19  1  0  0  0  0
 22 21  1  0  0  0  0
 23 18  1  0  0  0  0
 23 22  1  0  0  0  0
 24 19  1  0  0  0  0
 25 26  2  0  0  0  0
 27 30  1  0  0  0  0
 28 27  1  0  0  0  0
 28 29  2  0  0  0  0
M  END
>  <MODEL>
5

>  <REMARK>
 VINA RESULT:      -6.9      3.195      6.685
  Name = 
  5 active torsions:
  status: ('A' for Active; 'I' for Inactive)
    1  A    between atoms: C_2  and  C_27
    2  A    between atoms: N_4  and  C_10
    3  A    between atoms: C_9  and  C_21
    4  A    between atoms: C_14  and  S_17
    5  A    between atoms: C_18  and  N_25
                            x       y       z     vdW  Elec       q    Type
                         _______ _______ _______ _____ _____    ______ ____

>  <TORSDO>
F 5

$$$$
=
 OpenBabel11042413473D

 30 32  0  0  1  0  0  0  0  0999 V2000
  191.5720  175.1170  142.1850 C   0  0  0  0  0  0  0  0  0  0  0  0
  191.8450  175.8960  143.3610 N   0  0  0  0  0  0  0  0  0  0  0  0
  189.4920  176.0280  143.9480 C   0  0  0  0  0  0  0  0  0  0  0  0
  189.1520  175.2310  142.7380 C   0  0  0  0  0  0  0  0  0  0  0  0
  190.7700  176.3070  144.2210 C   0  0  0  0  0  3  0  0  0  0  0  0
  187.8850  175.0310  142.3840 C   0  0  0  0  0  2  0  0  0  0  0  0
  192.4730  174.9220  141.3250 O   0  0  0  0  0  0  0  0  0  0  0  0
  190.2260  174.4820  141.9970 C   0  0  2  0  0  3  0  0  0  0  0  0
  187.6290  177.5780  144.4800 C   0  0  0  0  0  3  0  0  0  0  0  0
  189.0350  174.8350  146.5770 N   0  0  0  0  0  1  0  0  0  0  0  0
  186.6390  178.0550  145.3370 C   0  0  0  0  0  0  0  0  0  0  0  0
  188.4560  176.5220  144.8770 C   0  0  0  0  0  0  0  0  0  0  0  0
  187.2840  176.4340  146.9660 N   0  0  0  0  0  0  0  0  0  0  0  0
  186.4830  177.4680  146.5930 C   0  0  0  0  0  3  0  0  0  0  0  0
  188.2560  175.9480  146.1470 C   0  0  0  0  0  0  0  0  0  0  0  0
  185.5910  179.4150  144.8400 S   0  0  0  0  0  0  0  0  0  0  0  0
  184.1670  178.7700  145.7630 C   0  0  0  0  0  1  0  0  0  0  0  0
  193.2980  177.0330  145.0110 C   0  0  0  0  0  2  0  0  0  0  0  0
  195.4220  175.4210  144.0810 O   0  0  0  0  0  0  0  0  0  0  0  0
  193.2150  176.3060  143.6580 C   0  0  1  0  0  3  0  0  0  0  0  0
  195.3950  174.7560  145.3140 C   0  0  2  0  0  3  0  0  0  0  0  0
  194.9040  175.7030  146.4110 C   0  0  0  0  0  2  0  0  0  0  0  0
  193.4440  176.0890  146.2020 C   0  0  0  0  0  2  0  0  0  0  0  0
  194.1860  175.1310  143.4940 C   0  0  0  0  0  2  0  0  0  0  0  0
  197.4660  173.7810  144.7110 C   0  0  0  0  0  2  0  0  0  0  0  0
  196.7180  174.2790  145.6260 N   0  0  0  0  0  0  0  0  0  0  0  0
  191.0560  172.6540  143.5530 N   0  0  0  0  0  2  0  0  0  0  0  0
  190.2710  173.0470  142.4250 C   0  0  0  0  0  0  0  0  0  0  0  0
  189.6110  172.1910  141.7780 O   0  0  0  0  0  0  0  0  0  0  0  0
  191.1260  171.2740  144.0000 C   0  0  0  0  0  1  0  0  0  0  0  0
  1  2  1  0  0  0  0
  2  5  1  0  0  0  0
  3  5  2  0  0  0  0
  3 12  1  0  0  0  0
  4  3  1  0  0  0  0
  6  4  2  0  0  0  0
  7  1  2  0  0  0  0
  8  1  1  0  0  0  0
  8 28  1  1  0  0  0
  8  4  1  0  0  0  0
  9 12  2  0  0  0  0
  9 11  1  0  0  0  0
 11 14  2  0  0  0  0
 12 15  1  0  0  0  0
 14 13  1  0  0  0  0
 15 10  1  0  0  0  0
 15 13  2  0  0  0  0
 16 11  1  0  0  0  0
 16 17  1  0  0  0  0
 18 23  1  0  0  0  0
 19 21  1  0  0  0  0
 20  2  1  1  0  0  0
 20 18  1  0  0  0  0
 21 26  1  1  0  0  0
 21 22  1  0  0  0  0
 23 22  1  0  0  0  0
 24 20  1  0  0  0  0
 24 19  1  0  0  0  0
 25 26  2  0  0  0  0
 27 30  1  0  0  0  0
 28 27  1  0  0  0  0
 29 28  2  0  0  0  0
M  END
>  <MODEL>
6

>  <REMARK>
 VINA RESULT:      -6.8      2.589      5.465
  Name = 
  5 active torsions:
  status: ('A' for Active; 'I' for Inactive)
    1  A    between atoms: C_2  and  C_27
    2  A    between atoms: N_4  and  C_10
    3  A    between atoms: C_9  and  C_21
    4  A    between atoms: C_14  and  S_17
    5  A    between atoms: C_18  and  N_25
                            x       y       z     vdW  Elec       q    Type
                         _______ _______ _______ _____ _____    ______ ____

>  <TORSDO>
F 5

$$$$
=
 OpenBabel11042413473D

 30 32  0  0  1  0  0  0  0  0999 V2000
  189.7830  175.8480  144.4860 C   0  0  0  0  0  0  0  0  0  0  0  0
  191.0810  175.4570  144.0110 N   0  0  0  0  0  0  0  0  0  0  0  0
  190.1360  174.0610  142.2630 C   0  0  0  0  0  0  0  0  0  0  0  0
  188.7680  174.4260  142.7190 C   0  0  0  0  0  0  0  0  0  0  0  0
  191.2020  174.5770  142.8810 C   0  0  0  0  0  3  0  0  0  0  0  0
  187.6930  173.8440  142.1950 C   0  0  0  0  0  2  0  0  0  0  0  0
  189.6610  176.4520  145.5870 O   0  0  0  0  0  0  0  0  0  0  0  0
  188.5650  175.5910  143.6500 C   0  0  2  0  0  3  0  0  0  0  0  0
  190.5770  173.6690  139.8530 C   0  0  0  0  0  3  0  0  0  0  0  0
  190.2390  171.1570  142.5880 N   0  0  0  0  0  1  0  0  0  0  0  0
  190.8030  172.8190  138.7710 C   0  0  0  0  0  0  0  0  0  0  0  0
  190.3640  173.1410  141.1310 C   0  0  0  0  0  0  0  0  0  0  0  0
  190.6150  170.9360  140.2250 N   0  0  0  0  0  0  0  0  0  0  0  0
  190.8120  171.4390  138.9770 C   0  0  0  0  0  3  0  0  0  0  0  0
  190.3960  171.7430  141.2980 C   0  0  0  0  0  0  0  0  0  0  0  0
  191.0600  173.4900  137.1340 S   0  0  0  0  0  0  0  0  0  0  0  0
  189.2920  173.8310  136.9020 C   0  0  0  0  0  1  0  0  0  0  0  0
  192.6270  174.9990  145.8900 C   0  0  0  0  0  2  0  0  0  0  0  0
  194.6450  176.2870  144.3930 O   0  0  0  0  0  0  0  0  0  0  0  0
  192.2790  175.9200  144.7070 C   0  0  1  0  0  3  0  0  0  0  0  0
  195.2630  175.0390  144.2400 C   0  0  2  0  0  3  0  0  0  0  0  0
  194.9450  174.1460  145.4410 C   0  0  0  0  0  2  0  0  0  0  0  0
  193.4650  173.7870  145.4930 C   0  0  0  0  0  2  0  0  0  0  0  0
  193.4250  176.1650  143.7190 C   0  0  0  0  0  2  0  0  0  0  0  0
  197.1660  176.1170  143.3360 C   0  0  0  0  0  2  0  0  0  0  0  0
  196.6860  175.2250  144.1230 N   0  0  0  0  0  0  0  0  0  0  0  0
  186.9080  177.4250  143.0650 N   0  0  0  0  0  2  0  0  0  0  0  0
  188.1940  176.8270  142.8890 C   0  0  0  0  0  0  0  0  0  0  0  0
  189.0280  177.3320  142.0900 O   0  0  0  0  0  0  0  0  0  0  0  0
  186.5100  178.6230  142.3470 C   0  0  0  0  0  1  0  0  0  0  0  0
  1  7  2  0  0  0  0
  2  1  1  0  0  0  0
  2 20  1  0  0  0  0
  3  4  1  0  0  0  0
  3  5  2  0  0  0  0
  4  8  1  0  0  0  0
  5  2  1  0  0  0  0
  6  4  2  0  0  0  0
  8 28  1  6  0  0  0
  8  1  1  0  0  0  0
  9 12  1  0  0  0  0
 11 14  1  0  0  0  0
 11  9  2  0  0  0  0
 12 15  2  0  0  0  0
 12  3  1  0  0  0  0
 13 15  1  0  0  0  0
 14 13  2  0  0  0  0
 15 10  1  0  0  0  0
 16 11  1  0  0  0  0
 17 16  1  0  0  0  0
 20 24  1  6  0  0  0
 20 18  1  0  0  0  0
 21 26  1  1  0  0  0
 21 19  1  0  0  0  0
 21 22  1  0  0  0  0
 22 23  1  0  0  0  0
 23 18  1  0  0  0  0
 24 19  1  0  0  0  0
 25 26  2  0  0  0  0
 28 27  1  0  0  0  0
 29 28  2  0  0  0  0
 30 27  1  0  0  0  0
M  END
>  <MODEL>
7

>  <REMARK>
 VINA RESULT:      -6.7      3.202      7.089
  Name = 
  5 active torsions:
  status: ('A' for Active; 'I' for Inactive)
    1  A    between atoms: C_2  and  C_27
    2  A    between atoms: N_4  and  C_10
    3  A    between atoms: C_9  and  C_21
    4  A    between atoms: C_14  and  S_17
    5  A    between atoms: C_18  and  N_25
                            x       y       z     vdW  Elec       q    Type
                         _______ _______ _______ _____ _____    ______ ____

>  <TORSDO>
F 5

$$$$
=
 OpenBabel11042413473D

 30 32  0  0  1  0  0  0  0  0999 V2000
  190.6020  173.8960  145.1170 C   0  0  0  0  0  0  0  0  0  0  0  0
  190.6620  175.1540  144.4270 N   0  0  0  0  0  0  0  0  0  0  0  0
  193.0610  174.9770  144.0950 C   0  0  0  0  0  0  0  0  0  0  0  0
  193.0580  173.6720  144.8100 C   0  0  0  0  0  0  0  0  0  0  0  0
  191.9150  175.6390  143.9160 C   0  0  0  0  0  3  0  0  0  0  0  0
  194.1950  173.0450  145.0960 C   0  0  0  0  0  2  0  0  0  0  0  0
  189.5570  173.5580  145.7370 O   0  0  0  0  0  0  0  0  0  0  0  0
  191.7620  172.9480  145.0580 C   0  0  2  0  0  3  0  0  0  0  0  0
  194.6780  175.3000  142.2410 C   0  0  0  0  0  3  0  0  0  0  0  0
  194.7450  176.7810  145.6620 N   0  0  0  0  0  1  0  0  0  0  0  0
  195.8410  175.8580  141.7120 C   0  0  0  0  0  0  0  0  0  0  0  0
  194.3020  175.5720  143.5600 C   0  0  0  0  0  0  0  0  0  0  0  0
  196.2440  176.9580  143.7910 N   0  0  0  0  0  0  0  0  0  0  0  0
  196.6240  176.6900  142.5140 C   0  0  0  0  0  3  0  0  0  0  0  0
  195.1120  176.4290  144.3300 C   0  0  0  0  0  0  0  0  0  0  0  0
  196.3340  175.4990  140.0320 S   0  0  0  0  0  0  0  0  0  0  0  0
  196.3810  173.7100  140.3370 C   0  0  0  0  0  1  0  0  0  0  0  0
  189.7940  177.4590  144.1780 C   0  0  0  0  0  2  0  0  0  0  0  0
  187.5880  176.3580  142.8010 O   0  0  0  0  0  0  0  0  0  0  0  0
  189.4540  175.9630  144.2840 C   0  0  1  0  0  3  0  0  0  0  0  0
  188.0800  176.9550  141.6330 C   0  0  2  0  0  3  0  0  0  0  0  0
  188.8550  178.2270  141.9790 C   0  0  0  0  0  2  0  0  0  0  0  0
  190.1270  177.9110  142.7580 C   0  0  0  0  0  2  0  0  0  0  0  0
  188.5640  175.4210  143.1590 C   0  0  0  0  0  2  0  0  0  0  0  0
  185.9330  177.8580  141.2110 C   0  0  0  0  0  2  0  0  0  0  0  0
  186.9780  177.2680  140.7590 N   0  0  0  0  0  0  0  0  0  0  0  0
  190.8230  172.2390  142.8070 N   0  0  0  0  0  2  0  0  0  0  0  0
  191.5210  171.9050  144.0090 C   0  0  0  0  0  0  0  0  0  0  0  0
  191.9390  170.7320  144.1990 O   0  0  0  0  0  0  0  0  0  0  0  0
  190.5690  171.2590  141.7650 C   0  0  0  0  0  1  0  0  0  0  0  0
  1  7  2  0  0  0  0
  2  1  1  0  0  0  0
  3  4  1  0  0  0  0
  4  8  1  0  0  0  0
  4  6  2  0  0  0  0
  5  3  2  0  0  0  0
  5  2  1  0  0  0  0
  8 28  1  6  0  0  0
  8  1  1  0  0  0  0
  9 12  1  0  0  0  0
 11  9  2  0  0  0  0
 11 14  1  0  0  0  0
 12  3  1  0  0  0  0
 12 15  2  0  0  0  0
 13 15  1  0  0  0  0
 14 13  2  0  0  0  0
 15 10  1  0  0  0  0
 16 17  1  0  0  0  0
 16 11  1  0  0  0  0
 18 20  1  0  0  0  0
 19 24  1  0  0  0  0
 20 24  1  6  0  0  0
 20  2  1  0  0  0  0
 21 26  1  6  0  0  0
 21 22  1  0  0  0  0
 21 19  1  0  0  0  0
 22 23  1  0  0  0  0
 23 18  1  0  0  0  0
 26 25  2  0  0  0  0
 27 28  1  0  0  0  0
 28 29  2  0  0  0  0
 30 27  1  0  0  0  0
M  END
>  <MODEL>
8

>  <REMARK>
 VINA RESULT:      -6.6      3.820      6.992
  Name = 
  5 active torsions:
  status: ('A' for Active; 'I' for Inactive)
    1  A    between atoms: C_2  and  C_27
    2  A    between atoms: N_4  and  C_10
    3  A    between atoms: C_9  and  C_21
    4  A    between atoms: C_14  and  S_17
    5  A    between atoms: C_18  and  N_25
                            x       y       z     vdW  Elec       q    Type
                         _______ _______ _______ _____ _____    ______ ____

>  <TORSDO>
F 5

$$$$
=
 OpenBabel11042413473D

 30 32  0  0  1  0  0  0  0  0999 V2000
  191.5670  175.0250  142.6090 C   0  0  0  0  0  0  0  0  0  0  0  0
  191.5080  176.0800  143.5820 N   0  0  0  0  0  0  0  0  0  0  0  0
  189.1370  176.4410  143.2020 C   0  0  0  0  0  0  0  0  0  0  0  0
  189.1430  175.3620  142.1780 C   0  0  0  0  0  0  0  0  0  0  0  0
  190.2630  176.7420  143.8570 C   0  0  0  0  0  3  0  0  0  0  0  0
  188.0670  175.1170  141.4360 C   0  0  0  0  0  2  0  0  0  0  0  0
  192.6790  174.5770  142.2190 O   0  0  0  0  0  0  0  0  0  0  0  0
  190.3030  174.4070  142.0890 C   0  0  2  0  0  3  0  0  0  0  0  0
  187.2060  176.8810  144.6970 C   0  0  0  0  0  3  0  0  0  0  0  0
  188.1610  178.6530  141.5580 N   0  0  0  0  0  1  0  0  0  0  0  0
  186.0530  177.5900  145.0340 C   0  0  0  0  0  0  0  0  0  0  0  0
  187.9140  177.2000  143.5340 C   0  0  0  0  0  0  0  0  0  0  0  0
  186.3170  178.9270  143.0750 N   0  0  0  0  0  0  0  0  0  0  0  0
  185.6150  178.6170  144.1970 C   0  0  0  0  0  3  0  0  0  0  0  0
  187.4460  178.2530  142.7250 C   0  0  0  0  0  0  0  0  0  0  0  0
  185.1370  177.1750  146.5110 S   0  0  0  0  0  0  0  0  0  0  0  0
  185.5520  178.7500  147.3150 C   0  0  0  0  0  1  0  0  0  0  0  0
  192.8080  175.9280  145.6830 C   0  0  0  0  0  2  0  0  0  0  0  0
  195.1360  176.3500  144.1400 O   0  0  0  0  0  0  0  0  0  0  0  0
  192.7280  176.5100  144.2610 C   0  0  1  0  0  3  0  0  0  0  0  0
  195.4980  175.0240  144.4100 C   0  0  2  0  0  3  0  0  0  0  0  0
  194.9320  174.5890  145.7630 C   0  0  0  0  0  2  0  0  0  0  0  0
  193.4090  174.5250  145.7360 C   0  0  0  0  0  2  0  0  0  0  0  0
  193.9610  176.2520  143.3870 C   0  0  0  0  0  2  0  0  0  0  0  0
  197.5140  173.9390  145.0110 C   0  0  0  0  0  2  0  0  0  0  0  0
  196.9340  174.9160  144.4150 N   0  0  0  0  0  0  0  0  0  0  0  0
  189.9690  173.1280  144.2580 N   0  0  0  0  0  2  0  0  0  0  0  0
  190.0090  173.1380  142.8290 C   0  0  0  0  0  0  0  0  0  0  0  0
  189.7990  172.0800  142.1780 O   0  0  0  0  0  0  0  0  0  0  0  0
  189.6880  171.9190  145.0130 C   0  0  0  0  0  1  0  0  0  0  0  0
  1  2  1  0  0  0  0
  2  5  1  0  0  0  0
  2 20  1  0  0  0  0
  3 12  1  0  0  0  0
  3  5  2  0  0  0  0
  4  3  1  0  0  0  0
  6  4  2  0  0  0  0
  7  1  2  0  0  0  0
  8  4  1  0  0  0  0
  8  1  1  0  0  0  0
  8 28  1  1  0  0  0
  9 11  1  0  0  0  0
 10 15  1  0  0  0  0
 11 16  1  0  0  0  0
 12  9  2  0  0  0  0
 13 14  1  0  0  0  0
 14 11  2  0  0  0  0
 15 13  2  0  0  0  0
 15 12  1  0  0  0  0
 16 17  1  0  0  0  0
 18 23  1  0  0  0  0
 19 21  1  0  0  0  0
 20 24  1  6  0  0  0
 20 18  1  0  0  0  0
 21 26  1  1  0  0  0
 21 22  1  0  0  0  0
 23 22  1  0  0  0  0
 24 19  1  0  0  0  0
 26 25  2  0  0  0  0
 27 30  1  0  0  0  0
 28 27  1  0  0  0  0
 29 28  2  0  0  0  0
M  END
>  <MODEL>
9

>  <REMARK>
 VINA RESULT:      -6.5      2.247      5.048
  Name = 
  5 active torsions:
  status: ('A' for Active; 'I' for Inactive)
    1  A    between atoms: C_2  and  C_27
    2  A    between atoms: N_4  and  C_10
    3  A    between atoms: C_9  and  C_21
    4  A    between atoms: C_14  and  S_17
    5  A    between atoms: C_18  and  N_25
                            x       y       z     vdW  Elec       q    Type
                         _______ _______ _______ _____ _____    ______ ____

>  <TORSDO>
F 5

$$$$
