=
 OpenBabel11042416413D

 55 61  0  0  1  0  0  0  0  0999 V2000
  189.3110  173.7370  142.4960 C   0  0  0  0  0  3  0  0  0  0  0  0
  192.3630  171.3430  140.8470 C   0  0  0  0  0  0  0  0  0  0  0  0
  191.2800  172.3760  142.7550 N   0  0  0  0  0  0  0  0  0  0  0  0
  190.3120  172.6760  140.5420 C   0  0  0  0  0  0  0  0  0  0  0  0
  192.4570  170.8690  138.0650 C   0  0  0  0  0  3  0  0  0  0  0  0
  192.2840  171.5980  142.2380 C   0  0  0  0  0  0  0  0  0  0  0  0
  191.3610  171.8880  139.9960 C   0  0  0  0  0  0  0  0  0  0  0  0
  188.3090  174.2990  141.7210 C   0  0  0  0  0  0  0  0  0  0  0  0
  189.2660  173.2430  139.7490 C   0  0  0  0  0  0  0  0  0  0  0  0
  193.1350  171.0900  143.0230 O   0  0  0  0  0  0  0  0  0  0  0  0
  188.2900  174.0460  140.3530 C   0  0  0  0  0  3  0  0  0  0  0  0
  190.3110  172.9170  141.9430 C   0  0  0  0  0  0  0  0  0  0  0  0
  194.5150  169.9340  141.0500 C   0  0  0  0  0  1  0  0  0  0  0  0
  191.2210  172.5840  144.1890 C   0  0  0  0  0  0  0  0  0  0  0  0
  190.1690  172.2870  144.8200 O   0  0  0  0  0  0  0  0  0  0  0  0
  193.4060  170.5560  140.2650 C   0  0  0  0  0  0  0  0  0  0  0  0
  193.4360  170.3330  138.8900 C   0  0  0  0  0  3  0  0  0  0  0  0
  191.4370  171.6360  138.6150 C   0  0  0  0  0  3  0  0  0  0  0  0
  187.3490  175.1550  142.3500 N   0  0  0  0  0  2  0  0  0  0  0  0
  187.6270  176.3960  143.0100 C   0  0  0  0  0  0  0  0  0  0  0  0
  188.7520  176.9490  142.9010 O   0  0  0  0  0  0  0  0  0  0  0  0
  186.7240  178.2650  147.2770 O   0  0  0  0  0  0  0  0  0  0  0  0
  186.1260  178.5520  142.0130 O   0  0  0  0  0  0  0  0  0  0  0  0
  186.5600  177.0620  143.8220 C   0  0  1  0  0  3  0  0  0  0  0  0
  187.0160  177.2310  145.2040 N   0  0  0  0  0  2  0  0  0  0  0  0
  185.6600  179.5210  144.1120 C   0  0  0  0  0  2  0  0  0  0  0  0
  186.3770  178.1710  146.0690 C   0  0  0  0  0  0  0  0  0  0  0  0
  186.1340  178.3890  143.2290 C   0  0  0  0  0  0  0  0  0  0  0  0
  185.2940  179.0480  145.5220 C   0  0  0  0  0  2  0  0  0  0  0  0
  192.1530  174.4520  145.6510 C   0  0  2  0  0  3  0  0  0  0  0  0
  192.8150  174.3680  144.4100 O   0  0  0  0  0  0  0  0  0  0  0  0
  192.3920  173.1410  144.9600 C   0  0  2  0  0  3  0  0  0  0  0  0
  190.7840  175.0950  145.4320 C   0  0  0  0  0  2  0  0  0  0  0  0
  188.9950  174.8010  147.1100 C   0  0  0  0  0  1  0  0  0  0  0  0
  190.2080  175.6260  146.7330 C   0  0  0  0  0  3  0  0  0  0  0  0
  191.2360  175.5250  147.8420 C   0  0  0  0  0  1  0  0  0  0  0  0
  189.1920  173.0020  138.3690 O   0  0  0  0  0  0  0  0  0  0  0  0
  189.0150  174.0360  137.4050 C   0  0  0  0  0  2  0  0  0  0  0  0
  189.8210  173.7240  136.1590 C   0  0  0  0  0  2  0  0  0  0  0  0
  190.9930  174.6830  136.0420 C   0  0  0  0  0  2  0  0  0  0  0  0
  195.3920  174.7490  138.4910 N   0  0  0  0  0  0  0  0  0  0  0  0
  191.7960  174.6250  137.2580 N   0  0  0  0  0  2  0  0  0  0  0  0
  193.2030  174.8830  137.2880 C   0  0  0  0  0  0  0  0  0  0  0  0
  193.3480  174.4930  139.6230 O   0  0  0  0  0  0  0  0  0  0  0  0
  193.8330  175.2730  136.2130 N   0  0  0  0  0  0  0  0  0  0  0  0
  193.9540  174.6940  138.5390 C   0  0  0  0  0  0  0  0  0  0  0  0
  196.0410  174.7450  137.1830 C   0  0  0  0  0  2  0  0  0  0  0  0
  195.2560  175.6350  136.2180 C   0  0  0  0  0  2  0  0  0  0  0  0
  196.2250  173.5040  140.4530 C   0  0  0  0  0  2  0  0  0  0  0  0
  196.2230  174.8370  139.6900 C   0  0  0  0  0  3  0  0  0  0  0  0
  197.9410  174.9180  143.7660 Cl  0  0  0  0  0  0  0  0  0  0  0  0
  196.6690  173.6600  141.9130 C   0  0  0  0  0  2  0  0  0  0  0  0
  197.4190  174.8990  142.1030 N   0  0  0  0  0  0  0  0  0  0  0  0
  196.4950  176.0210  141.9430 C   0  0  0  0  0  2  0  0  0  0  0  0
  195.8040  176.0230  140.5690 C   0  0  0  0  0  2  0  0  0  0  0  0
  2  6  1  0  0  0  0
  3 14  1  0  0  0  0
  4 12  2  0  0  0  0
  5 18  2  0  0  0  0
  5 17  1  0  0  0  0
  6  3  1  0  0  0  0
  6 10  2  0  0  0  0
  7  4  1  0  0  0  0
  7  2  2  0  0  0  0
  8 19  1  0  0  0  0
  8  1  2  0  0  0  0
  9 11  2  0  0  0  0
  9  4  1  0  0  0  0
 11  8  1  0  0  0  0
 12  1  1  0  0  0  0
 12  3  1  0  0  0  0
 14 15  2  0  0  0  0
 16  2  1  0  0  0  0
 16 13  1  0  0  0  0
 17 16  2  0  0  0  0
 18  7  1  0  0  0  0
 19 20  1  0  0  0  0
 21 20  2  0  0  0  0
 23 28  2  0  0  0  0
 24 20  1  6  0  0  0
 24 25  1  0  0  0  0
 25 27  1  0  0  0  0
 26 29  1  0  0  0  0
 27 22  2  0  0  0  0
 28 24  1  0  0  0  0
 28 26  1  0  0  0  0
 29 27  1  0  0  0  0
 30 33  1  6  0  0  0
 31 32  1  0  0  0  0
 31 30  1  0  0  0  0
 32 14  1  6  0  0  0
 32 30  1  0  0  0  0
 33 35  1  0  0  0  0
 35 34  1  0  0  0  0
 35 36  1  0  0  0  0
 37  9  1  0  0  0  0
 38 37  1  0  0  0  0
 39 38  1  0  0  0  0
 40 39  1  0  0  0  0
 40 42  1  0  0  0  0
 41 46  1  0  0  0  0
 41 50  1  0  0  0  0
 42 43  1  0  0  0  0
 43 46  1  0  0  0  0
 45 48  1  0  0  0  0
 45 43  2  0  0  0  0
 46 44  2  0  0  0  0
 47 41  1  0  0  0  0
 48 47  1  0  0  0  0
 49 52  1  0  0  0  0
 50 49  1  0  0  0  0
 50 55  1  0  0  0  0
 52 53  1  0  0  0  0
 53 51  1  0  0  0  0
 54 53  1  0  0  0  0
 55 54  1  0  0  0  0
M  END
>  <MODEL>
1

>  <REMARK>
 VINA RESULT:      -7.1      0.000      0.000
  Name = 
  11 active torsions:
  status: ('A' for Active; 'I' for Inactive)
    1  A    between atoms: C_3  and  C_23
    2  A    between atoms: C_3  and  C_37
    3  A    between atoms: N_4  and  C_21
    4  A    between atoms: C_6  and  C_25
    5  A    between atoms: C_7  and  N_17
    6  A    between atoms: C_10  and  O_35
    7  A    between atoms: C_10  and  C_52
    8  A    between atoms: N_20  and  C_36
    9  A    between atoms: C_22  and  O_35
   10  A    between atoms: C_36  and  C_52
   11  A    between atoms: C_39  and  C_51
                            x       y       z     vdW  Elec       q    Type
                         _______ _______ _______ _____ _____    ______ ____

>  <TORSDO>
F 11

$$$$
=
 OpenBabel11042416413D

 55 61  0  0  1  0  0  0  0  0999 V2000
  190.7160  172.5180  142.6920 C   0  0  0  0  0  3  0  0  0  0  0  0
  188.1050  175.7100  141.8200 C   0  0  0  0  0  0  0  0  0  0  0  0
  189.4170  173.7960  141.1180 N   0  0  0  0  0  0  0  0  0  0  0  0
  189.3690  174.3930  143.4770 C   0  0  0  0  0  0  0  0  0  0  0  0
  187.2080  177.4210  143.8790 C   0  0  0  0  0  3  0  0  0  0  0  0
  188.5710  174.8310  140.8130 C   0  0  0  0  0  0  0  0  0  0  0  0
  188.5100  175.4810  143.1650 C   0  0  0  0  0  0  0  0  0  0  0  0
  191.1480  172.2440  143.9790 C   0  0  0  0  0  0  0  0  0  0  0  0
  189.8040  174.0960  144.8060 C   0  0  0  0  0  0  0  0  0  0  0  0
  188.1930  174.9840  139.6160 O   0  0  0  0  0  0  0  0  0  0  0  0
  190.6870  173.0310  145.0300 C   0  0  0  0  0  3  0  0  0  0  0  0
  189.8230  173.5680  142.4110 C   0  0  0  0  0  0  0  0  0  0  0  0
  186.7510  177.1620  140.1730 C   0  0  0  0  0  1  0  0  0  0  0  0
  189.8430  172.9020  140.0580 C   0  0  0  0  0  0  0  0  0  0  0  0
  189.6440  171.6600  140.1700 O   0  0  0  0  0  0  0  0  0  0  0  0
  187.2410  176.8150  141.5410 C   0  0  0  0  0  0  0  0  0  0  0  0
  186.8090  177.6480  142.5700 C   0  0  0  0  0  3  0  0  0  0  0  0
  188.0470  176.3520  144.1680 C   0  0  0  0  0  3  0  0  0  0  0  0
  192.0880  171.1830  144.1800 N   0  0  0  0  0  2  0  0  0  0  0  0
  193.5150  171.3050  144.1730 C   0  0  0  0  0  0  0  0  0  0  0  0
  194.0680  172.4350  144.1970 O   0  0  0  0  0  0  0  0  0  0  0  0
  197.2620  169.3080  142.0540 O   0  0  0  0  0  0  0  0  0  0  0  0
  194.5650  170.2010  146.5340 O   0  0  0  0  0  0  0  0  0  0  0  0
  194.3680  170.0740  144.1630 C   0  0  1  0  0  3  0  0  0  0  0  0
  195.3180  170.1340  143.0490 N   0  0  0  0  0  2  0  0  0  0  0  0
  196.4460  169.1990  145.5250 C   0  0  0  0  0  2  0  0  0  0  0  0
  196.4830  169.3060  143.0440 C   0  0  0  0  0  0  0  0  0  0  0  0
  195.0900  169.8670  145.4780 C   0  0  0  0  0  0  0  0  0  0  0  0
  196.7710  168.4430  144.2330 C   0  0  0  0  0  2  0  0  0  0  0  0
  191.8830  172.8590  138.5300 C   0  0  2  0  0  3  0  0  0  0  0  0
  191.6940  174.1210  139.1290 O   0  0  0  0  0  0  0  0  0  0  0  0
  190.5160  173.4140  138.8090 C   0  0  2  0  0  3  0  0  0  0  0  0
  192.4530  171.9030  139.5770 C   0  0  0  0  0  2  0  0  0  0  0  0
  193.6180  169.7670  140.0070 C   0  0  0  0  0  1  0  0  0  0  0  0
  193.0480  170.6650  138.9290 C   0  0  0  0  0  3  0  0  0  0  0  0
  191.9790  169.9050  138.1690 C   0  0  0  0  0  1  0  0  0  0  0  0
  189.3530  174.8480  145.9010 O   0  0  0  0  0  0  0  0  0  0  0  0
  190.1480  175.1010  147.0540 C   0  0  0  0  0  2  0  0  0  0  0  0
  190.7420  176.4940  146.9790 C   0  0  0  0  0  2  0  0  0  0  0  0
  192.2310  176.4120  146.6950 C   0  0  0  0  0  2  0  0  0  0  0  0
  195.1980  175.9250  142.6560 N   0  0  0  0  0  0  0  0  0  0  0  0
  192.4510  176.3200  145.2560 N   0  0  0  0  0  2  0  0  0  0  0  0
  193.7150  176.0000  144.6690 C   0  0  0  0  0  0  0  0  0  0  0  0
  192.8690  176.1620  142.4600 O   0  0  0  0  0  0  0  0  0  0  0  0
  194.7380  175.6860  145.4180 N   0  0  0  0  0  0  0  0  0  0  0  0
  193.8730  176.0380  143.2060 C   0  0  0  0  0  0  0  0  0  0  0  0
  196.3370  176.0230  143.5660 C   0  0  0  0  0  2  0  0  0  0  0  0
  196.0280  175.2630  144.8580 C   0  0  0  0  0  2  0  0  0  0  0  0
  195.0720  174.2520  140.8450 C   0  0  0  0  0  2  0  0  0  0  0  0
  195.4510  175.6880  141.2360 C   0  0  0  0  0  3  0  0  0  0  0  0
  196.8050  174.3240  137.2520 Cl  0  0  0  0  0  0  0  0  0  0  0  0
  195.7310  173.8030  139.5340 C   0  0  0  0  0  2  0  0  0  0  0  0
  196.1600  174.9540  138.7430 N   0  0  0  0  0  0  0  0  0  0  0  0
  197.2720  175.5990  139.4400 C   0  0  0  0  0  2  0  0  0  0  0  0
  196.8960  176.0430  140.8640 C   0  0  0  0  0  2  0  0  0  0  0  0
  1  8  1  0  0  0  0
  2  7  1  0  0  0  0
  3 12  1  0  0  0  0
  4  9  2  0  0  0  0
  5 18  1  0  0  0  0
  6  3  1  0  0  0  0
  6  2  1  0  0  0  0
  7  4  1  0  0  0  0
  7 18  2  0  0  0  0
  8 19  1  0  0  0  0
  8 11  2  0  0  0  0
  9 11  1  0  0  0  0
  9 37  1  0  0  0  0
 10  6  2  0  0  0  0
 12  1  2  0  0  0  0
 12  4  1  0  0  0  0
 13 16  1  0  0  0  0
 14 15  2  0  0  0  0
 14  3  1  0  0  0  0
 16  2  2  0  0  0  0
 16 17  1  0  0  0  0
 17  5  2  0  0  0  0
 20 19  1  0  0  0  0
 20 21  2  0  0  0  0
 22 27  2  0  0  0  0
 24 20  1  1  0  0  0
 24 28  1  0  0  0  0
 25 24  1  0  0  0  0
 27 25  1  0  0  0  0
 27 29  1  0  0  0  0
 28 26  1  0  0  0  0
 28 23  2  0  0  0  0
 29 26  1  0  0  0  0
 30 32  1  0  0  0  0
 30 31  1  0  0  0  0
 30 33  1  1  0  0  0
 32 31  1  0  0  0  0
 32 14  1  1  0  0  0
 35 33  1  0  0  0  0
 35 34  1  0  0  0  0
 36 35  1  0  0  0  0
 37 38  1  0  0  0  0
 39 38  1  0  0  0  0
 40 39  1  0  0  0  0
 41 46  1  0  0  0  0
 41 47  1  0  0  0  0
 42 40  1  0  0  0  0
 43 42  1  0  0  0  0
 43 45  2  0  0  0  0
 44 46  2  0  0  0  0
 46 43  1  0  0  0  0
 47 48  1  0  0  0  0
 48 45  1  0  0  0  0
 49 50  1  0  0  0  0
 50 41  1  0  0  0  0
 51 53  1  0  0  0  0
 52 49  1  0  0  0  0
 53 54  1  0  0  0  0
 53 52  1  0  0  0  0
 54 55  1  0  0  0  0
 55 50  1  0  0  0  0
M  END
>  <MODEL>
2

>  <REMARK>
 VINA RESULT:      -7.1      2.531      8.189
  Name = 
  11 active torsions:
  status: ('A' for Active; 'I' for Inactive)
    1  A    between atoms: C_3  and  C_23
    2  A    between atoms: C_3  and  C_37
    3  A    between atoms: N_4  and  C_21
    4  A    between atoms: C_6  and  C_25
    5  A    between atoms: C_7  and  N_17
    6  A    between atoms: C_10  and  O_35
    7  A    between atoms: C_10  and  C_52
    8  A    between atoms: N_20  and  C_36
    9  A    between atoms: C_22  and  O_35
   10  A    between atoms: C_36  and  C_52
   11  A    between atoms: C_39  and  C_51
                            x       y       z     vdW  Elec       q    Type
                         _______ _______ _______ _____ _____    ______ ____

>  <TORSDO>
F 11

$$$$
=
 OpenBabel11042416413D

 55 61  0  0  1  0  0  0  0  0999 V2000
  190.1190  177.4730  144.2190 C   0  0  0  0  0  3  0  0  0  0  0  0
  186.1980  178.0920  145.6360 C   0  0  0  0  0  0  0  0  0  0  0  0
  188.5280  177.5460  146.0250 N   0  0  0  0  0  0  0  0  0  0  0  0
  187.8050  178.0910  143.7650 C   0  0  0  0  0  0  0  0  0  0  0  0
  184.1320  178.8020  143.8470 C   0  0  0  0  0  3  0  0  0  0  0  0
  187.2590  177.7390  146.5050 C   0  0  0  0  0  0  0  0  0  0  0  0
  186.4820  178.2720  144.2530 C   0  0  0  0  0  0  0  0  0  0  0  0
  190.4590  177.6300  142.8850 C   0  0  0  0  0  0  0  0  0  0  0  0
  188.1630  178.2690  142.3930 C   0  0  0  0  0  0  0  0  0  0  0  0
  187.0450  177.6160  147.7450 O   0  0  0  0  0  0  0  0  0  0  0  0
  189.4810  178.0300  141.9800 C   0  0  0  0  0  3  0  0  0  0  0  0
  188.8150  177.7080  144.6900 C   0  0  0  0  0  0  0  0  0  0  0  0
  184.4310  178.1160  147.5160 C   0  0  0  0  0  1  0  0  0  0  0  0
  189.5890  177.2170  146.9570 C   0  0  0  0  0  0  0  0  0  0  0  0
  190.6240  177.9380  147.0070 O   0  0  0  0  0  0  0  0  0  0  0  0
  184.8550  178.2790  146.0920 C   0  0  0  0  0  0  0  0  0  0  0  0
  183.8490  178.6300  145.1950 C   0  0  0  0  0  3  0  0  0  0  0  0
  185.4310  178.6230  143.3880 C   0  0  0  0  0  3  0  0  0  0  0  0
  191.7990  177.3340  142.4750 N   0  0  0  0  0  2  0  0  0  0  0  0
  192.4570  176.0670  142.5880 C   0  0  0  0  0  0  0  0  0  0  0  0
  191.8120  175.0260  142.8750 O   0  0  0  0  0  0  0  0  0  0  0  0
  196.5930  174.9940  144.6510 O   0  0  0  0  0  0  0  0  0  0  0  0
  193.4970  174.7190  140.3520 O   0  0  0  0  0  0  0  0  0  0  0  0
  193.9290  175.9680  142.3340 C   0  0  1  0  0  3  0  0  0  0  0  0
  194.6340  175.6920  143.5890 N   0  0  0  0  0  2  0  0  0  0  0  0
  195.5620  174.1560  141.3410 C   0  0  0  0  0  2  0  0  0  0  0  0
  195.9620  175.1660  143.5740 C   0  0  0  0  0  0  0  0  0  0  0  0
  194.2620  174.9260  141.2880 C   0  0  0  0  0  0  0  0  0  0  0  0
  196.5940  174.8130  142.2630 C   0  0  0  0  0  2  0  0  0  0  0  0
  190.4340  174.8990  147.5990 C   0  0  2  0  0  3  0  0  0  0  0  0
  189.0870  174.8780  147.1840 O   0  0  0  0  0  0  0  0  0  0  0  0
  189.4910  176.0330  147.8860 C   0  0  2  0  0  3  0  0  0  0  0  0
  191.3220  175.0520  146.3660 C   0  0  0  0  0  2  0  0  0  0  0  0
  193.3460  173.7590  145.7880 C   0  0  0  0  0  1  0  0  0  0  0  0
  192.7840  174.8230  146.7070 C   0  0  0  0  0  3  0  0  0  0  0  0
  193.5740  176.1020  146.5200 C   0  0  0  0  0  1  0  0  0  0  0  0
  187.2180  178.6890  141.4460 O   0  0  0  0  0  0  0  0  0  0  0  0
  186.8910  177.9350  140.2830 C   0  0  0  0  0  2  0  0  0  0  0  0
  186.6310  176.4900  140.6600 C   0  0  0  0  0  2  0  0  0  0  0  0
  187.6690  175.5880  140.0150 C   0  0  0  0  0  2  0  0  0  0  0  0
  190.4500  171.6220  141.3890 N   0  0  0  0  0  0  0  0  0  0  0  0
  188.2100  174.6730  141.0130 N   0  0  0  0  0  2  0  0  0  0  0  0
  189.2050  173.6870  140.7220 C   0  0  0  0  0  0  0  0  0  0  0  0
  189.2430  172.8900  142.9560 O   0  0  0  0  0  0  0  0  0  0  0  0
  189.7470  173.6150  139.5370 N   0  0  0  0  0  0  0  0  0  0  0  0
  189.6140  172.7320  141.7650 C   0  0  0  0  0  0  0  0  0  0  0  0
  190.6510  171.3570  139.9660 C   0  0  0  0  0  2  0  0  0  0  0  0
  190.8350  172.6800  139.2200 C   0  0  0  0  0  2  0  0  0  0  0  0
  192.4160  171.4340  142.8710 C   0  0  0  0  0  2  0  0  0  0  0  0
  191.1260  170.7700  142.3660 C   0  0  0  0  0  3  0  0  0  0  0  0
  193.8650  168.1990  144.7010 Cl  0  0  0  0  0  0  0  0  0  0  0  0
  193.3850  170.4310  143.5100 C   0  0  0  0  0  2  0  0  0  0  0  0
  192.6870  169.2130  143.9130 N   0  0  0  0  0  0  0  0  0  0  0  0
  192.2690  168.5060  142.7030 C   0  0  0  0  0  2  0  0  0  0  0  0
  191.3640  169.3630  141.8030 C   0  0  0  0  0  2  0  0  0  0  0  0
  1 12  1  0  0  0  0
  2 16  1  0  0  0  0
  2  6  1  0  0  0  0
  3  6  1  0  0  0  0
  3 14  1  0  0  0  0
  4  7  1  0  0  0  0
  4 12  2  0  0  0  0
  5 17  1  0  0  0  0
  6 10  2  0  0  0  0
  7  2  2  0  0  0  0
  8  1  2  0  0  0  0
  9  4  1  0  0  0  0
 11  9  2  0  0  0  0
 11  8  1  0  0  0  0
 12  3  1  0  0  0  0
 14 15  2  0  0  0  0
 16 13  1  0  0  0  0
 17 16  2  0  0  0  0
 18  5  2  0  0  0  0
 18  7  1  0  0  0  0
 19 20  1  0  0  0  0
 19  8  1  0  0  0  0
 20 21  2  0  0  0  0
 23 28  2  0  0  0  0
 24 20  1  1  0  0  0
 24 25  1  0  0  0  0
 26 29  1  0  0  0  0
 27 25  1  0  0  0  0
 27 22  2  0  0  0  0
 28 26  1  0  0  0  0
 28 24  1  0  0  0  0
 29 27  1  0  0  0  0
 30 33  1  6  0  0  0
 30 32  1  0  0  0  0
 31 30  1  0  0  0  0
 31 32  1  0  0  0  0
 32 14  1  6  0  0  0
 33 35  1  0  0  0  0
 34 35  1  0  0  0  0
 36 35  1  0  0  0  0
 37  9  1  0  0  0  0
 38 39  1  0  0  0  0
 38 37  1  0  0  0  0
 40 39  1  0  0  0  0
 40 42  1  0  0  0  0
 41 46  1  0  0  0  0
 41 50  1  0  0  0  0
 43 42  1  0  0  0  0
 43 46  1  0  0  0  0
 45 43  2  0  0  0  0
 46 44  2  0  0  0  0
 47 41  1  0  0  0  0
 48 45  1  0  0  0  0
 48 47  1  0  0  0  0
 49 52  1  0  0  0  0
 50 49  1  0  0  0  0
 52 53  1  0  0  0  0
 53 51  1  0  0  0  0
 54 53  1  0  0  0  0
 55 50  1  0  0  0  0
 55 54  1  0  0  0  0
M  END
>  <MODEL>
3

>  <REMARK>
 VINA RESULT:      -7.1      2.668      7.653
  Name = 
  11 active torsions:
  status: ('A' for Active; 'I' for Inactive)
    1  A    between atoms: C_3  and  C_23
    2  A    between atoms: C_3  and  C_37
    3  A    between atoms: N_4  and  C_21
    4  A    between atoms: C_6  and  C_25
    5  A    between atoms: C_7  and  N_17
    6  A    between atoms: C_10  and  O_35
    7  A    between atoms: C_10  and  C_52
    8  A    between atoms: N_20  and  C_36
    9  A    between atoms: C_22  and  O_35
   10  A    between atoms: C_36  and  C_52
   11  A    between atoms: C_39  and  C_51
                            x       y       z     vdW  Elec       q    Type
                         _______ _______ _______ _____ _____    ______ ____

>  <TORSDO>
F 11

$$$$
=
 OpenBabel11042416413D

 55 61  0  0  1  0  0  0  0  0999 V2000
  190.2580  174.6830  143.0520 C   0  0  0  0  0  3  0  0  0  0  0  0
  193.9860  173.6540  141.3750 C   0  0  0  0  0  0  0  0  0  0  0  0
  192.6130  174.2420  143.2860 N   0  0  0  0  0  0  0  0  0  0  0  0
  191.5650  174.0340  141.0990 C   0  0  0  0  0  0  0  0  0  0  0  0
  194.2110  173.1420  138.6080 C   0  0  0  0  0  3  0  0  0  0  0  0
  193.8360  173.9120  142.7590 C   0  0  0  0  0  0  0  0  0  0  0  0
  192.8330  173.7130  140.5420 C   0  0  0  0  0  0  0  0  0  0  0  0
  189.1000  174.7600  142.2950 C   0  0  0  0  0  0  0  0  0  0  0  0
  190.3650  174.0980  140.3240 C   0  0  0  0  0  0  0  0  0  0  0  0
  194.8340  173.8240  143.5300 O   0  0  0  0  0  0  0  0  0  0  0  0
  189.1590  174.4640  140.9370 C   0  0  0  0  0  3  0  0  0  0  0  0
  191.4930  174.3120  142.4910 C   0  0  0  0  0  0  0  0  0  0  0  0
  196.5270  173.2410  141.5480 C   0  0  0  0  0  1  0  0  0  0  0  0
  192.5020  174.4670  144.7140 C   0  0  0  0  0  0  0  0  0  0  0  0
  191.6710  173.7990  145.3890 O   0  0  0  0  0  0  0  0  0  0  0  0
  195.2460  173.3300  140.7820 C   0  0  0  0  0  0  0  0  0  0  0  0
  195.3380  173.0800  139.4150 C   0  0  0  0  0  3  0  0  0  0  0  0
  192.9790  173.4550  139.1680 C   0  0  0  0  0  3  0  0  0  0  0  0
  187.8880  175.1830  142.9290 N   0  0  0  0  0  2  0  0  0  0  0  0
  187.5360  176.5290  143.2680 C   0  0  0  0  0  0  0  0  0  0  0  0
  188.2010  177.5020  142.8280 O   0  0  0  0  0  0  0  0  0  0  0  0
  186.1810  178.5930  147.3200 O   0  0  0  0  0  0  0  0  0  0  0  0
  185.1290  177.5400  142.2280 O   0  0  0  0  0  0  0  0  0  0  0  0
  186.3450  176.7910  144.1360 C   0  0  1  0  0  3  0  0  0  0  0  0
  186.7700  177.4140  145.3920 N   0  0  0  0  0  2  0  0  0  0  0  0
  184.4200  178.5880  144.2180 C   0  0  0  0  0  2  0  0  0  0  0  0
  185.8300  178.1170  146.2070 C   0  0  0  0  0  0  0  0  0  0  0  0
  185.3030  177.6400  143.4380 C   0  0  0  0  0  0  0  0  0  0  0  0
  184.4240  178.2890  145.7200 C   0  0  0  0  0  2  0  0  0  0  0  0
  192.6490  176.7010  145.9330 C   0  0  2  0  0  3  0  0  0  0  0  0
  193.3790  176.7050  144.7270 O   0  0  0  0  0  0  0  0  0  0  0  0
  193.3620  175.4810  145.4280 C   0  0  2  0  0  3  0  0  0  0  0  0
  191.1610  176.8030  145.6020 C   0  0  0  0  0  2  0  0  0  0  0  0
  189.3690  175.6760  146.8750 C   0  0  0  0  0  1  0  0  0  0  0  0
  190.3170  176.8570  146.8630 C   0  0  0  0  0  3  0  0  0  0  0  0
  191.2020  176.7890  148.0910 C   0  0  0  0  0  1  0  0  0  0  0  0
  190.3690  173.7900  138.9560 O   0  0  0  0  0  0  0  0  0  0  0  0
  189.4550  172.8750  138.3600 C   0  0  0  0  0  2  0  0  0  0  0  0
  190.2150  171.8070  137.5980 C   0  0  0  0  0  2  0  0  0  0  0  0
  189.9030  170.4360  138.1720 C   0  0  0  0  0  2  0  0  0  0  0  0
  192.7710  169.9310  142.2800 N   0  0  0  0  0  0  0  0  0  0  0  0
  191.0710  169.9220  138.8770 N   0  0  0  0  0  2  0  0  0  0  0  0
  191.2600  170.0480  140.2890 C   0  0  0  0  0  0  0  0  0  0  0  0
  193.3540  168.9360  140.2330 O   0  0  0  0  0  0  0  0  0  0  0  0
  190.3290  170.5690  141.0430 N   0  0  0  0  0  0  0  0  0  0  0  0
  192.5210  169.5990  140.9020 C   0  0  0  0  0  0  0  0  0  0  0  0
  191.8880  170.8970  142.9300 C   0  0  0  0  0  2  0  0  0  0  0  0
  190.4410  170.6350  142.5060 C   0  0  0  0  0  2  0  0  0  0  0  0
  193.3550  168.9290  144.4590 C   0  0  0  0  0  2  0  0  0  0  0  0
  193.8490  169.3260  143.0600 C   0  0  0  0  0  3  0  0  0  0  0  0
  196.9680  168.2150  145.9930 Cl  0  0  0  0  0  0  0  0  0  0  0  0
  194.5030  168.7350  145.4570 C   0  0  0  0  0  2  0  0  0  0  0  0
  195.7690  168.5080  144.7630 N   0  0  0  0  0  0  0  0  0  0  0  0
  196.1510  169.7500  144.0930 C   0  0  0  0  0  2  0  0  0  0  0  0
  195.0810  170.2390  143.1020 C   0  0  0  0  0  2  0  0  0  0  0  0
  2  6  1  0  0  0  0
  3 14  1  0  0  0  0
  4 12  2  0  0  0  0
  5 18  2  0  0  0  0
  5 17  1  0  0  0  0
  6  3  1  0  0  0  0
  6 10  2  0  0  0  0
  7  4  1  0  0  0  0
  7  2  2  0  0  0  0
  8 19  1  0  0  0  0
  8  1  2  0  0  0  0
  9 11  2  0  0  0  0
  9  4  1  0  0  0  0
 11  8  1  0  0  0  0
 12  1  1  0  0  0  0
 12  3  1  0  0  0  0
 14 15  2  0  0  0  0
 16  2  1  0  0  0  0
 16 13  1  0  0  0  0
 17 16  2  0  0  0  0
 18  7  1  0  0  0  0
 19 20  1  0  0  0  0
 21 20  2  0  0  0  0
 23 28  2  0  0  0  0
 24 20  1  6  0  0  0
 24 25  1  0  0  0  0
 25 27  1  0  0  0  0
 26 29  1  0  0  0  0
 27 22  2  0  0  0  0
 28 24  1  0  0  0  0
 28 26  1  0  0  0  0
 29 27  1  0  0  0  0
 30 33  1  6  0  0  0
 31 32  1  0  0  0  0
 31 30  1  0  0  0  0
 32 14  1  6  0  0  0
 32 30  1  0  0  0  0
 33 35  1  0  0  0  0
 35 34  1  0  0  0  0
 35 36  1  0  0  0  0
 37  9  1  0  0  0  0
 38 37  1  0  0  0  0
 39 40  1  0  0  0  0
 39 38  1  0  0  0  0
 40 42  1  0  0  0  0
 41 47  1  0  0  0  0
 41 50  1  0  0  0  0
 42 43  1  0  0  0  0
 43 46  1  0  0  0  0
 43 45  2  0  0  0  0
 44 46  2  0  0  0  0
 45 48  1  0  0  0  0
 46 41  1  0  0  0  0
 48 47  1  0  0  0  0
 49 52  1  0  0  0  0
 50 55  1  0  0  0  0
 50 49  1  0  0  0  0
 53 52  1  0  0  0  0
 53 51  1  0  0  0  0
 54 53  1  0  0  0  0
 55 54  1  0  0  0  0
M  END
>  <MODEL>
4

>  <REMARK>
 VINA RESULT:      -7.0      2.498      4.013
  Name = 
  11 active torsions:
  status: ('A' for Active; 'I' for Inactive)
    1  A    between atoms: C_3  and  C_23
    2  A    between atoms: C_3  and  C_37
    3  A    between atoms: N_4  and  C_21
    4  A    between atoms: C_6  and  C_25
    5  A    between atoms: C_7  and  N_17
    6  A    between atoms: C_10  and  O_35
    7  A    between atoms: C_10  and  C_52
    8  A    between atoms: N_20  and  C_36
    9  A    between atoms: C_22  and  O_35
   10  A    between atoms: C_36  and  C_52
   11  A    between atoms: C_39  and  C_51
                            x       y       z     vdW  Elec       q    Type
                         _______ _______ _______ _____ _____    ______ ____

>  <TORSDO>
F 11

$$$$
=
 OpenBabel11042416413D

 55 61  0  0  1  0  0  0  0  0999 V2000
  190.7630  172.3160  141.4950 C   0  0  0  0  0  3  0  0  0  0  0  0
  191.1720  170.3530  137.7880 C   0  0  0  0  0  0  0  0  0  0  0  0
  191.5380  170.4510  140.1830 N   0  0  0  0  0  0  0  0  0  0  0  0
  190.3050  172.2500  139.1010 C   0  0  0  0  0  0  0  0  0  0  0  0
  190.1170  171.5100  135.4380 C   0  0  0  0  0  3  0  0  0  0  0  0
  191.6850  169.7990  138.9860 C   0  0  0  0  0  0  0  0  0  0  0  0
  190.4720  171.5900  137.8540 C   0  0  0  0  0  0  0  0  0  0  0  0
  190.0970  173.5230  141.6260 C   0  0  0  0  0  0  0  0  0  0  0  0
  189.6030  173.4880  139.2430 C   0  0  0  0  0  0  0  0  0  0  0  0
  192.2720  168.6800  138.9640 O   0  0  0  0  0  0  0  0  0  0  0  0
  189.5170  174.1000  140.5000 C   0  0  0  0  0  3  0  0  0  0  0  0
  190.8730  171.6520  140.2600 C   0  0  0  0  0  0  0  0  0  0  0  0
  192.0390  168.4190  136.3150 C   0  0  0  0  0  1  0  0  0  0  0  0
  192.0520  169.8310  141.3880 C   0  0  0  0  0  0  0  0  0  0  0  0
  191.2790  169.6280  142.3650 O   0  0  0  0  0  0  0  0  0  0  0  0
  191.3240  169.7160  136.5160 C   0  0  0  0  0  0  0  0  0  0  0  0
  190.7960  170.3020  135.3680 C   0  0  0  0  0  3  0  0  0  0  0  0
  189.9610  172.1420  136.6660 C   0  0  0  0  0  3  0  0  0  0  0  0
  190.0620  174.1560  142.9090 N   0  0  0  0  0  2  0  0  0  0  0  0
  190.7800  175.3370  143.2890 C   0  0  0  0  0  0  0  0  0  0  0  0
  191.3540  176.0510  142.4270 O   0  0  0  0  0  0  0  0  0  0  0  0
  188.7860  174.5510  147.5230 O   0  0  0  0  0  0  0  0  0  0  0  0
  193.1950  175.4720  144.7190 O   0  0  0  0  0  0  0  0  0  0  0  0
  190.8280  175.7470  144.7280 C   0  0  1  0  0  3  0  0  0  0  0  0
  189.7240  175.1240  145.4630 N   0  0  0  0  0  2  0  0  0  0  0  0
  192.2480  175.0760  146.8420 C   0  0  0  0  0  2  0  0  0  0  0  0
  189.7660  175.0250  146.8870 C   0  0  0  0  0  0  0  0  0  0  0  0
  192.1590  175.4200  145.3730 C   0  0  0  0  0  0  0  0  0  0  0  0
  190.9910  175.4830  147.6170 C   0  0  0  0  0  2  0  0  0  0  0  0
  194.3560  170.2690  142.3870 C   0  0  2  0  0  3  0  0  0  0  0  0
  194.3530  170.3940  140.9830 O   0  0  0  0  0  0  0  0  0  0  0  0
  193.4950  169.4070  141.5110 C   0  0  2  0  0  3  0  0  0  0  0  0
  193.6880  171.5060  142.9880 C   0  0  0  0  0  2  0  0  0  0  0  0
  194.0050  170.0490  144.9580 C   0  0  0  0  0  1  0  0  0  0  0  0
  193.7140  171.4640  144.5060 C   0  0  0  0  0  3  0  0  0  0  0  0
  194.7960  172.3830  145.0380 C   0  0  0  0  0  1  0  0  0  0  0  0
  188.9860  174.1000  138.1430 O   0  0  0  0  0  0  0  0  0  0  0  0
  187.6080  174.4610  138.1230 C   0  0  0  0  0  2  0  0  0  0  0  0
  187.3740  175.5540  137.0980 C   0  0  0  0  0  2  0  0  0  0  0  0
  186.7190  176.7550  137.7570 C   0  0  0  0  0  2  0  0  0  0  0  0
  185.9580  178.1370  142.5390 N   0  0  0  0  0  0  0  0  0  0  0  0
  187.1040  176.8140  139.1620 N   0  0  0  0  0  2  0  0  0  0  0  0
  186.2490  177.3110  140.1950 C   0  0  0  0  0  0  0  0  0  0  0  0
  187.8710  176.9390  141.8850 O   0  0  0  0  0  0  0  0  0  0  0  0
  185.0210  177.6670  139.9310 N   0  0  0  0  0  0  0  0  0  0  0  0
  186.7600  177.4370  141.5700 C   0  0  0  0  0  0  0  0  0  0  0  0
  184.8020  178.8930  142.0640 C   0  0  0  0  0  2  0  0  0  0  0  0
  184.0810  178.0970  140.9740 C   0  0  0  0  0  2  0  0  0  0  0  0
  185.8300  176.7430  144.5720 C   0  0  0  0  0  2  0  0  0  0  0  0
  186.2330  178.0990  143.9740 C   0  0  0  0  0  3  0  0  0  0  0  0
  186.1460  177.8590  148.3900 Cl  0  0  0  0  0  0  0  0  0  0  0  0
  185.6520  176.7990  146.0950 C   0  0  0  0  0  2  0  0  0  0  0  0
  186.3460  177.9540  146.6610 N   0  0  0  0  0  0  0  0  0  0  0  0
  185.6480  179.1630  146.2260 C   0  0  0  0  0  2  0  0  0  0  0  0
  185.5770  179.2840  144.6950 C   0  0  0  0  0  2  0  0  0  0  0  0
  1  8  1  0  0  0  0
  2  7  1  0  0  0  0
  2  6  1  0  0  0  0
  3 12  1  0  0  0  0
  3 14  1  0  0  0  0
  4  9  2  0  0  0  0
  4 12  1  0  0  0  0
  5 18  1  0  0  0  0
  6  3  1  0  0  0  0
  7  4  1  0  0  0  0
  8 19  1  0  0  0  0
  9 11  1  0  0  0  0
 10  6  2  0  0  0  0
 11  8  2  0  0  0  0
 12  1  2  0  0  0  0
 13 16  1  0  0  0  0
 14 15  2  0  0  0  0
 16  2  2  0  0  0  0
 17  5  2  0  0  0  0
 17 16  1  0  0  0  0
 18  7  2  0  0  0  0
 19 20  1  0  0  0  0
 21 20  2  0  0  0  0
 23 28  2  0  0  0  0
 24 20  1  6  0  0  0
 24 28  1  0  0  0  0
 24 25  1  0  0  0  0
 25 27  1  0  0  0  0
 26 29  1  0  0  0  0
 27 22  2  0  0  0  0
 27 29  1  0  0  0  0
 28 26  1  0  0  0  0
 30 33  1  1  0  0  0
 31 32  1  0  0  0  0
 31 30  1  0  0  0  0
 32 14  1  1  0  0  0
 32 30  1  0  0  0  0
 33 35  1  0  0  0  0
 35 34  1  0  0  0  0
 35 36  1  0  0  0  0
 37  9  1  0  0  0  0
 38 37  1  0  0  0  0
 39 40  1  0  0  0  0
 39 38  1  0  0  0  0
 40 42  1  0  0  0  0
 41 50  1  0  0  0  0
 42 43  1  0  0  0  0
 43 46  1  0  0  0  0
 45 43  2  0  0  0  0
 45 48  1  0  0  0  0
 46 44  2  0  0  0  0
 46 41  1  0  0  0  0
 47 41  1  0  0  0  0
 48 47  1  0  0  0  0
 49 52  1  0  0  0  0
 50 49  1  0  0  0  0
 50 55  1  0  0  0  0
 52 53  1  0  0  0  0
 53 51  1  0  0  0  0
 54 53  1  0  0  0  0
 55 54  1  0  0  0  0
M  END
>  <MODEL>
5

>  <REMARK>
 VINA RESULT:      -7.0      3.590      6.827
  Name = 
  11 active torsions:
  status: ('A' for Active; 'I' for Inactive)
    1  A    between atoms: C_3  and  C_23
    2  A    between atoms: C_3  and  C_37
    3  A    between atoms: N_4  and  C_21
    4  A    between atoms: C_6  and  C_25
    5  A    between atoms: C_7  and  N_17
    6  A    between atoms: C_10  and  O_35
    7  A    between atoms: C_10  and  C_52
    8  A    between atoms: N_20  and  C_36
    9  A    between atoms: C_22  and  O_35
   10  A    between atoms: C_36  and  C_52
   11  A    between atoms: C_39  and  C_51
                            x       y       z     vdW  Elec       q    Type
                         _______ _______ _______ _____ _____    ______ ____

>  <TORSDO>
F 11

$$$$
=
 OpenBabel11042416413D

 55 61  0  0  1  0  0  0  0  0999 V2000
  192.4840  172.2770  141.5930 C   0  0  0  0  0  3  0  0  0  0  0  0
  193.3240  170.3730  137.9280 C   0  0  0  0  0  0  0  0  0  0  0  0
  194.0380  171.2290  140.0810 N   0  0  0  0  0  0  0  0  0  0  0  0
  191.6860  171.3800  139.4710 C   0  0  0  0  0  0  0  0  0  0  0  0
  191.2620  169.9180  136.0530 C   0  0  0  0  0  3  0  0  0  0  0  0
  194.3320  170.6120  138.8920 C   0  0  0  0  0  0  0  0  0  0  0  0
  191.9880  170.7600  138.2280 C   0  0  0  0  0  0  0  0  0  0  0  0
  191.2060  172.6800  141.9440 C   0  0  0  0  0  0  0  0  0  0  0  0
  190.3660  171.7820  139.8440 C   0  0  0  0  0  0  0  0  0  0  0  0
  195.5190  170.2390  138.6710 O   0  0  0  0  0  0  0  0  0  0  0  0
  190.1540  172.4270  141.0700 C   0  0  0  0  0  3  0  0  0  0  0  0
  192.7530  171.6170  140.3800 C   0  0  0  0  0  0  0  0  0  0  0  0
  194.9510  169.3060  136.2330 C   0  0  0  0  0  1  0  0  0  0  0  0
  195.0970  171.4250  141.0510 C   0  0  0  0  0  0  0  0  0  0  0  0
  194.9640  170.9730  142.2220 O   0  0  0  0  0  0  0  0  0  0  0  0
  193.5930  169.7530  136.6670 C   0  0  0  0  0  0  0  0  0  0  0  0
  192.5620  169.5370  135.7550 C   0  0  0  0  0  3  0  0  0  0  0  0
  190.9840  170.5220  137.2730 C   0  0  0  0  0  3  0  0  0  0  0  0
  191.0190  173.3810  143.1780 N   0  0  0  0  0  2  0  0  0  0  0  0
  191.0800  174.8000  143.3630 C   0  0  0  0  0  0  0  0  0  0  0  0
  191.0990  175.5810  142.3760 O   0  0  0  0  0  0  0  0  0  0  0  0
  188.9410  174.5460  147.5900 O   0  0  0  0  0  0  0  0  0  0  0  0
  193.4540  175.0450  144.8460 O   0  0  0  0  0  0  0  0  0  0  0  0
  191.0960  175.3710  144.7460 C   0  0  1  0  0  3  0  0  0  0  0  0
  189.9550  174.8600  145.5100 N   0  0  0  0  0  2  0  0  0  0  0  0
  192.4350  174.9140  146.9680 C   0  0  0  0  0  2  0  0  0  0  0  0
  189.9510  174.9230  146.9380 C   0  0  0  0  0  0  0  0  0  0  0  0
  192.3980  175.0910  145.4670 C   0  0  0  0  0  0  0  0  0  0  0  0
  191.1650  175.4350  147.6500 C   0  0  0  0  0  2  0  0  0  0  0  0
  196.4670  173.5710  141.1860 C   0  0  2  0  0  3  0  0  0  0  0  0
  196.1040  173.2540  139.8610 O   0  0  0  0  0  0  0  0  0  0  0  0
  196.3720  172.1530  140.7010 C   0  0  2  0  0  3  0  0  0  0  0  0
  195.2400  174.1250  141.9080 C   0  0  0  0  0  2  0  0  0  0  0  0
  196.8230  176.0220  141.9260 C   0  0  0  0  0  1  0  0  0  0  0  0
  195.3900  175.6090  142.1930 C   0  0  0  0  0  3  0  0  0  0  0  0
  194.4710  176.4120  141.2960 C   0  0  0  0  0  1  0  0  0  0  0  0
  189.2690  171.5330  139.0060 O   0  0  0  0  0  0  0  0  0  0  0  0
  188.2130  172.4670  138.8060 C   0  0  0  0  0  2  0  0  0  0  0  0
  188.6460  173.5340  137.8200 C   0  0  0  0  0  2  0  0  0  0  0  0
  188.1920  174.9020  138.2980 C   0  0  0  0  0  2  0  0  0  0  0  0
  186.9450  177.0480  142.6790 N   0  0  0  0  0  0  0  0  0  0  0  0
  188.0690  174.8960  139.7510 N   0  0  0  0  0  2  0  0  0  0  0  0
  187.4070  175.9260  140.4920 C   0  0  0  0  0  0  0  0  0  0  0  0
  187.8510  174.8830  142.5750 O   0  0  0  0  0  0  0  0  0  0  0  0
  186.7960  176.9020  139.8770 N   0  0  0  0  0  0  0  0  0  0  0  0
  187.4260  175.8960  141.9630 C   0  0  0  0  0  0  0  0  0  0  0  0
  186.6910  178.2750  141.9270 C   0  0  0  0  0  2  0  0  0  0  0  0
  186.0280  177.9290  140.5920 C   0  0  0  0  0  2  0  0  0  0  0  0
  185.3910  177.8160  144.4370 C   0  0  0  0  0  2  0  0  0  0  0  0
  186.6730  177.0340  144.1160 C   0  0  0  0  0  3  0  0  0  0  0  0
  185.9410  177.9170  148.3880 Cl  0  0  0  0  0  0  0  0  0  0  0  0
  185.3080  178.2330  145.9110 C   0  0  0  0  0  2  0  0  0  0  0  0
  186.1900  177.4120  146.7380 N   0  0  0  0  0  0  0  0  0  0  0  0
  187.5730  177.7470  146.4030 C   0  0  0  0  0  2  0  0  0  0  0  0
  187.8860  177.5300  144.9130 C   0  0  0  0  0  2  0  0  0  0  0  0
  1  8  1  0  0  0  0
  2  7  1  0  0  0  0
  2  6  1  0  0  0  0
  3 12  1  0  0  0  0
  3 14  1  0  0  0  0
  4  9  2  0  0  0  0
  4 12  1  0  0  0  0
  5 18  1  0  0  0  0
  6  3  1  0  0  0  0
  7  4  1  0  0  0  0
  8 19  1  0  0  0  0
  9 11  1  0  0  0  0
 10  6  2  0  0  0  0
 11  8  2  0  0  0  0
 12  1  2  0  0  0  0
 13 16  1  0  0  0  0
 14 15  2  0  0  0  0
 16  2  2  0  0  0  0
 17  5  2  0  0  0  0
 17 16  1  0  0  0  0
 18  7  2  0  0  0  0
 19 20  1  0  0  0  0
 21 20  2  0  0  0  0
 23 28  2  0  0  0  0
 24 20  1  6  0  0  0
 24 28  1  0  0  0  0
 24 25  1  0  0  0  0
 25 27  1  0  0  0  0
 26 29  1  0  0  0  0
 27 22  2  0  0  0  0
 27 29  1  0  0  0  0
 28 26  1  0  0  0  0
 30 33  1  1  0  0  0
 31 32  1  0  0  0  0
 31 30  1  0  0  0  0
 32 14  1  1  0  0  0
 32 30  1  0  0  0  0
 33 35  1  0  0  0  0
 34 35  1  0  0  0  0
 36 35  1  0  0  0  0
 37  9  1  0  0  0  0
 38 37  1  0  0  0  0
 39 40  1  0  0  0  0
 39 38  1  0  0  0  0
 40 42  1  0  0  0  0
 41 50  1  0  0  0  0
 42 43  1  0  0  0  0
 43 46  1  0  0  0  0
 45 43  2  0  0  0  0
 45 48  1  0  0  0  0
 46 44  2  0  0  0  0
 46 41  1  0  0  0  0
 47 41  1  0  0  0  0
 48 47  1  0  0  0  0
 49 52  1  0  0  0  0
 50 49  1  0  0  0  0
 50 55  1  0  0  0  0
 52 53  1  0  0  0  0
 53 51  1  0  0  0  0
 54 53  1  0  0  0  0
 55 54  1  0  0  0  0
M  END
>  <MODEL>
6

>  <REMARK>
 VINA RESULT:      -6.8      2.995      6.703
  Name = 
  11 active torsions:
  status: ('A' for Active; 'I' for Inactive)
    1  A    between atoms: C_3  and  C_23
    2  A    between atoms: C_3  and  C_37
    3  A    between atoms: N_4  and  C_21
    4  A    between atoms: C_6  and  C_25
    5  A    between atoms: C_7  and  N_17
    6  A    between atoms: C_10  and  O_35
    7  A    between atoms: C_10  and  C_52
    8  A    between atoms: N_20  and  C_36
    9  A    between atoms: C_22  and  O_35
   10  A    between atoms: C_36  and  C_52
   11  A    between atoms: C_39  and  C_51
                            x       y       z     vdW  Elec       q    Type
                         _______ _______ _______ _____ _____    ______ ____

>  <TORSDO>
F 11

$$$$
=
 OpenBabel11042416413D

 55 61  0  0  1  0  0  0  0  0999 V2000
  194.1600  173.5060  141.4600 C   0  0  0  0  0  3  0  0  0  0  0  0
  195.9140  173.6110  137.6290 C   0  0  0  0  0  0  0  0  0  0  0  0
  196.0800  173.8110  140.0390 N   0  0  0  0  0  0  0  0  0  0  0  0
  193.9350  173.2270  139.0490 C   0  0  0  0  0  0  0  0  0  0  0  0
  194.3510  173.1080  135.3320 C   0  0  0  0  0  3  0  0  0  0  0  0
  196.6690  173.8540  138.8020 C   0  0  0  0  0  0  0  0  0  0  0  0
  194.5330  173.2910  137.7610 C   0  0  0  0  0  0  0  0  0  0  0  0
  192.8230  173.2030  141.6560 C   0  0  0  0  0  0  0  0  0  0  0  0
  192.5590  172.8990  139.2560 C   0  0  0  0  0  0  0  0  0  0  0  0
  197.9060  174.0970  138.7170 O   0  0  0  0  0  0  0  0  0  0  0  0
  192.0300  172.8980  140.5540 C   0  0  0  0  0  3  0  0  0  0  0  0
  194.7460  173.5120  140.1810 C   0  0  0  0  0  0  0  0  0  0  0  0
  197.9160  173.9970  136.0480 C   0  0  0  0  0  1  0  0  0  0  0  0
  196.9000  174.0350  141.2140 C   0  0  0  0  0  0  0  0  0  0  0  0
  196.9320  173.1660  142.1290 O   0  0  0  0  0  0  0  0  0  0  0  0
  196.4840  173.6680  136.3180 C   0  0  0  0  0  0  0  0  0  0  0  0
  195.6960  173.4170  135.1960 C   0  0  0  0  0  3  0  0  0  0  0  0
  193.7810  173.0480  136.5980 C   0  0  0  0  0  3  0  0  0  0  0  0
  192.2910  173.2560  142.9840 N   0  0  0  0  0  2  0  0  0  0  0  0
  191.7750  174.4190  143.6430 C   0  0  0  0  0  0  0  0  0  0  0  0
  191.5510  175.4790  143.0030 O   0  0  0  0  0  0  0  0  0  0  0  0
  191.0500  177.1520  147.4530 O   0  0  0  0  0  0  0  0  0  0  0  0
  189.7000  172.8340  144.6820 O   0  0  0  0  0  0  0  0  0  0  0  0
  191.4700  174.3710  145.1080 C   0  0  1  0  0  3  0  0  0  0  0  0
  191.5460  175.7190  145.6780 N   0  0  0  0  0  2  0  0  0  0  0  0
  189.2990  174.1670  146.5850 C   0  0  0  0  0  2  0  0  0  0  0  0
  190.9260  176.0110  146.9320 C   0  0  0  0  0  0  0  0  0  0  0  0
  190.1250  173.7380  145.3930 C   0  0  0  0  0  0  0  0  0  0  0  0
  190.1210  174.9500  147.6150 C   0  0  0  0  0  2  0  0  0  0  0  0
  197.1820  176.3160  142.3180 C   0  0  2  0  0  3  0  0  0  0  0  0
  197.0270  176.4170  140.9210 O   0  0  0  0  0  0  0  0  0  0  0  0
  197.7320  175.2840  141.3770 C   0  0  2  0  0  3  0  0  0  0  0  0
  195.8200  176.0100  142.9400 C   0  0  0  0  0  2  0  0  0  0  0  0
  194.6540  176.8160  144.9630 C   0  0  0  0  0  1  0  0  0  0  0  0
  195.8760  176.0790  144.4560 C   0  0  0  0  0  3  0  0  0  0  0  0
  195.8890  174.6830  145.0450 C   0  0  0  0  0  1  0  0  0  0  0  0
  191.7240  172.5650  138.1800 O   0  0  0  0  0  0  0  0  0  0  0  0
  190.7400  173.4500  137.6530 C   0  0  0  0  0  2  0  0  0  0  0  0
  189.3670  173.0610  138.1650 C   0  0  0  0  0  2  0  0  0  0  0  0
  188.5680  174.3050  138.5120 C   0  0  0  0  0  2  0  0  0  0  0  0
  187.2740  176.7250  142.7330 N   0  0  0  0  0  0  0  0  0  0  0  0
  188.3580  174.3660  139.9540 N   0  0  0  0  0  2  0  0  0  0  0  0
  187.7560  175.4810  140.6170 C   0  0  0  0  0  0  0  0  0  0  0  0
  187.9730  174.4820  142.7570 O   0  0  0  0  0  0  0  0  0  0  0  0
  187.2780  176.4860  139.9340 N   0  0  0  0  0  0  0  0  0  0  0  0
  187.6850  175.5060  142.0870 C   0  0  0  0  0  0  0  0  0  0  0  0
  187.1840  177.9400  141.9270 C   0  0  0  0  0  2  0  0  0  0  0  0
  186.5710  177.6070  140.5650 C   0  0  0  0  0  2  0  0  0  0  0  0
  185.5930  177.5440  144.3460 C   0  0  0  0  0  2  0  0  0  0  0  0
  186.9170  176.7910  144.1500 C   0  0  0  0  0  3  0  0  0  0  0  0
  185.9020  177.9140  148.3060 Cl  0  0  0  0  0  0  0  0  0  0  0  0
  185.4080  178.0500  145.7820 C   0  0  0  0  0  2  0  0  0  0  0  0
  186.2660  177.3160  146.7100 N   0  0  0  0  0  0  0  0  0  0  0  0
  187.6540  177.6810  146.4330 C   0  0  0  0  0  2  0  0  0  0  0  0
  188.0640  177.3820  144.9810 C   0  0  0  0  0  2  0  0  0  0  0  0
  1  8  1  0  0  0  0
  2  7  1  0  0  0  0
  2  6  1  0  0  0  0
  3 12  1  0  0  0  0
  3 14  1  0  0  0  0
  4  9  2  0  0  0  0
  4 12  1  0  0  0  0
  5 18  1  0  0  0  0
  6  3  1  0  0  0  0
  7  4  1  0  0  0  0
  8 19  1  0  0  0  0
  9 11  1  0  0  0  0
 10  6  2  0  0  0  0
 11  8  2  0  0  0  0
 12  1  2  0  0  0  0
 13 16  1  0  0  0  0
 14 15  2  0  0  0  0
 16  2  2  0  0  0  0
 17  5  2  0  0  0  0
 17 16  1  0  0  0  0
 18  7  2  0  0  0  0
 19 20  1  0  0  0  0
 21 20  2  0  0  0  0
 23 28  2  0  0  0  0
 24 20  1  6  0  0  0
 24 28  1  0  0  0  0
 24 25  1  0  0  0  0
 25 27  1  0  0  0  0
 26 29  1  0  0  0  0
 27 22  2  0  0  0  0
 27 29  1  0  0  0  0
 28 26  1  0  0  0  0
 30 33  1  1  0  0  0
 31 32  1  0  0  0  0
 31 30  1  0  0  0  0
 32 14  1  1  0  0  0
 32 30  1  0  0  0  0
 33 35  1  0  0  0  0
 35 34  1  0  0  0  0
 35 36  1  0  0  0  0
 37  9  1  0  0  0  0
 38 39  1  0  0  0  0
 38 37  1  0  0  0  0
 39 40  1  0  0  0  0
 40 42  1  0  0  0  0
 41 50  1  0  0  0  0
 42 43  1  0  0  0  0
 43 46  1  0  0  0  0
 45 48  1  0  0  0  0
 45 43  2  0  0  0  0
 46 41  1  0  0  0  0
 46 44  2  0  0  0  0
 47 41  1  0  0  0  0
 48 47  1  0  0  0  0
 49 52  1  0  0  0  0
 50 49  1  0  0  0  0
 50 55  1  0  0  0  0
 52 53  1  0  0  0  0
 53 51  1  0  0  0  0
 54 53  1  0  0  0  0
 55 54  1  0  0  0  0
M  END
>  <MODEL>
7

>  <REMARK>
 VINA RESULT:      -6.6      2.841      6.855
  Name = 
  11 active torsions:
  status: ('A' for Active; 'I' for Inactive)
    1  A    between atoms: C_3  and  C_23
    2  A    between atoms: C_3  and  C_37
    3  A    between atoms: N_4  and  C_21
    4  A    between atoms: C_6  and  C_25
    5  A    between atoms: C_7  and  N_17
    6  A    between atoms: C_10  and  O_35
    7  A    between atoms: C_10  and  C_52
    8  A    between atoms: N_20  and  C_36
    9  A    between atoms: C_22  and  O_35
   10  A    between atoms: C_36  and  C_52
   11  A    between atoms: C_39  and  C_51
                            x       y       z     vdW  Elec       q    Type
                         _______ _______ _______ _____ _____    ______ ____

>  <TORSDO>
F 11

$$$$
=
 OpenBabel11042416413D

 55 61  0  0  1  0  0  0  0  0999 V2000
  193.7730  172.0520  140.2600 C   0  0  0  0  0  3  0  0  0  0  0  0
  194.9780  170.9230  144.1380 C   0  0  0  0  0  0  0  0  0  0  0  0
  193.3820  170.8570  142.3130 N   0  0  0  0  0  0  0  0  0  0  0  0
  195.4500  172.1090  142.0280 C   0  0  0  0  0  0  0  0  0  0  0  0
  197.4360  171.8310  145.1870 C   0  0  0  0  0  3  0  0  0  0  0  0
  193.7540  170.4820  143.5780 C   0  0  0  0  0  0  0  0  0  0  0  0
  195.8320  171.7420  143.3470 C   0  0  0  0  0  0  0  0  0  0  0  0
  194.5570  172.8490  139.4420 C   0  0  0  0  0  0  0  0  0  0  0  0
  196.2630  172.9180  141.1750 C   0  0  0  0  0  0  0  0  0  0  0  0
  192.9960  169.7180  144.2410 O   0  0  0  0  0  0  0  0  0  0  0  0
  195.7990  173.2750  139.9020 C   0  0  0  0  0  3  0  0  0  0  0  0
  194.1930  171.6560  141.5420 C   0  0  0  0  0  0  0  0  0  0  0  0
  194.5840  169.7250  146.3880 C   0  0  0  0  0  1  0  0  0  0  0  0
  192.1340  170.3560  141.7710 C   0  0  0  0  0  0  0  0  0  0  0  0
  192.1360  169.7300  140.6750 O   0  0  0  0  0  0  0  0  0  0  0  0
  195.3920  170.5730  145.4610 C   0  0  0  0  0  0  0  0  0  0  0  0
  196.6090  171.0310  145.9620 C   0  0  0  0  0  3  0  0  0  0  0  0
  197.0490  172.1800  143.8990 C   0  0  0  0  0  3  0  0  0  0  0  0
  194.0430  173.2430  138.1650 N   0  0  0  0  0  2  0  0  0  0  0  0
  193.7990  174.5850  137.7280 C   0  0  0  0  0  0  0  0  0  0  0  0
  194.2310  175.5680  138.3860 O   0  0  0  0  0  0  0  0  0  0  0  0
  189.4220  175.0090  135.9470 O   0  0  0  0  0  0  0  0  0  0  0  0
  194.4530  176.6920  135.9880 O   0  0  0  0  0  0  0  0  0  0  0  0
  193.0440  174.8300  136.4590 C   0  0  1  0  0  3  0  0  0  0  0  0
  191.6070  174.6620  136.6940 N   0  0  0  0  0  2  0  0  0  0  0  0
  192.2910  176.9450  135.0810 C   0  0  0  0  0  2  0  0  0  0  0  0
  190.6540  175.2130  135.7820 C   0  0  0  0  0  0  0  0  0  0  0  0
  193.3390  176.1930  135.8700 C   0  0  0  0  0  0  0  0  0  0  0  0
  191.1380  176.0420  134.6320 C   0  0  0  0  0  2  0  0  0  0  0  0
  189.9320  171.6310  141.9340 C   0  0  2  0  0  3  0  0  0  0  0  0
  190.7520  171.8390  143.0620 O   0  0  0  0  0  0  0  0  0  0  0  0
  190.8200  170.5530  142.4860 C   0  0  2  0  0  3  0  0  0  0  0  0
  190.4940  172.4410  140.7660 C   0  0  0  0  0  2  0  0  0  0  0  0
  188.1890  172.7170  139.9220 C   0  0  0  0  0  1  0  0  0  0  0  0
  189.4770  173.4430  140.2500 C   0  0  0  0  0  3  0  0  0  0  0  0
  189.1940  174.4950  141.3030 C   0  0  0  0  0  1  0  0  0  0  0  0
  197.5310  173.3560  141.5860 O   0  0  0  0  0  0  0  0  0  0  0  0
  197.9400  174.7190  141.5310 C   0  0  0  0  0  2  0  0  0  0  0  0
  197.9340  175.3170  142.9250 C   0  0  0  0  0  2  0  0  0  0  0  0
  197.3140  176.7020  142.8950 C   0  0  0  0  0  2  0  0  0  0  0  0
  192.4250  176.3470  144.0490 N   0  0  0  0  0  0  0  0  0  0  0  0
  196.2000  176.7610  143.8350 N   0  0  0  0  0  2  0  0  0  0  0  0
  194.8670  176.3600  143.5060 C   0  0  0  0  0  0  0  0  0  0  0  0
  194.0420  176.8940  145.6640 O   0  0  0  0  0  0  0  0  0  0  0  0
  194.5970  175.8320  142.3420 N   0  0  0  0  0  0  0  0  0  0  0  0
  193.7820  176.5560  144.4810 C   0  0  0  0  0  0  0  0  0  0  0  0
  192.1700  176.1910  142.6190 C   0  0  0  0  0  2  0  0  0  0  0  0
  193.2640  175.3230  141.9950 C   0  0  0  0  0  2  0  0  0  0  0  0
  190.4960  174.9710  144.7400 C   0  0  0  0  0  2  0  0  0  0  0  0
  191.3010  176.2570  144.9800 C   0  0  0  0  0  3  0  0  0  0  0  0
  187.3840  175.9950  147.0170 Cl  0  0  0  0  0  0  0  0  0  0  0  0
  189.0830  175.0400  145.3340 C   0  0  0  0  0  2  0  0  0  0  0  0
  188.9970  176.0740  146.3630 N   0  0  0  0  0  0  0  0  0  0  0  0
  189.1200  177.3780  145.7110 C   0  0  0  0  0  2  0  0  0  0  0  0
  190.4330  177.5200  144.9220 C   0  0  0  0  0  2  0  0  0  0  0  0
  1 12  1  0  0  0  0
  2 16  1  0  0  0  0
  3  6  1  0  0  0  0
  4  7  1  0  0  0  0
  5 17  1  0  0  0  0
  6  2  1  0  0  0  0
  6 10  2  0  0  0  0
  7 18  1  0  0  0  0
  7  2  2  0  0  0  0
  8 11  1  0  0  0  0
  8  1  2  0  0  0  0
  9 37  1  0  0  0  0
  9  4  1  0  0  0  0
 11  9  2  0  0  0  0
 12  4  2  0  0  0  0
 12  3  1  0  0  0  0
 14  3  1  0  0  0  0
 15 14  2  0  0  0  0
 16 17  2  0  0  0  0
 16 13  1  0  0  0  0
 18  5  2  0  0  0  0
 19  8  1  0  0  0  0
 20 19  1  0  0  0  0
 20 21  2  0  0  0  0
 24 25  1  0  0  0  0
 24 20  1  1  0  0  0
 26 28  1  0  0  0  0
 27 22  2  0  0  0  0
 27 25  1  0  0  0  0
 28 23  2  0  0  0  0
 28 24  1  0  0  0  0
 29 26  1  0  0  0  0
 29 27  1  0  0  0  0
 30 33  1  6  0  0  0
 30 32  1  0  0  0  0
 30 31  1  0  0  0  0
 32 14  1  6  0  0  0
 32 31  1  0  0  0  0
 34 35  1  0  0  0  0
 35 33  1  0  0  0  0
 35 36  1  0  0  0  0
 38 37  1  0  0  0  0
 38 39  1  0  0  0  0
 40 39  1  0  0  0  0
 40 42  1  0  0  0  0
 41 46  1  0  0  0  0
 41 50  1  0  0  0  0
 43 42  1  0  0  0  0
 43 46  1  0  0  0  0
 45 43  2  0  0  0  0
 46 44  2  0  0  0  0
 47 41  1  0  0  0  0
 48 45  1  0  0  0  0
 48 47  1  0  0  0  0
 49 50  1  0  0  0  0
 49 52  1  0  0  0  0
 52 53  1  0  0  0  0
 53 51  1  0  0  0  0
 54 53  1  0  0  0  0
 55 50  1  0  0  0  0
 55 54  1  0  0  0  0
M  END
>  <MODEL>
8

>  <REMARK>
 VINA RESULT:      -6.1      3.128      7.696
  Name = 
  11 active torsions:
  status: ('A' for Active; 'I' for Inactive)
    1  A    between atoms: C_3  and  C_23
    2  A    between atoms: C_3  and  C_37
    3  A    between atoms: N_4  and  C_21
    4  A    between atoms: C_6  and  C_25
    5  A    between atoms: C_7  and  N_17
    6  A    between atoms: C_10  and  O_35
    7  A    between atoms: C_10  and  C_52
    8  A    between atoms: N_20  and  C_36
    9  A    between atoms: C_22  and  O_35
   10  A    between atoms: C_36  and  C_52
   11  A    between atoms: C_39  and  C_51
                            x       y       z     vdW  Elec       q    Type
                         _______ _______ _______ _____ _____    ______ ____

>  <TORSDO>
F 11

$$$$
=
 OpenBabel11042416413D

 55 61  0  0  1  0  0  0  0  0999 V2000
  192.1970  174.3490  142.3610 C   0  0  0  0  0  3  0  0  0  0  0  0
  194.9760  172.7960  139.5980 C   0  0  0  0  0  0  0  0  0  0  0  0
  194.4310  173.6420  141.8040 N   0  0  0  0  0  0  0  0  0  0  0  0
  192.6620  173.4480  140.1440 C   0  0  0  0  0  0  0  0  0  0  0  0
  194.1580  172.1180  136.9820 C   0  0  0  0  0  3  0  0  0  0  0  0
  195.3510  173.1420  140.9190 C   0  0  0  0  0  0  0  0  0  0  0  0
  193.6140  172.9490  139.2140 C   0  0  0  0  0  0  0  0  0  0  0  0
  190.8600  174.5250  142.0480 C   0  0  0  0  0  0  0  0  0  0  0  0
  191.2770  173.6160  139.8300 C   0  0  0  0  0  0  0  0  0  0  0  0
  196.5440  172.9740  141.3010 O   0  0  0  0  0  0  0  0  0  0  0  0
  190.4060  174.1540  140.7860 C   0  0  0  0  0  3  0  0  0  0  0  0
  193.1140  173.8050  141.4440 C   0  0  0  0  0  0  0  0  0  0  0  0
  197.3620  172.0900  138.9170 C   0  0  0  0  0  1  0  0  0  0  0  0
  194.8540  173.9530  143.1560 C   0  0  0  0  0  0  0  0  0  0  0  0
  194.2570  173.4250  144.1350 O   0  0  0  0  0  0  0  0  0  0  0  0
  195.9090  172.2920  138.6380 C   0  0  0  0  0  0  0  0  0  0  0  0
  195.4860  171.9630  137.3520 C   0  0  0  0  0  3  0  0  0  0  0  0
  193.2390  172.6050  137.9040 C   0  0  0  0  0  3  0  0  0  0  0  0
  189.9960  175.1230  143.0220 N   0  0  0  0  0  2  0  0  0  0  0  0
  190.0890  176.4600  143.5280 C   0  0  0  0  0  0  0  0  0  0  0  0
  190.8390  177.3080  142.9790 O   0  0  0  0  0  0  0  0  0  0  0  0
  185.6220  177.1030  144.9900 O   0  0  0  0  0  0  0  0  0  0  0  0
  190.5180  175.3810  146.0870 O   0  0  0  0  0  0  0  0  0  0  0  0
  189.2650  176.8670  144.7090 C   0  0  1  0  0  3  0  0  0  0  0  0
  187.8550  176.9680  144.3240 N   0  0  0  0  0  2  0  0  0  0  0  0
  188.3070  175.6740  146.8530 C   0  0  0  0  0  2  0  0  0  0  0  0
  186.8290  176.9470  145.3170 C   0  0  0  0  0  0  0  0  0  0  0  0
  189.4390  175.9250  145.8820 C   0  0  0  0  0  0  0  0  0  0  0  0
  187.2030  176.7300  146.7510 C   0  0  0  0  0  2  0  0  0  0  0  0
  195.6300  176.2230  144.0190 C   0  0  2  0  0  3  0  0  0  0  0  0
  195.8980  176.0560  142.6450 O   0  0  0  0  0  0  0  0  0  0  0  0
  196.0030  174.8910  143.4330 C   0  0  2  0  0  3  0  0  0  0  0  0
  194.1370  176.4920  144.1950 C   0  0  0  0  0  2  0  0  0  0  0  0
  193.8440  175.6990  146.5160 C   0  0  0  0  0  1  0  0  0  0  0  0
  193.8170  176.9170  145.6180 C   0  0  0  0  0  3  0  0  0  0  0  0
  194.8440  177.9160  146.1110 C   0  0  0  0  0  1  0  0  0  0  0  0
  190.7670  173.2390  138.5790 O   0  0  0  0  0  0  0  0  0  0  0  0
  189.6610  172.3560  138.4210 C   0  0  0  0  0  2  0  0  0  0  0  0
  190.0950  171.1120  137.6710 C   0  0  0  0  0  2  0  0  0  0  0  0
  189.7470  169.8710  138.4740 C   0  0  0  0  0  2  0  0  0  0  0  0
  192.9340  169.7940  142.3710 N   0  0  0  0  0  0  0  0  0  0  0  0
  190.9370  169.3820  139.1610 N   0  0  0  0  0  2  0  0  0  0  0  0
  191.2600  169.7150  140.5130 C   0  0  0  0  0  0  0  0  0  0  0  0
  193.2600  168.4400  140.4780 O   0  0  0  0  0  0  0  0  0  0  0  0
  190.4400  170.4240  141.2410 N   0  0  0  0  0  0  0  0  0  0  0  0
  192.5380  169.2670  141.0910 C   0  0  0  0  0  0  0  0  0  0  0  0
  192.1820  170.9190  142.9200 C   0  0  0  0  0  2  0  0  0  0  0  0
  190.6880  170.7130  142.6590 C   0  0  0  0  0  2  0  0  0  0  0  0
  193.5180  168.6260  144.4660 C   0  0  0  0  0  2  0  0  0  0  0  0
  194.0350  169.2330  143.1540 C   0  0  0  0  0  3  0  0  0  0  0  0
  197.1030  168.1700  146.1570 Cl  0  0  0  0  0  0  0  0  0  0  0  0
  194.6250  168.4560  145.5140 C   0  0  0  0  0  2  0  0  0  0  0  0
  195.9450  168.4570  144.8870 N   0  0  0  0  0  0  0  0  0  0  0  0
  196.2070  169.8040  144.3800 C   0  0  0  0  0  2  0  0  0  0  0  0
  195.1400  170.2730  143.3770 C   0  0  0  0  0  2  0  0  0  0  0  0
  2  6  1  0  0  0  0
  3 14  1  0  0  0  0
  4 12  1  0  0  0  0
  5 17  2  0  0  0  0
  5 18  1  0  0  0  0
  6 10  2  0  0  0  0
  6  3  1  0  0  0  0
  7  2  1  0  0  0  0
  7  4  1  0  0  0  0
  8  1  1  0  0  0  0
  8 19  1  0  0  0  0
  9  4  2  0  0  0  0
  9 11  1  0  0  0  0
 11  8  2  0  0  0  0
 12  3  1  0  0  0  0
 12  1  2  0  0  0  0
 14 15  2  0  0  0  0
 16 13  1  0  0  0  0
 16  2  2  0  0  0  0
 17 16  1  0  0  0  0
 18  7  2  0  0  0  0
 19 20  1  0  0  0  0
 21 20  2  0  0  0  0
 22 27  2  0  0  0  0
 24 20  1  6  0  0  0
 24 28  1  0  0  0  0
 25 24  1  0  0  0  0
 25 27  1  0  0  0  0
 27 29  1  0  0  0  0
 28 23  2  0  0  0  0
 28 26  1  0  0  0  0
 29 26  1  0  0  0  0
 30 33  1  6  0  0  0
 31 32  1  0  0  0  0
 31 30  1  0  0  0  0
 32 14  1  6  0  0  0
 32 30  1  0  0  0  0
 33 35  1  0  0  0  0
 35 36  1  0  0  0  0
 35 34  1  0  0  0  0
 37  9  1  0  0  0  0
 38 37  1  0  0  0  0
 39 38  1  0  0  0  0
 39 40  1  0  0  0  0
 40 42  1  0  0  0  0
 41 47  1  0  0  0  0
 41 50  1  0  0  0  0
 42 43  1  0  0  0  0
 43 46  1  0  0  0  0
 43 45  2  0  0  0  0
 44 46  2  0  0  0  0
 45 48  1  0  0  0  0
 46 41  1  0  0  0  0
 48 47  1  0  0  0  0
 49 52  1  0  0  0  0
 50 55  1  0  0  0  0
 50 49  1  0  0  0  0
 53 52  1  0  0  0  0
 53 51  1  0  0  0  0
 54 53  1  0  0  0  0
 55 54  1  0  0  0  0
M  END
>  <MODEL>
9

>  <REMARK>
 VINA RESULT:      -6.0      2.841      4.748
  Name = 
  11 active torsions:
  status: ('A' for Active; 'I' for Inactive)
    1  A    between atoms: C_3  and  C_23
    2  A    between atoms: C_3  and  C_37
    3  A    between atoms: N_4  and  C_21
    4  A    between atoms: C_6  and  C_25
    5  A    between atoms: C_7  and  N_17
    6  A    between atoms: C_10  and  O_35
    7  A    between atoms: C_10  and  C_52
    8  A    between atoms: N_20  and  C_36
    9  A    between atoms: C_22  and  O_35
   10  A    between atoms: C_36  and  C_52
   11  A    between atoms: C_39  and  C_51
                            x       y       z     vdW  Elec       q    Type
                         _______ _______ _______ _____ _____    ______ ____

>  <TORSDO>
F 11

$$$$
