=
 OpenBabel11042419563D

 41 49  0  0  1  0  0  0  0  0999 V2000
  191.1780  173.7350  139.8570 N   0  0  0  0  0  0  0  0  0  0  0  0
  194.6980  174.4500  144.7250 C   0  0  0  0  0  2  0  0  0  0  0  0
  192.9970  173.3770  142.9860 C   0  0  0  0  0  0  0  0  0  0  0  0
  191.9970  171.1730  143.4310 C   0  0  0  0  0  3  0  0  0  0  0  0
  192.2480  175.3300  142.0350 N   0  0  0  0  0  2  0  0  0  0  0  0
  190.9470  171.1520  142.6100 C   0  0  0  0  0  3  0  0  0  0  0  0
  189.8280  171.9410  139.1620 N   0  0  0  0  0  0  0  0  0  0  0  0
  193.3400  174.4230  145.1120 O   0  0  0  0  0  0  0  0  0  0  0  0
  190.8420  171.8770  141.3260 C   0  0  0  0  0  0  0  0  0  0  0  0
  193.6040  174.5160  143.7320 C   0  0  1  0  0  0  0  0  0  0  0  0
  190.0270  171.3100  140.3460 C   0  0  0  0  0  3  0  0  0  0  0  0
  191.4260  173.1400  141.0550 C   0  0  0  0  0  0  0  0  0  0  0  0
  190.4020  173.1440  138.9130 C   0  0  0  0  0  0  0  0  0  0  0  0
  193.2610  171.8990  143.1160 C   0  0  2  0  0  3  0  0  0  0  0  0
  192.2200  173.9020  142.0450 C   0  0  0  0  0  0  0  0  0  0  0  0
  190.1770  173.7940  137.6680 N   0  0  0  0  0  1  0  0  0  0  0  0
  193.1220  175.8220  143.0940 C   0  0  2  0  0  3  0  0  0  0  0  0
  190.4960  178.3200  143.7570 C   0  0  0  0  0  2  0  0  0  0  0  0
  191.0600  176.0960  144.5230 C   0  0  0  0  0  2  0  0  0  0  0  0
  188.3520  175.8380  145.3980 O   0  0  0  0  0  0  0  0  0  0  0  0
  192.3440  176.7520  144.0360 C   0  0  2  0  0  3  0  0  0  0  0  0
  191.9150  178.0260  143.3110 C   0  0  0  0  0  2  0  0  0  0  0  0
  190.0330  177.1090  144.3970 N   0  0  0  0  0  0  0  0  0  0  0  0
  188.6900  176.9260  144.8540 C   0  0  0  0  0  0  0  0  0  0  0  0
  187.7320  177.9740  144.6940 N   0  0  0  0  0  2  0  0  0  0  0  0
  185.0120  177.9680  147.0440 N   0  0  0  0  0  2  0  0  0  0  0  0
  186.3540  177.8350  145.1350 C   0  0  1  0  0  3  0  0  0  0  0  0
  186.2100  178.4340  146.4780 N   0  0  1  0  0  0  0  0  0  0  0  0
  183.8980  178.4250  146.3070 C   0  0  0  0  0  3  0  0  0  0  0  0
  184.2830  179.0890  145.2790 N   0  0  0  0  0  0  0  0  0  0  0  0
  185.7450  179.1650  145.2730 C   0  0  2  0  0  3  0  0  0  0  0  0
  194.3300  171.5440  144.1360 C   0  0  1  0  0  3  0  0  0  0  0  0
  194.7910  170.1490  143.9310 C   0  0  1  0  0  3  0  0  0  0  0  0
  195.5320  171.2540  143.4660 O   0  0  0  0  0  0  0  0  0  0  0  0
  196.5640  168.6700  147.5550 C   0  0  0  0  0  0  0  0  0  0  0  0
  194.6040  169.0510  146.1840 C   0  0  0  0  0  3  0  0  0  0  0  0
  197.3680  169.2430  146.5650 C   0  0  0  0  0  3  0  0  0  0  0  0
  195.4090  169.6110  145.1820 C   0  0  0  0  0  0  0  0  0  0  0  0
  197.1770  168.1670  148.8110 C   0  0  0  0  0  1  0  0  0  0  0  0
  196.7920  169.7160  145.3830 C   0  0  0  0  0  3  0  0  0  0  0  0
  195.1820  168.5780  147.3650 C   0  0  0  0  0  3  0  0  0  0  0  0
  1 12  1  0  0  0  0
  2  8  1  0  0  0  0
  3 14  1  0  0  0  0
  3 10  1  0  0  0  0
  5 15  1  0  0  0  0
  6  4  2  0  0  0  0
  7 11  2  0  0  0  0
  9  6  1  0  0  0  0
 10  2  1  6  0  0  0
 10  8  1  0  0  0  0
 11  9  1  0  0  0  0
 12  9  2  0  0  0  0
 12 15  1  0  0  0  0
 13  7  1  0  0  0  0
 13  1  2  0  0  0  0
 14  4  1  1  0  0  0
 14 32  1  0  0  0  0
 15  3  2  0  0  0  0
 16 13  1  0  0  0  0
 17  5  1  6  0  0  0
 17 10  1  0  0  0  0
 17 21  1  0  0  0  0
 18 23  1  0  0  0  0
 21 22  1  6  0  0  0
 21 19  1  0  0  0  0
 22 18  1  0  0  0  0
 23 19  1  0  0  0  0
 23 24  1  0  0  0  0
 24 20  2  0  0  0  0
 25 24  1  0  0  0  0
 27 25  1  6  0  0  0
 27 31  1  0  0  0  0
 27 28  1  0  0  0  0
 28 26  1  1  0  0  0
 29 26  1  0  0  0  0
 30 29  2  0  0  0  0
 31 30  1  1  0  0  0
 31 28  1  0  0  0  0
 32 34  1  6  0  0  0
 33 32  1  0  0  0  0
 33 38  1  1  0  0  0
 34 33  1  0  0  0  0
 35 39  1  0  0  0  0
 36 41  2  0  0  0  0
 37 35  2  0  0  0  0
 38 40  2  0  0  0  0
 38 36  1  0  0  0  0
 40 37  1  0  0  0  0
 41 35  1  0  0  0  0
M  END
>  <MODEL>
1

>  <REMARK>
 VINA RESULT:      -8.1      0.000      0.000
  Name = 
  4 active torsions:
  status: ('A' for Active; 'I' for Inactive)
    1  A    between atoms: C_10  and  N_33
    2  A    between atoms: C_14  and  C_31
    3  A    between atoms: C_16  and  C_41
    4  A    between atoms: C_27  and  C_29
                            x       y       z     vdW  Elec       q    Type
                         _______ _______ _______ _____ _____    ______ ____

>  <TORSDO>
F 4

$$$$
=
 OpenBabel11042419563D

 41 49  0  0  1  0  0  0  0  0999 V2000
  191.0470  173.4780  139.3620 N   0  0  0  0  0  0  0  0  0  0  0  0
  194.5770  173.5570  144.2740 C   0  0  0  0  0  2  0  0  0  0  0  0
  192.9660  172.6850  142.3490 C   0  0  0  0  0  0  0  0  0  0  0  0
  192.2260  170.3370  142.3210 C   0  0  0  0  0  3  0  0  0  0  0  0
  191.9840  174.6950  141.8260 N   0  0  0  0  0  2  0  0  0  0  0  0
  191.1660  170.3690  141.5130 C   0  0  0  0  0  3  0  0  0  0  0  0
  189.8880  171.7270  138.3060 N   0  0  0  0  0  0  0  0  0  0  0  0
  193.2400  173.2970  144.6460 O   0  0  0  0  0  0  0  0  0  0  0  0
  190.9520  171.3290  140.4100 C   0  0  0  0  0  0  0  0  0  0  0  0
  193.4600  173.7050  143.3170 C   0  0  1  0  0  0  0  0  0  0  0  0
  190.1820  170.8900  139.3320 C   0  0  0  0  0  3  0  0  0  0  0  0
  191.3870  172.6780  140.4100 C   0  0  0  0  0  0  0  0  0  0  0  0
  190.3200  173.0120  138.3150 C   0  0  0  0  0  0  0  0  0  0  0  0
  193.3950  171.2510  142.1660 C   0  0  2  0  0  3  0  0  0  0  0  0
  192.1140  173.3020  141.5370 C   0  0  0  0  0  0  0  0  0  0  0  0
  189.9950  173.8770  137.2340 N   0  0  0  0  0  1  0  0  0  0  0  0
  192.8220  175.0520  142.9660 C   0  0  2  0  0  3  0  0  0  0  0  0
  190.6670  177.7240  144.3050 C   0  0  0  0  0  2  0  0  0  0  0  0
  190.4940  175.3460  143.8920 C   0  0  0  0  0  2  0  0  0  0  0  0
  187.6540  175.6630  143.9560 O   0  0  0  0  0  0  0  0  0  0  0  0
  191.9690  175.6720  144.0820 C   0  0  2  0  0  3  0  0  0  0  0  0
  192.0670  177.1960  144.0590 C   0  0  0  0  0  2  0  0  0  0  0  0
  189.7880  176.5910  144.1150 N   0  0  0  0  0  0  0  0  0  0  0  0
  188.3610  176.6920  144.1360 C   0  0  0  0  0  0  0  0  0  0  0  0
  187.7390  177.9580  144.3630 N   0  0  0  0  0  2  0  0  0  0  0  0
  184.6180  179.7440  144.3450 N   0  0  0  0  0  2  0  0  0  0  0  0
  186.2940  178.1150  144.3880 C   0  0  1  0  0  3  0  0  0  0  0  0
  185.9450  179.4840  143.9600 N   0  0  1  0  0  0  0  0  0  0  0  0
  183.7220  178.8960  143.6600 C   0  0  0  0  0  3  0  0  0  0  0  0
  184.3650  178.0700  142.9180 N   0  0  0  0  0  0  0  0  0  0  0  0
  185.8000  178.3420  143.0230 C   0  0  2  0  0  3  0  0  0  0  0  0
  194.5200  170.8140  143.0900 C   0  0  1  0  0  3  0  0  0  0  0  0
  194.3550  169.3870  143.4580 C   0  0  1  0  0  3  0  0  0  0  0  0
  195.2650  169.7990  142.4650 O   0  0  0  0  0  0  0  0  0  0  0  0
  196.4740  168.5890  147.1110 C   0  0  0  0  0  0  0  0  0  0  0  0
  194.3900  168.9780  145.9380 C   0  0  0  0  0  3  0  0  0  0  0  0
  197.1740  168.7110  145.9070 C   0  0  0  0  0  3  0  0  0  0  0  0
  195.0880  169.0840  144.7260 C   0  0  0  0  0  0  0  0  0  0  0  0
  197.2080  168.3220  148.3740 C   0  0  0  0  0  1  0  0  0  0  0  0
  196.4840  168.9620  144.7180 C   0  0  0  0  0  3  0  0  0  0  0  0
  195.0820  168.7260  147.1260 C   0  0  0  0  0  3  0  0  0  0  0  0
  1 12  1  0  0  0  0
  2  8  1  0  0  0  0
  3 10  1  0  0  0  0
  6  4  2  0  0  0  0
  7 13  1  0  0  0  0
  7 11  2  0  0  0  0
  9  6  1  0  0  0  0
 10  2  1  6  0  0  0
 10  8  1  0  0  0  0
 11  9  1  0  0  0  0
 12  9  2  0  0  0  0
 12 15  1  0  0  0  0
 13  1  2  0  0  0  0
 14  4  1  1  0  0  0
 14  3  1  0  0  0  0
 14 32  1  0  0  0  0
 15  5  1  0  0  0  0
 15  3  2  0  0  0  0
 16 13  1  0  0  0  0
 17  5  1  6  0  0  0
 17 10  1  0  0  0  0
 17 21  1  0  0  0  0
 19 23  1  0  0  0  0
 20 24  2  0  0  0  0
 21 19  1  6  0  0  0
 22 21  1  0  0  0  0
 22 18  1  0  0  0  0
 23 24  1  0  0  0  0
 23 18  1  0  0  0  0
 24 25  1  0  0  0  0
 27 25  1  6  0  0  0
 28 26  1  1  0  0  0
 28 27  1  0  0  0  0
 29 26  1  0  0  0  0
 30 29  2  0  0  0  0
 31 30  1  1  0  0  0
 31 28  1  0  0  0  0
 31 27  1  0  0  0  0
 32 34  1  6  0  0  0
 32 33  1  0  0  0  0
 33 38  1  1  0  0  0
 34 33  1  0  0  0  0
 35 41  1  0  0  0  0
 35 39  1  0  0  0  0
 36 41  2  0  0  0  0
 37 35  2  0  0  0  0
 38 36  1  0  0  0  0
 40 38  2  0  0  0  0
 40 37  1  0  0  0  0
M  END
>  <MODEL>
2

>  <REMARK>
 VINA RESULT:      -7.2      1.214      1.322
  Name = 
  4 active torsions:
  status: ('A' for Active; 'I' for Inactive)
    1  A    between atoms: C_10  and  N_33
    2  A    between atoms: C_14  and  C_31
    3  A    between atoms: C_16  and  C_41
    4  A    between atoms: C_27  and  C_29
                            x       y       z     vdW  Elec       q    Type
                         _______ _______ _______ _____ _____    ______ ____

>  <TORSDO>
F 4

$$$$
=
 OpenBabel11042419563D

 41 49  0  0  1  0  0  0  0  0999 V2000
  191.8710  176.1700  145.2180 N   0  0  0  0  0  0  0  0  0  0  0  0
  187.4000  176.9200  141.2120 C   0  0  0  0  0  2  0  0  0  0  0  0
  188.7120  176.7770  143.5190 C   0  0  0  0  0  0  0  0  0  0  0  0
  187.5210  177.1240  145.6450 C   0  0  0  0  0  3  0  0  0  0  0  0
  190.4150  175.3990  142.8260 N   0  0  0  0  0  2  0  0  0  0  0  0
  188.3530  176.5940  146.5420 C   0  0  0  0  0  3  0  0  0  0  0  0
  191.9140  176.3770  147.5590 N   0  0  0  0  0  0  0  0  0  0  0  0
  187.1500  175.7790  142.0060 O   0  0  0  0  0  0  0  0  0  0  0  0
  189.8220  176.5060  146.4080 C   0  0  0  0  0  0  0  0  0  0  0  0
  188.4270  176.3600  142.1160 C   0  0  1  0  0  0  0  0  0  0  0  0
  190.5650  176.5140  147.5890 C   0  0  0  0  0  3  0  0  0  0  0  0
  190.5180  176.3210  145.1870 C   0  0  0  0  0  0  0  0  0  0  0  0
  192.5670  176.2110  146.3820 C   0  0  0  0  0  0  0  0  0  0  0  0
  187.9890  177.7750  144.3860 C   0  0  2  0  0  3  0  0  0  0  0  0
  189.8460  176.1830  143.8760 C   0  0  0  0  0  0  0  0  0  0  0  0
  193.9810  176.0610  146.3700 N   0  0  0  0  0  1  0  0  0  0  0  0
  189.5660  175.4530  141.6420 C   0  0  2  0  0  3  0  0  0  0  0  0
  188.9850  172.8410  139.1090 C   0  0  0  0  0  2  0  0  0  0  0  0
  190.3370  173.1130  141.0970 C   0  0  0  0  0  2  0  0  0  0  0  0
  191.9870  170.9930  140.1210 O   0  0  0  0  0  0  0  0  0  0  0  0
  189.1350  174.0380  141.2300 C   0  0  2  0  0  3  0  0  0  0  0  0
  188.4630  174.0520  139.8580 C   0  0  0  0  0  2  0  0  0  0  0  0
  190.1350  172.3880  139.8590 N   0  0  0  0  0  0  0  0  0  0  0  0
  190.9950  171.3330  139.4190 C   0  0  0  0  0  0  0  0  0  0  0  0
  190.7290  170.6640  138.1840 N   0  0  0  0  0  2  0  0  0  0  0  0
  191.9550  168.2690  135.7990 N   0  0  0  0  0  2  0  0  0  0  0  0
  191.5750  169.5910  137.6900 C   0  0  1  0  0  3  0  0  0  0  0  0
  191.4560  169.5140  136.2200 N   0  0  1  0  0  0  0  0  0  0  0  0
  193.3360  168.1660  136.0700 C   0  0  0  0  0  3  0  0  0  0  0  0
  193.7510  169.2110  136.6880 N   0  0  0  0  0  0  0  0  0  0  0  0
  192.6400  170.1520  136.8480 C   0  0  2  0  0  3  0  0  0  0  0  0
  186.8250  178.4710  143.7000 C   0  0  1  0  0  3  0  0  0  0  0  0
  185.5450  178.0710  144.3320 C   0  0  1  0  0  3  0  0  0  0  0  0
  186.1680  179.2990  144.6270 O   0  0  0  0  0  0  0  0  0  0  0  0
  182.2430  178.6360  141.6390 C   0  0  0  0  0  0  0  0  0  0  0  0
  183.2090  178.8650  143.8480 C   0  0  0  0  0  3  0  0  0  0  0  0
  183.4270  178.0490  141.1830 C   0  0  0  0  0  3  0  0  0  0  0  0
  184.4040  178.2920  143.3900 C   0  0  0  0  0  0  0  0  0  0  0  0
  181.1000  178.8230  140.7090 C   0  0  0  0  0  1  0  0  0  0  0  0
  184.5040  177.8730  142.0570 C   0  0  0  0  0  3  0  0  0  0  0  0
  182.1340  179.0410  142.9730 C   0  0  0  0  0  3  0  0  0  0  0  0
  1 13  2  0  0  0  0
  2  8  1  0  0  0  0
  3 15  2  0  0  0  0
  3 14  1  0  0  0  0
  4  6  2  0  0  0  0
  5 15  1  0  0  0  0
  7 11  2  0  0  0  0
  8 10  1  0  0  0  0
  9  6  1  0  0  0  0
  9 11  1  0  0  0  0
 10  2  1  6  0  0  0
 10  3  1  0  0  0  0
 12  1  1  0  0  0  0
 12  9  2  0  0  0  0
 13  7  1  0  0  0  0
 14  4  1  1  0  0  0
 15 12  1  0  0  0  0
 16 13  1  0  0  0  0
 17 10  1  0  0  0  0
 17  5  1  1  0  0  0
 18 22  1  0  0  0  0
 18 23  1  0  0  0  0
 19 21  1  0  0  0  0
 21 22  1  6  0  0  0
 21 17  1  0  0  0  0
 23 19  1  0  0  0  0
 24 23  1  0  0  0  0
 24 20  2  0  0  0  0
 25 24  1  0  0  0  0
 26 29  1  0  0  0  0
 27 25  1  6  0  0  0
 28 26  1  1  0  0  0
 28 31  1  0  0  0  0
 28 27  1  0  0  0  0
 29 30  2  0  0  0  0
 31 30  1  1  0  0  0
 31 27  1  0  0  0  0
 32 33  1  0  0  0  0
 32 14  1  0  0  0  0
 32 34  1  1  0  0  0
 33 38  1  6  0  0  0
 33 34  1  0  0  0  0
 35 41  1  0  0  0  0
 37 35  2  0  0  0  0
 37 40  1  0  0  0  0
 38 36  1  0  0  0  0
 39 35  1  0  0  0  0
 40 38  2  0  0  0  0
 41 36  2  0  0  0  0
M  END
>  <MODEL>
3

>  <REMARK>
 VINA RESULT:      -7.0      4.719     11.151
  Name = 
  4 active torsions:
  status: ('A' for Active; 'I' for Inactive)
    1  A    between atoms: C_10  and  N_33
    2  A    between atoms: C_14  and  C_31
    3  A    between atoms: C_16  and  C_41
    4  A    between atoms: C_27  and  C_29
                            x       y       z     vdW  Elec       q    Type
                         _______ _______ _______ _____ _____    ______ ____

>  <TORSDO>
F 4

$$$$
=
 OpenBabel11042419563D

 41 49  0  0  1  0  0  0  0  0999 V2000
  194.0370  175.0850  144.3050 N   0  0  0  0  0  0  0  0  0  0  0  0
  192.3870  171.1860  139.9840 C   0  0  0  0  0  2  0  0  0  0  0  0
  193.6950  173.1090  141.2700 C   0  0  0  0  0  0  0  0  0  0  0  0
  195.5310  174.3160  140.1600 C   0  0  0  0  0  3  0  0  0  0  0  0
  192.0260  173.6990  142.7350 N   0  0  0  0  0  2  0  0  0  0  0  0
  195.6570  175.4150  140.9040 C   0  0  0  0  0  3  0  0  0  0  0  0
  195.7700  176.6690  144.3930 N   0  0  0  0  0  0  0  0  0  0  0  0
  192.1290  172.5090  139.5630 O   0  0  0  0  0  0  0  0  0  0  0  0
  195.3290  175.5240  142.3400 C   0  0  0  0  0  0  0  0  0  0  0  0
  192.4750  172.3300  140.9160 C   0  0  1  0  0  0  0  0  0  0  0  0
  196.0490  176.4620  143.0820 C   0  0  0  0  0  3  0  0  0  0  0  0
  194.2840  174.8230  142.9930 C   0  0  0  0  0  0  0  0  0  0  0  0
  194.7750  175.9830  145.0060 C   0  0  0  0  0  0  0  0  0  0  0  0
  195.0930  173.0030  140.7160 C   0  0  2  0  0  3  0  0  0  0  0  0
  193.3740  173.8840  142.3000 C   0  0  0  0  0  0  0  0  0  0  0  0
  194.4910  176.2180  146.3800 N   0  0  0  0  0  1  0  0  0  0  0  0
  191.3610  172.7060  141.8970 C   0  0  2  0  0  3  0  0  0  0  0  0
  187.8360  173.7730  142.0140 C   0  0  0  0  0  2  0  0  0  0  0  0
  189.9830  174.7940  141.5650 C   0  0  0  0  0  2  0  0  0  0  0  0
  188.7660  177.3190  142.1220 O   0  0  0  0  0  0  0  0  0  0  0  0
  190.1070  173.3100  141.2490 C   0  0  2  0  0  3  0  0  0  0  0  0
  188.8410  172.6570  141.8030 C   0  0  0  0  0  2  0  0  0  0  0  0
  188.5980  175.0000  141.9350 N   0  0  0  0  0  0  0  0  0  0  0  0
  188.0410  176.2900  142.2030 C   0  0  0  0  0  0  0  0  0  0  0  0
  186.6630  176.4110  142.5620 N   0  0  0  0  0  2  0  0  0  0  0  0
  184.0660  178.6580  143.6250 N   0  0  0  0  0  2  0  0  0  0  0  0
  186.0510  177.6970  142.8500 C   0  0  1  0  0  3  0  0  0  0  0  0
  184.8440  177.4880  143.6750 N   0  0  1  0  0  0  0  0  0  0  0  0
  184.7480  179.7390  144.2240 C   0  0  0  0  0  3  0  0  0  0  0  0
  185.9220  179.3790  144.5930 N   0  0  0  0  0  0  0  0  0  0  0  0
  186.1080  177.9580  144.2950 C   0  0  2  0  0  3  0  0  0  0  0  0
  195.2680  171.9130  139.6710 C   0  0  1  0  0  3  0  0  0  0  0  0
  196.6870  171.4860  139.6090 C   0  0  1  0  0  3  0  0  0  0  0  0
  195.7140  170.7370  140.2980 O   0  0  0  0  0  0  0  0  0  0  0  0
  197.6130  169.6310  135.8450 C   0  0  0  0  0  0  0  0  0  0  0  0
  196.6810  169.4940  138.0760 C   0  0  0  0  0  3  0  0  0  0  0  0
  197.9320  170.9750  136.0610 C   0  0  0  0  0  3  0  0  0  0  0  0
  196.9850  170.8450  138.2910 C   0  0  0  0  0  0  0  0  0  0  0  0
  197.9410  168.9890  134.5460 C   0  0  0  0  0  1  0  0  0  0  0  0
  197.6230  171.5800  137.2830 C   0  0  0  0  0  3  0  0  0  0  0  0
  196.9900  168.8900  136.8540 C   0  0  0  0  0  3  0  0  0  0  0  0
  1 13  2  0  0  0  0
  3 15  2  0  0  0  0
  4  6  2  0  0  0  0
  6  9  1  0  0  0  0
  7 13  1  0  0  0  0
  8  2  1  0  0  0  0
  8 10  1  0  0  0  0
  9 12  2  0  0  0  0
  9 11  1  0  0  0  0
 10  2  1  1  0  0  0
 10  3  1  0  0  0  0
 10 17  1  0  0  0  0
 11  7  2  0  0  0  0
 12  1  1  0  0  0  0
 13 16  1  0  0  0  0
 14  4  1  6  0  0  0
 14  3  1  0  0  0  0
 15  5  1  0  0  0  0
 15 12  1  0  0  0  0
 17  5  1  1  0  0  0
 19 23  1  0  0  0  0
 20 24  2  0  0  0  0
 21 19  1  1  0  0  0
 21 22  1  0  0  0  0
 21 17  1  0  0  0  0
 22 18  1  0  0  0  0
 23 18  1  0  0  0  0
 23 24  1  0  0  0  0
 24 25  1  0  0  0  0
 26 29  1  0  0  0  0
 27 25  1  1  0  0  0
 27 28  1  0  0  0  0
 27 31  1  0  0  0  0
 28 26  1  6  0  0  0
 28 31  1  0  0  0  0
 29 30  2  0  0  0  0
 31 30  1  6  0  0  0
 32 34  1  1  0  0  0
 32 14  1  0  0  0  0
 33 38  1  6  0  0  0
 33 32  1  0  0  0  0
 33 34  1  0  0  0  0
 35 37  2  0  0  0  0
 35 41  1  0  0  0  0
 36 38  1  0  0  0  0
 37 40  1  0  0  0  0
 39 35  1  0  0  0  0
 40 38  2  0  0  0  0
 41 36  2  0  0  0  0
M  END
>  <MODEL>
4

>  <REMARK>
 VINA RESULT:      -6.9      4.155      6.258
  Name = 
  4 active torsions:
  status: ('A' for Active; 'I' for Inactive)
    1  A    between atoms: C_10  and  N_33
    2  A    between atoms: C_14  and  C_31
    3  A    between atoms: C_16  and  C_41
    4  A    between atoms: C_27  and  C_29
                            x       y       z     vdW  Elec       q    Type
                         _______ _______ _______ _____ _____    ______ ____

>  <TORSDO>
F 4

$$$$
=
 OpenBabel11042419563D

 41 49  0  0  1  0  0  0  0  0999 V2000
  194.5200  169.7700  145.9460 N   0  0  0  0  0  0  0  0  0  0  0  0
  194.0390  173.1260  140.9360 C   0  0  0  0  0  2  0  0  0  0  0  0
  195.0950  171.8050  142.9860 C   0  0  0  0  0  0  0  0  0  0  0  0
  197.5310  171.8010  143.3350 C   0  0  0  0  0  3  0  0  0  0  0  0
  193.2630  171.8620  144.3730 N   0  0  0  0  0  2  0  0  0  0  0  0
  197.6490  171.4210  144.6070 C   0  0  0  0  0  3  0  0  0  0  0  0
  196.3990  169.0140  147.1380 N   0  0  0  0  0  0  0  0  0  0  0  0
  194.5410  173.9120  141.9960 O   0  0  0  0  0  0  0  0  0  0  0  0
  196.6950  170.5630  145.3420 C   0  0  0  0  0  0  0  0  0  0  0  0
  194.0460  172.6370  142.3310 C   0  0  1  0  0  0  0  0  0  0  0  0
  197.2150  169.7830  146.3750 C   0  0  0  0  0  3  0  0  0  0  0  0
  195.2920  170.5470  145.1380 C   0  0  0  0  0  0  0  0  0  0  0  0
  195.0600  169.0000  146.9250 C   0  0  0  0  0  0  0  0  0  0  0  0
  196.4240  171.3410  142.4480 C   0  0  2  0  0  3  0  0  0  0  0  0
  194.6000  171.4070  144.1540 C   0  0  0  0  0  0  0  0  0  0  0  0
  194.2190  168.1930  147.7400 N   0  0  0  0  0  1  0  0  0  0  0  0
  192.8160  172.6680  143.2420 C   0  0  2  0  0  3  0  0  0  0  0  0
  190.4260  175.4680  143.4050 C   0  0  0  0  0  2  0  0  0  0  0  0
  191.5340  173.9900  144.9670 C   0  0  0  0  0  2  0  0  0  0  0  0
  189.5040  174.6650  146.8630 O   0  0  0  0  0  0  0  0  0  0  0  0
  192.3990  174.0680  143.7180 C   0  0  2  0  0  3  0  0  0  0  0  0
  191.5470  174.7700  142.6620 C   0  0  0  0  0  2  0  0  0  0  0  0
  190.4320  174.9000  144.7350 N   0  0  0  0  0  0  0  0  0  0  0  0
  189.4420  175.2030  145.7230 C   0  0  0  0  0  0  0  0  0  0  0  0
  188.3830  176.1130  145.4170 N   0  0  0  0  0  2  0  0  0  0  0  0
  186.4920  178.2420  147.6120 N   0  0  0  0  0  2  0  0  0  0  0  0
  187.3500  176.4480  146.3830 C   0  0  1  0  0  3  0  0  0  0  0  0
  187.1920  177.9150  146.4370 N   0  0  1  0  0  0  0  0  0  0  0  0
  185.1800  177.7230  147.5750 C   0  0  0  0  0  3  0  0  0  0  0  0
  185.0000  177.0350  146.5070 N   0  0  0  0  0  0  0  0  0  0  0  0
  186.2170  177.0790  145.6930 C   0  0  2  0  0  3  0  0  0  0  0  0
  196.6990  171.7670  141.0150 C   0  0  1  0  0  3  0  0  0  0  0  0
  197.9180  172.6090  140.9550 C   0  0  1  0  0  3  0  0  0  0  0  0
  197.9390  171.2440  140.6060 O   0  0  0  0  0  0  0  0  0  0  0  0
  197.8320  175.0230  137.4010 C   0  0  0  0  0  0  0  0  0  0  0  0
  197.8830  174.8490  139.8160 C   0  0  0  0  0  3  0  0  0  0  0  0
  197.8470  173.6290  137.3010 C   0  0  0  0  0  3  0  0  0  0  0  0
  197.9140  173.4510  139.7190 C   0  0  0  0  0  0  0  0  0  0  0  0
  197.7940  175.8560  136.1720 C   0  0  0  0  0  1  0  0  0  0  0  0
  197.8830  172.8440  138.4570 C   0  0  0  0  0  3  0  0  0  0  0  0
  197.8470  175.6320  138.6590 C   0  0  0  0  0  3  0  0  0  0  0  0
  1 13  2  0  0  0  0
  2  8  1  0  0  0  0
  3 15  2  0  0  0  0
  4  6  2  0  0  0  0
  6  9  1  0  0  0  0
  8 10  1  0  0  0  0
  9 11  1  0  0  0  0
 10  2  1  6  0  0  0
 10  3  1  0  0  0  0
 10 17  1  0  0  0  0
 11  7  2  0  0  0  0
 12  9  2  0  0  0  0
 12  1  1  0  0  0  0
 13  7  1  0  0  0  0
 13 16  1  0  0  0  0
 14  3  1  0  0  0  0
 14  4  1  1  0  0  0
 15  5  1  0  0  0  0
 15 12  1  0  0  0  0
 17 21  1  0  0  0  0
 17  5  1  1  0  0  0
 18 23  1  0  0  0  0
 21 22  1  6  0  0  0
 21 19  1  0  0  0  0
 22 18  1  0  0  0  0
 23 19  1  0  0  0  0
 23 24  1  0  0  0  0
 24 20  2  0  0  0  0
 25 24  1  0  0  0  0
 27 25  1  6  0  0  0
 27 28  1  0  0  0  0
 28 26  1  1  0  0  0
 29 26  1  0  0  0  0
 30 29  2  0  0  0  0
 31 27  1  0  0  0  0
 31 28  1  0  0  0  0
 31 30  1  1  0  0  0
 32 34  1  6  0  0  0
 32 14  1  0  0  0  0
 33 38  1  6  0  0  0
 33 32  1  0  0  0  0
 34 33  1  0  0  0  0
 35 41  1  0  0  0  0
 37 35  2  0  0  0  0
 37 40  1  0  0  0  0
 38 36  1  0  0  0  0
 39 35  1  0  0  0  0
 40 38  2  0  0  0  0
 41 36  2  0  0  0  0
M  END
>  <MODEL>
5

>  <REMARK>
 VINA RESULT:      -6.7      4.158      6.464
  Name = 
  4 active torsions:
  status: ('A' for Active; 'I' for Inactive)
    1  A    between atoms: C_10  and  N_33
    2  A    between atoms: C_14  and  C_31
    3  A    between atoms: C_16  and  C_41
    4  A    between atoms: C_27  and  C_29
                            x       y       z     vdW  Elec       q    Type
                         _______ _______ _______ _____ _____    ______ ____

>  <TORSDO>
F 4

$$$$
=
 OpenBabel11042419563D

 41 49  0  0  1  0  0  0  0  0999 V2000
  190.9670  176.4500  146.4430 N   0  0  0  0  0  0  0  0  0  0  0  0
  188.1610  174.2850  141.5410 C   0  0  0  0  0  2  0  0  0  0  0  0
  190.0820  175.1290  143.1710 C   0  0  0  0  0  0  0  0  0  0  0  0
  192.4170  175.2110  142.3970 C   0  0  0  0  0  3  0  0  0  0  0  0
  188.7820  176.4500  144.5300 N   0  0  0  0  0  2  0  0  0  0  0  0
  192.9940  176.0280  143.2780 C   0  0  0  0  0  3  0  0  0  0  0  0
  193.2400  176.8420  146.8890 N   0  0  0  0  0  0  0  0  0  0  0  0
  188.7050  175.5580  141.2620 O   0  0  0  0  0  0  0  0  0  0  0  0
  192.5680  176.2230  144.6800 C   0  0  0  0  0  0  0  0  0  0  0  0
  188.7010  175.1510  142.6100 C   0  0  1  0  0  0  0  0  0  0  0  0
  193.5560  176.5850  145.5960 C   0  0  0  0  0  3  0  0  0  0  0  0
  191.2280  176.1640  145.1380 C   0  0  0  0  0  0  0  0  0  0  0  0
  191.9550  176.7710  147.3160 C   0  0  0  0  0  0  0  0  0  0  0  0
  191.2760  174.3150  142.7450 C   0  0  2  0  0  3  0  0  0  0  0  0
  190.0720  175.9020  144.2520 C   0  0  0  0  0  0  0  0  0  0  0  0
  191.6420  177.0510  148.6740 N   0  0  0  0  0  1  0  0  0  0  0  0
  187.8250  176.0180  143.5180 C   0  0  2  0  0  3  0  0  0  0  0  0
  185.4360  177.5410  141.1610 C   0  0  0  0  0  2  0  0  0  0  0  0
  185.9050  177.6550  143.5320 C   0  0  0  0  0  2  0  0  0  0  0  0
  183.2620  178.6840  143.8840 O   0  0  0  0  0  0  0  0  0  0  0  0
  187.1890  177.2350  142.8310 C   0  0  2  0  0  3  0  0  0  0  0  0
  186.7920  176.9040  141.3940 C   0  0  0  0  0  2  0  0  0  0  0  0
  184.9430  177.8890  142.4750 N   0  0  0  0  0  0  0  0  0  0  0  0
  183.6300  178.4070  142.7090 C   0  0  0  0  0  0  0  0  0  0  0  0
  182.7370  178.6120  141.6120 N   0  0  0  0  0  2  0  0  0  0  0  0
  179.5370  179.9040  140.6040 N   0  0  0  0  0  2  0  0  0  0  0  0
  181.3920  179.1290  141.7980 C   0  0  1  0  0  3  0  0  0  0  0  0
  180.6660  179.0720  140.5130 N   0  0  1  0  0  0  0  0  0  0  0  0
  178.6310  179.4160  141.5700 C   0  0  0  0  0  3  0  0  0  0  0  0
  179.1120  178.3790  142.1520 N   0  0  0  0  0  0  0  0  0  0  0  0
  180.4150  178.0560  141.5660 C   0  0  2  0  0  3  0  0  0  0  0  0
  191.0000  173.3580  141.5960 C   0  0  1  0  0  3  0  0  0  0  0  0
  191.8890  172.1750  141.6900 C   0  0  1  0  0  3  0  0  0  0  0  0
  190.5460  172.1320  142.1130 O   0  0  0  0  0  0  0  0  0  0  0  0
  192.2210  170.3120  137.8320 C   0  0  0  0  0  0  0  0  0  0  0  0
  192.8990  172.0360  139.3930 C   0  0  0  0  0  3  0  0  0  0  0  0
  191.3370  169.7970  138.7850 C   0  0  0  0  0  3  0  0  0  0  0  0
  192.0250  171.5130  140.3560 C   0  0  0  0  0  0  0  0  0  0  0  0
  192.3290  169.6720  136.4960 C   0  0  0  0  0  1  0  0  0  0  0  0
  191.2350  170.3980  140.0420 C   0  0  0  0  0  3  0  0  0  0  0  0
  192.9990  171.4330  138.1360 C   0  0  0  0  0  3  0  0  0  0  0  0
  1 13  2  0  0  0  0
  3 15  2  0  0  0  0
  4  6  2  0  0  0  0
  6  9  1  0  0  0  0
  7 13  1  0  0  0  0
  8  2  1  0  0  0  0
  8 10  1  0  0  0  0
  9 12  2  0  0  0  0
  9 11  1  0  0  0  0
 10  2  1  1  0  0  0
 10  3  1  0  0  0  0
 10 17  1  0  0  0  0
 11  7  2  0  0  0  0
 12  1  1  0  0  0  0
 13 16  1  0  0  0  0
 14  4  1  6  0  0  0
 14  3  1  0  0  0  0
 15  5  1  0  0  0  0
 15 12  1  0  0  0  0
 17  5  1  1  0  0  0
 18 22  1  0  0  0  0
 18 23  1  0  0  0  0
 21 22  1  6  0  0  0
 21 17  1  0  0  0  0
 21 19  1  0  0  0  0
 23 24  1  0  0  0  0
 23 19  1  0  0  0  0
 24 20  2  0  0  0  0
 25 24  1  0  0  0  0
 26 29  1  0  0  0  0
 27 25  1  6  0  0  0
 28 26  1  1  0  0  0
 28 31  1  0  0  0  0
 28 27  1  0  0  0  0
 29 30  2  0  0  0  0
 31 27  1  0  0  0  0
 31 30  1  1  0  0  0
 32 33  1  0  0  0  0
 32 34  1  1  0  0  0
 32 14  1  0  0  0  0
 33 38  1  6  0  0  0
 33 34  1  0  0  0  0
 35 41  2  0  0  0  0
 35 37  1  0  0  0  0
 36 38  2  0  0  0  0
 37 40  2  0  0  0  0
 39 35  1  0  0  0  0
 40 38  1  0  0  0  0
 41 36  1  0  0  0  0
M  END
>  <MODEL>
6

>  <REMARK>
 VINA RESULT:      -6.3      4.348      7.012
  Name = 
  4 active torsions:
  status: ('A' for Active; 'I' for Inactive)
    1  A    between atoms: C_10  and  N_33
    2  A    between atoms: C_14  and  C_31
    3  A    between atoms: C_16  and  C_41
    4  A    between atoms: C_27  and  C_29
                            x       y       z     vdW  Elec       q    Type
                         _______ _______ _______ _____ _____    ______ ____

>  <TORSDO>
F 4

$$$$
=
 OpenBabel11042419563D

 41 49  0  0  1  0  0  0  0  0999 V2000
  187.0370  176.0960  142.0240 N   0  0  0  0  0  0  0  0  0  0  0  0
  190.7000  171.3470  141.2290 C   0  0  0  0  0  2  0  0  0  0  0  0
  189.8270  173.7640  141.9070 C   0  0  0  0  0  0  0  0  0  0  0  0
  191.3730  175.4120  142.8830 C   0  0  0  0  0  3  0  0  0  0  0  0
  188.0530  173.8770  140.4500 N   0  0  0  0  0  2  0  0  0  0  0  0
  190.7270  176.5650  142.7110 C   0  0  0  0  0  3  0  0  0  0  0  0
  187.4110  178.2060  142.9890 N   0  0  0  0  0  0  0  0  0  0  0  0
  191.1110  172.4160  140.4030 O   0  0  0  0  0  0  0  0  0  0  0  0
  189.2590  176.7280  142.6460 C   0  0  0  0  0  0  0  0  0  0  0  0
  189.8630  172.5510  141.0410 C   0  0  1  0  0  0  0  0  0  0  0  0
  188.7410  177.9510  143.0720 C   0  0  0  0  0  3  0  0  0  0  0  0
  188.3590  175.7800  142.0990 C   0  0  0  0  0  0  0  0  0  0  0  0
  186.5600  177.2850  142.4730 C   0  0  0  0  0  0  0  0  0  0  0  0
  190.6750  174.1120  143.1030 C   0  0  2  0  0  3  0  0  0  0  0  0
  188.7870  174.4910  141.5110 C   0  0  0  0  0  0  0  0  0  0  0  0
  185.1700  177.5720  142.3870 N   0  0  0  0  0  1  0  0  0  0  0  0
  188.6750  172.6110  140.0770 C   0  0  2  0  0  3  0  0  0  0  0  0
  189.1290  174.3330  136.8510 C   0  0  0  0  0  2  0  0  0  0  0  0
  190.4960  173.0580  138.3880 C   0  0  0  0  0  2  0  0  0  0  0  0
  192.7830  174.2610  137.1660 O   0  0  0  0  0  0  0  0  0  0  0  0
  189.0510  172.6210  138.5880 C   0  0  2  0  0  3  0  0  0  0  0  0
  188.1990  173.6280  137.8180 C   0  0  0  0  0  2  0  0  0  0  0  0
  190.4670  174.0100  137.2970 N   0  0  0  0  0  0  0  0  0  0  0  0
  191.6460  174.5820  136.7230 C   0  0  0  0  0  0  0  0  0  0  0  0
  191.5350  175.5160  135.6470 N   0  0  0  0  0  2  0  0  0  0  0  0
  193.6290  178.2130  134.5210 N   0  0  0  0  0  2  0  0  0  0  0  0
  192.7010  176.1290  135.0330 C   0  0  1  0  0  3  0  0  0  0  0  0
  192.7490  177.5590  135.4010 N   0  0  1  0  0  0  0  0  0  0  0  0
  194.9470  177.7370  134.6850 C   0  0  0  0  0  3  0  0  0  0  0  0
  194.9780  176.7880  135.5480 N   0  0  0  0  0  0  0  0  0  0  0  0
  193.6300  176.5760  136.0800 C   0  0  2  0  0  3  0  0  0  0  0  0
  191.6830  173.0410  143.4860 C   0  0  1  0  0  3  0  0  0  0  0  0
  192.1100  173.2190  144.8940 C   0  0  1  0  0  3  0  0  0  0  0  0
  191.1520  172.2560  144.5240 O   0  0  0  0  0  0  0  0  0  0  0  0
  195.9210  171.3260  145.4950 C   0  0  0  0  0  0  0  0  0  0  0  0
  194.5710  173.3340  145.3950 C   0  0  0  0  0  3  0  0  0  0  0  0
  194.7910  170.5520  145.2130 C   0  0  0  0  0  3  0  0  0  0  0  0
  193.4320  172.5610  145.1290 C   0  0  0  0  0  0  0  0  0  0  0  0
  197.2390  170.6710  145.6940 C   0  0  0  0  0  1  0  0  0  0  0  0
  193.5500  171.1680  145.0260 C   0  0  0  0  0  3  0  0  0  0  0  0
  195.8110  172.7170  145.5830 C   0  0  0  0  0  3  0  0  0  0  0  0
  1 12  1  0  0  0  0
  1 13  2  0  0  0  0
  3 14  1  0  0  0  0
  5 15  1  0  0  0  0
  6  4  2  0  0  0  0
  7 11  2  0  0  0  0
  8 10  1  0  0  0  0
  8  2  1  0  0  0  0
  9  6  1  0  0  0  0
  9 11  1  0  0  0  0
 10  2  1  1  0  0  0
 10  3  1  0  0  0  0
 12  9  2  0  0  0  0
 13  7  1  0  0  0  0
 14  4  1  6  0  0  0
 14 32  1  0  0  0  0
 15  3  2  0  0  0  0
 15 12  1  0  0  0  0
 16 13  1  0  0  0  0
 17  5  1  1  0  0  0
 17 10  1  0  0  0  0
 18 23  1  0  0  0  0
 18 22  1  0  0  0  0
 19 21  1  0  0  0  0
 21 22  1  6  0  0  0
 21 17  1  0  0  0  0
 23 19  1  0  0  0  0
 24 20  2  0  0  0  0
 24 23  1  0  0  0  0
 25 24  1  0  0  0  0
 26 29  1  0  0  0  0
 27 28  1  0  0  0  0
 27 25  1  1  0  0  0
 27 31  1  0  0  0  0
 28 26  1  6  0  0  0
 28 31  1  0  0  0  0
 29 30  2  0  0  0  0
 31 30  1  6  0  0  0
 32 34  1  1  0  0  0
 32 33  1  0  0  0  0
 33 38  1  6  0  0  0
 34 33  1  0  0  0  0
 35 41  1  0  0  0  0
 35 39  1  0  0  0  0
 36 41  2  0  0  0  0
 37 35  2  0  0  0  0
 38 36  1  0  0  0  0
 40 38  2  0  0  0  0
 40 37  1  0  0  0  0
M  END
>  <MODEL>
7

>  <REMARK>
 VINA RESULT:      -6.0      3.366      7.677
  Name = 
  4 active torsions:
  status: ('A' for Active; 'I' for Inactive)
    1  A    between atoms: C_10  and  N_33
    2  A    between atoms: C_14  and  C_31
    3  A    between atoms: C_16  and  C_41
    4  A    between atoms: C_27  and  C_29
                            x       y       z     vdW  Elec       q    Type
                         _______ _______ _______ _____ _____    ______ ____

>  <TORSDO>
F 4

$$$$
=
 OpenBabel11042419563D

 41 49  0  0  1  0  0  0  0  0999 V2000
  192.5200  174.6090  145.7180 N   0  0  0  0  0  0  0  0  0  0  0  0
  192.8640  172.3670  140.1090 C   0  0  0  0  0  2  0  0  0  0  0  0
  193.3390  173.8660  142.2520 C   0  0  0  0  0  0  0  0  0  0  0  0
  194.9990  175.6810  142.1520 C   0  0  0  0  0  3  0  0  0  0  0  0
  191.3050  173.5910  143.2840 N   0  0  0  0  0  2  0  0  0  0  0  0
  194.6820  176.4320  143.2060 C   0  0  0  0  0  3  0  0  0  0  0  0
  193.7350  176.3100  146.7910 N   0  0  0  0  0  0  0  0  0  0  0  0
  192.3720  173.6910  140.0700 O   0  0  0  0  0  0  0  0  0  0  0  0
  194.0420  175.9480  144.4470 C   0  0  0  0  0  0  0  0  0  0  0  0
  192.4590  173.0840  141.3380 C   0  0  1  0  0  0  0  0  0  0  0  0
  194.3270  176.6500  145.6190 C   0  0  0  0  0  3  0  0  0  0  0  0
  193.0960  174.8950  144.5180 C   0  0  0  0  0  0  0  0  0  0  0  0
  192.8400  175.2920  146.8450 C   0  0  0  0  0  0  0  0  0  0  0  0
  194.8020  174.2020  142.1180 C   0  0  2  0  0  3  0  0  0  0  0  0
  192.6210  174.1420  143.3360 C   0  0  0  0  0  0  0  0  0  0  0  0
  192.2240  174.9540  148.0810 N   0  0  0  0  0  1  0  0  0  0  0  0
  191.1050  172.8830  142.0240 C   0  0  2  0  0  3  0  0  0  0  0  0
  187.5620  173.8730  141.8200 C   0  0  0  0  0  2  0  0  0  0  0  0
  189.7190  174.9460  141.5890 C   0  0  0  0  0  2  0  0  0  0  0  0
  188.3980  177.4360  142.0580 O   0  0  0  0  0  0  0  0  0  0  0  0
  189.9040  173.4690  141.2680 C   0  0  2  0  0  3  0  0  0  0  0  0
  188.6070  172.7820  141.6920 C   0  0  0  0  0  2  0  0  0  0  0  0
  188.3010  175.1170  141.8280 N   0  0  0  0  0  0  0  0  0  0  0  0
  187.6910  176.3910  142.0580 C   0  0  0  0  0  0  0  0  0  0  0  0
  186.2830  176.4780  142.2860 N   0  0  0  0  0  2  0  0  0  0  0  0
  183.7170  178.6630  143.5360 N   0  0  0  0  0  2  0  0  0  0  0  0
  185.6180  177.7460  142.5310 C   0  0  1  0  0  3  0  0  0  0  0  0
  184.5920  177.5650  143.5780 N   0  0  1  0  0  0  0  0  0  0  0  0
  184.3930  179.8560  143.8740 C   0  0  0  0  0  3  0  0  0  0  0  0
  185.6400  179.6250  144.0650 N   0  0  0  0  0  0  0  0  0  0  0  0
  185.8970  178.1930  143.9020 C   0  0  2  0  0  3  0  0  0  0  0  0
  195.4640  173.6200  140.8790 C   0  0  1  0  0  3  0  0  0  0  0  0
  196.6090  174.4670  140.4650 C   0  0  1  0  0  3  0  0  0  0  0  0
  196.7910  173.2710  141.1850 O   0  0  0  0  0  0  0  0  0  0  0  0
  197.5930  173.8680  136.3250 C   0  0  0  0  0  0  0  0  0  0  0  0
  197.4870  173.0330  138.5960 C   0  0  0  0  0  3  0  0  0  0  0  0
  197.0520  175.0860  136.7470 C   0  0  0  0  0  3  0  0  0  0  0  0
  196.9290  174.2470  139.0210 C   0  0  0  0  0  0  0  0  0  0  0  0
  197.9410  173.6650  134.8950 C   0  0  0  0  0  1  0  0  0  0  0  0
  196.7240  175.2770  138.0920 C   0  0  0  0  0  3  0  0  0  0  0  0
  197.8140  172.8440  137.2510 C   0  0  0  0  0  3  0  0  0  0  0  0
  1 13  2  0  0  0  0
  3 15  2  0  0  0  0
  4  6  2  0  0  0  0
  5 15  1  0  0  0  0
  6  9  1  0  0  0  0
  7 13  1  0  0  0  0
  8  2  1  0  0  0  0
  8 10  1  0  0  0  0
  9 12  2  0  0  0  0
  9 11  1  0  0  0  0
 10  2  1  6  0  0  0
 10 17  1  0  0  0  0
 10  3  1  0  0  0  0
 11  7  2  0  0  0  0
 12  1  1  0  0  0  0
 13 16  1  0  0  0  0
 14  4  1  6  0  0  0
 14  3  1  0  0  0  0
 15 12  1  0  0  0  0
 17  5  1  1  0  0  0
 18 23  1  0  0  0  0
 19 23  1  0  0  0  0
 21 19  1  1  0  0  0
 21 22  1  0  0  0  0
 21 17  1  0  0  0  0
 22 18  1  0  0  0  0
 23 24  1  0  0  0  0
 24 20  2  0  0  0  0
 24 25  1  0  0  0  0
 26 29  1  0  0  0  0
 27 25  1  1  0  0  0
 27 28  1  0  0  0  0
 27 31  1  0  0  0  0
 28 26  1  6  0  0  0
 28 31  1  0  0  0  0
 29 30  2  0  0  0  0
 31 30  1  6  0  0  0
 32 34  1  1  0  0  0
 32 14  1  0  0  0  0
 33 38  1  6  0  0  0
 33 32  1  0  0  0  0
 33 34  1  0  0  0  0
 35 37  2  0  0  0  0
 35 41  1  0  0  0  0
 36 38  1  0  0  0  0
 37 40  1  0  0  0  0
 39 35  1  0  0  0  0
 40 38  2  0  0  0  0
 41 36  2  0  0  0  0
M  END
>  <MODEL>
8

>  <REMARK>
 VINA RESULT:      -5.9      3.886      6.523
  Name = 
  4 active torsions:
  status: ('A' for Active; 'I' for Inactive)
    1  A    between atoms: C_10  and  N_33
    2  A    between atoms: C_14  and  C_31
    3  A    between atoms: C_16  and  C_41
    4  A    between atoms: C_27  and  C_29
                            x       y       z     vdW  Elec       q    Type
                         _______ _______ _______ _____ _____    ______ ____

>  <TORSDO>
F 4

$$$$
=
 OpenBabel11042419563D

 41 49  0  0  1  0  0  0  0  0999 V2000
  190.9490  171.6340  140.5250 N   0  0  0  0  0  0  0  0  0  0  0  0
  192.2060  175.6230  144.8950 C   0  0  0  0  0  2  0  0  0  0  0  0
  191.0010  174.4330  142.8470 C   0  0  0  0  0  0  0  0  0  0  0  0
  189.0250  175.4650  141.8030 C   0  0  0  0  0  3  0  0  0  0  0  0
  192.8070  173.2470  142.0670 N   0  0  0  0  0  2  0  0  0  0  0  0
  188.9540  174.8460  140.6240 C   0  0  0  0  0  3  0  0  0  0  0  0
  189.1970  171.5390  138.9610 N   0  0  0  0  0  0  0  0  0  0  0  0
  192.3830  176.2240  143.6290 O   0  0  0  0  0  0  0  0  0  0  0  0
  189.4360  173.4780  140.3390 C   0  0  0  0  0  0  0  0  0  0  0  0
  192.1940  174.8290  143.6490 C   0  0  1  0  0  0  0  0  0  0  0  0
  188.7800  172.7760  139.3270 C   0  0  0  0  0  3  0  0  0  0  0  0
  190.5640  172.8700  140.9450 C   0  0  0  0  0  0  0  0  0  0  0  0
  190.2710  170.9650  139.5580 C   0  0  0  0  0  0  0  0  0  0  0  0
  189.5540  174.8100  143.0350 C   0  0  2  0  0  3  0  0  0  0  0  0
  191.4150  173.5450  141.9500 C   0  0  0  0  0  0  0  0  0  0  0  0
  190.6990  169.6700  139.1560 N   0  0  0  0  0  1  0  0  0  0  0  0
  193.4000  174.0310  143.1450 C   0  0  2  0  0  3  0  0  0  0  0  0
  196.6770  174.3930  141.5010 C   0  0  0  0  0  2  0  0  0  0  0  0
  194.4090  175.1420  141.1170 C   0  0  0  0  0  2  0  0  0  0  0  0
  195.1430  175.5870  138.3910 O   0  0  0  0  0  0  0  0  0  0  0  0
  194.5590  174.8830  142.6090 C   0  0  2  0  0  3  0  0  0  0  0  0
  195.8920  174.1540  142.7750 C   0  0  0  0  0  2  0  0  0  0  0  0
  195.7190  174.9050  140.5460 N   0  0  0  0  0  0  0  0  0  0  0  0
  196.0310  175.1450  139.1710 C   0  0  0  0  0  0  0  0  0  0  0  0
  197.3490  174.8870  138.6830 N   0  0  0  0  0  2  0  0  0  0  0  0
  197.9400  173.9970  135.2500 N   0  0  0  0  0  2  0  0  0  0  0  0
  197.7150  175.1090  137.2940 C   0  0  1  0  0  3  0  0  0  0  0  0
  197.2640  173.9610  136.4820 N   0  0  1  0  0  0  0  0  0  0  0  0
  197.5770  175.1450  134.5130 C   0  0  0  0  0  3  0  0  0  0  0  0
  196.7780  175.8810  135.1940 N   0  0  0  0  0  0  0  0  0  0  0  0
  196.5000  175.2330  136.4780 C   0  0  2  0  0  3  0  0  0  0  0  0
  189.2910  175.6930  144.2430 C   0  0  1  0  0  3  0  0  0  0  0  0
  187.9650  175.3790  144.8290 C   0  0  1  0  0  3  0  0  0  0  0  0
  189.1600  174.8860  145.3870 O   0  0  0  0  0  0  0  0  0  0  0  0
  186.4680  178.6480  147.1830 C   0  0  0  0  0  0  0  0  0  0  0  0
  188.0580  176.8480  146.8660 C   0  0  0  0  0  3  0  0  0  0  0  0
  185.8600  178.3250  145.9660 C   0  0  0  0  0  3  0  0  0  0  0  0
  187.4620  176.5320  145.6370 C   0  0  0  0  0  0  0  0  0  0  0  0
  185.9440  179.7720  148.0000 C   0  0  0  0  0  1  0  0  0  0  0  0
  186.3530  177.2670  145.1970 C   0  0  0  0  0  3  0  0  0  0  0  0
  187.5640  177.9070  147.6340 C   0  0  0  0  0  3  0  0  0  0  0  0
  1 12  1  0  0  0  0
  3 14  1  0  0  0  0
  3 10  1  0  0  0  0
  6  4  2  0  0  0  0
  7 11  2  0  0  0  0
  7 13  1  0  0  0  0
  8 10  1  0  0  0  0
  8  2  1  0  0  0  0
  9  6  1  0  0  0  0
  9 12  2  0  0  0  0
 10  2  1  1  0  0  0
 11  9  1  0  0  0  0
 12 15  1  0  0  0  0
 13  1  2  0  0  0  0
 14  4  1  6  0  0  0
 14 32  1  0  0  0  0
 15  5  1  0  0  0  0
 15  3  2  0  0  0  0
 16 13  1  0  0  0  0
 17  5  1  6  0  0  0
 17 10  1  0  0  0  0
 18 22  1  0  0  0  0
 20 24  2  0  0  0  0
 21 19  1  6  0  0  0
 21 22  1  0  0  0  0
 21 17  1  0  0  0  0
 23 19  1  0  0  0  0
 23 18  1  0  0  0  0
 24 23  1  0  0  0  0
 25 24  1  0  0  0  0
 27 25  1  1  0  0  0
 28 26  1  6  0  0  0
 28 27  1  0  0  0  0
 29 30  2  0  0  0  0
 29 26  1  0  0  0  0
 31 30  1  6  0  0  0
 31 28  1  0  0  0  0
 31 27  1  0  0  0  0
 32 33  1  0  0  0  0
 32 34  1  1  0  0  0
 33 34  1  0  0  0  0
 33 38  1  1  0  0  0
 35 41  1  0  0  0  0
 35 39  1  0  0  0  0
 36 41  2  0  0  0  0
 37 35  2  0  0  0  0
 38 36  1  0  0  0  0
 40 38  2  0  0  0  0
 40 37  1  0  0  0  0
M  END
>  <MODEL>
9

>  <REMARK>
 VINA RESULT:      -5.8      4.563      9.369
  Name = 
  4 active torsions:
  status: ('A' for Active; 'I' for Inactive)
    1  A    between atoms: C_10  and  N_33
    2  A    between atoms: C_14  and  C_31
    3  A    between atoms: C_16  and  C_41
    4  A    between atoms: C_27  and  C_29
                            x       y       z     vdW  Elec       q    Type
                         _______ _______ _______ _____ _____    ______ ____

>  <TORSDO>
F 4

$$$$
