=
 OpenBabel11042416423D

 55 62  0  0  1  0  0  0  0  0999 V2000
  191.5670  172.2890  138.6370 C   0  0  2  0  0  3  0  0  0  0  0  0
  190.7080  171.5050  137.6560 C   0  0  0  0  0  2  0  0  0  0  0  0
  189.6500  172.4000  137.0370 C   0  0  0  0  0  2  0  0  0  0  0  0
  189.8970  173.8430  137.4290 C   0  0  1  0  0  3  0  0  0  0  0  0
  187.8250  175.1120  136.6270 O   0  0  0  0  0  0  0  0  0  0  0  0
  190.4190  174.5260  136.3650 O   0  0  0  0  0  0  0  0  0  0  0  0
  188.9850  174.6440  136.7790 C   0  0  0  0  0  0  0  0  0  0  0  0
  193.0310  172.1030  138.2910 C   0  0  0  0  0  2  0  0  0  0  0  0
  193.4670  173.6900  136.6070 O   0  0  0  0  0  0  0  0  0  0  0  0
  193.6060  173.3810  137.7810 C   0  0  0  0  0  0  0  0  0  0  0  0
  194.4690  173.9230  140.8090 C   0  0  2  0  0  3  0  0  0  0  0  0
  195.6800  173.3750  139.5700 S   0  0  0  0  0  0  0  0  0  0  0  0
  193.5370  174.5780  139.8990 N   0  0  0  0  0  2  0  0  0  0  0  0
  194.3480  174.2760  138.7290 C   0  0  2  0  0  3  0  0  0  0  0  0
  195.1190  174.9510  141.7340 C   0  0  0  0  0  2  0  0  0  0  0  0
  192.7040  176.1850  146.0200 C   0  0  0  0  0  0  0  0  0  0  0  0
  193.8160  175.4600  143.8600 C   0  0  0  0  0  0  0  0  0  0  0  0
  195.1470  175.7080  145.9730 C   0  0  0  0  0  2  0  0  0  0  0  0
  192.8480  176.6540  147.1850 O   0  0  0  0  0  0  0  0  0  0  0  0
  196.2350  174.7220  143.9870 C   0  0  0  0  0  2  0  0  0  0  0  0
  192.8280  175.8160  143.1610 O   0  0  0  0  0  0  0  0  0  0  0  0
  193.8610  175.7520  145.2760 N   0  0  0  0  0  0  0  0  0  0  0  0
  195.9990  174.5510  145.4770 C   0  0  0  0  0  2  0  0  0  0  0  0
  194.9150  174.6420  143.2220 C   0  0  2  0  0  3  0  0  0  0  0  0
  190.5440  177.3600  145.5380 C   0  0  2  0  0  3  0  0  0  0  0  0
  191.3180  176.0310  145.4710 C   0  0  2  0  0  3  0  0  0  0  0  0
  189.2000  174.6530  145.5710 C   0  0  0  0  0  2  0  0  0  0  0  0
  188.5720  175.9000  144.9340 C   0  0  0  0  0  2  0  0  0  0  0  0
  190.5780  174.9050  146.1920 C   0  0  0  0  0  2  0  0  0  0  0  0
  189.0250  177.1750  145.6390 C   0  0  0  0  0  2  0  0  0  0  0  0
  190.8520  178.1380  144.4200 O   0  0  0  0  0  1  0  0  0  0  0  0
  191.3360  171.8280  139.9990 N   0  0  0  0  0  2  0  0  0  0  0  0
  189.4900  171.8250  141.4800 C   0  0  0  0  0  3  0  0  0  0  0  0
  188.5970  172.3830  142.5380 C   0  0  0  0  0  2  0  0  0  0  0  0
  188.3890  174.6920  141.6010 C   0  0  0  0  0  0  0  0  0  0  0  0
  189.8630  174.8730  141.5520 C   0  0  0  0  0  3  0  0  0  0  0  0
  190.4820  172.5150  140.9200 C   0  0  0  0  0  0  0  0  0  0  0  0
  187.8260  173.5560  142.0300 C   0  0  0  0  0  3  0  0  0  0  0  0
  190.7690  173.9320  141.2630 C   0  0  0  0  0  3  0  0  0  0  0  0
  187.3640  176.1510  139.8370 C   0  0  0  0  0  3  0  0  0  0  0  0
  186.5200  177.2000  139.4680 C   0  0  0  0  0  3  0  0  0  0  0  0
  185.8520  177.9030  140.4190 N   0  0  0  0  0  0  0  0  0  0  0  0
  186.8130  176.5670  142.1480 C   0  0  0  0  0  3  0  0  0  0  0  0
  185.9820  177.6140  141.7480 C   0  0  0  0  0  0  0  0  0  0  0  0
  187.5180  175.8200  141.1910 C   0  0  0  0  0  0  0  0  0  0  0  0
  186.2030  178.9350  143.8240 C   0  0  2  0  0  3  0  0  0  0  0  0
  185.2550  178.3930  142.8060 C   0  0  2  0  0  3  0  0  0  0  0  0
  185.3080  177.7000  144.1670 C   0  0  2  0  0  0  0  0  0  0  0  0
  184.0270  178.0550  144.6820 O   0  0  0  0  0  0  0  0  0  0  0  0
  185.6730  180.3330  144.1460 C   0  0  0  0  0  1  0  0  0  0  0  0
  184.9360  177.6630  145.6460 C   0  0  2  0  0  3  0  0  0  0  0  0
  185.2950  178.8400  146.5490 C   0  0  0  0  0  2  0  0  0  0  0  0
  186.1410  178.3720  147.6800 C   0  0  0  0  0  0  0  0  0  0  0  0
  186.7870  179.2050  148.3670 O   0  0  0  0  0  1  0  0  0  0  0  0
  186.1850  177.0210  148.0020 O   0  0  0  0  0  0  0  0  0  0  0  0
  1  2  1  6  0  0  0
  1 32  1  0  0  0  0
  3  2  1  0  0  0  0
  4  3  1  6  0  0  0
  5  7  2  0  0  0  0
  6  7  1  0  0  0  0
  6  4  1  0  0  0  0
  7  4  1  0  0  0  0
  8  1  1  0  0  0  0
  9 10  2  0  0  0  0
 10  8  1  0  0  0  0
 11 15  1  1  0  0  0
 12 11  1  0  0  0  0
 13 11  1  0  0  0  0
 14 10  1  6  0  0  0
 14 12  1  0  0  0  0
 14 13  1  0  0  0  0
 16 19  2  0  0  0  0
 17 22  1  0  0  0  0
 20 23  1  0  0  0  0
 21 17  2  0  0  0  0
 22 18  1  0  0  0  0
 22 16  1  0  0  0  0
 23 18  1  0  0  0  0
 24 15  1  6  0  0  0
 24 17  1  0  0  0  0
 24 20  1  0  0  0  0
 25 31  1  6  0  0  0
 25 30  1  0  0  0  0
 26 25  1  0  0  0  0
 26 16  1  1  0  0  0
 26 29  1  0  0  0  0
 27 29  1  0  0  0  0
 28 27  1  0  0  0  0
 28 30  1  0  0  0  0
 32 37  1  0  0  0  0
 33 34  1  0  0  0  0
 35 38  2  0  0  0  0
 36 35  1  0  0  0  0
 37 39  1  0  0  0  0
 37 33  2  0  0  0  0
 38 34  1  0  0  0  0
 39 36  2  0  0  0  0
 40 45  1  0  0  0  0
 41 40  2  0  0  0  0
 41 42  1  0  0  0  0
 42 44  2  0  0  0  0
 44 43  1  0  0  0  0
 45 35  1  0  0  0  0
 45 43  2  0  0  0  0
 46 50  1  1  0  0  0
 46 48  1  0  0  0  0
 47 44  1  6  0  0  0
 47 46  1  0  0  0  0
 47 48  1  0  0  0  0
 48 49  1  1  0  0  0
 48 51  1  0  0  0  0
 49 51  1  0  0  0  0
 51 52  1  1  0  0  0
 52 53  1  0  0  0  0
 53 55  2  0  0  0  0
 53 54  1  0  0  0  0
M  END
>  <MODEL>
1

>  <REMARK>
 VINA RESULT:      -7.4      0.000      0.000
  Name = 
  15 active torsions:
  status: ('A' for Active; 'I' for Inactive)
    1  A    between atoms: C_2  and  C_27
    2  A    between atoms: C_2  and  C_55
    3  A    between atoms: C_6  and  C_20
    4  A    between atoms: C_10  and  C_14
    5  A    between atoms: C_12  and  C_55
    6  A    between atoms: C_13  and  C_15
    7  A    between atoms: C_14  and  C_54
    8  A    between atoms: C_20  and  C_53
    9  A    between atoms: C_23  and  C_27
   10  A    between atoms: C_23  and  C_34
   11  A    between atoms: C_27  and  N_50
   12  A    between atoms: C_30  and  C_45
   13  A    between atoms: C_33  and  C_46
   14  A    between atoms: C_34  and  C_49
   15  A    between atoms: C_37  and  N_50
                            x       y       z     vdW  Elec       q    Type
                         _______ _______ _______ _____ _____    ______ ____

>  <TORSDO>
F 15

$$$$
=
 OpenBabel11042416423D

 55 62  0  0  1  0  0  0  0  0999 V2000
  184.0950  178.9570  143.9540 C   0  0  2  0  0  3  0  0  0  0  0  0
  182.7780  178.9410  143.1930 C   0  0  0  0  0  2  0  0  0  0  0  0
  182.9470  178.2590  141.8470 C   0  0  0  0  0  2  0  0  0  0  0  0
  181.8930  178.7550  140.8780 C   0  0  1  0  0  3  0  0  0  0  0  0
  179.6600  178.0290  141.8960 O   0  0  0  0  0  0  0  0  0  0  0  0
  181.5440  177.7460  140.0210 O   0  0  0  0  0  0  0  0  0  0  0  0
  180.6900  178.1570  141.1820 C   0  0  0  0  0  0  0  0  0  0  0  0
  184.9490  177.7850  143.5160 C   0  0  0  0  0  2  0  0  0  0  0  0
  186.4300  179.3470  142.5610 O   0  0  0  0  0  0  0  0  0  0  0  0
  186.3010  178.2590  143.1020 C   0  0  0  0  0  0  0  0  0  0  0  0
  188.1650  175.9010  142.0200 C   0  0  2  0  0  3  0  0  0  0  0  0
  188.7640  177.6160  142.0910 S   0  0  0  0  0  0  0  0  0  0  0  0
  187.1820  175.9900  143.0910 N   0  0  0  0  0  2  0  0  0  0  0  0
  187.4920  177.3850  143.3640 C   0  0  2  0  0  3  0  0  0  0  0  0
  189.2960  174.9520  142.4130 C   0  0  0  0  0  2  0  0  0  0  0  0
  192.0720  171.2400  140.3550 C   0  0  0  0  0  0  0  0  0  0  0  0
  190.6570  173.0080  141.4960 C   0  0  0  0  0  0  0  0  0  0  0  0
  190.1810  172.3040  139.1340 C   0  0  0  0  0  2  0  0  0  0  0  0
  192.4340  170.7060  139.2670 O   0  0  0  0  0  0  0  0  0  0  0  0
  188.5910  173.8120  140.2740 C   0  0  0  0  0  2  0  0  0  0  0  0
  191.4970  173.1660  142.4240 O   0  0  0  0  0  0  0  0  0  0  0  0
  190.9620  172.1600  140.3630 N   0  0  0  0  0  0  0  0  0  0  0  0
  188.7130  172.5460  139.4440 C   0  0  0  0  0  2  0  0  0  0  0  0
  189.2900  173.6400  141.6210 C   0  0  2  0  0  3  0  0  0  0  0  0
  194.2840  170.6850  141.3910 C   0  0  2  0  0  3  0  0  0  0  0  0
  192.7710  170.8440  141.6200 C   0  0  2  0  0  3  0  0  0  0  0  0
  192.7710  169.2160  143.5560 C   0  0  0  0  0  2  0  0  0  0  0  0
  194.2280  169.6720  143.7060 C   0  0  0  0  0  2  0  0  0  0  0  0
  192.1480  169.5750  142.2020 C   0  0  0  0  0  2  0  0  0  0  0  0
  194.9460  169.6970  142.3600 C   0  0  0  0  0  2  0  0  0  0  0  0
  194.9060  171.9320  141.4910 O   0  0  0  0  0  1  0  0  0  0  0  0
  183.8560  178.8650  145.3880 N   0  0  0  0  0  2  0  0  0  0  0  0
  185.5820  179.4080  146.9140 C   0  0  0  0  0  3  0  0  0  0  0  0
  186.5820  179.1320  147.9860 C   0  0  0  0  0  2  0  0  0  0  0  0
  187.5100  177.0170  147.0260 C   0  0  0  0  0  0  0  0  0  0  0  0
  186.1650  176.3930  146.9390 C   0  0  0  0  0  3  0  0  0  0  0  0
  184.8610  178.4570  146.3210 C   0  0  0  0  0  0  0  0  0  0  0  0
  187.6870  178.2640  147.4830 C   0  0  0  0  0  3  0  0  0  0  0  0
  185.0180  177.0140  146.6390 C   0  0  0  0  0  3  0  0  0  0  0  0
  188.7660  174.8500  146.9120 C   0  0  0  0  0  3  0  0  0  0  0  0
  189.8780  174.1110  146.5040 C   0  0  0  0  0  3  0  0  0  0  0  0
  190.8910  174.7180  145.8340 N   0  0  0  0  0  0  0  0  0  0  0  0
  189.7590  176.8170  145.9310 C   0  0  0  0  0  3  0  0  0  0  0  0
  190.8590  176.0520  145.5430 C   0  0  0  0  0  0  0  0  0  0  0  0
  188.6950  176.2210  146.6250 C   0  0  0  0  0  0  0  0  0  0  0  0
  192.7720  175.7560  144.0070 C   0  0  2  0  0  3  0  0  0  0  0  0
  191.9810  176.7340  144.8110 C   0  0  2  0  0  3  0  0  0  0  0  0
  193.3500  176.3190  145.3460 C   0  0  2  0  0  0  0  0  0  0  0  0
  194.0660  177.5420  145.1840 O   0  0  0  0  0  0  0  0  0  0  0  0
  193.0950  176.4910  142.7050 C   0  0  0  0  0  1  0  0  0  0  0  0
  194.8710  176.4270  145.3060 C   0  0  2  0  0  3  0  0  0  0  0  0
  195.6170  176.1620  144.0010 C   0  0  0  0  0  2  0  0  0  0  0  0
  196.5840  175.0460  144.1850 C   0  0  0  0  0  0  0  0  0  0  0  0
  197.2960  174.6680  143.2190 O   0  0  0  0  0  0  0  0  0  0  0  0
  196.7260  174.4490  145.4320 O   0  0  0  0  0  1  0  0  0  0  0  0
  1  2  1  6  0  0  0
  1 32  1  0  0  0  0
  3  2  1  0  0  0  0
  4  7  1  0  0  0  0
  4  3  1  1  0  0  0
  6  4  1  0  0  0  0
  6  7  1  0  0  0  0
  7  5  2  0  0  0  0
  8  1  1  0  0  0  0
  9 10  2  0  0  0  0
 10  8  1  0  0  0  0
 11 12  1  0  0  0  0
 11 15  1  1  0  0  0
 11 13  1  0  0  0  0
 12 14  1  0  0  0  0
 13 14  1  0  0  0  0
 14 10  1  6  0  0  0
 16 22  1  0  0  0  0
 17 24  1  0  0  0  0
 17 21  2  0  0  0  0
 18 23  1  0  0  0  0
 18 22  1  0  0  0  0
 19 16  2  0  0  0  0
 20 24  1  0  0  0  0
 22 17  1  0  0  0  0
 23 20  1  0  0  0  0
 24 15  1  6  0  0  0
 25 31  1  1  0  0  0
 25 26  1  0  0  0  0
 25 30  1  0  0  0  0
 26 16  1  6  0  0  0
 26 29  1  0  0  0  0
 27 28  1  0  0  0  0
 29 27  1  0  0  0  0
 30 28  1  0  0  0  0
 32 37  1  0  0  0  0
 33 34  1  0  0  0  0
 35 38  2  0  0  0  0
 36 35  1  0  0  0  0
 37 39  1  0  0  0  0
 37 33  2  0  0  0  0
 38 34  1  0  0  0  0
 39 36  2  0  0  0  0
 41 40  2  0  0  0  0
 42 41  1  0  0  0  0
 43 45  2  0  0  0  0
 44 42  2  0  0  0  0
 44 43  1  0  0  0  0
 45 40  1  0  0  0  0
 45 35  1  0  0  0  0
 46 50  1  6  0  0  0
 46 47  1  0  0  0  0
 46 48  1  0  0  0  0
 47 48  1  0  0  0  0
 47 44  1  1  0  0  0
 48 49  1  6  0  0  0
 49 51  1  0  0  0  0
 51 52  1  6  0  0  0
 51 48  1  0  0  0  0
 52 53  1  0  0  0  0
 53 55  1  0  0  0  0
 54 53  2  0  0  0  0
M  END
>  <MODEL>
2

>  <REMARK>
 VINA RESULT:      -7.3      3.009      8.804
  Name = 
  15 active torsions:
  status: ('A' for Active; 'I' for Inactive)
    1  A    between atoms: C_2  and  C_27
    2  A    between atoms: C_2  and  C_55
    3  A    between atoms: C_6  and  C_20
    4  A    between atoms: C_10  and  C_14
    5  A    between atoms: C_12  and  C_55
    6  A    between atoms: C_13  and  C_15
    7  A    between atoms: C_14  and  C_54
    8  A    between atoms: C_20  and  C_53
    9  A    between atoms: C_23  and  C_27
   10  A    between atoms: C_23  and  C_34
   11  A    between atoms: C_27  and  N_50
   12  A    between atoms: C_30  and  C_45
   13  A    between atoms: C_33  and  C_46
   14  A    between atoms: C_34  and  C_49
   15  A    between atoms: C_37  and  N_50
                            x       y       z     vdW  Elec       q    Type
                         _______ _______ _______ _____ _____    ______ ____

>  <TORSDO>
F 15

$$$$
=
 OpenBabel11042416423D

 55 62  0  0  1  0  0  0  0  0999 V2000
  196.9080  174.1400  144.7730 C   0  0  2  0  0  3  0  0  0  0  0  0
  197.7640  173.6400  143.6200 C   0  0  0  0  0  2  0  0  0  0  0  0
  196.9570  173.5910  142.3360 C   0  0  0  0  0  2  0  0  0  0  0  0
  197.5720  174.5110  141.3000 C   0  0  1  0  0  3  0  0  0  0  0  0
  196.5510  176.8110  141.7650 O   0  0  0  0  0  0  0  0  0  0  0  0
  196.7280  174.6300  140.2300 O   0  0  0  0  0  0  0  0  0  0  0  0
  196.8650  175.6920  141.2770 C   0  0  0  0  0  0  0  0  0  0  0  0
  196.8650  173.0920  145.8670 C   0  0  0  0  0  2  0  0  0  0  0  0
  197.9400  171.2660  144.8380 O   0  0  0  0  0  0  0  0  0  0  0  0
  196.8930  171.7250  145.2710 C   0  0  0  0  0  0  0  0  0  0  0  0
  193.9640  171.4610  144.0230 C   0  0  2  0  0  3  0  0  0  0  0  0
  195.2990  170.3300  143.5340 S   0  0  0  0  0  0  0  0  0  0  0  0
  194.4610  171.7930  145.3520 N   0  0  0  0  0  2  0  0  0  0  0  0
  195.6230  170.9280  145.2160 C   0  0  2  0  0  3  0  0  0  0  0  0
  192.6520  170.6850  144.1240 C   0  0  0  0  0  2  0  0  0  0  0  0
  190.7750  172.8580  139.9440 C   0  0  0  0  0  0  0  0  0  0  0  0
  191.6350  171.6530  142.0020 C   0  0  0  0  0  0  0  0  0  0  0  0
  190.5700  173.9180  142.1870 C   0  0  0  0  0  2  0  0  0  0  0  0
  190.4130  173.9530  139.4260 O   0  0  0  0  0  0  0  0  0  0  0  0
  191.1170  172.6850  144.2560 C   0  0  0  0  0  2  0  0  0  0  0  0
  192.2970  170.8270  141.3160 O   0  0  0  0  0  0  0  0  0  0  0  0
  190.9720  172.7730  141.3690 N   0  0  0  0  0  0  0  0  0  0  0  0
  190.0320  173.4660  143.5350 C   0  0  0  0  0  2  0  0  0  0  0  0
  191.4640  171.4130  143.4850 C   0  0  2  0  0  3  0  0  0  0  0  0
  191.7600  171.9900  137.8100 C   0  0  2  0  0  3  0  0  0  0  0  0
  190.9260  171.6570  139.0590 C   0  0  2  0  0  3  0  0  0  0  0  0
  189.6870  169.7910  137.8850 C   0  0  0  0  0  2  0  0  0  0  0  0
  190.9650  169.7190  137.0380 C   0  0  0  0  0  2  0  0  0  0  0  0
  189.5560  171.0870  138.6940 C   0  0  0  0  0  2  0  0  0  0  0  0
  191.4250  171.1070  136.6010 C   0  0  0  0  0  2  0  0  0  0  0  0
  193.1190  171.8820  138.1110 O   0  0  0  0  0  1  0  0  0  0  0  0
  195.5500  174.4130  144.3190 N   0  0  0  0  0  2  0  0  0  0  0  0
  194.8820  175.7180  146.1770 C   0  0  0  0  0  3  0  0  0  0  0  0
  194.1790  176.8400  146.8650 C   0  0  0  0  0  2  0  0  0  0  0  0
  191.9840  176.6170  145.6880 C   0  0  0  0  0  0  0  0  0  0  0  0
  192.6220  176.7090  144.3490 C   0  0  0  0  0  3  0  0  0  0  0  0
  194.7340  175.4440  144.8810 C   0  0  0  0  0  0  0  0  0  0  0  0
  192.6990  176.6580  146.8200 C   0  0  0  0  0  3  0  0  0  0  0  0
  193.8120  176.2070  144.0000 C   0  0  0  0  0  3  0  0  0  0  0  0
  189.9030  175.6050  146.6550 C   0  0  0  0  0  3  0  0  0  0  0  0
  188.5110  175.5360  146.7360 C   0  0  0  0  0  3  0  0  0  0  0  0
  187.7430  176.3400  145.9570 N   0  0  0  0  0  0  0  0  0  0  0  0
  189.6840  177.3260  144.9790 C   0  0  0  0  0  3  0  0  0  0  0  0
  188.2960  177.2280  145.0790 C   0  0  0  0  0  0  0  0  0  0  0  0
  190.5080  176.5100  145.7700 C   0  0  0  0  0  0  0  0  0  0  0  0
  186.0460  178.1800  144.7060 C   0  0  2  0  0  3  0  0  0  0  0  0
  187.4520  178.1140  144.2070 C   0  0  2  0  0  3  0  0  0  0  0  0
  186.3900  177.3240  143.4440 C   0  0  2  0  0  0  0  0  0  0  0  0
  186.3490  178.0660  142.2260 O   0  0  0  0  0  0  0  0  0  0  0  0
  185.6310  179.6390  144.5060 C   0  0  0  0  0  1  0  0  0  0  0  0
  185.2320  177.2850  142.4520 C   0  0  2  0  0  3  0  0  0  0  0  0
  184.0050  178.1630  142.6830 C   0  0  0  0  0  2  0  0  0  0  0  0
  183.1710  178.2040  141.4510 C   0  0  0  0  0  0  0  0  0  0  0  0
  181.9440  177.9330  141.5150 O   0  0  0  0  0  1  0  0  0  0  0  0
  183.7390  178.5810  140.2400 O   0  0  0  0  0  0  0  0  0  0  0  0
  1  2  1  6  0  0  0
  1  8  1  0  0  0  0
  3  2  1  0  0  0  0
  4  3  1  1  0  0  0
  6  7  1  0  0  0  0
  6  4  1  0  0  0  0
  7  4  1  0  0  0  0
  7  5  2  0  0  0  0
  9 10  2  0  0  0  0
 10  8  1  0  0  0  0
 11 15  1  1  0  0  0
 11 13  1  0  0  0  0
 12 11  1  0  0  0  0
 12 14  1  0  0  0  0
 14 10  1  6  0  0  0
 14 13  1  0  0  0  0
 16 22  1  0  0  0  0
 17 24  1  0  0  0  0
 18 23  1  0  0  0  0
 19 16  2  0  0  0  0
 21 17  2  0  0  0  0
 22 17  1  0  0  0  0
 22 18  1  0  0  0  0
 23 20  1  0  0  0  0
 24 15  1  1  0  0  0
 24 20  1  0  0  0  0
 25 31  1  1  0  0  0
 25 26  1  0  0  0  0
 26 16  1  6  0  0  0
 27 29  1  0  0  0  0
 28 27  1  0  0  0  0
 29 26  1  0  0  0  0
 30 28  1  0  0  0  0
 30 25  1  0  0  0  0
 32  1  1  0  0  0  0
 32 37  1  0  0  0  0
 33 34  1  0  0  0  0
 35 45  1  0  0  0  0
 35 38  2  0  0  0  0
 36 35  1  0  0  0  0
 37 33  2  0  0  0  0
 38 34  1  0  0  0  0
 39 36  2  0  0  0  0
 39 37  1  0  0  0  0
 40 41  1  0  0  0  0
 42 41  2  0  0  0  0
 43 44  2  0  0  0  0
 43 45  1  0  0  0  0
 44 42  1  0  0  0  0
 45 40  2  0  0  0  0
 46 50  1  6  0  0  0
 47 46  1  0  0  0  0
 47 44  1  1  0  0  0
 48 49  1  6  0  0  0
 48 47  1  0  0  0  0
 48 46  1  0  0  0  0
 49 51  1  0  0  0  0
 51 52  1  1  0  0  0
 51 48  1  0  0  0  0
 53 54  1  0  0  0  0
 53 52  1  0  0  0  0
 55 53  2  0  0  0  0
M  END
>  <MODEL>
3

>  <REMARK>
 VINA RESULT:      -7.1      2.837      7.040
  Name = 
  15 active torsions:
  status: ('A' for Active; 'I' for Inactive)
    1  A    between atoms: C_2  and  C_27
    2  A    between atoms: C_2  and  C_55
    3  A    between atoms: C_6  and  C_20
    4  A    between atoms: C_10  and  C_14
    5  A    between atoms: C_12  and  C_55
    6  A    between atoms: C_13  and  C_15
    7  A    between atoms: C_14  and  C_54
    8  A    between atoms: C_20  and  C_53
    9  A    between atoms: C_23  and  C_27
   10  A    between atoms: C_23  and  C_34
   11  A    between atoms: C_27  and  N_50
   12  A    between atoms: C_30  and  C_45
   13  A    between atoms: C_33  and  C_46
   14  A    between atoms: C_34  and  C_49
   15  A    between atoms: C_37  and  N_50
                            x       y       z     vdW  Elec       q    Type
                         _______ _______ _______ _____ _____    ______ ____

>  <TORSDO>
F 15

$$$$
=
 OpenBabel11042416423D

 55 62  0  0  1  0  0  0  0  0999 V2000
  184.5400  178.2990  142.6440 C   0  0  2  0  0  3  0  0  0  0  0  0
  183.4310  177.9230  141.6730 C   0  0  0  0  0  2  0  0  0  0  0  0
  182.1640  178.6990  141.9820 C   0  0  0  0  0  2  0  0  0  0  0  0
  181.0800  178.3440  140.9830 C   0  0  1  0  0  3  0  0  0  0  0  0
  179.8380  180.5380  140.5420 O   0  0  0  0  0  0  0  0  0  0  0  0
  179.9060  178.1030  141.6430 O   0  0  0  0  0  0  0  0  0  0  0  0
  180.1790  179.3830  140.9140 C   0  0  0  0  0  0  0  0  0  0  0  0
  185.4920  177.1300  142.8040 C   0  0  0  0  0  2  0  0  0  0  0  0
  187.1660  178.7210  142.3420 O   0  0  0  0  0  0  0  0  0  0  0  0
  186.9040  177.6100  142.7790 C   0  0  0  0  0  0  0  0  0  0  0  0
  189.0950  175.3930  142.0800 C   0  0  2  0  0  3  0  0  0  0  0  0
  189.5800  177.0890  142.5170 S   0  0  0  0  0  0  0  0  0  0  0  0
  187.8270  175.3590  142.7970 N   0  0  0  0  0  2  0  0  0  0  0  0
  187.9870  176.7140  143.3020 C   0  0  2  0  0  3  0  0  0  0  0  0
  190.0840  174.4060  142.6990 C   0  0  0  0  0  2  0  0  0  0  0  0
  193.2760  173.0550  138.9980 C   0  0  0  0  0  0  0  0  0  0  0  0
  191.7640  173.6580  140.9410 C   0  0  0  0  0  0  0  0  0  0  0  0
  190.8400  172.5560  138.8850 C   0  0  0  0  0  2  0  0  0  0  0  0
  193.3640  172.7500  137.7730 O   0  0  0  0  0  0  0  0  0  0  0  0
  189.3670  172.8480  140.8470 C   0  0  0  0  0  2  0  0  0  0  0  0
  192.6330  174.4100  141.4620 O   0  0  0  0  0  0  0  0  0  0  0  0
  191.9840  173.0700  139.6380 N   0  0  0  0  0  0  0  0  0  0  0  0
  189.8510  171.8560  139.8030 C   0  0  0  0  0  2  0  0  0  0  0  0
  190.5260  173.3030  141.7320 C   0  0  2  0  0  3  0  0  0  0  0  0
  195.3880  174.4000  139.0670 C   0  0  2  0  0  3  0  0  0  0  0  0
  194.5340  173.3280  139.7650 C   0  0  2  0  0  3  0  0  0  0  0  0
  196.5480  172.2700  140.8700 C   0  0  0  0  0  2  0  0  0  0  0  0
  197.1320  173.6840  140.7500 C   0  0  0  0  0  2  0  0  0  0  0  0
  195.3170  172.0340  139.9880 C   0  0  0  0  0  2  0  0  0  0  0  0
  196.8880  174.2730  139.3640 C   0  0  0  0  0  2  0  0  0  0  0  0
  194.9400  175.6700  139.4380 O   0  0  0  0  0  1  0  0  0  0  0  0
  183.9830  178.6430  143.9450 N   0  0  0  0  0  2  0  0  0  0  0  0
  185.2720  179.5710  145.7000 C   0  0  0  0  0  3  0  0  0  0  0  0
  185.9600  179.5740  147.0240 C   0  0  0  0  0  2  0  0  0  0  0  0
  187.0600  177.3370  146.8220 C   0  0  0  0  0  0  0  0  0  0  0  0
  185.7700  176.6590  146.5370 C   0  0  0  0  0  3  0  0  0  0  0  0
  184.7090  178.4870  145.1680 C   0  0  0  0  0  0  0  0  0  0  0  0
  187.1390  178.6590  147.0220 C   0  0  0  0  0  3  0  0  0  0  0  0
  184.7510  177.1560  145.8260 C   0  0  0  0  0  3  0  0  0  0  0  0
  188.2510  175.2260  147.4660 C   0  0  0  0  0  3  0  0  0  0  0  0
  189.4160  174.4590  147.5270 C   0  0  0  0  0  3  0  0  0  0  0  0
  190.5880  174.9630  147.0630 N   0  0  0  0  0  0  0  0  0  0  0  0
  189.5200  177.0080  146.4500 C   0  0  0  0  0  3  0  0  0  0  0  0
  190.6680  176.2190  146.5320 C   0  0  0  0  0  0  0  0  0  0  0  0
  188.2920  176.5170  146.9200 C   0  0  0  0  0  0  0  0  0  0  0  0
  192.5780  175.8960  144.9990 C   0  0  2  0  0  3  0  0  0  0  0  0
  191.9630  176.7880  146.0260 C   0  0  2  0  0  3  0  0  0  0  0  0
  193.1640  175.9430  146.4480 C   0  0  2  0  0  0  0  0  0  0  0  0
  194.1410  176.9660  146.6310 O   0  0  0  0  0  0  0  0  0  0  0  0
  193.1520  176.8480  143.9480 C   0  0  0  0  0  1  0  0  0  0  0  0
  194.6700  175.7020  146.4590 C   0  0  2  0  0  3  0  0  0  0  0  0
  195.4350  175.6190  145.1410 C   0  0  0  0  0  2  0  0  0  0  0  0
  196.4680  174.5510  145.2190 C   0  0  0  0  0  0  0  0  0  0  0  0
  196.5180  173.7990  146.2260 O   0  0  0  0  0  1  0  0  0  0  0  0
  197.3510  174.3600  144.1630 O   0  0  0  0  0  0  0  0  0  0  0  0
  1  2  1  6  0  0  0
  1  8  1  0  0  0  0
  1 32  1  0  0  0  0
  2  3  1  0  0  0  0
  4  6  1  0  0  0  0
  4  3  1  1  0  0  0
  5  7  2  0  0  0  0
  7  4  1  0  0  0  0
  7  6  1  0  0  0  0
  9 10  2  0  0  0  0
 10  8  1  0  0  0  0
 11 12  1  0  0  0  0
 11 15  1  1  0  0  0
 11 13  1  0  0  0  0
 12 14  1  0  0  0  0
 13 14  1  0  0  0  0
 14 10  1  6  0  0  0
 16 22  1  0  0  0  0
 17 21  2  0  0  0  0
 17 24  1  0  0  0  0
 18 22  1  0  0  0  0
 18 23  1  0  0  0  0
 19 16  2  0  0  0  0
 20 24  1  0  0  0  0
 22 17  1  0  0  0  0
 23 20  1  0  0  0  0
 24 15  1  6  0  0  0
 25 30  1  0  0  0  0
 25 31  1  1  0  0  0
 25 26  1  0  0  0  0
 26 16  1  6  0  0  0
 26 29  1  0  0  0  0
 28 27  1  0  0  0  0
 29 27  1  0  0  0  0
 30 28  1  0  0  0  0
 32 37  1  0  0  0  0
 33 34  1  0  0  0  0
 35 45  1  0  0  0  0
 35 38  2  0  0  0  0
 36 35  1  0  0  0  0
 37 33  2  0  0  0  0
 37 39  1  0  0  0  0
 38 34  1  0  0  0  0
 39 36  2  0  0  0  0
 40 41  1  0  0  0  0
 42 41  2  0  0  0  0
 43 44  2  0  0  0  0
 43 45  1  0  0  0  0
 44 42  1  0  0  0  0
 45 40  2  0  0  0  0
 46 50  1  6  0  0  0
 46 47  1  0  0  0  0
 46 48  1  0  0  0  0
 47 48  1  0  0  0  0
 47 44  1  1  0  0  0
 48 51  1  0  0  0  0
 48 49  1  6  0  0  0
 51 52  1  6  0  0  0
 51 49  1  0  0  0  0
 52 53  1  0  0  0  0
 53 54  1  0  0  0  0
 55 53  2  0  0  0  0
M  END
>  <MODEL>
4

>  <REMARK>
 VINA RESULT:      -6.9      2.704      8.740
  Name = 
  15 active torsions:
  status: ('A' for Active; 'I' for Inactive)
    1  A    between atoms: C_2  and  C_27
    2  A    between atoms: C_2  and  C_55
    3  A    between atoms: C_6  and  C_20
    4  A    between atoms: C_10  and  C_14
    5  A    between atoms: C_12  and  C_55
    6  A    between atoms: C_13  and  C_15
    7  A    between atoms: C_14  and  C_54
    8  A    between atoms: C_20  and  C_53
    9  A    between atoms: C_23  and  C_27
   10  A    between atoms: C_23  and  C_34
   11  A    between atoms: C_27  and  N_50
   12  A    between atoms: C_30  and  C_45
   13  A    between atoms: C_33  and  C_46
   14  A    between atoms: C_34  and  C_49
   15  A    between atoms: C_37  and  N_50
                            x       y       z     vdW  Elec       q    Type
                         _______ _______ _______ _____ _____    ______ ____

>  <TORSDO>
F 15

$$$$
=
 OpenBabel11042416423D

 55 62  0  0  1  0  0  0  0  0999 V2000
  188.3710  176.6360  144.6560 C   0  0  2  0  0  3  0  0  0  0  0  0
  186.9270  177.0050  144.9600 C   0  0  0  0  0  2  0  0  0  0  0  0
  186.6700  178.4660  144.6370 C   0  0  0  0  0  2  0  0  0  0  0  0
  185.5710  179.0090  145.5290 C   0  0  1  0  0  3  0  0  0  0  0  0
  186.5310  178.9120  147.8990 O   0  0  0  0  0  0  0  0  0  0  0  0
  184.8460  177.9720  146.0500 O   0  0  0  0  0  0  0  0  0  0  0  0
  185.8760  178.7190  146.8400 C   0  0  0  0  0  0  0  0  0  0  0  0
  189.2890  177.7480  145.1230 C   0  0  0  0  0  2  0  0  0  0  0  0
  191.3820  178.1250  144.1110 O   0  0  0  0  0  0  0  0  0  0  0  0
  190.7090  177.4010  144.8310 C   0  0  0  0  0  0  0  0  0  0  0  0
  193.3720  175.8400  145.6560 C   0  0  2  0  0  3  0  0  0  0  0  0
  192.2700  176.5500  146.9150 S   0  0  0  0  0  0  0  0  0  0  0  0
  192.3760  175.6410  144.6100 N   0  0  0  0  0  2  0  0  0  0  0  0
  191.2950  176.1590  145.4350 C   0  0  2  0  0  3  0  0  0  0  0  0
  193.9030  174.4940  146.1470 C   0  0  0  0  0  2  0  0  0  0  0  0
  195.4770  170.3350  143.7080 C   0  0  0  0  0  0  0  0  0  0  0  0
  194.6320  172.4600  144.8030 C   0  0  0  0  0  0  0  0  0  0  0  0
  197.0500  171.8060  144.9570 C   0  0  0  0  0  2  0  0  0  0  0  0
  196.3920  169.4650  143.6400 O   0  0  0  0  0  0  0  0  0  0  0  0
  196.3580  174.0250  145.7940 C   0  0  0  0  0  2  0  0  0  0  0  0
  193.4250  172.1070  144.6950 O   0  0  0  0  0  0  0  0  0  0  0  0
  195.7000  171.5490  144.4540 N   0  0  0  0  0  0  0  0  0  0  0  0
  197.3700  173.2920  144.9300 C   0  0  0  0  0  2  0  0  0  0  0  0
  194.9520  173.8790  145.2140 C   0  0  2  0  0  3  0  0  0  0  0  0
  193.4810  168.8420  143.4540 C   0  0  2  0  0  3  0  0  0  0  0  0
  194.2040  170.1030  142.9510 C   0  0  2  0  0  3  0  0  0  0  0  0
  193.1780  169.9200  140.6470 C   0  0  0  0  0  2  0  0  0  0  0  0
  192.0510  169.2040  141.4030 C   0  0  0  0  0  2  0  0  0  0  0  0
  194.4790  170.0410  141.4490 C   0  0  0  0  0  2  0  0  0  0  0  0
  192.6030  168.1770  142.3870 C   0  0  0  0  0  2  0  0  0  0  0  0
  192.7050  169.1610  144.5710 O   0  0  0  0  0  1  0  0  0  0  0  0
  188.5560  176.4330  143.2260 N   0  0  0  0  0  2  0  0  0  0  0  0
  189.1560  174.1540  143.4470 C   0  0  0  0  0  3  0  0  0  0  0  0
  189.3030  172.7390  142.9970 C   0  0  0  0  0  2  0  0  0  0  0  0
  190.2710  173.2180  140.7410 C   0  0  0  0  0  0  0  0  0  0  0  0
  189.1410  174.1110  140.3770 C   0  0  0  0  0  3  0  0  0  0  0  0
  188.7680  175.1430  142.6430 C   0  0  0  0  0  0  0  0  0  0  0  0
  190.3450  172.6170  141.9350 C   0  0  0  0  0  3  0  0  0  0  0  0
  188.4870  174.9400  141.1990 C   0  0  0  0  0  3  0  0  0  0  0  0
  191.0180  172.3690  138.5030 C   0  0  0  0  0  3  0  0  0  0  0  0
  192.0250  172.1570  137.5580 C   0  0  0  0  0  3  0  0  0  0  0  0
  193.3050  172.5180  137.8340 N   0  0  0  0  0  0  0  0  0  0  0  0
  192.6620  173.3210  139.9880 C   0  0  0  0  0  3  0  0  0  0  0  0
  193.6470  173.0890  139.0270 C   0  0  0  0  0  0  0  0  0  0  0  0
  191.3300  172.9600  139.7360 C   0  0  0  0  0  0  0  0  0  0  0  0
  195.2690  173.6050  140.8170 C   0  0  2  0  0  3  0  0  0  0  0  0
  195.0620  173.4820  139.3430 C   0  0  2  0  0  3  0  0  0  0  0  0
  195.1480  174.8890  139.9330 C   0  0  2  0  0  0  0  0  0  0  0  0
  196.3920  175.3180  139.3830 O   0  0  0  0  0  0  0  0  0  0  0  0
  196.6600  173.0190  141.0650 C   0  0  0  0  0  1  0  0  0  0  0  0
  195.9820  176.0400  140.4870 C   0  0  2  0  0  3  0  0  0  0  0  0
  196.9250  175.7970  141.6630 C   0  0  0  0  0  2  0  0  0  0  0  0
  196.5140  176.6310  142.8240 C   0  0  0  0  0  0  0  0  0  0  0  0
  195.3230  176.6010  143.2290 O   0  0  0  0  0  0  0  0  0  0  0  0
  197.4540  177.4130  143.4840 O   0  0  0  0  0  1  0  0  0  0  0  0
  1  2  1  6  0  0  0
  1  8  1  0  0  0  0
  3  2  1  0  0  0  0
  4  3  1  6  0  0  0
  4  6  1  0  0  0  0
  4  7  1  0  0  0  0
  6  7  1  0  0  0  0
  7  5  2  0  0  0  0
  9 10  2  0  0  0  0
 10  8  1  0  0  0  0
 11 15  1  1  0  0  0
 11 12  1  0  0  0  0
 13 14  1  0  0  0  0
 13 11  1  0  0  0  0
 14 10  1  6  0  0  0
 14 12  1  0  0  0  0
 16 22  1  0  0  0  0
 17 24  1  0  0  0  0
 19 16  2  0  0  0  0
 21 17  2  0  0  0  0
 22 17  1  0  0  0  0
 22 18  1  0  0  0  0
 23 18  1  0  0  0  0
 23 20  1  0  0  0  0
 24 20  1  0  0  0  0
 24 15  1  1  0  0  0
 25 31  1  1  0  0  0
 26 25  1  0  0  0  0
 26 16  1  1  0  0  0
 27 28  1  0  0  0  0
 27 29  1  0  0  0  0
 28 30  1  0  0  0  0
 29 26  1  0  0  0  0
 30 25  1  0  0  0  0
 32  1  1  0  0  0  0
 34 33  1  0  0  0  0
 35 38  2  0  0  0  0
 36 35  1  0  0  0  0
 36 39  2  0  0  0  0
 37 32  1  0  0  0  0
 37 33  2  0  0  0  0
 38 34  1  0  0  0  0
 39 37  1  0  0  0  0
 40 45  1  0  0  0  0
 41 42  1  0  0  0  0
 41 40  2  0  0  0  0
 42 44  2  0  0  0  0
 44 43  1  0  0  0  0
 45 43  2  0  0  0  0
 45 35  1  0  0  0  0
 46 50  1  6  0  0  0
 47 44  1  1  0  0  0
 47 48  1  0  0  0  0
 47 46  1  0  0  0  0
 48 49  1  6  0  0  0
 48 51  1  0  0  0  0
 48 46  1  0  0  0  0
 49 51  1  0  0  0  0
 51 52  1  1  0  0  0
 52 53  1  0  0  0  0
 53 54  2  0  0  0  0
 53 55  1  0  0  0  0
M  END
>  <MODEL>
5

>  <REMARK>
 VINA RESULT:      -6.8      3.019      8.357
  Name = 
  15 active torsions:
  status: ('A' for Active; 'I' for Inactive)
    1  A    between atoms: C_2  and  C_27
    2  A    between atoms: C_2  and  C_55
    3  A    between atoms: C_6  and  C_20
    4  A    between atoms: C_10  and  C_14
    5  A    between atoms: C_12  and  C_55
    6  A    between atoms: C_13  and  C_15
    7  A    between atoms: C_14  and  C_54
    8  A    between atoms: C_20  and  C_53
    9  A    between atoms: C_23  and  C_27
   10  A    between atoms: C_23  and  C_34
   11  A    between atoms: C_27  and  N_50
   12  A    between atoms: C_30  and  C_45
   13  A    between atoms: C_33  and  C_46
   14  A    between atoms: C_34  and  C_49
   15  A    between atoms: C_37  and  N_50
                            x       y       z     vdW  Elec       q    Type
                         _______ _______ _______ _____ _____    ______ ____

>  <TORSDO>
F 15

$$$$
=
 OpenBabel11042416423D

 55 62  0  0  1  0  0  0  0  0999 V2000
  190.0210  173.3800  137.9760 C   0  0  2  0  0  3  0  0  0  0  0  0
  189.4080  172.1140  137.3970 C   0  0  0  0  0  2  0  0  0  0  0  0
  190.4320  170.9940  137.3580 C   0  0  0  0  0  2  0  0  0  0  0  0
  189.9340  169.8080  138.1590 C   0  0  1  0  0  3  0  0  0  0  0  0
  191.6440  169.5100  140.0390 O   0  0  0  0  0  0  0  0  0  0  0  0
  190.5690  168.6700  137.7400 O   0  0  0  0  0  0  0  0  0  0  0  0
  190.9360  169.3860  139.0040 C   0  0  0  0  0  0  0  0  0  0  0  0
  191.4860  173.1420  138.2830 C   0  0  0  0  0  2  0  0  0  0  0  0
  191.8250  174.8750  136.7250 O   0  0  0  0  0  0  0  0  0  0  0  0
  192.3330  174.1160  137.5370 C   0  0  0  0  0  0  0  0  0  0  0  0
  194.6390  174.2640  139.7430 C   0  0  2  0  0  3  0  0  0  0  0  0
  194.3250  172.7350  138.8130 S   0  0  0  0  0  0  0  0  0  0  0  0
  194.1400  175.2060  138.7500 N   0  0  0  0  0  2  0  0  0  0  0  0
  193.8090  174.1520  137.8040 C   0  0  2  0  0  3  0  0  0  0  0  0
  196.1450  174.4410  139.9350 C   0  0  0  0  0  2  0  0  0  0  0  0
  195.3070  173.9060  144.9080 C   0  0  0  0  0  0  0  0  0  0  0  0
  195.8410  174.0880  142.4360 C   0  0  0  0  0  0  0  0  0  0  0  0
  195.5520  176.1440  143.8450 C   0  0  0  0  0  2  0  0  0  0  0  0
  194.8710  174.4810  145.9470 O   0  0  0  0  0  0  0  0  0  0  0  0
  196.3550  176.3930  141.5230 C   0  0  0  0  0  2  0  0  0  0  0  0
  195.5520  172.8780  142.2240 O   0  0  0  0  0  0  0  0  0  0  0  0
  195.6010  174.6860  143.7320 N   0  0  0  0  0  0  0  0  0  0  0  0
  196.6050  176.7970  142.9650 C   0  0  0  0  0  2  0  0  0  0  0  0
  196.5280  174.8840  141.3510 C   0  0  2  0  0  3  0  0  0  0  0  0
  194.3450  171.6690  145.4960 C   0  0  2  0  0  3  0  0  0  0  0  0
  195.5670  172.4310  144.9550 C   0  0  2  0  0  3  0  0  0  0  0  0
  197.1780  170.6430  145.7350 C   0  0  0  0  0  2  0  0  0  0  0  0
  195.9590  169.7260  145.5680 C   0  0  0  0  0  2  0  0  0  0  0  0
  196.8270  172.1360  145.7690 C   0  0  0  0  0  2  0  0  0  0  0  0
  194.7060  170.3450  146.1820 C   0  0  0  0  0  2  0  0  0  0  0  0
  193.4440  171.4310  144.4550 O   0  0  0  0  0  1  0  0  0  0  0  0
  189.3330  173.7660  139.2020 N   0  0  0  0  0  2  0  0  0  0  0  0
  189.4720  172.2220  140.9900 C   0  0  0  0  0  3  0  0  0  0  0  0
  189.9880  171.6840  142.2820 C   0  0  0  0  0  2  0  0  0  0  0  0
  189.9260  173.8260  143.5710 C   0  0  0  0  0  0  0  0  0  0  0  0
  190.7480  174.5340  142.5570 C   0  0  0  0  0  3  0  0  0  0  0  0
  189.8090  173.4160  140.5050 C   0  0  0  0  0  0  0  0  0  0  0  0
  189.5710  172.5430  143.4290 C   0  0  0  0  0  3  0  0  0  0  0  0
  190.7030  174.3540  141.2310 C   0  0  0  0  0  3  0  0  0  0  0  0
  190.0890  174.2530  146.0370 C   0  0  0  0  0  3  0  0  0  0  0  0
  189.7080  174.9700  147.1730 C   0  0  0  0  0  3  0  0  0  0  0  0
  188.7800  175.9570  147.0760 N   0  0  0  0  0  0  0  0  0  0  0  0
  188.5590  175.5830  144.7290 C   0  0  0  0  0  3  0  0  0  0  0  0
  188.1950  176.2760  145.8840 C   0  0  0  0  0  0  0  0  0  0  0  0
  189.5150  174.5580  144.7940 C   0  0  0  0  0  0  0  0  0  0  0  0
  185.8440  176.8040  145.3330 C   0  0  2  0  0  3  0  0  0  0  0  0
  187.1600  177.3590  145.7710 C   0  0  2  0  0  3  0  0  0  0  0  0
  186.7360  177.5970  144.3230 C   0  0  2  0  0  0  0  0  0  0  0  0
  186.5110  179.0050  144.3530 O   0  0  0  0  0  0  0  0  0  0  0  0
  184.8050  177.5740  146.1500 C   0  0  0  0  0  1  0  0  0  0  0  0
  185.8950  178.3560  143.3000 C   0  0  2  0  0  3  0  0  0  0  0  0
  184.3780  178.4110  143.4550 C   0  0  0  0  0  2  0  0  0  0  0  0
  183.7270  178.2940  142.1230 C   0  0  0  0  0  0  0  0  0  0  0  0
  182.4780  178.4130  142.0220 O   0  0  0  0  0  1  0  0  0  0  0  0
  184.5010  178.0920  140.9870 O   0  0  0  0  0  0  0  0  0  0  0  0
  1  2  1  1  0  0  0
  1  8  1  0  0  0  0
  1 32  1  0  0  0  0
  3  2  1  0  0  0  0
  4  3  1  6  0  0  0
  4  7  1  0  0  0  0
  6  4  1  0  0  0  0
  6  7  1  0  0  0  0
  7  5  2  0  0  0  0
  9 10  2  0  0  0  0
 10  8  1  0  0  0  0
 11 15  1  6  0  0  0
 12 11  1  0  0  0  0
 13 11  1  0  0  0  0
 14 10  1  1  0  0  0
 14 13  1  0  0  0  0
 14 12  1  0  0  0  0
 16 19  2  0  0  0  0
 17 22  1  0  0  0  0
 20 23  1  0  0  0  0
 21 17  2  0  0  0  0
 22 18  1  0  0  0  0
 22 16  1  0  0  0  0
 23 18  1  0  0  0  0
 24 15  1  6  0  0  0
 24 20  1  0  0  0  0
 24 17  1  0  0  0  0
 25 31  1  6  0  0  0
 25 30  1  0  0  0  0
 26 16  1  1  0  0  0
 26 25  1  0  0  0  0
 26 29  1  0  0  0  0
 27 29  1  0  0  0  0
 28 27  1  0  0  0  0
 28 30  1  0  0  0  0
 32 37  1  0  0  0  0
 33 34  1  0  0  0  0
 34 38  1  0  0  0  0
 35 45  1  0  0  0  0
 36 35  1  0  0  0  0
 37 33  2  0  0  0  0
 37 39  1  0  0  0  0
 38 35  2  0  0  0  0
 39 36  2  0  0  0  0
 40 41  1  0  0  0  0
 42 41  2  0  0  0  0
 43 45  1  0  0  0  0
 43 44  2  0  0  0  0
 44 42  1  0  0  0  0
 45 40  2  0  0  0  0
 46 47  1  0  0  0  0
 46 50  1  1  0  0  0
 47 44  1  6  0  0  0
 48 49  1  1  0  0  0
 48 46  1  0  0  0  0
 48 47  1  0  0  0  0
 51 52  1  1  0  0  0
 51 48  1  0  0  0  0
 51 49  1  0  0  0  0
 53 52  1  0  0  0  0
 54 53  1  0  0  0  0
 55 53  2  0  0  0  0
M  END
>  <MODEL>
6

>  <REMARK>
 VINA RESULT:      -6.8      2.505      4.599
  Name = 
  15 active torsions:
  status: ('A' for Active; 'I' for Inactive)
    1  A    between atoms: C_2  and  C_27
    2  A    between atoms: C_2  and  C_55
    3  A    between atoms: C_6  and  C_20
    4  A    between atoms: C_10  and  C_14
    5  A    between atoms: C_12  and  C_55
    6  A    between atoms: C_13  and  C_15
    7  A    between atoms: C_14  and  C_54
    8  A    between atoms: C_20  and  C_53
    9  A    between atoms: C_23  and  C_27
   10  A    between atoms: C_23  and  C_34
   11  A    between atoms: C_27  and  N_50
   12  A    between atoms: C_30  and  C_45
   13  A    between atoms: C_33  and  C_46
   14  A    between atoms: C_34  and  C_49
   15  A    between atoms: C_37  and  N_50
                            x       y       z     vdW  Elec       q    Type
                         _______ _______ _______ _____ _____    ______ ____

>  <TORSDO>
F 15

$$$$
=
 OpenBabel11042416423D

 55 62  0  0  1  0  0  0  0  0999 V2000
  196.7040  173.6390  143.5260 C   0  0  2  0  0  3  0  0  0  0  0  0
  195.9920  172.3280  143.8230 C   0  0  0  0  0  2  0  0  0  0  0  0
  195.8160  172.1420  145.3190 C   0  0  0  0  0  2  0  0  0  0  0  0
  195.9880  170.6810  145.6840 C   0  0  1  0  0  3  0  0  0  0  0  0
  194.5560  169.4010  143.9930 O   0  0  0  0  0  0  0  0  0  0  0  0
  194.9530  170.2820  146.4860 O   0  0  0  0  0  0  0  0  0  0  0  0
  195.0290  169.9410  145.0290 C   0  0  0  0  0  0  0  0  0  0  0  0
  195.7010  174.6630  143.0360 C   0  0  0  0  0  2  0  0  0  0  0  0
  197.1190  176.4690  143.5580 O   0  0  0  0  0  0  0  0  0  0  0  0
  195.9930  175.9980  143.6330 C   0  0  0  0  0  0  0  0  0  0  0  0
  193.0850  175.8450  144.9460 C   0  0  2  0  0  3  0  0  0  0  0  0
  194.5680  176.0690  145.9720 S   0  0  0  0  0  0  0  0  0  0  0  0
  193.6010  176.4370  143.7180 N   0  0  0  0  0  2  0  0  0  0  0  0
  194.8900  176.7470  144.3190 C   0  0  2  0  0  3  0  0  0  0  0  0
  191.9460  176.6940  145.5080 C   0  0  0  0  0  2  0  0  0  0  0  0
  186.8780  176.8980  145.5060 C   0  0  0  0  0  0  0  0  0  0  0  0
  189.4050  176.7430  145.3720 C   0  0  0  0  0  0  0  0  0  0  0  0
  188.1480  175.6720  147.2620 C   0  0  0  0  0  2  0  0  0  0  0  0
  185.8430  176.7930  146.2240 O   0  0  0  0  0  0  0  0  0  0  0  0
  190.5690  175.2350  147.0400 C   0  0  0  0  0  2  0  0  0  0  0  0
  189.4760  177.6600  144.5080 O   0  0  0  0  0  0  0  0  0  0  0  0
  188.1450  176.4230  146.0060 N   0  0  0  0  0  0  0  0  0  0  0  0
  189.2120  174.5860  147.2470 C   0  0  0  0  0  2  0  0  0  0  0  0
  190.6350  175.9180  145.6750 C   0  0  2  0  0  3  0  0  0  0  0  0
  185.5350  178.4060  144.0230 C   0  0  2  0  0  3  0  0  0  0  0  0
  186.7420  177.4570  144.1220 C   0  0  2  0  0  3  0  0  0  0  0  0
  186.6400  176.8750  141.6620 C   0  0  0  0  0  2  0  0  0  0  0  0
  186.0050  178.2670  141.5440 C   0  0  0  0  0  2  0  0  0  0  0  0
  186.6640  176.3280  143.0950 C   0  0  0  0  0  2  0  0  0  0  0  0
  184.9380  178.4870  142.6130 C   0  0  0  0  0  2  0  0  0  0  0  0
  185.9070  179.6820  144.4530 O   0  0  0  0  0  1  0  0  0  0  0  0
  197.7260  173.4440  142.5050 N   0  0  0  0  0  2  0  0  0  0  0  0
  197.9410  174.7640  140.5530 C   0  0  0  0  0  3  0  0  0  0  0  0
  197.8560  175.0500  139.0910 C   0  0  0  0  0  2  0  0  0  0  0  0
  195.5810  174.0850  138.7060 C   0  0  0  0  0  0  0  0  0  0  0  0
  195.9670  172.7770  139.2950 C   0  0  0  0  0  3  0  0  0  0  0  0
  197.4810  173.6450  141.1100 C   0  0  0  0  0  0  0  0  0  0  0  0
  196.4360  175.1130  138.6360 C   0  0  0  0  0  3  0  0  0  0  0  0
  196.7920  172.5850  140.3310 C   0  0  0  0  0  3  0  0  0  0  0  0
  194.0030  174.9650  136.9670 C   0  0  0  0  0  3  0  0  0  0  0  0
  192.7130  175.0810  136.4440 C   0  0  0  0  0  3  0  0  0  0  0  0
  191.6650  174.5000  137.0830 N   0  0  0  0  0  0  0  0  0  0  0  0
  193.1100  173.6550  138.7840 C   0  0  0  0  0  3  0  0  0  0  0  0
  191.8330  173.7950  138.2410 C   0  0  0  0  0  0  0  0  0  0  0  0
  194.2150  174.2420  138.1500 C   0  0  0  0  0  0  0  0  0  0  0  0
  190.4160  173.8320  140.2650 C   0  0  2  0  0  3  0  0  0  0  0  0
  190.6770  173.1580  138.9580 C   0  0  2  0  0  3  0  0  0  0  0  0
  191.1190  172.4360  140.2300 C   0  0  2  0  0  0  0  0  0  0  0  0
  190.2050  171.3410  140.2310 O   0  0  0  0  0  0  0  0  0  0  0  0
  188.8920  173.8790  140.3830 C   0  0  0  0  0  1  0  0  0  0  0  0
  190.7800  171.6000  141.4600 C   0  0  2  0  0  3  0  0  0  0  0  0
  189.7270  172.0940  142.4470 C   0  0  0  0  0  2  0  0  0  0  0  0
  190.3520  172.3450  143.7740 C   0  0  0  0  0  0  0  0  0  0  0  0
  191.4750  172.9080  143.8420 O   0  0  0  0  0  0  0  0  0  0  0  0
  189.6780  171.9930  144.9370 O   0  0  0  0  0  1  0  0  0  0  0  0
  1  8  1  6  0  0  0
  1  2  1  0  0  0  0
  2  3  1  0  0  0  0
  4  3  1  6  0  0  0
  4  6  1  0  0  0  0
  5  7  2  0  0  0  0
  7  4  1  0  0  0  0
  7  6  1  0  0  0  0
  8 10  1  0  0  0  0
  9 10  2  0  0  0  0
 11 15  1  1  0  0  0
 11 12  1  0  0  0  0
 13 14  1  0  0  0  0
 13 11  1  0  0  0  0
 14 10  1  6  0  0  0
 14 12  1  0  0  0  0
 16 22  1  0  0  0  0
 16 19  2  0  0  0  0
 17 24  1  0  0  0  0
 17 22  1  0  0  0  0
 20 23  1  0  0  0  0
 21 17  2  0  0  0  0
 22 18  1  0  0  0  0
 23 18  1  0  0  0  0
 24 15  1  1  0  0  0
 24 20  1  0  0  0  0
 25 26  1  0  0  0  0
 25 31  1  6  0  0  0
 26 16  1  1  0  0  0
 27 29  1  0  0  0  0
 28 27  1  0  0  0  0
 28 30  1  0  0  0  0
 29 26  1  0  0  0  0
 30 25  1  0  0  0  0
 32  1  1  0  0  0  0
 33 37  2  0  0  0  0
 34 33  1  0  0  0  0
 35 36  1  0  0  0  0
 36 39  2  0  0  0  0
 37 32  1  0  0  0  0
 38 35  2  0  0  0  0
 38 34  1  0  0  0  0
 39 37  1  0  0  0  0
 40 45  1  0  0  0  0
 41 40  2  0  0  0  0
 41 42  1  0  0  0  0
 42 44  2  0  0  0  0
 44 43  1  0  0  0  0
 45 35  1  0  0  0  0
 45 43  2  0  0  0  0
 46 50  1  1  0  0  0
 47 44  1  6  0  0  0
 47 48  1  0  0  0  0
 47 46  1  0  0  0  0
 48 49  1  6  0  0  0
 48 46  1  0  0  0  0
 48 51  1  0  0  0  0
 49 51  1  0  0  0  0
 51 52  1  1  0  0  0
 52 53  1  0  0  0  0
 53 54  2  0  0  0  0
 53 55  1  0  0  0  0
M  END
>  <MODEL>
7

>  <REMARK>
 VINA RESULT:      -6.8      2.892      7.581
  Name = 
  15 active torsions:
  status: ('A' for Active; 'I' for Inactive)
    1  A    between atoms: C_2  and  C_27
    2  A    between atoms: C_2  and  C_55
    3  A    between atoms: C_6  and  C_20
    4  A    between atoms: C_10  and  C_14
    5  A    between atoms: C_12  and  C_55
    6  A    between atoms: C_13  and  C_15
    7  A    between atoms: C_14  and  C_54
    8  A    between atoms: C_20  and  C_53
    9  A    between atoms: C_23  and  C_27
   10  A    between atoms: C_23  and  C_34
   11  A    between atoms: C_27  and  N_50
   12  A    between atoms: C_30  and  C_45
   13  A    between atoms: C_33  and  C_46
   14  A    between atoms: C_34  and  C_49
   15  A    between atoms: C_37  and  N_50
                            x       y       z     vdW  Elec       q    Type
                         _______ _______ _______ _____ _____    ______ ____

>  <TORSDO>
F 15

$$$$
=
 OpenBabel11042416423D

 55 62  0  0  1  0  0  0  0  0999 V2000
  188.3590  177.2230  145.4270 C   0  0  2  0  0  3  0  0  0  0  0  0
  186.9520  177.4210  145.9720 C   0  0  0  0  0  2  0  0  0  0  0  0
  185.9180  176.9480  144.9670 C   0  0  0  0  0  2  0  0  0  0  0  0
  184.8070  177.9720  144.8440 C   0  0  1  0  0  3  0  0  0  0  0  0
  184.4520  178.2680  142.3280 O   0  0  0  0  0  0  0  0  0  0  0  0
  185.3450  179.2170  144.6620 O   0  0  0  0  0  0  0  0  0  0  0  0
  184.7510  178.4170  143.5430 C   0  0  0  0  0  0  0  0  0  0  0  0
  188.3270  177.2620  143.9130 C   0  0  0  0  0  2  0  0  0  0  0  0
  190.4550  178.2590  143.7640 O   0  0  0  0  0  0  0  0  0  0  0  0
  189.7120  177.3710  143.3710 C   0  0  0  0  0  0  0  0  0  0  0  0
  190.7010  174.3860  142.8130 C   0  0  2  0  0  3  0  0  0  0  0  0
  189.0590  174.9480  142.2740 S   0  0  0  0  0  0  0  0  0  0  0  0
  191.3680  175.6810  142.8030 N   0  0  0  0  0  2  0  0  0  0  0  0
  190.1740  176.3780  142.3470 C   0  0  2  0  0  3  0  0  0  0  0  0
  191.3000  173.4700  141.7470 C   0  0  0  0  0  2  0  0  0  0  0  0
  194.2400  169.5030  142.9030 C   0  0  0  0  0  0  0  0  0  0  0  0
  192.7510  171.5080  142.4670 C   0  0  0  0  0  0  0  0  0  0  0  0
  192.2620  169.2870  141.4070 C   0  0  0  0  0  2  0  0  0  0  0  0
  194.6080  168.3510  142.5340 O   0  0  0  0  0  0  0  0  0  0  0  0
  190.6130  171.1100  141.1710 C   0  0  0  0  0  2  0  0  0  0  0  0
  193.6010  172.3160  142.9310 O   0  0  0  0  0  0  0  0  0  0  0  0
  193.0780  170.1080  142.3010 N   0  0  0  0  0  0  0  0  0  0  0  0
  190.7900  169.6440  141.5270 C   0  0  0  0  0  2  0  0  0  0  0  0
  191.3520  171.9980  142.1700 C   0  0  2  0  0  3  0  0  0  0  0  0
  196.4710  170.3710  143.6400 C   0  0  2  0  0  3  0  0  0  0  0  0
  194.9910  170.1790  144.0110 C   0  0  2  0  0  3  0  0  0  0  0  0
  195.4900  170.1400  146.4900 C   0  0  0  0  0  2  0  0  0  0  0  0
  196.6930  170.9980  146.0780 C   0  0  0  0  0  2  0  0  0  0  0  0
  194.8270  169.4050  145.3180 C   0  0  0  0  0  2  0  0  0  0  0  0
  197.4030  170.4180  144.8580 C   0  0  0  0  0  2  0  0  0  0  0  0
  196.6190  171.5390  142.8880 O   0  0  0  0  0  1  0  0  0  0  0  0
  188.8990  175.9420  145.8620 N   0  0  0  0  0  2  0  0  0  0  0  0
  190.7120  176.8350  147.0930 C   0  0  0  0  0  3  0  0  0  0  0  0
  192.0100  176.7860  147.8260 C   0  0  0  0  0  2  0  0  0  0  0  0
  193.2640  175.3950  146.1680 C   0  0  0  0  0  0  0  0  0  0  0  0
  192.2340  174.3250  146.1930 C   0  0  0  0  0  3  0  0  0  0  0  0
  190.2050  175.7980  146.4260 C   0  0  0  0  0  0  0  0  0  0  0  0
  193.1450  176.5130  146.8960 C   0  0  0  0  0  3  0  0  0  0  0  0
  190.9120  174.4970  146.3090 C   0  0  0  0  0  3  0  0  0  0  0  0
  195.6350  174.6310  145.8820 C   0  0  0  0  0  3  0  0  0  0  0  0
  196.7590  174.4320  145.0780 C   0  0  0  0  0  3  0  0  0  0  0  0
  196.7320  174.7950  143.7690 N   0  0  0  0  0  0  0  0  0  0  0  0
  194.4820  175.5640  143.9810 C   0  0  0  0  0  3  0  0  0  0  0  0
  195.6230  175.3590  143.2050 C   0  0  0  0  0  0  0  0  0  0  0  0
  194.4760  175.2010  145.3360 C   0  0  0  0  0  0  0  0  0  0  0  0
  195.1050  174.6580  140.8930 C   0  0  2  0  0  3  0  0  0  0  0  0
  195.5890  175.7730  141.7610 C   0  0  2  0  0  3  0  0  0  0  0  0
  196.6250  175.0230  140.9250 C   0  0  2  0  0  0  0  0  0  0  0  0
  196.9830  176.0420  139.9930 O   0  0  0  0  0  0  0  0  0  0  0  0
  194.2140  175.3350  139.8500 C   0  0  0  0  0  1  0  0  0  0  0  0
  197.2990  174.7610  139.5820 C   0  0  2  0  0  3  0  0  0  0  0  0
  196.4550  174.3660  138.3730 C   0  0  0  0  0  2  0  0  0  0  0  0
  196.6870  172.9350  138.0380 C   0  0  0  0  0  0  0  0  0  0  0  0
  196.6160  172.5510  136.8420 O   0  0  0  0  0  0  0  0  0  0  0  0
  197.0190  172.0320  139.0400 O   0  0  0  0  0  1  0  0  0  0  0  0
  1  8  1  6  0  0  0
  1 32  1  0  0  0  0
  1  2  1  0  0  0  0
  3  2  1  0  0  0  0
  4  3  1  6  0  0  0
  5  7  2  0  0  0  0
  6  4  1  0  0  0  0
  7  6  1  0  0  0  0
  7  4  1  0  0  0  0
 10  9  2  0  0  0  0
 10  8  1  0  0  0  0
 11 15  1  6  0  0  0
 12 14  1  0  0  0  0
 12 11  1  0  0  0  0
 13 11  1  0  0  0  0
 14 13  1  0  0  0  0
 14 10  1  1  0  0  0
 17 21  2  0  0  0  0
 18 23  1  0  0  0  0
 18 22  1  0  0  0  0
 19 16  2  0  0  0  0
 20 23  1  0  0  0  0
 20 24  1  0  0  0  0
 22 17  1  0  0  0  0
 22 16  1  0  0  0  0
 24 15  1  6  0  0  0
 24 17  1  0  0  0  0
 25 31  1  1  0  0  0
 25 26  1  0  0  0  0
 25 30  1  0  0  0  0
 26 16  1  6  0  0  0
 26 29  1  0  0  0  0
 28 27  1  0  0  0  0
 29 27  1  0  0  0  0
 30 28  1  0  0  0  0
 32 37  1  0  0  0  0
 33 34  1  0  0  0  0
 35 36  1  0  0  0  0
 35 38  2  0  0  0  0
 36 39  2  0  0  0  0
 37 33  2  0  0  0  0
 38 34  1  0  0  0  0
 39 37  1  0  0  0  0
 41 40  2  0  0  0  0
 42 41  1  0  0  0  0
 43 45  2  0  0  0  0
 44 42  2  0  0  0  0
 44 43  1  0  0  0  0
 45 40  1  0  0  0  0
 45 35  1  0  0  0  0
 46 50  1  6  0  0  0
 46 48  1  0  0  0  0
 46 47  1  0  0  0  0
 47 44  1  1  0  0  0
 48 49  1  6  0  0  0
 48 47  1  0  0  0  0
 51 52  1  6  0  0  0
 51 49  1  0  0  0  0
 51 48  1  0  0  0  0
 53 52  1  0  0  0  0
 53 55  1  0  0  0  0
 54 53  2  0  0  0  0
M  END
>  <MODEL>
8

>  <REMARK>
 VINA RESULT:      -6.7      3.156      9.326
  Name = 
  15 active torsions:
  status: ('A' for Active; 'I' for Inactive)
    1  A    between atoms: C_2  and  C_27
    2  A    between atoms: C_2  and  C_55
    3  A    between atoms: C_6  and  C_20
    4  A    between atoms: C_10  and  C_14
    5  A    between atoms: C_12  and  C_55
    6  A    between atoms: C_13  and  C_15
    7  A    between atoms: C_14  and  C_54
    8  A    between atoms: C_20  and  C_53
    9  A    between atoms: C_23  and  C_27
   10  A    between atoms: C_23  and  C_34
   11  A    between atoms: C_27  and  N_50
   12  A    between atoms: C_30  and  C_45
   13  A    between atoms: C_33  and  C_46
   14  A    between atoms: C_34  and  C_49
   15  A    between atoms: C_37  and  N_50
                            x       y       z     vdW  Elec       q    Type
                         _______ _______ _______ _____ _____    ______ ____

>  <TORSDO>
F 15

$$$$
=
 OpenBabel11042416423D

 55 62  0  0  1  0  0  0  0  0999 V2000
  196.2790  172.4140  144.7750 C   0  0  2  0  0  3  0  0  0  0  0  0
  197.1780  171.4280  145.5060 C   0  0  0  0  0  2  0  0  0  0  0  0
  196.6370  170.0160  145.3780 C   0  0  0  0  0  2  0  0  0  0  0  0
  195.7360  169.6960  146.5540 C   0  0  1  0  0  3  0  0  0  0  0  0
  197.1690  168.2670  148.1200 O   0  0  0  0  0  0  0  0  0  0  0  0
  195.1580  168.4700  146.3720 O   0  0  0  0  0  0  0  0  0  0  0  0
  196.3130  168.6920  147.2990 C   0  0  0  0  0  0  0  0  0  0  0  0
  197.1280  173.4730  144.1000 C   0  0  0  0  0  2  0  0  0  0  0  0
  197.9410  171.9480  142.5010 O   0  0  0  0  0  0  0  0  0  0  0  0
  197.4640  173.0540  142.7090 C   0  0  0  0  0  0  0  0  0  0  0  0
  195.2720  174.4210  140.8300 C   0  0  2  0  0  3  0  0  0  0  0  0
  196.1390  175.3750  142.1110 S   0  0  0  0  0  0  0  0  0  0  0  0
  196.3010  173.4140  140.6020 N   0  0  0  0  0  2  0  0  0  0  0  0
  197.2040  174.0040  141.5790 C   0  0  2  0  0  3  0  0  0  0  0  0
  195.0920  175.2880  139.5850 C   0  0  0  0  0  2  0  0  0  0  0  0
  190.7160  172.7300  139.4340 C   0  0  0  0  0  0  0  0  0  0  0  0
  192.8270  174.1290  139.5360 C   0  0  0  0  0  0  0  0  0  0  0  0
  192.3390  172.6780  137.5470 C   0  0  0  0  0  2  0  0  0  0  0  0
  190.1080  171.7590  138.8980 O   0  0  0  0  0  0  0  0  0  0  0  0
  194.2600  174.2290  137.4500 C   0  0  0  0  0  2  0  0  0  0  0  0
  192.7010  174.3390  140.7730 O   0  0  0  0  0  0  0  0  0  0  0  0
  191.9400  173.2160  138.8480 N   0  0  0  0  0  0  0  0  0  0  0  0
  193.0300  173.7390  136.7060 C   0  0  0  0  0  2  0  0  0  0  0  0
  193.8590  174.9120  138.7560 C   0  0  2  0  0  3  0  0  0  0  0  0
  189.7690  172.3590  141.7240 C   0  0  2  0  0  3  0  0  0  0  0  0
  190.1040  173.3910  140.6320 C   0  0  2  0  0  3  0  0  0  0  0  0
  188.3030  174.9850  141.4150 C   0  0  0  0  0  2  0  0  0  0  0  0
  188.5430  174.3050  142.7700 C   0  0  0  0  0  2  0  0  0  0  0  0
  188.8780  174.2070  140.2250 C   0  0  0  0  0  2  0  0  0  0  0  0
  188.6080  172.7870  142.6300 C   0  0  0  0  0  2  0  0  0  0  0  0
  190.9050  172.1110  142.4980 O   0  0  0  0  0  1  0  0  0  0  0  0
  195.3640  173.0590  145.7080 N   0  0  0  0  0  2  0  0  0  0  0  0
  194.8920  175.3740  145.8320 C   0  0  0  0  0  3  0  0  0  0  0  0
  194.2010  176.6410  145.4520 C   0  0  0  0  0  2  0  0  0  0  0  0
  191.8720  175.7340  145.3880 C   0  0  0  0  0  0  0  0  0  0  0  0
  192.2510  174.6550  144.4390 C   0  0  0  0  0  3  0  0  0  0  0  0
  194.5490  174.1790  145.3510 C   0  0  0  0  0  0  0  0  0  0  0  0
  192.7650  176.6150  145.8560 C   0  0  0  0  0  3  0  0  0  0  0  0
  193.4100  173.9860  144.4180 C   0  0  0  0  0  3  0  0  0  0  0  0
  189.9200  175.0060  146.7850 C   0  0  0  0  0  3  0  0  0  0  0  0
  188.5890  175.1500  147.1810 C   0  0  0  0  0  3  0  0  0  0  0  0
  187.8100  176.1070  146.6140 N   0  0  0  0  0  0  0  0  0  0  0  0
  189.6210  176.8310  145.2380 C   0  0  0  0  0  3  0  0  0  0  0  0
  188.2920  176.9450  145.6500 C   0  0  0  0  0  0  0  0  0  0  0  0
  190.4530  175.8540  145.8030 C   0  0  0  0  0  0  0  0  0  0  0  0
  185.9830  177.6820  145.1680 C   0  0  2  0  0  3  0  0  0  0  0  0
  187.4340  177.9990  145.0100 C   0  0  2  0  0  3  0  0  0  0  0  0
  186.6870  177.4680  143.7890 C   0  0  2  0  0  0  0  0  0  0  0  0
  186.6870  178.6320  142.9650 O   0  0  0  0  0  0  0  0  0  0  0  0
  185.3160  179.0300  145.4460 C   0  0  0  0  0  1  0  0  0  0  0  0
  185.7310  177.6960  142.6220 C   0  0  2  0  0  3  0  0  0  0  0  0
  184.3310  178.2430  142.8850 C   0  0  0  0  0  2  0  0  0  0  0  0
  183.5610  178.3030  141.6130 C   0  0  0  0  0  0  0  0  0  0  0  0
  184.1710  178.3430  140.5130 O   0  0  0  0  0  0  0  0  0  0  0  0
  182.1720  178.2770  141.6390 O   0  0  0  0  0  1  0  0  0  0  0  0
  1  8  1  1  0  0  0
  1  2  1  0  0  0  0
  1 32  1  0  0  0  0
  3  2  1  0  0  0  0
  4  3  1  6  0  0  0
  4  7  1  0  0  0  0
  6  4  1  0  0  0  0
  6  7  1  0  0  0  0
  7  5  2  0  0  0  0
  9 10  2  0  0  0  0
 10  8  1  0  0  0  0
 11 15  1  6  0  0  0
 11 12  1  0  0  0  0
 13 11  1  0  0  0  0
 13 14  1  0  0  0  0
 14 12  1  0  0  0  0
 14 10  1  1  0  0  0
 17 21  2  0  0  0  0
 18 22  1  0  0  0  0
 19 16  2  0  0  0  0
 20 24  1  0  0  0  0
 22 16  1  0  0  0  0
 22 17  1  0  0  0  0
 23 20  1  0  0  0  0
 23 18  1  0  0  0  0
 24 17  1  0  0  0  0
 24 15  1  1  0  0  0
 25 31  1  1  0  0  0
 25 30  1  0  0  0  0
 26 16  1  6  0  0  0
 26 25  1  0  0  0  0
 27 28  1  0  0  0  0
 29 26  1  0  0  0  0
 29 27  1  0  0  0  0
 30 28  1  0  0  0  0
 34 33  1  0  0  0  0
 34 38  1  0  0  0  0
 35 45  1  0  0  0  0
 35 38  2  0  0  0  0
 36 35  1  0  0  0  0
 37 32  1  0  0  0  0
 37 33  2  0  0  0  0
 39 36  2  0  0  0  0
 39 37  1  0  0  0  0
 40 41  1  0  0  0  0
 42 41  2  0  0  0  0
 43 44  2  0  0  0  0
 43 45  1  0  0  0  0
 44 42  1  0  0  0  0
 45 40  2  0  0  0  0
 46 50  1  6  0  0  0
 47 46  1  0  0  0  0
 47 44  1  1  0  0  0
 48 49  1  1  0  0  0
 48 47  1  0  0  0  0
 48 46  1  0  0  0  0
 51 52  1  1  0  0  0
 51 49  1  0  0  0  0
 51 48  1  0  0  0  0
 53 55  1  0  0  0  0
 53 52  1  0  0  0  0
 54 53  2  0  0  0  0
M  END
>  <MODEL>
9

>  <REMARK>
 VINA RESULT:      -6.7      3.065      7.012
  Name = 
  15 active torsions:
  status: ('A' for Active; 'I' for Inactive)
    1  A    between atoms: C_2  and  C_27
    2  A    between atoms: C_2  and  C_55
    3  A    between atoms: C_6  and  C_20
    4  A    between atoms: C_10  and  C_14
    5  A    between atoms: C_12  and  C_55
    6  A    between atoms: C_13  and  C_15
    7  A    between atoms: C_14  and  C_54
    8  A    between atoms: C_20  and  C_53
    9  A    between atoms: C_23  and  C_27
   10  A    between atoms: C_23  and  C_34
   11  A    between atoms: C_27  and  N_50
   12  A    between atoms: C_30  and  C_45
   13  A    between atoms: C_33  and  C_46
   14  A    between atoms: C_34  and  C_49
   15  A    between atoms: C_37  and  N_50
                            x       y       z     vdW  Elec       q    Type
                         _______ _______ _______ _____ _____    ______ ____

>  <TORSDO>
F 15

$$$$
