=
 OpenBabel11042417163D

 31 35  0  0  1  0  0  0  0  0999 V2000
  189.2860  176.6600  145.6350 C   0  0  1  0  0  3  0  0  0  0  0  0
  184.8350  178.3120  142.2410 C   0  0  0  0  0  0  0  0  0  0  0  0
  184.7120  178.6920  144.3810 C   0  0  0  0  0  0  0  0  0  0  0  0
  185.6120  178.3950  143.3740 C   0  0  1  0  0  3  0  0  0  0  0  0
  183.5510  178.5700  142.5530 N   0  0  0  0  0  0  0  0  0  0  0  0
  185.3070  177.9900  140.8660 C   0  0  0  0  0  1  0  0  0  0  0  0
  187.7540  176.6990  145.5270 C   0  0  1  0  0  3  0  0  0  0  0  0
  187.0710  178.0890  143.4930 C   0  0  0  0  0  2  0  0  0  0  0  0
  187.1200  177.7580  146.4330 C   0  0  0  0  0  2  0  0  0  0  0  0
  183.4760  178.8000  143.8580 N   0  0  0  0  0  0  0  0  0  0  0  0
  185.0070  178.9020  145.8340 C   0  0  0  0  0  2  0  0  0  0  0  0
  185.6050  177.6530  146.4620 C   0  0  0  0  0  2  0  0  0  0  0  0
  187.2540  176.6920  144.0770 C   0  0  0  0  0  2  0  0  0  0  0  0
  189.8150  173.1730  145.3910 O   0  0  0  0  0  0  0  0  0  0  0  0
  189.8680  175.5750  146.5560 C   0  0  2  0  0  0  0  0  0  0  0  0
  189.6080  174.1340  146.1100 C   0  0  0  0  0  0  0  0  0  0  0  0
  188.8710  174.8250  147.2610 C   0  0  0  0  0  2  0  0  0  0  0  0
  191.2570  177.0010  148.2420 C   0  0  0  0  0  1  0  0  0  0  0  0
  191.1300  175.8100  147.3490 C   0  0  0  0  0  0  0  0  0  0  0  0
  192.1030  174.8980  147.3610 C   0  0  0  0  0  2  0  0  0  0  0  0
  189.8660  176.5920  144.3350 O   0  0  0  0  0  0  0  0  0  0  0  0
  191.0350  177.2830  143.9950 C   0  0  0  0  0  0  0  0  0  0  0  0
  190.9970  178.5410  143.9180 O   0  0  0  0  0  0  0  0  0  0  0  0
  193.6240  175.6460  142.2090 C   0  0  2  0  0  3  0  0  0  0  0  0
  193.5250  174.9040  143.5290 C   0  0  1  0  0  3  0  0  0  0  0  0
  192.8010  176.7740  142.4090 O   0  0  0  0  0  0  0  0  0  0  0  0
  193.4380  176.9450  144.7040 C   0  0  0  0  0  2  0  0  0  0  0  0
  194.3350  175.7260  144.5310 C   0  0  0  0  0  2  0  0  0  0  0  0
  193.1040  174.8600  141.1800 O   0  0  0  0  0  1  0  0  0  0  0  0
  192.2140  175.1830  143.8810 O   0  0  0  0  0  0  0  0  0  0  0  0
  192.3330  176.5640  143.7280 C   0  0  1  0  0  0  0  0  0  0  0  0
  1 21  1  6  0  0  0
  1 15  1  0  0  0  0
  2  5  2  0  0  0  0
  2  4  1  0  0  0  0
  3 11  1  0  0  0  0
  4  8  1  1  0  0  0
  4  3  1  0  0  0  0
  5 10  1  0  0  0  0
  6  2  1  0  0  0  0
  7  1  1  6  0  0  0
  7  9  1  0  0  0  0
  8 13  1  0  0  0  0
  9 12  1  0  0  0  0
 10  3  2  0  0  0  0
 11 12  1  0  0  0  0
 13  7  1  0  0  0  0
 14 16  2  0  0  0  0
 15 17  1  0  0  0  0
 15 19  1  1  0  0  0
 16 15  1  0  0  0  0
 16 17  1  0  0  0  0
 19 20  2  0  0  0  0
 19 18  1  0  0  0  0
 22 21  1  0  0  0  0
 23 22  2  0  0  0  0
 24 29  1  6  0  0  0
 24 26  1  0  0  0  0
 24 25  1  0  0  0  0
 25 30  1  0  0  0  0
 25 28  1  1  0  0  0
 26 31  1  0  0  0  0
 28 27  1  0  0  0  0
 31 30  1  0  0  0  0
 31 22  1  1  0  0  0
 31 27  1  0  0  0  0
M  END
>  <MODEL>
1

>  <REMARK>
 VINA RESULT:      -7.9      0.000      0.000
  Name = 
  6 active torsions:
  status: ('A' for Active; 'I' for Inactive)
    1  A    between atoms: O_2  and  C_11
    2  A    between atoms: O_2  and  C_27
    3  A    between atoms: C_11  and  C_28
    4  A    between atoms: C_14  and  C_20
    5  A    between atoms: C_14  and  C_27
    6  A    between atoms: C_17  and  C_27
                            x       y       z     vdW  Elec       q    Type
                         _______ _______ _______ _____ _____    ______ ____

>  <TORSDO>
F 6

$$$$
=
 OpenBabel11042417163D

 31 35  0  0  1  0  0  0  0  0999 V2000
  189.4600  176.5330  145.3310 C   0  0  1  0  0  3  0  0  0  0  0  0
  185.2280  178.0930  141.6270 C   0  0  0  0  0  0  0  0  0  0  0  0
  184.9520  178.4860  143.7500 C   0  0  0  0  0  0  0  0  0  0  0  0
  185.9240  178.1960  142.8090 C   0  0  1  0  0  3  0  0  0  0  0  0
  183.9210  178.3320  141.8480 N   0  0  0  0  0  0  0  0  0  0  0  0
  185.7980  177.7690  140.2890 C   0  0  0  0  0  1  0  0  0  0  0  0
  187.9390  176.5480  145.1170 C   0  0  1  0  0  3  0  0  0  0  0  0
  187.3760  177.9140  143.0300 C   0  0  0  0  0  2  0  0  0  0  0  0
  187.2280  177.6030  145.9690 C   0  0  0  0  0  2  0  0  0  0  0  0
  183.7540  178.5700  143.1420 N   0  0  0  0  0  0  0  0  0  0  0  0
  185.1440  178.7100  145.2180 C   0  0  0  0  0  2  0  0  0  0  0  0
  185.7170  177.4740  145.8950 C   0  0  0  0  0  2  0  0  0  0  0  0
  187.5390  176.5240  143.6360 C   0  0  0  0  0  2  0  0  0  0  0  0
  189.8810  173.0230  145.3550 O   0  0  0  0  0  0  0  0  0  0  0  0
  189.9880  175.5020  146.3410 C   0  0  2  0  0  0  0  0  0  0  0  0
  189.6910  174.0410  145.9970 C   0  0  0  0  0  0  0  0  0  0  0  0
  188.9530  174.8380  147.0770 C   0  0  0  0  0  2  0  0  0  0  0  0
  191.2940  176.8700  148.1380 C   0  0  0  0  0  1  0  0  0  0  0  0
  191.2410  175.7570  147.1430 C   0  0  0  0  0  0  0  0  0  0  0  0
  192.2760  174.9200  147.0660 C   0  0  0  0  0  2  0  0  0  0  0  0
  190.1280  176.4100  144.0770 O   0  0  0  0  0  0  0  0  0  0  0  0
  191.3920  176.9620  143.8400 C   0  0  0  0  0  0  0  0  0  0  0  0
  191.5360  178.2110  143.9310 O   0  0  0  0  0  0  0  0  0  0  0  0
  194.7380  175.7940  143.7360 C   0  0  2  0  0  3  0  0  0  0  0  0
  194.1930  175.5540  142.3410 C   0  0  1  0  0  3  0  0  0  0  0  0
  193.5910  176.1540  144.4740 O   0  0  0  0  0  0  0  0  0  0  0  0
  192.2110  174.6480  143.2380 C   0  0  0  0  0  2  0  0  0  0  0  0
  193.4240  174.2350  142.4140 C   0  0  0  0  0  2  0  0  0  0  0  0
  195.6410  176.8590  143.7190 O   0  0  0  0  0  1  0  0  0  0  0  0
  193.1840  176.5030  142.2930 O   0  0  0  0  0  0  0  0  0  0  0  0
  192.5800  176.1040  143.4860 C   0  0  1  0  0  0  0  0  0  0  0  0
  1 21  1  6  0  0  0
  1 15  1  0  0  0  0
  2  5  2  0  0  0  0
  2  4  1  0  0  0  0
  3 11  1  0  0  0  0
  4  8  1  1  0  0  0
  4  3  1  0  0  0  0
  5 10  1  0  0  0  0
  6  2  1  0  0  0  0
  7  1  1  6  0  0  0
  7  9  1  0  0  0  0
  8 13  1  0  0  0  0
 10  3  2  0  0  0  0
 11 12  1  0  0  0  0
 12  9  1  0  0  0  0
 13  7  1  0  0  0  0
 14 16  2  0  0  0  0
 15 17  1  0  0  0  0
 15 19  1  1  0  0  0
 16 15  1  0  0  0  0
 16 17  1  0  0  0  0
 19 18  1  0  0  0  0
 20 19  2  0  0  0  0
 22 23  2  0  0  0  0
 22 21  1  0  0  0  0
 24 29  1  6  0  0  0
 24 26  1  0  0  0  0
 25 28  1  1  0  0  0
 25 24  1  0  0  0  0
 27 31  1  0  0  0  0
 28 27  1  0  0  0  0
 30 25  1  0  0  0  0
 30 31  1  0  0  0  0
 31 22  1  1  0  0  0
 31 26  1  0  0  0  0
M  END
>  <MODEL>
2

>  <REMARK>
 VINA RESULT:      -7.6      0.894      1.353
  Name = 
  6 active torsions:
  status: ('A' for Active; 'I' for Inactive)
    1  A    between atoms: O_2  and  C_11
    2  A    between atoms: O_2  and  C_27
    3  A    between atoms: C_11  and  C_28
    4  A    between atoms: C_14  and  C_20
    5  A    between atoms: C_14  and  C_27
    6  A    between atoms: C_17  and  C_27
                            x       y       z     vdW  Elec       q    Type
                         _______ _______ _______ _____ _____    ______ ____

>  <TORSDO>
F 6

$$$$
=
 OpenBabel11042417163D

 31 35  0  0  1  0  0  0  0  0999 V2000
  190.4760  175.3660  144.4210 C   0  0  1  0  0  3  0  0  0  0  0  0
  185.9050  178.8920  145.2780 C   0  0  0  0  0  0  0  0  0  0  0  0
  186.5390  178.4860  143.2360 C   0  0  0  0  0  0  0  0  0  0  0  0
  186.6530  178.0120  144.5300 C   0  0  1  0  0  3  0  0  0  0  0  0
  185.3570  179.8210  144.4710 N   0  0  0  0  0  0  0  0  0  0  0  0
  185.7070  178.8540  146.7540 C   0  0  0  0  0  1  0  0  0  0  0  0
  189.8160  176.6780  143.9690 C   0  0  1  0  0  3  0  0  0  0  0  0
  187.5040  176.8920  145.0380 C   0  0  0  0  0  2  0  0  0  0  0  0
  189.1440  176.5650  142.5970 C   0  0  0  0  0  2  0  0  0  0  0  0
  185.7460  179.5730  143.2270 N   0  0  0  0  0  0  0  0  0  0  0  0
  187.1520  177.9090  141.9980 C   0  0  0  0  0  2  0  0  0  0  0  0
  188.6710  177.9130  142.0800 C   0  0  0  0  0  2  0  0  0  0  0  0
  188.9640  177.3320  145.0640 C   0  0  0  0  0  2  0  0  0  0  0  0
  193.4180  177.0480  145.4260 O   0  0  0  0  0  0  0  0  0  0  0  0
  191.3060  175.4410  145.7120 C   0  0  2  0  0  0  0  0  0  0  0  0
  192.6860  176.0840  145.5640 C   0  0  0  0  0  0  0  0  0  0  0  0
  192.4500  174.5780  145.7090 C   0  0  0  0  0  2  0  0  0  0  0  0
  189.4780  174.7240  147.4310 C   0  0  0  0  0  1  0  0  0  0  0  0
  190.6470  175.5780  147.0630 C   0  0  0  0  0  0  0  0  0  0  0  0
  191.1730  176.3740  147.9950 C   0  0  0  0  0  2  0  0  0  0  0  0
  189.5000  174.3310  144.4990 O   0  0  0  0  0  0  0  0  0  0  0  0
  189.7270  173.0420  144.0020 C   0  0  0  0  0  0  0  0  0  0  0  0
  190.0590  172.1300  144.8070 O   0  0  0  0  0  0  0  0  0  0  0  0
  190.2100  171.4110  140.8910 C   0  0  2  0  0  3  0  0  0  0  0  0
  190.0560  172.8800  140.5460 C   0  0  1  0  0  3  0  0  0  0  0  0
  189.8600  171.3600  142.2560 O   0  0  0  0  0  0  0  0  0  0  0  0
  188.2000  173.0550  141.9870 C   0  0  0  0  0  2  0  0  0  0  0  0
  188.5510  173.1440  140.5080 C   0  0  0  0  0  2  0  0  0  0  0  0
  191.5400  171.0190  140.7310 O   0  0  0  0  0  1  0  0  0  0  0  0
  190.4480  173.4650  141.7400 O   0  0  0  0  0  0  0  0  0  0  0  0
  189.5790  172.7180  142.5370 C   0  0  1  0  0  0  0  0  0  0  0  0
  1 21  1  1  0  0  0
  1 15  1  0  0  0  0
  2  6  1  0  0  0  0
  3  4  1  0  0  0  0
  4  8  1  1  0  0  0
  4  2  1  0  0  0  0
  5  2  2  0  0  0  0
  7  1  1  1  0  0  0
  7 13  1  0  0  0  0
  8 13  1  0  0  0  0
  9  7  1  0  0  0  0
 10  3  2  0  0  0  0
 10  5  1  0  0  0  0
 11 12  1  0  0  0  0
 11  3  1  0  0  0  0
 12  9  1  0  0  0  0
 14 16  2  0  0  0  0
 15 19  1  1  0  0  0
 16 17  1  0  0  0  0
 16 15  1  0  0  0  0
 17 15  1  0  0  0  0
 19 18  1  0  0  0  0
 19 20  2  0  0  0  0
 22 21  1  0  0  0  0
 22 23  2  0  0  0  0
 24 29  1  1  0  0  0
 24 26  1  0  0  0  0
 25 28  1  1  0  0  0
 25 24  1  0  0  0  0
 25 30  1  0  0  0  0
 26 31  1  0  0  0  0
 27 31  1  0  0  0  0
 28 27  1  0  0  0  0
 30 31  1  0  0  0  0
 31 22  1  1  0  0  0
M  END
>  <MODEL>
3

>  <REMARK>
 VINA RESULT:      -7.3      2.629      4.211
  Name = 
  6 active torsions:
  status: ('A' for Active; 'I' for Inactive)
    1  A    between atoms: O_2  and  C_11
    2  A    between atoms: O_2  and  C_27
    3  A    between atoms: C_11  and  C_28
    4  A    between atoms: C_14  and  C_20
    5  A    between atoms: C_14  and  C_27
    6  A    between atoms: C_17  and  C_27
                            x       y       z     vdW  Elec       q    Type
                         _______ _______ _______ _____ _____    ______ ____

>  <TORSDO>
F 6

$$$$
=
 OpenBabel11042417163D

 31 35  0  0  1  0  0  0  0  0999 V2000
  189.9690  175.9120  144.5780 C   0  0  1  0  0  3  0  0  0  0  0  0
  185.8060  177.9630  141.0390 C   0  0  0  0  0  0  0  0  0  0  0  0
  185.6920  178.4290  143.1630 C   0  0  0  0  0  0  0  0  0  0  0  0
  186.5680  177.9930  142.1850 C   0  0  1  0  0  3  0  0  0  0  0  0
  184.5560  178.3820  141.3150 N   0  0  0  0  0  0  0  0  0  0  0  0
  186.2600  177.5410  139.6850 C   0  0  0  0  0  1  0  0  0  0  0  0
  188.4550  176.1290  144.4360 C   0  0  1  0  0  3  0  0  0  0  0  0
  187.9770  177.5200  142.3450 C   0  0  0  0  0  2  0  0  0  0  0  0
  187.9360  177.2870  145.2940 C   0  0  0  0  0  2  0  0  0  0  0  0
  184.4870  178.6630  142.6100 N   0  0  0  0  0  0  0  0  0  0  0  0
  185.9850  178.6520  144.6140 C   0  0  0  0  0  2  0  0  0  0  0  0
  186.4190  177.3630  145.2940 C   0  0  0  0  0  2  0  0  0  0  0  0
  187.9820  176.1320  142.9760 C   0  0  0  0  0  2  0  0  0  0  0  0
  188.9400  174.5410  147.6700 O   0  0  0  0  0  0  0  0  0  0  0  0
  190.3990  174.7150  145.4410 C   0  0  2  0  0  0  0  0  0  0  0  0
  189.8410  174.7030  146.8650 C   0  0  0  0  0  0  0  0  0  0  0  0
  191.2850  175.0670  146.5110 C   0  0  0  0  0  2  0  0  0  0  0  0
  192.0840  172.8390  144.7710 C   0  0  0  0  0  1  0  0  0  0  0  0
  190.6880  173.3670  144.8260 C   0  0  0  0  0  0  0  0  0  0  0  0
  189.6900  172.5740  144.4340 C   0  0  0  0  0  2  0  0  0  0  0  0
  190.5780  175.8610  143.2910 O   0  0  0  0  0  0  0  0  0  0  0  0
  191.7010  176.6260  142.9580 C   0  0  0  0  0  0  0  0  0  0  0  0
  191.5790  177.8770  142.8670 O   0  0  0  0  0  0  0  0  0  0  0  0
  195.0980  175.7360  143.4520 C   0  0  2  0  0  3  0  0  0  0  0  0
  194.9560  175.9330  141.9550 C   0  0  1  0  0  3  0  0  0  0  0  0
  193.7650  175.7750  143.9120 O   0  0  0  0  0  0  0  0  0  0  0  0
  192.9610  174.6800  141.9490 C   0  0  0  0  0  2  0  0  0  0  0  0
  194.3860  174.6220  141.4140 C   0  0  0  0  0  2  0  0  0  0  0  0
  195.8190  176.7960  144.0070 O   0  0  0  0  0  1  0  0  0  0  0  0
  193.8680  176.7900  141.9120 O   0  0  0  0  0  0  0  0  0  0  0  0
  193.0480  175.9940  142.7120 C   0  0  1  0  0  0  0  0  0  0  0  0
  1 21  1  6  0  0  0
  1 15  1  0  0  0  0
  2  5  2  0  0  0  0
  2  4  1  0  0  0  0
  3 11  1  0  0  0  0
  4  8  1  1  0  0  0
  4  3  1  0  0  0  0
  5 10  1  0  0  0  0
  6  2  1  0  0  0  0
  7  1  1  6  0  0  0
  7  9  1  0  0  0  0
  8 13  1  0  0  0  0
 10  3  2  0  0  0  0
 11 12  1  0  0  0  0
 12  9  1  0  0  0  0
 13  7  1  0  0  0  0
 15 19  1  6  0  0  0
 15 17  1  0  0  0  0
 15 16  1  0  0  0  0
 16 14  2  0  0  0  0
 17 16  1  0  0  0  0
 18 19  1  0  0  0  0
 20 19  2  0  0  0  0
 22 21  1  0  0  0  0
 23 22  2  0  0  0  0
 24 26  1  0  0  0  0
 24 29  1  1  0  0  0
 25 28  1  6  0  0  0
 25 24  1  0  0  0  0
 27 31  1  0  0  0  0
 28 27  1  0  0  0  0
 30 25  1  0  0  0  0
 30 31  1  0  0  0  0
 31 22  1  1  0  0  0
 31 26  1  0  0  0  0
M  END
>  <MODEL>
4

>  <REMARK>
 VINA RESULT:      -7.1      1.583      2.437
  Name = 
  6 active torsions:
  status: ('A' for Active; 'I' for Inactive)
    1  A    between atoms: O_2  and  C_11
    2  A    between atoms: O_2  and  C_27
    3  A    between atoms: C_11  and  C_28
    4  A    between atoms: C_14  and  C_20
    5  A    between atoms: C_14  and  C_27
    6  A    between atoms: C_17  and  C_27
                            x       y       z     vdW  Elec       q    Type
                         _______ _______ _______ _____ _____    ______ ____

>  <TORSDO>
F 6

$$$$
=
 OpenBabel11042417163D

 31 35  0  0  1  0  0  0  0  0999 V2000
  189.2100  175.4410  144.0470 C   0  0  1  0  0  3  0  0  0  0  0  0
  189.1090  172.5090  139.0020 C   0  0  0  0  0  0  0  0  0  0  0  0
  189.9700  171.5430  140.7520 C   0  0  0  0  0  0  0  0  0  0  0  0
  189.1470  172.5880  140.3750 C   0  0  1  0  0  3  0  0  0  0  0  0
  189.8470  171.4610  138.5880 N   0  0  0  0  0  0  0  0  0  0  0  0
  188.3750  173.4220  138.0830 C   0  0  0  0  0  1  0  0  0  0  0  0
  190.0320  174.5290  143.1230 C   0  0  1  0  0  3  0  0  0  0  0  0
  188.5470  173.6540  141.2350 C   0  0  0  0  0  2  0  0  0  0  0  0
  190.1560  173.0990  143.6550 C   0  0  0  0  0  2  0  0  0  0  0  0
  190.3730  170.8750  139.6550 N   0  0  0  0  0  0  0  0  0  0  0  0
  190.3640  171.1490  142.1420 C   0  0  0  0  0  2  0  0  0  0  0  0
  191.1270  172.2660  142.8370 C   0  0  0  0  0  2  0  0  0  0  0  0
  189.6280  174.6470  141.6480 C   0  0  0  0  0  2  0  0  0  0  0  0
  190.7280  178.6310  144.1790 O   0  0  0  0  0  0  0  0  0  0  0  0
  190.0080  176.2300  145.0970 C   0  0  2  0  0  0  0  0  0  0  0  0
  190.7210  177.4780  144.5730 C   0  0  0  0  0  0  0  0  0  0  0  0
  191.4270  176.1620  144.9090 C   0  0  0  0  0  2  0  0  0  0  0  0
  189.1530  175.0130  147.2410 C   0  0  0  0  0  1  0  0  0  0  0  0
  189.5840  176.2620  146.5460 C   0  0  0  0  0  0  0  0  0  0  0  0
  189.7050  177.3810  147.2610 C   0  0  0  0  0  2  0  0  0  0  0  0
  188.3890  176.3100  143.2710 O   0  0  0  0  0  0  0  0  0  0  0  0
  187.0000  176.3790  143.4350 C   0  0  0  0  0  0  0  0  0  0  0  0
  186.2650  175.6650  142.7000 O   0  0  0  0  0  0  0  0  0  0  0  0
  185.1340  179.0580  144.8180 C   0  0  2  0  0  3  0  0  0  0  0  0
  186.3160  178.8780  145.7510 C   0  0  1  0  0  3  0  0  0  0  0  0
  185.2130  177.9300  143.9740 O   0  0  0  0  0  0  0  0  0  0  0  0
  186.0010  176.5430  145.7510 C   0  0  0  0  0  2  0  0  0  0  0  0
  185.9350  177.7380  146.6940 C   0  0  0  0  0  2  0  0  0  0  0  0
  185.2940  180.2220  144.0640 O   0  0  0  0  0  1  0  0  0  0  0  0
  187.2310  178.2850  144.8940 O   0  0  0  0  0  0  0  0  0  0  0  0
  186.3660  177.2760  144.4670 C   0  0  1  0  0  0  0  0  0  0  0  0
  1 21  1  6  0  0  0
  1 15  1  0  0  0  0
  2  4  1  0  0  0  0
  3 11  1  0  0  0  0
  4  3  1  0  0  0  0
  4  8  1  6  0  0  0
  5  2  2  0  0  0  0
  5 10  1  0  0  0  0
  6  2  1  0  0  0  0
  7  9  1  0  0  0  0
  7  1  1  1  0  0  0
  8 13  1  0  0  0  0
 10  3  2  0  0  0  0
 11 12  1  0  0  0  0
 12  9  1  0  0  0  0
 13  7  1  0  0  0  0
 14 16  2  0  0  0  0
 15 19  1  1  0  0  0
 16 17  1  0  0  0  0
 16 15  1  0  0  0  0
 17 15  1  0  0  0  0
 19 18  1  0  0  0  0
 19 20  2  0  0  0  0
 21 22  1  0  0  0  0
 23 22  2  0  0  0  0
 24 29  1  6  0  0  0
 24 25  1  0  0  0  0
 25 28  1  1  0  0  0
 26 31  1  0  0  0  0
 26 24  1  0  0  0  0
 27 28  1  0  0  0  0
 30 25  1  0  0  0  0
 31 22  1  6  0  0  0
 31 30  1  0  0  0  0
 31 27  1  0  0  0  0
M  END
>  <MODEL>
5

>  <REMARK>
 VINA RESULT:      -7.1      4.240      6.790
  Name = 
  6 active torsions:
  status: ('A' for Active; 'I' for Inactive)
    1  A    between atoms: O_2  and  C_11
    2  A    between atoms: O_2  and  C_27
    3  A    between atoms: C_11  and  C_28
    4  A    between atoms: C_14  and  C_20
    5  A    between atoms: C_14  and  C_27
    6  A    between atoms: C_17  and  C_27
                            x       y       z     vdW  Elec       q    Type
                         _______ _______ _______ _____ _____    ______ ____

>  <TORSDO>
F 6

$$$$
=
 OpenBabel11042417163D

 31 35  0  0  1  0  0  0  0  0999 V2000
  191.5640  176.5210  145.0070 C   0  0  1  0  0  3  0  0  0  0  0  0
  186.1380  178.6700  145.0470 C   0  0  0  0  0  0  0  0  0  0  0  0
  187.0060  178.0670  143.1450 C   0  0  0  0  0  0  0  0  0  0  0  0
  187.1550  177.9140  144.5110 C   0  0  1  0  0  3  0  0  0  0  0  0
  185.4110  179.2200  144.0560 N   0  0  0  0  0  0  0  0  0  0  0  0
  185.8530  178.8700  146.4950 C   0  0  0  0  0  1  0  0  0  0  0  0
  190.5970  177.4680  144.2800 C   0  0  1  0  0  3  0  0  0  0  0  0
  188.2470  177.2120  145.2540 C   0  0  0  0  0  2  0  0  0  0  0  0
  190.0850  176.8950  142.9560 C   0  0  0  0  0  2  0  0  0  0  0  0
  185.9430  178.8530  142.8970 N   0  0  0  0  0  0  0  0  0  0  0  0
  187.8440  177.4570  142.0630 C   0  0  0  0  0  2  0  0  0  0  0  0
  189.2910  177.9160  142.1600 C   0  0  0  0  0  2  0  0  0  0  0  0
  189.5190  178.0510  145.2030 C   0  0  0  0  0  2  0  0  0  0  0  0
  192.3760  173.0810  144.9220 O   0  0  0  0  0  0  0  0  0  0  0  0
  190.9440  175.2360  145.5800 C   0  0  2  0  0  0  0  0  0  0  0  0
  191.5090  173.9320  145.0140 C   0  0  0  0  0  0  0  0  0  0  0  0
  190.1440  174.5140  144.6350 C   0  0  0  0  0  2  0  0  0  0  0  0
  189.1030  174.5410  147.2930 C   0  0  0  0  0  1  0  0  0  0  0  0
  190.4200  175.1790  146.9950 C   0  0  0  0  0  0  0  0  0  0  0  0
  191.1780  175.5850  148.0140 C   0  0  0  0  0  2  0  0  0  0  0  0
  192.6770  176.2220  144.1690 O   0  0  0  0  0  0  0  0  0  0  0  0
  194.0010  176.4280  144.5720 C   0  0  0  0  0  0  0  0  0  0  0  0
  194.2180  176.9740  145.6880 O   0  0  0  0  0  0  0  0  0  0  0  0
  196.9440  174.7310  143.5580 C   0  0  2  0  0  3  0  0  0  0  0  0
  197.0940  176.1380  143.0140 C   0  0  1  0  0  3  0  0  0  0  0  0
  195.6080  174.6980  144.0100 O   0  0  0  0  0  0  0  0  0  0  0  0
  194.8750  176.1010  142.2230 C   0  0  0  0  0  2  0  0  0  0  0  0
  196.3060  176.1660  141.7050 C   0  0  0  0  0  2  0  0  0  0  0  0
  197.8110  174.5410  144.6360 O   0  0  0  0  0  1  0  0  0  0  0  0
  196.2760  176.8390  143.8880 O   0  0  0  0  0  0  0  0  0  0  0  0
  195.1680  176.0100  143.7140 C   0  0  1  0  0  0  0  0  0  0  0  0
  1 21  1  6  0  0  0
  1 15  1  0  0  0  0
  2  6  1  0  0  0  0
  3  4  1  0  0  0  0
  4  2  1  0  0  0  0
  4  8  1  1  0  0  0
  5  2  2  0  0  0  0
  7  1  1  1  0  0  0
  7 13  1  0  0  0  0
  9  7  1  0  0  0  0
 10  3  2  0  0  0  0
 10  5  1  0  0  0  0
 11 12  1  0  0  0  0
 11  3  1  0  0  0  0
 12  9  1  0  0  0  0
 13  8  1  0  0  0  0
 14 16  2  0  0  0  0
 15 19  1  1  0  0  0
 16 15  1  0  0  0  0
 17 16  1  0  0  0  0
 17 15  1  0  0  0  0
 19 18  1  0  0  0  0
 19 20  2  0  0  0  0
 21 22  1  0  0  0  0
 22 23  2  0  0  0  0
 24 26  1  0  0  0  0
 24 29  1  1  0  0  0
 25 28  1  6  0  0  0
 25 24  1  0  0  0  0
 25 30  1  0  0  0  0
 27 31  1  0  0  0  0
 28 27  1  0  0  0  0
 31 30  1  0  0  0  0
 31 26  1  0  0  0  0
 31 22  1  1  0  0  0
M  END
>  <MODEL>
6

>  <REMARK>
 VINA RESULT:      -7.0      2.186      3.458
  Name = 
  6 active torsions:
  status: ('A' for Active; 'I' for Inactive)
    1  A    between atoms: O_2  and  C_11
    2  A    between atoms: O_2  and  C_27
    3  A    between atoms: C_11  and  C_28
    4  A    between atoms: C_14  and  C_20
    5  A    between atoms: C_14  and  C_27
    6  A    between atoms: C_17  and  C_27
                            x       y       z     vdW  Elec       q    Type
                         _______ _______ _______ _____ _____    ______ ____

>  <TORSDO>
F 6

$$$$
=
 OpenBabel11042417163D

 31 35  0  0  1  0  0  0  0  0999 V2000
  190.9240  176.1700  144.3960 C   0  0  1  0  0  3  0  0  0  0  0  0
  185.8580  178.8620  145.4680 C   0  0  0  0  0  0  0  0  0  0  0  0
  186.2970  178.2400  143.4290 C   0  0  0  0  0  0  0  0  0  0  0  0
  186.6730  178.0250  144.7420 C   0  0  1  0  0  3  0  0  0  0  0  0
  185.0270  179.5190  144.6360 N   0  0  0  0  0  0  0  0  0  0  0  0
  185.8640  179.0400  146.9470 C   0  0  0  0  0  1  0  0  0  0  0  0
  189.9480  177.2370  143.8750 C   0  0  1  0  0  3  0  0  0  0  0  0
  187.8000  177.1900  145.2600 C   0  0  0  0  0  2  0  0  0  0  0  0
  189.1460  176.7660  142.6590 C   0  0  0  0  0  2  0  0  0  0  0  0
  185.2960  179.1400  143.3940 N   0  0  0  0  0  0  0  0  0  0  0  0
  186.8540  177.5860  142.2030 C   0  0  0  0  0  2  0  0  0  0  0  0
  188.3350  177.8910  142.0390 C   0  0  0  0  0  2  0  0  0  0  0  0
  189.1250  177.8950  144.9890 C   0  0  0  0  0  2  0  0  0  0  0  0
  191.2780  172.6530  144.4320 O   0  0  0  0  0  0  0  0  0  0  0  0
  190.2950  175.0160  145.1930 C   0  0  2  0  0  0  0  0  0  0  0  0
  190.5600  173.6170  144.6330 C   0  0  0  0  0  0  0  0  0  0  0  0
  189.2260  174.3570  144.5030 C   0  0  0  0  0  2  0  0  0  0  0  0
  190.9960  175.9530  147.5250 C   0  0  0  0  0  1  0  0  0  0  0  0
  190.0930  175.1100  146.6860 C   0  0  0  0  0  0  0  0  0  0  0  0
  189.0330  174.5420  147.2630 C   0  0  0  0  0  2  0  0  0  0  0  0
  191.7240  175.6760  143.3260 O   0  0  0  0  0  0  0  0  0  0  0  0
  193.0710  176.0240  143.1700 C   0  0  0  0  0  0  0  0  0  0  0  0
  193.4720  176.4140  142.0400 O   0  0  0  0  0  0  0  0  0  0  0  0
  196.0370  175.2930  144.9710 C   0  0  2  0  0  3  0  0  0  0  0  0
  194.9100  175.0770  145.9630 C   0  0  1  0  0  3  0  0  0  0  0  0
  195.3910  175.9010  143.8750 O   0  0  0  0  0  0  0  0  0  0  0  0
  193.9000  177.1010  145.3020 C   0  0  0  0  0  2  0  0  0  0  0  0
  194.5670  176.4620  146.5130 C   0  0  0  0  0  2  0  0  0  0  0  0
  196.5710  174.0630  144.5810 O   0  0  0  0  0  1  0  0  0  0  0  0
  193.8570  174.8120  145.1010 O   0  0  0  0  0  0  0  0  0  0  0  0
  194.0480  175.9500  144.3160 C   0  0  1  0  0  0  0  0  0  0  0  0
  1 21  1  6  0  0  0
  1 15  1  0  0  0  0
  2  6  1  0  0  0  0
  3  4  1  0  0  0  0
  4  8  1  6  0  0  0
  4  2  1  0  0  0  0
  5  2  2  0  0  0  0
  7  1  1  1  0  0  0
  7 13  1  0  0  0  0
  9  7  1  0  0  0  0
 10  3  2  0  0  0  0
 10  5  1  0  0  0  0
 11  3  1  0  0  0  0
 12 11  1  0  0  0  0
 12  9  1  0  0  0  0
 13  8  1  0  0  0  0
 14 16  2  0  0  0  0
 15 19  1  1  0  0  0
 16 15  1  0  0  0  0
 17 16  1  0  0  0  0
 17 15  1  0  0  0  0
 19 20  2  0  0  0  0
 19 18  1  0  0  0  0
 22 21  1  0  0  0  0
 23 22  2  0  0  0  0
 24 29  1  6  0  0  0
 24 25  1  0  0  0  0
 25 28  1  6  0  0  0
 26 31  1  0  0  0  0
 26 24  1  0  0  0  0
 27 28  1  0  0  0  0
 30 25  1  0  0  0  0
 31 22  1  6  0  0  0
 31 30  1  0  0  0  0
 31 27  1  0  0  0  0
M  END
>  <MODEL>
7

>  <REMARK>
 VINA RESULT:      -7.0      1.696      3.004
  Name = 
  6 active torsions:
  status: ('A' for Active; 'I' for Inactive)
    1  A    between atoms: O_2  and  C_11
    2  A    between atoms: O_2  and  C_27
    3  A    between atoms: C_11  and  C_28
    4  A    between atoms: C_14  and  C_20
    5  A    between atoms: C_14  and  C_27
    6  A    between atoms: C_17  and  C_27
                            x       y       z     vdW  Elec       q    Type
                         _______ _______ _______ _____ _____    ______ ____

>  <TORSDO>
F 6

$$$$
=
 OpenBabel11042417163D

 31 35  0  0  1  0  0  0  0  0999 V2000
  190.1500  176.3530  144.4530 C   0  0  1  0  0  3  0  0  0  0  0  0
  195.4240  176.0680  141.9700 C   0  0  0  0  0  0  0  0  0  0  0  0
  195.2890  175.9980  144.1410 C   0  0  0  0  0  0  0  0  0  0  0  0
  194.5350  175.8340  142.9940 C   0  0  1  0  0  3  0  0  0  0  0  0
  196.6430  176.3310  142.4800 N   0  0  0  0  0  0  0  0  0  0  0  0
  195.1220  176.0410  140.5120 C   0  0  0  0  0  1  0  0  0  0  0  0
  191.5970  176.8620  144.5460 C   0  0  1  0  0  3  0  0  0  0  0  0
  193.0630  175.5990  142.8750 C   0  0  0  0  0  2  0  0  0  0  0  0
  192.3840  176.2130  145.6890 C   0  0  0  0  0  2  0  0  0  0  0  0
  196.5590  176.2900  143.8030 N   0  0  0  0  0  0  0  0  0  0  0  0
  194.8310  175.8580  145.5600 C   0  0  0  0  0  2  0  0  0  0  0  0
  193.7410  176.8650  145.8900 C   0  0  0  0  0  2  0  0  0  0  0  0
  192.3140  176.8890  143.1900 C   0  0  0  0  0  2  0  0  0  0  0  0
  187.1750  177.5130  145.9700 O   0  0  0  0  0  0  0  0  0  0  0  0
  189.4370  176.1050  145.7910 C   0  0  2  0  0  0  0  0  0  0  0  0
  188.3050  177.0820  146.1180 C   0  0  0  0  0  0  0  0  0  0  0  0
  189.6890  177.1180  146.7730 C   0  0  0  0  0  2  0  0  0  0  0  0
  189.7130  173.5200  145.5700 C   0  0  0  0  0  1  0  0  0  0  0  0
  189.3060  174.7150  146.3670 C   0  0  0  0  0  0  0  0  0  0  0  0
  188.9410  174.5410  147.6380 C   0  0  0  0  0  2  0  0  0  0  0  0
  189.3830  177.2140  143.6160 O   0  0  0  0  0  0  0  0  0  0  0  0
  188.5280  176.7300  142.6190 C   0  0  0  0  0  0  0  0  0  0  0  0
  188.8170  175.6450  142.0450 O   0  0  0  0  0  0  0  0  0  0  0  0
  185.8420  179.0410  142.7580 C   0  0  2  0  0  3  0  0  0  0  0  0
  185.2450  177.7770  142.1690 C   0  0  1  0  0  3  0  0  0  0  0  0
  187.2270  178.7750  142.7570 O   0  0  0  0  0  0  0  0  0  0  0  0
  187.0830  177.5490  140.7130 C   0  0  0  0  0  2  0  0  0  0  0  0
  185.5830  177.8090  140.6790 C   0  0  0  0  0  2  0  0  0  0  0  0
  185.3960  179.2140  144.0690 O   0  0  0  0  0  1  0  0  0  0  0  0
  186.1190  176.8240  142.6690 O   0  0  0  0  0  0  0  0  0  0  0  0
  187.2740  177.4660  142.2220 C   0  0  1  0  0  0  0  0  0  0  0  0
  1 21  1  6  0  0  0
  1 15  1  0  0  0  0
  2  5  2  0  0  0  0
  2  4  1  0  0  0  0
  3 11  1  0  0  0  0
  4  8  1  1  0  0  0
  4  3  1  0  0  0  0
  5 10  1  0  0  0  0
  6  2  1  0  0  0  0
  7  1  1  6  0  0  0
  7  9  1  0  0  0  0
  8 13  1  0  0  0  0
  9 12  1  0  0  0  0
 10  3  2  0  0  0  0
 11 12  1  0  0  0  0
 13  7  1  0  0  0  0
 14 16  2  0  0  0  0
 15 16  1  0  0  0  0
 15 19  1  1  0  0  0
 15 17  1  0  0  0  0
 16 17  1  0  0  0  0
 18 19  1  0  0  0  0
 19 20  2  0  0  0  0
 22 21  1  0  0  0  0
 23 22  2  0  0  0  0
 24 29  1  1  0  0  0
 25 28  1  6  0  0  0
 25 30  1  0  0  0  0
 25 24  1  0  0  0  0
 26 24  1  0  0  0  0
 27 31  1  0  0  0  0
 28 27  1  0  0  0  0
 31 22  1  1  0  0  0
 31 30  1  0  0  0  0
 31 26  1  0  0  0  0
M  END
>  <MODEL>
8

>  <REMARK>
 VINA RESULT:      -6.9      3.918      7.340
  Name = 
  6 active torsions:
  status: ('A' for Active; 'I' for Inactive)
    1  A    between atoms: O_2  and  C_11
    2  A    between atoms: O_2  and  C_27
    3  A    between atoms: C_11  and  C_28
    4  A    between atoms: C_14  and  C_20
    5  A    between atoms: C_14  and  C_27
    6  A    between atoms: C_17  and  C_27
                            x       y       z     vdW  Elec       q    Type
                         _______ _______ _______ _____ _____    ______ ____

>  <TORSDO>
F 6

$$$$
=
 OpenBabel11042417163D

 31 35  0  0  1  0  0  0  0  0999 V2000
  189.5480  176.2730  143.0450 C   0  0  1  0  0  3  0  0  0  0  0  0
  184.8800  178.2190  145.9570 C   0  0  0  0  0  0  0  0  0  0  0  0
  184.8000  178.1540  143.7830 C   0  0  0  0  0  0  0  0  0  0  0  0
  185.4970  177.6520  144.8660 C   0  0  0  0  0  0  0  0  0  0  0  0
  183.8570  178.9940  145.5470 N   0  0  0  0  0  2  0  0  0  0  0  0
  185.2550  178.0270  147.3850 C   0  0  0  0  0  1  0  0  0  0  0  0
  188.4590  177.3570  143.0660 C   0  0  1  0  0  3  0  0  0  0  0  0
  186.7290  176.8040  144.8650 C   0  0  0  0  0  2  0  0  0  0  0  0
  187.3830  177.1400  141.9990 C   0  0  0  0  0  2  0  0  0  0  0  0
  183.8110  178.9550  144.2210 N   0  0  0  0  0  0  0  0  0  0  0  0
  185.0390  177.8670  142.3330 C   0  0  0  0  0  2  0  0  0  0  0  0
  186.4270  178.3160  141.9030 C   0  0  0  0  0  2  0  0  0  0  0  0
  187.9340  177.6540  144.4760 C   0  0  0  0  0  2  0  0  0  0  0  0
  191.3460  179.2240  143.7920 O   0  0  0  0  0  0  0  0  0  0  0  0
  190.8400  176.6020  143.8100 C   0  0  2  0  0  0  0  0  0  0  0  0
  191.3760  178.0200  143.6030 C   0  0  0  0  0  0  0  0  0  0  0  0
  191.9830  176.7690  142.9620 C   0  0  0  0  0  2  0  0  0  0  0  0
  192.1300  174.8300  145.2250 C   0  0  0  0  0  1  0  0  0  0  0  0
  191.1530  175.9570  145.1380 C   0  0  0  0  0  0  0  0  0  0  0  0
  190.6590  176.4610  146.2690 C   0  0  0  0  0  2  0  0  0  0  0  0
  189.0050  175.0270  143.4710 O   0  0  0  0  0  0  0  0  0  0  0  0
  188.8240  173.9460  142.6000 C   0  0  0  0  0  0  0  0  0  0  0  0
  187.6980  173.7870  142.0550 O   0  0  0  0  0  0  0  0  0  0  0  0
  191.6750  172.5470  141.0230 C   0  0  2  0  0  3  0  0  0  0  0  0
  190.7820  171.3640  141.3450 C   0  0  1  0  0  3  0  0  0  0  0  0
  191.0570  173.6150  141.7070 O   0  0  0  0  0  0  0  0  0  0  0  0
  190.4050  172.2000  143.5160 C   0  0  0  0  0  2  0  0  0  0  0  0
  191.0580  171.0190  142.8080 C   0  0  0  0  0  2  0  0  0  0  0  0
  191.6620  172.7960  139.6500 O   0  0  0  0  0  1  0  0  0  0  0  0
  189.5440  171.9850  141.3960 O   0  0  0  0  0  0  0  0  0  0  0  0
  189.9380  172.9780  142.2940 C   0  0  1  0  0  0  0  0  0  0  0  0
  1 21  1  1  0  0  0
  1 15  1  0  0  0  0
  2  6  1  0  0  0  0
  3 10  2  0  0  0  0
  3  4  1  0  0  0  0
  4  2  2  0  0  0  0
  5  2  1  0  0  0  0
  7  1  1  1  0  0  0
  7 13  1  0  0  0  0
  8  4  1  0  0  0  0
  9  7  1  0  0  0  0
 10  5  1  0  0  0  0
 11  3  1  0  0  0  0
 12  9  1  0  0  0  0
 12 11  1  0  0  0  0
 13  8  1  0  0  0  0
 15 19  1  1  0  0  0
 16 14  2  0  0  0  0
 16 15  1  0  0  0  0
 17 16  1  0  0  0  0
 17 15  1  0  0  0  0
 19 18  1  0  0  0  0
 19 20  2  0  0  0  0
 22 21  1  0  0  0  0
 23 22  2  0  0  0  0
 24 29  1  6  0  0  0
 24 25  1  0  0  0  0
 24 26  1  0  0  0  0
 25 30  1  0  0  0  0
 25 28  1  1  0  0  0
 26 31  1  0  0  0  0
 28 27  1  0  0  0  0
 30 31  1  0  0  0  0
 31 22  1  1  0  0  0
 31 27  1  0  0  0  0
M  END
>  <MODEL>
9

>  <REMARK>
 VINA RESULT:      -6.9      2.457      4.057
  Name = 
  6 active torsions:
  status: ('A' for Active; 'I' for Inactive)
    1  A    between atoms: O_2  and  C_11
    2  A    between atoms: O_2  and  C_27
    3  A    between atoms: C_11  and  C_28
    4  A    between atoms: C_14  and  C_20
    5  A    between atoms: C_14  and  C_27
    6  A    between atoms: C_17  and  C_27
                            x       y       z     vdW  Elec       q    Type
                         _______ _______ _______ _____ _____    ______ ____

>  <TORSDO>
F 6

$$$$
