=
 OpenBabel11042419383D

 61 64  0  0  1  0  0  0  0  0999 V2000
  192.4070  172.5980  139.9400 C   0  0  0  0  0  2  0  0  0  0  0  0
  192.8240  171.5610  140.9700 C   0  0  0  0  0  2  0  0  0  0  0  0
  190.6050  172.0920  142.1160 C   0  0  0  0  0  0  0  0  0  0  0  0
  190.1060  172.4740  140.9270 C   0  0  0  0  0  3  0  0  0  0  0  0
  192.0860  171.7940  142.2920 C   0  0  1  0  0  3  0  0  0  0  0  0
  190.9180  172.4360  139.6540 C   0  0  1  0  0  3  0  0  0  0  0  0
  189.0870  173.9030  138.9080 N   0  0  0  0  0  1  0  0  0  0  0  0
  190.4580  173.4830  138.6420 C   0  0  2  0  0  3  0  0  0  0  0  0
  190.5900  172.9710  137.2170 C   0  0  0  0  0  2  0  0  0  0  0  0
  191.9480  173.2200  136.7270 C   0  0  0  0  0  0  0  0  0  0  0  0
  193.0690  173.4400  136.3450 C   0  0  0  0  0  0  0  0  0  0  0  0
  194.4450  173.9080  134.5130 O   0  0  0  0  0  1  0  0  0  0  0  0
  194.4340  173.7270  135.8970 C   0  0  2  0  0  3  0  0  0  0  0  0
  195.5210  172.3380  136.3330 P   0  0  2  0  0  0  0  0  0  0  0  0
  197.1150  172.9010  136.4110 O   0  0  0  0  0  1  0  0  0  0  0  0
  195.4120  171.2820  135.2560 O   0  0  0  0  0  0  0  0  0  0  0  0
  195.0120  171.7100  137.8280 O   0  0  0  0  0  0  0  0  0  0  0  0
  197.0270  169.8620  137.2340 O   0  0  0  0  0  0  0  0  0  0  0  0
  195.7280  169.8290  139.4930 O   0  0  0  0  0  1  0  0  0  0  0  0
  197.4400  171.7700  139.1930 O   0  0  0  0  0  1  0  0  0  0  0  0
  196.2890  170.7740  138.4550 P   0  0  0  0  0  0  0  0  0  0  0  0
  189.5640  172.3090  143.5690 S   0  0  0  0  0  0  0  0  0  0  0  0
  190.8470  173.1680  144.5330 C   0  0  0  0  0  2  0  0  0  0  0  0
  191.0150  174.5990  144.0270 C   0  0  0  0  0  2  0  0  0  0  0  0
  190.2510  175.5780  144.8140 N   0  0  0  0  0  0  0  0  0  0  0  0
  191.0950  176.2430  145.8380 C   0  0  1  0  0  3  0  0  0  0  0  0
  190.4980  176.0610  147.2420 C   0  0  1  0  0  3  0  0  0  0  0  0
  190.5400  177.2470  147.9830 O   0  0  0  0  0  1  0  0  0  0  0  0
  189.0620  174.2300  147.8530 O   0  0  0  0  0  1  0  0  0  0  0  0
  189.0920  175.4740  147.2200 C   0  0  0  0  0  2  0  0  0  0  0  0
  192.5360  175.7220  145.8040 C   0  0  0  0  0  2  0  0  0  0  0  0
  193.4380  176.7620  145.1640 C   0  0  0  0  0  1  0  0  0  0  0  0
  189.5610  176.4840  143.8700 C   0  0  1  0  0  3  0  0  0  0  0  0
  191.0370  178.1060  142.8690 O   0  0  0  0  0  1  0  0  0  0  0  0
  190.4590  176.8490  142.6900 C   0  0  0  0  0  2  0  0  0  0  0  0
  188.1450  176.0530  143.4530 C   0  0  0  0  0  2  0  0  0  0  0  0
  186.0920  178.4370  145.6780 C   0  0  0  0  0  0  0  0  0  0  0  0
  184.7010  177.7240  143.7170 C   0  0  1  0  0  3  0  0  0  0  0  0
  187.2530  177.5800  145.2300 C   0  0  0  0  0  2  0  0  0  0  0  0
  185.7200  176.6000  143.5170 C   0  0  0  0  0  2  0  0  0  0  0  0
  186.2000  179.1780  146.9650 C   0  0  0  0  0  1  0  0  0  0  0  0
  184.9150  178.4360  145.0310 C   0  0  0  0  0  3  0  0  0  0  0  0
  187.1250  177.1340  143.7710 C   0  0  2  0  0  3  0  0  0  0  0  0
  184.8080  178.6440  142.6680 O   0  0  0  0  0  0  0  0  0  0  0  0
  183.8640  178.2260  141.7250 C   0  0  0  0  0  2  0  0  0  0  0  0
  184.4360  178.3920  140.3330 C   0  0  0  0  0  2  0  0  0  0  0  0
  185.8260  178.2640  140.3750 O   0  0  0  0  0  1  0  0  0  0  0  0
  192.3160  170.6030  143.2060 C   0  0  0  0  0  2  0  0  0  0  0  0
  193.7950  170.2620  143.2750 C   0  0  0  0  0  2  0  0  0  0  0  0
  194.1830  170.0620  144.6630 N   0  0  0  0  0  2  0  0  0  0  0  0
  194.2370  171.3700  145.2990 C   0  0  0  0  0  2  0  0  0  0  0  0
  195.6860  171.7940  145.5560 C   0  0  0  0  0  2  0  0  0  0  0  0
  197.1280  174.8860  141.1360 C   0  0  0  0  0  2  0  0  0  0  0  0
  197.3760  172.9580  144.0650 C   0  0  0  0  0  2  0  0  0  0  0  0
  197.7980  173.9910  141.8370 C   0  0  0  0  0  2  0  0  0  0  0  0
  195.0170  173.6300  143.9300 C   0  0  0  0  0  2  0  0  0  0  0  0
  196.3290  174.1540  145.9650 C   0  0  0  0  0  1  0  0  0  0  0  0
  196.9880  173.2080  142.6950 N   0  0  2  0  0  0  0  0  0  0  0  0
  195.5720  173.4380  142.5310 C   0  0  2  0  0  3  0  0  0  0  0  0
  196.0990  173.1140  144.8850 C   0  0  1  0  0  0  0  0  0  0  0  0
  195.3790  174.9440  141.5260 S   0  0  0  0  0  0  0  0  0  0  0  0
  1  2  1  0  0  0  0
  2  5  1  0  0  0  0
  3  5  1  0  0  0  0
  3 22  1  0  0  0  0
  4  3  2  0  0  0  0
  5 48  1  1  0  0  0
  6  8  1  6  0  0  0
  6  1  1  0  0  0  0
  6  4  1  0  0  0  0
  8  7  1  1  0  0  0
  9  8  1  0  0  0  0
 10  9  1  0  0  0  0
 11 10  3  0  0  0  0
 13 12  1  6  0  0  0
 13 14  1  0  0  0  0
 13 11  1  0  0  0  0
 14 16  2  6  0  0  0
 14 15  1  0  0  0  0
 14 17  1  0  0  0  0
 17 21  1  0  0  0  0
 18 21  2  0  0  0  0
 21 20  1  0  0  0  0
 21 19  1  0  0  0  0
 22 23  1  0  0  0  0
 24 23  1  0  0  0  0
 24 25  1  0  0  0  0
 25 26  1  0  0  0  0
 26 31  1  1  0  0  0
 26 27  1  0  0  0  0
 27 28  1  6  0  0  0
 30 27  1  0  0  0  0
 30 29  1  0  0  0  0
 32 31  1  0  0  0  0
 33 35  1  6  0  0  0
 33 25  1  0  0  0  0
 35 34  1  0  0  0  0
 36 33  1  0  0  0  0
 37 41  1  0  0  0  0
 38 44  1  6  0  0  0
 38 42  1  0  0  0  0
 39 37  1  0  0  0  0
 40 38  1  0  0  0  0
 40 43  1  0  0  0  0
 42 37  2  0  0  0  0
 43 36  1  1  0  0  0
 43 39  1  0  0  0  0
 45 44  1  0  0  0  0
 46 47  1  0  0  0  0
 46 45  1  0  0  0  0
 48 49  1  0  0  0  0
 49 50  1  0  0  0  0
 50 51  1  0  0  0  0
 51 52  1  0  0  0  0
 53 61  1  0  0  0  0
 53 55  1  0  0  0  0
 54 60  1  0  0  0  0
 56 60  1  0  0  0  0
 58 55  1  1  0  0  0
 58 54  1  0  0  0  0
 59 58  1  0  0  0  0
 59 56  1  1  0  0  0
 60 52  1  0  0  0  0
 60 57  1  1  0  0  0
 61 59  1  0  0  0  0
M  END
>  <MODEL>
1

>  <REMARK>
 VINA RESULT:      -5.1      0.000      0.000
  Name = 
  28 active torsions:
  status: ('A' for Active; 'I' for Inactive)
    1  A    between atoms: N_1  and  C_24
    2  A    between atoms: N_1  and  C_35
    3  A    between atoms: N_1  and  C_52
    4  A    between atoms: C_3  and  C_52
    5  A    between atoms: C_6  and  C_35
    6  A    between atoms: C_6  and  C_61
    7  A    between atoms: C_7  and  C_15
    8  A    between atoms: P_10  and  O_27
    9  A    between atoms: P_10  and  C_60
   10  A    between atoms: C_15  and  C_29
   11  A    between atoms: O_16  and  C_28
   12  A    between atoms: O_16  and  C_47
   13  A    between atoms: C_17  and  C_52
   14  A    between atoms: C_17  and  C_57
   15  A    between atoms: C_18  and  C_24
   16  A    between atoms: C_18  and  S_43
   17  A    between atoms: C_19  and  C_25
   18  A    between atoms: C_19  and  N_39
   19  A    between atoms: C_21  and  C_50
   20  A    between atoms: C_21  and  C_53
   21  A    between atoms: C_23  and  C_60
   22  A    between atoms: C_25  and  C_49
   23  A    between atoms: O_27  and  P_58
   24  A    between atoms: C_29  and  C_59
   25  A    between atoms: C_34  and  C_47
   26  A    between atoms: C_35  and  C_56
   27  A    between atoms: N_39  and  C_53
   28  A    between atoms: C_42  and  S_43
                            x       y       z     vdW  Elec       q    Type
                         _______ _______ _______ _____ _____    ______ ____

>  <TORSDO>
F 28

$$$$
=
 OpenBabel11042419383D

 61 64  0  0  1  0  0  0  0  0999 V2000
  192.6430  174.8200  141.9210 C   0  0  0  0  0  2  0  0  0  0  0  0
  193.8550  174.7390  141.0070 C   0  0  0  0  0  2  0  0  0  0  0  0
  192.9730  172.4290  140.3660 C   0  0  0  0  0  0  0  0  0  0  0  0
  191.7320  172.8370  140.6860 C   0  0  0  0  0  3  0  0  0  0  0  0
  194.1920  173.2770  140.6950 C   0  0  1  0  0  3  0  0  0  0  0  0
  191.4400  174.2290  141.1950 C   0  0  1  0  0  3  0  0  0  0  0  0
  189.0310  173.7640  141.4000 N   0  0  0  0  0  1  0  0  0  0  0  0
  190.2070  174.2690  142.0970 C   0  0  2  0  0  3  0  0  0  0  0  0
  189.9520  175.6720  142.6230 C   0  0  0  0  0  2  0  0  0  0  0  0
  188.6530  176.1500  142.1420 C   0  0  0  0  0  0  0  0  0  0  0  0
  187.5970  176.5530  141.7260 C   0  0  0  0  0  0  0  0  0  0  0  0
  186.5710  177.9860  140.1890 O   0  0  0  0  0  1  0  0  0  0  0  0
  186.3250  177.0580  141.2020 C   0  0  2  0  0  3  0  0  0  0  0  0
  185.3910  177.8560  142.5400 P   0  0  2  0  0  0  0  0  0  0  0  0
  183.7840  178.0450  142.0430 O   0  0  0  0  0  0  0  0  0  0  0  0
  185.9980  179.2150  142.8090 O   0  0  0  0  0  1  0  0  0  0  0  0
  185.4990  176.8780  143.9260 O   0  0  0  0  0  0  0  0  0  0  0  0
  184.1620  179.1240  144.9200 O   0  0  0  0  0  0  0  0  0  0  0  0
  186.5700  178.4840  145.6850 O   0  0  0  0  0  1  0  0  0  0  0  0
  184.6500  176.9650  146.5770 O   0  0  0  0  0  1  0  0  0  0  0  0
  185.2460  177.8750  145.2820 P   0  0  0  0  0  0  0  0  0  0  0  0
  193.1910  170.7070  139.8930 S   0  0  0  0  0  0  0  0  0  0  0  0
  193.3250  170.1060  141.6060 C   0  0  0  0  0  2  0  0  0  0  0  0
  194.7400  170.3340  142.1330 C   0  0  0  0  0  2  0  0  0  0  0  0
  194.8070  170.3660  143.6020 N   0  0  0  0  0  0  0  0  0  0  0  0
  196.1460  169.9690  144.1030 C   0  0  1  0  0  3  0  0  0  0  0  0
  196.0530  168.7060  144.9730 C   0  0  1  0  0  3  0  0  0  0  0  0
  197.3150  168.1680  145.2460 O   0  0  0  0  0  1  0  0  0  0  0  0
  196.1080  169.1480  147.3370 O   0  0  0  0  0  1  0  0  0  0  0  0
  195.2570  168.9230  146.2550 C   0  0  0  0  0  2  0  0  0  0  0  0
  197.1350  169.7490  142.9530 C   0  0  0  0  0  2  0  0  0  0  0  0
  197.8450  171.0520  142.6350 C   0  0  0  0  0  1  0  0  0  0  0  0
  194.3230  171.6900  144.0510 C   0  0  1  0  0  3  0  0  0  0  0  0
  191.9510  172.1170  144.1060 O   0  0  0  0  0  1  0  0  0  0  0  0
  193.0130  171.5700  144.8270 C   0  0  0  0  0  2  0  0  0  0  0  0
  195.3680  172.5770  144.7470 C   0  0  0  0  0  2  0  0  0  0  0  0
  196.0420  176.2570  143.8260 C   0  0  0  0  0  0  0  0  0  0  0  0
  194.4310  176.1610  145.7450 C   0  0  1  0  0  3  0  0  0  0  0  0
  196.1670  174.7510  143.7900 C   0  0  0  0  0  2  0  0  0  0  0  0
  194.8750  174.7080  145.9290 C   0  0  0  0  0  2  0  0  0  0  0  0
  196.8770  177.0700  142.8990 C   0  0  0  0  0  1  0  0  0  0  0  0
  195.3150  176.8890  144.7620 C   0  0  0  0  0  3  0  0  0  0  0  0
  195.0480  174.0510  144.5640 C   0  0  2  0  0  3  0  0  0  0  0  0
  193.1080  176.1910  145.2890 O   0  0  0  0  0  0  0  0  0  0  0  0
  192.3340  176.3750  146.4390 C   0  0  0  0  0  2  0  0  0  0  0  0
  191.4350  175.1730  146.6380 C   0  0  0  0  0  2  0  0  0  0  0  0
  190.8030  175.2560  147.8800 O   0  0  0  0  0  1  0  0  0  0  0  0
  195.2260  173.2330  139.5840 C   0  0  0  0  0  2  0  0  0  0  0  0
  196.6080  173.5520  140.1280 C   0  0  0  0  0  2  0  0  0  0  0  0
  197.3730  174.2700  139.1200 N   0  0  0  0  0  2  0  0  0  0  0  0
  196.4810  175.2310  138.4900 C   0  0  0  0  0  2  0  0  0  0  0  0
  196.8460  175.4340  137.0170 C   0  0  0  0  0  2  0  0  0  0  0  0
  192.1220  173.5260  134.7320 C   0  0  0  0  0  2  0  0  0  0  0  0
  195.5200  174.3170  135.1660 C   0  0  0  0  0  2  0  0  0  0  0  0
  193.3840  173.1920  134.5440 C   0  0  0  0  0  2  0  0  0  0  0  0
  194.3220  175.6720  136.8280 C   0  0  0  0  0  2  0  0  0  0  0  0
  195.8270  176.7750  135.1970 C   0  0  0  0  0  1  0  0  0  0  0  0
  194.2670  173.6970  135.5310 N   0  0  2  0  0  0  0  0  0  0  0  0
  193.5990  174.3540  136.6300 C   0  0  2  0  0  3  0  0  0  0  0  0
  195.6450  175.5440  136.0640 C   0  0  1  0  0  0  0  0  0  0  0  0
  191.8660  174.6140  136.1330 S   0  0  0  0  0  0  0  0  0  0  0  0
  2  1  1  0  0  0  0
  3  4  2  0  0  0  0
  3  5  1  0  0  0  0
  4  6  1  0  0  0  0
  5 48  1  6  0  0  0
  5  2  1  0  0  0  0
  6  1  1  0  0  0  0
  6  8  1  1  0  0  0
  8  7  1  6  0  0  0
  8  9  1  0  0  0  0
 10  9  1  0  0  0  0
 11 10  3  0  0  0  0
 13 12  1  6  0  0  0
 13 11  1  0  0  0  0
 13 14  1  0  0  0  0
 14 15  2  6  0  0  0
 14 16  1  0  0  0  0
 14 17  1  0  0  0  0
 17 21  1  0  0  0  0
 18 21  2  0  0  0  0
 21 19  1  0  0  0  0
 21 20  1  0  0  0  0
 22  3  1  0  0  0  0
 22 23  1  0  0  0  0
 23 24  1  0  0  0  0
 24 25  1  0  0  0  0
 25 33  1  0  0  0  0
 25 26  1  0  0  0  0
 26 31  1  6  0  0  0
 26 27  1  0  0  0  0
 27 28  1  1  0  0  0
 27 30  1  0  0  0  0
 30 29  1  0  0  0  0
 32 31  1  0  0  0  0
 33 36  1  1  0  0  0
 33 35  1  0  0  0  0
 34 35  1  0  0  0  0
 37 42  2  0  0  0  0
 38 44  1  6  0  0  0
 38 40  1  0  0  0  0
 39 37  1  0  0  0  0
 39 43  1  0  0  0  0
 41 37  1  0  0  0  0
 42 38  1  0  0  0  0
 43 36  1  1  0  0  0
 43 40  1  0  0  0  0
 44 45  1  0  0  0  0
 45 46  1  0  0  0  0
 46 47  1  0  0  0  0
 48 49  1  0  0  0  0
 50 49  1  0  0  0  0
 51 50  1  0  0  0  0
 52 51  1  0  0  0  0
 53 61  1  0  0  0  0
 54 58  1  0  0  0  0
 54 60  1  0  0  0  0
 55 53  1  0  0  0  0
 58 55  1  6  0  0  0
 58 59  1  0  0  0  0
 59 56  1  6  0  0  0
 60 57  1  6  0  0  0
 60 56  1  0  0  0  0
 60 52  1  0  0  0  0
 61 59  1  0  0  0  0
M  END
>  <MODEL>
2

>  <REMARK>
 VINA RESULT:      -4.8      4.390      9.103
  Name = 
  28 active torsions:
  status: ('A' for Active; 'I' for Inactive)
    1  A    between atoms: N_1  and  C_24
    2  A    between atoms: N_1  and  C_35
    3  A    between atoms: N_1  and  C_52
    4  A    between atoms: C_3  and  C_52
    5  A    between atoms: C_6  and  C_35
    6  A    between atoms: C_6  and  C_61
    7  A    between atoms: C_7  and  C_15
    8  A    between atoms: P_10  and  O_27
    9  A    between atoms: P_10  and  C_60
   10  A    between atoms: C_15  and  C_29
   11  A    between atoms: O_16  and  C_28
   12  A    between atoms: O_16  and  C_47
   13  A    between atoms: C_17  and  C_52
   14  A    between atoms: C_17  and  C_57
   15  A    between atoms: C_18  and  C_24
   16  A    between atoms: C_18  and  S_43
   17  A    between atoms: C_19  and  C_25
   18  A    between atoms: C_19  and  N_39
   19  A    between atoms: C_21  and  C_50
   20  A    between atoms: C_21  and  C_53
   21  A    between atoms: C_23  and  C_60
   22  A    between atoms: C_25  and  C_49
   23  A    between atoms: O_27  and  P_58
   24  A    between atoms: C_29  and  C_59
   25  A    between atoms: C_34  and  C_47
   26  A    between atoms: C_35  and  C_56
   27  A    between atoms: N_39  and  C_53
   28  A    between atoms: C_42  and  S_43
                            x       y       z     vdW  Elec       q    Type
                         _______ _______ _______ _____ _____    ______ ____

>  <TORSDO>
F 28

$$$$
=
 OpenBabel11042419383D

 61 64  0  0  1  0  0  0  0  0999 V2000
  188.3750  173.9830  137.5750 C   0  0  0  0  0  2  0  0  0  0  0  0
  188.1630  174.5430  138.9720 C   0  0  0  0  0  2  0  0  0  0  0  0
  189.8030  172.7390  139.7320 C   0  0  0  0  0  0  0  0  0  0  0  0
  190.3480  172.7460  138.5030 C   0  0  0  0  0  3  0  0  0  0  0  0
  188.5150  173.4910  140.0290 C   0  0  1  0  0  3  0  0  0  0  0  0
  189.8520  173.6480  137.3980 C   0  0  1  0  0  3  0  0  0  0  0  0
  191.2270  172.1350  136.0270 N   0  0  0  0  0  1  0  0  0  0  0  0
  190.0970  173.0540  136.0120 C   0  0  2  0  0  3  0  0  0  0  0  0
  190.3120  174.1430  134.9740 C   0  0  0  0  0  2  0  0  0  0  0  0
  191.5030  174.9240  135.3180 C   0  0  0  0  0  0  0  0  0  0  0  0
  192.4700  175.5880  135.5930 C   0  0  0  0  0  0  0  0  0  0  0  0
  194.0470  177.1070  134.7740 O   0  0  0  0  0  1  0  0  0  0  0  0
  193.6370  176.4140  135.9130 C   0  0  2  0  0  3  0  0  0  0  0  0
  194.9920  175.3530  136.4940 P   0  0  2  0  0  0  0  0  0  0  0  0
  196.4630  176.1240  136.1700 O   0  0  0  0  0  1  0  0  0  0  0  0
  194.9340  174.0410  135.7450 O   0  0  0  0  0  0  0  0  0  0  0  0
  194.7870  175.0890  138.1610 O   0  0  0  0  0  0  0  0  0  0  0  0
  197.0380  173.4930  137.6990 O   0  0  0  0  0  0  0  0  0  0  0  0
  194.6850  172.4780  138.1800 O   0  0  0  0  0  1  0  0  0  0  0  0
  195.8930  173.5680  140.2160 O   0  0  0  0  0  1  0  0  0  0  0  0
  195.5830  173.6360  138.5550 P   0  0  0  0  0  0  0  0  0  0  0  0
  190.4130  171.5240  140.9120 S   0  0  0  0  0  0  0  0  0  0  0  0
  192.1640  171.7700  140.4750 C   0  0  0  0  0  2  0  0  0  0  0  0
  192.9360  172.2980  141.6820 C   0  0  0  0  0  2  0  0  0  0  0  0
  192.6130  171.5840  142.9260 N   0  0  0  0  0  0  0  0  0  0  0  0
  193.6460  170.5750  143.2690 C   0  0  1  0  0  3  0  0  0  0  0  0
  193.1000  169.1500  143.0970 C   0  0  1  0  0  3  0  0  0  0  0  0
  193.9130  168.3770  142.2610 O   0  0  0  0  0  1  0  0  0  0  0  0
  193.7940  168.8210  145.3770 O   0  0  0  0  0  1  0  0  0  0  0  0
  192.8470  168.4450  144.4250 C   0  0  0  0  0  2  0  0  0  0  0  0
  194.9150  170.7610  142.4290 C   0  0  0  0  0  2  0  0  0  0  0  0
  196.1080  170.9590  143.3460 C   0  0  0  0  0  1  0  0  0  0  0  0
  192.3330  172.5920  143.9720 C   0  0  1  0  0  3  0  0  0  0  0  0
  190.4190  171.3000  144.6660 O   0  0  0  0  0  1  0  0  0  0  0  0
  190.8570  172.5910  144.3660 C   0  0  0  0  0  2  0  0  0  0  0  0
  193.2890  172.5830  145.1750 C   0  0  0  0  0  2  0  0  0  0  0  0
  193.1150  176.1780  146.5500 C   0  0  0  0  0  0  0  0  0  0  0  0
  194.5610  176.1400  144.5030 C   0  0  1  0  0  3  0  0  0  0  0  0
  192.8190  174.7000  146.4300 C   0  0  0  0  0  2  0  0  0  0  0  0
  193.9390  174.7750  144.1980 C   0  0  0  0  0  2  0  0  0  0  0  0
  192.4490  176.9590  147.6290 C   0  0  0  0  0  1  0  0  0  0  0  0
  193.8400  176.8350  145.6320 C   0  0  0  0  0  3  0  0  0  0  0  0
  193.7900  173.9820  145.4910 C   0  0  2  0  0  3  0  0  0  0  0  0
  195.9070  175.9740  144.8450 O   0  0  0  0  0  0  0  0  0  0  0  0
  196.4220  175.1080  143.8750 C   0  0  0  0  0  2  0  0  0  0  0  0
  197.5370  175.8040  143.1210 C   0  0  0  0  0  2  0  0  0  0  0  0
  197.3750  177.1880  143.2090 O   0  0  0  0  0  1  0  0  0  0  0  0
  188.5490  174.1530  141.3950 C   0  0  0  0  0  2  0  0  0  0  0  0
  189.9340  174.7080  141.6840 C   0  0  0  0  0  2  0  0  0  0  0  0
  189.8480  176.1470  141.8840 N   0  0  0  0  0  2  0  0  0  0  0  0
  188.4400  176.5140  141.8490 C   0  0  0  0  0  2  0  0  0  0  0  0
  188.1290  177.5950  142.8880 C   0  0  0  0  0  2  0  0  0  0  0  0
  185.8190  177.4180  147.9690 C   0  0  0  0  0  2  0  0  0  0  0  0
  187.5000  176.4200  145.0470 C   0  0  0  0  0  2  0  0  0  0  0  0
  186.7780  176.7000  147.4160 C   0  0  0  0  0  2  0  0  0  0  0  0
  186.3350  178.4980  144.4460 C   0  0  0  0  0  2  0  0  0  0  0  0
  185.9460  176.4420  143.1180 C   0  0  0  0  0  1  0  0  0  0  0  0
  187.2860  177.2480  146.2120 N   0  0  2  0  0  0  0  0  0  0  0  0
  186.7630  178.5570  145.9000 C   0  0  2  0  0  3  0  0  0  0  0  0
  186.9960  177.2430  143.8650 C   0  0  1  0  0  0  0  0  0  0  0  0
  185.3420  178.8500  147.0010 S   0  0  0  0  0  0  0  0  0  0  0  0
  1  2  1  0  0  0  0
  2  5  1  0  0  0  0
  3  5  1  0  0  0  0
  3 22  1  0  0  0  0
  4  3  2  0  0  0  0
  5 48  1  1  0  0  0
  6  8  1  6  0  0  0
  6  1  1  0  0  0  0
  6  4  1  0  0  0  0
  8  7  1  1  0  0  0
  9 10  1  0  0  0  0
  9  8  1  0  0  0  0
 10 11  3  0  0  0  0
 11 13  1  0  0  0  0
 13 12  1  6  0  0  0
 13 14  1  0  0  0  0
 14 16  2  6  0  0  0
 14 17  1  0  0  0  0
 15 14  1  0  0  0  0
 17 21  1  0  0  0  0
 18 21  2  0  0  0  0
 19 21  1  0  0  0  0
 21 20  1  0  0  0  0
 23 22  1  0  0  0  0
 23 24  1  0  0  0  0
 24 25  1  0  0  0  0
 25 26  1  0  0  0  0
 25 33  1  0  0  0  0
 26 31  1  6  0  0  0
 27 28  1  6  0  0  0
 27 26  1  0  0  0  0
 27 30  1  0  0  0  0
 30 29  1  0  0  0  0
 31 32  1  0  0  0  0
 33 35  1  1  0  0  0
 33 36  1  0  0  0  0
 35 34  1  0  0  0  0
 37 41  1  0  0  0  0
 38 44  1  1  0  0  0
 38 42  1  0  0  0  0
 39 37  1  0  0  0  0
 40 38  1  0  0  0  0
 40 43  1  0  0  0  0
 42 37  2  0  0  0  0
 43 36  1  6  0  0  0
 43 39  1  0  0  0  0
 45 44  1  0  0  0  0
 46 47  1  0  0  0  0
 46 45  1  0  0  0  0
 48 49  1  0  0  0  0
 49 50  1  0  0  0  0
 51 50  1  0  0  0  0
 51 52  1  0  0  0  0
 52 60  1  0  0  0  0
 55 53  1  0  0  0  0
 58 54  1  6  0  0  0
 58 55  1  0  0  0  0
 59 56  1  6  0  0  0
 59 58  1  0  0  0  0
 59 61  1  0  0  0  0
 60 57  1  6  0  0  0
 60 56  1  0  0  0  0
 60 54  1  0  0  0  0
 61 53  1  0  0  0  0
M  END
>  <MODEL>
3

>  <REMARK>
 VINA RESULT:      -4.7      3.047      7.510
  Name = 
  28 active torsions:
  status: ('A' for Active; 'I' for Inactive)
    1  A    between atoms: N_1  and  C_24
    2  A    between atoms: N_1  and  C_35
    3  A    between atoms: N_1  and  C_52
    4  A    between atoms: C_3  and  C_52
    5  A    between atoms: C_6  and  C_35
    6  A    between atoms: C_6  and  C_61
    7  A    between atoms: C_7  and  C_15
    8  A    between atoms: P_10  and  O_27
    9  A    between atoms: P_10  and  C_60
   10  A    between atoms: C_15  and  C_29
   11  A    between atoms: O_16  and  C_28
   12  A    between atoms: O_16  and  C_47
   13  A    between atoms: C_17  and  C_52
   14  A    between atoms: C_17  and  C_57
   15  A    between atoms: C_18  and  C_24
   16  A    between atoms: C_18  and  S_43
   17  A    between atoms: C_19  and  C_25
   18  A    between atoms: C_19  and  N_39
   19  A    between atoms: C_21  and  C_50
   20  A    between atoms: C_21  and  C_53
   21  A    between atoms: C_23  and  C_60
   22  A    between atoms: C_25  and  C_49
   23  A    between atoms: O_27  and  P_58
   24  A    between atoms: C_29  and  C_59
   25  A    between atoms: C_34  and  C_47
   26  A    between atoms: C_35  and  C_56
   27  A    between atoms: N_39  and  C_53
   28  A    between atoms: C_42  and  S_43
                            x       y       z     vdW  Elec       q    Type
                         _______ _______ _______ _____ _____    ______ ____

>  <TORSDO>
F 28

$$$$
=
 OpenBabel11042419383D

 61 64  0  0  1  0  0  0  0  0999 V2000
  191.3050  177.1780  146.1950 C   0  0  0  0  0  2  0  0  0  0  0  0
  189.8310  176.9960  146.5180 C   0  0  0  0  0  2  0  0  0  0  0  0
  189.7640  175.4960  144.4520 C   0  0  0  0  0  0  0  0  0  0  0  0
  191.0730  175.2400  144.6210 C   0  0  0  0  0  3  0  0  0  0  0  0
  189.0580  176.5700  145.2660 C   0  0  1  0  0  3  0  0  0  0  0  0
  191.8790  175.8370  145.7500 C   0  0  1  0  0  3  0  0  0  0  0  0
  193.5710  175.7890  143.9620 N   0  0  0  0  0  1  0  0  0  0  0  0
  193.3560  175.9900  145.3900 C   0  0  2  0  0  3  0  0  0  0  0  0
  194.2240  175.0370  146.1960 C   0  0  0  0  0  2  0  0  0  0  0  0
  195.2430  174.4440  145.3280 C   0  0  0  0  0  0  0  0  0  0  0  0
  196.0950  173.9490  144.6330 C   0  0  0  0  0  0  0  0  0  0  0  0
  197.0900  173.8690  142.5190 O   0  0  0  0  0  1  0  0  0  0  0  0
  197.1460  173.3440  143.8110 C   0  0  2  0  0  3  0  0  0  0  0  0
  196.9050  171.5460  143.7430 P   0  0  2  0  0  0  0  0  0  0  0  0
  197.5970  170.8520  145.1240 O   0  0  0  0  0  1  0  0  0  0  0  0
  197.5980  171.0110  142.5100 O   0  0  0  0  0  0  0  0  0  0  0  0
  195.2370  171.2310  143.6640 O   0  0  0  0  0  0  0  0  0  0  0  0
  193.5480  169.0230  143.9780 O   0  0  0  0  0  1  0  0  0  0  0  0
  196.1440  168.8200  144.0970 O   0  0  0  0  0  1  0  0  0  0  0  0
  195.1410  169.2310  141.7270 O   0  0  0  0  0  0  0  0  0  0  0  0
  195.0380  169.5640  143.3820 P   0  0  0  0  0  0  0  0  0  0  0  0
  188.9600  174.8170  142.9920 S   0  0  0  0  0  0  0  0  0  0  0  0
  190.5140  174.5760  142.0750 C   0  0  0  0  0  2  0  0  0  0  0  0
  190.5290  173.1950  141.4220 C   0  0  0  0  0  2  0  0  0  0  0  0
  191.2400  173.1780  140.1350 N   0  0  0  0  0  0  0  0  0  0  0  0
  192.4440  172.3110  140.1800 C   0  0  1  0  0  3  0  0  0  0  0  0
  193.6760  173.1070  140.6340 C   0  0  1  0  0  3  0  0  0  0  0  0
  194.8640  172.4050  140.4050 O   0  0  0  0  0  1  0  0  0  0  0  0
  195.0180  175.0460  140.1550 O   0  0  0  0  0  1  0  0  0  0  0  0
  193.7380  174.5060  140.0310 C   0  0  0  0  0  2  0  0  0  0  0  0
  192.2300  171.0980  141.0930 C   0  0  0  0  0  2  0  0  0  0  0  0
  191.6810  169.9400  140.2810 C   0  0  0  0  0  1  0  0  0  0  0  0
  190.2590  172.8550  139.0760 C   0  0  1  0  0  3  0  0  0  0  0  0
  187.9980  173.4090  138.4500 O   0  0  0  0  0  1  0  0  0  0  0  0
  189.1850  173.9340  138.9630 C   0  0  0  0  0  2  0  0  0  0  0  0
  190.8580  172.4420  137.7220 C   0  0  0  0  0  2  0  0  0  0  0  0
  191.4080  175.3790  135.2900 C   0  0  0  0  0  0  0  0  0  0  0  0
  193.5930  174.2230  135.7050 C   0  0  1  0  0  3  0  0  0  0  0  0
  190.6660  174.4020  136.1720 C   0  0  0  0  0  2  0  0  0  0  0  0
  192.7690  173.0560  136.2540 C   0  0  0  0  0  2  0  0  0  0  0  0
  190.6340  176.4260  134.5660 C   0  0  0  0  0  1  0  0  0  0  0  0
  192.7170  175.2450  135.0230 C   0  0  0  0  0  3  0  0  0  0  0  0
  191.6040  173.5970  137.0740 C   0  0  2  0  0  3  0  0  0  0  0  0
  194.2920  174.8350  136.7500 O   0  0  0  0  0  0  0  0  0  0  0  0
  195.4900  175.2720  136.1770 C   0  0  0  0  0  2  0  0  0  0  0  0
  196.6580  174.6810  136.9390 C   0  0  0  0  0  2  0  0  0  0  0  0
  197.3000  175.6810  137.6710 O   0  0  0  0  0  1  0  0  0  0  0  0
  187.6570  176.1430  145.6680 C   0  0  0  0  0  2  0  0  0  0  0  0
  187.3930  176.4850  147.1250 C   0  0  0  0  0  2  0  0  0  0  0  0
  186.1340  177.2060  147.2340 N   0  0  0  0  0  2  0  0  0  0  0  0
  185.3730  176.9510  146.0200 C   0  0  0  0  0  2  0  0  0  0  0  0
  184.5850  178.1930  145.5960 C   0  0  0  0  0  2  0  0  0  0  0  0
  185.7010  177.8520  140.1350 C   0  0  0  0  0  2  0  0  0  0  0  0
  186.1620  178.0180  143.6160 C   0  0  0  0  0  2  0  0  0  0  0  0
  186.3850  177.4680  141.1960 C   0  0  0  0  0  2  0  0  0  0  0  0
  183.8580  178.7780  143.2310 C   0  0  0  0  0  2  0  0  0  0  0  0
  185.4390  180.2300  144.4680 C   0  0  0  0  0  1  0  0  0  0  0  0
  185.6310  177.4580  142.3950 N   0  0  2  0  0  0  0  0  0  0  0  0
  184.2250  177.7260  142.2020 C   0  0  2  0  0  3  0  0  0  0  0  0
  185.0070  178.7930  144.2450 C   0  0  1  0  0  0  0  0  0  0  0  0
  184.0210  178.3540  140.5050 S   0  0  0  0  0  0  0  0  0  0  0  0
  1  2  1  0  0  0  0
  3  4  2  0  0  0  0
  3  5  1  0  0  0  0
  4  6  1  0  0  0  0
  5 48  1  1  0  0  0
  5  2  1  0  0  0  0
  6  8  1  6  0  0  0
  6  1  1  0  0  0  0
  8  7  1  6  0  0  0
  8  9  1  0  0  0  0
 10  9  1  0  0  0  0
 11 10  3  0  0  0  0
 13 12  1  6  0  0  0
 13 11  1  0  0  0  0
 14 16  2  6  0  0  0
 14 13  1  0  0  0  0
 14 15  1  0  0  0  0
 17 14  1  0  0  0  0
 20 21  2  0  0  0  0
 21 17  1  0  0  0  0
 21 18  1  0  0  0  0
 21 19  1  0  0  0  0
 22  3  1  0  0  0  0
 23 22  1  0  0  0  0
 24 23  1  0  0  0  0
 25 26  1  0  0  0  0
 25 24  1  0  0  0  0
 26 27  1  0  0  0  0
 26 31  1  1  0  0  0
 27 28  1  6  0  0  0
 30 29  1  0  0  0  0
 30 27  1  0  0  0  0
 32 31  1  0  0  0  0
 33 36  1  6  0  0  0
 33 25  1  0  0  0  0
 34 35  1  0  0  0  0
 35 33  1  0  0  0  0
 37 39  1  0  0  0  0
 38 40  1  0  0  0  0
 38 44  1  1  0  0  0
 39 43  1  0  0  0  0
 40 43  1  0  0  0  0
 41 37  1  0  0  0  0
 42 37  2  0  0  0  0
 42 38  1  0  0  0  0
 43 36  1  6  0  0  0
 45 44  1  0  0  0  0
 45 46  1  0  0  0  0
 46 47  1  0  0  0  0
 48 49  1  0  0  0  0
 49 50  1  0  0  0  0
 51 50  1  0  0  0  0
 52 51  1  0  0  0  0
 53 61  1  0  0  0  0
 53 55  1  0  0  0  0
 54 60  1  0  0  0  0
 56 60  1  0  0  0  0
 58 55  1  6  0  0  0
 58 54  1  0  0  0  0
 59 58  1  0  0  0  0
 59 56  1  1  0  0  0
 60 57  1  1  0  0  0
 60 52  1  0  0  0  0
 61 59  1  0  0  0  0
M  END
>  <MODEL>
4

>  <REMARK>
 VINA RESULT:      -4.7      3.246      9.335
  Name = 
  28 active torsions:
  status: ('A' for Active; 'I' for Inactive)
    1  A    between atoms: N_1  and  C_24
    2  A    between atoms: N_1  and  C_35
    3  A    between atoms: N_1  and  C_52
    4  A    between atoms: C_3  and  C_52
    5  A    between atoms: C_6  and  C_35
    6  A    between atoms: C_6  and  C_61
    7  A    between atoms: C_7  and  C_15
    8  A    between atoms: P_10  and  O_27
    9  A    between atoms: P_10  and  C_60
   10  A    between atoms: C_15  and  C_29
   11  A    between atoms: O_16  and  C_28
   12  A    between atoms: O_16  and  C_47
   13  A    between atoms: C_17  and  C_52
   14  A    between atoms: C_17  and  C_57
   15  A    between atoms: C_18  and  C_24
   16  A    between atoms: C_18  and  S_43
   17  A    between atoms: C_19  and  C_25
   18  A    between atoms: C_19  and  N_39
   19  A    between atoms: C_21  and  C_50
   20  A    between atoms: C_21  and  C_53
   21  A    between atoms: C_23  and  C_60
   22  A    between atoms: C_25  and  C_49
   23  A    between atoms: O_27  and  P_58
   24  A    between atoms: C_29  and  C_59
   25  A    between atoms: C_34  and  C_47
   26  A    between atoms: C_35  and  C_56
   27  A    between atoms: N_39  and  C_53
   28  A    between atoms: C_42  and  S_43
                            x       y       z     vdW  Elec       q    Type
                         _______ _______ _______ _____ _____    ______ ____

>  <TORSDO>
F 28

$$$$
=
 OpenBabel11042419383D

 61 64  0  0  1  0  0  0  0  0999 V2000
  192.5410  172.7660  139.9380 C   0  0  0  0  0  2  0  0  0  0  0  0
  192.8020  171.7920  141.0750 C   0  0  0  0  0  2  0  0  0  0  0  0
  190.2890  171.9300  141.5100 C   0  0  0  0  0  0  0  0  0  0  0  0
  190.1040  172.2470  140.2170 C   0  0  0  0  0  3  0  0  0  0  0  0
  191.6820  171.8750  142.1180 C   0  0  1  0  0  3  0  0  0  0  0  0
  191.2470  172.3670  139.2370 C   0  0  1  0  0  3  0  0  0  0  0  0
  189.6230  173.9480  138.2750 N   0  0  0  0  0  1  0  0  0  0  0  0
  190.9380  173.3440  138.1030 C   0  0  2  0  0  3  0  0  0  0  0  0
  191.0380  172.6660  136.7460 C   0  0  0  0  0  2  0  0  0  0  0  0
  192.4250  172.2640  136.4970 C   0  0  0  0  0  0  0  0  0  0  0  0
  193.5570  171.9180  136.2730 C   0  0  0  0  0  0  0  0  0  0  0  0
  195.1210  170.1940  136.4930 O   0  0  0  0  0  1  0  0  0  0  0  0
  194.9250  171.4790  135.9860 C   0  0  2  0  0  3  0  0  0  0  0  0
  196.1050  172.6200  136.7610 P   0  0  2  0  0  0  0  0  0  0  0  0
  196.3330  173.9470  135.7340 O   0  0  0  0  0  0  0  0  0  0  0  0
  197.4210  171.9000  136.9520 O   0  0  0  0  0  1  0  0  0  0  0  0
  195.4750  173.1040  138.2640 O   0  0  0  0  0  0  0  0  0  0  0  0
  197.1620  175.3310  138.1340 O   0  0  0  0  0  1  0  0  0  0  0  0
  195.0790  175.2500  139.6990 O   0  0  0  0  0  1  0  0  0  0  0  0
  194.5810  175.4970  137.1530 O   0  0  0  0  0  0  0  0  0  0  0  0
  195.5660  174.8020  138.3390 P   0  0  0  0  0  0  0  0  0  0  0  0
  188.8500  171.9460  142.5900 S   0  0  0  0  0  0  0  0  0  0  0  0
  189.6740  172.8930  143.9090 C   0  0  0  0  0  2  0  0  0  0  0  0
  189.7890  174.3620  143.5060 C   0  0  0  0  0  2  0  0  0  0  0  0
  190.2840  175.2170  144.5940 N   0  0  0  0  0  0  0  0  0  0  0  0
  191.7240  175.5390  144.4330 C   0  0  1  0  0  3  0  0  0  0  0  0
  192.5860  174.6810  145.3720 C   0  0  1  0  0  3  0  0  0  0  0  0
  193.5370  173.9330  144.6690 O   0  0  0  0  0  1  0  0  0  0  0  0
  192.7370  176.7920  146.5160 O   0  0  0  0  0  1  0  0  0  0  0  0
  193.2370  175.4900  146.4880 C   0  0  0  0  0  2  0  0  0  0  0  0
  192.1820  175.3590  142.9810 C   0  0  0  0  0  2  0  0  0  0  0  0
  193.2300  176.4050  142.6450 C   0  0  0  0  0  1  0  0  0  0  0  0
  189.3790  176.3810  144.7080 C   0  0  1  0  0  3  0  0  0  0  0  0
  189.2000  177.4140  142.5370 O   0  0  0  0  0  1  0  0  0  0  0  0
  189.8140  177.5180  143.7860 C   0  0  0  0  0  2  0  0  0  0  0  0
  187.8770  176.0640  144.6230 C   0  0  0  0  0  2  0  0  0  0  0  0
  186.2100  178.7180  146.8640 C   0  0  0  0  0  0  0  0  0  0  0  0
  184.7350  178.2510  144.8910 C   0  0  1  0  0  3  0  0  0  0  0  0
  187.2260  177.6940  146.4110 C   0  0  0  0  0  2  0  0  0  0  0  0
  185.5670  176.9830  144.6830 C   0  0  0  0  0  2  0  0  0  0  0  0
  186.4250  179.4210  148.1590 C   0  0  0  0  0  1  0  0  0  0  0  0
  185.0510  178.9080  146.2130 C   0  0  0  0  0  3  0  0  0  0  0  0
  187.0370  177.2880  144.9480 C   0  0  2  0  0  3  0  0  0  0  0  0
  184.9900  179.1520  143.8520 O   0  0  0  0  0  0  0  0  0  0  0  0
  184.4820  178.5340  142.7050 C   0  0  0  0  0  2  0  0  0  0  0  0
  185.4460  178.7380  141.5550 C   0  0  0  0  0  2  0  0  0  0  0  0
  185.2940  177.7100  140.6230 O   0  0  0  0  0  1  0  0  0  0  0  0
  191.8270  170.7210  143.0950 C   0  0  0  0  0  2  0  0  0  0  0  0
  193.0700  169.9080  142.7790 C   0  0  0  0  0  2  0  0  0  0  0  0
  193.2800  168.9160  143.8230 N   0  0  0  0  0  2  0  0  0  0  0  0
  194.2240  169.4760  144.7790 C   0  0  0  0  0  2  0  0  0  0  0  0
  195.6450  168.9760  144.5030 C   0  0  0  0  0  2  0  0  0  0  0  0
  197.9400  174.0630  144.6870 C   0  0  0  0  0  2  0  0  0  0  0  0
  197.2450  170.7660  143.6850 C   0  0  0  0  0  2  0  0  0  0  0  0
  197.8160  173.1920  143.7040 C   0  0  0  0  0  2  0  0  0  0  0  0
  196.2890  170.9730  145.9380 C   0  0  0  0  0  2  0  0  0  0  0  0
  197.9250  169.1740  145.4580 C   0  0  0  0  0  1  0  0  0  0  0  0
  196.9070  172.1400  143.9790 N   0  0  2  0  0  0  0  0  0  0  0  0
  196.1830  172.3030  145.2170 C   0  0  2  0  0  3  0  0  0  0  0  0
  196.7600  169.9610  144.8880 C   0  0  1  0  0  0  0  0  0  0  0  0
  196.9990  173.6350  146.1520 S   0  0  0  0  0  0  0  0  0  0  0  0
  1  2  1  0  0  0  0
  2  5  1  0  0  0  0
  3  5  1  0  0  0  0
  3 22  1  0  0  0  0
  4  3  2  0  0  0  0
  5 48  1  1  0  0  0
  6  8  1  6  0  0  0
  6  1  1  0  0  0  0
  6  4  1  0  0  0  0
  8  7  1  1  0  0  0
  9  8  1  0  0  0  0
 10  9  1  0  0  0  0
 11 10  3  0  0  0  0
 13 11  1  0  0  0  0
 13 12  1  1  0  0  0
 13 14  1  0  0  0  0
 14 15  2  6  0  0  0
 14 16  1  0  0  0  0
 14 17  1  0  0  0  0
 17 21  1  0  0  0  0
 18 21  1  0  0  0  0
 20 21  2  0  0  0  0
 21 19  1  0  0  0  0
 22 23  1  0  0  0  0
 24 23  1  0  0  0  0
 24 25  1  0  0  0  0
 25 33  1  0  0  0  0
 26 31  1  6  0  0  0
 26 25  1  0  0  0  0
 26 27  1  0  0  0  0
 27 28  1  6  0  0  0
 27 30  1  0  0  0  0
 30 29  1  0  0  0  0
 32 31  1  0  0  0  0
 33 35  1  6  0  0  0
 34 35  1  0  0  0  0
 36 33  1  0  0  0  0
 37 41  1  0  0  0  0
 38 44  1  6  0  0  0
 38 42  1  0  0  0  0
 39 37  1  0  0  0  0
 40 38  1  0  0  0  0
 40 43  1  0  0  0  0
 42 37  2  0  0  0  0
 43 36  1  1  0  0  0
 43 39  1  0  0  0  0
 45 44  1  0  0  0  0
 46 45  1  0  0  0  0
 47 46  1  0  0  0  0
 49 48  1  0  0  0  0
 49 50  1  0  0  0  0
 50 51  1  0  0  0  0
 52 51  1  0  0  0  0
 52 60  1  0  0  0  0
 53 61  1  0  0  0  0
 54 60  1  0  0  0  0
 55 58  1  0  0  0  0
 55 53  1  0  0  0  0
 58 54  1  1  0  0  0
 58 59  1  0  0  0  0
 59 56  1  1  0  0  0
 59 61  1  0  0  0  0
 60 57  1  1  0  0  0
 60 56  1  0  0  0  0
M  END
>  <MODEL>
5

>  <REMARK>
 VINA RESULT:      -4.5      1.845      2.571
  Name = 
  28 active torsions:
  status: ('A' for Active; 'I' for Inactive)
    1  A    between atoms: N_1  and  C_24
    2  A    between atoms: N_1  and  C_35
    3  A    between atoms: N_1  and  C_52
    4  A    between atoms: C_3  and  C_52
    5  A    between atoms: C_6  and  C_35
    6  A    between atoms: C_6  and  C_61
    7  A    between atoms: C_7  and  C_15
    8  A    between atoms: P_10  and  O_27
    9  A    between atoms: P_10  and  C_60
   10  A    between atoms: C_15  and  C_29
   11  A    between atoms: O_16  and  C_28
   12  A    between atoms: O_16  and  C_47
   13  A    between atoms: C_17  and  C_52
   14  A    between atoms: C_17  and  C_57
   15  A    between atoms: C_18  and  C_24
   16  A    between atoms: C_18  and  S_43
   17  A    between atoms: C_19  and  C_25
   18  A    between atoms: C_19  and  N_39
   19  A    between atoms: C_21  and  C_50
   20  A    between atoms: C_21  and  C_53
   21  A    between atoms: C_23  and  C_60
   22  A    between atoms: C_25  and  C_49
   23  A    between atoms: O_27  and  P_58
   24  A    between atoms: C_29  and  C_59
   25  A    between atoms: C_34  and  C_47
   26  A    between atoms: C_35  and  C_56
   27  A    between atoms: N_39  and  C_53
   28  A    between atoms: C_42  and  S_43
                            x       y       z     vdW  Elec       q    Type
                         _______ _______ _______ _____ _____    ______ ____

>  <TORSDO>
F 28

$$$$
=
 OpenBabel11042419383D

 61 64  0  0  1  0  0  0  0  0999 V2000
  190.0940  177.7370  142.7820 C   0  0  0  0  0  2  0  0  0  0  0  0
  188.6430  178.1330  142.5610 C   0  0  0  0  0  2  0  0  0  0  0  0
  188.4450  175.9370  141.2730 C   0  0  0  0  0  0  0  0  0  0  0  0
  189.4590  175.4400  142.0030 C   0  0  0  0  0  3  0  0  0  0  0  0
  188.0730  177.4100  141.3360 C   0  0  1  0  0  3  0  0  0  0  0  0
  190.1570  176.2420  143.0760 C   0  0  1  0  0  3  0  0  0  0  0  0
  192.5310  176.7740  142.7030 N   0  0  0  0  0  1  0  0  0  0  0  0
  191.6070  175.8040  143.2750 C   0  0  2  0  0  3  0  0  0  0  0  0
  191.8540  174.4240  142.6860 C   0  0  0  0  0  2  0  0  0  0  0  0
  193.0320  173.8240  143.3150 C   0  0  0  0  0  0  0  0  0  0  0  0
  194.0150  173.3320  143.8110 C   0  0  0  0  0  0  0  0  0  0  0  0
  195.1670  172.8250  145.7810 O   0  0  0  0  0  1  0  0  0  0  0  0
  195.2190  172.7310  144.3900 C   0  0  2  0  0  3  0  0  0  0  0  0
  196.6880  173.6070  143.7790 P   0  0  2  0  0  0  0  0  0  0  0  0
  197.9070  172.4730  143.4720 O   0  0  0  0  0  0  0  0  0  0  0  0
  197.1540  174.5710  144.8470 O   0  0  0  0  0  1  0  0  0  0  0  0
  196.2600  174.4520  142.3680 O   0  0  0  0  0  0  0  0  0  0  0  0
  196.0440  177.0390  141.3250 O   0  0  0  0  0  0  0  0  0  0  0  0
  197.9300  176.3610  142.9910 O   0  0  0  0  0  1  0  0  0  0  0  0
  195.5410  176.5870  144.0070 O   0  0  0  0  0  1  0  0  0  0  0  0
  196.4720  176.1130  142.6770 P   0  0  0  0  0  0  0  0  0  0  0  0
  187.7900  174.9130  139.9450 S   0  0  0  0  0  0  0  0  0  0  0  0
  189.1300  173.6840  140.0410 C   0  0  0  0  0  2  0  0  0  0  0  0
  188.6990  172.3840  139.3650 C   0  0  0  0  0  2  0  0  0  0  0  0
  189.7360  171.8250  138.4850 N   0  0  0  0  0  0  0  0  0  0  0  0
  190.3260  172.8600  137.6000 C   0  0  1  0  0  3  0  0  0  0  0  0
  191.7230  172.4390  137.1190 C   0  0  1  0  0  3  0  0  0  0  0  0
  191.6630  171.6830  135.9430 O   0  0  0  0  0  1  0  0  0  0  0  0
  194.0020  173.2080  137.1600 O   0  0  0  0  0  1  0  0  0  0  0  0
  192.6810  173.6150  136.9710 C   0  0  0  0  0  2  0  0  0  0  0  0
  189.4200  173.1590  136.4000 C   0  0  0  0  0  2  0  0  0  0  0  0
  189.1380  174.6490  136.3340 C   0  0  0  0  0  1  0  0  0  0  0  0
  190.6970  171.0810  139.3270 C   0  0  1  0  0  3  0  0  0  0  0  0
  190.1910  168.7290  139.1700 O   0  0  0  0  0  1  0  0  0  0  0  0
  191.0490  169.7290  138.7090 C   0  0  0  0  0  2  0  0  0  0  0  0
  191.9250  171.8780  139.7950 C   0  0  0  0  0  2  0  0  0  0  0  0
  193.6880  169.8820  142.5790 C   0  0  0  0  0  0  0  0  0  0  0  0
  195.3970  170.7250  140.9500 C   0  0  1  0  0  3  0  0  0  0  0  0
  192.5640  170.5500  141.8220 C   0  0  0  0  0  2  0  0  0  0  0  0
  194.3160  171.6850  140.4500 C   0  0  0  0  0  2  0  0  0  0  0  0
  193.3770  169.1730  143.8520 C   0  0  0  0  0  1  0  0  0  0  0  0
  194.9740  170.0310  142.2220 C   0  0  0  0  0  3  0  0  0  0  0  0
  192.9740  170.9650  140.4080 C   0  0  2  0  0  3  0  0  0  0  0  0
  195.6640  169.7680  139.9660 O   0  0  0  0  0  0  0  0  0  0  0  0
  196.7520  170.2780  139.2510 C   0  0  0  0  0  2  0  0  0  0  0  0
  196.5590  170.0020  137.7750 C   0  0  0  0  0  2  0  0  0  0  0  0
  196.5440  171.2050  137.0670 O   0  0  0  0  0  1  0  0  0  0  0  0
  186.5690  177.6150  141.2960 C   0  0  0  0  0  2  0  0  0  0  0  0
  186.0590  178.0950  142.6440 C   0  0  0  0  0  2  0  0  0  0  0  0
  185.5290  176.9650  143.3930 N   0  0  0  0  0  2  0  0  0  0  0  0
  185.4090  177.3760  144.7840 C   0  0  0  0  0  2  0  0  0  0  0  0
  186.7150  177.9980  145.2870 C   0  0  0  0  0  2  0  0  0  0  0  0
  190.9150  175.1960  147.6720 C   0  0  0  0  0  2  0  0  0  0  0  0
  187.8710  175.8720  146.0500 C   0  0  0  0  0  2  0  0  0  0  0  0
  190.0180  174.8350  146.7750 C   0  0  0  0  0  2  0  0  0  0  0  0
  188.5820  178.0180  147.0110 C   0  0  0  0  0  2  0  0  0  0  0  0
  186.3480  177.1010  147.5700 C   0  0  0  0  0  1  0  0  0  0  0  0
  189.3070  175.9190  146.2030 N   0  0  2  0  0  0  0  0  0  0  0  0
  189.8020  177.2160  146.6000 C   0  0  2  0  0  3  0  0  0  0  0  0
  187.3720  177.2550  146.4610 C   0  0  1  0  0  0  0  0  0  0  0  0
  190.9340  176.9580  148.0020 S   0  0  0  0  0  0  0  0  0  0  0  0
  1  6  1  0  0  0  0
  2  1  1  0  0  0  0
  3  5  1  0  0  0  0
  3  4  2  0  0  0  0
  4  6  1  0  0  0  0
  5 48  1  1  0  0  0
  5  2  1  0  0  0  0
  6  8  1  6  0  0  0
  8  7  1  6  0  0  0
  9  8  1  0  0  0  0
  9 10  1  0  0  0  0
 10 11  3  0  0  0  0
 11 13  1  0  0  0  0
 13 12  1  1  0  0  0
 14 15  2  6  0  0  0
 14 13  1  0  0  0  0
 14 16  1  0  0  0  0
 17 21  1  0  0  0  0
 17 14  1  0  0  0  0
 18 21  2  0  0  0  0
 21 19  1  0  0  0  0
 21 20  1  0  0  0  0
 22 23  1  0  0  0  0
 22  3  1  0  0  0  0
 24 23  1  0  0  0  0
 25 33  1  0  0  0  0
 25 24  1  0  0  0  0
 26 31  1  6  0  0  0
 26 25  1  0  0  0  0
 27 28  1  6  0  0  0
 27 26  1  0  0  0  0
 30 27  1  0  0  0  0
 30 29  1  0  0  0  0
 32 31  1  0  0  0  0
 33 35  1  6  0  0  0
 33 36  1  0  0  0  0
 35 34  1  0  0  0  0
 37 41  1  0  0  0  0
 38 44  1  6  0  0  0
 38 42  1  0  0  0  0
 39 37  1  0  0  0  0
 40 38  1  0  0  0  0
 42 37  2  0  0  0  0
 43 36  1  1  0  0  0
 43 40  1  0  0  0  0
 43 39  1  0  0  0  0
 45 44  1  0  0  0  0
 46 45  1  0  0  0  0
 47 46  1  0  0  0  0
 48 49  1  0  0  0  0
 49 50  1  0  0  0  0
 50 51  1  0  0  0  0
 51 52  1  0  0  0  0
 52 60  1  0  0  0  0
 53 61  1  0  0  0  0
 54 60  1  0  0  0  0
 55 53  1  0  0  0  0
 58 54  1  1  0  0  0
 58 59  1  0  0  0  0
 58 55  1  0  0  0  0
 59 56  1  1  0  0  0
 59 61  1  0  0  0  0
 60 56  1  0  0  0  0
 60 57  1  1  0  0  0
M  END
>  <MODEL>
6

>  <REMARK>
 VINA RESULT:      -4.5      3.534      9.418
  Name = 
  28 active torsions:
  status: ('A' for Active; 'I' for Inactive)
    1  A    between atoms: N_1  and  C_24
    2  A    between atoms: N_1  and  C_35
    3  A    between atoms: N_1  and  C_52
    4  A    between atoms: C_3  and  C_52
    5  A    between atoms: C_6  and  C_35
    6  A    between atoms: C_6  and  C_61
    7  A    between atoms: C_7  and  C_15
    8  A    between atoms: P_10  and  O_27
    9  A    between atoms: P_10  and  C_60
   10  A    between atoms: C_15  and  C_29
   11  A    between atoms: O_16  and  C_28
   12  A    between atoms: O_16  and  C_47
   13  A    between atoms: C_17  and  C_52
   14  A    between atoms: C_17  and  C_57
   15  A    between atoms: C_18  and  C_24
   16  A    between atoms: C_18  and  S_43
   17  A    between atoms: C_19  and  C_25
   18  A    between atoms: C_19  and  N_39
   19  A    between atoms: C_21  and  C_50
   20  A    between atoms: C_21  and  C_53
   21  A    between atoms: C_23  and  C_60
   22  A    between atoms: C_25  and  C_49
   23  A    between atoms: O_27  and  P_58
   24  A    between atoms: C_29  and  C_59
   25  A    between atoms: C_34  and  C_47
   26  A    between atoms: C_35  and  C_56
   27  A    between atoms: N_39  and  C_53
   28  A    between atoms: C_42  and  S_43
                            x       y       z     vdW  Elec       q    Type
                         _______ _______ _______ _____ _____    ______ ____

>  <TORSDO>
F 28

$$$$
=
 OpenBabel11042419383D

 61 64  0  0  1  0  0  0  0  0999 V2000
  192.1230  173.1720  140.2090 C   0  0  0  0  0  2  0  0  0  0  0  0
  192.7790  172.2960  141.2640 C   0  0  0  0  0  2  0  0  0  0  0  0
  190.4840  172.2610  142.3830 C   0  0  0  0  0  0  0  0  0  0  0  0
  189.9180  172.4800  141.1840 C   0  0  0  0  0  3  0  0  0  0  0  0
  191.9900  172.3560  142.5760 C   0  0  1  0  0  3  0  0  0  0  0  0
  190.7280  172.6280  139.9170 C   0  0  1  0  0  3  0  0  0  0  0  0
  188.7100  173.9170  139.3480 N   0  0  0  0  0  1  0  0  0  0  0  0
  190.0270  173.5030  138.8800 C   0  0  2  0  0  3  0  0  0  0  0  0
  189.9150  172.7920  137.5410 C   0  0  0  0  0  2  0  0  0  0  0  0
  191.2510  172.4210  137.0670 C   0  0  0  0  0  0  0  0  0  0  0  0
  192.3440  172.0910  136.6810 C   0  0  0  0  0  0  0  0  0  0  0  0
  193.7170  170.2730  136.1580 O   0  0  0  0  0  1  0  0  0  0  0  0
  193.6670  171.6660  136.2210 C   0  0  2  0  0  3  0  0  0  0  0  0
  194.9340  172.2630  137.3770 P   0  0  2  0  0  0  0  0  0  0  0  0
  196.4560  172.0810  136.6580 O   0  0  0  0  0  0  0  0  0  0  0  0
  194.8700  171.4300  138.6380 O   0  0  0  0  0  1  0  0  0  0  0  0
  194.6090  173.8940  137.7310 O   0  0  0  0  0  0  0  0  0  0  0  0
  197.1480  175.0490  137.9370 O   0  0  0  0  0  0  0  0  0  0  0  0
  196.2810  173.2770  139.6410 O   0  0  0  0  0  1  0  0  0  0  0  0
  195.2060  175.6440  139.8140 O   0  0  0  0  0  1  0  0  0  0  0  0
  195.8200  174.4420  138.7950 P   0  0  0  0  0  0  0  0  0  0  0  0
  189.4060  172.2310  143.8240 S   0  0  0  0  0  0  0  0  0  0  0  0
  190.6290  173.0000  144.9320 C   0  0  0  0  0  2  0  0  0  0  0  0
  190.8330  174.4650  144.5510 C   0  0  0  0  0  2  0  0  0  0  0  0
  189.6630  175.3030  144.8500 N   0  0  0  0  0  0  0  0  0  0  0  0
  189.6910  175.8150  146.2420 C   0  0  1  0  0  3  0  0  0  0  0  0
  191.0740  176.3860  146.5890 C   0  0  1  0  0  3  0  0  0  0  0  0
  191.1550  177.7560  146.3230 O   0  0  0  0  0  1  0  0  0  0  0  0
  191.3160  177.1820  148.8470 O   0  0  0  0  0  1  0  0  0  0  0  0
  191.5050  176.0750  148.0190 C   0  0  0  0  0  2  0  0  0  0  0  0
  188.6080  176.8750  146.4750 C   0  0  0  0  0  2  0  0  0  0  0  0
  187.3660  176.2170  147.0490 C   0  0  0  0  0  1  0  0  0  0  0  0
  189.5560  176.3320  143.7930 C   0  0  1  0  0  3  0  0  0  0  0  0
  191.5690  176.0700  142.4910 O   0  0  0  0  0  1  0  0  0  0  0  0
  190.9280  176.8910  143.4200 C   0  0  0  0  0  2  0  0  0  0  0  0
  188.6990  175.9470  142.5760 C   0  0  0  0  0  2  0  0  0  0  0  0
  185.6220  177.7990  141.1820 C   0  0  0  0  0  0  0  0  0  0  0  0
  186.0720  178.5790  143.5210 C   0  0  1  0  0  3  0  0  0  0  0  0
  186.8200  176.8790  141.2040 C   0  0  0  0  0  2  0  0  0  0  0  0
  187.4600  177.9530  143.3670 C   0  0  0  0  0  2  0  0  0  0  0  0
  184.8290  177.9170  139.9260 C   0  0  0  0  0  1  0  0  0  0  0  0
  185.3360  178.6210  142.2040 C   0  0  0  0  0  3  0  0  0  0  0  0
  187.3420  176.6290  142.6210 C   0  0  2  0  0  3  0  0  0  0  0  0
  185.3260  177.8410  144.4460 O   0  0  0  0  0  0  0  0  0  0  0  0
  184.7090  178.7980  145.2580 C   0  0  0  0  0  2  0  0  0  0  0  0
  184.6820  178.3030  146.6890 C   0  0  0  0  0  2  0  0  0  0  0  0
  185.3400  179.2150  147.5170 O   0  0  0  0  0  1  0  0  0  0  0  0
  192.5070  171.2820  143.5160 C   0  0  0  0  0  2  0  0  0  0  0  0
  193.8310  170.7280  143.0160 C   0  0  0  0  0  2  0  0  0  0  0  0
  194.3720  169.8010  143.9990 N   0  0  0  0  0  2  0  0  0  0  0  0
  195.5050  170.4500  144.6400 C   0  0  0  0  0  2  0  0  0  0  0  0
  196.2960  171.2930  143.6350 C   0  0  0  0  0  2  0  0  0  0  0  0
  194.8770  176.6840  143.9470 C   0  0  0  0  0  2  0  0  0  0  0  0
  196.4270  173.7130  142.8860 C   0  0  0  0  0  2  0  0  0  0  0  0
  195.3440  175.9570  142.9500 C   0  0  0  0  0  2  0  0  0  0  0  0
  195.5180  173.2100  145.1120 C   0  0  0  0  0  2  0  0  0  0  0  0
  197.9280  172.8530  144.6580 C   0  0  0  0  0  1  0  0  0  0  0  0
  195.2950  174.5600  143.1850 N   0  0  2  0  0  0  0  0  0  0  0  0
  194.6100  174.1970  144.4030 C   0  0  2  0  0  3  0  0  0  0  0  0
  196.5370  172.7490  144.0630 C   0  0  1  0  0  0  0  0  0  0  0  0
  194.3920  175.7200  145.3780 S   0  0  0  0  0  0  0  0  0  0  0  0
  1  2  1  0  0  0  0
  2  5  1  0  0  0  0
  3  5  1  0  0  0  0
  3 22  1  0  0  0  0
  4  3  2  0  0  0  0
  5 48  1  1  0  0  0
  6  8  1  6  0  0  0
  6  1  1  0  0  0  0
  6  4  1  0  0  0  0
  8  7  1  1  0  0  0
  9  8  1  0  0  0  0
 10  9  1  0  0  0  0
 11 10  3  0  0  0  0
 13 12  1  1  0  0  0
 13 11  1  0  0  0  0
 13 14  1  0  0  0  0
 14 15  2  6  0  0  0
 14 17  1  0  0  0  0
 14 16  1  0  0  0  0
 17 21  1  0  0  0  0
 18 21  2  0  0  0  0
 21 19  1  0  0  0  0
 21 20  1  0  0  0  0
 22 23  1  0  0  0  0
 24 25  1  0  0  0  0
 24 23  1  0  0  0  0
 25 26  1  0  0  0  0
 26 31  1  6  0  0  0
 26 27  1  0  0  0  0
 27 28  1  1  0  0  0
 27 30  1  0  0  0  0
 30 29  1  0  0  0  0
 31 32  1  0  0  0  0
 33 36  1  6  0  0  0
 33 25  1  0  0  0  0
 34 35  1  0  0  0  0
 35 33  1  0  0  0  0
 37 39  1  0  0  0  0
 37 42  2  0  0  0  0
 38 44  1  1  0  0  0
 39 43  1  0  0  0  0
 40 38  1  0  0  0  0
 41 37  1  0  0  0  0
 42 38  1  0  0  0  0
 43 36  1  6  0  0  0
 43 40  1  0  0  0  0
 44 45  1  0  0  0  0
 45 46  1  0  0  0  0
 46 47  1  0  0  0  0
 49 48  1  0  0  0  0
 49 50  1  0  0  0  0
 50 51  1  0  0  0  0
 52 60  1  0  0  0  0
 52 51  1  0  0  0  0
 53 61  1  0  0  0  0
 54 60  1  0  0  0  0
 55 58  1  0  0  0  0
 55 53  1  0  0  0  0
 58 54  1  1  0  0  0
 58 59  1  0  0  0  0
 59 56  1  1  0  0  0
 59 61  1  0  0  0  0
 60 57  1  1  0  0  0
 60 56  1  0  0  0  0
M  END
>  <MODEL>
7

>  <REMARK>
 VINA RESULT:      -4.2      1.701      2.883
  Name = 
  28 active torsions:
  status: ('A' for Active; 'I' for Inactive)
    1  A    between atoms: N_1  and  C_24
    2  A    between atoms: N_1  and  C_35
    3  A    between atoms: N_1  and  C_52
    4  A    between atoms: C_3  and  C_52
    5  A    between atoms: C_6  and  C_35
    6  A    between atoms: C_6  and  C_61
    7  A    between atoms: C_7  and  C_15
    8  A    between atoms: P_10  and  O_27
    9  A    between atoms: P_10  and  C_60
   10  A    between atoms: C_15  and  C_29
   11  A    between atoms: O_16  and  C_28
   12  A    between atoms: O_16  and  C_47
   13  A    between atoms: C_17  and  C_52
   14  A    between atoms: C_17  and  C_57
   15  A    between atoms: C_18  and  C_24
   16  A    between atoms: C_18  and  S_43
   17  A    between atoms: C_19  and  C_25
   18  A    between atoms: C_19  and  N_39
   19  A    between atoms: C_21  and  C_50
   20  A    between atoms: C_21  and  C_53
   21  A    between atoms: C_23  and  C_60
   22  A    between atoms: C_25  and  C_49
   23  A    between atoms: O_27  and  P_58
   24  A    between atoms: C_29  and  C_59
   25  A    between atoms: C_34  and  C_47
   26  A    between atoms: C_35  and  C_56
   27  A    between atoms: N_39  and  C_53
   28  A    between atoms: C_42  and  S_43
                            x       y       z     vdW  Elec       q    Type
                         _______ _______ _______ _____ _____    ______ ____

>  <TORSDO>
F 28

$$$$
=
 OpenBabel11042419383D

 61 64  0  0  1  0  0  0  0  0999 V2000
  188.1060  174.8680  142.0130 C   0  0  0  0  0  2  0  0  0  0  0  0
  188.8000  175.7270  143.0570 C   0  0  0  0  0  2  0  0  0  0  0  0
  190.8830  174.3490  142.5220 C   0  0  0  0  0  0  0  0  0  0  0  0
  190.3870  174.1130  141.2950 C   0  0  0  0  0  3  0  0  0  0  0  0
  190.0390  175.0090  143.6020 C   0  0  1  0  0  3  0  0  0  0  0  0
  189.0550  174.6600  140.8380 C   0  0  1  0  0  3  0  0  0  0  0  0
  189.1630  172.5510  139.5720 N   0  0  0  0  0  1  0  0  0  0  0  0
  188.3990  173.7750  139.7790 C   0  0  2  0  0  3  0  0  0  0  0  0
  188.2240  174.5200  138.4660 C   0  0  0  0  0  2  0  0  0  0  0  0
  188.8820  173.7790  137.3870 C   0  0  0  0  0  0  0  0  0  0  0  0
  189.4090  173.1810  136.4830 C   0  0  0  0  0  0  0  0  0  0  0  0
  189.1730  171.4550  134.9240 O   0  0  0  0  0  1  0  0  0  0  0  0
  190.0300  172.4630  135.3680 C   0  0  2  0  0  3  0  0  0  0  0  0
  191.5970  171.7260  135.9160 P   0  0  2  0  0  0  0  0  0  0  0  0
  192.8750  172.6740  135.3390 O   0  0  0  0  0  0  0  0  0  0  0  0
  191.7030  170.3320  135.3400 O   0  0  0  0  0  1  0  0  0  0  0  0
  191.5920  171.6630  137.6150 O   0  0  0  0  0  0  0  0  0  0  0  0
  193.3660  173.8170  137.8090 O   0  0  0  0  0  1  0  0  0  0  0  0
  194.1820  171.3690  137.4390 O   0  0  0  0  0  0  0  0  0  0  0  0
  193.2760  171.9190  139.8190 O   0  0  0  0  0  1  0  0  0  0  0  0
  193.1230  172.1770  138.1550 P   0  0  0  0  0  0  0  0  0  0  0  0
  192.4220  173.5320  142.9750 S   0  0  0  0  0  0  0  0  0  0  0  0
  193.4830  174.7850  142.1900 C   0  0  0  0  0  2  0  0  0  0  0  0
  194.7890  174.9290  142.9690 C   0  0  0  0  0  2  0  0  0  0  0  0
  195.7810  173.9010  142.6200 N   0  0  0  0  0  0  0  0  0  0  0  0
  196.7250  174.3760  141.5790 C   0  0  1  0  0  3  0  0  0  0  0  0
  196.1300  174.1930  140.1740 C   0  0  1  0  0  3  0  0  0  0  0  0
  196.2290  175.3610  139.4100 O   0  0  0  0  0  1  0  0  0  0  0  0
  197.1220  172.0070  140.3250 O   0  0  0  0  0  1  0  0  0  0  0  0
  196.7130  172.9960  139.4310 C   0  0  0  0  0  2  0  0  0  0  0  0
  197.1190  175.8410  141.8000 C   0  0  0  0  0  2  0  0  0  0  0  0
  197.9390  175.9600  143.0720 C   0  0  0  0  0  1  0  0  0  0  0  0
  196.4010  173.4220  143.8740 C   0  0  1  0  0  3  0  0  0  0  0  0
  195.9690  174.2080  146.1120 O   0  0  0  0  0  1  0  0  0  0  0  0
  195.4220  173.4950  145.0440 C   0  0  0  0  0  2  0  0  0  0  0  0
  197.1410  172.0780  143.7770 C   0  0  0  0  0  2  0  0  0  0  0  0
  196.6340  169.2900  146.3880 C   0  0  0  0  0  0  0  0  0  0  0  0
  195.3350  168.7360  144.3170 C   0  0  1  0  0  3  0  0  0  0  0  0
  197.1780  170.5570  145.7680 C   0  0  0  0  0  2  0  0  0  0  0  0
  196.1920  169.7860  143.6060 C   0  0  0  0  0  2  0  0  0  0  0  0
  197.0970  168.8980  147.7480 C   0  0  0  0  0  1  0  0  0  0  0  0
  195.8640  168.4340  145.6970 C   0  0  0  0  0  3  0  0  0  0  0  0
  196.3960  170.9840  144.5250 C   0  0  2  0  0  3  0  0  0  0  0  0
  194.0180  169.1960  144.4150 O   0  0  0  0  0  0  0  0  0  0  0  0
  193.2340  168.1660  143.8840 C   0  0  0  0  0  2  0  0  0  0  0  0
  192.3670  168.7150  142.7710 C   0  0  0  0  0  2  0  0  0  0  0  0
  192.6840  170.0550  142.5430 O   0  0  0  0  0  1  0  0  0  0  0  0
  190.8510  175.9840  144.4360 C   0  0  0  0  0  2  0  0  0  0  0  0
  190.3720  175.9810  145.8780 C   0  0  0  0  0  2  0  0  0  0  0  0
  189.6950  177.2360  146.1670 N   0  0  0  0  0  2  0  0  0  0  0  0
  188.7700  176.9960  147.2650 C   0  0  0  0  0  2  0  0  0  0  0  0
  187.7010  178.0910  147.3300 C   0  0  0  0  0  2  0  0  0  0  0  0
  184.1070  178.8270  143.1200 C   0  0  0  0  0  2  0  0  0  0  0  0
  185.5780  179.0290  146.3070 C   0  0  0  0  0  2  0  0  0  0  0  0
  184.3550  179.5460  144.1970 C   0  0  0  0  0  2  0  0  0  0  0  0
  186.6940  177.1430  145.1970 C   0  0  0  0  0  2  0  0  0  0  0  0
  185.5850  176.7980  147.3860 C   0  0  0  0  0  1  0  0  0  0  0  0
  185.5480  179.1840  144.8700 N   0  0  2  0  0  0  0  0  0  0  0  0
  186.3380  178.1990  144.1680 C   0  0  2  0  0  3  0  0  0  0  0  0
  186.4070  177.7730  146.5640 C   0  0  1  0  0  0  0  0  0  0  0  0
  185.2950  177.5140  142.8420 S   0  0  0  0  0  0  0  0  0  0  0  0
  1  2  1  0  0  0  0
  2  5  1  0  0  0  0
  3 22  1  0  0  0  0
  3  5  1  0  0  0  0
  4  3  2  0  0  0  0
  5 48  1  6  0  0  0
  6  8  1  6  0  0  0
  6  4  1  0  0  0  0
  6  1  1  0  0  0  0
  8  7  1  6  0  0  0
  9  8  1  0  0  0  0
 10  9  1  0  0  0  0
 11 10  3  0  0  0  0
 13 12  1  1  0  0  0
 13 14  1  0  0  0  0
 13 11  1  0  0  0  0
 14 15  2  6  0  0  0
 14 17  1  0  0  0  0
 16 14  1  0  0  0  0
 17 21  1  0  0  0  0
 18 21  1  0  0  0  0
 19 21  2  0  0  0  0
 21 20  1  0  0  0  0
 23 24  1  0  0  0  0
 23 22  1  0  0  0  0
 25 24  1  0  0  0  0
 25 33  1  0  0  0  0
 26 31  1  1  0  0  0
 26 25  1  0  0  0  0
 27 28  1  6  0  0  0
 27 26  1  0  0  0  0
 30 27  1  0  0  0  0
 30 29  1  0  0  0  0
 31 32  1  0  0  0  0
 33 36  1  6  0  0  0
 33 35  1  0  0  0  0
 35 34  1  0  0  0  0
 37 41  1  0  0  0  0
 38 44  1  1  0  0  0
 38 42  1  0  0  0  0
 39 37  1  0  0  0  0
 40 38  1  0  0  0  0
 40 43  1  0  0  0  0
 42 37  2  0  0  0  0
 43 36  1  6  0  0  0
 43 39  1  0  0  0  0
 45 44  1  0  0  0  0
 46 45  1  0  0  0  0
 47 46  1  0  0  0  0
 48 49  1  0  0  0  0
 49 50  1  0  0  0  0
 50 51  1  0  0  0  0
 51 52  1  0  0  0  0
 53 55  1  0  0  0  0
 54 60  1  0  0  0  0
 56 60  1  0  0  0  0
 58 55  1  6  0  0  0
 58 54  1  0  0  0  0
 59 58  1  0  0  0  0
 59 56  1  1  0  0  0
 60 52  1  0  0  0  0
 60 57  1  1  0  0  0
 61 53  1  0  0  0  0
 61 59  1  0  0  0  0
M  END
>  <MODEL>
8

>  <REMARK>
 VINA RESULT:      -4.1      3.192      8.835
  Name = 
  28 active torsions:
  status: ('A' for Active; 'I' for Inactive)
    1  A    between atoms: N_1  and  C_24
    2  A    between atoms: N_1  and  C_35
    3  A    between atoms: N_1  and  C_52
    4  A    between atoms: C_3  and  C_52
    5  A    between atoms: C_6  and  C_35
    6  A    between atoms: C_6  and  C_61
    7  A    between atoms: C_7  and  C_15
    8  A    between atoms: P_10  and  O_27
    9  A    between atoms: P_10  and  C_60
   10  A    between atoms: C_15  and  C_29
   11  A    between atoms: O_16  and  C_28
   12  A    between atoms: O_16  and  C_47
   13  A    between atoms: C_17  and  C_52
   14  A    between atoms: C_17  and  C_57
   15  A    between atoms: C_18  and  C_24
   16  A    between atoms: C_18  and  S_43
   17  A    between atoms: C_19  and  C_25
   18  A    between atoms: C_19  and  N_39
   19  A    between atoms: C_21  and  C_50
   20  A    between atoms: C_21  and  C_53
   21  A    between atoms: C_23  and  C_60
   22  A    between atoms: C_25  and  C_49
   23  A    between atoms: O_27  and  P_58
   24  A    between atoms: C_29  and  C_59
   25  A    between atoms: C_34  and  C_47
   26  A    between atoms: C_35  and  C_56
   27  A    between atoms: N_39  and  C_53
   28  A    between atoms: C_42  and  S_43
                            x       y       z     vdW  Elec       q    Type
                         _______ _______ _______ _____ _____    ______ ____

>  <TORSDO>
F 28

$$$$
=
 OpenBabel11042419383D

 61 64  0  0  1  0  0  0  0  0999 V2000
  191.4720  173.8560  141.1480 C   0  0  0  0  0  2  0  0  0  0  0  0
  192.4810  173.1850  142.0650 C   0  0  0  0  0  2  0  0  0  0  0  0
  190.4490  172.1900  143.2510 C   0  0  0  0  0  0  0  0  0  0  0  0
  189.7520  172.3030  142.1070 C   0  0  0  0  0  3  0  0  0  0  0  0
  191.8270  172.8170  143.4010 C   0  0  1  0  0  3  0  0  0  0  0  0
  190.3530  172.8660  140.8400 C   0  0  1  0  0  3  0  0  0  0  0  0
  188.0920  172.7100  139.8790 N   0  0  0  0  0  1  0  0  0  0  0  0
  189.3040  173.5180  139.9420 C   0  0  2  0  0  3  0  0  0  0  0  0
  189.8490  173.7660  138.5450 C   0  0  0  0  0  2  0  0  0  0  0  0
  190.1010  172.4860  137.8790 C   0  0  0  0  0  0  0  0  0  0  0  0
  190.3320  171.4410  137.3250 C   0  0  0  0  0  0  0  0  0  0  0  0
  190.3450  169.1080  137.4870 O   0  0  0  0  0  1  0  0  0  0  0  0
  190.6340  170.1810  136.6420 C   0  0  2  0  0  3  0  0  0  0  0  0
  192.3930  170.1400  136.1920 P   0  0  2  0  0  0  0  0  0  0  0  0
  192.6360  168.9020  135.0630 O   0  0  0  0  0  0  0  0  0  0  0  0
  193.2030  169.8530  137.4360 O   0  0  0  0  0  1  0  0  0  0  0  0
  192.8170  171.6550  135.5500 O   0  0  0  0  0  0  0  0  0  0  0  0
  195.2460  172.9390  135.0250 O   0  0  0  0  0  0  0  0  0  0  0  0
  195.0940  170.7930  136.4960 O   0  0  0  0  0  1  0  0  0  0  0  0
  194.1870  172.9820  137.5800 O   0  0  0  0  0  1  0  0  0  0  0  0
  194.3490  172.0670  136.1670 P   0  0  0  0  0  0  0  0  0  0  0  0
  189.5700  171.6190  144.7140 S   0  0  0  0  0  0  0  0  0  0  0  0
  190.0180  173.0670  145.7220 C   0  0  0  0  0  2  0  0  0  0  0  0
  189.8570  174.3470  144.9040 C   0  0  0  0  0  2  0  0  0  0  0  0
  190.4820  175.5160  145.5400 N   0  0  0  0  0  0  0  0  0  0  0  0
  190.9220  176.5190  144.5390 C   0  0  1  0  0  3  0  0  0  0  0  0
  192.3750  176.2630  144.1080 C   0  0  1  0  0  3  0  0  0  0  0  0
  192.7010  176.9550  142.9370 O   0  0  0  0  0  1  0  0  0  0  0  0
  194.0680  175.3870  145.5760 O   0  0  0  0  0  1  0  0  0  0  0  0
  193.3830  176.5480  145.2160 C   0  0  0  0  0  2  0  0  0  0  0  0
  190.0020  176.5350  143.3140 C   0  0  0  0  0  2  0  0  0  0  0  0
  189.8430  177.9590  142.8140 C   0  0  0  0  0  1  0  0  0  0  0  0
  189.5590  176.0160  146.5820 C   0  0  1  0  0  3  0  0  0  0  0  0
  190.8060  177.5490  147.9630 O   0  0  0  0  0  1  0  0  0  0  0  0
  189.8590  177.4700  146.9410 C   0  0  0  0  0  2  0  0  0  0  0  0
  188.0670  175.7410  146.3340 C   0  0  0  0  0  2  0  0  0  0  0  0
  185.7040  178.7320  146.8920 C   0  0  0  0  0  0  0  0  0  0  0  0
  185.5830  178.0140  144.4930 C   0  0  1  0  0  3  0  0  0  0  0  0
  186.6830  177.6300  147.2250 C   0  0  0  0  0  2  0  0  0  0  0  0
  186.2480  176.7100  144.9440 C   0  0  0  0  0  2  0  0  0  0  0  0
  185.2110  179.6120  147.9870 C   0  0  0  0  0  1  0  0  0  0  0  0
  185.1530  178.8500  145.6730 C   0  0  0  0  0  3  0  0  0  0  0  0
  187.3240  177.0180  145.9780 C   0  0  2  0  0  3  0  0  0  0  0  0
  186.4780  178.7470  143.7060 O   0  0  0  0  0  0  0  0  0  0  0  0
  186.2540  178.3060  142.3980 C   0  0  0  0  0  2  0  0  0  0  0  0
  184.7630  178.2350  142.1400 C   0  0  0  0  0  2  0  0  0  0  0  0
  184.5300  177.9460  140.7940 O   0  0  0  0  0  1  0  0  0  0  0  0
  192.7710  171.9230  144.1860 C   0  0  0  0  0  2  0  0  0  0  0  0
  193.7940  171.2860  143.2610 C   0  0  0  0  0  2  0  0  0  0  0  0
  194.7340  170.4990  144.0460 N   0  0  0  0  0  2  0  0  0  0  0  0
  195.9270  170.3010  143.2360 C   0  0  0  0  0  2  0  0  0  0  0  0
  195.8140  171.0460  141.9030 C   0  0  0  0  0  2  0  0  0  0  0  0
  197.9050  175.4440  139.1710 C   0  0  0  0  0  2  0  0  0  0  0  0
  197.4520  172.1500  140.3110 C   0  0  0  0  0  2  0  0  0  0  0  0
  197.9390  174.1520  138.9090 C   0  0  0  0  0  2  0  0  0  0  0  0
  196.2010  173.5580  141.8870 C   0  0  0  0  0  2  0  0  0  0  0  0
  197.9410  172.0110  142.7360 C   0  0  0  0  0  1  0  0  0  0  0  0
  197.0350  173.3830  139.6840 N   0  0  2  0  0  0  0  0  0  0  0  0
  196.1490  174.1750  140.5030 C   0  0  2  0  0  3  0  0  0  0  0  0
  196.8380  172.1760  141.7080 C   0  0  1  0  0  0  0  0  0  0  0  0
  196.7930  175.8790  140.5080 S   0  0  0  0  0  0  0  0  0  0  0  0
  1  2  1  0  0  0  0
  2  5  1  0  0  0  0
  3  5  1  0  0  0  0
  3 22  1  0  0  0  0
  4  3  2  0  0  0  0
  5 48  1  6  0  0  0
  6  8  1  1  0  0  0
  6  1  1  0  0  0  0
  6  4  1  0  0  0  0
  8  7  1  6  0  0  0
  9  8  1  0  0  0  0
 10  9  1  0  0  0  0
 11 10  3  0  0  0  0
 13 11  1  0  0  0  0
 13 12  1  1  0  0  0
 14 15  2  6  0  0  0
 14 13  1  0  0  0  0
 14 16  1  0  0  0  0
 17 21  1  0  0  0  0
 17 14  1  0  0  0  0
 18 21  2  0  0  0  0
 21 19  1  0  0  0  0
 21 20  1  0  0  0  0
 22 23  1  0  0  0  0
 24 25  1  0  0  0  0
 24 23  1  0  0  0  0
 25 33  1  0  0  0  0
 26 31  1  6  0  0  0
 26 25  1  0  0  0  0
 27 28  1  6  0  0  0
 27 26  1  0  0  0  0
 27 30  1  0  0  0  0
 30 29  1  0  0  0  0
 32 31  1  0  0  0  0
 33 36  1  6  0  0  0
 33 35  1  0  0  0  0
 35 34  1  0  0  0  0
 37 39  1  0  0  0  0
 37 41  1  0  0  0  0
 38 44  1  1  0  0  0
 38 40  1  0  0  0  0
 38 42  1  0  0  0  0
 40 43  1  0  0  0  0
 42 37  2  0  0  0  0
 43 36  1  1  0  0  0
 43 39  1  0  0  0  0
 45 44  1  0  0  0  0
 46 45  1  0  0  0  0
 47 46  1  0  0  0  0
 49 50  1  0  0  0  0
 49 48  1  0  0  0  0
 51 50  1  0  0  0  0
 52 51  1  0  0  0  0
 53 61  1  0  0  0  0
 54 60  1  0  0  0  0
 55 53  1  0  0  0  0
 58 55  1  1  0  0  0
 58 54  1  0  0  0  0
 58 59  1  0  0  0  0
 59 61  1  0  0  0  0
 59 56  1  1  0  0  0
 60 56  1  0  0  0  0
 60 52  1  0  0  0  0
 60 57  1  1  0  0  0
M  END
>  <MODEL>
9

>  <REMARK>
 VINA RESULT:      -3.9      1.948      3.105
  Name = 
  28 active torsions:
  status: ('A' for Active; 'I' for Inactive)
    1  A    between atoms: N_1  and  C_24
    2  A    between atoms: N_1  and  C_35
    3  A    between atoms: N_1  and  C_52
    4  A    between atoms: C_3  and  C_52
    5  A    between atoms: C_6  and  C_35
    6  A    between atoms: C_6  and  C_61
    7  A    between atoms: C_7  and  C_15
    8  A    between atoms: P_10  and  O_27
    9  A    between atoms: P_10  and  C_60
   10  A    between atoms: C_15  and  C_29
   11  A    between atoms: O_16  and  C_28
   12  A    between atoms: O_16  and  C_47
   13  A    between atoms: C_17  and  C_52
   14  A    between atoms: C_17  and  C_57
   15  A    between atoms: C_18  and  C_24
   16  A    between atoms: C_18  and  S_43
   17  A    between atoms: C_19  and  C_25
   18  A    between atoms: C_19  and  N_39
   19  A    between atoms: C_21  and  C_50
   20  A    between atoms: C_21  and  C_53
   21  A    between atoms: C_23  and  C_60
   22  A    between atoms: C_25  and  C_49
   23  A    between atoms: O_27  and  P_58
   24  A    between atoms: C_29  and  C_59
   25  A    between atoms: C_34  and  C_47
   26  A    between atoms: C_35  and  C_56
   27  A    between atoms: N_39  and  C_53
   28  A    between atoms: C_42  and  S_43
                            x       y       z     vdW  Elec       q    Type
                         _______ _______ _______ _____ _____    ______ ____

>  <TORSDO>
F 28

$$$$
