=
 OpenBabel11042413423D

 58 63  0  0  1  0  0  0  0  0999 V2000
  191.4300  170.9680  142.1600 C   0  0  0  0  0  0  0  0  0  0  0  0
  191.1760  171.8650  143.3140 C   0  0  1  0  0  3  0  0  0  0  0  0
  190.6100  170.1470  141.7960 O   0  0  0  0  0  0  0  0  0  0  0  0
  193.2740  170.8510  144.3210 C   0  0  2  0  0  3  0  0  0  0  0  0
  193.6050  171.5320  143.0010 C   0  0  1  0  0  3  0  0  0  0  0  0
  192.8770  170.8060  141.8740 C   0  0  2  0  0  3  0  0  0  0  0  0
  192.5570  172.1320  143.9190 C   0  0  1  0  0  3  0  0  0  0  0  0
  190.5430  173.1900  142.8880 C   0  0  2  0  0  3  0  0  0  0  0  0
  188.8020  174.7160  143.0510 C   0  0  2  0  0  3  0  0  0  0  0  0
  190.0520  175.3320  143.3230 O   0  0  0  0  0  0  0  0  0  0  0  0
  190.9080  174.3410  143.7270 N   0  0  0  0  0  0  0  0  0  0  0  0
  188.6530  172.8220  141.5180 O   0  0  0  0  0  1  0  0  0  0  0  0
  189.0510  173.2240  142.8020 C   0  0  1  0  0  3  0  0  0  0  0  0
  188.0920  175.4480  141.9160 C   0  0  0  0  0  2  0  0  0  0  0  0
  186.7490  175.8390  142.3390 N   0  0  0  0  0  2  0  0  0  0  0  0
  186.6510  177.5690  142.2050 S   0  0  0  0  0  0  0  0  0  0  0  0
  185.3270  177.9680  141.6040 O   0  0  0  0  0  0  0  0  0  0  0  0
  187.7620  178.0650  141.3190 O   0  0  0  0  0  0  0  0  0  0  0  0
  186.8400  178.3140  143.8130 C   0  0  0  0  0  2  0  0  0  0  0  0
  185.6040  179.0560  144.2080 C   0  0  0  0  0  0  0  0  0  0  0  0
  185.5190  180.2850  143.9590 O   0  0  0  0  0  0  0  0  0  0  0  0
  184.5210  178.4210  144.8310 O   0  0  0  0  0  0  0  0  0  0  0  0
  184.9830  178.9980  147.1470 C   0  0  0  0  0  1  0  0  0  0  0  0
  184.4990  177.9340  146.1750 C   0  0  2  0  0  3  0  0  0  0  0  0
  185.2700  176.6280  146.3030 C   0  0  0  0  0  2  0  0  0  0  0  0
  187.5970  176.0640  146.7750 N   0  0  0  0  0  1  0  0  0  0  0  0
  186.4330  176.7660  147.2790 C   0  0  0  0  0  2  0  0  0  0  0  0
  190.6660  174.1220  145.1640 C   0  0  0  0  0  2  0  0  0  0  0  0
  191.7620  174.7320  146.0350 C   0  0  0  0  0  2  0  0  0  0  0  0
  191.8500  176.1240  145.7690 O   0  0  0  0  0  0  0  0  0  0  0  0
  190.9150  177.0520  146.2440 C   0  0  0  0  0  3  0  0  0  0  0  0
  190.1930  177.7260  145.4530 O   0  0  0  0  0  0  0  0  0  0  0  0
  194.2910  171.1640  145.4130 C   0  0  0  0  0  2  0  0  0  0  0  0
  195.6700  170.8200  144.8790 C   0  0  0  0  0  2  0  0  0  0  0  0
  196.7040  171.8210  145.3690 C   0  0  0  0  0  2  0  0  0  0  0  0
  195.9800  175.8550  144.0750 C   0  0  0  0  0  3  0  0  0  0  0  0
  196.7330  174.9970  143.2550 C   0  0  0  0  0  0  0  0  0  0  0  0
  195.4610  175.4040  145.2910 C   0  0  0  0  0  3  0  0  0  0  0  0
  196.9590  173.6800  143.6790 C   0  0  0  0  0  3  0  0  0  0  0  0
  196.4270  173.2160  144.8870 C   0  0  0  0  0  0  0  0  0  0  0  0
  195.6850  174.0870  145.6970 C   0  0  0  0  0  3  0  0  0  0  0  0
  197.2610  175.4100  142.0280 O   0  0  0  0  0  0  0  0  0  0  0  0
  196.3930  175.3170  140.5420 P   0  0  0  0  0  0  0  0  0  0  0  0
  195.8270  173.7440  140.2910 O   0  0  0  0  0  1  0  0  0  0  0  0
  197.2940  175.7150  139.3960 O   0  0  0  0  0  0  0  0  0  0  0  0
  195.0760  176.3780  140.6110 O   0  0  0  0  0  1  0  0  0  0  0  0
  193.2680  171.3900  140.5310 C   0  0  0  0  0  2  0  0  0  0  0  0
  191.2290  171.1290  138.4450 N   0  0  0  0  0  0  0  0  0  0  0  0
  190.6780  170.9840  137.1130 C   0  0  0  0  0  2  0  0  0  0  0  0
  191.5080  171.8420  136.1800 C   0  0  0  0  0  2  0  0  0  0  0  0
  191.5070  173.5270  138.0270 C   0  0  0  0  0  2  0  0  0  0  0  0
  191.6210  172.2840  138.8870 C   0  0  0  0  0  0  0  0  0  0  0  0
  192.2690  172.3820  140.1560 N   0  0  0  0  0  2  0  0  0  0  0  0
  191.4220  173.2660  136.5760 N   0  0  1  0  0  0  0  0  0  0  0  0
  192.7660  175.3580  136.7830 C   0  0  2  0  0  3  0  0  0  0  0  0
  192.3860  174.1750  135.9070 C   0  0  2  0  0  3  0  0  0  0  0  0
  191.8310  175.5620  135.6060 C   0  0  0  0  0  2  0  0  0  0  0  0
  194.1500  175.8260  136.3970 C   0  0  0  0  0  1  0  0  0  0  0  0
  2  1  1  6  0  0  0
  2  7  1  0  0  0  0
  3  1  2  0  0  0  0
  4 33  1  1  0  0  0
  5  7  1  0  0  0  0
  5  4  1  0  0  0  0
  6  1  1  0  0  0  0
  6  5  1  0  0  0  0
  7  4  1  0  0  0  0
  8  2  1  0  0  0  0
  8 11  1  0  0  0  0
  9 10  1  0  0  0  0
 10 11  1  0  0  0  0
 11 28  1  0  0  0  0
 12 13  1  0  0  0  0
 13  8  1  0  0  0  0
 13  9  1  0  0  0  0
 14 15  1  0  0  0  0
 14  9  1  0  0  0  0
 16 15  1  0  0  0  0
 16 19  1  0  0  0  0
 17 16  2  0  0  0  0
 18 16  2  0  0  0  0
 19 20  1  0  0  0  0
 20 22  1  0  0  0  0
 21 20  2  0  0  0  0
 22 24  1  0  0  0  0
 24 25  1  0  0  0  0
 24 23  1  0  0  0  0
 25 27  1  0  0  0  0
 26 27  1  0  0  0  0
 28 29  1  0  0  0  0
 30 29  1  0  0  0  0
 30 31  1  0  0  0  0
 32 31  2  0  0  0  0
 34 35  1  0  0  0  0
 34 33  1  0  0  0  0
 36 38  1  0  0  0  0
 37 39  1  0  0  0  0
 37 36  2  0  0  0  0
 38 41  2  0  0  0  0
 39 40  2  0  0  0  0
 40 35  1  0  0  0  0
 40 41  1  0  0  0  0
 42 37  1  0  0  0  0
 43 46  1  0  0  0  0
 43 42  1  0  0  0  0
 44 43  1  0  0  0  0
 45 43  2  0  0  0  0
 47  6  1  0  0  0  0
 48 52  2  0  0  0  0
 49 48  1  0  0  0  0
 50 54  1  0  0  0  0
 50 49  1  0  0  0  0
 51 52  1  0  0  0  0
 52 53  1  0  0  0  0
 53 47  1  0  0  0  0
 54 51  1  0  0  0  0
 56 54  1  0  0  0  0
 56 55  1  0  0  0  0
 57 56  1  0  0  0  0
 57 55  1  0  0  0  0
 58 55  1  0  0  0  0
M  END
>  <MODEL>
1

>  <REMARK>
 VINA RESULT:      -6.1      0.000      0.000
  Name = 
  23 active torsions:
  status: ('A' for Active; 'I' for Inactive)
    1  A    between atoms: C_2  and  C_9
    2  A    between atoms: C_4  and  C_51
    3  A    between atoms: P_5  and  O_49
    4  A    between atoms: N_10  and  S_11
    5  A    between atoms: N_10  and  C_51
    6  A    between atoms: S_11  and  C_15
    7  A    between atoms: C_12  and  O_49
    8  A    between atoms: C_15  and  C_22
    9  A    between atoms: C_16  and  N_30
   10  A    between atoms: C_16  and  C_32
   11  A    between atoms: C_18  and  C_29
   12  A    between atoms: C_18  and  C_48
   13  A    between atoms: C_20  and  O_38
   14  A    between atoms: C_22  and  O_35
   15  A    between atoms: C_24  and  C_42
   16  A    between atoms: C_24  and  C_54
   17  A    between atoms: C_31  and  N_47
   18  A    between atoms: C_32  and  O_38
   19  A    between atoms: C_33  and  C_54
   20  A    between atoms: O_35  and  C_48
   21  A    between atoms: C_42  and  C_55
   22  A    between atoms: N_46  and  C_53
   23  A    between atoms: C_52  and  C_53
                            x       y       z     vdW  Elec       q    Type
                         _______ _______ _______ _____ _____    ______ ____

>  <TORSDO>
F 23

$$$$
=
 OpenBabel11042413423D

 58 63  0  0  1  0  0  0  0  0999 V2000
  190.6520  172.4310  141.6400 C   0  0  0  0  0  0  0  0  0  0  0  0
  191.7170  172.5160  140.6110 C   0  0  1  0  0  3  0  0  0  0  0  0
  190.6130  171.5210  142.4460 O   0  0  0  0  0  0  0  0  0  0  0  0
  189.8230  172.4760  138.9200 C   0  0  2  0  0  3  0  0  0  0  0  0
  189.6780  173.6810  139.8380 C   0  0  1  0  0  3  0  0  0  0  0  0
  189.4340  173.1900  141.2620 C   0  0  2  0  0  3  0  0  0  0  0  0
  191.0580  173.2140  139.4170 C   0  0  1  0  0  3  0  0  0  0  0  0
  192.9140  173.3410  141.0850 C   0  0  2  0  0  3  0  0  0  0  0  0
  194.1810  174.2020  142.8280 C   0  0  2  0  0  3  0  0  0  0  0  0
  194.9840  173.4430  141.9360 O   0  0  0  0  0  0  0  0  0  0  0  0
  194.1480  172.5700  141.2890 N   0  0  0  0  0  0  0  0  0  0  0  0
  192.2050  175.3910  142.0250 O   0  0  0  0  0  1  0  0  0  0  0  0
  192.7290  174.1280  142.3420 C   0  0  1  0  0  3  0  0  0  0  0  0
  194.7420  175.6150  142.9660 C   0  0  0  0  0  2  0  0  0  0  0  0
  193.8980  176.4000  143.8640 N   0  0  0  0  0  2  0  0  0  0  0  0
  194.4890  176.1460  145.4790 S   0  0  0  0  0  0  0  0  0  0  0  0
  194.7450  177.4710  146.1510 O   0  0  0  0  0  0  0  0  0  0  0  0
  195.7750  175.3660  145.4230 O   0  0  0  0  0  0  0  0  0  0  0  0
  193.3020  175.2050  146.4180 C   0  0  0  0  0  2  0  0  0  0  0  0
  191.9350  175.3230  145.8260 C   0  0  0  0  0  0  0  0  0  0  0  0
  191.3440  174.2870  145.4300 O   0  0  0  0  0  0  0  0  0  0  0  0
  191.2750  176.5560  145.7160 O   0  0  0  0  0  0  0  0  0  0  0  0
  189.8760  177.5420  143.9900 C   0  0  0  0  0  1  0  0  0  0  0  0
  189.9250  176.7450  145.2830 C   0  0  2  0  0  3  0  0  0  0  0  0
  189.0730  177.3580  146.3830 C   0  0  0  0  0  2  0  0  0  0  0  0
  188.6140  175.0860  147.1480 N   0  0  0  0  0  1  0  0  0  0  0  0
  188.0140  176.3760  146.8740 C   0  0  0  0  0  2  0  0  0  0  0  0
  193.9740  171.4060  142.1760 C   0  0  0  0  0  2  0  0  0  0  0  0
  195.2740  170.6290  142.3730 C   0  0  0  0  0  2  0  0  0  0  0  0
  195.7950  170.2600  141.1040 O   0  0  0  0  0  0  0  0  0  0  0  0
  197.0950  170.5780  140.6920 C   0  0  0  0  0  3  0  0  0  0  0  0
  197.3150  171.1420  139.5810 O   0  0  0  0  0  0  0  0  0  0  0  0
  189.5840  172.8250  137.4560 C   0  0  0  0  0  2  0  0  0  0  0  0
  189.5210  171.5270  136.6700 C   0  0  0  0  0  2  0  0  0  0  0  0
  190.1530  170.3890  137.4560 C   0  0  0  0  0  2  0  0  0  0  0  0
  193.9020  169.2060  135.7200 C   0  0  0  0  0  3  0  0  0  0  0  0
  193.8830  170.2380  136.6730 C   0  0  0  0  0  0  0  0  0  0  0  0
  192.7210  168.5610  135.3460 C   0  0  0  0  0  3  0  0  0  0  0  0
  192.6590  170.6140  137.2430 C   0  0  0  0  0  3  0  0  0  0  0  0
  191.4740  169.9610  136.8860 C   0  0  0  0  0  0  0  0  0  0  0  0
  191.5080  168.9380  135.9280 C   0  0  0  0  0  3  0  0  0  0  0  0
  195.0470  170.9000  137.0780 O   0  0  0  0  0  0  0  0  0  0  0  0
  195.3730  172.5520  136.7130 P   0  0  0  0  0  0  0  0  0  0  0  0
  194.5610  173.0130  135.3030 O   0  0  0  0  0  0  0  0  0  0  0  0
  196.8590  172.7520  136.5250 O   0  0  0  0  0  1  0  0  0  0  0  0
  194.8400  173.5130  138.0010 O   0  0  0  0  0  1  0  0  0  0  0  0
  189.1770  174.3630  142.1880 C   0  0  0  0  0  2  0  0  0  0  0  0
  187.4090  176.3570  140.9720 N   0  0  0  0  0  0  0  0  0  0  0  0
  186.8540  177.6630  140.6790 C   0  0  0  0  0  2  0  0  0  0  0  0
  186.8350  178.4510  141.9730 C   0  0  0  0  0  2  0  0  0  0  0  0
  186.1120  176.3130  143.0490 C   0  0  0  0  0  2  0  0  0  0  0  0
  187.0880  175.7180  142.0540 C   0  0  0  0  0  0  0  0  0  0  0  0
  187.7380  174.4880  142.3790 N   0  0  0  0  0  2  0  0  0  0  0  0
  185.9710  177.7810  142.9720 N   0  0  1  0  0  0  0  0  0  0  0  0
  184.7150  178.3770  145.0430 C   0  0  2  0  0  3  0  0  0  0  0  0
  186.0690  178.3070  144.3560 C   0  0  2  0  0  3  0  0  0  0  0  0
  185.3820  179.6520  144.5630 C   0  0  0  0  0  2  0  0  0  0  0  0
  184.9170  178.2490  146.5350 C   0  0  0  0  0  1  0  0  0  0  0  0
  1  3  2  0  0  0  0
  2  8  1  0  0  0  0
  2  1  1  1  0  0  0
  4 33  1  6  0  0  0
  4  7  1  0  0  0  0
  4  5  1  0  0  0  0
  5  6  1  0  0  0  0
  6  1  1  0  0  0  0
  6 47  1  0  0  0  0
  7  5  1  0  0  0  0
  7  2  1  0  0  0  0
  8 11  1  0  0  0  0
  8 13  1  0  0  0  0
  9 14  1  0  0  0  0
 10  9  1  0  0  0  0
 11 10  1  0  0  0  0
 11 28  1  0  0  0  0
 12 13  1  0  0  0  0
 13  9  1  0  0  0  0
 14 15  1  0  0  0  0
 15 16  1  0  0  0  0
 16 17  2  0  0  0  0
 16 19  1  0  0  0  0
 18 16  2  0  0  0  0
 20 19  1  0  0  0  0
 21 20  2  0  0  0  0
 22 20  1  0  0  0  0
 23 24  1  0  0  0  0
 24 22  1  0  0  0  0
 24 25  1  0  0  0  0
 25 27  1  0  0  0  0
 27 26  1  0  0  0  0
 28 29  1  0  0  0  0
 30 29  1  0  0  0  0
 31 30  1  0  0  0  0
 32 31  2  0  0  0  0
 34 35  1  0  0  0  0
 34 33  1  0  0  0  0
 36 37  1  0  0  0  0
 37 42  1  0  0  0  0
 37 39  2  0  0  0  0
 38 36  2  0  0  0  0
 38 41  1  0  0  0  0
 40 39  1  0  0  0  0
 40 35  1  0  0  0  0
 41 40  2  0  0  0  0
 43 42  1  0  0  0  0
 43 46  1  0  0  0  0
 44 43  2  0  0  0  0
 45 43  1  0  0  0  0
 47 53  1  0  0  0  0
 48 52  2  0  0  0  0
 49 48  1  0  0  0  0
 49 50  1  0  0  0  0
 50 54  1  0  0  0  0
 52 53  1  0  0  0  0
 52 51  1  0  0  0  0
 54 51  1  0  0  0  0
 54 56  1  0  0  0  0
 55 58  1  0  0  0  0
 56 57  1  0  0  0  0
 56 55  1  0  0  0  0
 57 55  1  0  0  0  0
M  END
>  <MODEL>
2

>  <REMARK>
 VINA RESULT:      -5.9      3.195      7.758
  Name = 
  23 active torsions:
  status: ('A' for Active; 'I' for Inactive)
    1  A    between atoms: C_2  and  C_9
    2  A    between atoms: C_4  and  C_51
    3  A    between atoms: P_5  and  O_49
    4  A    between atoms: N_10  and  S_11
    5  A    between atoms: N_10  and  C_51
    6  A    between atoms: S_11  and  C_15
    7  A    between atoms: C_12  and  O_49
    8  A    between atoms: C_15  and  C_22
    9  A    between atoms: C_16  and  N_30
   10  A    between atoms: C_16  and  C_32
   11  A    between atoms: C_18  and  C_29
   12  A    between atoms: C_18  and  C_48
   13  A    between atoms: C_20  and  O_38
   14  A    between atoms: C_22  and  O_35
   15  A    between atoms: C_24  and  C_42
   16  A    between atoms: C_24  and  C_54
   17  A    between atoms: C_31  and  N_47
   18  A    between atoms: C_32  and  O_38
   19  A    between atoms: C_33  and  C_54
   20  A    between atoms: O_35  and  C_48
   21  A    between atoms: C_42  and  C_55
   22  A    between atoms: N_46  and  C_53
   23  A    between atoms: C_52  and  C_53
                            x       y       z     vdW  Elec       q    Type
                         _______ _______ _______ _____ _____    ______ ____

>  <TORSDO>
F 23

$$$$
=
 OpenBabel11042413423D

 58 63  0  0  1  0  0  0  0  0999 V2000
  188.1850  177.7930  142.0500 C   0  0  0  0  0  0  0  0  0  0  0  0
  187.9160  177.8000  143.5090 C   0  0  1  0  0  3  0  0  0  0  0  0
  188.9650  178.5740  141.5410 O   0  0  0  0  0  0  0  0  0  0  0  0
  185.4920  178.1980  142.8680 C   0  0  2  0  0  3  0  0  0  0  0  0
  185.9770  176.8810  142.2810 C   0  0  1  0  0  3  0  0  0  0  0  0
  187.0860  177.1690  141.2730 C   0  0  2  0  0  3  0  0  0  0  0  0
  186.4660  177.3250  143.6460 C   0  0  1  0  0  3  0  0  0  0  0  0
  188.8370  176.8460  144.2710 C   0  0  2  0  0  3  0  0  0  0  0  0
  190.4960  176.5150  145.8590 C   0  0  2  0  0  3  0  0  0  0  0  0
  189.3490  175.7290  146.1440 O   0  0  0  0  0  0  0  0  0  0  0  0
  188.2830  176.3390  145.5360 N   0  0  0  0  0  0  0  0  0  0  0  0
  191.0770  177.0850  143.5570 O   0  0  0  0  0  1  0  0  0  0  0  0
  190.1980  177.3590  144.6160 C   0  0  1  0  0  3  0  0  0  0  0  0
  191.7300  175.6220  145.7500 C   0  0  0  0  0  2  0  0  0  0  0  0
  192.7500  176.0650  146.6980 N   0  0  0  0  0  2  0  0  0  0  0  0
  194.2520  176.1600  145.8300 S   0  0  0  0  0  0  0  0  0  0  0  0
  195.2780  175.2590  146.4680 O   0  0  0  0  0  0  0  0  0  0  0  0
  194.7570  177.5780  145.8590 O   0  0  0  0  0  0  0  0  0  0  0  0
  194.0010  175.6890  144.1290 C   0  0  0  0  0  2  0  0  0  0  0  0
  194.5180  174.3100  143.8740 C   0  0  0  0  0  0  0  0  0  0  0  0
  193.9210  173.3260  144.3770 O   0  0  0  0  0  0  0  0  0  0  0  0
  195.6420  174.0740  143.0680 O   0  0  0  0  0  0  0  0  0  0  0  0
  197.7480  174.4210  144.2310 C   0  0  0  0  0  1  0  0  0  0  0  0
  196.8530  173.4410  143.4900 C   0  0  2  0  0  3  0  0  0  0  0  0
  197.5600  172.7670  142.3240 C   0  0  0  0  0  2  0  0  0  0  0  0
  196.5700  170.6420  143.0050 N   0  0  0  0  0  1  0  0  0  0  0  0
  196.8140  171.5160  141.8740 C   0  0  0  0  0  2  0  0  0  0  0  0
  187.8210  177.4040  146.4430 C   0  0  0  0  0  2  0  0  0  0  0  0
  186.7390  176.9150  147.4040 C   0  0  0  0  0  2  0  0  0  0  0  0
  186.0520  178.0350  147.9430 O   0  0  0  0  0  0  0  0  0  0  0  0
  184.8680  178.5400  147.3910 C   0  0  0  0  0  3  0  0  0  0  0  0
  184.1260  177.8270  146.6560 O   0  0  0  0  0  0  0  0  0  0  0  0
  184.1060  178.0850  143.4920 C   0  0  0  0  0  2  0  0  0  0  0  0
  183.1600  178.9650  142.6940 C   0  0  0  0  0  2  0  0  0  0  0  0
  182.6430  178.2290  141.4690 C   0  0  0  0  0  2  0  0  0  0  0  0
  178.4010  178.7400  140.9970 C   0  0  0  0  0  3  0  0  0  0  0  0
  179.1650  178.3000  139.9020 C   0  0  0  0  0  0  0  0  0  0  0  0
  179.0060  178.9970  142.2290 C   0  0  0  0  0  3  0  0  0  0  0  0
  180.5470  178.1280  140.0640 C   0  0  0  0  0  3  0  0  0  0  0  0
  181.1570  178.3670  141.3000 C   0  0  0  0  0  0  0  0  0  0  0  0
  180.3830  178.8120  142.3810 C   0  0  0  0  0  3  0  0  0  0  0  0
  178.5930  178.0250  138.6560 O   0  0  0  0  0  0  0  0  0  0  0  0
  178.6030  176.4610  137.9330 P   0  0  0  0  0  0  0  0  0  0  0  0
  177.8640  175.3360  138.9570 O   0  0  0  0  0  1  0  0  0  0  0  0
  180.0250  176.0310  137.6590 O   0  0  0  0  0  1  0  0  0  0  0  0
  177.7500  176.5280  136.4720 O   0  0  0  0  0  0  0  0  0  0  0  0
  187.5200  175.8880  140.5870 C   0  0  0  0  0  2  0  0  0  0  0  0
  189.2900  173.8880  139.3840 N   0  0  0  0  0  0  0  0  0  0  0  0
  189.7930  172.5770  139.0270 C   0  0  0  0  0  2  0  0  0  0  0  0
  189.6130  171.6770  140.2330 C   0  0  0  0  0  2  0  0  0  0  0  0
  190.3380  173.6510  141.5840 C   0  0  0  0  0  2  0  0  0  0  0  0
  189.5230  174.4020  140.5520 C   0  0  0  0  0  0  0  0  0  0  0  0
  188.9180  175.6430  140.9210 N   0  0  0  0  0  2  0  0  0  0  0  0
  190.3950  172.1900  141.3810 N   0  0  1  0  0  0  0  0  0  0  0  0
  190.5030  172.4310  143.8620 C   0  0  2  0  0  3  0  0  0  0  0  0
  190.1060  171.5510  142.6880 C   0  0  2  0  0  3  0  0  0  0  0  0
  191.3460  171.2200  143.5100 C   0  0  0  0  0  2  0  0  0  0  0  0
  189.6270  172.0930  145.0460 C   0  0  0  0  0  1  0  0  0  0  0  0
  2  1  1  6  0  0  0
  2  7  1  0  0  0  0
  2  8  1  0  0  0  0
  3  1  2  0  0  0  0
  4 33  1  1  0  0  0
  4  7  1  0  0  0  0
  5  4  1  0  0  0  0
  5  7  1  0  0  0  0
  6  1  1  0  0  0  0
  6  5  1  0  0  0  0
  8 13  1  0  0  0  0
  8 11  1  0  0  0  0
  9 10  1  0  0  0  0
 11 10  1  0  0  0  0
 11 28  1  0  0  0  0
 12 13  1  0  0  0  0
 13  9  1  0  0  0  0
 14  9  1  0  0  0  0
 14 15  1  0  0  0  0
 16 18  2  0  0  0  0
 16 17  2  0  0  0  0
 16 15  1  0  0  0  0
 19 16  1  0  0  0  0
 20 19  1  0  0  0  0
 20 21  2  0  0  0  0
 22 24  1  0  0  0  0
 22 20  1  0  0  0  0
 24 23  1  0  0  0  0
 25 24  1  0  0  0  0
 27 25  1  0  0  0  0
 27 26  1  0  0  0  0
 28 29  1  0  0  0  0
 29 30  1  0  0  0  0
 31 30  1  0  0  0  0
 32 31  2  0  0  0  0
 34 33  1  0  0  0  0
 35 34  1  0  0  0  0
 36 38  1  0  0  0  0
 37 39  1  0  0  0  0
 37 36  2  0  0  0  0
 38 41  2  0  0  0  0
 39 40  2  0  0  0  0
 40 35  1  0  0  0  0
 40 41  1  0  0  0  0
 42 37  1  0  0  0  0
 43 42  1  0  0  0  0
 43 44  1  0  0  0  0
 45 43  1  0  0  0  0
 46 43  2  0  0  0  0
 47 53  1  0  0  0  0
 47  6  1  0  0  0  0
 48 52  2  0  0  0  0
 49 48  1  0  0  0  0
 49 50  1  0  0  0  0
 50 54  1  0  0  0  0
 52 53  1  0  0  0  0
 52 51  1  0  0  0  0
 54 51  1  0  0  0  0
 54 56  1  0  0  0  0
 55 58  1  0  0  0  0
 56 57  1  0  0  0  0
 56 55  1  0  0  0  0
 57 55  1  0  0  0  0
M  END
>  <MODEL>
3

>  <REMARK>
 VINA RESULT:      -5.9      4.508     10.959
  Name = 
  23 active torsions:
  status: ('A' for Active; 'I' for Inactive)
    1  A    between atoms: C_2  and  C_9
    2  A    between atoms: C_4  and  C_51
    3  A    between atoms: P_5  and  O_49
    4  A    between atoms: N_10  and  S_11
    5  A    between atoms: N_10  and  C_51
    6  A    between atoms: S_11  and  C_15
    7  A    between atoms: C_12  and  O_49
    8  A    between atoms: C_15  and  C_22
    9  A    between atoms: C_16  and  N_30
   10  A    between atoms: C_16  and  C_32
   11  A    between atoms: C_18  and  C_29
   12  A    between atoms: C_18  and  C_48
   13  A    between atoms: C_20  and  O_38
   14  A    between atoms: C_22  and  O_35
   15  A    between atoms: C_24  and  C_42
   16  A    between atoms: C_24  and  C_54
   17  A    between atoms: C_31  and  N_47
   18  A    between atoms: C_32  and  O_38
   19  A    between atoms: C_33  and  C_54
   20  A    between atoms: O_35  and  C_48
   21  A    between atoms: C_42  and  C_55
   22  A    between atoms: N_46  and  C_53
   23  A    between atoms: C_52  and  C_53
                            x       y       z     vdW  Elec       q    Type
                         _______ _______ _______ _____ _____    ______ ____

>  <TORSDO>
F 23

$$$$
=
 OpenBabel11042413423D

 58 63  0  0  1  0  0  0  0  0999 V2000
  189.8010  173.6280  143.2230 C   0  0  0  0  0  0  0  0  0  0  0  0
  189.1710  173.2850  141.9250 C   0  0  1  0  0  3  0  0  0  0  0  0
  189.7310  172.8850  144.1830 O   0  0  0  0  0  0  0  0  0  0  0  0
  187.8730  175.4490  142.1980 C   0  0  2  0  0  3  0  0  0  0  0  0
  189.3670  175.7370  142.1650 C   0  0  1  0  0  3  0  0  0  0  0  0
  190.0230  175.0870  143.3800 C   0  0  2  0  0  3  0  0  0  0  0  0
  188.7920  174.6320  141.3010 C   0  0  1  0  0  3  0  0  0  0  0  0
  190.1330  172.5480  140.9920 C   0  0  2  0  0  3  0  0  0  0  0  0
  190.6380  170.6730  139.7200 C   0  0  2  0  0  3  0  0  0  0  0  0
  190.6910  171.8550  138.9360 O   0  0  0  0  0  0  0  0  0  0  0  0
  189.9030  172.7870  139.5600 N   0  0  0  0  0  0  0  0  0  0  0  0
  191.1620  170.7340  142.1040 O   0  0  0  0  0  1  0  0  0  0  0  0
  190.2000  171.0610  141.1370 C   0  0  1  0  0  3  0  0  0  0  0  0
  191.9690  169.9300  139.6390 C   0  0  0  0  0  2  0  0  0  0  0  0
  192.9700  170.7710  138.9880 N   0  0  0  0  0  2  0  0  0  0  0  0
  194.5120  170.0010  139.2110 S   0  0  0  0  0  0  0  0  0  0  0  0
  194.4450  168.5650  138.7580 O   0  0  0  0  0  0  0  0  0  0  0  0
  194.8840  170.0400  140.6690 O   0  0  0  0  0  0  0  0  0  0  0  0
  195.7640  170.8720  138.2900 C   0  0  0  0  0  2  0  0  0  0  0  0
  195.1480  171.8060  137.2980 C   0  0  0  0  0  0  0  0  0  0  0  0
  194.5760  171.3350  136.2830 O   0  0  0  0  0  0  0  0  0  0  0  0
  195.1670  173.1970  137.4740 O   0  0  0  0  0  0  0  0  0  0  0  0
  193.9220  175.2680  137.7420 C   0  0  0  0  0  1  0  0  0  0  0  0
  194.3230  173.9380  138.3590 C   0  0  2  0  0  3  0  0  0  0  0  0
  194.9640  174.0970  139.7300 C   0  0  0  0  0  2  0  0  0  0  0  0
  194.4430  175.9110  141.2770 N   0  0  0  0  0  1  0  0  0  0  0  0
  195.1760  175.5670  140.0750 C   0  0  0  0  0  2  0  0  0  0  0  0
  188.5150  172.5280  139.1370 C   0  0  0  0  0  2  0  0  0  0  0  0
  188.0110  173.5690  138.1400 C   0  0  0  0  0  2  0  0  0  0  0  0
  189.1230  174.2050  137.5260 O   0  0  0  0  0  0  0  0  0  0  0  0
  189.1960  174.4530  136.1500 C   0  0  0  0  0  3  0  0  0  0  0  0
  188.6330  175.4600  135.6310 O   0  0  0  0  0  0  0  0  0  0  0  0
  187.0710  176.4230  141.3430 C   0  0  0  0  0  2  0  0  0  0  0  0
  186.8230  177.6750  142.1670 C   0  0  0  0  0  2  0  0  0  0  0  0
  185.4490  177.6290  142.8170 C   0  0  0  0  0  2  0  0  0  0  0  0
  185.5550  177.8170  147.1090 C   0  0  0  0  0  3  0  0  0  0  0  0
  186.6100  177.1900  146.4240 C   0  0  0  0  0  0  0  0  0  0  0  0
  184.4890  178.3850  146.4080 C   0  0  0  0  0  3  0  0  0  0  0  0
  186.5740  177.1390  145.0240 C   0  0  0  0  0  3  0  0  0  0  0  0
  185.5180  177.7210  144.3140 C   0  0  0  0  0  0  0  0  0  0  0  0
  184.4690  178.3360  145.0120 C   0  0  0  0  0  3  0  0  0  0  0  0
  187.6980  176.6180  147.0920 O   0  0  0  0  0  0  0  0  0  0  0  0
  189.3120  177.2030  146.9500 P   0  0  0  0  0  0  0  0  0  0  0  0
  189.5860  177.7950  145.3900 O   0  0  0  0  0  0  0  0  0  0  0  0
  190.2890  176.0890  147.2430 O   0  0  0  0  0  1  0  0  0  0  0  0
  189.5400  178.4540  148.0670 O   0  0  0  0  0  1  0  0  0  0  0  0
  191.4950  175.4430  143.4380 C   0  0  0  0  0  2  0  0  0  0  0  0
  193.9590  176.3780  144.7160 N   0  0  0  0  0  0  0  0  0  0  0  0
  195.3810  176.5800  144.9110 C   0  0  0  0  0  2  0  0  0  0  0  0
  196.0810  175.2920  144.5270 C   0  0  0  0  0  2  0  0  0  0  0  0
  194.1850  174.1350  145.6730 C   0  0  0  0  0  2  0  0  0  0  0  0
  193.3870  175.2640  145.0530 C   0  0  0  0  0  0  0  0  0  0  0  0
  192.0100  175.0440  144.7420 N   0  0  0  0  0  2  0  0  0  0  0  0
  195.6350  174.1820  145.3990 N   0  0  1  0  0  0  0  0  0  0  0  0
  196.7000  172.0350  146.0890 C   0  0  2  0  0  3  0  0  0  0  0  0
  196.0470  172.8240  144.9670 C   0  0  2  0  0  3  0  0  0  0  0  0
  197.5550  172.5980  144.9700 C   0  0  0  0  0  2  0  0  0  0  0  0
  196.4780  170.5600  145.8430 C   0  0  0  0  0  1  0  0  0  0  0  0
  1  6  1  0  0  0  0
  1  3  2  0  0  0  0
  2  1  1  1  0  0  0
  4 33  1  6  0  0  0
  5  4  1  0  0  0  0
  5  6  1  0  0  0  0
  6 47  1  0  0  0  0
  7  2  1  0  0  0  0
  7  5  1  0  0  0  0
  7  4  1  0  0  0  0
  8 13  1  0  0  0  0
  8  2  1  0  0  0  0
  9 13  1  0  0  0  0
 10 11  1  0  0  0  0
 10  9  1  0  0  0  0
 11  8  1  0  0  0  0
 13 12  1  0  0  0  0
 14  9  1  0  0  0  0
 15 16  1  0  0  0  0
 15 14  1  0  0  0  0
 16 18  2  0  0  0  0
 17 16  2  0  0  0  0
 19 16  1  0  0  0  0
 20 22  1  0  0  0  0
 20 19  1  0  0  0  0
 21 20  2  0  0  0  0
 22 24  1  0  0  0  0
 23 24  1  0  0  0  0
 24 25  1  0  0  0  0
 25 27  1  0  0  0  0
 27 26  1  0  0  0  0
 28 11  1  0  0  0  0
 29 28  1  0  0  0  0
 30 29  1  0  0  0  0
 31 30  1  0  0  0  0
 32 31  2  0  0  0  0
 33 34  1  0  0  0  0
 34 35  1  0  0  0  0
 35 40  1  0  0  0  0
 37 42  1  0  0  0  0
 37 36  1  0  0  0  0
 38 36  2  0  0  0  0
 39 37  2  0  0  0  0
 40 41  2  0  0  0  0
 40 39  1  0  0  0  0
 41 38  1  0  0  0  0
 43 42  1  0  0  0  0
 43 45  1  0  0  0  0
 43 46  1  0  0  0  0
 44 43  2  0  0  0  0
 47 53  1  0  0  0  0
 48 49  1  0  0  0  0
 48 52  2  0  0  0  0
 50 49  1  0  0  0  0
 50 54  1  0  0  0  0
 52 51  1  0  0  0  0
 53 52  1  0  0  0  0
 54 51  1  0  0  0  0
 56 57  1  0  0  0  0
 56 54  1  0  0  0  0
 56 55  1  0  0  0  0
 57 55  1  0  0  0  0
 58 55  1  0  0  0  0
M  END
>  <MODEL>
4

>  <REMARK>
 VINA RESULT:      -5.7      3.316      9.667
  Name = 
  23 active torsions:
  status: ('A' for Active; 'I' for Inactive)
    1  A    between atoms: C_2  and  C_9
    2  A    between atoms: C_4  and  C_51
    3  A    between atoms: P_5  and  O_49
    4  A    between atoms: N_10  and  S_11
    5  A    between atoms: N_10  and  C_51
    6  A    between atoms: S_11  and  C_15
    7  A    between atoms: C_12  and  O_49
    8  A    between atoms: C_15  and  C_22
    9  A    between atoms: C_16  and  N_30
   10  A    between atoms: C_16  and  C_32
   11  A    between atoms: C_18  and  C_29
   12  A    between atoms: C_18  and  C_48
   13  A    between atoms: C_20  and  O_38
   14  A    between atoms: C_22  and  O_35
   15  A    between atoms: C_24  and  C_42
   16  A    between atoms: C_24  and  C_54
   17  A    between atoms: C_31  and  N_47
   18  A    between atoms: C_32  and  O_38
   19  A    between atoms: C_33  and  C_54
   20  A    between atoms: O_35  and  C_48
   21  A    between atoms: C_42  and  C_55
   22  A    between atoms: N_46  and  C_53
   23  A    between atoms: C_52  and  C_53
                            x       y       z     vdW  Elec       q    Type
                         _______ _______ _______ _____ _____    ______ ____

>  <TORSDO>
F 23

$$$$
=
 OpenBabel11042413423D

 58 63  0  0  1  0  0  0  0  0999 V2000
  190.4140  173.0920  143.3800 C   0  0  0  0  0  0  0  0  0  0  0  0
  191.2070  173.8490  144.3790 C   0  0  1  0  0  3  0  0  0  0  0  0
  189.5110  172.3500  143.7110 O   0  0  0  0  0  0  0  0  0  0  0  0
  193.2230  172.6500  143.4080 C   0  0  2  0  0  3  0  0  0  0  0  0
  192.5380  173.4750  142.3290 C   0  0  1  0  0  3  0  0  0  0  0  0
  191.1370  172.9170  142.0950 C   0  0  2  0  0  3  0  0  0  0  0  0
  192.5980  173.9940  143.7530 C   0  0  1  0  0  3  0  0  0  0  0  0
  190.6250  175.2380  144.6470 C   0  0  2  0  0  3  0  0  0  0  0  0
  189.5350  176.7030  146.0790 C   0  0  2  0  0  3  0  0  0  0  0  0
  190.7710  177.2440  145.6340 O   0  0  0  0  0  0  0  0  0  0  0  0
  191.5620  176.1860  145.2670 N   0  0  0  0  0  0  0  0  0  0  0  0
  188.2630  175.1720  144.6650 O   0  0  0  0  0  1  0  0  0  0  0  0
  189.3910  175.2960  145.4900 C   0  0  1  0  0  3  0  0  0  0  0  0
  188.3940  177.6600  145.7440 C   0  0  0  0  0  2  0  0  0  0  0  0
  187.4930  177.7790  146.8890 N   0  0  0  0  0  2  0  0  0  0  0  0
  185.8890  178.0030  146.2600 S   0  0  0  0  0  0  0  0  0  0  0  0
  184.9180  178.2440  147.3880 O   0  0  0  0  0  0  0  0  0  0  0  0
  185.4710  176.7680  145.5070 O   0  0  0  0  0  0  0  0  0  0  0  0
  185.8660  179.3820  145.1320 C   0  0  0  0  0  2  0  0  0  0  0  0
  184.9670  179.1100  143.9700 C   0  0  0  0  0  0  0  0  0  0  0  0
  183.7230  179.0850  144.1470 O   0  0  0  0  0  0  0  0  0  0  0  0
  185.4650  178.9000  142.6760 O   0  0  0  0  0  0  0  0  0  0  0  0
  186.7460  176.9360  142.0330 C   0  0  0  0  0  1  0  0  0  0  0  0
  185.4160  177.6670  141.9520 C   0  0  2  0  0  3  0  0  0  0  0  0
  184.9530  177.8850  140.5200 C   0  0  0  0  0  2  0  0  0  0  0  0
  182.5410  177.9000  140.8940 N   0  0  0  0  0  1  0  0  0  0  0  0
  183.6690  178.7070  140.4720 C   0  0  0  0  0  2  0  0  0  0  0  0
  192.1900  175.6720  146.4970 C   0  0  0  0  0  2  0  0  0  0  0  0
  193.6290  176.1580  146.6570 C   0  0  0  0  0  2  0  0  0  0  0  0
  194.0930  176.6640  145.4130 O   0  0  0  0  0  0  0  0  0  0  0  0
  195.2870  176.2420  144.8160 C   0  0  0  0  0  3  0  0  0  0  0  0
  195.5690  176.5440  143.6200 O   0  0  0  0  0  0  0  0  0  0  0  0
  194.7410  172.7930  143.3790 C   0  0  0  0  0  2  0  0  0  0  0  0
  195.3400  171.4010  143.2800 C   0  0  0  0  0  2  0  0  0  0  0  0
  194.9050  170.7170  141.9940 C   0  0  0  0  0  2  0  0  0  0  0  0
  197.2170  171.8630  138.5570 C   0  0  0  0  0  3  0  0  0  0  0  0
  195.8900  172.3120  138.6720 C   0  0  0  0  0  0  0  0  0  0  0  0
  197.7860  171.0630  139.5510 C   0  0  0  0  0  3  0  0  0  0  0  0
  195.1430  171.9420  139.7990 C   0  0  0  0  0  3  0  0  0  0  0  0
  195.7130  171.1560  140.8070 C   0  0  0  0  0  0  0  0  0  0  0  0
  197.0350  170.7090  140.6740 C   0  0  0  0  0  3  0  0  0  0  0  0
  195.2900  173.1210  137.7020 O   0  0  0  0  0  0  0  0  0  0  0  0
  195.3080  174.8430  137.7590 P   0  0  0  0  0  0  0  0  0  0  0  0
  196.1270  175.4660  136.4170 O   0  0  0  0  0  0  0  0  0  0  0  0
  195.9910  175.3070  139.0240 O   0  0  0  0  0  1  0  0  0  0  0  0
  193.7120  175.4070  137.7480 O   0  0  0  0  0  1  0  0  0  0  0  0
  190.4630  173.6470  140.9510 C   0  0  0  0  0  2  0  0  0  0  0  0
  189.7750  173.3560  138.1180 N   0  0  0  0  0  0  0  0  0  0  0  0
  189.2910  172.7190  136.9100 C   0  0  0  0  0  2  0  0  0  0  0  0
  189.7640  171.2800  136.9330 C   0  0  0  0  0  2  0  0  0  0  0  0
  191.9100  172.1920  137.8320 C   0  0  0  0  0  2  0  0  0  0  0  0
  190.9710  173.1270  138.5650 C   0  0  0  0  0  0  0  0  0  0  0  0
  191.3820  173.6720  139.8200 N   0  0  0  0  0  2  0  0  0  0  0  0
  191.2430  171.2230  136.9400 N   0  0  1  0  0  0  0  0  0  0  0  0
  193.3430  169.9400  137.3510 C   0  0  2  0  0  3  0  0  0  0  0  0
  191.8300  169.8890  137.2190 C   0  0  2  0  0  3  0  0  0  0  0  0
  192.7160  169.3490  136.1030 C   0  0  0  0  0  2  0  0  0  0  0  0
  193.7930  168.8140  138.2540 C   0  0  0  0  0  1  0  0  0  0  0  0
  1  3  2  0  0  0  0
  2  1  1  6  0  0  0
  2  8  1  0  0  0  0
  4 33  1  6  0  0  0
  4  7  1  0  0  0  0
  5  4  1  0  0  0  0
  5  7  1  0  0  0  0
  6  5  1  0  0  0  0
  6  1  1  0  0  0  0
  7  2  1  0  0  0  0
  8 11  1  0  0  0  0
  8 13  1  0  0  0  0
 10  9  1  0  0  0  0
 11 10  1  0  0  0  0
 11 28  1  0  0  0  0
 12 13  1  0  0  0  0
 13  9  1  0  0  0  0
 14  9  1  0  0  0  0
 14 15  1  0  0  0  0
 16 15  1  0  0  0  0
 16 17  2  0  0  0  0
 18 16  2  0  0  0  0
 19 16  1  0  0  0  0
 20 21  2  0  0  0  0
 20 19  1  0  0  0  0
 22 20  1  0  0  0  0
 24 23  1  0  0  0  0
 24 22  1  0  0  0  0
 25 24  1  0  0  0  0
 27 25  1  0  0  0  0
 27 26  1  0  0  0  0
 28 29  1  0  0  0  0
 30 29  1  0  0  0  0
 31 30  1  0  0  0  0
 32 31  2  0  0  0  0
 34 33  1  0  0  0  0
 35 34  1  0  0  0  0
 36 37  2  0  0  0  0
 36 38  1  0  0  0  0
 37 39  1  0  0  0  0
 38 41  2  0  0  0  0
 39 40  2  0  0  0  0
 40 35  1  0  0  0  0
 41 40  1  0  0  0  0
 42 43  1  0  0  0  0
 42 37  1  0  0  0  0
 43 45  1  0  0  0  0
 44 43  2  0  0  0  0
 46 43  1  0  0  0  0
 47  6  1  0  0  0  0
 48 52  2  0  0  0  0
 49 50  1  0  0  0  0
 49 48  1  0  0  0  0
 50 54  1  0  0  0  0
 51 52  1  0  0  0  0
 52 53  1  0  0  0  0
 53 47  1  0  0  0  0
 54 56  1  0  0  0  0
 54 51  1  0  0  0  0
 55 58  1  0  0  0  0
 56 55  1  0  0  0  0
 57 56  1  0  0  0  0
 57 55  1  0  0  0  0
M  END
>  <MODEL>
5

>  <REMARK>
 VINA RESULT:      -5.6      2.434      4.182
  Name = 
  23 active torsions:
  status: ('A' for Active; 'I' for Inactive)
    1  A    between atoms: C_2  and  C_9
    2  A    between atoms: C_4  and  C_51
    3  A    between atoms: P_5  and  O_49
    4  A    between atoms: N_10  and  S_11
    5  A    between atoms: N_10  and  C_51
    6  A    between atoms: S_11  and  C_15
    7  A    between atoms: C_12  and  O_49
    8  A    between atoms: C_15  and  C_22
    9  A    between atoms: C_16  and  N_30
   10  A    between atoms: C_16  and  C_32
   11  A    between atoms: C_18  and  C_29
   12  A    between atoms: C_18  and  C_48
   13  A    between atoms: C_20  and  O_38
   14  A    between atoms: C_22  and  O_35
   15  A    between atoms: C_24  and  C_42
   16  A    between atoms: C_24  and  C_54
   17  A    between atoms: C_31  and  N_47
   18  A    between atoms: C_32  and  O_38
   19  A    between atoms: C_33  and  C_54
   20  A    between atoms: O_35  and  C_48
   21  A    between atoms: C_42  and  C_55
   22  A    between atoms: N_46  and  C_53
   23  A    between atoms: C_52  and  C_53
                            x       y       z     vdW  Elec       q    Type
                         _______ _______ _______ _____ _____    ______ ____

>  <TORSDO>
F 23

$$$$
=
 OpenBabel11042413423D

 58 63  0  0  1  0  0  0  0  0999 V2000
  190.4280  171.9240  141.0870 C   0  0  0  0  0  0  0  0  0  0  0  0
  191.5000  171.8130  140.0670 C   0  0  1  0  0  3  0  0  0  0  0  0
  190.2560  171.0660  141.9290 O   0  0  0  0  0  0  0  0  0  0  0  0
  189.6300  171.9690  138.3580 C   0  0  2  0  0  3  0  0  0  0  0  0
  189.6520  173.2210  139.2220 C   0  0  1  0  0  3  0  0  0  0  0  0
  189.3330  172.8320  140.6630 C   0  0  2  0  0  3  0  0  0  0  0  0
  190.9540  172.5450  138.8380 C   0  0  1  0  0  3  0  0  0  0  0  0
  192.7990  172.4810  140.5200 C   0  0  2  0  0  3  0  0  0  0  0  0
  194.1280  173.3050  142.2340 C   0  0  2  0  0  3  0  0  0  0  0  0
  194.8260  172.3380  141.4650 O   0  0  0  0  0  0  0  0  0  0  0  0
  193.8810  171.5460  140.8640 N   0  0  0  0  0  0  0  0  0  0  0  0
  192.4070  174.7050  141.2150 O   0  0  0  0  0  1  0  0  0  0  0  0
  192.7030  173.4160  141.6820 C   0  0  1  0  0  3  0  0  0  0  0  0
  194.9100  174.6160  142.2620 C   0  0  0  0  0  2  0  0  0  0  0  0
  194.3830  175.4880  143.3090 N   0  0  0  0  0  2  0  0  0  0  0  0
  195.6720  175.7710  144.4400 S   0  0  0  0  0  0  0  0  0  0  0  0
  196.0420  177.2330  144.4500 O   0  0  0  0  0  0  0  0  0  0  0  0
  196.8760  174.9630  144.0370 O   0  0  0  0  0  0  0  0  0  0  0  0
  195.1720  175.2590  146.0710 C   0  0  0  0  0  2  0  0  0  0  0  0
  193.9200  175.9580  146.4920 C   0  0  0  0  0  0  0  0  0  0  0  0
  193.9980  177.0990  147.0130 O   0  0  0  0  0  0  0  0  0  0  0  0
  192.6510  175.3900  146.3060 O   0  0  0  0  0  0  0  0  0  0  0  0
  190.7410  176.4140  147.4070 C   0  0  0  0  0  1  0  0  0  0  0  0
  191.4360  176.1130  146.0890 C   0  0  2  0  0  3  0  0  0  0  0  0
  190.5330  175.3920  145.1010 C   0  0  0  0  0  2  0  0  0  0  0  0
  189.9610  173.0300  144.8650 N   0  0  0  0  0  1  0  0  0  0  0  0
  189.8650  174.1800  145.7430 C   0  0  0  0  0  2  0  0  0  0  0  0
  193.4840  170.5260  141.8510 C   0  0  0  0  0  2  0  0  0  0  0  0
  194.3290  169.2580  141.7420 C   0  0  0  0  0  2  0  0  0  0  0  0
  194.7880  168.8900  143.0360 O   0  0  0  0  0  0  0  0  0  0  0  0
  195.0240  169.8220  144.0540 C   0  0  0  0  0  3  0  0  0  0  0  0
  194.4220  169.7520  145.1640 O   0  0  0  0  0  0  0  0  0  0  0  0
  189.4500  172.2840  136.8770 C   0  0  0  0  0  2  0  0  0  0  0  0
  189.5560  170.9800  136.1060 C   0  0  0  0  0  2  0  0  0  0  0  0
  190.3240  169.9400  136.9060 C   0  0  0  0  0  2  0  0  0  0  0  0
  194.0810  169.0090  135.0380 C   0  0  0  0  0  3  0  0  0  0  0  0
  193.9790  170.1610  135.8350 C   0  0  0  0  0  0  0  0  0  0  0  0
  192.9810  168.1660  134.8610 C   0  0  0  0  0  3  0  0  0  0  0  0
  192.7530  170.4560  136.4490 C   0  0  0  0  0  3  0  0  0  0  0  0
  191.6520  169.6070  136.2900 C   0  0  0  0  0  0  0  0  0  0  0  0
  191.7680  168.4650  135.4850 C   0  0  0  0  0  3  0  0  0  0  0  0
  195.0600  171.0230  136.0420 O   0  0  0  0  0  0  0  0  0  0  0  0
  196.3930  170.6440  137.0650 P   0  0  0  0  0  0  0  0  0  0  0  0
  197.3600  169.4530  136.3530 O   0  0  0  0  0  0  0  0  0  0  0  0
  195.8900  170.1490  138.4010 O   0  0  0  0  0  1  0  0  0  0  0  0
  197.3170  172.0430  137.3010 O   0  0  0  0  0  1  0  0  0  0  0  0
  189.2400  174.0690  141.5350 C   0  0  0  0  0  2  0  0  0  0  0  0
  187.5160  176.3390  140.8590 N   0  0  0  0  0  0  0  0  0  0  0  0
  187.0410  177.7070  140.8360 C   0  0  0  0  0  2  0  0  0  0  0  0
  187.2330  178.2790  142.2260 C   0  0  0  0  0  2  0  0  0  0  0  0
  186.4620  176.0490  143.0510 C   0  0  0  0  0  2  0  0  0  0  0  0
  187.2680  175.5580  141.8660 C   0  0  0  0  0  0  0  0  0  0  0  0
  187.8460  174.2530  141.9190 N   0  0  0  0  0  2  0  0  0  0  0  0
  186.4350  177.5160  143.2130 N   0  0  1  0  0  0  0  0  0  0  0  0
  186.2180  176.7220  145.5680 C   0  0  2  0  0  3  0  0  0  0  0  0
  186.7300  177.8090  144.6370 C   0  0  2  0  0  3  0  0  0  0  0  0
  185.4930  178.0520  145.4940 C   0  0  0  0  0  2  0  0  0  0  0  0
  187.0770  176.6980  146.8110 C   0  0  0  0  0  1  0  0  0  0  0  0
  1  3  2  0  0  0  0
  2  8  1  0  0  0  0
  2  1  1  1  0  0  0
  4 33  1  6  0  0  0
  4  7  1  0  0  0  0
  4  5  1  0  0  0  0
  5  6  1  0  0  0  0
  6  1  1  0  0  0  0
  6 47  1  0  0  0  0
  7  5  1  0  0  0  0
  7  2  1  0  0  0  0
  8 11  1  0  0  0  0
  8 13  1  0  0  0  0
  9 14  1  0  0  0  0
 10  9  1  0  0  0  0
 11 10  1  0  0  0  0
 11 28  1  0  0  0  0
 12 13  1  0  0  0  0
 13  9  1  0  0  0  0
 14 15  1  0  0  0  0
 15 16  1  0  0  0  0
 16 17  2  0  0  0  0
 16 19  1  0  0  0  0
 18 16  2  0  0  0  0
 19 20  1  0  0  0  0
 20 21  2  0  0  0  0
 22 20  1  0  0  0  0
 24 22  1  0  0  0  0
 24 23  1  0  0  0  0
 25 27  1  0  0  0  0
 25 24  1  0  0  0  0
 26 27  1  0  0  0  0
 29 28  1  0  0  0  0
 29 30  1  0  0  0  0
 30 31  1  0  0  0  0
 31 32  2  0  0  0  0
 34 33  1  0  0  0  0
 34 35  1  0  0  0  0
 36 37  1  0  0  0  0
 37 42  1  0  0  0  0
 37 39  2  0  0  0  0
 38 36  2  0  0  0  0
 38 41  1  0  0  0  0
 40 39  1  0  0  0  0
 40 35  1  0  0  0  0
 41 40  2  0  0  0  0
 42 43  1  0  0  0  0
 43 46  1  0  0  0  0
 43 45  1  0  0  0  0
 44 43  2  0  0  0  0
 47 53  1  0  0  0  0
 48 52  2  0  0  0  0
 49 48  1  0  0  0  0
 49 50  1  0  0  0  0
 50 54  1  0  0  0  0
 51 54  1  0  0  0  0
 52 53  1  0  0  0  0
 52 51  1  0  0  0  0
 54 56  1  0  0  0  0
 55 58  1  0  0  0  0
 56 57  1  0  0  0  0
 56 55  1  0  0  0  0
 57 55  1  0  0  0  0
M  END
>  <MODEL>
6

>  <REMARK>
 VINA RESULT:      -5.6      3.427      8.047
  Name = 
  23 active torsions:
  status: ('A' for Active; 'I' for Inactive)
    1  A    between atoms: C_2  and  C_9
    2  A    between atoms: C_4  and  C_51
    3  A    between atoms: P_5  and  O_49
    4  A    between atoms: N_10  and  S_11
    5  A    between atoms: N_10  and  C_51
    6  A    between atoms: S_11  and  C_15
    7  A    between atoms: C_12  and  O_49
    8  A    between atoms: C_15  and  C_22
    9  A    between atoms: C_16  and  N_30
   10  A    between atoms: C_16  and  C_32
   11  A    between atoms: C_18  and  C_29
   12  A    between atoms: C_18  and  C_48
   13  A    between atoms: C_20  and  O_38
   14  A    between atoms: C_22  and  O_35
   15  A    between atoms: C_24  and  C_42
   16  A    between atoms: C_24  and  C_54
   17  A    between atoms: C_31  and  N_47
   18  A    between atoms: C_32  and  O_38
   19  A    between atoms: C_33  and  C_54
   20  A    between atoms: O_35  and  C_48
   21  A    between atoms: C_42  and  C_55
   22  A    between atoms: N_46  and  C_53
   23  A    between atoms: C_52  and  C_53
                            x       y       z     vdW  Elec       q    Type
                         _______ _______ _______ _____ _____    ______ ____

>  <TORSDO>
F 23

$$$$
=
 OpenBabel11042413423D

 58 63  0  0  1  0  0  0  0  0999 V2000
  195.3610  175.8770  144.1400 C   0  0  0  0  0  0  0  0  0  0  0  0
  194.1690  175.4700  143.3560 C   0  0  1  0  0  3  0  0  0  0  0  0
  195.5100  177.0180  144.5300 O   0  0  0  0  0  0  0  0  0  0  0  0
  195.8220  174.7700  141.5620 C   0  0  2  0  0  3  0  0  0  0  0  0
  196.0810  173.9910  142.8430 C   0  0  1  0  0  3  0  0  0  0  0  0
  196.5140  174.9650  143.9340 C   0  0  2  0  0  3  0  0  0  0  0  0
  194.6600  174.3400  142.4460 C   0  0  1  0  0  3  0  0  0  0  0  0
  193.0410  174.9490  144.2480 C   0  0  2  0  0  3  0  0  0  0  0  0
  190.8590  175.1270  145.0170 C   0  0  2  0  0  3  0  0  0  0  0  0
  191.1110  173.8360  144.4820 O   0  0  0  0  0  0  0  0  0  0  0  0
  192.1590  173.9620  143.6080 N   0  0  0  0  0  0  0  0  0  0  0  0
  192.6510  176.4170  146.0590 O   0  0  0  0  0  1  0  0  0  0  0  0
  192.1250  175.9730  144.8370 C   0  0  1  0  0  3  0  0  0  0  0  0
  190.3630  175.0100  146.4560 C   0  0  0  0  0  2  0  0  0  0  0  0
  188.9580  175.4070  146.5320 N   0  0  0  0  0  2  0  0  0  0  0  0
  188.9210  177.1360  146.7060 S   0  0  0  0  0  0  0  0  0  0  0  0
  189.1030  177.7970  145.3630 O   0  0  0  0  0  0  0  0  0  0  0  0
  190.0340  177.5700  147.6220 O   0  0  0  0  0  0  0  0  0  0  0  0
  187.3720  177.6400  147.4280 C   0  0  0  0  0  2  0  0  0  0  0  0
  186.2620  177.5520  146.4300 C   0  0  0  0  0  0  0  0  0  0  0  0
  185.8000  176.4250  146.1220 O   0  0  0  0  0  0  0  0  0  0  0  0
  185.7020  178.6930  145.8380 O   0  0  0  0  0  0  0  0  0  0  0  0
  184.6670  179.7850  143.9280 C   0  0  0  0  0  1  0  0  0  0  0  0
  185.9150  179.1260  144.4910 C   0  0  2  0  0  3  0  0  0  0  0  0
  186.4230  177.9880  143.6190 C   0  0  0  0  0  2  0  0  0  0  0  0
  187.4120  177.4050  141.4650 N   0  0  0  0  0  1  0  0  0  0  0  0
  186.8660  178.4940  142.2510 C   0  0  0  0  0  2  0  0  0  0  0  0
  191.5970  174.4220  142.3250 C   0  0  0  0  0  2  0  0  0  0  0  0
  190.5090  173.4860  141.8030 C   0  0  0  0  0  2  0  0  0  0  0  0
  189.4720  174.2580  141.2140 O   0  0  0  0  0  0  0  0  0  0  0  0
  188.9430  173.9830  139.9470 C   0  0  0  0  0  3  0  0  0  0  0  0
  188.1910  174.8080  139.3530 O   0  0  0  0  0  0  0  0  0  0  0  0
  195.8630  173.8850  140.3210 C   0  0  0  0  0  2  0  0  0  0  0  0
  195.9270  174.7900  139.1030 C   0  0  0  0  0  2  0  0  0  0  0  0
  196.6790  174.1140  137.9670 C   0  0  0  0  0  2  0  0  0  0  0  0
  194.5140  170.7400  136.4200 C   0  0  0  0  0  3  0  0  0  0  0  0
  193.8930  172.0000  136.4440 C   0  0  0  0  0  0  0  0  0  0  0  0
  195.8230  170.5820  136.8800 C   0  0  0  0  0  3  0  0  0  0  0  0
  194.6070  173.0990  136.9420 C   0  0  0  0  0  3  0  0  0  0  0  0
  195.9250  172.9520  137.3890 C   0  0  0  0  0  0  0  0  0  0  0  0
  196.5280  171.6860  137.3660 C   0  0  0  0  0  3  0  0  0  0  0  0
  192.5880  172.1980  135.9830 O   0  0  0  0  0  0  0  0  0  0  0  0
  191.2920  172.7100  136.9960 P   0  0  0  0  0  0  0  0  0  0  0  0
  191.4990  172.1100  138.5630 O   0  0  0  0  0  1  0  0  0  0  0  0
  189.9780  172.2160  136.4380 O   0  0  0  0  0  0  0  0  0  0  0  0
  191.2740  174.4030  137.0460 O   0  0  0  0  0  1  0  0  0  0  0  0
  196.8860  174.2130  145.1960 C   0  0  0  0  0  2  0  0  0  0  0  0
  196.8230  171.4430  146.1490 N   0  0  0  0  0  0  0  0  0  0  0  0
  196.9480  170.0010  146.1010 C   0  0  0  0  0  2  0  0  0  0  0  0
  196.4070  169.5410  144.7620 C   0  0  0  0  0  2  0  0  0  0  0  0
  194.6150  171.2500  145.1070 C   0  0  0  0  0  2  0  0  0  0  0  0
  195.7650  172.0420  145.6960 C   0  0  0  0  0  0  0  0  0  0  0  0
  195.7160  173.4690  145.6460 N   0  0  0  0  0  2  0  0  0  0  0  0
  194.9760  169.8990  144.6340 N   0  0  1  0  0  0  0  0  0  0  0  0
  193.2930  170.7450  142.9970 C   0  0  2  0  0  3  0  0  0  0  0  0
  194.3960  169.7370  143.2780 C   0  0  2  0  0  3  0  0  0  0  0  0
  192.9360  169.2970  143.2710 C   0  0  0  0  0  2  0  0  0  0  0  0
  193.2260  170.9940  141.5080 C   0  0  0  0  0  1  0  0  0  0  0  0
  1  3  2  0  0  0  0
  2  1  1  1  0  0  0
  2  8  1  0  0  0  0
  4 33  1  6  0  0  0
  4  7  1  0  0  0  0
  4  5  1  0  0  0  0
  5  6  1  0  0  0  0
  6  1  1  0  0  0  0
  6 47  1  0  0  0  0
  7  5  1  0  0  0  0
  7  2  1  0  0  0  0
  8 13  1  0  0  0  0
  9 14  1  0  0  0  0
 10  9  1  0  0  0  0
 11  8  1  0  0  0  0
 11 10  1  0  0  0  0
 13  9  1  0  0  0  0
 13 12  1  0  0  0  0
 14 15  1  0  0  0  0
 15 16  1  0  0  0  0
 16 19  1  0  0  0  0
 16 18  2  0  0  0  0
 17 16  2  0  0  0  0
 20 19  1  0  0  0  0
 21 20  2  0  0  0  0
 22 20  1  0  0  0  0
 23 24  1  0  0  0  0
 24 22  1  0  0  0  0
 25 24  1  0  0  0  0
 26 27  1  0  0  0  0
 27 25  1  0  0  0  0
 28 11  1  0  0  0  0
 29 28  1  0  0  0  0
 30 29  1  0  0  0  0
 31 30  1  0  0  0  0
 32 31  2  0  0  0  0
 34 33  1  0  0  0  0
 35 34  1  0  0  0  0
 36 37  2  0  0  0  0
 36 38  1  0  0  0  0
 37 39  1  0  0  0  0
 38 41  2  0  0  0  0
 39 40  2  0  0  0  0
 40 35  1  0  0  0  0
 41 40  1  0  0  0  0
 42 37  1  0  0  0  0
 42 43  1  0  0  0  0
 43 46  1  0  0  0  0
 43 44  1  0  0  0  0
 45 43  2  0  0  0  0
 47 53  1  0  0  0  0
 49 48  1  0  0  0  0
 50 49  1  0  0  0  0
 51 52  1  0  0  0  0
 52 48  2  0  0  0  0
 53 52  1  0  0  0  0
 54 50  1  0  0  0  0
 54 51  1  0  0  0  0
 55 57  1  0  0  0  0
 55 56  1  0  0  0  0
 56 54  1  0  0  0  0
 57 56  1  0  0  0  0
 58 55  1  0  0  0  0
M  END
>  <MODEL>
7

>  <REMARK>
 VINA RESULT:      -5.3      2.967      6.555
  Name = 
  23 active torsions:
  status: ('A' for Active; 'I' for Inactive)
    1  A    between atoms: C_2  and  C_9
    2  A    between atoms: C_4  and  C_51
    3  A    between atoms: P_5  and  O_49
    4  A    between atoms: N_10  and  S_11
    5  A    between atoms: N_10  and  C_51
    6  A    between atoms: S_11  and  C_15
    7  A    between atoms: C_12  and  O_49
    8  A    between atoms: C_15  and  C_22
    9  A    between atoms: C_16  and  N_30
   10  A    between atoms: C_16  and  C_32
   11  A    between atoms: C_18  and  C_29
   12  A    between atoms: C_18  and  C_48
   13  A    between atoms: C_20  and  O_38
   14  A    between atoms: C_22  and  O_35
   15  A    between atoms: C_24  and  C_42
   16  A    between atoms: C_24  and  C_54
   17  A    between atoms: C_31  and  N_47
   18  A    between atoms: C_32  and  O_38
   19  A    between atoms: C_33  and  C_54
   20  A    between atoms: O_35  and  C_48
   21  A    between atoms: C_42  and  C_55
   22  A    between atoms: N_46  and  C_53
   23  A    between atoms: C_52  and  C_53
                            x       y       z     vdW  Elec       q    Type
                         _______ _______ _______ _____ _____    ______ ____

>  <TORSDO>
F 23

$$$$
=
 OpenBabel11042413423D

 58 63  0  0  1  0  0  0  0  0999 V2000
  192.7430  172.3630  141.2010 C   0  0  0  0  0  0  0  0  0  0  0  0
  191.9970  173.6460  141.2290 C   0  0  1  0  0  3  0  0  0  0  0  0
  193.8640  172.2870  140.7390 O   0  0  0  0  0  0  0  0  0  0  0  0
  190.2340  172.4320  139.8640 C   0  0  2  0  0  3  0  0  0  0  0  0
  190.4260  171.7370  141.2040 C   0  0  1  0  0  3  0  0  0  0  0  0
  191.8470  171.1830  141.2740 C   0  0  2  0  0  3  0  0  0  0  0  0
  190.5220  173.2480  141.1160 C   0  0  1  0  0  3  0  0  0  0  0  0
  192.2170  174.4140  142.5330 C   0  0  2  0  0  3  0  0  0  0  0  0
  193.4610  174.7590  144.4610 C   0  0  2  0  0  3  0  0  0  0  0  0
  193.3370  175.9570  143.7090 O   0  0  0  0  0  0  0  0  0  0  0  0
  193.0890  175.5910  142.4120 N   0  0  0  0  0  0  0  0  0  0  0  0
  191.7050  173.0630  144.4040 O   0  0  0  0  0  1  0  0  0  0  0  0
  192.7660  173.6350  143.6850 C   0  0  1  0  0  3  0  0  0  0  0  0
  192.9430  174.9760  145.8810 C   0  0  0  0  0  2  0  0  0  0  0  0
  192.3890  176.3220  146.0090 N   0  0  0  0  0  2  0  0  0  0  0  0
  190.9060  176.1850  146.9040 S   0  0  0  0  0  0  0  0  0  0  0  0
  191.1860  176.2430  148.3840 O   0  0  0  0  0  0  0  0  0  0  0  0
  190.2470  174.8710  146.5800 O   0  0  0  0  0  0  0  0  0  0  0  0
  189.7950  177.4990  146.4410 C   0  0  0  0  0  2  0  0  0  0  0  0
  188.4040  176.9840  146.2560 C   0  0  0  0  0  0  0  0  0  0  0  0
  187.7220  176.6740  147.2650 O   0  0  0  0  0  0  0  0  0  0  0  0
  187.8210  176.8540  144.9870 O   0  0  0  0  0  0  0  0  0  0  0  0
  185.9910  178.2820  144.2650 C   0  0  0  0  0  1  0  0  0  0  0  0
  187.4630  177.9320  144.1180 C   0  0  2  0  0  3  0  0  0  0  0  0
  187.8550  177.6360  142.6780 C   0  0  0  0  0  2  0  0  0  0  0  0
  190.2900  177.7210  142.8150 N   0  0  0  0  0  1  0  0  0  0  0  0
  189.1560  176.8420  142.6110 C   0  0  0  0  0  2  0  0  0  0  0  0
  194.3920  175.2960  141.7900 C   0  0  0  0  0  2  0  0  0  0  0  0
  195.1070  176.5600  141.3190 C   0  0  0  0  0  2  0  0  0  0  0  0
  196.2970  176.1960  140.6320 O   0  0  0  0  0  0  0  0  0  0  0  0
  196.8560  174.9140  140.7040 C   0  0  0  0  0  3  0  0  0  0  0  0
  196.7850  174.1080  139.7310 O   0  0  0  0  0  0  0  0  0  0  0  0
  188.7640  172.5850  139.4900 C   0  0  0  0  0  2  0  0  0  0  0  0
  188.6690  173.6120  138.3760 C   0  0  0  0  0  2  0  0  0  0  0  0
  189.3090  173.0860  137.1010 C   0  0  0  0  0  2  0  0  0  0  0  0
  191.1930  176.2610  134.9020 C   0  0  0  0  0  3  0  0  0  0  0  0
  191.9930  175.3540  135.6170 C   0  0  0  0  0  0  0  0  0  0  0  0
  189.8020  176.1300  134.8930 C   0  0  0  0  0  3  0  0  0  0  0  0
  191.3740  174.3150  136.3250 C   0  0  0  0  0  3  0  0  0  0  0  0
  189.9820  174.1670  136.3070 C   0  0  0  0  0  0  0  0  0  0  0  0
  189.1970  175.0850  135.5950 C   0  0  0  0  0  3  0  0  0  0  0  0
  193.3880  175.4480  135.6420 O   0  0  0  0  0  0  0  0  0  0  0  0
  194.3570  174.8400  136.9300 P   0  0  0  0  0  0  0  0  0  0  0  0
  193.6370  175.1870  138.4200 O   0  0  0  0  0  1  0  0  0  0  0  0
  195.7310  175.4650  136.8780 O   0  0  0  0  0  1  0  0  0  0  0  0
  194.5020  173.1620  136.7590 O   0  0  0  0  0  0  0  0  0  0  0  0
  192.0410  170.3900  142.5510 C   0  0  0  0  0  2  0  0  0  0  0  0
  193.4160  168.9730  144.7150 N   0  0  0  0  0  0  0  0  0  0  0  0
  194.1030  168.7850  145.9770 C   0  0  0  0  0  2  0  0  0  0  0  0
  195.0420  169.9600  146.1640 C   0  0  0  0  0  2  0  0  0  0  0  0
  195.5240  169.7260  143.7220 C   0  0  0  0  0  2  0  0  0  0  0  0
  194.0440  169.4080  143.6670 C   0  0  0  0  0  0  0  0  0  0  0  0
  193.3210  169.6970  142.4690 N   0  0  0  0  0  2  0  0  0  0  0  0
  196.0460  169.9950  145.0760 N   0  0  1  0  0  0  0  0  0  0  0  0
  196.1420  172.4330  145.5940 C   0  0  2  0  0  3  0  0  0  0  0  0
  196.8590  171.2340  144.9980 C   0  0  2  0  0  3  0  0  0  0  0  0
  196.2750  172.3080  144.0890 C   0  0  0  0  0  2  0  0  0  0  0  0
  197.1720  173.4180  146.0980 C   0  0  0  0  0  1  0  0  0  0  0  0
  1  6  1  0  0  0  0
  2  1  1  1  0  0  0
  2  8  1  0  0  0  0
  3  1  2  0  0  0  0
  4 33  1  1  0  0  0
  4  7  1  0  0  0  0
  4  5  1  0  0  0  0
  5  6  1  0  0  0  0
  6 47  1  0  0  0  0
  7  5  1  0  0  0  0
  7  2  1  0  0  0  0
  8 13  1  0  0  0  0
  9 14  1  0  0  0  0
 10  9  1  0  0  0  0
 11  8  1  0  0  0  0
 11 10  1  0  0  0  0
 13 12  1  0  0  0  0
 13  9  1  0  0  0  0
 14 15  1  0  0  0  0
 15 16  1  0  0  0  0
 16 17  2  0  0  0  0
 18 16  2  0  0  0  0
 19 16  1  0  0  0  0
 20 19  1  0  0  0  0
 20 21  2  0  0  0  0
 22 20  1  0  0  0  0
 24 23  1  0  0  0  0
 24 22  1  0  0  0  0
 25 24  1  0  0  0  0
 27 25  1  0  0  0  0
 27 26  1  0  0  0  0
 28 11  1  0  0  0  0
 29 28  1  0  0  0  0
 30 31  1  0  0  0  0
 30 29  1  0  0  0  0
 32 31  2  0  0  0  0
 34 33  1  0  0  0  0
 35 34  1  0  0  0  0
 36 37  1  0  0  0  0
 37 42  1  0  0  0  0
 37 39  2  0  0  0  0
 38 36  2  0  0  0  0
 38 41  1  0  0  0  0
 40 39  1  0  0  0  0
 40 35  1  0  0  0  0
 41 40  2  0  0  0  0
 42 43  1  0  0  0  0
 43 44  1  0  0  0  0
 45 43  1  0  0  0  0
 46 43  2  0  0  0  0
 48 49  1  0  0  0  0
 49 50  1  0  0  0  0
 51 54  1  0  0  0  0
 52 51  1  0  0  0  0
 52 48  2  0  0  0  0
 53 47  1  0  0  0  0
 53 52  1  0  0  0  0
 54 50  1  0  0  0  0
 55 58  1  0  0  0  0
 56 54  1  0  0  0  0
 56 55  1  0  0  0  0
 57 56  1  0  0  0  0
 57 55  1  0  0  0  0
M  END
>  <MODEL>
8

>  <REMARK>
 VINA RESULT:      -5.2      2.771      7.017
  Name = 
  23 active torsions:
  status: ('A' for Active; 'I' for Inactive)
    1  A    between atoms: C_2  and  C_9
    2  A    between atoms: C_4  and  C_51
    3  A    between atoms: P_5  and  O_49
    4  A    between atoms: N_10  and  S_11
    5  A    between atoms: N_10  and  C_51
    6  A    between atoms: S_11  and  C_15
    7  A    between atoms: C_12  and  O_49
    8  A    between atoms: C_15  and  C_22
    9  A    between atoms: C_16  and  N_30
   10  A    between atoms: C_16  and  C_32
   11  A    between atoms: C_18  and  C_29
   12  A    between atoms: C_18  and  C_48
   13  A    between atoms: C_20  and  O_38
   14  A    between atoms: C_22  and  O_35
   15  A    between atoms: C_24  and  C_42
   16  A    between atoms: C_24  and  C_54
   17  A    between atoms: C_31  and  N_47
   18  A    between atoms: C_32  and  O_38
   19  A    between atoms: C_33  and  C_54
   20  A    between atoms: O_35  and  C_48
   21  A    between atoms: C_42  and  C_55
   22  A    between atoms: N_46  and  C_53
   23  A    between atoms: C_52  and  C_53
                            x       y       z     vdW  Elec       q    Type
                         _______ _______ _______ _____ _____    ______ ____

>  <TORSDO>
F 23

$$$$
=
 OpenBabel11042413423D

 58 63  0  0  1  0  0  0  0  0999 V2000
  193.0510  172.2350  138.7500 C   0  0  0  0  0  0  0  0  0  0  0  0
  191.9430  171.3070  139.0900 C   0  0  1  0  0  3  0  0  0  0  0  0
  193.5900  172.2130  137.6610 O   0  0  0  0  0  0  0  0  0  0  0  0
  193.4320  170.5300  140.9940 C   0  0  2  0  0  3  0  0  0  0  0  0
  193.1330  172.0150  141.1380 C   0  0  1  0  0  3  0  0  0  0  0  0
  193.7430  172.7590  139.9530 C   0  0  2  0  0  3  0  0  0  0  0  0
  192.0680  171.0800  140.6000 C   0  0  1  0  0  3  0  0  0  0  0  0
  190.5720  171.9080  138.7800 C   0  0  2  0  0  3  0  0  0  0  0  0
  189.3020  173.6030  137.8310 C   0  0  2  0  0  3  0  0  0  0  0  0
  188.9280  172.3340  137.3180 O   0  0  0  0  0  0  0  0  0  0  0  0
  190.0020  171.5000  137.4870 N   0  0  0  0  0  0  0  0  0  0  0  0
  190.1700  173.8240  140.1030 O   0  0  0  0  0  1  0  0  0  0  0  0
  190.4720  173.3990  138.8000 C   0  0  1  0  0  3  0  0  0  0  0  0
  188.0870  174.3070  138.4300 C   0  0  0  0  0  2  0  0  0  0  0  0
  187.4440  175.1390  137.4150 N   0  0  0  0  0  2  0  0  0  0  0  0
  186.7030  176.4770  138.2400 S   0  0  0  0  0  0  0  0  0  0  0  0
  185.2020  176.3870  138.1320 O   0  0  0  0  0  0  0  0  0  0  0  0
  187.1650  177.7660  137.6160 O   0  0  0  0  0  0  0  0  0  0  0  0
  187.1910  176.4770  139.9540 C   0  0  0  0  0  2  0  0  0  0  0  0
  186.3520  177.4240  140.7500 C   0  0  0  0  0  0  0  0  0  0  0  0
  185.6300  178.2600  140.1500 O   0  0  0  0  0  0  0  0  0  0  0  0
  186.3250  177.3980  142.1520 O   0  0  0  0  0  0  0  0  0  0  0  0
  188.5970  177.7630  142.9380 C   0  0  0  0  0  1  0  0  0  0  0  0
  187.1410  178.1920  143.0180 C   0  0  2  0  0  3  0  0  0  0  0  0
  186.6050  178.1870  144.4410 C   0  0  0  0  0  2  0  0  0  0  0  0
  185.2320  176.9500  146.0360 N   0  0  0  0  0  1  0  0  0  0  0  0
  185.9520  176.8520  144.7810 C   0  0  0  0  0  2  0  0  0  0  0  0
  190.9080  171.7310  136.3470 C   0  0  0  0  0  2  0  0  0  0  0  0
  190.6070  170.8030  135.1730 C   0  0  0  0  0  2  0  0  0  0  0  0
  191.7320  169.9680  134.9360 O   0  0  0  0  0  0  0  0  0  0  0  0
  191.9570  168.7750  135.6340 C   0  0  0  0  0  3  0  0  0  0  0  0
  192.8170  168.7040  136.5590 O   0  0  0  0  0  0  0  0  0  0  0  0
  193.3090  169.7780  142.3150 C   0  0  0  0  0  2  0  0  0  0  0  0
  193.5200  170.7740  143.4410 C   0  0  0  0  0  2  0  0  0  0  0  0
  192.3310  170.7750  144.3890 C   0  0  0  0  0  2  0  0  0  0  0  0
  189.6830  174.1220  143.8760 C   0  0  0  0  0  3  0  0  0  0  0  0
  190.9010  174.3080  144.5530 C   0  0  0  0  0  0  0  0  0  0  0  0
  189.3390  172.8690  143.3630 C   0  0  0  0  0  3  0  0  0  0  0  0
  191.7640  173.2150  144.7110 C   0  0  0  0  0  3  0  0  0  0  0  0
  191.4330  171.9610  144.1840 C   0  0  0  0  0  0  0  0  0  0  0  0
  190.2120  171.7890  143.5180 C   0  0  0  0  0  3  0  0  0  0  0  0
  191.2830  175.5490  145.0720 O   0  0  0  0  0  0  0  0  0  0  0  0
  190.7630  176.1360  146.6060 P   0  0  0  0  0  0  0  0  0  0  0  0
  189.9340  174.9260  147.4480 O   0  0  0  0  0  1  0  0  0  0  0  0
  189.8550  177.3290  146.4190 O   0  0  0  0  0  0  0  0  0  0  0  0
  192.1220  176.6050  147.5010 O   0  0  0  0  0  1  0  0  0  0  0  0
  193.5580  174.2550  140.1180 C   0  0  0  0  0  2  0  0  0  0  0  0
  195.0450  176.1850  141.7440 N   0  0  0  0  0  0  0  0  0  0  0  0
  196.1780  176.7870  142.4180 C   0  0  0  0  0  2  0  0  0  0  0  0
  197.0000  175.6640  143.0180 C   0  0  0  0  0  2  0  0  0  0  0  0
  194.8060  174.6260  143.6170 C   0  0  0  0  0  2  0  0  0  0  0  0
  194.4010  175.1900  142.2710 C   0  0  0  0  0  0  0  0  0  0  0  0
  193.3650  174.5380  141.5340 N   0  0  0  0  0  2  0  0  0  0  0  0
  196.1990  174.9130  144.0120 N   0  0  1  0  0  0  0  0  0  0  0  0
  195.9180  172.9310  145.5000 C   0  0  2  0  0  3  0  0  0  0  0  0
  196.7970  173.6390  144.4820 C   0  0  2  0  0  3  0  0  0  0  0  0
  197.1800  173.6360  145.9580 C   0  0  0  0  0  2  0  0  0  0  0  0
  196.1840  171.4450  145.4260 C   0  0  0  0  0  1  0  0  0  0  0  0
  1  6  1  0  0  0  0
  2  1  1  1  0  0  0
  2  7  1  0  0  0  0
  3  1  2  0  0  0  0
  4  5  1  0  0  0  0
  4 33  1  1  0  0  0
  6 47  1  0  0  0  0
  6  5  1  0  0  0  0
  7  4  1  0  0  0  0
  7  5  1  0  0  0  0
  8 13  1  0  0  0  0
  8  2  1  0  0  0  0
  9 14  1  0  0  0  0
  9 13  1  0  0  0  0
 10 11  1  0  0  0  0
 10  9  1  0  0  0  0
 11  8  1  0  0  0  0
 13 12  1  0  0  0  0
 15 16  1  0  0  0  0
 15 14  1  0  0  0  0
 16 19  1  0  0  0  0
 17 16  2  0  0  0  0
 18 16  2  0  0  0  0
 19 20  1  0  0  0  0
 20 22  1  0  0  0  0
 21 20  2  0  0  0  0
 22 24  1  0  0  0  0
 23 24  1  0  0  0  0
 24 25  1  0  0  0  0
 25 27  1  0  0  0  0
 27 26  1  0  0  0  0
 28 11  1  0  0  0  0
 29 28  1  0  0  0  0
 30 29  1  0  0  0  0
 30 31  1  0  0  0  0
 31 32  2  0  0  0  0
 33 34  1  0  0  0  0
 34 35  1  0  0  0  0
 36 37  1  0  0  0  0
 37 39  2  0  0  0  0
 37 42  1  0  0  0  0
 38 41  1  0  0  0  0
 38 36  2  0  0  0  0
 40 35  1  0  0  0  0
 40 39  1  0  0  0  0
 41 40  2  0  0  0  0
 42 43  1  0  0  0  0
 43 44  1  0  0  0  0
 43 46  1  0  0  0  0
 45 43  2  0  0  0  0
 47 53  1  0  0  0  0
 48 52  2  0  0  0  0
 48 49  1  0  0  0  0
 49 50  1  0  0  0  0
 50 54  1  0  0  0  0
 51 54  1  0  0  0  0
 52 51  1  0  0  0  0
 53 52  1  0  0  0  0
 54 56  1  0  0  0  0
 55 57  1  0  0  0  0
 56 55  1  0  0  0  0
 56 57  1  0  0  0  0
 58 55  1  0  0  0  0
M  END
>  <MODEL>
9

>  <REMARK>
 VINA RESULT:      -5.1      2.759      6.780
  Name = 
  23 active torsions:
  status: ('A' for Active; 'I' for Inactive)
    1  A    between atoms: C_2  and  C_9
    2  A    between atoms: C_4  and  C_51
    3  A    between atoms: P_5  and  O_49
    4  A    between atoms: N_10  and  S_11
    5  A    between atoms: N_10  and  C_51
    6  A    between atoms: S_11  and  C_15
    7  A    between atoms: C_12  and  O_49
    8  A    between atoms: C_15  and  C_22
    9  A    between atoms: C_16  and  N_30
   10  A    between atoms: C_16  and  C_32
   11  A    between atoms: C_18  and  C_29
   12  A    between atoms: C_18  and  C_48
   13  A    between atoms: C_20  and  O_38
   14  A    between atoms: C_22  and  O_35
   15  A    between atoms: C_24  and  C_42
   16  A    between atoms: C_24  and  C_54
   17  A    between atoms: C_31  and  N_47
   18  A    between atoms: C_32  and  O_38
   19  A    between atoms: C_33  and  C_54
   20  A    between atoms: O_35  and  C_48
   21  A    between atoms: C_42  and  C_55
   22  A    between atoms: N_46  and  C_53
   23  A    between atoms: C_52  and  C_53
                            x       y       z     vdW  Elec       q    Type
                         _______ _______ _______ _____ _____    ______ ____

>  <TORSDO>
F 23

$$$$
