=
 OpenBabel11042416233D

 38 40  0  0  1  0  0  0  0  0999 V2000
  187.0690  177.2540  146.3930 C   0  0  2  0  0  3  0  0  0  0  0  0
  186.1830  179.0570  144.3500 O   0  0  0  0  0  0  0  0  0  0  0  0
  186.6350  176.8770  145.0540 N   0  0  0  0  0  2  0  0  0  0  0  0
  186.2140  177.8280  144.0740 C   0  0  0  0  0  0  0  0  0  0  0  0
  185.7570  177.3360  142.7370 C   0  0  1  0  0  3  0  0  0  0  0  0
  184.4840  178.4730  141.4320 O   0  0  0  0  0  1  0  0  0  0  0  0
  184.4310  177.7110  142.5040 O   0  0  0  0  0  0  0  0  0  0  0  0
  186.6760  177.7820  141.5960 C   0  0  0  0  0  2  0  0  0  0  0  0
  187.4430  176.6200  140.9710 C   0  0  0  0  0  2  0  0  0  0  0  0
  188.6070  176.2520  141.8360 C   0  0  0  0  0  0  0  0  0  0  0  0
  189.6870  172.1930  142.3470 N   0  0  0  0  0  2  0  0  0  0  0  0
  190.6890  173.2530  142.4550 C   0  0  0  0  0  2  0  0  0  0  0  0
  188.8990  174.8770  142.1270 N   0  0  0  0  0  0  0  0  0  0  0  0
  189.3510  177.1660  142.2840 O   0  0  0  0  0  0  0  0  0  0  0  0
  188.7160  172.5800  141.3240 C   0  0  0  0  0  2  0  0  0  0  0  0
  187.9510  173.8210  141.7750 C   0  0  0  0  0  2  0  0  0  0  0  0
  190.0380  174.5320  142.9750 C   0  0  0  0  0  2  0  0  0  0  0  0
  188.2720  176.4120  146.7870 C   0  0  0  0  0  2  0  0  0  0  0  0
  190.5310  176.5540  147.5560 O   0  0  0  0  0  1  0  0  0  0  0  0
  189.5350  177.2550  146.8740 C   0  0  1  0  0  3  0  0  0  0  0  0
  189.9810  177.5540  145.5860 O   0  0  0  0  0  0  0  0  0  0  0  0
  191.0670  176.7010  145.3770 C   0  0  0  0  0  2  0  0  0  0  0  0
  192.1510  177.4150  144.5850 C   0  0  0  0  0  2  0  0  0  0  0  0
  195.1710  175.4480  144.1480 C   0  0  0  0  0  0  0  0  0  0  0  0
  193.9900  177.0360  146.8390 O   0  0  0  0  0  0  0  0  0  0  0  0
  195.5980  173.6880  142.4910 C   0  0  0  0  0  3  0  0  0  0  0  0
  197.3420  174.2280  144.1310 C   0  0  0  0  0  1  0  0  0  0  0  0
  193.8010  175.0130  141.4300 C   0  0  0  0  0  3  0  0  0  0  0  0
  194.5920  173.8370  141.6810 N   0  0  0  0  0  0  0  0  0  0  0  0
  196.2030  174.7890  143.2980 C   0  0  2  0  0  3  0  0  0  0  0  0
  193.5400  175.9380  142.3120 N   0  0  0  0  0  0  0  0  0  0  0  0
  194.2200  176.5240  145.7100 C   0  0  0  0  0  0  0  0  0  0  0  0
  195.3270  175.7950  145.4460 N   0  0  0  0  0  2  0  0  0  0  0  0
  193.4060  176.6730  144.6480 N   0  0  0  0  0  0  0  0  0  0  0  0
  194.0040  175.9840  143.6640 C   0  0  0  0  0  0  0  0  0  0  0  0
  185.9270  177.0800  147.3940 C   0  0  0  0  0  2  0  0  0  0  0  0
  185.9480  179.2530  147.7720 C   0  0  0  0  0  1  0  0  0  0  0  0
  185.1020  178.2080  147.4070 O   0  0  0  0  0  0  0  0  0  0  0  0
  1 18  1  1  0  0  0
  1 36  1  0  0  0  0
  3  1  1  0  0  0  0
  4  2  2  0  0  0  0
  4  3  1  0  0  0  0
  5  8  1  6  0  0  0
  5  4  1  0  0  0  0
  6  7  1  0  0  0  0
  7  5  1  0  0  0  0
  9  8  1  0  0  0  0
  9 10  1  0  0  0  0
 10 13  1  0  0  0  0
 10 14  2  0  0  0  0
 11 12  1  0  0  0  0
 12 17  1  0  0  0  0
 13 17  1  0  0  0  0
 15 16  1  0  0  0  0
 15 11  1  0  0  0  0
 16 13  1  0  0  0  0
 18 20  1  0  0  0  0
 20 19  1  6  0  0  0
 21 20  1  0  0  0  0
 22 21  1  0  0  0  0
 23 34  1  0  0  0  0
 23 22  1  0  0  0  0
 24 33  1  0  0  0  0
 26 30  1  0  0  0  0
 28 29  1  0  0  0  0
 28 31  2  0  0  0  0
 29 26  2  0  0  0  0
 30 27  1  1  0  0  0
 30 24  1  0  0  0  0
 31 35  1  0  0  0  0
 32 25  2  0  0  0  0
 33 32  1  0  0  0  0
 34 32  1  0  0  0  0
 35 24  2  0  0  0  0
 35 34  1  0  0  0  0
 36 38  1  0  0  0  0
 38 37  1  0  0  0  0
M  END
>  <MODEL>
1

>  <REMARK>
 VINA RESULT:      -6.2      0.000      0.000
  Name = 
  14 active torsions:
  status: ('A' for Active; 'I' for Inactive)
    1  A    between atoms: C_1  and  C_14
    2  A    between atoms: C_1  and  N_37
    3  A    between atoms: C_2  and  C_5
    4  A    between atoms: C_2  and  N_18
    5  A    between atoms: C_2  and  C_36
    6  A    between atoms: C_5  and  C_21
    7  A    between atoms: C_6  and  C_31
    8  A    between atoms: C_14  and  O_30
    9  A    between atoms: C_16  and  C_25
   10  A    between atoms: C_16  and  C_31
   11  A    between atoms: C_21  and  O_30
   12  A    between atoms: C_25  and  O_29
   13  A    between atoms: C_25  and  C_32
   14  A    between atoms: O_28  and  C_36
                            x       y       z     vdW  Elec       q    Type
                         _______ _______ _______ _____ _____    ______ ____

>  <TORSDO>
F 14

$$$$
=
 OpenBabel11042416233D

 38 40  0  0  1  0  0  0  0  0999 V2000
  190.8900  174.3820  142.4630 C   0  0  2  0  0  3  0  0  0  0  0  0
  191.5150  176.8810  143.7170 O   0  0  0  0  0  0  0  0  0  0  0  0
  191.6500  174.5500  143.6940 N   0  0  0  0  0  2  0  0  0  0  0  0
  191.9190  175.8260  144.2770 C   0  0  0  0  0  0  0  0  0  0  0  0
  192.7370  175.8940  145.5280 C   0  0  1  0  0  3  0  0  0  0  0  0
  191.2060  175.4000  146.9530 O   0  0  0  0  0  1  0  0  0  0  0  0
  191.9760  176.4030  146.5830 O   0  0  0  0  0  0  0  0  0  0  0  0
  193.3750  174.5500  145.8920 C   0  0  0  0  0  2  0  0  0  0  0  0
  194.8780  174.5230  145.6270 C   0  0  0  0  0  2  0  0  0  0  0  0
  195.1520  173.8640  144.3120 C   0  0  0  0  0  0  0  0  0  0  0  0
  196.7170  176.1090  141.0850 N   0  0  0  0  0  2  0  0  0  0  0  0
  196.9840  174.6760  141.1980 C   0  0  0  0  0  2  0  0  0  0  0  0
  195.5520  174.6390  143.1720 N   0  0  0  0  0  0  0  0  0  0  0  0
  195.0580  172.6090  144.2230 O   0  0  0  0  0  0  0  0  0  0  0  0
  196.6720  176.6760  142.4320 C   0  0  0  0  0  2  0  0  0  0  0  0
  195.4880  176.0990  143.2010 C   0  0  0  0  0  2  0  0  0  0  0  0
  195.8150  173.9820  141.8930 C   0  0  0  0  0  2  0  0  0  0  0  0
  189.4500  174.0290  142.8050 C   0  0  0  0  0  2  0  0  0  0  0  0
  187.1890  174.6810  142.3870 O   0  0  0  0  0  1  0  0  0  0  0  0
  188.4730  174.6840  141.8400 C   0  0  1  0  0  3  0  0  0  0  0  0
  188.8720  176.0000  141.6020 O   0  0  0  0  0  0  0  0  0  0  0  0
  187.7500  176.6160  141.0410 C   0  0  0  0  0  2  0  0  0  0  0  0
  187.6090  178.0340  141.5720 C   0  0  0  0  0  2  0  0  0  0  0  0
  185.7480  178.0230  144.6890 C   0  0  0  0  0  0  0  0  0  0  0  0
  184.7170  178.5270  141.5520 O   0  0  0  0  0  0  0  0  0  0  0  0
  186.3310  176.8950  146.7900 C   0  0  0  0  0  3  0  0  0  0  0  0
  184.2300  178.1570  146.6590 C   0  0  0  0  0  1  0  0  0  0  0  0
  188.5220  177.1310  145.6700 C   0  0  0  0  0  3  0  0  0  0  0  0
  187.5630  176.5430  146.5680 N   0  0  0  0  0  0  0  0  0  0  0  0
  185.6680  178.0840  146.1770 C   0  0  2  0  0  3  0  0  0  0  0  0
  188.2270  177.7030  144.5360 N   0  0  0  0  0  0  0  0  0  0  0  0
  185.3380  178.3040  142.6260 C   0  0  0  0  0  0  0  0  0  0  0  0
  184.7360  178.3010  143.8360 N   0  0  0  0  0  2  0  0  0  0  0  0
  186.6640  178.0740  142.6830 N   0  0  0  0  0  0  0  0  0  0  0  0
  186.9200  177.8880  143.9870 C   0  0  0  0  0  0  0  0  0  0  0  0
  191.5240  173.3040  141.5850 C   0  0  0  0  0  2  0  0  0  0  0  0
  192.0120  171.2430  142.1980 C   0  0  0  0  0  1  0  0  0  0  0  0
  190.9420  172.0570  141.8320 O   0  0  0  0  0  0  0  0  0  0  0  0
  1 36  1  6  0  0  0
  1 18  1  0  0  0  0
  1  3  1  0  0  0  0
  2  4  2  0  0  0  0
  3  4  1  0  0  0  0
  4  5  1  0  0  0  0
  5  8  1  1  0  0  0
  5  7  1  0  0  0  0
  7  6  1  0  0  0  0
  9  8  1  0  0  0  0
 10  9  1  0  0  0  0
 11 12  1  0  0  0  0
 11 15  1  0  0  0  0
 12 17  1  0  0  0  0
 13 16  1  0  0  0  0
 13 10  1  0  0  0  0
 14 10  2  0  0  0  0
 15 16  1  0  0  0  0
 17 13  1  0  0  0  0
 20 19  1  1  0  0  0
 20 18  1  0  0  0  0
 21 20  1  0  0  0  0
 22 23  1  0  0  0  0
 22 21  1  0  0  0  0
 23 34  1  0  0  0  0
 24 30  1  0  0  0  0
 25 32  2  0  0  0  0
 28 29  1  0  0  0  0
 29 26  2  0  0  0  0
 30 27  1  6  0  0  0
 30 26  1  0  0  0  0
 31 28  2  0  0  0  0
 32 34  1  0  0  0  0
 32 33  1  0  0  0  0
 33 24  1  0  0  0  0
 34 35  1  0  0  0  0
 35 31  1  0  0  0  0
 35 24  2  0  0  0  0
 36 38  1  0  0  0  0
 38 37  1  0  0  0  0
M  END
>  <MODEL>
2

>  <REMARK>
 VINA RESULT:      -6.2      2.130      8.253
  Name = 
  14 active torsions:
  status: ('A' for Active; 'I' for Inactive)
    1  A    between atoms: C_1  and  C_14
    2  A    between atoms: C_1  and  N_37
    3  A    between atoms: C_2  and  C_5
    4  A    between atoms: C_2  and  N_18
    5  A    between atoms: C_2  and  C_36
    6  A    between atoms: C_5  and  C_21
    7  A    between atoms: C_6  and  C_31
    8  A    between atoms: C_14  and  O_30
    9  A    between atoms: C_16  and  C_25
   10  A    between atoms: C_16  and  C_31
   11  A    between atoms: C_21  and  O_30
   12  A    between atoms: C_25  and  O_29
   13  A    between atoms: C_25  and  C_32
   14  A    between atoms: O_28  and  C_36
                            x       y       z     vdW  Elec       q    Type
                         _______ _______ _______ _____ _____    ______ ____

>  <TORSDO>
F 14

$$$$
=
 OpenBabel11042416233D

 38 40  0  0  1  0  0  0  0  0999 V2000
  186.6320  177.3740  145.7590 C   0  0  2  0  0  3  0  0  0  0  0  0
  186.1880  178.6290  143.2220 O   0  0  0  0  0  0  0  0  0  0  0  0
  187.0840  176.8700  144.4690 N   0  0  0  0  0  2  0  0  0  0  0  0
  186.8390  177.5500  143.2370 C   0  0  0  0  0  0  0  0  0  0  0  0
  187.3180  176.9320  141.9610 C   0  0  1  0  0  3  0  0  0  0  0  0
  188.8430  178.3660  141.4730 O   0  0  0  0  0  1  0  0  0  0  0  0
  187.6790  177.9220  141.0430 O   0  0  0  0  0  0  0  0  0  0  0  0
  188.4520  175.9260  142.1780 C   0  0  0  0  0  2  0  0  0  0  0  0
  188.1060  174.5310  141.6650 C   0  0  0  0  0  2  0  0  0  0  0  0
  188.6370  174.3520  140.2770 C   0  0  0  0  0  0  0  0  0  0  0  0
  191.9480  171.8140  139.5710 N   0  0  0  0  0  2  0  0  0  0  0  0
  190.9450  172.0410  138.5310 C   0  0  0  0  0  2  0  0  0  0  0  0
  189.8390  173.6040  140.0430 N   0  0  0  0  0  0  0  0  0  0  0  0
  187.9960  174.8400  139.3080 O   0  0  0  0  0  0  0  0  0  0  0  0
  191.2730  171.8110  140.8690 C   0  0  0  0  0  2  0  0  0  0  0  0
  190.6920  173.1910  141.1570 C   0  0  0  0  0  2  0  0  0  0  0  0
  190.3470  173.4380  138.6830 C   0  0  0  0  0  2  0  0  0  0  0  0
  187.6740  177.0470  146.8190 C   0  0  0  0  0  2  0  0  0  0  0  0
  189.8470  177.6570  146.0330 O   0  0  0  0  0  1  0  0  0  0  0  0
  188.9770  176.5770  146.1900 C   0  0  1  0  0  3  0  0  0  0  0  0
  189.5700  175.6210  147.0150 O   0  0  0  0  0  0  0  0  0  0  0  0
  189.4890  174.4280  146.2930 C   0  0  0  0  0  2  0  0  0  0  0  0
  190.1780  174.5810  144.9450 C   0  0  0  0  0  2  0  0  0  0  0  0
  193.7020  173.7560  145.2210 C   0  0  0  0  0  0  0  0  0  0  0  0
  191.0820  171.8360  144.4410 O   0  0  0  0  0  0  0  0  0  0  0  0
  195.6270  175.2640  144.9960 C   0  0  0  0  0  3  0  0  0  0  0  0
  196.0250  172.8770  145.4110 C   0  0  0  0  0  1  0  0  0  0  0  0
  193.7920  176.8050  145.6020 C   0  0  0  0  0  3  0  0  0  0  0  0
  195.0530  176.4300  145.0180 N   0  0  0  0  0  0  0  0  0  0  0  0
  195.0920  174.0460  145.6760 C   0  0  2  0  0  3  0  0  0  0  0  0
  192.7520  176.0240  145.6970 N   0  0  0  0  0  0  0  0  0  0  0  0
  191.8950  172.7500  144.7490 C   0  0  0  0  0  0  0  0  0  0  0  0
  193.2210  172.5340  144.8970 N   0  0  0  0  0  2  0  0  0  0  0  0
  191.5240  174.0220  144.9910 N   0  0  0  0  0  0  0  0  0  0  0  0
  192.6690  174.6580  145.2800 C   0  0  0  0  0  0  0  0  0  0  0  0
  185.2740  176.7750  146.1230 C   0  0  0  0  0  2  0  0  0  0  0  0
  184.2180  178.7000  145.9130 C   0  0  0  0  0  1  0  0  0  0  0  0
  184.5010  177.6950  146.8370 O   0  0  0  0  0  0  0  0  0  0  0  0
  1 36  1  1  0  0  0
  1 18  1  0  0  0  0
  2  4  2  0  0  0  0
  3  1  1  0  0  0  0
  4  3  1  0  0  0  0
  5  8  1  1  0  0  0
  5  4  1  0  0  0  0
  7  6  1  0  0  0  0
  7  5  1  0  0  0  0
  9  8  1  0  0  0  0
 10  9  1  0  0  0  0
 11 15  1  0  0  0  0
 12 17  1  0  0  0  0
 12 11  1  0  0  0  0
 13 10  1  0  0  0  0
 13 16  1  0  0  0  0
 14 10  2  0  0  0  0
 15 16  1  0  0  0  0
 17 13  1  0  0  0  0
 20 19  1  1  0  0  0
 20 18  1  0  0  0  0
 20 21  1  0  0  0  0
 22 21  1  0  0  0  0
 23 34  1  0  0  0  0
 23 22  1  0  0  0  0
 24 35  2  0  0  0  0
 24 30  1  0  0  0  0
 25 32  2  0  0  0  0
 26 29  2  0  0  0  0
 26 30  1  0  0  0  0
 28 31  2  0  0  0  0
 29 28  1  0  0  0  0
 30 27  1  6  0  0  0
 32 33  1  0  0  0  0
 32 34  1  0  0  0  0
 33 24  1  0  0  0  0
 34 35  1  0  0  0  0
 35 31  1  0  0  0  0
 36 38  1  0  0  0  0
 37 38  1  0  0  0  0
M  END
>  <MODEL>
3

>  <REMARK>
 VINA RESULT:      -6.2      2.262      3.077
  Name = 
  14 active torsions:
  status: ('A' for Active; 'I' for Inactive)
    1  A    between atoms: C_1  and  C_14
    2  A    between atoms: C_1  and  N_37
    3  A    between atoms: C_2  and  C_5
    4  A    between atoms: C_2  and  N_18
    5  A    between atoms: C_2  and  C_36
    6  A    between atoms: C_5  and  C_21
    7  A    between atoms: C_6  and  C_31
    8  A    between atoms: C_14  and  O_30
    9  A    between atoms: C_16  and  C_25
   10  A    between atoms: C_16  and  C_31
   11  A    between atoms: C_21  and  O_30
   12  A    between atoms: C_25  and  O_29
   13  A    between atoms: C_25  and  C_32
   14  A    between atoms: O_28  and  C_36
                            x       y       z     vdW  Elec       q    Type
                         _______ _______ _______ _____ _____    ______ ____

>  <TORSDO>
F 14

$$$$
=
 OpenBabel11042416233D

 38 40  0  0  1  0  0  0  0  0999 V2000
  187.3700  177.3790  145.5790 C   0  0  2  0  0  3  0  0  0  0  0  0
  188.8630  175.3660  146.9660 O   0  0  0  0  0  0  0  0  0  0  0  0
  188.7730  177.4710  145.9600 N   0  0  0  0  0  2  0  0  0  0  0  0
  189.4650  176.4250  146.6430 C   0  0  0  0  0  0  0  0  0  0  0  0
  190.8990  176.6300  147.0180 C   0  0  1  0  0  3  0  0  0  0  0  0
  191.5490  177.4570  148.8930 O   0  0  0  0  0  1  0  0  0  0  0  0
  191.0990  176.3350  148.3690 O   0  0  0  0  0  0  0  0  0  0  0  0
  191.8640  175.8460  146.1230 C   0  0  0  0  0  2  0  0  0  0  0  0
  192.4600  176.7040  145.0100 C   0  0  0  0  0  2  0  0  0  0  0  0
  193.9530  176.6000  145.0300 C   0  0  0  0  0  0  0  0  0  0  0  0
  196.0970  176.0000  141.4320 N   0  0  0  0  0  2  0  0  0  0  0  0
  196.7130  176.6920  142.5630 C   0  0  0  0  0  2  0  0  0  0  0  0
  194.6800  176.2610  143.8400 N   0  0  0  0  0  0  0  0  0  0  0  0
  194.5710  176.8450  146.1010 O   0  0  0  0  0  0  0  0  0  0  0  0
  194.6760  176.3420  141.4010 C   0  0  0  0  0  2  0  0  0  0  0  0
  193.9800  175.7940  142.6430 C   0  0  0  0  0  2  0  0  0  0  0  0
  196.1380  176.1610  143.8730 C   0  0  0  0  0  2  0  0  0  0  0  0
  187.1270  178.2380  144.3460 C   0  0  0  0  0  2  0  0  0  0  0  0
  185.2300  177.2070  143.3200 O   0  0  0  0  0  1  0  0  0  0  0  0
  186.6050  177.4050  143.1850 C   0  0  1  0  0  3  0  0  0  0  0  0
  186.8600  178.0720  141.9860 O   0  0  0  0  0  0  0  0  0  0  0  0
  187.7400  177.2370  141.2930 C   0  0  0  0  0  2  0  0  0  0  0  0
  187.4420  175.7800  141.6130 C   0  0  0  0  0  2  0  0  0  0  0  0
  190.1950  173.6660  140.5470 C   0  0  0  0  0  0  0  0  0  0  0  0
  189.5950  175.1220  143.4930 O   0  0  0  0  0  0  0  0  0  0  0  0
  190.2120  172.0110  138.7350 C   0  0  0  0  0  3  0  0  0  0  0  0
  192.2380  172.3200  140.0860 C   0  0  0  0  0  1  0  0  0  0  0  0
  188.3670  173.5190  138.0800 C   0  0  0  0  0  3  0  0  0  0  0  0
  189.0990  172.2810  138.1200 N   0  0  0  0  0  0  0  0  0  0  0  0
  191.0220  173.0100  139.4940 C   0  0  2  0  0  3  0  0  0  0  0  0
  188.3230  174.3910  139.0490 N   0  0  0  0  0  0  0  0  0  0  0  0
  189.5970  174.6820  142.3120 C   0  0  0  0  0  0  0  0  0  0  0  0
  190.5890  173.9070  141.8180 N   0  0  0  0  0  2  0  0  0  0  0  0
  188.6310  174.9580  141.4150 N   0  0  0  0  0  0  0  0  0  0  0  0
  189.0070  174.3080  140.3030 C   0  0  0  0  0  0  0  0  0  0  0  0
  186.4710  177.8150  146.7350 C   0  0  0  0  0  2  0  0  0  0  0  0
  184.2940  178.1550  146.6390 C   0  0  0  0  0  1  0  0  0  0  0  0
  185.2470  177.1410  146.6940 O   0  0  0  0  0  0  0  0  0  0  0  0
  1 18  1  6  0  0  0
  1  3  1  0  0  0  0
  1 36  1  0  0  0  0
  3  4  1  0  0  0  0
  4  2  2  0  0  0  0
  4  5  1  0  0  0  0
  5  8  1  6  0  0  0
  5  7  1  0  0  0  0
  7  6  1  0  0  0  0
  9 10  1  0  0  0  0
  9  8  1  0  0  0  0
 10 14  2  0  0  0  0
 11 12  1  0  0  0  0
 12 17  1  0  0  0  0
 13 17  1  0  0  0  0
 13 10  1  0  0  0  0
 15 11  1  0  0  0  0
 15 16  1  0  0  0  0
 16 13  1  0  0  0  0
 20 19  1  1  0  0  0
 20 18  1  0  0  0  0
 21 20  1  0  0  0  0
 22 23  1  0  0  0  0
 22 21  1  0  0  0  0
 24 33  1  0  0  0  0
 26 30  1  0  0  0  0
 28 29  1  0  0  0  0
 28 31  2  0  0  0  0
 29 26  2  0  0  0  0
 30 27  1  1  0  0  0
 30 24  1  0  0  0  0
 31 35  1  0  0  0  0
 32 25  2  0  0  0  0
 33 32  1  0  0  0  0
 34 23  1  0  0  0  0
 34 32  1  0  0  0  0
 35 24  2  0  0  0  0
 35 34  1  0  0  0  0
 37 38  1  0  0  0  0
 38 36  1  0  0  0  0
M  END
>  <MODEL>
4

>  <REMARK>
 VINA RESULT:      -6.1      1.955      6.062
  Name = 
  14 active torsions:
  status: ('A' for Active; 'I' for Inactive)
    1  A    between atoms: C_1  and  C_14
    2  A    between atoms: C_1  and  N_37
    3  A    between atoms: C_2  and  C_5
    4  A    between atoms: C_2  and  N_18
    5  A    between atoms: C_2  and  C_36
    6  A    between atoms: C_5  and  C_21
    7  A    between atoms: C_6  and  C_31
    8  A    between atoms: C_14  and  O_30
    9  A    between atoms: C_16  and  C_25
   10  A    between atoms: C_16  and  C_31
   11  A    between atoms: C_21  and  O_30
   12  A    between atoms: C_25  and  O_29
   13  A    between atoms: C_25  and  C_32
   14  A    between atoms: O_28  and  C_36
                            x       y       z     vdW  Elec       q    Type
                         _______ _______ _______ _____ _____    ______ ____

>  <TORSDO>
F 14

$$$$
=
 OpenBabel11042416233D

 38 40  0  0  1  0  0  0  0  0999 V2000
  190.5690  172.7500  142.9510 C   0  0  2  0  0  3  0  0  0  0  0  0
  193.2280  173.8030  143.1130 O   0  0  0  0  0  0  0  0  0  0  0  0
  191.4210  172.7320  144.1320 N   0  0  0  0  0  2  0  0  0  0  0  0
  192.7380  173.2850  144.1520 C   0  0  0  0  0  0  0  0  0  0  0  0
  193.5460  173.1870  145.4080 C   0  0  1  0  0  3  0  0  0  0  0  0
  194.2960  171.2090  145.0330 O   0  0  0  0  0  1  0  0  0  0  0  0
  194.7110  172.4500  145.1850 O   0  0  0  0  0  0  0  0  0  0  0  0
  193.8550  174.5560  146.0210 C   0  0  0  0  0  2  0  0  0  0  0  0
  195.3380  174.9120  145.9440 C   0  0  0  0  0  2  0  0  0  0  0  0
  195.5620  175.9400  144.8800 C   0  0  0  0  0  0  0  0  0  0  0  0
  197.9320  175.0270  141.4960 N   0  0  0  0  0  2  0  0  0  0  0  0
  196.8620  176.0200  141.4140 C   0  0  0  0  0  2  0  0  0  0  0  0
  196.4720  175.6900  143.7990 N   0  0  0  0  0  0  0  0  0  0  0  0
  194.9150  177.0210  144.9260 O   0  0  0  0  0  0  0  0  0  0  0  0
  197.5100  173.9700  142.4140 C   0  0  0  0  0  2  0  0  0  0  0  0
  197.3640  174.5320  143.8250 C   0  0  0  0  0  2  0  0  0  0  0  0
  196.6820  176.7040  142.7670 C   0  0  0  0  0  2  0  0  0  0  0  0
  189.2790  173.4900  143.2730 C   0  0  0  0  0  2  0  0  0  0  0  0
  187.3770  174.4360  142.1790 O   0  0  0  0  0  1  0  0  0  0  0  0
  188.7540  174.2440  142.0600 C   0  0  1  0  0  3  0  0  0  0  0  0
  189.3880  175.4830  141.9750 O   0  0  0  0  0  0  0  0  0  0  0  0
  188.3970  176.3620  141.5330 C   0  0  0  0  0  2  0  0  0  0  0  0
  188.5500  177.7130  142.2140 C   0  0  0  0  0  2  0  0  0  0  0  0
  186.8140  177.5920  145.4000 C   0  0  0  0  0  0  0  0  0  0  0  0
  190.0780  177.4490  144.7040 O   0  0  0  0  0  0  0  0  0  0  0  0
  184.5910  178.4820  145.9420 C   0  0  0  0  0  3  0  0  0  0  0  0
  185.9060  177.4020  147.7110 C   0  0  0  0  0  1  0  0  0  0  0  0
  184.4760  178.1770  143.4920 C   0  0  0  0  0  3  0  0  0  0  0  0
  184.1210  178.7550  144.7610 N   0  0  0  0  0  0  0  0  0  0  0  0
  185.5870  177.4060  146.2260 C   0  0  2  0  0  3  0  0  0  0  0  0
  185.6620  177.7320  143.1810 N   0  0  0  0  0  0  0  0  0  0  0  0
  188.8200  177.5280  144.7110 C   0  0  0  0  0  0  0  0  0  0  0  0
  188.0860  177.4700  145.8440 N   0  0  0  0  0  2  0  0  0  0  0  0
  188.0780  177.6480  143.5930 N   0  0  0  0  0  0  0  0  0  0  0  0
  186.8110  177.6980  144.0320 C   0  0  0  0  0  0  0  0  0  0  0  0
  190.2790  171.3270  142.4770 C   0  0  0  0  0  2  0  0  0  0  0  0
  191.5030  171.6350  140.6680 C   0  0  0  0  0  1  0  0  0  0  0  0
  190.2240  171.2700  141.0810 O   0  0  0  0  0  0  0  0  0  0  0  0
  1 36  1  1  0  0  0
  1 18  1  0  0  0  0
  1  3  1  0  0  0  0
  2  4  2  0  0  0  0
  3  4  1  0  0  0  0
  4  5  1  0  0  0  0
  5  8  1  6  0  0  0
  6  7  1  0  0  0  0
  7  5  1  0  0  0  0
  9  8  1  0  0  0  0
 10 14  2  0  0  0  0
 10  9  1  0  0  0  0
 11 15  1  0  0  0  0
 12 11  1  0  0  0  0
 12 17  1  0  0  0  0
 13 16  1  0  0  0  0
 13 10  1  0  0  0  0
 15 16  1  0  0  0  0
 17 13  1  0  0  0  0
 20 19  1  1  0  0  0
 20 18  1  0  0  0  0
 21 20  1  0  0  0  0
 22 21  1  0  0  0  0
 22 23  1  0  0  0  0
 23 34  1  0  0  0  0
 24 33  1  0  0  0  0
 24 30  1  0  0  0  0
 25 32  2  0  0  0  0
 26 30  1  0  0  0  0
 28 29  1  0  0  0  0
 29 26  2  0  0  0  0
 30 27  1  1  0  0  0
 31 28  2  0  0  0  0
 31 35  1  0  0  0  0
 32 33  1  0  0  0  0
 34 35  1  0  0  0  0
 34 32  1  0  0  0  0
 35 24  2  0  0  0  0
 37 38  1  0  0  0  0
 38 36  1  0  0  0  0
M  END
>  <MODEL>
5

>  <REMARK>
 VINA RESULT:      -6.1      2.618      8.572
  Name = 
  14 active torsions:
  status: ('A' for Active; 'I' for Inactive)
    1  A    between atoms: C_1  and  C_14
    2  A    between atoms: C_1  and  N_37
    3  A    between atoms: C_2  and  C_5
    4  A    between atoms: C_2  and  N_18
    5  A    between atoms: C_2  and  C_36
    6  A    between atoms: C_5  and  C_21
    7  A    between atoms: C_6  and  C_31
    8  A    between atoms: C_14  and  O_30
    9  A    between atoms: C_16  and  C_25
   10  A    between atoms: C_16  and  C_31
   11  A    between atoms: C_21  and  O_30
   12  A    between atoms: C_25  and  O_29
   13  A    between atoms: C_25  and  C_32
   14  A    between atoms: O_28  and  C_36
                            x       y       z     vdW  Elec       q    Type
                         _______ _______ _______ _____ _____    ______ ____

>  <TORSDO>
F 14

$$$$
=
 OpenBabel11042416233D

 38 40  0  0  1  0  0  0  0  0999 V2000
  194.0390  175.3570  144.5150 C   0  0  2  0  0  3  0  0  0  0  0  0
  193.3740  172.7150  145.4030 O   0  0  0  0  0  0  0  0  0  0  0  0
  192.9950  174.5080  143.9560 N   0  0  0  0  0  2  0  0  0  0  0  0
  192.7040  173.2000  144.4510 C   0  0  0  0  0  0  0  0  0  0  0  0
  191.6320  172.3960  143.7870 C   0  0  1  0  0  3  0  0  0  0  0  0
  190.1420  173.2190  145.0980 O   0  0  0  0  0  1  0  0  0  0  0  0
  190.6310  172.0610  144.7030 O   0  0  0  0  0  0  0  0  0  0  0  0
  191.0520  173.0880  142.5490 C   0  0  0  0  0  2  0  0  0  0  0  0
  190.2790  172.1280  141.6480 C   0  0  0  0  0  2  0  0  0  0  0  0
  189.1640  172.8560  140.9660 C   0  0  0  0  0  0  0  0  0  0  0  0
  189.5860  174.1260  136.9520 N   0  0  0  0  0  2  0  0  0  0  0  0
  188.2670  173.8170  137.5040 C   0  0  0  0  0  2  0  0  0  0  0  0
  189.3440  173.4100  139.6540 N   0  0  0  0  0  0  0  0  0  0  0  0
  188.0480  172.9490  141.5450 O   0  0  0  0  0  0  0  0  0  0  0  0
  190.5590  173.2120  137.5480 C   0  0  0  0  0  2  0  0  0  0  0  0
  190.6720  173.4760  139.0460 C   0  0  0  0  0  2  0  0  0  0  0  0
  188.2460  174.1200  139.0000 C   0  0  0  0  0  2  0  0  0  0  0  0
  193.4350  176.6920  144.9250 C   0  0  0  0  0  2  0  0  0  0  0  0
  191.4200  176.6020  146.2070 O   0  0  0  0  0  1  0  0  0  0  0  0
  191.9150  176.6440  144.9020 C   0  0  1  0  0  3  0  0  0  0  0  0
  191.4260  177.7800  144.2580 O   0  0  0  0  0  0  0  0  0  0  0  0
  190.8910  177.3060  143.0570 C   0  0  0  0  0  2  0  0  0  0  0  0
  189.7000  176.4010  143.3330 C   0  0  0  0  0  2  0  0  0  0  0  0
  186.6840  178.1840  144.2810 C   0  0  0  0  0  0  0  0  0  0  0  0
  188.2470  177.9840  141.3350 O   0  0  0  0  0  0  0  0  0  0  0  0
  185.1600  177.6890  146.1410 C   0  0  0  0  0  3  0  0  0  0  0  0
  184.6480  179.5700  144.6490 C   0  0  0  0  0  1  0  0  0  0  0  0
  187.2720  176.6300  146.8670 C   0  0  0  0  0  3  0  0  0  0  0  0
  185.8460  176.8170  146.8190 N   0  0  0  0  0  0  0  0  0  0  0  0
  185.7610  178.7650  145.2970 C   0  0  2  0  0  3  0  0  0  0  0  0
  188.0880  176.8580  145.8750 N   0  0  0  0  0  0  0  0  0  0  0  0
  187.8450  177.9010  142.5270 C   0  0  0  0  0  0  0  0  0  0  0  0
  186.7470  178.5460  142.9790 N   0  0  0  0  0  2  0  0  0  0  0  0
  188.4810  177.1880  143.4770 N   0  0  0  0  0  0  0  0  0  0  0  0
  187.7400  177.3610  144.5820 C   0  0  0  0  0  0  0  0  0  0  0  0
  195.1680  175.5540  143.5040 C   0  0  0  0  0  2  0  0  0  0  0  0
  196.8890  176.7820  142.8770 C   0  0  0  0  0  1  0  0  0  0  0  0
  196.1180  176.4570  143.9910 O   0  0  0  0  0  0  0  0  0  0  0  0
  1 36  1  6  0  0  0
  1 18  1  0  0  0  0
  3  4  1  0  0  0  0
  3  1  1  0  0  0  0
  4  2  2  0  0  0  0
  5  8  1  6  0  0  0
  5  4  1  0  0  0  0
  5  7  1  0  0  0  0
  7  6  1  0  0  0  0
  9  8  1  0  0  0  0
 10 14  2  0  0  0  0
 10  9  1  0  0  0  0
 11 12  1  0  0  0  0
 11 15  1  0  0  0  0
 12 17  1  0  0  0  0
 13 10  1  0  0  0  0
 15 16  1  0  0  0  0
 16 13  1  0  0  0  0
 17 13  1  0  0  0  0
 20 18  1  0  0  0  0
 20 19  1  1  0  0  0
 21 20  1  0  0  0  0
 22 23  1  0  0  0  0
 22 21  1  0  0  0  0
 23 34  1  0  0  0  0
 24 35  2  0  0  0  0
 24 30  1  0  0  0  0
 25 32  2  0  0  0  0
 26 29  2  0  0  0  0
 29 28  1  0  0  0  0
 30 27  1  6  0  0  0
 30 26  1  0  0  0  0
 31 28  2  0  0  0  0
 32 33  1  0  0  0  0
 32 34  1  0  0  0  0
 33 24  1  0  0  0  0
 34 35  1  0  0  0  0
 35 31  1  0  0  0  0
 36 38  1  0  0  0  0
 37 38  1  0  0  0  0
M  END
>  <MODEL>
6

>  <REMARK>
 VINA RESULT:      -6.0      2.660      7.581
  Name = 
  14 active torsions:
  status: ('A' for Active; 'I' for Inactive)
    1  A    between atoms: C_1  and  C_14
    2  A    between atoms: C_1  and  N_37
    3  A    between atoms: C_2  and  C_5
    4  A    between atoms: C_2  and  N_18
    5  A    between atoms: C_2  and  C_36
    6  A    between atoms: C_5  and  C_21
    7  A    between atoms: C_6  and  C_31
    8  A    between atoms: C_14  and  O_30
    9  A    between atoms: C_16  and  C_25
   10  A    between atoms: C_16  and  C_31
   11  A    between atoms: C_21  and  O_30
   12  A    between atoms: C_25  and  O_29
   13  A    between atoms: C_25  and  C_32
   14  A    between atoms: O_28  and  C_36
                            x       y       z     vdW  Elec       q    Type
                         _______ _______ _______ _____ _____    ______ ____

>  <TORSDO>
F 14

$$$$
=
 OpenBabel11042416233D

 38 40  0  0  1  0  0  0  0  0999 V2000
  187.5040  176.8900  146.4870 C   0  0  2  0  0  3  0  0  0  0  0  0
  189.5410  174.9010  146.8030 O   0  0  0  0  0  0  0  0  0  0  0  0
  188.8890  177.1420  146.8610 N   0  0  0  0  0  2  0  0  0  0  0  0
  189.8630  176.1050  146.9920 C   0  0  0  0  0  0  0  0  0  0  0  0
  191.2530  176.4650  147.4110 C   0  0  1  0  0  3  0  0  0  0  0  0
  191.5050  177.7660  149.1030 O   0  0  0  0  0  1  0  0  0  0  0  0
  191.3530  176.4920  148.8050 O   0  0  0  0  0  0  0  0  0  0  0  0
  192.3140  175.5520  146.7900 C   0  0  0  0  0  2  0  0  0  0  0  0
  193.7210  176.1360  146.8890 C   0  0  0  0  0  2  0  0  0  0  0  0
  194.2490  176.4290  145.5200 C   0  0  0  0  0  0  0  0  0  0  0  0
  196.8360  173.6860  143.5980 N   0  0  0  0  0  2  0  0  0  0  0  0
  195.9700  174.5690  142.8180 C   0  0  0  0  0  2  0  0  0  0  0  0
  195.2320  175.5760  144.9140 N   0  0  0  0  0  0  0  0  0  0  0  0
  193.7960  177.4200  144.8870 O   0  0  0  0  0  0  0  0  0  0  0  0
  196.1270  173.3070  144.8200 C   0  0  0  0  0  2  0  0  0  0  0  0
  195.9030  174.5370  145.6950 C   0  0  0  0  0  2  0  0  0  0  0  0
  195.7400  175.8740  143.5770 C   0  0  0  0  0  2  0  0  0  0  0  0
  187.4290  176.6120  144.9930 C   0  0  0  0  0  2  0  0  0  0  0  0
  186.5210  178.6100  144.0470 O   0  0  0  0  0  1  0  0  0  0  0  0
  186.2180  177.2850  144.3640 C   0  0  1  0  0  3  0  0  0  0  0  0
  185.8610  176.6010  143.2020 O   0  0  0  0  0  0  0  0  0  0  0  0
  186.2350  177.4520  142.1590 C   0  0  0  0  0  2  0  0  0  0  0  0
  187.0540  176.6920  141.1270 C   0  0  0  0  0  2  0  0  0  0  0  0
  190.0040  175.0470  142.4570 C   0  0  0  0  0  0  0  0  0  0  0  0
  189.3130  178.2950  142.0920 O   0  0  0  0  0  0  0  0  0  0  0  0
  190.1670  172.8020  143.4370 C   0  0  0  0  0  3  0  0  0  0  0  0
  192.1770  174.2090  143.3400 C   0  0  0  0  0  1  0  0  0  0  0  0
  188.1460  172.6360  142.0250 C   0  0  0  0  0  3  0  0  0  0  0  0
  189.0160  172.2900  143.1170 N   0  0  0  0  0  0  0  0  0  0  0  0
  190.8750  173.8510  142.6440 C   0  0  2  0  0  3  0  0  0  0  0  0
  188.0260  173.8320  141.5170 N   0  0  0  0  0  0  0  0  0  0  0  0
  189.3370  177.0350  142.1320 C   0  0  0  0  0  0  0  0  0  0  0  0
  190.3980  176.3340  142.5880 N   0  0  0  0  0  2  0  0  0  0  0  0
  188.3240  176.2600  141.6990 N   0  0  0  0  0  0  0  0  0  0  0  0
  188.7440  175.0040  141.9130 C   0  0  0  0  0  0  0  0  0  0  0  0
  186.6220  178.0790  146.8680 C   0  0  0  0  0  2  0  0  0  0  0  0
  184.4670  178.2900  147.2890 C   0  0  0  0  0  1  0  0  0  0  0  0
  185.6290  177.6900  147.7720 O   0  0  0  0  0  0  0  0  0  0  0  0
  1 18  1  6  0  0  0
  1  3  1  0  0  0  0
  1 36  1  0  0  0  0
  2  4  2  0  0  0  0
  3  4  1  0  0  0  0
  4  5  1  0  0  0  0
  5  8  1  1  0  0  0
  5  7  1  0  0  0  0
  7  6  1  0  0  0  0
  8  9  1  0  0  0  0
 10  9  1  0  0  0  0
 11 15  1  0  0  0  0
 12 17  1  0  0  0  0
 12 11  1  0  0  0  0
 13 10  1  0  0  0  0
 13 16  1  0  0  0  0
 14 10  2  0  0  0  0
 15 16  1  0  0  0  0
 17 13  1  0  0  0  0
 20 19  1  6  0  0  0
 20 18  1  0  0  0  0
 21 20  1  0  0  0  0
 22 21  1  0  0  0  0
 23 34  1  0  0  0  0
 23 22  1  0  0  0  0
 24 33  1  0  0  0  0
 24 30  1  0  0  0  0
 25 32  2  0  0  0  0
 28 29  1  0  0  0  0
 29 26  2  0  0  0  0
 30 27  1  1  0  0  0
 30 26  1  0  0  0  0
 31 35  1  0  0  0  0
 31 28  2  0  0  0  0
 32 33  1  0  0  0  0
 34 35  1  0  0  0  0
 34 32  1  0  0  0  0
 35 24  2  0  0  0  0
 36 38  1  0  0  0  0
 37 38  1  0  0  0  0
M  END
>  <MODEL>
7

>  <REMARK>
 VINA RESULT:      -5.9      1.651      6.088
  Name = 
  14 active torsions:
  status: ('A' for Active; 'I' for Inactive)
    1  A    between atoms: C_1  and  C_14
    2  A    between atoms: C_1  and  N_37
    3  A    between atoms: C_2  and  C_5
    4  A    between atoms: C_2  and  N_18
    5  A    between atoms: C_2  and  C_36
    6  A    between atoms: C_5  and  C_21
    7  A    between atoms: C_6  and  C_31
    8  A    between atoms: C_14  and  O_30
    9  A    between atoms: C_16  and  C_25
   10  A    between atoms: C_16  and  C_31
   11  A    between atoms: C_21  and  O_30
   12  A    between atoms: C_25  and  O_29
   13  A    between atoms: C_25  and  C_32
   14  A    between atoms: O_28  and  C_36
                            x       y       z     vdW  Elec       q    Type
                         _______ _______ _______ _____ _____    ______ ____

>  <TORSDO>
F 14

$$$$
=
 OpenBabel11042416233D

 38 40  0  0  1  0  0  0  0  0999 V2000
  189.4530  172.9540  140.8240 C   0  0  2  0  0  3  0  0  0  0  0  0
  192.0590  173.5540  141.8510 O   0  0  0  0  0  0  0  0  0  0  0  0
  190.2840  172.0560  141.6160 N   0  0  0  0  0  2  0  0  0  0  0  0
  191.5740  172.4200  142.1090 C   0  0  0  0  0  0  0  0  0  0  0  0
  192.3620  171.4140  142.8880 C   0  0  1  0  0  3  0  0  0  0  0  0
  193.5220  170.3470  141.4250 O   0  0  0  0  0  1  0  0  0  0  0  0
  193.6450  171.2760  142.3510 O   0  0  0  0  0  0  0  0  0  0  0  0
  192.4100  171.7280  144.3860 C   0  0  0  0  0  2  0  0  0  0  0  0
  193.7960  172.1700  144.8490 C   0  0  0  0  0  2  0  0  0  0  0  0
  193.8440  173.6610  144.9640 C   0  0  0  0  0  0  0  0  0  0  0  0
  197.1910  175.8050  143.5110 N   0  0  0  0  0  2  0  0  0  0  0  0
  195.8680  176.4270  143.5620 C   0  0  0  0  0  2  0  0  0  0  0  0
  195.0290  174.3870  144.6010 N   0  0  0  0  0  0  0  0  0  0  0  0
  192.8180  174.2800  145.3550 O   0  0  0  0  0  0  0  0  0  0  0  0
  197.0210  174.3880  143.1920 C   0  0  0  0  0  2  0  0  0  0  0  0
  196.2810  173.6840  144.3250 C   0  0  0  0  0  2  0  0  0  0  0  0
  195.0620  175.8430  144.7190 C   0  0  0  0  0  2  0  0  0  0  0  0
  188.1590  173.2340  141.5740 C   0  0  0  0  0  2  0  0  0  0  0  0
  189.0260  174.6310  143.3080 O   0  0  0  0  0  1  0  0  0  0  0  0
  188.1720  174.6180  142.2050 C   0  0  1  0  0  3  0  0  0  0  0  0
  188.6150  175.5500  141.2660 O   0  0  0  0  0  0  0  0  0  0  0  0
  187.4640  176.2400  140.8760 C   0  0  0  0  0  2  0  0  0  0  0  0
  187.5320  177.6840  141.3480 C   0  0  0  0  0  2  0  0  0  0  0  0
  185.6170  178.1850  144.3920 C   0  0  0  0  0  0  0  0  0  0  0  0
  184.6690  178.3010  141.1910 O   0  0  0  0  0  0  0  0  0  0  0  0
  186.1070  177.3300  146.6400 C   0  0  0  0  0  3  0  0  0  0  0  0
  184.0720  178.6570  146.2870 C   0  0  0  0  0  1  0  0  0  0  0  0
  188.3260  177.3100  145.5520 C   0  0  0  0  0  3  0  0  0  0  0  0
  187.3240  176.8950  146.4980 N   0  0  0  0  0  0  0  0  0  0  0  0
  185.5140  178.4530  145.8540 C   0  0  2  0  0  3  0  0  0  0  0  0
  188.0800  177.7340  144.3440 N   0  0  0  0  0  0  0  0  0  0  0  0
  185.2590  178.1990  142.3000 C   0  0  0  0  0  0  0  0  0  0  0  0
  184.6350  178.3890  143.4840 N   0  0  0  0  0  2  0  0  0  0  0  0
  186.5710  177.9190  142.4200 N   0  0  0  0  0  0  0  0  0  0  0  0
  186.7930  177.9020  143.7430 C   0  0  0  0  0  0  0  0  0  0  0  0
  189.1690  172.3490  139.4500 C   0  0  0  0  0  2  0  0  0  0  0  0
  188.5490  173.8010  137.9110 C   0  0  0  0  0  1  0  0  0  0  0  0
  188.0380  172.9340  138.8740 O   0  0  0  0  0  0  0  0  0  0  0  0
  1 36  1  6  0  0  0
  1 18  1  0  0  0  0
  1  3  1  0  0  0  0
  2  4  2  0  0  0  0
  3  4  1  0  0  0  0
  4  5  1  0  0  0  0
  5  8  1  1  0  0  0
  6  7  1  0  0  0  0
  7  5  1  0  0  0  0
  8  9  1  0  0  0  0
  9 10  1  0  0  0  0
 10 14  2  0  0  0  0
 11 12  1  0  0  0  0
 12 17  1  0  0  0  0
 13 17  1  0  0  0  0
 13 10  1  0  0  0  0
 15 11  1  0  0  0  0
 15 16  1  0  0  0  0
 16 13  1  0  0  0  0
 18 20  1  0  0  0  0
 20 19  1  1  0  0  0
 21 20  1  0  0  0  0
 22 21  1  0  0  0  0
 22 23  1  0  0  0  0
 23 34  1  0  0  0  0
 24 30  1  0  0  0  0
 25 32  2  0  0  0  0
 28 29  1  0  0  0  0
 29 26  2  0  0  0  0
 30 27  1  1  0  0  0
 30 26  1  0  0  0  0
 31 28  2  0  0  0  0
 32 34  1  0  0  0  0
 32 33  1  0  0  0  0
 33 24  1  0  0  0  0
 34 35  1  0  0  0  0
 35 31  1  0  0  0  0
 35 24  2  0  0  0  0
 37 38  1  0  0  0  0
 38 36  1  0  0  0  0
M  END
>  <MODEL>
8

>  <REMARK>
 VINA RESULT:      -5.9      2.810      8.658
  Name = 
  14 active torsions:
  status: ('A' for Active; 'I' for Inactive)
    1  A    between atoms: C_1  and  C_14
    2  A    between atoms: C_1  and  N_37
    3  A    between atoms: C_2  and  C_5
    4  A    between atoms: C_2  and  N_18
    5  A    between atoms: C_2  and  C_36
    6  A    between atoms: C_5  and  C_21
    7  A    between atoms: C_6  and  C_31
    8  A    between atoms: C_14  and  O_30
    9  A    between atoms: C_16  and  C_25
   10  A    between atoms: C_16  and  C_31
   11  A    between atoms: C_21  and  O_30
   12  A    between atoms: C_25  and  O_29
   13  A    between atoms: C_25  and  C_32
   14  A    between atoms: O_28  and  C_36
                            x       y       z     vdW  Elec       q    Type
                         _______ _______ _______ _____ _____    ______ ____

>  <TORSDO>
F 14

$$$$
=
 OpenBabel11042416233D

 38 40  0  0  1  0  0  0  0  0999 V2000
  187.5650  175.9880  142.1670 C   0  0  2  0  0  3  0  0  0  0  0  0
  189.2610  174.7830  144.1370 O   0  0  0  0  0  0  0  0  0  0  0  0
  188.6340  176.6590  142.8960 N   0  0  0  0  0  2  0  0  0  0  0  0
  189.4540  175.9980  143.8610 C   0  0  0  0  0  0  0  0  0  0  0  0
  190.5060  176.7840  144.5780 C   0  0  1  0  0  3  0  0  0  0  0  0
  191.3980  178.5420  143.7230 O   0  0  0  0  0  1  0  0  0  0  0  0
  190.3190  178.1530  144.3710 O   0  0  0  0  0  0  0  0  0  0  0  0
  190.5840  176.4460  146.0700 C   0  0  0  0  0  2  0  0  0  0  0  0
  189.2160  176.1360  146.6740 C   0  0  0  0  0  2  0  0  0  0  0  0
  188.5480  177.4050  147.1000 C   0  0  0  0  0  0  0  0  0  0  0  0
  184.4030  177.9540  146.4500 N   0  0  0  0  0  2  0  0  0  0  0  0
  185.0810  178.6250  147.5590 C   0  0  0  0  0  2  0  0  0  0  0  0
  187.1760  177.6600  146.7640 N   0  0  0  0  0  0  0  0  0  0  0  0
  189.1960  178.2390  147.7890 O   0  0  0  0  0  0  0  0  0  0  0  0
  185.0160  176.6400  146.2630 C   0  0  0  0  0  2  0  0  0  0  0  0
  186.4660  176.8010  145.8170 C   0  0  0  0  0  2  0  0  0  0  0  0
  186.5350  178.9040  147.1860 C   0  0  0  0  0  2  0  0  0  0  0  0
  188.0710  175.5870  140.7900 C   0  0  0  0  0  2  0  0  0  0  0  0
  188.2400  173.5470  139.5560 O   0  0  0  0  0  1  0  0  0  0  0  0
  188.5580  174.1460  140.7760 C   0  0  1  0  0  3  0  0  0  0  0  0
  189.9420  174.1240  140.9550 O   0  0  0  0  0  0  0  0  0  0  0  0
  190.2050  172.8880  141.5510 C   0  0  0  0  0  2  0  0  0  0  0  0
  191.7040  172.6390  141.6060 C   0  0  0  0  0  2  0  0  0  0  0  0
  193.3470  174.5500  144.2200 C   0  0  0  0  0  0  0  0  0  0  0  0
  191.5440  171.7430  144.3950 O   0  0  0  0  0  0  0  0  0  0  0  0
  195.2610  176.0720  144.0000 C   0  0  0  0  0  3  0  0  0  0  0  0
  194.2940  175.6860  146.2230 C   0  0  0  0  0  1  0  0  0  0  0  0
  194.3170  176.0460  141.7150 C   0  0  0  0  0  3  0  0  0  0  0  0
  195.3460  176.2040  142.7090 N   0  0  0  0  0  0  0  0  0  0  0  0
  193.9930  175.7890  144.7380 C   0  0  2  0  0  3  0  0  0  0  0  0
  193.3150  175.2170  141.8060 N   0  0  0  0  0  0  0  0  0  0  0  0
  192.1800  172.7840  144.0740 C   0  0  0  0  0  0  0  0  0  0  0  0
  192.8040  173.5710  144.9790 N   0  0  0  0  0  2  0  0  0  0  0  0
  192.2780  173.2330  142.8090 N   0  0  0  0  0  0  0  0  0  0  0  0
  193.0240  174.3440  142.9010 C   0  0  0  0  0  0  0  0  0  0  0  0
  186.3400  176.8950  142.0580 C   0  0  0  0  0  2  0  0  0  0  0  0
  185.4250  178.7500  142.8240 C   0  0  0  0  0  1  0  0  0  0  0  0
  186.6510  178.1990  142.4550 O   0  0  0  0  0  0  0  0  0  0  0  0
  1 18  1  6  0  0  0
  1  3  1  0  0  0  0
  3  4  1  0  0  0  0
  4  2  2  0  0  0  0
  4  5  1  0  0  0  0
  5  8  1  1  0  0  0
  6  7  1  0  0  0  0
  7  5  1  0  0  0  0
  8  9  1  0  0  0  0
  9 10  1  0  0  0  0
 10 14  2  0  0  0  0
 11 12  1  0  0  0  0
 13 10  1  0  0  0  0
 13 17  1  0  0  0  0
 15 11  1  0  0  0  0
 16 15  1  0  0  0  0
 16 13  1  0  0  0  0
 17 12  1  0  0  0  0
 20 19  1  6  0  0  0
 20 18  1  0  0  0  0
 20 21  1  0  0  0  0
 21 22  1  0  0  0  0
 22 23  1  0  0  0  0
 23 34  1  0  0  0  0
 24 30  1  0  0  0  0
 24 33  1  0  0  0  0
 26 30  1  0  0  0  0
 28 31  2  0  0  0  0
 28 29  1  0  0  0  0
 29 26  2  0  0  0  0
 30 27  1  1  0  0  0
 31 35  1  0  0  0  0
 32 25  2  0  0  0  0
 32 33  1  0  0  0  0
 34 35  1  0  0  0  0
 34 32  1  0  0  0  0
 35 24  2  0  0  0  0
 36  1  1  0  0  0  0
 36 38  1  0  0  0  0
 38 37  1  0  0  0  0
M  END
>  <MODEL>
9

>  <REMARK>
 VINA RESULT:      -5.9      2.110      5.443
  Name = 
  14 active torsions:
  status: ('A' for Active; 'I' for Inactive)
    1  A    between atoms: C_1  and  C_14
    2  A    between atoms: C_1  and  N_37
    3  A    between atoms: C_2  and  C_5
    4  A    between atoms: C_2  and  N_18
    5  A    between atoms: C_2  and  C_36
    6  A    between atoms: C_5  and  C_21
    7  A    between atoms: C_6  and  C_31
    8  A    between atoms: C_14  and  O_30
    9  A    between atoms: C_16  and  C_25
   10  A    between atoms: C_16  and  C_31
   11  A    between atoms: C_21  and  O_30
   12  A    between atoms: C_25  and  O_29
   13  A    between atoms: C_25  and  C_32
   14  A    between atoms: O_28  and  C_36
                            x       y       z     vdW  Elec       q    Type
                         _______ _______ _______ _____ _____    ______ ____

>  <TORSDO>
F 14

$$$$
