=
 OpenBabel11042418493D

 60 64  0  0  1  0  0  0  0  0999 V2000
  190.1860  176.7440  145.3050 N   0  0  0  0  0  0  0  0  0  0  0  0
  191.8980  175.9810  143.7460 C   0  0  0  0  0  2  0  0  0  0  0  0
  193.1180  176.1010  147.1210 C   0  0  0  0  0  3  0  0  0  0  0  0
  193.3760  175.5910  145.8540 C   0  0  0  0  0  0  0  0  0  0  0  0
  190.5040  176.6580  143.8650 C   0  0  1  0  0  3  0  0  0  0  0  0
  191.8140  176.4680  147.1840 N   0  0  0  0  0  0  0  0  0  0  0  0
  191.2680  177.2740  148.2410 C   0  0  0  0  0  0  0  0  0  0  0  0
  190.3000  178.0500  148.0220 O   0  0  0  0  0  0  0  0  0  0  0  0
  191.8680  177.2340  149.5390 N   0  0  0  0  0  2  0  0  0  0  0  0
  192.1940  175.6390  145.1590 C   0  0  0  0  0  0  0  0  0  0  0  0
  191.2670  176.1290  145.9920 C   0  0  0  0  0  0  0  0  0  0  0  0
  185.9190  179.5710  145.2350 C   0  0  0  0  0  2  0  0  0  0  0  0
  186.9210  176.3190  146.8760 C   0  0  0  0  0  2  0  0  0  0  0  0
  188.2810  175.9440  146.5840 C   0  0  0  0  0  2  0  0  0  0  0  0
  186.6980  178.4050  145.6740 C   0  0  1  0  0  3  0  0  0  0  0  0
  188.8460  176.8810  145.8090 C   0  0  0  0  0  0  0  0  0  0  0  0
  185.6710  178.4820  146.0100 C   0  0  0  0  0  0  0  0  0  0  0  0
  186.7910  177.5570  146.1620 C   0  0  0  0  0  2  0  0  0  0  0  0
  187.9940  178.0350  145.4100 C   0  0  0  0  0  3  0  0  0  0  0  0
  184.3800  178.3090  146.6000 O   0  0  0  0  0  0  0  0  0  0  0  0
  183.1850  178.7820  145.9960 C   0  0  0  0  0  1  0  0  0  0  0  0
  194.6610  175.2400  145.3200 C   0  0  0  0  0  0  0  0  0  0  0  0
  195.7490  174.9850  144.8690 C   0  0  0  0  0  0  0  0  0  0  0  0
  196.9940  174.7290  144.3550 O   0  0  0  0  0  0  0  0  0  0  0  0
  195.7840  173.1490  141.4680 C   0  0  0  0  0  2  0  0  0  0  0  0
  197.6710  175.4610  142.1860 C   0  0  0  0  0  3  0  0  0  0  0  0
  197.2160  174.4910  142.9930 C   0  0  0  0  0  0  0  0  0  0  0  0
  196.2830  173.4960  140.0670 C   0  0  2  0  0  3  0  0  0  0  0  0
  196.6670  174.9780  139.9480 C   0  0  1  0  0  3  0  0  0  0  0  0
  197.9410  175.2740  140.7270 C   0  0  0  0  0  2  0  0  0  0  0  0
  196.9310  173.1190  142.4690 C   0  0  0  0  0  2  0  0  0  0  0  0
  196.8920  175.3080  138.6090 O   0  0  0  0  0  1  0  0  0  0  0  0
  195.1920  173.1380  139.0670 C   0  0  0  0  0  2  0  0  0  0  0  0
  193.8370  173.6280  139.5600 C   0  0  0  0  0  2  0  0  0  0  0  0
  192.8190  172.5390  139.4960 C   0  0  0  0  0  0  0  0  0  0  0  0
  193.1360  171.4060  139.0440 O   0  0  0  0  0  0  0  0  0  0  0  0
  191.5290  172.7640  139.9630 O   0  0  0  0  0  1  0  0  0  0  0  0
  191.3630  178.0280  150.6460 C   0  0  0  0  0  2  0  0  0  0  0  0
  192.1580  177.7110  151.8990 C   0  0  0  0  0  2  0  0  0  0  0  0
  191.4140  177.7850  154.2760 C   0  0  0  0  0  1  0  0  0  0  0  0
  191.2660  177.0680  152.9410 C   0  0  0  0  0  2  0  0  0  0  0  0
  189.4840  175.9110  143.1160 N   0  0  0  0  0  2  0  0  0  0  0  0
  188.9120  176.7290  142.0490 C   0  0  0  0  0  2  0  0  0  0  0  0
  187.5580  176.1720  141.6420 C   0  0  0  0  0  2  0  0  0  0  0  0
  186.7860  177.2050  140.8820 C   0  0  0  0  0  0  0  0  0  0  0  0
  186.7800  177.1760  139.6590 O   0  0  0  0  0  0  0  0  0  0  0  0
  185.9310  178.2150  141.5940 C   0  0  0  0  0  2  0  0  0  0  0  0
  184.8990  177.5550  142.5010 C   0  0  0  0  0  2  0  0  0  0  0  0
  183.5800  178.3190  142.4670 C   0  0  0  0  0  2  0  0  0  0  0  0
  183.2240  178.6430  141.1270 O   0  0  0  0  0  0  0  0  0  0  0  0
  182.2140  177.2480  139.5850 O   0  0  0  0  0  0  0  0  0  0  0  0
  182.0930  178.1150  140.4950 C   0  0  0  0  0  0  0  0  0  0  0  0
  178.2020  179.3840  141.6430 C   0  0  0  0  0  3  0  0  0  0  0  0
  177.9780  177.3500  142.9740 N   0  0  0  0  0  1  0  0  0  0  0  0
  178.9620  180.1850  140.7890 C   0  0  0  0  0  0  0  0  0  0  0  0
  179.9920  177.8010  141.7290 N   0  0  0  0  0  0  0  0  0  0  0  0
  178.4440  181.3830  140.3130 O   0  0  0  0  0  1  0  0  0  0  0  0
  178.7410  178.1810  142.1070 C   0  0  0  0  0  0  0  0  0  0  0  0
  180.7540  178.5670  140.8970 C   0  0  0  0  0  0  0  0  0  0  0  0
  180.2450  179.7790  140.4150 C   0  0  0  0  0  3  0  0  0  0  0  0
  1 16  1  0  0  0  0
  1 11  1  0  0  0  0
  2  5  1  0  0  0  0
  2 10  1  0  0  0  0
  3  6  1  0  0  0  0
  4  3  2  0  0  0  0
  5 42  1  6  0  0  0
  5  1  1  0  0  0  0
  6  7  1  0  0  0  0
  7  9  1  0  0  0  0
  8  7  2  0  0  0  0
  9 38  1  0  0  0  0
 10  4  1  0  0  0  0
 10 11  2  0  0  0  0
 11  6  1  0  0  0  0
 12 17  2  0  0  0  0
 14 13  1  0  0  0  0
 15 17  1  6  0  0  0
 15 18  1  0  0  0  0
 16 14  1  0  0  0  0
 17 20  1  0  0  0  0
 18 13  1  0  0  0  0
 19 15  1  0  0  0  0
 19 16  2  0  0  0  0
 21 20  1  0  0  0  0
 22  4  1  0  0  0  0
 23 22  3  0  0  0  0
 24 23  1  0  0  0  0
 25 31  1  0  0  0  0
 26 27  2  0  0  0  0
 27 24  1  0  0  0  0
 28 33  1  6  0  0  0
 28 25  1  0  0  0  0
 29 32  1  6  0  0  0
 29 28  1  0  0  0  0
 29 30  1  0  0  0  0
 30 26  1  0  0  0  0
 31 27  1  0  0  0  0
 33 34  1  0  0  0  0
 35 34  1  0  0  0  0
 35 37  1  0  0  0  0
 36 35  2  0  0  0  0
 38 39  1  0  0  0  0
 39 41  1  0  0  0  0
 41 40  1  0  0  0  0
 43 42  1  0  0  0  0
 44 43  1  0  0  0  0
 45 47  1  0  0  0  0
 45 44  1  0  0  0  0
 46 45  2  0  0  0  0
 47 48  1  0  0  0  0
 49 48  1  0  0  0  0
 50 49  1  0  0  0  0
 51 52  2  0  0  0  0
 52 59  1  0  0  0  0
 52 50  1  0  0  0  0
 53 58  1  0  0  0  0
 55 53  2  0  0  0  0
 56 58  2  0  0  0  0
 57 55  1  0  0  0  0
 58 54  1  0  0  0  0
 59 56  1  0  0  0  0
 60 55  1  0  0  0  0
 60 59  2  0  0  0  0
M  END
>  <MODEL>
1

>  <REMARK>
 VINA RESULT:      -6.8      0.000      0.000
  Name = 
  21 active torsions:
  status: ('A' for Active; 'I' for Inactive)
    1  A    between atoms: C_1  and  C_32
    2  A    between atoms: C_1  and  C_58
    3  A    between atoms: O_4  and  C_51
    4  A    between atoms: N_5  and  C_15
    5  A    between atoms: N_5  and  C_31
    6  A    between atoms: C_6  and  C_12
    7  A    between atoms: N_7  and  C_42
    8  A    between atoms: O_13  and  C_37
    9  A    between atoms: O_13  and  C_38
   10  A    between atoms: C_14  and  C_59
   11  A    between atoms: C_16  and  O_39
   12  A    between atoms: C_23  and  O_39
   13  A    between atoms: C_24  and  C_33
   14  A    between atoms: C_27  and  C_41
   15  A    between atoms: N_28  and  C_56
   16  A    between atoms: C_31  and  C_58
   17  A    between atoms: C_32  and  C_44
   18  A    between atoms: C_33  and  C_41
   19  A    between atoms: C_37  and  C_53
   20  A    between atoms: C_38  and  C_44
   21  A    between atoms: C_56  and  C_59
                            x       y       z     vdW  Elec       q    Type
                         _______ _______ _______ _____ _____    ______ ____

>  <TORSDO>
F 21

$$$$
=
 OpenBabel11042418493D

 60 64  0  0  1  0  0  0  0  0999 V2000
  189.4810  173.8180  144.2660 N   0  0  0  0  0  0  0  0  0  0  0  0
  189.7300  172.3520  142.3350 C   0  0  0  0  0  2  0  0  0  0  0  0
  188.3590  175.5430  141.4250 C   0  0  0  0  0  3  0  0  0  0  0  0
  188.9630  174.3990  140.9190 C   0  0  0  0  0  0  0  0  0  0  0  0
  189.7270  172.4120  143.8880 C   0  0  1  0  0  3  0  0  0  0  0  0
  188.5990  175.6090  142.7580 N   0  0  0  0  0  0  0  0  0  0  0  0
  187.9080  176.5040  143.6440 C   0  0  0  0  0  0  0  0  0  0  0  0
  187.7050  176.1860  144.8470 O   0  0  0  0  0  0  0  0  0  0  0  0
  187.3980  177.7410  143.1390 N   0  0  0  0  0  2  0  0  0  0  0  0
  189.5920  173.7840  141.9720 C   0  0  0  0  0  0  0  0  0  0  0  0
  189.3930  174.5510  143.0520 C   0  0  0  0  0  0  0  0  0  0  0  0
  192.8030  176.7640  146.8130 C   0  0  0  0  0  2  0  0  0  0  0  0
  189.6530  174.9000  147.7460 C   0  0  0  0  0  2  0  0  0  0  0  0
  189.0780  174.1870  146.6330 C   0  0  0  0  0  2  0  0  0  0  0  0
  191.6030  175.9190  146.7440 C   0  0  1  0  0  3  0  0  0  0  0  0
  189.8420  174.3640  145.5470 C   0  0  0  0  0  0  0  0  0  0  0  0
  191.8480  176.3730  147.6970 C   0  0  0  0  0  0  0  0  0  0  0  0
  190.8110  175.5030  147.1500 C   0  0  0  0  0  2  0  0  0  0  0  0
  191.0450  175.2290  145.6970 C   0  0  0  0  0  3  0  0  0  0  0  0
  191.9080  176.8240  149.0530 O   0  0  0  0  0  0  0  0  0  0  0  0
  191.4460  178.1020  149.4630 C   0  0  0  0  0  1  0  0  0  0  0  0
  188.8200  173.8730  139.5920 C   0  0  0  0  0  0  0  0  0  0  0  0
  188.7410  173.4250  138.4750 C   0  0  0  0  0  0  0  0  0  0  0  0
  188.6860  172.9130  137.2050 O   0  0  0  0  0  0  0  0  0  0  0  0
  191.2630  174.8790  135.8670 C   0  0  0  0  0  2  0  0  0  0  0  0
  190.6220  171.9010  136.2430 C   0  0  0  0  0  3  0  0  0  0  0  0
  189.7780  172.9390  136.3300 C   0  0  0  0  0  0  0  0  0  0  0  0
  192.4590  174.2810  135.1300 C   0  0  2  0  0  3  0  0  0  0  0  0
  192.8450  172.9040  135.6890 C   0  0  1  0  0  3  0  0  0  0  0  0
  191.8010  171.8580  135.3230 C   0  0  0  0  0  2  0  0  0  0  0  0
  189.9720  174.1650  135.4930 C   0  0  0  0  0  2  0  0  0  0  0  0
  194.0700  172.4970  135.1560 O   0  0  0  0  0  1  0  0  0  0  0  0
  193.6250  175.2540  135.2400 C   0  0  0  0  0  2  0  0  0  0  0  0
  193.1580  176.5800  135.8240 C   0  0  0  0  0  2  0  0  0  0  0  0
  193.8340  177.7290  135.1520 C   0  0  0  0  0  0  0  0  0  0  0  0
  195.0480  177.6410  134.8250 O   0  0  0  0  0  0  0  0  0  0  0  0
  193.1170  178.8830  134.8580 O   0  0  0  0  0  1  0  0  0  0  0  0
  186.6890  178.6850  143.9860 C   0  0  0  0  0  2  0  0  0  0  0  0
  185.2000  178.4010  143.9210 C   0  0  0  0  0  2  0  0  0  0  0  0
  183.9180  178.8120  146.0190 C   0  0  0  0  0  1  0  0  0  0  0  0
  184.7210  177.7920  145.2230 C   0  0  0  0  0  2  0  0  0  0  0  0
  190.9890  171.9020  144.4420 N   0  0  0  0  0  2  0  0  0  0  0  0
  191.9860  171.7130  143.3900 C   0  0  0  0  0  2  0  0  0  0  0  0
  193.3650  171.5590  144.0090 C   0  0  0  0  0  2  0  0  0  0  0  0
  193.8670  172.8890  144.4790 C   0  0  0  0  0  0  0  0  0  0  0  0
  193.8720  173.1430  145.6750 O   0  0  0  0  0  0  0  0  0  0  0  0
  194.4640  173.8770  143.5170 C   0  0  0  0  0  2  0  0  0  0  0  0
  193.5630  175.0880  143.3070 C   0  0  0  0  0  2  0  0  0  0  0  0
  193.6740  175.6050  141.8770 C   0  0  0  0  0  2  0  0  0  0  0  0
  192.7690  174.9130  141.0240 O   0  0  0  0  0  0  0  0  0  0  0  0
  193.5940  174.7420  138.8710 O   0  0  0  0  0  0  0  0  0  0  0  0
  193.1890  174.1650  139.9190 C   0  0  0  0  0  0  0  0  0  0  0  0
  193.1600  169.9170  140.0710 C   0  0  0  0  0  3  0  0  0  0  0  0
  195.4230  169.9770  140.9820 N   0  0  0  0  0  1  0  0  0  0  0  0
  192.0380  170.5960  139.5920 C   0  0  0  0  0  0  0  0  0  0  0  0
  194.2510  172.0130  140.4430 N   0  0  0  0  0  0  0  0  0  0  0  0
  190.9260  169.8840  139.1600 O   0  0  0  0  0  1  0  0  0  0  0  0
  194.2700  170.6530  140.4960 C   0  0  0  0  0  0  0  0  0  0  0  0
  193.1660  172.6970  139.9790 C   0  0  0  0  0  0  0  0  0  0  0  0
  192.0370  171.9910  139.5470 C   0  0  0  0  0  3  0  0  0  0  0  0
  1 16  1  0  0  0  0
  2  5  1  0  0  0  0
  3  6  1  0  0  0  0
  4  3  2  0  0  0  0
  4 10  1  0  0  0  0
  5  1  1  0  0  0  0
  5 42  1  6  0  0  0
  6 11  1  0  0  0  0
  6  7  1  0  0  0  0
  7  8  2  0  0  0  0
  9  7  1  0  0  0  0
  9 38  1  0  0  0  0
 10  2  1  0  0  0  0
 10 11  2  0  0  0  0
 11  1  1  0  0  0  0
 12 17  2  0  0  0  0
 14 13  1  0  0  0  0
 15 18  1  0  0  0  0
 15 17  1  6  0  0  0
 16 19  2  0  0  0  0
 16 14  1  0  0  0  0
 17 20  1  0  0  0  0
 18 13  1  0  0  0  0
 19 15  1  0  0  0  0
 20 21  1  0  0  0  0
 22  4  1  0  0  0  0
 23 22  3  0  0  0  0
 24 23  1  0  0  0  0
 26 27  2  0  0  0  0
 27 24  1  0  0  0  0
 28 33  1  1  0  0  0
 28 29  1  0  0  0  0
 28 25  1  0  0  0  0
 29 32  1  6  0  0  0
 30 29  1  0  0  0  0
 30 26  1  0  0  0  0
 31 25  1  0  0  0  0
 31 27  1  0  0  0  0
 33 34  1  0  0  0  0
 35 34  1  0  0  0  0
 36 35  2  0  0  0  0
 37 35  1  0  0  0  0
 39 38  1  0  0  0  0
 39 41  1  0  0  0  0
 41 40  1  0  0  0  0
 43 44  1  0  0  0  0
 43 42  1  0  0  0  0
 44 45  1  0  0  0  0
 45 46  2  0  0  0  0
 47 45  1  0  0  0  0
 48 47  1  0  0  0  0
 49 48  1  0  0  0  0
 50 49  1  0  0  0  0
 51 52  2  0  0  0  0
 52 59  1  0  0  0  0
 52 50  1  0  0  0  0
 53 58  1  0  0  0  0
 55 53  2  0  0  0  0
 56 58  2  0  0  0  0
 57 55  1  0  0  0  0
 58 54  1  0  0  0  0
 59 56  1  0  0  0  0
 60 55  1  0  0  0  0
 60 59  2  0  0  0  0
M  END
>  <MODEL>
2

>  <REMARK>
 VINA RESULT:      -6.7      4.078      9.350
  Name = 
  21 active torsions:
  status: ('A' for Active; 'I' for Inactive)
    1  A    between atoms: C_1  and  C_32
    2  A    between atoms: C_1  and  C_58
    3  A    between atoms: O_4  and  C_51
    4  A    between atoms: N_5  and  C_15
    5  A    between atoms: N_5  and  C_31
    6  A    between atoms: C_6  and  C_12
    7  A    between atoms: N_7  and  C_42
    8  A    between atoms: O_13  and  C_37
    9  A    between atoms: O_13  and  C_38
   10  A    between atoms: C_14  and  C_59
   11  A    between atoms: C_16  and  O_39
   12  A    between atoms: C_23  and  O_39
   13  A    between atoms: C_24  and  C_33
   14  A    between atoms: C_27  and  C_41
   15  A    between atoms: N_28  and  C_56
   16  A    between atoms: C_31  and  C_58
   17  A    between atoms: C_32  and  C_44
   18  A    between atoms: C_33  and  C_41
   19  A    between atoms: C_37  and  C_53
   20  A    between atoms: C_38  and  C_44
   21  A    between atoms: C_56  and  C_59
                            x       y       z     vdW  Elec       q    Type
                         _______ _______ _______ _____ _____    ______ ____

>  <TORSDO>
F 21

$$$$
=
 OpenBabel11042418493D

 60 64  0  0  1  0  0  0  0  0999 V2000
  192.9680  173.3480  143.2390 N   0  0  0  0  0  0  0  0  0  0  0  0
  191.8500  175.4600  142.7560 C   0  0  0  0  0  2  0  0  0  0  0  0
  189.9300  172.6420  141.6340 C   0  0  0  0  0  3  0  0  0  0  0  0
  189.8630  174.0010  141.9190 C   0  0  0  0  0  0  0  0  0  0  0  0
  193.1950  174.8070  143.1810 C   0  0  1  0  0  3  0  0  0  0  0  0
  191.0320  172.1260  142.2320 N   0  0  0  0  0  0  0  0  0  0  0  0
  191.5570  170.8230  141.9340 C   0  0  0  0  0  0  0  0  0  0  0  0
  192.7930  170.5940  142.0230 O   0  0  0  0  0  0  0  0  0  0  0  0
  190.6740  169.7940  141.4790 N   0  0  0  0  0  2  0  0  0  0  0  0
  190.9390  174.2910  142.7200 C   0  0  0  0  0  0  0  0  0  0  0  0
  191.5980  173.1430  142.9260 C   0  0  0  0  0  0  0  0  0  0  0  0
  197.7190  171.6030  144.0020 C   0  0  0  0  0  2  0  0  0  0  0  0
  194.3720  170.9900  145.6420 C   0  0  0  0  0  2  0  0  0  0  0  0
  193.3060  171.7400  145.0270 C   0  0  0  0  0  2  0  0  0  0  0  0
  196.2850  171.6480  144.3180 C   0  0  1  0  0  3  0  0  0  0  0  0
  193.7940  172.4530  144.0030 C   0  0  0  0  0  0  0  0  0  0  0  0
  196.9170  171.0140  144.9270 C   0  0  0  0  0  0  0  0  0  0  0  0
  195.5060  171.3810  144.8540 C   0  0  0  0  0  2  0  0  0  0  0  0
  195.2560  172.3510  143.7420 C   0  0  0  0  0  3  0  0  0  0  0  0
  197.4800  170.1110  145.8830 O   0  0  0  0  0  0  0  0  0  0  0  0
  197.6450  168.7240  145.6320 C   0  0  0  0  0  1  0  0  0  0  0  0
  188.9470  174.9490  141.3530 C   0  0  0  0  0  0  0  0  0  0  0  0
  188.1910  175.7340  140.8390 C   0  0  0  0  0  0  0  0  0  0  0  0
  187.3420  176.6180  140.2240 O   0  0  0  0  0  0  0  0  0  0  0  0
  184.0580  177.7760  140.6380 C   0  0  0  0  0  2  0  0  0  0  0  0
  186.6650  177.6700  142.2560 C   0  0  0  0  0  3  0  0  0  0  0  0
  186.5090  177.4890  140.9370 C   0  0  0  0  0  0  0  0  0  0  0  0
  183.6110  178.5670  141.8660 C   0  0  2  0  0  3  0  0  0  0  0  0
  184.3680  178.1350  143.1300 C   0  0  1  0  0  3  0  0  0  0  0  0
  185.8190  178.5920  143.0770 C   0  0  0  0  0  2  0  0  0  0  0  0
  185.4420  178.2120  140.1770 C   0  0  0  0  0  2  0  0  0  0  0  0
  183.7770  178.7040  144.2600 O   0  0  0  0  0  1  0  0  0  0  0  0
  182.1110  178.3710  142.0410 C   0  0  0  0  0  2  0  0  0  0  0  0
  181.3430  179.2160  141.0340 C   0  0  0  0  0  2  0  0  0  0  0  0
  179.9090  178.8060  140.9760 C   0  0  0  0  0  0  0  0  0  0  0  0
  179.0740  179.3260  141.7630 O   0  0  0  0  0  1  0  0  0  0  0  0
  179.4880  177.8750  140.0330 O   0  0  0  0  0  0  0  0  0  0  0  0
  191.1470  168.4580  141.1590 C   0  0  0  0  0  2  0  0  0  0  0  0
  190.8820  168.1660  139.6940 C   0  0  0  0  0  2  0  0  0  0  0  0
  191.4990  168.7970  137.3630 C   0  0  0  0  0  1  0  0  0  0  0  0
  191.9250  168.8370  138.8240 C   0  0  0  0  0  2  0  0  0  0  0  0
  193.6660  175.3450  144.4650 N   0  0  0  0  0  2  0  0  0  0  0  0
  192.7950  176.4220  144.9330 C   0  0  0  0  0  2  0  0  0  0  0  0
  193.1240  176.7580  146.3780 C   0  0  0  0  0  2  0  0  0  0  0  0
  191.9630  176.4180  147.2600 C   0  0  0  0  0  0  0  0  0  0  0  0
  191.3430  177.3160  147.8140 O   0  0  0  0  0  0  0  0  0  0  0  0
  191.4770  175.0030  147.3930 C   0  0  0  0  0  2  0  0  0  0  0  0
  189.9630  174.9010  147.2590 C   0  0  0  0  0  2  0  0  0  0  0  0
  189.5780  174.2260  145.9470 C   0  0  0  0  0  2  0  0  0  0  0  0
  188.9300  175.1500  145.0800 O   0  0  0  0  0  0  0  0  0  0  0  0
  189.7360  177.3080  144.8790 O   0  0  0  0  0  0  0  0  0  0  0  0
  188.8650  176.5220  145.3470 C   0  0  0  0  0  0  0  0  0  0  0  0
  185.7280  178.0510  147.7740 C   0  0  0  0  0  3  0  0  0  0  0  0
  187.3470  179.5090  148.8740 N   0  0  0  0  0  1  0  0  0  0  0  0
  185.4450  177.0700  146.8220 C   0  0  0  0  0  0  0  0  0  0  0  0
  188.0250  178.0120  147.1100 N   0  0  0  0  0  0  0  0  0  0  0  0
  184.1480  176.5930  146.6780 O   0  0  0  0  0  1  0  0  0  0  0  0
  187.0400  178.5140  147.9050 C   0  0  0  0  0  0  0  0  0  0  0  0
  187.7730  177.0540  146.1740 C   0  0  0  0  0  0  0  0  0  0  0  0
  186.4690  176.5690  146.0150 C   0  0  0  0  0  3  0  0  0  0  0  0
  1 16  1  0  0  0  0
  2  5  1  0  0  0  0
  3  4  2  0  0  0  0
  3  6  1  0  0  0  0
  4 10  1  0  0  0  0
  5  1  1  0  0  0  0
  5 42  1  1  0  0  0
  6 11  1  0  0  0  0
  7  8  2  0  0  0  0
  7  6  1  0  0  0  0
  9  7  1  0  0  0  0
 10  2  1  0  0  0  0
 10 11  2  0  0  0  0
 11  1  1  0  0  0  0
 12 17  2  0  0  0  0
 14 13  1  0  0  0  0
 15 18  1  0  0  0  0
 15 17  1  1  0  0  0
 16 14  1  0  0  0  0
 17 20  1  0  0  0  0
 18 13  1  0  0  0  0
 19 16  2  0  0  0  0
 19 15  1  0  0  0  0
 21 20  1  0  0  0  0
 22  4  1  0  0  0  0
 23 22  3  0  0  0  0
 24 23  1  0  0  0  0
 24 27  1  0  0  0  0
 25 28  1  0  0  0  0
 26 30  1  0  0  0  0
 27 26  2  0  0  0  0
 28 33  1  1  0  0  0
 28 29  1  0  0  0  0
 29 32  1  1  0  0  0
 30 29  1  0  0  0  0
 31 25  1  0  0  0  0
 31 27  1  0  0  0  0
 34 33  1  0  0  0  0
 35 34  1  0  0  0  0
 35 36  1  0  0  0  0
 37 35  2  0  0  0  0
 38  9  1  0  0  0  0
 39 38  1  0  0  0  0
 40 41  1  0  0  0  0
 41 39  1  0  0  0  0
 42 43  1  0  0  0  0
 43 44  1  0  0  0  0
 44 45  1  0  0  0  0
 45 47  1  0  0  0  0
 45 46  2  0  0  0  0
 48 47  1  0  0  0  0
 49 48  1  0  0  0  0
 50 52  1  0  0  0  0
 50 49  1  0  0  0  0
 51 52  2  0  0  0  0
 52 59  1  0  0  0  0
 53 58  1  0  0  0  0
 55 53  2  0  0  0  0
 56 58  2  0  0  0  0
 57 55  1  0  0  0  0
 58 54  1  0  0  0  0
 59 56  1  0  0  0  0
 60 59  2  0  0  0  0
 60 55  1  0  0  0  0
M  END
>  <MODEL>
3

>  <REMARK>
 VINA RESULT:      -6.7      3.518     10.826
  Name = 
  21 active torsions:
  status: ('A' for Active; 'I' for Inactive)
    1  A    between atoms: C_1  and  C_32
    2  A    between atoms: C_1  and  C_58
    3  A    between atoms: O_4  and  C_51
    4  A    between atoms: N_5  and  C_15
    5  A    between atoms: N_5  and  C_31
    6  A    between atoms: C_6  and  C_12
    7  A    between atoms: N_7  and  C_42
    8  A    between atoms: O_13  and  C_37
    9  A    between atoms: O_13  and  C_38
   10  A    between atoms: C_14  and  C_59
   11  A    between atoms: C_16  and  O_39
   12  A    between atoms: C_23  and  O_39
   13  A    between atoms: C_24  and  C_33
   14  A    between atoms: C_27  and  C_41
   15  A    between atoms: N_28  and  C_56
   16  A    between atoms: C_31  and  C_58
   17  A    between atoms: C_32  and  C_44
   18  A    between atoms: C_33  and  C_41
   19  A    between atoms: C_37  and  C_53
   20  A    between atoms: C_38  and  C_44
   21  A    between atoms: C_56  and  C_59
                            x       y       z     vdW  Elec       q    Type
                         _______ _______ _______ _____ _____    ______ ____

>  <TORSDO>
F 21

$$$$
=
 OpenBabel11042418493D

 60 64  0  0  1  0  0  0  0  0999 V2000
  188.4050  175.2550  142.9260 N   0  0  0  0  0  0  0  0  0  0  0  0
  189.4100  173.4350  141.6530 C   0  0  0  0  0  2  0  0  0  0  0  0
  187.4610  175.6110  139.5670 C   0  0  0  0  0  3  0  0  0  0  0  0
  188.4330  174.6180  139.5490 C   0  0  0  0  0  0  0  0  0  0  0  0
  189.0820  173.9510  143.0820 C   0  0  1  0  0  3  0  0  0  0  0  0
  187.4040  176.1430  140.8130 N   0  0  0  0  0  0  0  0  0  0  0  0
  186.3410  176.9980  141.2620 C   0  0  0  0  0  0  0  0  0  0  0  0
  185.9930  177.0070  142.4730 O   0  0  0  0  0  0  0  0  0  0  0  0
  185.6360  177.8030  140.3120 N   0  0  0  0  0  2  0  0  0  0  0  0
  188.9770  174.5740  140.8090 C   0  0  0  0  0  0  0  0  0  0  0  0
  188.3730  175.5260  141.5320 C   0  0  0  0  0  0  0  0  0  0  0  0
  185.9490  176.8010  147.1420 C   0  0  0  0  0  2  0  0  0  0  0  0
  188.9990  177.9940  145.2600 C   0  0  0  0  0  2  0  0  0  0  0  0
  189.2780  177.1990  144.0920 C   0  0  0  0  0  2  0  0  0  0  0  0
  187.0180  176.9260  146.1420 C   0  0  1  0  0  3  0  0  0  0  0  0
  188.3480  176.2420  143.9710 C   0  0  0  0  0  0  0  0  0  0  0  0
  187.0040  177.6370  146.9580 C   0  0  0  0  0  0  0  0  0  0  0  0
  187.8220  177.3590  145.7810 C   0  0  0  0  0  2  0  0  0  0  0  0
  187.2950  176.1830  145.0210 C   0  0  0  0  0  3  0  0  0  0  0  0
  187.2460  178.6920  147.8930 O   0  0  0  0  0  0  0  0  0  0  0  0
  186.3160  179.7380  148.1360 C   0  0  0  0  0  1  0  0  0  0  0  0
  188.7000  173.7020  138.4780 C   0  0  0  0  0  0  0  0  0  0  0  0
  188.9650  172.9440  137.5790 C   0  0  0  0  0  0  0  0  0  0  0  0
  189.3000  172.0910  136.5600 O   0  0  0  0  0  0  0  0  0  0  0  0
  192.5100  171.8120  137.9430 C   0  0  0  0  0  2  0  0  0  0  0  0
  190.5380  170.0590  136.3750 C   0  0  0  0  0  3  0  0  0  0  0  0
  190.5120  171.3910  136.5260 C   0  0  0  0  0  0  0  0  0  0  0  0
  193.3910  170.5800  137.7440 C   0  0  2  0  0  3  0  0  0  0  0  0
  192.5580  169.2940  137.6360 C   0  0  1  0  0  3  0  0  0  0  0  0
  191.7960  169.2490  136.3190 C   0  0  0  0  0  2  0  0  0  0  0  0
  191.7770  172.1790  136.6600 C   0  0  0  0  0  2  0  0  0  0  0  0
  193.3950  168.1770  137.6900 O   0  0  0  0  0  1  0  0  0  0  0  0
  194.3670  170.4960  138.9090 C   0  0  0  0  0  2  0  0  0  0  0  0
  193.6320  170.6530  140.2320 C   0  0  0  0  0  2  0  0  0  0  0  0
  193.8820  169.4830  141.1250 C   0  0  0  0  0  0  0  0  0  0  0  0
  194.9160  169.4500  141.8450 O   0  0  0  0  0  1  0  0  0  0  0  0
  192.9600  168.4450  141.1870 O   0  0  0  0  0  0  0  0  0  0  0  0
  184.5510  178.6840  140.7060 C   0  0  0  0  0  2  0  0  0  0  0  0
  183.2230  178.0320  140.3670 C   0  0  0  0  0  2  0  0  0  0  0  0
  180.7700  178.0250  140.8080 C   0  0  0  0  0  1  0  0  0  0  0  0
  182.0970  178.6970  141.1330 C   0  0  0  0  0  2  0  0  0  0  0  0
  190.2960  174.0520  143.9040 N   0  0  0  0  0  2  0  0  0  0  0  0
  190.0410  173.6120  145.2740 C   0  0  0  0  0  2  0  0  0  0  0  0
  191.1820  174.0510  146.1760 C   0  0  0  0  0  2  0  0  0  0  0  0
  190.7520  175.2120  147.0180 C   0  0  0  0  0  0  0  0  0  0  0  0
  189.6950  175.1550  147.6300 O   0  0  0  0  0  0  0  0  0  0  0  0
  191.6440  176.4060  147.2100 C   0  0  0  0  0  2  0  0  0  0  0  0
  192.6350  176.5710  146.0640 C   0  0  0  0  0  2  0  0  0  0  0  0
  194.0700  176.4480  146.5650 C   0  0  0  0  0  2  0  0  0  0  0  0
  194.9800  176.4050  145.4700 O   0  0  0  0  0  0  0  0  0  0  0  0
  194.7320  175.9520  143.2170 O   0  0  0  0  0  0  0  0  0  0  0  0
  194.8350  175.5180  144.3990 C   0  0  0  0  0  0  0  0  0  0  0  0
  194.7180  171.3330  145.1370 C   0  0  0  0  0  3  0  0  0  0  0  0
  192.5990  171.2230  143.9310 N   0  0  0  0  0  1  0  0  0  0  0  0
  195.7920  172.0860  145.6140 C   0  0  0  0  0  0  0  0  0  0  0  0
  193.7690  173.3140  144.1920 N   0  0  0  0  0  0  0  0  0  0  0  0
  196.8090  171.4690  146.3330 O   0  0  0  0  0  1  0  0  0  0  0  0
  193.7030  171.9740  144.4200 C   0  0  0  0  0  0  0  0  0  0  0  0
  194.8080  174.0700  144.6480 C   0  0  0  0  0  0  0  0  0  0  0  0
  195.8420  173.4590  145.3680 C   0  0  0  0  0  3  0  0  0  0  0  0
  1  5  1  0  0  0  0
  1 16  1  0  0  0  0
  2  5  1  0  0  0  0
  3  6  1  0  0  0  0
  4  3  2  0  0  0  0
  4 10  1  0  0  0  0
  5 42  1  1  0  0  0
  6  7  1  0  0  0  0
  6 11  1  0  0  0  0
  7  8  2  0  0  0  0
  9 38  1  0  0  0  0
  9  7  1  0  0  0  0
 10 11  2  0  0  0  0
 10  2  1  0  0  0  0
 11  1  1  0  0  0  0
 13 18  1  0  0  0  0
 14 13  1  0  0  0  0
 15 17  1  1  0  0  0
 16 14  1  0  0  0  0
 16 19  2  0  0  0  0
 17 12  2  0  0  0  0
 17 20  1  0  0  0  0
 18 15  1  0  0  0  0
 19 15  1  0  0  0  0
 20 21  1  0  0  0  0
 22  4  1  0  0  0  0
 23 22  3  0  0  0  0
 24 23  1  0  0  0  0
 26 27  2  0  0  0  0
 27 24  1  0  0  0  0
 27 31  1  0  0  0  0
 28 25  1  0  0  0  0
 28 33  1  1  0  0  0
 29 32  1  6  0  0  0
 29 28  1  0  0  0  0
 30 26  1  0  0  0  0
 30 29  1  0  0  0  0
 31 25  1  0  0  0  0
 33 34  1  0  0  0  0
 34 35  1  0  0  0  0
 35 37  2  0  0  0  0
 35 36  1  0  0  0  0
 39 38  1  0  0  0  0
 39 41  1  0  0  0  0
 40 41  1  0  0  0  0
 42 43  1  0  0  0  0
 43 44  1  0  0  0  0
 44 45  1  0  0  0  0
 45 47  1  0  0  0  0
 45 46  2  0  0  0  0
 48 49  1  0  0  0  0
 48 47  1  0  0  0  0
 50 49  1  0  0  0  0
 51 52  2  0  0  0  0
 52 59  1  0  0  0  0
 52 50  1  0  0  0  0
 53 55  1  0  0  0  0
 54 58  1  0  0  0  0
 55 57  1  0  0  0  0
 56 58  1  0  0  0  0
 56 59  2  0  0  0  0
 58 53  2  0  0  0  0
 59 60  1  0  0  0  0
 60 55  2  0  0  0  0
M  END
>  <MODEL>
4

>  <REMARK>
 VINA RESULT:      -6.6      3.461      9.898
  Name = 
  21 active torsions:
  status: ('A' for Active; 'I' for Inactive)
    1  A    between atoms: C_1  and  C_32
    2  A    between atoms: C_1  and  C_58
    3  A    between atoms: O_4  and  C_51
    4  A    between atoms: N_5  and  C_15
    5  A    between atoms: N_5  and  C_31
    6  A    between atoms: C_6  and  C_12
    7  A    between atoms: N_7  and  C_42
    8  A    between atoms: O_13  and  C_37
    9  A    between atoms: O_13  and  C_38
   10  A    between atoms: C_14  and  C_59
   11  A    between atoms: C_16  and  O_39
   12  A    between atoms: C_23  and  O_39
   13  A    between atoms: C_24  and  C_33
   14  A    between atoms: C_27  and  C_41
   15  A    between atoms: N_28  and  C_56
   16  A    between atoms: C_31  and  C_58
   17  A    between atoms: C_32  and  C_44
   18  A    between atoms: C_33  and  C_41
   19  A    between atoms: C_37  and  C_53
   20  A    between atoms: C_38  and  C_44
   21  A    between atoms: C_56  and  C_59
                            x       y       z     vdW  Elec       q    Type
                         _______ _______ _______ _____ _____    ______ ____

>  <TORSDO>
F 21

$$$$
=
 OpenBabel11042418493D

 60 64  0  0  1  0  0  0  0  0999 V2000
  192.6730  172.8440  143.3770 N   0  0  0  0  0  0  0  0  0  0  0  0
  191.3620  174.8780  143.6700 C   0  0  0  0  0  2  0  0  0  0  0  0
  190.2110  172.9340  140.8800 C   0  0  0  0  0  3  0  0  0  0  0  0
  189.8660  173.9670  141.7430 C   0  0  0  0  0  0  0  0  0  0  0  0
  192.6690  174.1440  144.0790 C   0  0  1  0  0  3  0  0  0  0  0  0
  191.2250  172.2240  141.4330 N   0  0  0  0  0  0  0  0  0  0  0  0
  192.0050  171.2610  140.7090 C   0  0  0  0  0  0  0  0  0  0  0  0
  193.2130  171.0580  141.0070 O   0  0  0  0  0  0  0  0  0  0  0  0
  191.4190  170.5670  139.6030 N   0  0  0  0  0  2  0  0  0  0  0  0
  190.6810  173.8540  142.8420 C   0  0  0  0  0  0  0  0  0  0  0  0
  191.4550  172.7780  142.6490 C   0  0  0  0  0  0  0  0  0  0  0  0
  197.3720  171.0710  144.3650 C   0  0  0  0  0  2  0  0  0  0  0  0
  193.8820  169.6610  144.6850 C   0  0  0  0  0  2  0  0  0  0  0  0
  192.8670  170.5850  144.2480 C   0  0  0  0  0  2  0  0  0  0  0  0
  195.9110  170.9220  144.3130 C   0  0  1  0  0  3  0  0  0  0  0  0
  193.4450  171.7140  143.8170 C   0  0  0  0  0  0  0  0  0  0  0  0
  196.4910  170.0900  144.6940 C   0  0  0  0  0  0  0  0  0  0  0  0
  195.0860  170.4110  144.4620 C   0  0  0  0  0  2  0  0  0  0  0  0
  194.9310  171.7880  143.8960 C   0  0  0  0  0  3  0  0  0  0  0  0
  196.9720  168.8550  145.2320 O   0  0  0  0  0  0  0  0  0  0  0  0
  197.4230  168.7200  146.5710 C   0  0  0  0  0  1  0  0  0  0  0  0
  188.9550  175.0410  141.4700 C   0  0  0  0  0  0  0  0  0  0  0  0
  188.1570  175.9160  141.2440 C   0  0  0  0  0  0  0  0  0  0  0  0
  187.2250  176.8890  140.9920 O   0  0  0  0  0  0  0  0  0  0  0  0
  186.0840  177.3290  144.2790 C   0  0  0  0  0  2  0  0  0  0  0  0
  185.1120  177.9100  141.4260 C   0  0  0  0  0  3  0  0  0  0  0  0
  186.1020  177.0900  141.8050 C   0  0  0  0  0  0  0  0  0  0  0  0
  184.6890  177.8600  144.6040 C   0  0  2  0  0  3  0  0  0  0  0  0
  184.2000  178.8650  143.5500 C   0  0  1  0  0  3  0  0  0  0  0  0
  183.8800  178.1630  142.2380 C   0  0  0  0  0  2  0  0  0  0  0  0
  186.0440  176.3570  143.1080 C   0  0  0  0  0  2  0  0  0  0  0  0
  183.0380  179.4980  143.9960 O   0  0  0  0  0  1  0  0  0  0  0  0
  184.7300  178.5020  145.9840 C   0  0  0  0  0  2  0  0  0  0  0  0
  186.1650  178.8220  146.3790 C   0  0  0  0  0  2  0  0  0  0  0  0
  186.4260  178.4430  147.7990 C   0  0  0  0  0  0  0  0  0  0  0  0
  186.9940  179.2580  148.5740 O   0  0  0  0  0  1  0  0  0  0  0  0
  186.0150  177.2030  148.2750 O   0  0  0  0  0  0  0  0  0  0  0  0
  192.1600  169.5850  138.8300 C   0  0  0  0  0  2  0  0  0  0  0  0
  191.2410  168.9570  137.7990 C   0  0  0  0  0  2  0  0  0  0  0  0
  191.5330  169.1230  135.3290 C   0  0  0  0  0  1  0  0  0  0  0  0
  192.0400  168.4690  136.6070 C   0  0  0  0  0  2  0  0  0  0  0  0
  192.7560  173.9850  145.5370 N   0  0  0  0  0  2  0  0  0  0  0  0
  193.4930  175.0930  146.1430 C   0  0  0  0  0  2  0  0  0  0  0  0
  194.4570  175.6840  145.1280 C   0  0  0  0  0  2  0  0  0  0  0  0
  195.7930  175.0180  145.2430 C   0  0  0  0  0  0  0  0  0  0  0  0
  196.1220  174.5030  146.3020 O   0  0  0  0  0  0  0  0  0  0  0  0
  196.6950  174.8760  144.0490 C   0  0  0  0  0  2  0  0  0  0  0  0
  196.0990  175.5150  142.8010 C   0  0  0  0  0  2  0  0  0  0  0  0
  196.4500  174.7070  141.5570 C   0  0  0  0  0  2  0  0  0  0  0  0
  195.3520  173.8890  141.1660 O   0  0  0  0  0  0  0  0  0  0  0  0
  193.3180  174.8200  140.5800 O   0  0  0  0  0  0  0  0  0  0  0  0
  194.4070  174.2930  140.2170 C   0  0  0  0  0  0  0  0  0  0  0  0
  195.2260  173.7210  136.0850 C   0  0  0  0  0  3  0  0  0  0  0  0
  193.9020  171.6720  136.1500 N   0  0  0  0  0  1  0  0  0  0  0  0
  195.7480  174.8370  136.7410 C   0  0  0  0  0  0  0  0  0  0  0  0
  194.1860  173.0270  138.1230 N   0  0  0  0  0  0  0  0  0  0  0  0
  196.5370  175.7460  136.0480 O   0  0  0  0  0  1  0  0  0  0  0  0
  194.4380  172.8170  136.8020 C   0  0  0  0  0  0  0  0  0  0  0  0
  194.6850  174.1090  138.7850 C   0  0  0  0  0  0  0  0  0  0  0  0
  195.4760  175.0360  138.0960 C   0  0  0  0  0  3  0  0  0  0  0  0
  1 16  1  0  0  0  0
  1  5  1  0  0  0  0
  2  5  1  0  0  0  0
  3  6  1  0  0  0  0
  3  4  2  0  0  0  0
  4 10  1  0  0  0  0
  5 42  1  1  0  0  0
  6 11  1  0  0  0  0
  7  8  2  0  0  0  0
  7  6  1  0  0  0  0
  9  7  1  0  0  0  0
 10  2  1  0  0  0  0
 11 10  2  0  0  0  0
 11  1  1  0  0  0  0
 12 17  2  0  0  0  0
 14 13  1  0  0  0  0
 15 18  1  0  0  0  0
 15 17  1  1  0  0  0
 16 19  2  0  0  0  0
 16 14  1  0  0  0  0
 17 20  1  0  0  0  0
 18 13  1  0  0  0  0
 19 15  1  0  0  0  0
 20 21  1  0  0  0  0
 22  4  1  0  0  0  0
 23 22  3  0  0  0  0
 24 23  1  0  0  0  0
 24 27  1  0  0  0  0
 25 28  1  0  0  0  0
 26 27  2  0  0  0  0
 26 30  1  0  0  0  0
 27 31  1  0  0  0  0
 28 33  1  1  0  0  0
 29 32  1  1  0  0  0
 29 28  1  0  0  0  0
 30 29  1  0  0  0  0
 31 25  1  0  0  0  0
 33 34  1  0  0  0  0
 34 35  1  0  0  0  0
 35 37  2  0  0  0  0
 35 36  1  0  0  0  0
 38  9  1  0  0  0  0
 39 38  1  0  0  0  0
 40 41  1  0  0  0  0
 41 39  1  0  0  0  0
 42 43  1  0  0  0  0
 44 45  1  0  0  0  0
 44 43  1  0  0  0  0
 45 46  2  0  0  0  0
 47 45  1  0  0  0  0
 48 47  1  0  0  0  0
 49 48  1  0  0  0  0
 50 49  1  0  0  0  0
 52 51  2  0  0  0  0
 52 50  1  0  0  0  0
 53 55  2  0  0  0  0
 53 58  1  0  0  0  0
 54 58  1  0  0  0  0
 55 60  1  0  0  0  0
 56 59  1  0  0  0  0
 57 55  1  0  0  0  0
 58 56  2  0  0  0  0
 59 52  1  0  0  0  0
 60 59  2  0  0  0  0
M  END
>  <MODEL>
5

>  <REMARK>
 VINA RESULT:      -6.4      4.028     12.489
  Name = 
  21 active torsions:
  status: ('A' for Active; 'I' for Inactive)
    1  A    between atoms: C_1  and  C_32
    2  A    between atoms: C_1  and  C_58
    3  A    between atoms: O_4  and  C_51
    4  A    between atoms: N_5  and  C_15
    5  A    between atoms: N_5  and  C_31
    6  A    between atoms: C_6  and  C_12
    7  A    between atoms: N_7  and  C_42
    8  A    between atoms: O_13  and  C_37
    9  A    between atoms: O_13  and  C_38
   10  A    between atoms: C_14  and  C_59
   11  A    between atoms: C_16  and  O_39
   12  A    between atoms: C_23  and  O_39
   13  A    between atoms: C_24  and  C_33
   14  A    between atoms: C_27  and  C_41
   15  A    between atoms: N_28  and  C_56
   16  A    between atoms: C_31  and  C_58
   17  A    between atoms: C_32  and  C_44
   18  A    between atoms: C_33  and  C_41
   19  A    between atoms: C_37  and  C_53
   20  A    between atoms: C_38  and  C_44
   21  A    between atoms: C_56  and  C_59
                            x       y       z     vdW  Elec       q    Type
                         _______ _______ _______ _____ _____    ______ ____

>  <TORSDO>
F 21

$$$$
=
 OpenBabel11042418493D

 60 64  0  0  1  0  0  0  0  0999 V2000
  190.3980  176.7490  144.8880 N   0  0  0  0  0  0  0  0  0  0  0  0
  192.2170  176.0090  143.4420 C   0  0  0  0  0  2  0  0  0  0  0  0
  193.1930  176.0710  146.8960 C   0  0  0  0  0  3  0  0  0  0  0  0
  193.5410  175.5820  145.6430 C   0  0  0  0  0  0  0  0  0  0  0  0
  190.8180  176.6870  143.4730 C   0  0  1  0  0  3  0  0  0  0  0  0
  191.8880  176.4390  146.8730 N   0  0  0  0  0  0  0  0  0  0  0  0
  191.2690  177.2280  147.9020 C   0  0  0  0  0  0  0  0  0  0  0  0
  190.3190  178.0090  147.6270 O   0  0  0  0  0  0  0  0  0  0  0  0
  191.7750  177.1650  149.2380 N   0  0  0  0  0  2  0  0  0  0  0  0
  192.4120  175.6430  144.8660 C   0  0  0  0  0  0  0  0  0  0  0  0
  191.4270  176.1200  145.6390 C   0  0  0  0  0  0  0  0  0  0  0  0
  186.0020  179.2700  144.1700 C   0  0  0  0  0  2  0  0  0  0  0  0
  187.0740  176.3700  146.3410 C   0  0  0  0  0  2  0  0  0  0  0  0
  188.4670  176.0390  146.1780 C   0  0  0  0  0  2  0  0  0  0  0  0
  186.8140  178.2330  144.8210 C   0  0  1  0  0  3  0  0  0  0  0  0
  189.0260  176.8790  145.2970 C   0  0  0  0  0  0  0  0  0  0  0  0
  185.7660  178.2980  145.0900 C   0  0  0  0  0  0  0  0  0  0  0  0
  186.9220  177.4760  145.4390 C   0  0  0  0  0  2  0  0  0  0  0  0
  188.1400  177.9060  144.6830 C   0  0  0  0  0  3  0  0  0  0  0  0
  184.4540  178.1390  145.6340 O   0  0  0  0  0  0  0  0  0  0  0  0
  184.0810  178.6370  146.9100 C   0  0  0  0  0  1  0  0  0  0  0  0
  194.8600  175.2370  145.1960 C   0  0  0  0  0  0  0  0  0  0  0  0
  195.9560  174.9520  144.7810 C   0  0  0  0  0  0  0  0  0  0  0  0
  197.1900  174.6330  144.2770 O   0  0  0  0  0  0  0  0  0  0  0  0
  196.6630  172.7810  141.3460 C   0  0  0  0  0  2  0  0  0  0  0  0
  197.4310  175.6480  142.1300 C   0  0  0  0  0  3  0  0  0  0  0  0
  197.4480  174.5530  142.9030 C   0  0  0  0  0  0  0  0  0  0  0  0
  196.9270  173.3490  139.9530 C   0  0  2  0  0  3  0  0  0  0  0  0
  196.6510  174.8580  139.8890 C   0  0  1  0  0  3  0  0  0  0  0  0
  197.7090  175.6370  140.6600 C   0  0  0  0  0  2  0  0  0  0  0  0
  197.7470  173.2040  142.3270 C   0  0  0  0  0  2  0  0  0  0  0  0
  196.6760  175.2940  138.5620 O   0  0  0  0  0  1  0  0  0  0  0  0
  196.0550  172.5980  138.9570 C   0  0  0  0  0  2  0  0  0  0  0  0
  196.9180  171.8570  137.9460 C   0  0  0  0  0  2  0  0  0  0  0  0
  196.7510  170.3800  138.0800 C   0  0  0  0  0  0  0  0  0  0  0  0
  196.8300  169.6420  137.0620 O   0  0  0  0  0  0  0  0  0  0  0  0
  196.5410  169.8140  139.3330 O   0  0  0  0  0  1  0  0  0  0  0  0
  191.1930  177.9410  150.3190 C   0  0  0  0  0  2  0  0  0  0  0  0
  191.8390  177.5420  151.6330 C   0  0  0  0  0  2  0  0  0  0  0  0
  191.6140  177.5680  154.1150 C   0  0  0  0  0  1  0  0  0  0  0  0
  190.9180  177.8620  152.7930 C   0  0  0  0  0  2  0  0  0  0  0  0
  189.8540  175.9540  142.6410 N   0  0  0  0  0  2  0  0  0  0  0  0
  190.2480  174.5550  142.4890 C   0  0  0  0  0  2  0  0  0  0  0  0
  189.3330  173.6690  143.3180 C   0  0  0  0  0  2  0  0  0  0  0  0
  190.1440  172.6760  144.0920 C   0  0  0  0  0  0  0  0  0  0  0  0
  189.6250  172.0580  145.0100 O   0  0  0  0  0  0  0  0  0  0  0  0
  191.5550  172.3480  143.6930 C   0  0  0  0  0  2  0  0  0  0  0  0
  191.7720  170.8480  143.5340 C   0  0  0  0  0  2  0  0  0  0  0  0
  191.7680  170.4520  142.0610 C   0  0  0  0  0  2  0  0  0  0  0  0
  191.8830  171.6050  141.2340 O   0  0  0  0  0  0  0  0  0  0  0  0
  193.0000  170.7820  139.3840 O   0  0  0  0  0  0  0  0  0  0  0  0
  192.0950  171.5280  139.8530 C   0  0  0  0  0  0  0  0  0  0  0  0
  189.6980  173.8370  137.2090 C   0  0  0  0  0  3  0  0  0  0  0  0
  191.4820  173.7070  135.5470 N   0  0  0  0  0  1  0  0  0  0  0  0
  189.2100  173.5170  138.4760 C   0  0  0  0  0  0  0  0  0  0  0  0
  191.7110  172.6420  137.6970 N   0  0  0  0  0  0  0  0  0  0  0  0
  187.9530  173.9590  138.8710 O   0  0  0  0  0  1  0  0  0  0  0  0
  190.9660  173.3850  136.8340 C   0  0  0  0  0  0  0  0  0  0  0  0
  191.2550  172.3170  138.9400 C   0  0  0  0  0  0  0  0  0  0  0  0
  189.9880  172.7510  139.3470 C   0  0  0  0  0  3  0  0  0  0  0  0
  1 16  1  0  0  0  0
  1 11  1  0  0  0  0
  2  5  1  0  0  0  0
  2 10  1  0  0  0  0
  4  3  2  0  0  0  0
  5 42  1  6  0  0  0
  5  1  1  0  0  0  0
  6  3  1  0  0  0  0
  6  7  1  0  0  0  0
  7  9  1  0  0  0  0
  8  7  2  0  0  0  0
  9 38  1  0  0  0  0
 10 11  2  0  0  0  0
 10  4  1  0  0  0  0
 11  6  1  0  0  0  0
 12 17  2  0  0  0  0
 14 13  1  0  0  0  0
 15 17  1  6  0  0  0
 15 18  1  0  0  0  0
 16 14  1  0  0  0  0
 17 20  1  0  0  0  0
 18 13  1  0  0  0  0
 19 15  1  0  0  0  0
 19 16  2  0  0  0  0
 20 21  1  0  0  0  0
 22  4  1  0  0  0  0
 23 22  3  0  0  0  0
 24 23  1  0  0  0  0
 25 31  1  0  0  0  0
 26 27  2  0  0  0  0
 27 24  1  0  0  0  0
 28 33  1  6  0  0  0
 28 25  1  0  0  0  0
 29 32  1  6  0  0  0
 29 28  1  0  0  0  0
 29 30  1  0  0  0  0
 30 26  1  0  0  0  0
 31 27  1  0  0  0  0
 34 35  1  0  0  0  0
 34 33  1  0  0  0  0
 35 37  1  0  0  0  0
 36 35  2  0  0  0  0
 38 39  1  0  0  0  0
 39 41  1  0  0  0  0
 41 40  1  0  0  0  0
 43 42  1  0  0  0  0
 43 44  1  0  0  0  0
 44 45  1  0  0  0  0
 45 46  2  0  0  0  0
 47 45  1  0  0  0  0
 48 47  1  0  0  0  0
 49 48  1  0  0  0  0
 50 49  1  0  0  0  0
 51 52  2  0  0  0  0
 52 50  1  0  0  0  0
 53 55  1  0  0  0  0
 54 58  1  0  0  0  0
 55 57  1  0  0  0  0
 55 60  2  0  0  0  0
 56 59  2  0  0  0  0
 58 53  2  0  0  0  0
 58 56  1  0  0  0  0
 59 60  1  0  0  0  0
 59 52  1  0  0  0  0
M  END
>  <MODEL>
6

>  <REMARK>
 VINA RESULT:      -6.3      3.586      6.278
  Name = 
  21 active torsions:
  status: ('A' for Active; 'I' for Inactive)
    1  A    between atoms: C_1  and  C_32
    2  A    between atoms: C_1  and  C_58
    3  A    between atoms: O_4  and  C_51
    4  A    between atoms: N_5  and  C_15
    5  A    between atoms: N_5  and  C_31
    6  A    between atoms: C_6  and  C_12
    7  A    between atoms: N_7  and  C_42
    8  A    between atoms: O_13  and  C_37
    9  A    between atoms: O_13  and  C_38
   10  A    between atoms: C_14  and  C_59
   11  A    between atoms: C_16  and  O_39
   12  A    between atoms: C_23  and  O_39
   13  A    between atoms: C_24  and  C_33
   14  A    between atoms: C_27  and  C_41
   15  A    between atoms: N_28  and  C_56
   16  A    between atoms: C_31  and  C_58
   17  A    between atoms: C_32  and  C_44
   18  A    between atoms: C_33  and  C_41
   19  A    between atoms: C_37  and  C_53
   20  A    between atoms: C_38  and  C_44
   21  A    between atoms: C_56  and  C_59
                            x       y       z     vdW  Elec       q    Type
                         _______ _______ _______ _____ _____    ______ ____

>  <TORSDO>
F 21

$$$$
=
 OpenBabel11042418493D

 60 64  0  0  1  0  0  0  0  0999 V2000
  191.6300  173.4210  143.2420 N   0  0  0  0  0  0  0  0  0  0  0  0
  190.1170  175.3320  143.3000 C   0  0  0  0  0  2  0  0  0  0  0  0
  189.7240  173.4040  140.2970 C   0  0  0  0  0  3  0  0  0  0  0  0
  189.1240  174.3730  141.0910 C   0  0  0  0  0  0  0  0  0  0  0  0
  191.3730  174.6900  143.9530 C   0  0  1  0  0  3  0  0  0  0  0  0
  190.6620  172.7580  141.0330 N   0  0  0  0  0  0  0  0  0  0  0  0
  191.6530  171.8870  140.4640 C   0  0  0  0  0  0  0  0  0  0  0  0
  192.7880  171.7710  140.9990 O   0  0  0  0  0  0  0  0  0  0  0  0
  191.3640  171.1890  139.2490 N   0  0  0  0  0  2  0  0  0  0  0  0
  189.7070  174.2870  142.3310 C   0  0  0  0  0  0  0  0  0  0  0  0
  190.5940  173.2840  142.2800 C   0  0  0  0  0  0  0  0  0  0  0  0
  195.9630  172.1130  145.6310 C   0  0  0  0  0  2  0  0  0  0  0  0
  192.8550  170.2500  144.5640 C   0  0  0  0  0  2  0  0  0  0  0  0
  191.9010  171.0970  143.8940 C   0  0  0  0  0  2  0  0  0  0  0  0
  194.6490  171.7940  145.0560 C   0  0  1  0  0  3  0  0  0  0  0  0
  192.3910  172.3410  143.8090 C   0  0  0  0  0  0  0  0  0  0  0  0
  195.2020  170.9920  145.5300 C   0  0  0  0  0  0  0  0  0  0  0  0
  193.9200  171.1680  144.8540 C   0  0  0  0  0  2  0  0  0  0  0  0
  193.7310  172.5850  144.4110 C   0  0  0  0  0  3  0  0  0  0  0  0
  195.6780  169.7580  146.0750 O   0  0  0  0  0  0  0  0  0  0  0  0
  195.0910  169.1370  147.2080 C   0  0  0  0  0  1  0  0  0  0  0  0
  188.1980  175.3800  140.6590 C   0  0  0  0  0  0  0  0  0  0  0  0
  187.3890  176.2040  140.3130 C   0  0  0  0  0  0  0  0  0  0  0  0
  186.4450  177.1230  139.9350 O   0  0  0  0  0  0  0  0  0  0  0  0
  183.3220  178.1760  141.1360 C   0  0  0  0  0  2  0  0  0  0  0  0
  186.2330  178.0910  142.1070 C   0  0  0  0  0  3  0  0  0  0  0  0
  185.7820  177.9470  140.8530 C   0  0  0  0  0  0  0  0  0  0  0  0
  183.1550  178.9140  142.4630 C   0  0  2  0  0  3  0  0  0  0  0  0
  184.1910  178.4630  143.5020 C   0  0  1  0  0  3  0  0  0  0  0  0
  185.5820  178.9620  143.1340 C   0  0  0  0  0  2  0  0  0  0  0  0
  184.5540  178.6650  140.3860 C   0  0  0  0  0  2  0  0  0  0  0  0
  183.8650  178.9800  144.7580 O   0  0  0  0  0  1  0  0  0  0  0  0
  181.7400  178.6710  142.9700 C   0  0  0  0  0  2  0  0  0  0  0  0
  180.7200  179.2580  142.0050 C   0  0  0  0  0  2  0  0  0  0  0  0
  179.4450  178.4820  142.0360 C   0  0  0  0  0  0  0  0  0  0  0  0
  179.1440  177.7270  141.0730 O   0  0  0  0  0  0  0  0  0  0  0  0
  178.6060  178.5660  143.1410 O   0  0  0  0  0  1  0  0  0  0  0  0
  192.3260  170.2980  138.6250 C   0  0  0  0  0  2  0  0  0  0  0  0
  191.8160  169.8800  137.2590 C   0  0  0  0  0  2  0  0  0  0  0  0
  189.8820  170.9360  136.0940 C   0  0  0  0  0  1  0  0  0  0  0  0
  190.3050  169.9840  137.2050 C   0  0  0  0  0  2  0  0  0  0  0  0
  191.1770  174.4860  145.3960 N   0  0  0  0  0  2  0  0  0  0  0  0
  192.0610  175.3520  146.1730 C   0  0  0  0  0  2  0  0  0  0  0  0
  192.8990  176.2060  145.2360 C   0  0  0  0  0  2  0  0  0  0  0  0
  194.3520  176.0510  145.5630 C   0  0  0  0  0  0  0  0  0  0  0  0
  194.6820  175.4270  146.5610 O   0  0  0  0  0  0  0  0  0  0  0  0
  195.4160  176.5570  144.6300 C   0  0  0  0  0  2  0  0  0  0  0  0
  196.2910  175.4310  144.0940 C   0  0  0  0  0  2  0  0  0  0  0  0
  197.3300  175.9690  143.1170 C   0  0  0  0  0  2  0  0  0  0  0  0
  197.1150  175.4350  141.8150 O   0  0  0  0  0  0  0  0  0  0  0  0
  195.5320  176.9740  141.1300 O   0  0  0  0  0  0  0  0  0  0  0  0
  196.0480  175.8290  141.0000 C   0  0  0  0  0  0  0  0  0  0  0  0
  194.5000  173.1660  138.0700 C   0  0  0  0  0  3  0  0  0  0  0  0
  192.9750  174.9260  137.3390 N   0  0  0  0  0  1  0  0  0  0  0  0
  195.5180  172.7340  138.9220 C   0  0  0  0  0  0  0  0  0  0  0  0
  194.5330  175.3060  139.1390 N   0  0  0  0  0  0  0  0  0  0  0  0
  196.0110  171.4400  138.8170 O   0  0  0  0  0  1  0  0  0  0  0  0
  194.0150  174.4710  138.1960 C   0  0  0  0  0  0  0  0  0  0  0  0
  195.5270  174.9060  139.9820 C   0  0  0  0  0  0  0  0  0  0  0  0
  196.0370  173.6060  139.8820 C   0  0  0  0  0  3  0  0  0  0  0  0
  1 16  1  0  0  0  0
  1  5  1  0  0  0  0
  2  5  1  0  0  0  0
  3  6  1  0  0  0  0
  3  4  2  0  0  0  0
  4 10  1  0  0  0  0
  5 42  1  1  0  0  0
  6 11  1  0  0  0  0
  7  8  2  0  0  0  0
  7  6  1  0  0  0  0
  9  7  1  0  0  0  0
 10  2  1  0  0  0  0
 11 10  2  0  0  0  0
 11  1  1  0  0  0  0
 13 18  1  0  0  0  0
 14 13  1  0  0  0  0
 15 17  1  1  0  0  0
 16 14  1  0  0  0  0
 16 19  2  0  0  0  0
 17 12  2  0  0  0  0
 17 20  1  0  0  0  0
 18 15  1  0  0  0  0
 19 15  1  0  0  0  0
 20 21  1  0  0  0  0
 22  4  1  0  0  0  0
 23 22  3  0  0  0  0
 24 23  1  0  0  0  0
 24 27  1  0  0  0  0
 25 28  1  0  0  0  0
 26 30  1  0  0  0  0
 27 26  2  0  0  0  0
 28 33  1  1  0  0  0
 28 29  1  0  0  0  0
 29 32  1  1  0  0  0
 30 29  1  0  0  0  0
 31 27  1  0  0  0  0
 31 25  1  0  0  0  0
 34 35  1  0  0  0  0
 34 33  1  0  0  0  0
 35 37  1  0  0  0  0
 36 35  2  0  0  0  0
 38  9  1  0  0  0  0
 39 38  1  0  0  0  0
 40 41  1  0  0  0  0
 41 39  1  0  0  0  0
 42 43  1  0  0  0  0
 44 45  1  0  0  0  0
 44 43  1  0  0  0  0
 45 46  2  0  0  0  0
 47 45  1  0  0  0  0
 48 47  1  0  0  0  0
 49 48  1  0  0  0  0
 50 49  1  0  0  0  0
 52 51  2  0  0  0  0
 52 50  1  0  0  0  0
 53 58  2  0  0  0  0
 53 55  1  0  0  0  0
 54 58  1  0  0  0  0
 55 60  2  0  0  0  0
 56 59  2  0  0  0  0
 57 55  1  0  0  0  0
 58 56  1  0  0  0  0
 59 52  1  0  0  0  0
 60 59  1  0  0  0  0
M  END
>  <MODEL>
7

>  <REMARK>
 VINA RESULT:      -6.3      3.721     12.471
  Name = 
  21 active torsions:
  status: ('A' for Active; 'I' for Inactive)
    1  A    between atoms: C_1  and  C_32
    2  A    between atoms: C_1  and  C_58
    3  A    between atoms: O_4  and  C_51
    4  A    between atoms: N_5  and  C_15
    5  A    between atoms: N_5  and  C_31
    6  A    between atoms: C_6  and  C_12
    7  A    between atoms: N_7  and  C_42
    8  A    between atoms: O_13  and  C_37
    9  A    between atoms: O_13  and  C_38
   10  A    between atoms: C_14  and  C_59
   11  A    between atoms: C_16  and  O_39
   12  A    between atoms: C_23  and  O_39
   13  A    between atoms: C_24  and  C_33
   14  A    between atoms: C_27  and  C_41
   15  A    between atoms: N_28  and  C_56
   16  A    between atoms: C_31  and  C_58
   17  A    between atoms: C_32  and  C_44
   18  A    between atoms: C_33  and  C_41
   19  A    between atoms: C_37  and  C_53
   20  A    between atoms: C_38  and  C_44
   21  A    between atoms: C_56  and  C_59
                            x       y       z     vdW  Elec       q    Type
                         _______ _______ _______ _____ _____    ______ ____

>  <TORSDO>
F 21

$$$$
=
 OpenBabel11042418493D

 60 64  0  0  1  0  0  0  0  0999 V2000
  189.8510  175.0220  143.1910 N   0  0  0  0  0  0  0  0  0  0  0  0
  190.5420  172.9600  142.0890 C   0  0  0  0  0  2  0  0  0  0  0  0
  191.9990  173.2850  145.3540 C   0  0  0  0  0  3  0  0  0  0  0  0
  191.7350  172.3830  144.3310 C   0  0  0  0  0  0  0  0  0  0  0  0
  189.8690  174.3450  141.8780 C   0  0  1  0  0  3  0  0  0  0  0  0
  191.2020  174.3710  145.1930 N   0  0  0  0  0  0  0  0  0  0  0  0
  191.3920  175.6050  145.9040 C   0  0  0  0  0  0  0  0  0  0  0  0
  191.0710  176.7040  145.3770 O   0  0  0  0  0  0  0  0  0  0  0  0
  192.0030  175.5870  147.1970 N   0  0  0  0  0  2  0  0  0  0  0  0
  190.7460  172.9380  143.5580 C   0  0  0  0  0  0  0  0  0  0  0  0
  190.4170  174.1080  144.1210 C   0  0  0  0  0  0  0  0  0  0  0  0
  186.4510  176.7840  146.5870 C   0  0  0  0  0  2  0  0  0  0  0  0
  187.9180  178.1090  143.3680 C   0  0  0  0  0  2  0  0  0  0  0  0
  188.8550  177.1960  142.7660 C   0  0  0  0  0  2  0  0  0  0  0  0
  187.2290  176.9010  145.3460 C   0  0  1  0  0  3  0  0  0  0  0  0
  188.9420  176.0880  143.5150 C   0  0  0  0  0  0  0  0  0  0  0  0
  186.5820  177.7270  145.6180 C   0  0  0  0  0  0  0  0  0  0  0  0
  187.5090  177.3900  144.5410 C   0  0  0  0  0  2  0  0  0  0  0  0
  188.1200  176.0410  144.7550 C   0  0  0  0  0  3  0  0  0  0  0  0
  185.8410  178.9470  145.7090 O   0  0  0  0  0  0  0  0  0  0  0  0
  184.4340  179.0110  145.5280 C   0  0  0  0  0  1  0  0  0  0  0  0
  192.4670  171.1840  144.0390 C   0  0  0  0  0  0  0  0  0  0  0  0
  193.0460  170.1550  143.7940 C   0  0  0  0  0  0  0  0  0  0  0  0
  193.6730  168.9690  143.5160 O   0  0  0  0  0  0  0  0  0  0  0  0
  194.1990  169.6870  140.1230 C   0  0  0  0  0  2  0  0  0  0  0  0
  195.8650  168.8870  142.5740 C   0  0  0  0  0  3  0  0  0  0  0  0
  194.5350  168.8070  142.4240 C   0  0  0  0  0  0  0  0  0  0  0  0
  195.5590  169.5260  139.4470 C   0  0  2  0  0  3  0  0  0  0  0  0
  196.7160  169.8160  140.4140 C   0  0  1  0  0  3  0  0  0  0  0  0
  196.8430  168.7130  141.4560 C   0  0  0  0  0  2  0  0  0  0  0  0
  193.9230  168.5390  141.0850 C   0  0  0  0  0  2  0  0  0  0  0  0
  197.9210  169.8880  139.7100 O   0  0  0  0  0  1  0  0  0  0  0  0
  195.6100  170.4600  138.2470 C   0  0  0  0  0  2  0  0  0  0  0  0
  195.7580  171.9050  138.7020 C   0  0  0  0  0  2  0  0  0  0  0  0
  196.6480  172.6690  137.7790 C   0  0  0  0  0  0  0  0  0  0  0  0
  197.5350  172.0670  137.1190 O   0  0  0  0  0  0  0  0  0  0  0  0
  196.4770  174.0400  137.6240 O   0  0  0  0  0  1  0  0  0  0  0  0
  192.2240  176.8020  147.9610 C   0  0  0  0  0  2  0  0  0  0  0  0
  190.8910  177.3480  148.4380 C   0  0  0  0  0  2  0  0  0  0  0  0
  191.6000  177.8720  150.7700 C   0  0  0  0  0  1  0  0  0  0  0  0
  191.1050  178.4530  149.4530 C   0  0  0  0  0  2  0  0  0  0  0  0
  188.5210  174.2000  141.3110 N   0  0  0  0  0  2  0  0  0  0  0  0
  188.5460  174.3360  139.8560 C   0  0  0  0  0  2  0  0  0  0  0  0
  188.3050  172.9830  139.2090 C   0  0  0  0  0  2  0  0  0  0  0  0
  189.6000  172.4080  138.7270 C   0  0  0  0  0  0  0  0  0  0  0  0
  189.7240  171.1950  138.6320 O   0  0  0  0  0  0  0  0  0  0  0  0
  190.7170  173.2960  138.2560 C   0  0  0  0  0  2  0  0  0  0  0  0
  192.0510  172.9280  138.8950 C   0  0  0  0  0  2  0  0  0  0  0  0
  192.7760  174.1740  139.3910 C   0  0  0  0  0  2  0  0  0  0  0  0
  193.6910  173.8400  140.4290 O   0  0  0  0  0  0  0  0  0  0  0  0
  195.2140  175.5670  140.2230 O   0  0  0  0  0  0  0  0  0  0  0  0
  194.5920  174.7630  140.9720 C   0  0  0  0  0  0  0  0  0  0  0  0
  195.1970  174.8400  145.1790 C   0  0  0  0  0  3  0  0  0  0  0  0
  195.8410  172.4870  145.0860 N   0  0  0  0  0  1  0  0  0  0  0  0
  194.7770  175.9980  144.5230 C   0  0  0  0  0  0  0  0  0  0  0  0
  195.2210  173.6820  143.0870 N   0  0  0  0  0  0  0  0  0  0  0  0
  194.5490  177.1630  145.2460 O   0  0  0  0  0  1  0  0  0  0  0  0
  195.4160  173.6780  144.4330 C   0  0  0  0  0  0  0  0  0  0  0  0
  194.8100  174.8010  142.4250 C   0  0  0  0  0  0  0  0  0  0  0  0
  194.5840  175.9830  143.1410 C   0  0  0  0  0  3  0  0  0  0  0  0
  1 16  1  0  0  0  0
  1 11  1  0  0  0  0
  2 10  1  0  0  0  0
  4  3  2  0  0  0  0
  5 42  1  1  0  0  0
  5  2  1  0  0  0  0
  5  1  1  0  0  0  0
  6  3  1  0  0  0  0
  6  7  1  0  0  0  0
  7  9  1  0  0  0  0
  8  7  2  0  0  0  0
  9 38  1  0  0  0  0
 10 11  2  0  0  0  0
 10  4  1  0  0  0  0
 11  6  1  0  0  0  0
 13 18  1  0  0  0  0
 14 13  1  0  0  0  0
 14 16  1  0  0  0  0
 15 17  1  1  0  0  0
 16 19  2  0  0  0  0
 17 20  1  0  0  0  0
 17 12  2  0  0  0  0
 18 15  1  0  0  0  0
 19 15  1  0  0  0  0
 21 20  1  0  0  0  0
 22  4  1  0  0  0  0
 23 22  3  0  0  0  0
 24 23  1  0  0  0  0
 25 31  1  0  0  0  0
 27 26  2  0  0  0  0
 27 24  1  0  0  0  0
 28 33  1  6  0  0  0
 28 25  1  0  0  0  0
 28 29  1  0  0  0  0
 29 32  1  6  0  0  0
 29 30  1  0  0  0  0
 30 26  1  0  0  0  0
 31 27  1  0  0  0  0
 33 34  1  0  0  0  0
 35 34  1  0  0  0  0
 36 35  2  0  0  0  0
 37 35  1  0  0  0  0
 38 39  1  0  0  0  0
 39 41  1  0  0  0  0
 41 40  1  0  0  0  0
 43 42  1  0  0  0  0
 44 43  1  0  0  0  0
 45 44  1  0  0  0  0
 46 45  2  0  0  0  0
 47 45  1  0  0  0  0
 47 48  1  0  0  0  0
 48 49  1  0  0  0  0
 49 50  1  0  0  0  0
 50 52  1  0  0  0  0
 51 52  2  0  0  0  0
 52 59  1  0  0  0  0
 55 53  1  0  0  0  0
 55 57  1  0  0  0  0
 56 58  1  0  0  0  0
 58 54  1  0  0  0  0
 58 53  2  0  0  0  0
 59 56  2  0  0  0  0
 59 60  1  0  0  0  0
 60 55  2  0  0  0  0
M  END
>  <MODEL>
8

>  <REMARK>
 VINA RESULT:      -6.0      3.844      7.919
  Name = 
  21 active torsions:
  status: ('A' for Active; 'I' for Inactive)
    1  A    between atoms: C_1  and  C_32
    2  A    between atoms: C_1  and  C_58
    3  A    between atoms: O_4  and  C_51
    4  A    between atoms: N_5  and  C_15
    5  A    between atoms: N_5  and  C_31
    6  A    between atoms: C_6  and  C_12
    7  A    between atoms: N_7  and  C_42
    8  A    between atoms: O_13  and  C_37
    9  A    between atoms: O_13  and  C_38
   10  A    between atoms: C_14  and  C_59
   11  A    between atoms: C_16  and  O_39
   12  A    between atoms: C_23  and  O_39
   13  A    between atoms: C_24  and  C_33
   14  A    between atoms: C_27  and  C_41
   15  A    between atoms: N_28  and  C_56
   16  A    between atoms: C_31  and  C_58
   17  A    between atoms: C_32  and  C_44
   18  A    between atoms: C_33  and  C_41
   19  A    between atoms: C_37  and  C_53
   20  A    between atoms: C_38  and  C_44
   21  A    between atoms: C_56  and  C_59
                            x       y       z     vdW  Elec       q    Type
                         _______ _______ _______ _____ _____    ______ ____

>  <TORSDO>
F 21

$$$$
=
 OpenBabel11042418493D

 60 64  0  0  1  0  0  0  0  0999 V2000
  189.0510  174.8800  143.8000 N   0  0  0  0  0  0  0  0  0  0  0  0
  190.2590  172.9830  142.8600 C   0  0  0  0  0  2  0  0  0  0  0  0
  188.5590  174.8760  140.3270 C   0  0  0  0  0  3  0  0  0  0  0  0
  189.5460  173.9220  140.5370 C   0  0  0  0  0  0  0  0  0  0  0  0
  189.7290  173.6220  144.1740 C   0  0  1  0  0  3  0  0  0  0  0  0
  188.3230  175.5240  141.4950 N   0  0  0  0  0  0  0  0  0  0  0  0
  187.1900  176.3790  141.7120 C   0  0  0  0  0  0  0  0  0  0  0  0
  186.6820  176.4920  142.8590 O   0  0  0  0  0  0  0  0  0  0  0  0
  186.6010  177.0640  140.6020 N   0  0  0  0  0  2  0  0  0  0  0  0
  189.9180  174.0190  141.8550 C   0  0  0  0  0  0  0  0  0  0  0  0
  189.2000  175.0140  142.3940 C   0  0  0  0  0  0  0  0  0  0  0  0
  185.8790  176.8710  147.2900 C   0  0  0  0  0  2  0  0  0  0  0  0
  189.2900  177.8070  145.9630 C   0  0  0  0  0  2  0  0  0  0  0  0
  189.7590  176.9010  144.9460 C   0  0  0  0  0  2  0  0  0  0  0  0
  187.1290  176.8750  146.5170 C   0  0  1  0  0  3  0  0  0  0  0  0
  188.8310  175.9600  144.7240 C   0  0  0  0  0  0  0  0  0  0  0  0
  186.9850  177.6590  147.2510 C   0  0  0  0  0  0  0  0  0  0  0  0
  188.0070  177.2530  146.2900 C   0  0  0  0  0  2  0  0  0  0  0  0
  187.5890  176.0250  145.5430 C   0  0  0  0  0  3  0  0  0  0  0  0
  187.0820  178.7890  148.1220 O   0  0  0  0  0  0  0  0  0  0  0  0
  186.2380  179.9260  148.0100 C   0  0  0  0  0  1  0  0  0  0  0  0
  189.9760  172.9180  139.6070 C   0  0  0  0  0  0  0  0  0  0  0  0
  190.3640  172.0590  138.8550 C   0  0  0  0  0  0  0  0  0  0  0  0
  190.8260  171.0720  138.0240 O   0  0  0  0  0  0  0  0  0  0  0  0
  193.9430  172.0320  136.7360 C   0  0  0  0  0  2  0  0  0  0  0  0
  192.8500  170.2320  138.9690 C   0  0  0  0  0  3  0  0  0  0  0  0
  192.1820  170.7400  137.9240 C   0  0  0  0  0  0  0  0  0  0  0  0
  195.2580  171.4270  137.2220 C   0  0  2  0  0  3  0  0  0  0  0  0
  195.1990  171.0510  138.7100 C   0  0  1  0  0  3  0  0  0  0  0  0
  194.2950  169.8460  138.9290 C   0  0  0  0  0  2  0  0  0  0  0  0
  192.8610  170.9680  136.6100 C   0  0  0  0  0  2  0  0  0  0  0  0
  196.4760  170.7240  139.1720 O   0  0  0  0  0  1  0  0  0  0  0  0
  196.3720  172.4330  136.9630 C   0  0  0  0  0  2  0  0  0  0  0  0
  195.7910  173.8120  136.6890 C   0  0  0  0  0  2  0  0  0  0  0  0
  196.8200  174.7200  136.1010 C   0  0  0  0  0  0  0  0  0  0  0  0
  197.8840  174.2400  135.6260 O   0  0  0  0  0  0  0  0  0  0  0  0
  196.5920  176.0900  136.0500 O   0  0  0  0  0  1  0  0  0  0  0  0
  185.4530  177.9390  140.7590 C   0  0  0  0  0  2  0  0  0  0  0  0
  185.4700  178.5520  142.1460 C   0  0  0  0  0  2  0  0  0  0  0  0
  184.1240  179.0410  144.1860 C   0  0  0  0  0  1  0  0  0  0  0  0
  184.1360  178.3440  142.8330 C   0  0  0  0  0  2  0  0  0  0  0  0
  190.8200  173.8450  145.1340 N   0  0  0  0  0  2  0  0  0  0  0  0
  192.0920  173.3550  144.6060 C   0  0  0  0  0  2  0  0  0  0  0  0
  193.2270  174.2370  145.0980 C   0  0  0  0  0  2  0  0  0  0  0  0
  193.1740  175.5690  144.4160 C   0  0  0  0  0  0  0  0  0  0  0  0
  193.3930  176.5850  145.0590 O   0  0  0  0  0  0  0  0  0  0  0  0
  192.9610  175.6730  142.9320 C   0  0  0  0  0  2  0  0  0  0  0  0
  194.2410  176.0440  142.1940 C   0  0  0  0  0  2  0  0  0  0  0  0
  194.4420  175.1500  140.9750 C   0  0  0  0  0  2  0  0  0  0  0  0
  194.6570  173.8010  141.3740 O   0  0  0  0  0  0  0  0  0  0  0  0
  196.9110  173.3830  141.0710 O   0  0  0  0  0  0  0  0  0  0  0  0
  195.8960  173.3310  141.8220 C   0  0  0  0  0  0  0  0  0  0  0  0
  196.2140  171.7250  145.7450 C   0  0  0  0  0  3  0  0  0  0  0  0
  195.2150  169.6520  144.9310 N   0  0  0  0  0  1  0  0  0  0  0  0
  196.6600  173.0240  145.4960 C   0  0  0  0  0  0  0  0  0  0  0  0
  195.5930  171.5120  143.4450 N   0  0  0  0  0  0  0  0  0  0  0  0
  197.1930  173.7870  146.5270 O   0  0  0  0  0  1  0  0  0  0  0  0
  195.6780  170.9760  144.6930 C   0  0  0  0  0  0  0  0  0  0  0  0
  196.0210  172.7790  143.1780 C   0  0  0  0  0  0  0  0  0  0  0  0
  196.5660  173.5550  144.2080 C   0  0  0  0  0  3  0  0  0  0  0  0
  1  5  1  0  0  0  0
  1 16  1  0  0  0  0
  2  5  1  0  0  0  0
  3  4  2  0  0  0  0
  3  6  1  0  0  0  0
  4 10  1  0  0  0  0
  5 42  1  1  0  0  0
  6  7  1  0  0  0  0
  6 11  1  0  0  0  0
  7  8  2  0  0  0  0
  9 38  1  0  0  0  0
  9  7  1  0  0  0  0
 10 11  2  0  0  0  0
 10  2  1  0  0  0  0
 11  1  1  0  0  0  0
 13 18  1  0  0  0  0
 14 13  1  0  0  0  0
 15 17  1  1  0  0  0
 16 14  1  0  0  0  0
 16 19  2  0  0  0  0
 17 12  2  0  0  0  0
 17 20  1  0  0  0  0
 18 15  1  0  0  0  0
 19 15  1  0  0  0  0
 21 20  1  0  0  0  0
 22  4  1  0  0  0  0
 23 22  3  0  0  0  0
 24 23  1  0  0  0  0
 25 28  1  0  0  0  0
 27 24  1  0  0  0  0
 27 26  2  0  0  0  0
 28 33  1  1  0  0  0
 28 29  1  0  0  0  0
 29 30  1  0  0  0  0
 29 32  1  6  0  0  0
 30 26  1  0  0  0  0
 31 25  1  0  0  0  0
 31 27  1  0  0  0  0
 34 33  1  0  0  0  0
 35 34  1  0  0  0  0
 36 35  2  0  0  0  0
 37 35  1  0  0  0  0
 38 39  1  0  0  0  0
 39 41  1  0  0  0  0
 41 40  1  0  0  0  0
 43 44  1  0  0  0  0
 43 42  1  0  0  0  0
 45 46  2  0  0  0  0
 45 44  1  0  0  0  0
 47 45  1  0  0  0  0
 48 47  1  0  0  0  0
 49 50  1  0  0  0  0
 49 48  1  0  0  0  0
 50 52  1  0  0  0  0
 51 52  2  0  0  0  0
 52 59  1  0  0  0  0
 55 53  1  0  0  0  0
 55 57  1  0  0  0  0
 56 58  1  0  0  0  0
 58 54  1  0  0  0  0
 58 53  2  0  0  0  0
 59 56  2  0  0  0  0
 59 60  1  0  0  0  0
 60 55  2  0  0  0  0
M  END
>  <MODEL>
9

>  <REMARK>
 VINA RESULT:      -6.0      3.726      9.727
  Name = 
  21 active torsions:
  status: ('A' for Active; 'I' for Inactive)
    1  A    between atoms: C_1  and  C_32
    2  A    between atoms: C_1  and  C_58
    3  A    between atoms: O_4  and  C_51
    4  A    between atoms: N_5  and  C_15
    5  A    between atoms: N_5  and  C_31
    6  A    between atoms: C_6  and  C_12
    7  A    between atoms: N_7  and  C_42
    8  A    between atoms: O_13  and  C_37
    9  A    between atoms: O_13  and  C_38
   10  A    between atoms: C_14  and  C_59
   11  A    between atoms: C_16  and  O_39
   12  A    between atoms: C_23  and  O_39
   13  A    between atoms: C_24  and  C_33
   14  A    between atoms: C_27  and  C_41
   15  A    between atoms: N_28  and  C_56
   16  A    between atoms: C_31  and  C_58
   17  A    between atoms: C_32  and  C_44
   18  A    between atoms: C_33  and  C_41
   19  A    between atoms: C_37  and  C_53
   20  A    between atoms: C_38  and  C_44
   21  A    between atoms: C_56  and  C_59
                            x       y       z     vdW  Elec       q    Type
                         _______ _______ _______ _____ _____    ______ ____

>  <TORSDO>
F 21

$$$$
