=
 OpenBabel11042415373D

 39 41  0  0  1  0  0  0  0  0999 V2000
  190.0710  176.7460  145.6020 C   0  0  0  0  0  3  0  0  0  0  0  0
  190.4980  175.5610  145.3290 N   0  0  0  0  0  0  0  0  0  0  0  0
  189.5000  175.6350  143.0570 C   0  0  0  0  0  0  0  0  0  0  0  0
  189.0140  174.5310  140.7380 C   0  0  0  0  0  3  0  0  0  0  0  0
  188.7220  176.8470  143.5280 C   0  0  1  0  0  3  0  0  0  0  0  0
  189.5570  177.6520  144.5230 C   0  0  0  0  0  2  0  0  0  0  0  0
  190.5290  175.0050  143.9780 C   0  0  2  0  0  3  0  0  0  0  0  0
  189.2570  175.0860  141.8920 C   0  0  0  0  0  0  0  0  0  0  0  0
  188.2460  177.7300  142.4020 C   0  0  0  0  0  0  0  0  0  0  0  0
  189.0740  178.4170  141.7450 O   0  0  0  0  0  0  0  0  0  0  0  0
  186.8690  177.7490  142.0220 N   0  0  0  0  0  2  0  0  0  0  0  0
  185.8660  176.9270  142.6820 C   0  0  0  0  0  2  0  0  0  0  0  0
  184.7220  177.7980  143.1650 C   0  0  0  0  0  2  0  0  0  0  0  0
  185.2030  179.2220  143.3860 C   0  0  0  0  0  2  0  0  0  0  0  0
  185.0490  179.6120  144.8490 C   0  0  0  0  0  2  0  0  0  0  0  0
  184.0790  178.6880  145.5740 C   0  0  0  0  0  2  0  0  0  0  0  0
  185.7530  178.9750  147.3710 C   0  0  0  0  0  2  0  0  0  0  0  0
  185.4200  176.8790  146.3910 O   0  0  0  0  0  0  0  0  0  0  0  0
  186.9390  178.1840  147.6000 N   0  0  0  0  0  2  0  0  0  0  0  0
  184.7380  178.0360  146.7800 C   0  0  2  0  0  3  0  0  0  0  0  0
  186.5520  176.8340  147.2210 C   0  0  0  0  0  2  0  0  0  0  0  0
  190.4100  173.5360  143.9960 N   0  0  0  0  0  0  0  0  0  0  0  0
  189.7040  173.0870  145.1950 C   0  0  0  0  0  1  0  0  0  0  0  0
  191.7470  172.9610  144.0150 C   0  0  0  0  0  2  0  0  0  0  0  0
  192.3120  172.9320  142.6080 C   0  0  0  0  0  2  0  0  0  0  0  0
  193.7570  173.0710  142.6580 N   0  0  0  0  0  2  0  0  0  0  0  0
  194.0480  173.8590  143.7810 N   0  0  0  0  0  2  0  0  0  0  0  0
  196.6720  176.6610  142.1290 C   0  0  0  0  0  2  0  0  0  0  0  0
  196.3630  176.7220  143.6220 C   0  0  0  0  0  2  0  0  0  0  0  0
  196.6980  175.2200  141.6250 C   0  0  1  0  0  3  0  0  0  0  0  0
  194.8590  176.0100  145.4380 C   0  0  0  0  0  1  0  0  0  0  0  0
  197.9400  174.4890  142.1050 C   0  0  0  0  0  1  0  0  0  0  0  0
  195.2560  174.5260  143.5160 N   0  0  0  0  0  0  0  0  0  0  0  0
  195.4290  174.4860  142.0600 C   0  0  0  0  0  2  0  0  0  0  0  0
  195.0970  175.9280  143.9390 C   0  0  2  0  0  3  0  0  0  0  0  0
  187.7670  172.8410  142.0040 C   0  0  0  0  0  1  0  0  0  0  0  0
  188.4470  173.1580  140.6840 C   0  0  2  0  0  3  0  0  0  0  0  0
  190.5280  172.7350  139.5930 O   0  0  0  0  0  1  0  0  0  0  0  0
  189.5620  172.1610  140.4210 C   0  0  0  0  0  2  0  0  0  0  0  0
  2  1  2  0  0  0  0
  3  5  1  0  0  0  0
  3  7  1  0  0  0  0
  4  8  2  0  0  0  0
  5  9  1  6  0  0  0
  5  6  1  0  0  0  0
  6  1  1  0  0  0  0
  7 22  1  1  0  0  0
  7  2  1  0  0  0  0
  8  3  2  0  0  0  0
 10  9  2  0  0  0  0
 11  9  1  0  0  0  0
 11 12  1  0  0  0  0
 12 13  1  0  0  0  0
 13 14  1  0  0  0  0
 14 15  1  0  0  0  0
 15 16  1  0  0  0  0
 17 19  1  0  0  0  0
 18 20  1  0  0  0  0
 18 21  1  0  0  0  0
 20 16  1  6  0  0  0
 20 17  1  0  0  0  0
 21 19  1  0  0  0  0
 22 24  1  0  0  0  0
 22 23  1  0  0  0  0
 25 26  1  0  0  0  0
 25 24  1  0  0  0  0
 26 27  1  0  0  0  0
 28 29  1  0  0  0  0
 29 35  1  0  0  0  0
 30 34  1  0  0  0  0
 30 32  1  1  0  0  0
 30 28  1  0  0  0  0
 33 27  1  0  0  0  0
 33 35  1  0  0  0  0
 34 33  1  0  0  0  0
 35 31  1  1  0  0  0
 37  4  1  0  0  0  0
 37 36  1  1  0  0  0
 38 39  1  0  0  0  0
 39 37  1  0  0  0  0
M  END
>  <MODEL>
1

>  <REMARK>
 VINA RESULT:      -6.5      0.000      0.000
  Name = 
  15 active torsions:
  status: ('A' for Active; 'I' for Inactive)
    1  A    between atoms: C_2  and  C_22
    2  A    between atoms: C_2  and  C_27
    3  A    between atoms: C_7  and  C_25
    4  A    between atoms: C_12  and  N_16
    5  A    between atoms: C_12  and  C_28
    6  A    between atoms: C_13  and  C_21
    7  A    between atoms: N_16  and  C_38
    8  A    between atoms: N_19  and  N_30
    9  A    between atoms: N_19  and  N_35
   10  A    between atoms: N_20  and  C_31
   11  A    between atoms: C_21  and  C_22
   12  A    between atoms: C_24  and  C_26
   13  A    between atoms: C_26  and  C_36
   14  A    between atoms: C_27  and  C_31
   15  A    between atoms: C_28  and  N_35
                            x       y       z     vdW  Elec       q    Type
                         _______ _______ _______ _____ _____    ______ ____

>  <TORSDO>
F 15

$$$$
=
 OpenBabel11042415373D

 39 41  0  0  1  0  0  0  0  0999 V2000
  189.7350  176.0460  145.5850 C   0  0  0  0  0  3  0  0  0  0  0  0
  189.2790  176.5410  144.4850 N   0  0  0  0  0  0  0  0  0  0  0  0
  189.4310  174.3430  143.3390 C   0  0  0  0  0  0  0  0  0  0  0  0
  189.1250  172.8460  141.2190 C   0  0  0  0  0  3  0  0  0  0  0  0
  190.2820  173.8860  144.5060 C   0  0  1  0  0  3  0  0  0  0  0  0
  189.8150  174.5630  145.7940 C   0  0  0  0  0  2  0  0  0  0  0  0
  188.8040  175.7250  143.3690 C   0  0  2  0  0  3  0  0  0  0  0  0
  189.2760  173.5890  142.2790 C   0  0  0  0  0  0  0  0  0  0  0  0
  190.3110  172.3880  144.6790 C   0  0  0  0  0  0  0  0  0  0  0  0
  189.2960  171.7840  145.1200 O   0  0  0  0  0  0  0  0  0  0  0  0
  191.4560  171.6300  144.2830 N   0  0  0  0  0  2  0  0  0  0  0  0
  192.6360  172.2480  143.6960 C   0  0  0  0  0  2  0  0  0  0  0  0
  193.8150  172.1070  144.6390 C   0  0  0  0  0  2  0  0  0  0  0  0
  193.8170  173.2400  145.6510 C   0  0  0  0  0  2  0  0  0  0  0  0
  195.0830  174.0720  145.5120 C   0  0  0  0  0  2  0  0  0  0  0  0
  194.8320  175.5340  145.8630 C   0  0  0  0  0  2  0  0  0  0  0  0
  193.9910  175.9710  143.5800 C   0  0  0  0  0  2  0  0  0  0  0  0
  196.2440  176.3180  144.0930 O   0  0  0  0  0  0  0  0  0  0  0  0
  194.7390  175.9300  142.3450 N   0  0  0  0  0  2  0  0  0  0  0  0
  194.9600  176.4240  144.6360 C   0  0  2  0  0  3  0  0  0  0  0  0
  196.0570  176.4280  142.7060 C   0  0  0  0  0  2  0  0  0  0  0  0
  188.9710  176.4220  142.0820 N   0  0  0  0  0  0  0  0  0  0  0  0
  189.2930  177.8320  142.2930 C   0  0  0  0  0  1  0  0  0  0  0  0
  187.7170  176.3480  141.3460 C   0  0  0  0  0  2  0  0  0  0  0  0
  186.5540  176.5680  142.2940 C   0  0  0  0  0  2  0  0  0  0  0  0
  185.7280  177.6600  141.8100 N   0  0  0  0  0  2  0  0  0  0  0  0
  185.9210  178.7320  142.6940 N   0  0  0  0  0  2  0  0  0  0  0  0
  185.1140  178.8830  146.7920 C   0  0  0  0  0  2  0  0  0  0  0  0
  183.9540  178.7310  145.8110 C   0  0  0  0  0  2  0  0  0  0  0  0
  186.3590  178.1500  146.2980 C   0  0  1  0  0  3  0  0  0  0  0  0
  183.2040  178.9310  143.4730 C   0  0  0  0  0  1  0  0  0  0  0  0
  186.2010  176.6450  146.4250 C   0  0  0  0  0  1  0  0  0  0  0  0
  185.5280  178.2920  143.9690 N   0  0  0  0  0  0  0  0  0  0  0  0
  186.6680  178.5480  144.8540 C   0  0  0  0  0  2  0  0  0  0  0  0
  184.3920  179.1250  144.4010 C   0  0  2  0  0  3  0  0  0  0  0  0
  188.5540  173.7610  139.0160 C   0  0  0  0  0  1  0  0  0  0  0  0
  189.6840  173.2970  139.9170 C   0  0  2  0  0  3  0  0  0  0  0  0
  189.8010  171.7840  138.0730 O   0  0  0  0  0  1  0  0  0  0  0  0
  190.4310  172.1480  139.2640 C   0  0  0  0  0  2  0  0  0  0  0  0
  1  6  1  0  0  0  0
  2  1  2  0  0  0  0
  3  7  1  0  0  0  0
  3  5  1  0  0  0  0
  4  8  2  0  0  0  0
  5  9  1  1  0  0  0
  5  6  1  0  0  0  0
  7 22  1  6  0  0  0
  7  2  1  0  0  0  0
  8  3  2  0  0  0  0
  9 10  2  0  0  0  0
 11  9  1  0  0  0  0
 12 11  1  0  0  0  0
 12 13  1  0  0  0  0
 13 14  1  0  0  0  0
 15 14  1  0  0  0  0
 15 16  1  0  0  0  0
 17 20  1  0  0  0  0
 18 20  1  0  0  0  0
 19 21  1  0  0  0  0
 19 17  1  0  0  0  0
 20 16  1  1  0  0  0
 21 18  1  0  0  0  0
 22 23  1  0  0  0  0
 24 22  1  0  0  0  0
 24 25  1  0  0  0  0
 26 25  1  0  0  0  0
 26 27  1  0  0  0  0
 27 33  1  0  0  0  0
 29 28  1  0  0  0  0
 30 32  1  6  0  0  0
 30 28  1  0  0  0  0
 33 35  1  0  0  0  0
 33 34  1  0  0  0  0
 34 30  1  0  0  0  0
 35 31  1  6  0  0  0
 35 29  1  0  0  0  0
 37 36  1  6  0  0  0
 37  4  1  0  0  0  0
 38 39  1  0  0  0  0
 39 37  1  0  0  0  0
M  END
>  <MODEL>
2

>  <REMARK>
 VINA RESULT:      -6.3      2.243      8.337
  Name = 
  15 active torsions:
  status: ('A' for Active; 'I' for Inactive)
    1  A    between atoms: C_2  and  C_22
    2  A    between atoms: C_2  and  C_27
    3  A    between atoms: C_7  and  C_25
    4  A    between atoms: C_12  and  N_16
    5  A    between atoms: C_12  and  C_28
    6  A    between atoms: C_13  and  C_21
    7  A    between atoms: N_16  and  C_38
    8  A    between atoms: N_19  and  N_30
    9  A    between atoms: N_19  and  N_35
   10  A    between atoms: N_20  and  C_31
   11  A    between atoms: C_21  and  C_22
   12  A    between atoms: C_24  and  C_26
   13  A    between atoms: C_26  and  C_36
   14  A    between atoms: C_27  and  C_31
   15  A    between atoms: C_28  and  N_35
                            x       y       z     vdW  Elec       q    Type
                         _______ _______ _______ _____ _____    ______ ____

>  <TORSDO>
F 15

$$$$
=
 OpenBabel11042415373D

 39 41  0  0  1  0  0  0  0  0999 V2000
  188.6440  172.7290  139.3220 C   0  0  0  0  0  3  0  0  0  0  0  0
  188.2490  173.8070  139.9100 N   0  0  0  0  0  0  0  0  0  0  0  0
  190.3820  174.0000  141.1660 C   0  0  0  0  0  0  0  0  0  0  0  0
  191.9180  175.2330  142.8840 C   0  0  0  0  0  3  0  0  0  0  0  0
  190.6650  172.5730  140.7440 C   0  0  1  0  0  3  0  0  0  0  0  0
  190.0840  172.3120  139.3550 C   0  0  0  0  0  2  0  0  0  0  0  0
  189.1440  174.7030  140.6390 C   0  0  2  0  0  3  0  0  0  0  0  0
  191.1560  174.6170  142.0250 C   0  0  0  0  0  0  0  0  0  0  0  0
  192.1290  172.2150  140.7790 C   0  0  0  0  0  0  0  0  0  0  0  0
  192.8910  172.5800  139.8430 O   0  0  0  0  0  0  0  0  0  0  0  0
  192.6830  171.5200  141.8980 N   0  0  0  0  0  2  0  0  0  0  0  0
  191.8830  171.1320  143.0500 C   0  0  0  0  0  2  0  0  0  0  0  0
  192.5950  171.5290  144.3290 C   0  0  0  0  0  2  0  0  0  0  0  0
  194.0180  171.9670  144.0250 C   0  0  0  0  0  2  0  0  0  0  0  0
  194.4230  173.1190  144.9330 C   0  0  0  0  0  2  0  0  0  0  0  0
  195.0220  174.2720  144.1380 C   0  0  0  0  0  2  0  0  0  0  0  0
  194.6470  175.3130  146.3490 C   0  0  0  0  0  2  0  0  0  0  0  0
  195.0060  176.6460  144.4630 O   0  0  0  0  0  0  0  0  0  0  0  0
  194.1070  176.6240  146.6220 N   0  0  0  0  0  2  0  0  0  0  0  0
  195.3900  175.4350  145.0470 C   0  0  2  0  0  3  0  0  0  0  0  0
  194.6120  177.4550  145.5410 C   0  0  0  0  0  2  0  0  0  0  0  0
  188.4330  175.4210  141.7110 N   0  0  0  0  0  0  0  0  0  0  0  0
  187.5130  174.5280  142.4120 C   0  0  0  0  0  1  0  0  0  0  0  0
  187.6550  176.4970  141.1140 C   0  0  0  0  0  2  0  0  0  0  0  0
  188.2580  177.8350  141.4920 C   0  0  0  0  0  2  0  0  0  0  0  0
  187.6310  178.3310  142.7040 N   0  0  0  0  0  2  0  0  0  0  0  0
  186.2590  178.0610  142.5870 N   0  0  0  0  0  2  0  0  0  0  0  0
  185.2410  179.0050  146.5290 C   0  0  0  0  0  2  0  0  0  0  0  0
  184.1300  178.7660  145.5110 C   0  0  0  0  0  2  0  0  0  0  0  0
  186.4450  178.1050  146.2590 C   0  0  1  0  0  3  0  0  0  0  0  0
  183.5300  178.5970  143.1280 C   0  0  0  0  0  1  0  0  0  0  0  0
  186.1520  176.6620  146.6350 C   0  0  0  0  0  1  0  0  0  0  0  0
  185.7600  177.8880  143.8890 N   0  0  0  0  0  0  0  0  0  0  0  0
  186.8670  178.2130  144.7940 C   0  0  0  0  0  2  0  0  0  0  0  0
  184.6780  178.8660  144.0880 C   0  0  2  0  0  3  0  0  0  0  0  0
  190.3890  174.5460  144.6740 C   0  0  0  0  0  1  0  0  0  0  0  0
  191.3740  175.6060  144.2170 C   0  0  2  0  0  3  0  0  0  0  0  0
  191.4770  177.8490  143.4050 O   0  0  0  0  0  1  0  0  0  0  0  0
  190.6810  176.9530  144.1210 C   0  0  0  0  0  2  0  0  0  0  0  0
  1  6  1  0  0  0  0
  1  2  2  0  0  0  0
  2  7  1  0  0  0  0
  3  8  2  0  0  0  0
  4 37  1  0  0  0  0
  5  9  1  6  0  0  0
  5  3  1  0  0  0  0
  6  5  1  0  0  0  0
  7  3  1  0  0  0  0
  7 22  1  1  0  0  0
  8  4  2  0  0  0  0
  9 11  1  0  0  0  0
 10  9  2  0  0  0  0
 11 12  1  0  0  0  0
 12 13  1  0  0  0  0
 14 13  1  0  0  0  0
 14 15  1  0  0  0  0
 16 15  1  0  0  0  0
 17 19  1  0  0  0  0
 18 20  1  0  0  0  0
 18 21  1  0  0  0  0
 20 16  1  6  0  0  0
 20 17  1  0  0  0  0
 21 19  1  0  0  0  0
 22 23  1  0  0  0  0
 24 25  1  0  0  0  0
 24 22  1  0  0  0  0
 25 26  1  0  0  0  0
 27 26  1  0  0  0  0
 27 33  1  0  0  0  0
 29 28  1  0  0  0  0
 30 28  1  0  0  0  0
 30 32  1  6  0  0  0
 33 35  1  0  0  0  0
 33 34  1  0  0  0  0
 34 30  1  0  0  0  0
 35 31  1  6  0  0  0
 35 29  1  0  0  0  0
 37 36  1  6  0  0  0
 38 39  1  0  0  0  0
 39 37  1  0  0  0  0
M  END
>  <MODEL>
3

>  <REMARK>
 VINA RESULT:      -6.3      2.412      8.537
  Name = 
  15 active torsions:
  status: ('A' for Active; 'I' for Inactive)
    1  A    between atoms: C_2  and  C_22
    2  A    between atoms: C_2  and  C_27
    3  A    between atoms: C_7  and  C_25
    4  A    between atoms: C_12  and  N_16
    5  A    between atoms: C_12  and  C_28
    6  A    between atoms: C_13  and  C_21
    7  A    between atoms: N_16  and  C_38
    8  A    between atoms: N_19  and  N_30
    9  A    between atoms: N_19  and  N_35
   10  A    between atoms: N_20  and  C_31
   11  A    between atoms: C_21  and  C_22
   12  A    between atoms: C_24  and  C_26
   13  A    between atoms: C_26  and  C_36
   14  A    between atoms: C_27  and  C_31
   15  A    between atoms: C_28  and  N_35
                            x       y       z     vdW  Elec       q    Type
                         _______ _______ _______ _____ _____    ______ ____

>  <TORSDO>
F 15

$$$$
=
 OpenBabel11042415373D

 39 41  0  0  1  0  0  0  0  0999 V2000
  190.5640  177.8060  143.8470 C   0  0  0  0  0  3  0  0  0  0  0  0
  191.2540  176.7610  143.5400 N   0  0  0  0  0  0  0  0  0  0  0  0
  189.4310  175.8770  142.1060 C   0  0  0  0  0  0  0  0  0  0  0  0
  188.4620  174.0460  140.5110 C   0  0  0  0  0  3  0  0  0  0  0  0
  188.5310  176.9070  142.7550 C   0  0  1  0  0  3  0  0  0  0  0  0
  189.3280  178.1700  143.0800 C   0  0  0  0  0  2  0  0  0  0  0  0
  190.9110  175.8610  142.4410 C   0  0  2  0  0  3  0  0  0  0  0  0
  188.9430  174.9620  141.3030 C   0  0  0  0  0  0  0  0  0  0  0  0
  187.3140  177.2480  141.9320 C   0  0  0  0  0  0  0  0  0  0  0  0
  187.4440  177.5950  140.7270 O   0  0  0  0  0  0  0  0  0  0  0  0
  186.0020  177.1180  142.4830 N   0  0  0  0  0  2  0  0  0  0  0  0
  185.7670  176.6510  143.8410 C   0  0  0  0  0  2  0  0  0  0  0  0
  185.4550  177.8290  144.7430 C   0  0  0  0  0  2  0  0  0  0  0  0
  184.9950  177.3390  146.1060 C   0  0  0  0  0  2  0  0  0  0  0  0
  186.1470  176.6730  146.8460 C   0  0  0  0  0  2  0  0  0  0  0  0
  187.2970  177.6440  147.0780 C   0  0  0  0  0  2  0  0  0  0  0  0
  188.6210  175.5800  146.7650 C   0  0  0  0  0  2  0  0  0  0  0  0
  189.6810  177.5900  147.3080 O   0  0  0  0  0  0  0  0  0  0  0  0
  189.9040  175.2630  147.3480 N   0  0  0  0  0  2  0  0  0  0  0  0
  188.6120  177.0710  146.5720 C   0  0  2  0  0  3  0  0  0  0  0  0
  190.6050  176.5370  147.3930 C   0  0  0  0  0  2  0  0  0  0  0  0
  191.3920  174.4920  142.6950 N   0  0  0  0  0  0  0  0  0  0  0  0
  191.7570  174.3220  144.1000 C   0  0  0  0  0  1  0  0  0  0  0  0
  192.5800  174.2580  141.8870 C   0  0  0  0  0  2  0  0  0  0  0  0
  193.3000  173.0180  142.3810 C   0  0  0  0  0  2  0  0  0  0  0  0
  194.6260  172.9550  141.7920 N   0  0  0  0  0  2  0  0  0  0  0  0
  195.4050  173.9200  142.4460 N   0  0  0  0  0  2  0  0  0  0  0  0
  197.0820  173.2180  146.2090 C   0  0  0  0  0  2  0  0  0  0  0  0
  196.0790  174.3560  146.0430 C   0  0  0  0  0  2  0  0  0  0  0  0
  196.7330  172.0340  145.3100 C   0  0  1  0  0  3  0  0  0  0  0  0
  194.8990  175.8380  144.4700 C   0  0  0  0  0  1  0  0  0  0  0  0
  195.5140  171.2880  145.8250 C   0  0  0  0  0  1  0  0  0  0  0  0
  195.4800  173.5440  143.7980 N   0  0  0  0  0  0  0  0  0  0  0  0
  196.5160  172.5090  143.8720 C   0  0  0  0  0  2  0  0  0  0  0  0
  195.9230  174.7190  144.5670 C   0  0  2  0  0  3  0  0  0  0  0  0
  188.3200  172.5180  142.4240 C   0  0  0  0  0  1  0  0  0  0  0  0
  188.5100  172.6170  140.9210 C   0  0  2  0  0  3  0  0  0  0  0  0
  190.3690  171.2730  141.5810 O   0  0  0  0  0  1  0  0  0  0  0  0
  189.8500  172.0240  140.5250 C   0  0  0  0  0  2  0  0  0  0  0  0
  2  1  2  0  0  0  0
  3  7  1  0  0  0  0
  3  5  1  0  0  0  0
  4 37  1  0  0  0  0
  4  8  2  0  0  0  0
  5  9  1  6  0  0  0
  5  6  1  0  0  0  0
  6  1  1  0  0  0  0
  7 22  1  1  0  0  0
  7  2  1  0  0  0  0
  8  3  2  0  0  0  0
  9 11  1  0  0  0  0
 10  9  2  0  0  0  0
 11 12  1  0  0  0  0
 12 13  1  0  0  0  0
 13 14  1  0  0  0  0
 14 15  1  0  0  0  0
 15 16  1  0  0  0  0
 17 19  1  0  0  0  0
 18 21  1  0  0  0  0
 19 21  1  0  0  0  0
 20 17  1  0  0  0  0
 20 16  1  1  0  0  0
 20 18  1  0  0  0  0
 22 23  1  0  0  0  0
 24 25  1  0  0  0  0
 24 22  1  0  0  0  0
 26 25  1  0  0  0  0
 26 27  1  0  0  0  0
 27 33  1  0  0  0  0
 29 28  1  0  0  0  0
 30 32  1  1  0  0  0
 30 28  1  0  0  0  0
 33 34  1  0  0  0  0
 33 35  1  0  0  0  0
 34 30  1  0  0  0  0
 35 31  1  1  0  0  0
 35 29  1  0  0  0  0
 37 36  1  1  0  0  0
 39 37  1  0  0  0  0
 39 38  1  0  0  0  0
M  END
>  <MODEL>
4

>  <REMARK>
 VINA RESULT:      -6.2      1.963      2.751
  Name = 
  15 active torsions:
  status: ('A' for Active; 'I' for Inactive)
    1  A    between atoms: C_2  and  C_22
    2  A    between atoms: C_2  and  C_27
    3  A    between atoms: C_7  and  C_25
    4  A    between atoms: C_12  and  N_16
    5  A    between atoms: C_12  and  C_28
    6  A    between atoms: C_13  and  C_21
    7  A    between atoms: N_16  and  C_38
    8  A    between atoms: N_19  and  N_30
    9  A    between atoms: N_19  and  N_35
   10  A    between atoms: N_20  and  C_31
   11  A    between atoms: C_21  and  C_22
   12  A    between atoms: C_24  and  C_26
   13  A    between atoms: C_26  and  C_36
   14  A    between atoms: C_27  and  C_31
   15  A    between atoms: C_28  and  N_35
                            x       y       z     vdW  Elec       q    Type
                         _______ _______ _______ _____ _____    ______ ____

>  <TORSDO>
F 15

$$$$
=
 OpenBabel11042415373D

 39 41  0  0  1  0  0  0  0  0999 V2000
  195.1740  175.6920  145.6860 C   0  0  0  0  0  3  0  0  0  0  0  0
  193.9800  176.1390  145.4940 N   0  0  0  0  0  0  0  0  0  0  0  0
  193.1610  173.8940  144.8200 C   0  0  0  0  0  0  0  0  0  0  0  0
  191.2460  172.3070  144.0170 C   0  0  0  0  0  3  0  0  0  0  0  0
  194.6160  173.4870  144.7070 C   0  0  1  0  0  3  0  0  0  0  0  0
  195.4490  174.2200  145.7590 C   0  0  0  0  0  2  0  0  0  0  0  0
  192.8100  175.2760  145.3410 C   0  0  2  0  0  3  0  0  0  0  0  0
  192.2030  173.0940  144.4200 C   0  0  0  0  0  0  0  0  0  0  0  0
  194.8340  171.9990  144.8050 C   0  0  0  0  0  0  0  0  0  0  0  0
  194.7170  171.4150  145.9170 O   0  0  0  0  0  0  0  0  0  0  0  0
  195.1080  171.2230  143.6360 N   0  0  0  0  0  2  0  0  0  0  0  0
  195.1830  171.8130  142.3090 C   0  0  0  0  0  2  0  0  0  0  0  0
  193.9130  171.5110  141.5370 C   0  0  0  0  0  2  0  0  0  0  0  0
  193.5310  172.6970  140.6680 C   0  0  0  0  0  2  0  0  0  0  0  0
  194.1300  173.9790  141.2270 C   0  0  0  0  0  2  0  0  0  0  0  0
  194.5910  174.9120  140.1150 C   0  0  0  0  0  2  0  0  0  0  0  0
  196.8650  174.8280  141.0810 C   0  0  0  0  0  2  0  0  0  0  0  0
  195.4320  176.6030  141.5890 O   0  0  0  0  0  0  0  0  0  0  0  0
  197.3170  175.4240  142.3160 N   0  0  0  0  0  2  0  0  0  0  0  0
  195.7920  175.7380  140.5510 C   0  0  2  0  0  3  0  0  0  0  0  0
  196.5680  176.6670  142.4120 C   0  0  0  0  0  2  0  0  0  0  0  0
  191.7720  175.9170  144.5160 N   0  0  0  0  0  0  0  0  0  0  0  0
  192.3600  176.5420  143.3340 C   0  0  0  0  0  1  0  0  0  0  0  0
  191.1250  176.9550  145.3050 C   0  0  0  0  0  2  0  0  0  0  0  0
  190.3330  176.3230  146.4320 C   0  0  0  0  0  2  0  0  0  0  0  0
  189.0390  176.9730  146.5450 N   0  0  0  0  0  2  0  0  0  0  0  0
  188.1110  176.1370  145.9060 N   0  0  0  0  0  2  0  0  0  0  0  0
  185.7940  179.5640  145.3090 C   0  0  0  0  0  2  0  0  0  0  0  0
  186.1410  178.6830  144.1120 C   0  0  0  0  0  2  0  0  0  0  0  0
  185.5890  178.7300  146.5720 C   0  0  1  0  0  3  0  0  0  0  0  0
  187.5930  176.9010  143.2270 C   0  0  0  0  0  1  0  0  0  0  0  0
  184.2810  177.9580  146.5190 C   0  0  0  0  0  1  0  0  0  0  0  0
  186.9830  176.9220  145.6110 N   0  0  0  0  0  0  0  0  0  0  0  0
  186.7740  177.7840  146.7780 C   0  0  0  0  0  2  0  0  0  0  0  0
  187.3140  177.7630  144.4480 C   0  0  2  0  0  3  0  0  0  0  0  0
  189.4110  173.7610  143.2880 C   0  0  0  0  0  1  0  0  0  0  0  0
  190.4070  172.7000  142.8540 C   0  0  2  0  0  3  0  0  0  0  0  0
  190.5770  170.4450  142.0900 O   0  0  0  0  0  1  0  0  0  0  0  0
  189.6730  171.4810  142.3260 C   0  0  0  0  0  2  0  0  0  0  0  0
  1  6  1  0  0  0  0
  2  1  2  0  0  0  0
  3  7  1  0  0  0  0
  4  8  2  0  0  0  0
  5  9  1  1  0  0  0
  5  3  1  0  0  0  0
  5  6  1  0  0  0  0
  7 22  1  6  0  0  0
  7  2  1  0  0  0  0
  8  3  2  0  0  0  0
  9 10  2  0  0  0  0
 11  9  1  0  0  0  0
 12 11  1  0  0  0  0
 13 12  1  0  0  0  0
 14 15  1  0  0  0  0
 14 13  1  0  0  0  0
 16 15  1  0  0  0  0
 17 19  1  0  0  0  0
 18 21  1  0  0  0  0
 19 21  1  0  0  0  0
 20 16  1  1  0  0  0
 20 17  1  0  0  0  0
 20 18  1  0  0  0  0
 22 24  1  0  0  0  0
 23 22  1  0  0  0  0
 24 25  1  0  0  0  0
 25 26  1  0  0  0  0
 27 26  1  0  0  0  0
 28 30  1  0  0  0  0
 29 35  1  0  0  0  0
 29 28  1  0  0  0  0
 30 32  1  6  0  0  0
 30 34  1  0  0  0  0
 33 27  1  0  0  0  0
 33 34  1  0  0  0  0
 35 31  1  6  0  0  0
 35 33  1  0  0  0  0
 37 36  1  1  0  0  0
 37  4  1  0  0  0  0
 38 39  1  0  0  0  0
 39 37  1  0  0  0  0
M  END
>  <MODEL>
5

>  <REMARK>
 VINA RESULT:      -6.1      2.607      8.786
  Name = 
  15 active torsions:
  status: ('A' for Active; 'I' for Inactive)
    1  A    between atoms: C_2  and  C_22
    2  A    between atoms: C_2  and  C_27
    3  A    between atoms: C_7  and  C_25
    4  A    between atoms: C_12  and  N_16
    5  A    between atoms: C_12  and  C_28
    6  A    between atoms: C_13  and  C_21
    7  A    between atoms: N_16  and  C_38
    8  A    between atoms: N_19  and  N_30
    9  A    between atoms: N_19  and  N_35
   10  A    between atoms: N_20  and  C_31
   11  A    between atoms: C_21  and  C_22
   12  A    between atoms: C_24  and  C_26
   13  A    between atoms: C_26  and  C_36
   14  A    between atoms: C_27  and  C_31
   15  A    between atoms: C_28  and  N_35
                            x       y       z     vdW  Elec       q    Type
                         _______ _______ _______ _____ _____    ______ ____

>  <TORSDO>
F 15

$$$$
=
 OpenBabel11042415373D

 39 41  0  0  1  0  0  0  0  0999 V2000
  188.8560  172.3890  139.6500 C   0  0  0  0  0  3  0  0  0  0  0  0
  188.3700  173.4680  140.1620 N   0  0  0  0  0  0  0  0  0  0  0  0
  190.4900  173.9510  141.3610 C   0  0  0  0  0  0  0  0  0  0  0  0
  191.9240  175.4490  142.9520 C   0  0  0  0  0  3  0  0  0  0  0  0
  190.8990  172.5280  141.0430 C   0  0  1  0  0  3  0  0  0  0  0  0
  190.3290  172.1080  139.6880 C   0  0  0  0  0  2  0  0  0  0  0  0
  189.1870  174.4960  140.8040 C   0  0  2  0  0  3  0  0  0  0  0  0
  191.2130  174.7010  142.1550 C   0  0  0  0  0  0  0  0  0  0  0  0
  192.3900  172.3090  141.0780 C   0  0  0  0  0  0  0  0  0  0  0  0
  193.1030  172.6560  140.0970 O   0  0  0  0  0  0  0  0  0  0  0  0
  193.0210  171.7710  142.2420 N   0  0  0  0  0  2  0  0  0  0  0  0
  192.2760  171.4180  143.4410 C   0  0  0  0  0  2  0  0  0  0  0  0
  193.1500  171.6070  144.6650 C   0  0  0  0  0  2  0  0  0  0  0  0
  194.4420  172.3100  144.2860 C   0  0  0  0  0  2  0  0  0  0  0  0
  194.5460  173.6500  145.0000 C   0  0  0  0  0  2  0  0  0  0  0  0
  195.9500  173.8880  145.5400 C   0  0  0  0  0  2  0  0  0  0  0  0
  195.7290  175.8010  143.9890 C   0  0  0  0  0  2  0  0  0  0  0  0
  197.4350  174.2320  143.6920 O   0  0  0  0  0  0  0  0  0  0  0  0
  196.1610  175.8700  142.6130 N   0  0  0  0  0  2  0  0  0  0  0  0
  196.7060  174.8940  144.6840 C   0  0  2  0  0  3  0  0  0  0  0  0
  197.3870  175.0890  142.5800 C   0  0  0  0  0  2  0  0  0  0  0  0
  188.4240  175.2260  141.8310 N   0  0  0  0  0  0  0  0  0  0  0  0
  187.3490  174.3950  142.3700 C   0  0  0  0  0  1  0  0  0  0  0  0
  187.8240  176.4020  141.2180 C   0  0  0  0  0  2  0  0  0  0  0  0
  188.4830  177.6550  141.7610 C   0  0  0  0  0  2  0  0  0  0  0  0
  187.6640  178.2200  142.8190 N   0  0  0  0  0  2  0  0  0  0  0  0
  188.2390  177.8170  144.0330 N   0  0  0  0  0  2  0  0  0  0  0  0
  185.1700  176.7850  146.6750 C   0  0  0  0  0  2  0  0  0  0  0  0
  186.5400  177.1560  147.2360 C   0  0  0  0  0  2  0  0  0  0  0  0
  184.8430  177.5970  145.4240 C   0  0  1  0  0  3  0  0  0  0  0  0
  188.9350  177.4760  146.7580 C   0  0  0  0  0  1  0  0  0  0  0  0
  184.5190  179.0400  145.7710 C   0  0  0  0  0  1  0  0  0  0  0  0
  187.2590  177.9720  145.0270 N   0  0  0  0  0  0  0  0  0  0  0  0
  185.9990  177.5200  144.4270 C   0  0  0  0  0  2  0  0  0  0  0  0
  187.6050  177.0750  146.1420 C   0  0  2  0  0  3  0  0  0  0  0  0
  192.3620  176.7700  144.9710 C   0  0  0  0  0  1  0  0  0  0  0  0
  191.3640  175.8730  144.2620 C   0  0  2  0  0  3  0  0  0  0  0  0
  189.7030  174.3880  145.1230 O   0  0  0  0  0  1  0  0  0  0  0  0
  191.0750  174.6460  145.1080 C   0  0  0  0  0  2  0  0  0  0  0  0
  1  6  1  0  0  0  0
  1  2  2  0  0  0  0
  2  7  1  0  0  0  0
  3  8  2  0  0  0  0
  4 37  1  0  0  0  0
  5  9  1  6  0  0  0
  5  3  1  0  0  0  0
  6  5  1  0  0  0  0
  7  3  1  0  0  0  0
  7 22  1  1  0  0  0
  8  4  2  0  0  0  0
  9 11  1  0  0  0  0
 10  9  2  0  0  0  0
 11 12  1  0  0  0  0
 12 13  1  0  0  0  0
 14 13  1  0  0  0  0
 14 15  1  0  0  0  0
 15 16  1  0  0  0  0
 17 20  1  0  0  0  0
 18 20  1  0  0  0  0
 19 17  1  0  0  0  0
 20 16  1  6  0  0  0
 21 19  1  0  0  0  0
 21 18  1  0  0  0  0
 22 23  1  0  0  0  0
 24 25  1  0  0  0  0
 24 22  1  0  0  0  0
 25 26  1  0  0  0  0
 26 27  1  0  0  0  0
 27 33  1  0  0  0  0
 28 29  1  0  0  0  0
 30 32  1  1  0  0  0
 30 28  1  0  0  0  0
 33 35  1  0  0  0  0
 34 33  1  0  0  0  0
 34 30  1  0  0  0  0
 35 31  1  1  0  0  0
 35 29  1  0  0  0  0
 37 36  1  1  0  0  0
 37 39  1  0  0  0  0
 39 38  1  0  0  0  0
M  END
>  <MODEL>
6

>  <REMARK>
 VINA RESULT:      -6.0      2.403      8.713
  Name = 
  15 active torsions:
  status: ('A' for Active; 'I' for Inactive)
    1  A    between atoms: C_2  and  C_22
    2  A    between atoms: C_2  and  C_27
    3  A    between atoms: C_7  and  C_25
    4  A    between atoms: C_12  and  N_16
    5  A    between atoms: C_12  and  C_28
    6  A    between atoms: C_13  and  C_21
    7  A    between atoms: N_16  and  C_38
    8  A    between atoms: N_19  and  N_30
    9  A    between atoms: N_19  and  N_35
   10  A    between atoms: N_20  and  C_31
   11  A    between atoms: C_21  and  C_22
   12  A    between atoms: C_24  and  C_26
   13  A    between atoms: C_26  and  C_36
   14  A    between atoms: C_27  and  C_31
   15  A    between atoms: C_28  and  N_35
                            x       y       z     vdW  Elec       q    Type
                         _______ _______ _______ _____ _____    ______ ____

>  <TORSDO>
F 15

$$$$
=
 OpenBabel11042415373D

 39 41  0  0  1  0  0  0  0  0999 V2000
  192.4080  171.0520  142.6720 C   0  0  0  0  0  3  0  0  0  0  0  0
  191.2270  171.5560  142.7930 N   0  0  0  0  0  0  0  0  0  0  0  0
  192.0940  173.8650  142.5060 C   0  0  0  0  0  0  0  0  0  0  0  0
  191.7140  176.4470  142.3710 C   0  0  0  0  0  3  0  0  0  0  0  0
  193.4770  173.2860  142.7260 C   0  0  1  0  0  3  0  0  0  0  0  0
  193.5510  171.8720  142.1500 C   0  0  0  0  0  2  0  0  0  0  0  0
  190.8970  172.9340  142.4350 C   0  0  2  0  0  3  0  0  0  0  0  0
  191.9070  175.1600  142.4350 C   0  0  0  0  0  0  0  0  0  0  0  0
  194.5830  174.1420  142.1650 C   0  0  0  0  0  0  0  0  0  0  0  0
  194.6550  174.3480  140.9240 O   0  0  0  0  0  0  0  0  0  0  0  0
  195.5200  174.7840  143.0330 N   0  0  0  0  0  2  0  0  0  0  0  0
  195.4570  174.6560  144.4810 C   0  0  0  0  0  2  0  0  0  0  0  0
  194.9760  175.9570  145.0930 C   0  0  0  0  0  2  0  0  0  0  0  0
  194.1870  175.6810  146.3620 C   0  0  0  0  0  2  0  0  0  0  0  0
  192.7250  175.4210  146.0310 C   0  0  0  0  0  2  0  0  0  0  0  0
  192.0040  174.7360  147.1850 C   0  0  0  0  0  2  0  0  0  0  0  0
  189.5450  174.8820  147.4000 C   0  0  0  0  0  2  0  0  0  0  0  0
  190.8130  176.8080  147.0190 O   0  0  0  0  0  0  0  0  0  0  0  0
  188.6720  175.8830  146.8330 N   0  0  0  0  0  2  0  0  0  0  0  0
  190.8440  175.5810  147.6890 C   0  0  2  0  0  3  0  0  0  0  0  0
  189.4480  177.1120  146.8910 C   0  0  0  0  0  2  0  0  0  0  0  0
  189.7690  173.4430  143.2350 N   0  0  0  0  0  0  0  0  0  0  0  0
  189.5750  172.6320  144.4350 C   0  0  0  0  0  1  0  0  0  0  0  0
  188.5570  173.3640  142.4330 C   0  0  0  0  0  2  0  0  0  0  0  0
  188.1770  174.7470  141.9420 C   0  0  0  0  0  2  0  0  0  0  0  0
  187.3680  175.4170  142.9450 N   0  0  0  0  0  2  0  0  0  0  0  0
  186.5960  176.3720  142.2670 N   0  0  0  0  0  2  0  0  0  0  0  0
  185.6000  179.3910  144.9800 C   0  0  0  0  0  2  0  0  0  0  0  0
  184.7640  179.2240  143.7140 C   0  0  0  0  0  2  0  0  0  0  0  0
  186.0910  178.0430  145.5040 C   0  0  1  0  0  3  0  0  0  0  0  0
  184.6290  178.2450  141.4580 C   0  0  0  0  0  1  0  0  0  0  0  0
  184.9580  177.2470  146.1290 C   0  0  0  0  0  1  0  0  0  0  0  0
  185.8580  177.0710  143.2380 N   0  0  0  0  0  0  0  0  0  0  0  0
  186.7600  177.2520  144.3790 C   0  0  0  0  0  2  0  0  0  0  0  0
  185.5210  178.3920  142.6800 C   0  0  2  0  0  3  0  0  0  0  0  0
  189.8040  177.9260  142.7940 C   0  0  0  0  0  1  0  0  0  0  0  0
  190.9280  177.1290  143.4330 C   0  0  2  0  0  3  0  0  0  0  0  0
  191.5730  179.3820  143.8880 O   0  0  0  0  0  1  0  0  0  0  0  0
  191.8380  178.0530  144.2220 C   0  0  0  0  0  2  0  0  0  0  0  0
  1  2  2  0  0  0  0
  3  5  1  0  0  0  0
  4  8  2  0  0  0  0
  4 37  1  0  0  0  0
  5  9  1  6  0  0  0
  6  1  1  0  0  0  0
  6  5  1  0  0  0  0
  7  3  1  0  0  0  0
  7  2  1  0  0  0  0
  7 22  1  1  0  0  0
  8  3  2  0  0  0  0
  9 11  1  0  0  0  0
 10  9  2  0  0  0  0
 11 12  1  0  0  0  0
 12 13  1  0  0  0  0
 13 14  1  0  0  0  0
 15 14  1  0  0  0  0
 15 16  1  0  0  0  0
 17 20  1  0  0  0  0
 18 20  1  0  0  0  0
 19 21  1  0  0  0  0
 19 17  1  0  0  0  0
 20 16  1  6  0  0  0
 21 18  1  0  0  0  0
 22 23  1  0  0  0  0
 24 22  1  0  0  0  0
 25 24  1  0  0  0  0
 25 26  1  0  0  0  0
 27 26  1  0  0  0  0
 27 33  1  0  0  0  0
 28 30  1  0  0  0  0
 29 28  1  0  0  0  0
 30 32  1  6  0  0  0
 33 34  1  0  0  0  0
 34 30  1  0  0  0  0
 35 31  1  6  0  0  0
 35 33  1  0  0  0  0
 35 29  1  0  0  0  0
 37 36  1  6  0  0  0
 37 39  1  0  0  0  0
 38 39  1  0  0  0  0
M  END
>  <MODEL>
7

>  <REMARK>
 VINA RESULT:      -6.0      2.149      7.711
  Name = 
  15 active torsions:
  status: ('A' for Active; 'I' for Inactive)
    1  A    between atoms: C_2  and  C_22
    2  A    between atoms: C_2  and  C_27
    3  A    between atoms: C_7  and  C_25
    4  A    between atoms: C_12  and  N_16
    5  A    between atoms: C_12  and  C_28
    6  A    between atoms: C_13  and  C_21
    7  A    between atoms: N_16  and  C_38
    8  A    between atoms: N_19  and  N_30
    9  A    between atoms: N_19  and  N_35
   10  A    between atoms: N_20  and  C_31
   11  A    between atoms: C_21  and  C_22
   12  A    between atoms: C_24  and  C_26
   13  A    between atoms: C_26  and  C_36
   14  A    between atoms: C_27  and  C_31
   15  A    between atoms: C_28  and  N_35
                            x       y       z     vdW  Elec       q    Type
                         _______ _______ _______ _____ _____    ______ ____

>  <TORSDO>
F 15

$$$$
=
 OpenBabel11042415373D

 39 41  0  0  1  0  0  0  0  0999 V2000
  191.5320  177.8000  143.8840 C   0  0  0  0  0  3  0  0  0  0  0  0
  192.2300  176.7620  143.5710 N   0  0  0  0  0  0  0  0  0  0  0  0
  190.1870  175.4130  143.1570 C   0  0  0  0  0  0  0  0  0  0  0  0
  189.0300  173.1700  142.4780 C   0  0  0  0  0  3  0  0  0  0  0  0
  189.4180  176.5110  143.8620 C   0  0  1  0  0  3  0  0  0  0  0  0
  190.0650  177.8670  143.5830 C   0  0  0  0  0  2  0  0  0  0  0  0
  191.6740  175.5870  142.9030 C   0  0  2  0  0  3  0  0  0  0  0  0
  189.6030  174.2910  142.8140 C   0  0  0  0  0  0  0  0  0  0  0  0
  187.9530  176.5420  143.5070 C   0  0  0  0  0  0  0  0  0  0  0  0
  187.5960  176.5390  142.2980 O   0  0  0  0  0  0  0  0  0  0  0  0
  186.9540  176.5070  144.5280 N   0  0  0  0  0  2  0  0  0  0  0  0
  187.2870  176.4330  145.9430 C   0  0  0  0  0  2  0  0  0  0  0  0
  186.0310  176.6020  146.7770 C   0  0  0  0  0  2  0  0  0  0  0  0
  186.1450  177.8370  147.6540 C   0  0  0  0  0  2  0  0  0  0  0  0
  185.5670  179.0500  146.9380 C   0  0  0  0  0  2  0  0  0  0  0  0
  184.4110  178.6620  146.0260 C   0  0  0  0  0  2  0  0  0  0  0  0
  183.9380  178.4720  143.6070 C   0  0  0  0  0  2  0  0  0  0  0  0
  185.8580  179.5770  144.3510 O   0  0  0  0  0  0  0  0  0  0  0  0
  184.8920  178.4860  142.5220 N   0  0  0  0  0  2  0  0  0  0  0  0
  184.5170  179.3560  144.6770 C   0  0  2  0  0  3  0  0  0  0  0  0
  185.9200  179.4170  142.9580 C   0  0  0  0  0  2  0  0  0  0  0  0
  192.4260  174.3670  143.2440 N   0  0  0  0  0  0  0  0  0  0  0  0
  193.0470  174.4900  144.5610 C   0  0  0  0  0  1  0  0  0  0  0  0
  193.4840  174.1830  142.2600 C   0  0  0  0  0  2  0  0  0  0  0  0
  192.9730  174.5600  140.8830 C   0  0  0  0  0  2  0  0  0  0  0  0
  192.3440  173.4080  140.2620 N   0  0  0  0  0  2  0  0  0  0  0  0
  192.0300  173.7810  138.9470 N   0  0  0  0  0  2  0  0  0  0  0  0
  190.1270  170.0730  138.6440 C   0  0  0  0  0  2  0  0  0  0  0  0
  189.3120  171.3460  138.4330 C   0  0  0  0  0  2  0  0  0  0  0  0
  191.5510  170.2310  138.1160 C   0  0  1  0  0  3  0  0  0  0  0  0
  189.2040  173.7880  138.7370 C   0  0  0  0  0  1  0  0  0  0  0  0
  191.5820  170.2260  136.5980 C   0  0  0  0  0  1  0  0  0  0  0  0
  191.3720  172.6900  138.3530 N   0  0  0  0  0  0  0  0  0  0  0  0
  192.1810  171.5090  138.6720 C   0  0  0  0  0  2  0  0  0  0  0  0
  190.0550  172.5560  138.9980 C   0  0  2  0  0  3  0  0  0  0  0  0
  189.7480  172.1690  144.5990 C   0  0  0  0  0  1  0  0  0  0  0  0
  189.4460  171.9020  143.1350 C   0  0  2  0  0  3  0  0  0  0  0  0
  190.4670  170.0290  142.0640 O   0  0  0  0  0  1  0  0  0  0  0  0
  190.6810  171.3560  142.4400 C   0  0  0  0  0  2  0  0  0  0  0  0
  2  1  2  0  0  0  0
  3  5  1  0  0  0  0
  4  8  2  0  0  0  0
  4 37  1  0  0  0  0
  5  9  1  6  0  0  0
  6  5  1  0  0  0  0
  6  1  1  0  0  0  0
  7  3  1  0  0  0  0
  7 22  1  1  0  0  0
  7  2  1  0  0  0  0
  8  3  2  0  0  0  0
  9 11  1  0  0  0  0
 10  9  2  0  0  0  0
 11 12  1  0  0  0  0
 12 13  1  0  0  0  0
 13 14  1  0  0  0  0
 15 14  1  0  0  0  0
 16 15  1  0  0  0  0
 17 20  1  0  0  0  0
 18 20  1  0  0  0  0
 19 21  1  0  0  0  0
 19 17  1  0  0  0  0
 20 16  1  1  0  0  0
 21 18  1  0  0  0  0
 22 23  1  0  0  0  0
 24 22  1  0  0  0  0
 25 24  1  0  0  0  0
 26 25  1  0  0  0  0
 27 26  1  0  0  0  0
 29 28  1  0  0  0  0
 29 35  1  0  0  0  0
 30 32  1  6  0  0  0
 30 28  1  0  0  0  0
 30 34  1  0  0  0  0
 33 34  1  0  0  0  0
 33 27  1  0  0  0  0
 33 35  1  0  0  0  0
 35 31  1  6  0  0  0
 37 36  1  1  0  0  0
 38 39  1  0  0  0  0
 39 37  1  0  0  0  0
M  END
>  <MODEL>
8

>  <REMARK>
 VINA RESULT:      -6.0      2.347      4.725
  Name = 
  15 active torsions:
  status: ('A' for Active; 'I' for Inactive)
    1  A    between atoms: C_2  and  C_22
    2  A    between atoms: C_2  and  C_27
    3  A    between atoms: C_7  and  C_25
    4  A    between atoms: C_12  and  N_16
    5  A    between atoms: C_12  and  C_28
    6  A    between atoms: C_13  and  C_21
    7  A    between atoms: N_16  and  C_38
    8  A    between atoms: N_19  and  N_30
    9  A    between atoms: N_19  and  N_35
   10  A    between atoms: N_20  and  C_31
   11  A    between atoms: C_21  and  C_22
   12  A    between atoms: C_24  and  C_26
   13  A    between atoms: C_26  and  C_36
   14  A    between atoms: C_27  and  C_31
   15  A    between atoms: C_28  and  N_35
                            x       y       z     vdW  Elec       q    Type
                         _______ _______ _______ _____ _____    ______ ____

>  <TORSDO>
F 15

$$$$
=
 OpenBabel11042415373D

 39 41  0  0  1  0  0  0  0  0999 V2000
  194.6510  176.5660  144.9510 C   0  0  0  0  0  3  0  0  0  0  0  0
  193.4390  177.0010  145.0050 N   0  0  0  0  0  0  0  0  0  0  0  0
  192.5190  174.7070  144.7760 C   0  0  0  0  0  0  0  0  0  0  0  0
  190.4930  173.0630  144.6170 C   0  0  0  0  0  3  0  0  0  0  0  0
  193.9110  174.2780  144.3620 C   0  0  1  0  0  3  0  0  0  0  0  0
  194.9580  175.1060  145.1060 C   0  0  0  0  0  2  0  0  0  0  0  0
  192.2800  176.1380  145.2230 C   0  0  2  0  0  3  0  0  0  0  0  0
  191.5050  173.8790  144.7000 C   0  0  0  0  0  0  0  0  0  0  0  0
  194.1690  172.8050  144.5560 C   0  0  0  0  0  0  0  0  0  0  0  0
  194.2590  172.3270  145.7200 O   0  0  0  0  0  0  0  0  0  0  0  0
  194.2480  171.9240  143.4340 N   0  0  0  0  0  2  0  0  0  0  0  0
  194.0790  172.3870  142.0650 C   0  0  0  0  0  2  0  0  0  0  0  0
  192.6550  172.1400  141.6090 C   0  0  0  0  0  2  0  0  0  0  0  0
  192.2190  173.2210  140.6350 C   0  0  0  0  0  2  0  0  0  0  0  0
  191.7360  172.5990  139.3330 C   0  0  0  0  0  2  0  0  0  0  0  0
  190.5600  171.6580  139.5660 C   0  0  0  0  0  2  0  0  0  0  0  0
  189.6670  172.7180  137.5190 C   0  0  0  0  0  2  0  0  0  0  0  0
  188.7270  173.2000  139.6030 O   0  0  0  0  0  0  0  0  0  0  0  0
  188.9780  173.9830  137.4140 N   0  0  0  0  0  2  0  0  0  0  0  0
  189.3060  172.1610  138.8680 C   0  0  2  0  0  3  0  0  0  0  0  0
  188.1980  174.0710  138.6390 C   0  0  0  0  0  2  0  0  0  0  0  0
  191.0650  176.7000  144.6080 N   0  0  0  0  0  0  0  0  0  0  0  0
  191.4090  177.7030  143.6020 C   0  0  0  0  0  1  0  0  0  0  0  0
  190.2760  177.3490  145.6450 C   0  0  0  0  0  2  0  0  0  0  0  0
  189.1120  176.4600  146.0340 C   0  0  0  0  0  2  0  0  0  0  0  0
  188.0930  177.2510  146.7010 N   0  0  0  0  0  2  0  0  0  0  0  0
  186.8530  176.7480  146.2820 N   0  0  0  0  0  2  0  0  0  0  0  0
  184.2350  178.3510  143.4460 C   0  0  0  0  0  2  0  0  0  0  0  0
  184.4520  179.0940  144.7620 C   0  0  0  0  0  2  0  0  0  0  0  0
  185.5150  177.6600  142.9810 C   0  0  1  0  0  3  0  0  0  0  0  0
  185.2830  178.9690  147.0770 C   0  0  0  0  0  1  0  0  0  0  0  0
  186.5300  178.6650  142.4640 C   0  0  0  0  0  1  0  0  0  0  0  0
  186.3550  177.6330  145.3100 N   0  0  0  0  0  0  0  0  0  0  0  0
  186.1040  176.8210  144.1150 C   0  0  0  0  0  2  0  0  0  0  0  0
  185.0740  178.1650  145.8030 C   0  0  2  0  0  3  0  0  0  0  0  0
  189.0280  172.0640  142.9230 C   0  0  0  0  0  1  0  0  0  0  0  0
  189.3950  173.3430  143.6540 C   0  0  2  0  0  3  0  0  0  0  0  0
  188.8470  175.3480  142.4790 O   0  0  0  0  0  1  0  0  0  0  0  0
  189.8520  174.3970  142.6610 C   0  0  0  0  0  2  0  0  0  0  0  0
  1  2  2  0  0  0  0
  1  6  1  0  0  0  0
  2  7  1  0  0  0  0
  3  7  1  0  0  0  0
  4  8  2  0  0  0  0
  5  9  1  1  0  0  0
  5  3  1  0  0  0  0
  5  6  1  0  0  0  0
  7 22  1  6  0  0  0
  8  3  2  0  0  0  0
  9 10  2  0  0  0  0
 11  9  1  0  0  0  0
 12 11  1  0  0  0  0
 13 12  1  0  0  0  0
 14 13  1  0  0  0  0
 15 16  1  0  0  0  0
 15 14  1  0  0  0  0
 17 20  1  0  0  0  0
 19 17  1  0  0  0  0
 19 21  1  0  0  0  0
 20 16  1  1  0  0  0
 20 18  1  0  0  0  0
 21 18  1  0  0  0  0
 22 24  1  0  0  0  0
 23 22  1  0  0  0  0
 24 25  1  0  0  0  0
 25 26  1  0  0  0  0
 27 26  1  0  0  0  0
 28 29  1  0  0  0  0
 29 35  1  0  0  0  0
 30 32  1  1  0  0  0
 30 28  1  0  0  0  0
 30 34  1  0  0  0  0
 33 35  1  0  0  0  0
 33 27  1  0  0  0  0
 34 33  1  0  0  0  0
 35 31  1  1  0  0  0
 37 36  1  6  0  0  0
 37  4  1  0  0  0  0
 38 39  1  0  0  0  0
 39 37  1  0  0  0  0
M  END
>  <MODEL>
9

>  <REMARK>
 VINA RESULT:      -6.0      2.330      8.363
  Name = 
  15 active torsions:
  status: ('A' for Active; 'I' for Inactive)
    1  A    between atoms: C_2  and  C_22
    2  A    between atoms: C_2  and  C_27
    3  A    between atoms: C_7  and  C_25
    4  A    between atoms: C_12  and  N_16
    5  A    between atoms: C_12  and  C_28
    6  A    between atoms: C_13  and  C_21
    7  A    between atoms: N_16  and  C_38
    8  A    between atoms: N_19  and  N_30
    9  A    between atoms: N_19  and  N_35
   10  A    between atoms: N_20  and  C_31
   11  A    between atoms: C_21  and  C_22
   12  A    between atoms: C_24  and  C_26
   13  A    between atoms: C_26  and  C_36
   14  A    between atoms: C_27  and  C_31
   15  A    between atoms: C_28  and  N_35
                            x       y       z     vdW  Elec       q    Type
                         _______ _______ _______ _____ _____    ______ ____

>  <TORSDO>
F 15

$$$$
