=
 OpenBabel11042413573D

 30 33  0  0  1  0  0  0  0  0999 V2000
  193.0380  175.6480  144.5670 C   0  0  0  0  0  0  0  0  0  0  0  0
  195.1980  175.6250  145.4570 C   0  0  1  0  0  3  0  0  0  0  0  0
  194.2310  176.0680  146.5610 C   0  0  0  0  0  2  0  0  0  0  0  0
  195.8310  174.3840  145.8240 N   0  0  0  0  0  0  0  0  0  0  0  0
  192.1270  175.7010  143.6320 C   0  0  0  0  0  0  0  0  0  0  0  0
  196.3020  172.0950  145.2010 C   0  0  0  0  0  1  0  0  0  0  0  0
  194.3920  175.3510  144.2840 N   0  0  0  0  0  0  0  0  0  0  0  0
  192.8400  176.1790  145.9360 C   0  0  2  0  0  3  0  0  0  0  0  0
  191.2190  175.7530  142.7000 C   0  0  0  0  0  3  0  0  0  0  0  0
  194.8510  173.8590  143.4580 S   0  0  0  0  0  0  0  0  0  0  0  0
  195.7430  173.4520  144.9500 C   0  0  0  0  0  0  0  0  0  0  0  0
  189.8640  176.0030  143.0470 N   0  0  0  0  0  2  0  0  0  0  0  0
  189.4500  177.3190  143.4940 C   0  0  0  0  0  2  0  0  0  0  0  0
  185.9210  178.6570  143.4150 C   0  0  0  0  0  0  0  0  0  0  0  0
  187.2320  178.4130  143.8300 C   0  0  0  0  0  3  0  0  0  0  0  0
  185.4370  178.0560  142.2420 C   0  0  0  0  0  0  0  0  0  0  0  0
  188.0430  177.5610  143.0800 C   0  0  0  0  0  0  0  0  0  0  0  0
  187.5630  176.9920  141.9420 N   0  0  0  0  0  0  0  0  0  0  0  0
  186.2920  177.2180  141.5130 C   0  0  0  0  0  3  0  0  0  0  0  0
  184.2860  178.8080  145.2600 C   0  0  0  0  0  1  0  0  0  0  0  0
  185.0640  179.5850  144.2140 C   0  0  0  0  0  2  0  0  0  0  0  0
  184.1250  178.3030  141.8210 O   0  0  0  0  0  0  0  0  0  0  0  0
  183.7380  178.2770  140.4530 C   0  0  0  0  0  1  0  0  0  0  0  0
  191.8760  175.2970  146.7150 C   0  0  0  0  0  2  0  0  0  0  0  0
  188.1630  176.4780  146.9030 C   0  0  0  0  0  0  0  0  0  0  0  0
  189.0770  175.0890  146.6530 S   0  0  0  0  0  0  0  0  0  0  0  0
  186.6790  176.5390  146.9310 C   0  0  0  0  0  1  0  0  0  0  0  0
  190.3330  177.2430  147.0260 N   0  0  0  0  0  0  0  0  0  0  0  0
  189.0110  177.5610  147.0900 C   0  0  0  0  0  3  0  0  0  0  0  0
  190.5290  175.9280  146.7820 C   0  0  0  0  0  0  0  0  0  0  0  0
  1  8  1  0  0  0  0
  2  4  1  0  0  0  0
  2  3  1  1  0  0  0
  5  1  2  0  0  0  0
  7  1  1  0  0  0  0
  7  2  1  0  0  0  0
  8  3  1  0  0  0  0
  8 24  1  1  0  0  0
  9 12  1  0  0  0  0
  9  5  2  0  0  0  0
 10  7  1  0  0  0  0
 10 11  1  0  0  0  0
 11  6  1  0  0  0  0
 11  4  2  0  0  0  0
 12 13  1  0  0  0  0
 14 15  1  0  0  0  0
 14 21  1  0  0  0  0
 16 14  2  0  0  0  0
 17 13  1  0  0  0  0
 17 15  2  0  0  0  0
 18 17  1  0  0  0  0
 19 18  2  0  0  0  0
 19 16  1  0  0  0  0
 21 20  1  0  0  0  0
 22 16  1  0  0  0  0
 23 22  1  0  0  0  0
 24 30  1  0  0  0  0
 25 27  1  0  0  0  0
 25 29  2  0  0  0  0
 26 30  1  0  0  0  0
 26 25  1  0  0  0  0
 28 29  1  0  0  0  0
 30 28  2  0  0  0  0
M  END
>  <MODEL>
1

>  <REMARK>
 VINA RESULT:      -7.3      0.000      0.000
  Name = 
  7 active torsions:
  status: ('A' for Active; 'I' for Inactive)
    1  A    between atoms: C_2  and  C_28
    2  A    between atoms: N_4  and  C_23
    3  A    between atoms: N_4  and  C_26
    4  A    between atoms: C_5  and  O_14
    5  A    between atoms: C_7  and  C_26
    6  A    between atoms: C_18  and  C_21
    7  A    between atoms: C_18  and  C_30
                            x       y       z     vdW  Elec       q    Type
                         _______ _______ _______ _____ _____    ______ ____

>  <TORSDO>
F 7

$$$$
=
 OpenBabel11042413573D

 30 33  0  0  1  0  0  0  0  0999 V2000
  187.3510  177.1840  143.9610 C   0  0  0  0  0  0  0  0  0  0  0  0
  186.6860  178.5890  142.2160 C   0  0  1  0  0  3  0  0  0  0  0  0
  187.6930  177.5760  141.6580 C   0  0  0  0  0  2  0  0  0  0  0  0
  185.4070  178.4150  141.5780 N   0  0  0  0  0  0  0  0  0  0  0  0
  187.5510  176.8240  145.2010 C   0  0  0  0  0  0  0  0  0  0  0  0
  183.0380  178.0270  141.8720 C   0  0  0  0  0  1  0  0  0  0  0  0
  186.5010  178.2610  143.6160 N   0  0  0  0  0  0  0  0  0  0  0  0
  188.1970  176.7340  142.8300 C   0  0  2  0  0  3  0  0  0  0  0  0
  187.7480  176.4660  146.4370 C   0  0  0  0  0  3  0  0  0  0  0  0
  184.8090  178.2910  144.1190 S   0  0  0  0  0  0  0  0  0  0  0  0
  184.4180  178.2670  142.3780 C   0  0  0  0  0  0  0  0  0  0  0  0
  188.5710  175.3430  146.7240 N   0  0  0  0  0  2  0  0  0  0  0  0
  189.8230  175.5110  147.4350 C   0  0  0  0  0  2  0  0  0  0  0  0
  191.9950  176.4070  144.4790 C   0  0  0  0  0  0  0  0  0  0  0  0
  190.9200  176.3880  145.3710 C   0  0  0  0  0  3  0  0  0  0  0  0
  193.0960  175.5630  144.6960 C   0  0  0  0  0  0  0  0  0  0  0  0
  190.9470  175.5180  146.4610 C   0  0  0  0  0  0  0  0  0  0  0  0
  192.0230  174.7120  146.6620 N   0  0  0  0  0  0  0  0  0  0  0  0
  193.0850  174.7140  145.8120 C   0  0  0  0  0  3  0  0  0  0  0  0
  191.1670  178.5940  143.6850 C   0  0  0  0  0  1  0  0  0  0  0  0
  191.9660  177.3550  143.3240 C   0  0  0  0  0  2  0  0  0  0  0  0
  194.1760  175.5840  143.8060 O   0  0  0  0  0  0  0  0  0  0  0  0
  195.4290  176.1740  144.1300 C   0  0  0  0  0  1  0  0  0  0  0  0
  187.9440  175.2650  142.5280 C   0  0  0  0  0  2  0  0  0  0  0  0
  191.0360  172.9520  143.0800 C   0  0  0  0  0  0  0  0  0  0  0  0
  189.5390  173.3070  143.7560 S   0  0  0  0  0  0  0  0  0  0  0  0
  191.9880  171.9280  143.5830 C   0  0  0  0  0  1  0  0  0  0  0  0
  190.2170  174.6110  141.7080 N   0  0  0  0  0  0  0  0  0  0  0  0
  191.2440  173.7570  141.9680 C   0  0  0  0  0  3  0  0  0  0  0  0
  189.2140  174.4900  142.6060 C   0  0  0  0  0  0  0  0  0  0  0  0
  1  5  2  0  0  0  0
  2  3  1  6  0  0  0
  2  7  1  0  0  0  0
  3  8  1  0  0  0  0
  4  2  1  0  0  0  0
  4 11  2  0  0  0  0
  5  9  2  0  0  0  0
  6 11  1  0  0  0  0
  7  1  1  0  0  0  0
  7 10  1  0  0  0  0
  8 24  1  6  0  0  0
  8  1  1  0  0  0  0
  9 12  1  0  0  0  0
 11 10  1  0  0  0  0
 12 13  1  0  0  0  0
 14 16  2  0  0  0  0
 14 15  1  0  0  0  0
 15 17  2  0  0  0  0
 16 19  1  0  0  0  0
 17 18  1  0  0  0  0
 17 13  1  0  0  0  0
 19 18  2  0  0  0  0
 21 20  1  0  0  0  0
 21 14  1  0  0  0  0
 22 23  1  0  0  0  0
 22 16  1  0  0  0  0
 24 30  1  0  0  0  0
 25 27  1  0  0  0  0
 25 26  1  0  0  0  0
 28 29  1  0  0  0  0
 28 30  2  0  0  0  0
 29 25  2  0  0  0  0
 30 26  1  0  0  0  0
M  END
>  <MODEL>
2

>  <REMARK>
 VINA RESULT:      -6.9      2.985      7.996
  Name = 
  7 active torsions:
  status: ('A' for Active; 'I' for Inactive)
    1  A    between atoms: C_2  and  C_28
    2  A    between atoms: N_4  and  C_23
    3  A    between atoms: N_4  and  C_26
    4  A    between atoms: C_5  and  O_14
    5  A    between atoms: C_7  and  C_26
    6  A    between atoms: C_18  and  C_21
    7  A    between atoms: C_18  and  C_30
                            x       y       z     vdW  Elec       q    Type
                         _______ _______ _______ _____ _____    ______ ____

>  <TORSDO>
F 7

$$$$
=
 OpenBabel11042413573D

 30 33  0  0  1  0  0  0  0  0999 V2000
  187.9620  176.0180  143.9080 C   0  0  0  0  0  0  0  0  0  0  0  0
  186.5430  176.8790  145.5530 C   0  0  1  0  0  3  0  0  0  0  0  0
  187.9440  176.7320  146.1590 C   0  0  0  0  0  2  0  0  0  0  0  0
  186.1550  178.2660  145.5380 N   0  0  0  0  0  0  0  0  0  0  0  0
  188.2800  175.3840  142.8100 C   0  0  0  0  0  0  0  0  0  0  0  0
  185.3870  180.1350  144.2100 C   0  0  0  0  0  1  0  0  0  0  0  0
  186.6430  176.4600  144.1680 N   0  0  0  0  0  0  0  0  0  0  0  0
  188.8330  176.0700  145.1060 C   0  0  2  0  0  3  0  0  0  0  0  0
  188.5960  174.7550  141.7150 C   0  0  0  0  0  3  0  0  0  0  0  0
  185.8010  177.5380  143.0530 S   0  0  0  0  0  0  0  0  0  0  0  0
  185.7720  178.7090  144.3990 C   0  0  0  0  0  0  0  0  0  0  0  0
  189.9470  174.3800  141.4810 N   0  0  0  0  0  2  0  0  0  0  0  0
  190.6890  173.6410  142.4840 C   0  0  0  0  0  2  0  0  0  0  0  0
  194.4220  173.7070  143.0470 C   0  0  0  0  0  0  0  0  0  0  0  0
  193.0860  173.3010  143.0930 C   0  0  0  0  0  3  0  0  0  0  0  0
  194.7700  174.8840  142.3640 C   0  0  0  0  0  0  0  0  0  0  0  0
  192.1100  174.0790  142.4700 C   0  0  0  0  0  0  0  0  0  0  0  0
  192.4630  175.2120  141.8060 N   0  0  0  0  0  0  0  0  0  0  0  0
  193.7570  175.6270  141.7420 C   0  0  0  0  0  3  0  0  0  0  0  0
  194.8600  172.0940  144.8650 C   0  0  0  0  0  1  0  0  0  0  0  0
  195.4640  172.8590  143.7010 C   0  0  0  0  0  2  0  0  0  0  0  0
  196.1090  175.2910  142.3130 O   0  0  0  0  0  0  0  0  0  0  0  0
  196.5810  176.4670  142.9570 C   0  0  0  0  0  1  0  0  0  0  0  0
  190.0390  176.9610  144.8480 C   0  0  0  0  0  2  0  0  0  0  0  0
  193.5400  175.6720  145.9900 C   0  0  0  0  0  0  0  0  0  0  0  0
  192.8350  176.9180  145.1100 S   0  0  0  0  0  0  0  0  0  0  0  0
  194.9940  175.5160  146.2490 C   0  0  0  0  0  1  0  0  0  0  0  0
  191.2910  175.1790  146.0820 N   0  0  0  0  0  0  0  0  0  0  0  0
  192.5500  174.8130  146.4480 C   0  0  0  0  0  3  0  0  0  0  0  0
  191.2850  176.3060  145.3370 C   0  0  0  0  0  0  0  0  0  0  0  0
  1  7  1  0  0  0  0
  1  8  1  0  0  0  0
  2  3  1  6  0  0  0
  4  2  1  0  0  0  0
  5  1  2  0  0  0  0
  6 11  1  0  0  0  0
  7  2  1  0  0  0  0
  8 24  1  6  0  0  0
  8  3  1  0  0  0  0
  9  5  2  0  0  0  0
 10  7  1  0  0  0  0
 10 11  1  0  0  0  0
 11  4  2  0  0  0  0
 12  9  1  0  0  0  0
 12 13  1  0  0  0  0
 14 15  1  0  0  0  0
 14 21  1  0  0  0  0
 16 14  2  0  0  0  0
 17 13  1  0  0  0  0
 17 15  2  0  0  0  0
 18 17  1  0  0  0  0
 19 18  2  0  0  0  0
 19 16  1  0  0  0  0
 21 20  1  0  0  0  0
 22 16  1  0  0  0  0
 22 23  1  0  0  0  0
 24 30  1  0  0  0  0
 25 27  1  0  0  0  0
 25 29  2  0  0  0  0
 26 30  1  0  0  0  0
 26 25  1  0  0  0  0
 28 29  1  0  0  0  0
 30 28  2  0  0  0  0
M  END
>  <MODEL>
3

>  <REMARK>
 VINA RESULT:      -6.5      3.277      8.064
  Name = 
  7 active torsions:
  status: ('A' for Active; 'I' for Inactive)
    1  A    between atoms: C_2  and  C_28
    2  A    between atoms: N_4  and  C_23
    3  A    between atoms: N_4  and  C_26
    4  A    between atoms: C_5  and  O_14
    5  A    between atoms: C_7  and  C_26
    6  A    between atoms: C_18  and  C_21
    7  A    between atoms: C_18  and  C_30
                            x       y       z     vdW  Elec       q    Type
                         _______ _______ _______ _____ _____    ______ ____

>  <TORSDO>
F 7

$$$$
=
 OpenBabel11042413573D

 30 33  0  0  1  0  0  0  0  0999 V2000
  192.7970  174.3360  145.3230 C   0  0  0  0  0  0  0  0  0  0  0  0
  194.4450  173.1910  144.1250 C   0  0  1  0  0  3  0  0  0  0  0  0
  193.1240  173.0700  143.3560 C   0  0  0  0  0  2  0  0  0  0  0  0
  195.4120  173.9080  143.3340 N   0  0  0  0  0  0  0  0  0  0  0  0
  192.2340  174.8770  146.3700 C   0  0  0  0  0  0  0  0  0  0  0  0
  196.9410  175.7790  143.2190 C   0  0  0  0  0  1  0  0  0  0  0  0
  194.1730  174.0080  145.2920 N   0  0  0  0  0  0  0  0  0  0  0  0
  192.0370  173.7320  144.2030 C   0  0  2  0  0  3  0  0  0  0  0  0
  191.6740  175.4180  147.4140 C   0  0  0  0  0  3  0  0  0  0  0  0
  195.4130  175.2290  145.5900 S   0  0  0  0  0  0  0  0  0  0  0  0
  195.9580  174.9070  143.9210 C   0  0  0  0  0  0  0  0  0  0  0  0
  190.2980  175.7760  147.3720 N   0  0  0  0  0  2  0  0  0  0  0  0
  189.8990  177.1200  147.0010 C   0  0  0  0  0  2  0  0  0  0  0  0
  186.3270  176.9980  145.7850 C   0  0  0  0  0  0  0  0  0  0  0  0
  187.4310  177.0300  146.6410 C   0  0  0  0  0  3  0  0  0  0  0  0
  186.5220  177.0050  144.3950 C   0  0  0  0  0  0  0  0  0  0  0  0
  188.7170  177.0530  146.1010 C   0  0  0  0  0  0  0  0  0  0  0  0
  188.8900  177.0660  144.7530 N   0  0  0  0  0  0  0  0  0  0  0  0
  187.8330  177.0410  143.8980 C   0  0  0  0  0  3  0  0  0  0  0  0
  184.4940  178.4140  146.6440 C   0  0  0  0  0  1  0  0  0  0  0  0
  184.9520  176.9930  146.3700 C   0  0  0  0  0  2  0  0  0  0  0  0
  185.4170  176.9780  143.5350 O   0  0  0  0  0  0  0  0  0  0  0  0
  184.9680  178.1230  142.8230 C   0  0  0  0  0  1  0  0  0  0  0  0
  191.3570  174.8140  143.3770 C   0  0  0  0  0  2  0  0  0  0  0  0
  188.9610  173.2140  140.7470 C   0  0  0  0  0  0  0  0  0  0  0  0
  190.5020  173.8720  140.8730 S   0  0  0  0  0  0  0  0  0  0  0  0
  188.3650  172.6460  139.5100 C   0  0  0  0  0  1  0  0  0  0  0  0
  189.0920  173.8320  142.9630 N   0  0  0  0  0  0  0  0  0  0  0  0
  188.3310  173.2720  141.9830 C   0  0  0  0  0  3  0  0  0  0  0  0
  190.3040  174.2210  142.5070 C   0  0  0  0  0  0  0  0  0  0  0  0
  1  5  2  0  0  0  0
  2  3  1  6  0  0  0
  2  7  1  0  0  0  0
  3  8  1  0  0  0  0
  4 11  2  0  0  0  0
  4  2  1  0  0  0  0
  5  9  2  0  0  0  0
  6 11  1  0  0  0  0
  7  1  1  0  0  0  0
  7 10  1  0  0  0  0
  8 24  1  6  0  0  0
  8  1  1  0  0  0  0
 11 10  1  0  0  0  0
 12  9  1  0  0  0  0
 13 12  1  0  0  0  0
 14 21  1  0  0  0  0
 14 15  1  0  0  0  0
 16 14  2  0  0  0  0
 17 15  2  0  0  0  0
 17 13  1  0  0  0  0
 18 17  1  0  0  0  0
 19 16  1  0  0  0  0
 19 18  2  0  0  0  0
 21 20  1  0  0  0  0
 22 16  1  0  0  0  0
 23 22  1  0  0  0  0
 25 26  1  0  0  0  0
 25 29  2  0  0  0  0
 26 30  1  0  0  0  0
 27 25  1  0  0  0  0
 29 28  1  0  0  0  0
 30 28  2  0  0  0  0
 30 24  1  0  0  0  0
M  END
>  <MODEL>
4

>  <REMARK>
 VINA RESULT:      -6.5      2.346      4.028
  Name = 
  7 active torsions:
  status: ('A' for Active; 'I' for Inactive)
    1  A    between atoms: C_2  and  C_28
    2  A    between atoms: N_4  and  C_23
    3  A    between atoms: N_4  and  C_26
    4  A    between atoms: C_5  and  O_14
    5  A    between atoms: C_7  and  C_26
    6  A    between atoms: C_18  and  C_21
    7  A    between atoms: C_18  and  C_30
                            x       y       z     vdW  Elec       q    Type
                         _______ _______ _______ _____ _____    ______ ____

>  <TORSDO>
F 7

$$$$
=
 OpenBabel11042413573D

 30 33  0  0  1  0  0  0  0  0999 V2000
  192.4700  174.4980  145.5780 C   0  0  0  0  0  0  0  0  0  0  0  0
  194.0300  173.0480  144.6160 C   0  0  1  0  0  3  0  0  0  0  0  0
  192.7250  172.9440  143.8180 C   0  0  0  0  0  2  0  0  0  0  0  0
  195.0830  173.5530  143.7740 N   0  0  0  0  0  2  0  0  0  0  0  0
  191.9340  175.2300  146.5180 C   0  0  0  0  0  0  0  0  0  0  0  0
  196.7900  175.2390  143.4660 C   0  0  0  0  0  1  0  0  0  0  0  0
  193.8080  174.0420  145.6480 N   0  0  0  0  0  0  0  0  0  0  0  0
  191.6850  173.8160  144.5220 C   0  0  2  0  0  3  0  0  0  0  0  0
  191.4020  175.9620  147.4540 C   0  0  0  0  0  3  0  0  0  0  0  0
  195.1530  175.1720  145.8260 S   0  0  0  0  0  0  0  0  0  0  0  0
  195.7080  174.5700  144.2400 C   0  0  1  0  0  3  0  0  0  0  0  0
  190.0700  176.4370  147.3080 N   0  0  0  0  0  2  0  0  0  0  0  0
  188.9710  175.5040  147.1440 C   0  0  0  0  0  2  0  0  0  0  0  0
  187.0500  176.8580  144.1890 C   0  0  0  0  0  0  0  0  0  0  0  0
  188.0730  176.2880  144.9510 C   0  0  0  0  0  3  0  0  0  0  0  0
  185.8580  177.2610  144.8120 C   0  0  0  0  0  0  0  0  0  0  0  0
  187.9030  176.1390  146.3280 C   0  0  0  0  0  0  0  0  0  0  0  0
  186.7400  176.5270  146.9160 N   0  0  0  0  0  0  0  0  0  0  0  0
  185.7270  177.0800  146.1960 C   0  0  0  0  0  3  0  0  0  0  0  0
  188.5620  177.6630  142.4100 C   0  0  0  0  0  1  0  0  0  0  0  0
  187.2320  176.9960  142.7130 C   0  0  0  0  0  2  0  0  0  0  0  0
  184.8300  177.8280  144.0500 O   0  0  0  0  0  0  0  0  0  0  0  0
  184.4720  179.2010  144.1400 C   0  0  0  0  0  1  0  0  0  0  0  0
  191.1370  174.8300  143.5280 C   0  0  0  0  0  2  0  0  0  0  0  0
  188.9000  173.1870  140.7870 C   0  0  0  0  0  0  0  0  0  0  0  0
  190.3390  174.0390  140.9550 S   0  0  0  0  0  0  0  0  0  0  0  0
  188.3490  172.6710  139.5070 C   0  0  0  0  0  1  0  0  0  0  0  0
  189.0160  173.5880  143.0520 N   0  0  0  0  0  0  0  0  0  0  0  0
  188.3090  173.0300  142.0330 C   0  0  0  0  0  3  0  0  0  0  0  0
  190.1480  174.1870  142.6190 C   0  0  0  0  0  0  0  0  0  0  0  0
  1  7  1  0  0  0  0
  1  5  2  0  0  0  0
  2  3  1  6  0  0  0
  2  7  1  0  0  0  0
  3  8  1  0  0  0  0
  4 11  1  0  0  0  0
  4  2  1  0  0  0  0
  5  9  2  0  0  0  0
  7 10  1  0  0  0  0
  8 24  1  6  0  0  0
  8  1  1  0  0  0  0
 11  6  1  6  0  0  0
 11 10  1  0  0  0  0
 12  9  1  0  0  0  0
 13 12  1  0  0  0  0
 14 16  2  0  0  0  0
 14 15  1  0  0  0  0
 15 17  2  0  0  0  0
 16 19  1  0  0  0  0
 17 18  1  0  0  0  0
 17 13  1  0  0  0  0
 19 18  2  0  0  0  0
 20 21  1  0  0  0  0
 21 14  1  0  0  0  0
 22 23  1  0  0  0  0
 22 16  1  0  0  0  0
 25 26  1  0  0  0  0
 25 29  2  0  0  0  0
 26 30  1  0  0  0  0
 27 25  1  0  0  0  0
 29 28  1  0  0  0  0
 30 28  2  0  0  0  0
 30 24  1  0  0  0  0
M  END
>  <MODEL>
5

>  <REMARK>
 VINA RESULT:      -6.3      2.433      4.263
  Name = 
  7 active torsions:
  status: ('A' for Active; 'I' for Inactive)
    1  A    between atoms: C_2  and  C_28
    2  A    between atoms: N_4  and  C_23
    3  A    between atoms: N_4  and  C_26
    4  A    between atoms: C_5  and  O_14
    5  A    between atoms: C_7  and  C_26
    6  A    between atoms: C_18  and  C_21
    7  A    between atoms: C_18  and  C_30
                            x       y       z     vdW  Elec       q    Type
                         _______ _______ _______ _____ _____    ______ ____

>  <TORSDO>
F 7

$$$$
=
 OpenBabel11042413573D

 30 33  0  0  1  0  0  0  0  0999 V2000
  187.5730  177.2400  143.9820 C   0  0  0  0  0  0  0  0  0  0  0  0
  186.9190  178.5690  142.1740 C   0  0  1  0  0  3  0  0  0  0  0  0
  187.8800  177.4940  141.6540 C   0  0  0  0  0  2  0  0  0  0  0  0
  185.6220  178.4040  141.5700 N   0  0  0  0  0  0  0  0  0  0  0  0
  187.7870  176.9430  145.2360 C   0  0  0  0  0  0  0  0  0  0  0  0
  183.2480  178.1130  141.9290 C   0  0  0  0  0  1  0  0  0  0  0  0
  186.7510  178.3250  143.5930 N   0  0  0  0  0  0  0  0  0  0  0  0
  188.3800  176.7010  142.8620 C   0  0  2  0  0  3  0  0  0  0  0  0
  187.9970  176.6470  146.4860 C   0  0  0  0  0  3  0  0  0  0  0  0
  185.0720  178.4400  144.1250 S   0  0  0  0  0  0  0  0  0  0  0  0
  184.6450  178.3330  142.3950 C   0  0  0  0  0  0  0  0  0  0  0  0
  188.7880  175.5130  146.8190 N   0  0  0  0  0  2  0  0  0  0  0  0
  190.2190  175.5210  146.5840 C   0  0  0  0  0  2  0  0  0  0  0  0
  192.2640  173.0030  144.6520 C   0  0  0  0  0  0  0  0  0  0  0  0
  191.9230  174.1290  145.4050 C   0  0  0  0  0  3  0  0  0  0  0  0
  191.2660  172.0920  144.2690 C   0  0  0  0  0  0  0  0  0  0  0  0
  190.5900  174.3430  145.7560 C   0  0  0  0  0  0  0  0  0  0  0  0
  189.6350  173.4490  145.3840 N   0  0  0  0  0  0  0  0  0  0  0  0
  189.9410  172.3420  144.6550 C   0  0  0  0  0  3  0  0  0  0  0  0
  194.1300  173.7410  143.2130 C   0  0  0  0  0  1  0  0  0  0  0  0
  193.6960  172.7700  144.2970 C   0  0  0  0  0  2  0  0  0  0  0  0
  191.6050  170.9600  143.5180 O   0  0  0  0  0  0  0  0  0  0  0  0
  190.9600  170.6250  142.2960 C   0  0  0  0  0  1  0  0  0  0  0  0
  188.0740  175.2270  142.6470 C   0  0  0  0  0  2  0  0  0  0  0  0
  190.3550  173.5640  139.9540 C   0  0  0  0  0  0  0  0  0  0  0  0
  188.7340  173.8640  140.2820 S   0  0  0  0  0  0  0  0  0  0  0  0
  190.8770  172.8840  138.7400 C   0  0  0  0  0  1  0  0  0  0  0  0
  190.4180  174.6470  141.9860 N   0  0  0  0  0  0  0  0  0  0  0  0
  191.1350  174.0600  140.9900 C   0  0  0  0  0  3  0  0  0  0  0  0
  189.0880  174.6090  141.7480 C   0  0  0  0  0  0  0  0  0  0  0  0
  1  5  2  0  0  0  0
  2  3  1  6  0  0  0
  2  7  1  0  0  0  0
  3  8  1  0  0  0  0
  4  2  1  0  0  0  0
  4 11  2  0  0  0  0
  5  9  2  0  0  0  0
  6 11  1  0  0  0  0
  7  1  1  0  0  0  0
  7 10  1  0  0  0  0
  8 24  1  6  0  0  0
  8  1  1  0  0  0  0
  9 12  1  0  0  0  0
 11 10  1  0  0  0  0
 13 12  1  0  0  0  0
 14 15  1  0  0  0  0
 15 17  2  0  0  0  0
 16 14  2  0  0  0  0
 16 19  1  0  0  0  0
 17 13  1  0  0  0  0
 18 17  1  0  0  0  0
 19 18  2  0  0  0  0
 20 21  1  0  0  0  0
 21 14  1  0  0  0  0
 22 16  1  0  0  0  0
 23 22  1  0  0  0  0
 25 26  1  0  0  0  0
 25 29  2  0  0  0  0
 26 30  1  0  0  0  0
 27 25  1  0  0  0  0
 29 28  1  0  0  0  0
 30 28  2  0  0  0  0
 30 24  1  0  0  0  0
M  END
>  <MODEL>
6

>  <REMARK>
 VINA RESULT:      -6.3      3.519      8.369
  Name = 
  7 active torsions:
  status: ('A' for Active; 'I' for Inactive)
    1  A    between atoms: C_2  and  C_28
    2  A    between atoms: N_4  and  C_23
    3  A    between atoms: N_4  and  C_26
    4  A    between atoms: C_5  and  O_14
    5  A    between atoms: C_7  and  C_26
    6  A    between atoms: C_18  and  C_21
    7  A    between atoms: C_18  and  C_30
                            x       y       z     vdW  Elec       q    Type
                         _______ _______ _______ _____ _____    ______ ____

>  <TORSDO>
F 7

$$$$
=
 OpenBabel11042413573D

 30 33  0  0  1  0  0  0  0  0999 V2000
  193.4040  174.7490  146.1410 C   0  0  0  0  0  0  0  0  0  0  0  0
  195.6520  174.3570  145.6400 C   0  0  1  0  0  3  0  0  0  0  0  0
  194.8620  173.0820  145.3240 C   0  0  0  0  0  2  0  0  0  0  0  0
  196.2410  174.8830  144.4350 N   0  0  0  0  0  2  0  0  0  0  0  0
  192.3890  175.3340  146.7190 C   0  0  0  0  0  0  0  0  0  0  0  0
  196.4760  176.7920  142.9690 C   0  0  0  0  0  1  0  0  0  0  0  0
  194.6890  175.3390  146.0970 N   0  0  0  0  0  0  0  0  0  0  0  0
  193.4150  173.3190  145.7560 C   0  0  2  0  0  3  0  0  0  0  0  0
  191.3780  175.9200  147.2940 C   0  0  0  0  0  3  0  0  0  0  0  0
  194.9400  176.9390  145.3920 S   0  0  0  0  0  0  0  0  0  0  0  0
  195.9820  176.1150  144.2000 C   0  0  1  0  0  3  0  0  0  0  0  0
  190.0960  175.3060  147.2630 N   0  0  0  0  0  2  0  0  0  0  0  0
  189.4400  175.0370  145.9980 C   0  0  0  0  0  2  0  0  0  0  0  0
  187.3940  177.5870  144.1110 C   0  0  0  0  0  0  0  0  0  0  0  0
  188.3210  176.5800  144.3860 C   0  0  0  0  0  3  0  0  0  0  0  0
  186.6220  178.1280  145.1520 C   0  0  0  0  0  0  0  0  0  0  0  0
  188.4790  176.1310  145.6980 C   0  0  0  0  0  0  0  0  0  0  0  0
  187.7190  176.6590  146.6940 N   0  0  0  0  0  0  0  0  0  0  0  0
  186.8060  177.6370  146.4520 C   0  0  0  0  0  3  0  0  0  0  0  0
  188.5660  178.1660  142.0160 C   0  0  0  0  0  1  0  0  0  0  0  0
  187.2170  178.0490  142.7010 C   0  0  0  0  0  2  0  0  0  0  0  0
  185.6880  179.1350  144.8780 O   0  0  0  0  0  0  0  0  0  0  0  0
  184.3170  179.0330  145.2410 C   0  0  0  0  0  1  0  0  0  0  0  0
  192.4990  173.0820  144.5640 C   0  0  0  0  0  2  0  0  0  0  0  0
  193.8350  174.7580  141.3050 C   0  0  0  0  0  0  0  0  0  0  0  0
  193.8980  173.3010  142.1400 S   0  0  0  0  0  0  0  0  0  0  0  0
  194.4900  175.0330  140.0000 C   0  0  0  0  0  1  0  0  0  0  0  0
  192.5660  175.1690  143.1840 N   0  0  0  0  0  0  0  0  0  0  0  0
  193.0640  175.6660  142.0190 C   0  0  0  0  0  3  0  0  0  0  0  0
  192.9450  173.8890  143.3940 C   0  0  0  0  0  0  0  0  0  0  0  0
  1  5  2  0  0  0  0
  2  3  1  6  0  0  0
  2  7  1  0  0  0  0
  3  8  1  0  0  0  0
  4  2  1  0  0  0  0
  5  9  2  0  0  0  0
  7  1  1  0  0  0  0
  8 24  1  6  0  0  0
  8  1  1  0  0  0  0
 10  7  1  0  0  0  0
 11  6  1  6  0  0  0
 11  4  1  0  0  0  0
 11 10  1  0  0  0  0
 12  9  1  0  0  0  0
 13 12  1  0  0  0  0
 14 15  2  0  0  0  0
 14 16  1  0  0  0  0
 15 17  1  0  0  0  0
 16 19  2  0  0  0  0
 17 13  1  0  0  0  0
 17 18  2  0  0  0  0
 19 18  1  0  0  0  0
 20 21  1  0  0  0  0
 21 14  1  0  0  0  0
 22 16  1  0  0  0  0
 22 23  1  0  0  0  0
 25 29  2  0  0  0  0
 25 26  1  0  0  0  0
 26 30  1  0  0  0  0
 27 25  1  0  0  0  0
 28 30  2  0  0  0  0
 29 28  1  0  0  0  0
 30 24  1  0  0  0  0
M  END
>  <MODEL>
7

>  <REMARK>
 VINA RESULT:      -6.3      2.289      4.527
  Name = 
  7 active torsions:
  status: ('A' for Active; 'I' for Inactive)
    1  A    between atoms: C_2  and  C_28
    2  A    between atoms: N_4  and  C_23
    3  A    between atoms: N_4  and  C_26
    4  A    between atoms: C_5  and  O_14
    5  A    between atoms: C_7  and  C_26
    6  A    between atoms: C_18  and  C_21
    7  A    between atoms: C_18  and  C_30
                            x       y       z     vdW  Elec       q    Type
                         _______ _______ _______ _____ _____    ______ ____

>  <TORSDO>
F 7

$$$$
=
 OpenBabel11042413573D

 30 33  0  0  1  0  0  0  0  0999 V2000
  191.3070  174.8020  144.3750 C   0  0  0  0  0  0  0  0  0  0  0  0
  192.3930  174.4180  142.3420 C   0  0  1  0  0  3  0  0  0  0  0  0
  192.5080  175.9110  142.6710 C   0  0  0  0  0  2  0  0  0  0  0  0
  193.7020  173.8190  142.3080 N   0  0  0  0  0  2  0  0  0  0  0  0
  190.4720  174.5660  145.3520 C   0  0  0  0  0  0  0  0  0  0  0  0
  195.1490  172.0760  143.1560 C   0  0  0  0  0  1  0  0  0  0  0  0
  191.6810  173.8030  143.4450 N   0  0  0  0  0  0  0  0  0  0  0  0
  191.7040  176.1630  143.9470 C   0  0  2  0  0  3  0  0  0  0  0  0
  189.6400  174.3290  146.3250 C   0  0  0  0  0  3  0  0  0  0  0  0
  192.4030  172.2810  143.9760 S   0  0  0  0  0  0  0  0  0  0  0  0
  193.8410  172.7790  143.0440 C   0  0  1  0  0  3  0  0  0  0  0  0
  189.3400  175.3550  147.2620 N   0  0  0  0  0  2  0  0  0  0  0  0
  189.3830  176.7490  146.8650 C   0  0  0  0  0  2  0  0  0  0  0  0
  187.1670  177.8110  143.9990 C   0  0  0  0  0  0  0  0  0  0  0  0
  188.3100  177.5400  144.7550 C   0  0  0  0  0  3  0  0  0  0  0  0
  185.8950  177.5940  144.5550 C   0  0  0  0  0  0  0  0  0  0  0  0
  188.1740  177.0710  146.0620 C   0  0  0  0  0  0  0  0  0  0  0  0
  186.9370  176.8580  146.5840 N   0  0  0  0  0  0  0  0  0  0  0  0
  185.8080  177.1090  145.8670 C   0  0  0  0  0  3  0  0  0  0  0  0
  188.6830  177.9050  142.0520 C   0  0  0  0  0  1  0  0  0  0  0  0
  187.3200  178.2960  142.5940 C   0  0  0  0  0  2  0  0  0  0  0  0
  184.7480  177.8600  143.7980 O   0  0  0  0  0  0  0  0  0  0  0  0
  183.9600  179.0290  143.9790 C   0  0  0  0  0  1  0  0  0  0  0  0
  192.6130  176.8040  144.9850 C   0  0  0  0  0  2  0  0  0  0  0  0
  195.9180  174.7570  145.3160 C   0  0  0  0  0  0  0  0  0  0  0  0
  194.4130  174.9280  146.0460 S   0  0  0  0  0  0  0  0  0  0  0  0
  196.9720  173.7960  145.7310 C   0  0  0  0  0  1  0  0  0  0  0  0
  194.9130  176.4170  144.0750 N   0  0  0  0  0  0  0  0  0  0  0  0
  196.0200  175.6470  144.2560 C   0  0  0  0  0  3  0  0  0  0  0  0
  193.9500  176.1470  144.9840 C   0  0  0  0  0  0  0  0  0  0  0  0
  1  5  2  0  0  0  0
  2  3  1  1  0  0  0
  2  7  1  0  0  0  0
  3  8  1  0  0  0  0
  4  2  1  0  0  0  0
  4 11  1  0  0  0  0
  5  9  2  0  0  0  0
  7 10  1  0  0  0  0
  7  1  1  0  0  0  0
  8  1  1  0  0  0  0
  8 24  1  1  0  0  0
  9 12  1  0  0  0  0
 11  6  1  1  0  0  0
 11 10  1  0  0  0  0
 13 12  1  0  0  0  0
 14 16  2  0  0  0  0
 14 15  1  0  0  0  0
 15 17  2  0  0  0  0
 16 19  1  0  0  0  0
 17 18  1  0  0  0  0
 17 13  1  0  0  0  0
 19 18  2  0  0  0  0
 20 21  1  0  0  0  0
 21 14  1  0  0  0  0
 22 23  1  0  0  0  0
 22 16  1  0  0  0  0
 25 27  1  0  0  0  0
 25 26  1  0  0  0  0
 28 29  1  0  0  0  0
 28 30  2  0  0  0  0
 29 25  2  0  0  0  0
 30 24  1  0  0  0  0
 30 26  1  0  0  0  0
M  END
>  <MODEL>
8

>  <REMARK>
 VINA RESULT:      -6.2      2.147      4.438
  Name = 
  7 active torsions:
  status: ('A' for Active; 'I' for Inactive)
    1  A    between atoms: C_2  and  C_28
    2  A    between atoms: N_4  and  C_23
    3  A    between atoms: N_4  and  C_26
    4  A    between atoms: C_5  and  O_14
    5  A    between atoms: C_7  and  C_26
    6  A    between atoms: C_18  and  C_21
    7  A    between atoms: C_18  and  C_30
                            x       y       z     vdW  Elec       q    Type
                         _______ _______ _______ _____ _____    ______ ____

>  <TORSDO>
F 7

$$$$
=
 OpenBabel11042413573D

 30 33  0  0  1  0  0  0  0  0999 V2000
  193.2230  172.6220  144.8500 C   0  0  0  0  0  0  0  0  0  0  0  0
  194.2270  170.5490  145.2460 C   0  0  1  0  0  3  0  0  0  0  0  0
  193.0780  170.3420  144.2520 C   0  0  0  0  0  2  0  0  0  0  0  0
  195.4820  170.2080  144.6270 N   0  0  0  0  0  0  0  0  0  0  0  0
  192.8960  173.8620  145.0960 C   0  0  0  0  0  0  0  0  0  0  0  0
  197.7180  170.9340  144.0610 C   0  0  0  0  0  1  0  0  0  0  0  0
  194.2760  171.9690  145.5340 N   0  0  0  0  0  0  0  0  0  0  0  0
  192.3670  171.6850  144.0850 C   0  0  2  0  0  3  0  0  0  0  0  0
  192.5730  175.1000  145.3410 C   0  0  0  0  0  3  0  0  0  0  0  0
  195.9160  172.6230  145.5290 S   0  0  0  0  0  0  0  0  0  0  0  0
  196.3840  171.1150  144.6960 C   0  0  0  0  0  0  0  0  0  0  0  0
  191.5410  175.7230  144.5870 N   0  0  0  0  0  2  0  0  0  0  0  0
  191.0950  177.0620  144.9190 C   0  0  0  0  0  2  0  0  0  0  0  0
  187.5300  177.8760  143.9780 C   0  0  0  0  0  0  0  0  0  0  0  0
  188.6500  177.5350  144.7390 C   0  0  0  0  0  3  0  0  0  0  0  0
  187.6640  178.0880  142.5960 C   0  0  0  0  0  0  0  0  0  0  0  0
  189.8900  177.3930  144.1140 C   0  0  0  0  0  0  0  0  0  0  0  0
  190.0060  177.6090  142.7760 N   0  0  0  0  0  0  0  0  0  0  0  0
  188.9320  177.9470  142.0130 C   0  0  0  0  0  3  0  0  0  0  0  0
  185.9370  176.8600  145.5670 C   0  0  0  0  0  1  0  0  0  0  0  0
  186.2110  178.0440  144.6580 C   0  0  0  0  0  2  0  0  0  0  0  0
  186.5450  178.4350  141.8310 O   0  0  0  0  0  0  0  0  0  0  0  0
  185.9610  177.5560  140.8780 C   0  0  0  0  0  1  0  0  0  0  0  0
  192.3550  172.0580  142.6100 C   0  0  0  0  0  2  0  0  0  0  0  0
  188.9440  173.9040  142.1910 C   0  0  0  0  0  0  0  0  0  0  0  0
  189.7370  172.8550  143.2380 S   0  0  0  0  0  0  0  0  0  0  0  0
  187.5750  174.4450  142.3870 C   0  0  0  0  0  1  0  0  0  0  0  0
  190.9850  173.5810  141.1720 N   0  0  0  0  0  0  0  0  0  0  0  0
  189.7730  174.1970  141.1170 C   0  0  0  0  0  3  0  0  0  0  0  0
  191.1120  172.8030  142.2700 C   0  0  0  0  0  0  0  0  0  0  0  0
  1  5  2  0  0  0  0
  1  7  1  0  0  0  0
  2  3  1  6  0  0  0
  2  7  1  0  0  0  0
  4 11  2  0  0  0  0
  4  2  1  0  0  0  0
  5  9  2  0  0  0  0
  6 11  1  0  0  0  0
  8 24  1  6  0  0  0
  8  3  1  0  0  0  0
  8  1  1  0  0  0  0
 10  7  1  0  0  0  0
 11 10  1  0  0  0  0
 12 13  1  0  0  0  0
 12  9  1  0  0  0  0
 14 21  1  0  0  0  0
 14 15  1  0  0  0  0
 16 14  2  0  0  0  0
 17 15  2  0  0  0  0
 17 13  1  0  0  0  0
 18 17  1  0  0  0  0
 19 16  1  0  0  0  0
 19 18  2  0  0  0  0
 21 20  1  0  0  0  0
 22 16  1  0  0  0  0
 23 22  1  0  0  0  0
 25 27  1  0  0  0  0
 25 26  1  0  0  0  0
 28 30  2  0  0  0  0
 29 28  1  0  0  0  0
 29 25  2  0  0  0  0
 30 24  1  0  0  0  0
 30 26  1  0  0  0  0
M  END
>  <MODEL>
9

>  <REMARK>
 VINA RESULT:      -5.9      2.546      3.890
  Name = 
  7 active torsions:
  status: ('A' for Active; 'I' for Inactive)
    1  A    between atoms: C_2  and  C_28
    2  A    between atoms: N_4  and  C_23
    3  A    between atoms: N_4  and  C_26
    4  A    between atoms: C_5  and  O_14
    5  A    between atoms: C_7  and  C_26
    6  A    between atoms: C_18  and  C_21
    7  A    between atoms: C_18  and  C_30
                            x       y       z     vdW  Elec       q    Type
                         _______ _______ _______ _____ _____    ______ ____

>  <TORSDO>
F 7

$$$$
