=
 OpenBabel11042418283D

 30 33  0  0  1  0  0  0  0  0999 V2000
  190.6140  175.2740  147.8690 N   0  0  0  0  0  0  0  0  0  0  0  0
  186.3620  176.8940  145.8690 C   0  0  0  0  0  2  0  0  0  0  0  0
  185.8490  178.5960  144.2480 N   0  0  0  0  0  0  0  0  0  0  0  0
  190.6090  176.2710  145.7850 C   0  0  0  0  0  0  0  0  0  0  0  0
  188.5430  177.1350  144.6620 C   0  0  0  0  0  0  0  0  0  0  0  0
  191.8090  175.2970  147.4260 N   0  0  0  0  0  2  0  0  0  0  0  0
  190.0490  176.9250  144.5630 C   0  0  0  0  0  3  0  0  0  0  0  0
  187.9730  177.7470  143.5270 O   0  0  0  0  0  0  0  0  0  0  0  0
  186.7060  178.3260  143.3100 C   0  0  0  0  0  0  0  0  0  0  0  0
  189.7950  175.8740  146.8830 C   0  0  0  0  0  0  0  0  0  0  0  0
  186.0340  178.3520  145.6650 C   0  0  1  0  0  3  0  0  0  0  0  0
  191.8430  175.9110  146.1270 C   0  0  0  0  0  0  0  0  0  0  0  0
  187.8320  176.7210  145.7550 C   0  0  0  0  0  0  0  0  0  0  0  0
  188.4860  176.0640  146.9140 C   0  0  0  0  0  3  0  0  0  0  0  0
  194.4440  175.6150  143.3810 C   0  0  0  0  0  3  0  0  0  0  0  0
  193.2640  175.4360  144.1080 C   0  0  0  0  0  3  0  0  0  0  0  0
  195.2790  177.0960  145.1040 C   0  0  0  0  0  3  0  0  0  0  0  0
  194.0980  176.9150  145.8310 C   0  0  0  0  0  3  0  0  0  0  0  0
  193.0810  176.0840  145.3400 C   0  0  0  0  0  0  0  0  0  0  0  0
  195.4510  176.4460  143.8790 C   0  0  0  0  0  3  0  0  0  0  0  0
  184.7890  178.7160  146.4090 C   0  0  0  0  0  3  0  0  0  0  0  0
  184.6650  178.4550  147.5960 O   0  0  0  0  0  0  0  0  0  0  0  0
  186.3340  178.6580  141.9100 C   0  0  0  0  0  2  0  0  0  0  0  0
  185.4630  177.6230  141.3780 N   0  0  0  0  0  2  0  0  0  0  0  0
  184.3720  178.2940  140.6930 C   0  0  0  0  0  2  0  0  0  0  0  0
  183.1330  178.2900  141.5710 C   0  0  0  0  0  2  0  0  0  0  0  0
  181.8780  178.2060  140.7160 C   0  0  0  0  0  2  0  0  0  0  0  0
  180.7170  178.9320  141.3760 C   0  0  0  0  0  3  0  0  0  0  0  0
  180.4140  180.0790  140.6430 O   0  0  0  0  0  1  0  0  0  0  0  0
  179.5970  178.1010  141.4160 O   0  0  0  0  0  1  0  0  0  0  0  0
  3 11  1  0  0  0  0
  4 12  2  0  0  0  0
  4 10  1  0  0  0  0
  5 13  1  0  0  0  0
  6  1  1  0  0  0  0
  7  5  2  0  0  0  0
  7  4  1  0  0  0  0
  8  5  1  0  0  0  0
  9  8  1  0  0  0  0
  9  3  2  0  0  0  0
 10 14  1  0  0  0  0
 10  1  2  0  0  0  0
 11  2  1  0  0  0  0
 11 21  1  1  0  0  0
 12  6  1  0  0  0  0
 13  2  1  0  0  0  0
 13 14  2  0  0  0  0
 15 20  2  0  0  0  0
 15 16  1  0  0  0  0
 16 19  2  0  0  0  0
 17 18  2  0  0  0  0
 19 18  1  0  0  0  0
 19 12  1  0  0  0  0
 20 17  1  0  0  0  0
 21 22  2  0  0  0  0
 23  9  1  0  0  0  0
 24 23  1  0  0  0  0
 25 24  1  0  0  0  0
 25 26  1  0  0  0  0
 27 28  1  0  0  0  0
 27 26  1  0  0  0  0
 28 30  1  0  0  0  0
 29 28  1  0  0  0  0
M  END
>  <MODEL>
1

>  <REMARK>
 VINA RESULT:      -7.3      0.000      0.000
  Name = 
  8 active torsions:
  status: ('A' for Active; 'I' for Inactive)
    1  A    between atoms: C_6  and  N_15
    2  A    between atoms: C_6  and  C_20
    3  A    between atoms: C_10  and  CA_23
    4  A    between atoms: C_14  and  C_25
    5  A    between atoms: N_15  and  C_19
    6  A    between atoms: C_18  and  C_19
    7  A    between atoms: C_18  and  C_21
    8  A    between atoms: C_21  and  C_24
                            x       y       z     vdW  Elec       q    Type
                         _______ _______ _______ _____ _____    ______ ____

>  <TORSDO>
F 8

$$$$
=
 OpenBabel11042418283D

 30 33  0  0  1  0  0  0  0  0999 V2000
  190.7380  175.2200  148.0040 N   0  0  0  0  0  0  0  0  0  0  0  0
  186.4810  176.7890  145.9740 C   0  0  0  0  0  2  0  0  0  0  0  0
  185.9570  178.4960  144.3620 N   0  0  0  0  0  0  0  0  0  0  0  0
  190.7380  176.2340  145.9270 C   0  0  0  0  0  0  0  0  0  0  0  0
  188.6700  177.0740  144.7910 C   0  0  0  0  0  0  0  0  0  0  0  0
  191.9370  175.2650  147.5730 N   0  0  0  0  0  2  0  0  0  0  0  0
  190.1800  176.8890  144.7060 C   0  0  0  0  0  3  0  0  0  0  0  0
  188.1010  177.6860  143.6550 O   0  0  0  0  0  0  0  0  0  0  0  0
  186.8280  178.2470  143.4300 C   0  0  0  0  0  0  0  0  0  0  0  0
  189.9190  175.8150  147.0140 C   0  0  0  0  0  0  0  0  0  0  0  0
  186.1320  178.2430  145.7780 C   0  0  1  0  0  3  0  0  0  0  0  0
  191.9740  175.8900  146.2800 C   0  0  0  0  0  0  0  0  0  0  0  0
  187.9540  176.6400  145.8730 C   0  0  0  0  0  0  0  0  0  0  0  0
  188.6070  175.9840  147.0330 C   0  0  0  0  0  3  0  0  0  0  0  0
  195.3370  177.2210  145.1360 C   0  0  0  0  0  3  0  0  0  0  0  0
  194.1690  177.0500  145.8830 C   0  0  0  0  0  3  0  0  0  0  0  0
  194.6230  175.4730  143.6220 C   0  0  0  0  0  3  0  0  0  0  0  0
  193.4540  175.3040  144.3700 C   0  0  0  0  0  3  0  0  0  0  0  0
  193.2170  176.0900  145.5060 C   0  0  0  0  0  0  0  0  0  0  0  0
  195.5640  176.4320  144.0050 C   0  0  0  0  0  3  0  0  0  0  0  0
  184.8740  178.5820  146.5120 C   0  0  0  0  0  3  0  0  0  0  0  0
  183.8700  178.9350  145.9120 O   0  0  0  0  0  0  0  0  0  0  0  0
  186.4650  178.5850  142.0290 C   0  0  0  0  0  2  0  0  0  0  0  0
  187.3880  177.9340  141.1150 N   0  0  0  0  0  2  0  0  0  0  0  0
  186.9390  176.5620  140.9570 C   0  0  0  0  0  2  0  0  0  0  0  0
  188.1250  175.6180  141.0420 C   0  0  0  0  0  2  0  0  0  0  0  0
  187.8800  174.5530  142.0980 C   0  0  0  0  0  2  0  0  0  0  0  0
  189.1620  173.8040  142.4290 C   0  0  0  0  0  3  0  0  0  0  0  0
  190.2480  174.4840  141.8790 O   0  0  0  0  0  1  0  0  0  0  0  0
  189.3210  173.7220  143.8130 O   0  0  0  0  0  1  0  0  0  0  0  0
  3 11  1  0  0  0  0
  4 12  2  0  0  0  0
  4 10  1  0  0  0  0
  5 13  1  0  0  0  0
  6  1  1  0  0  0  0
  7  5  2  0  0  0  0
  7  4  1  0  0  0  0
  8  5  1  0  0  0  0
  9  8  1  0  0  0  0
  9  3  2  0  0  0  0
 10 14  1  0  0  0  0
 10  1  2  0  0  0  0
 11  2  1  0  0  0  0
 11 21  1  1  0  0  0
 12  6  1  0  0  0  0
 13  2  1  0  0  0  0
 13 14  2  0  0  0  0
 15 16  1  0  0  0  0
 17 20  1  0  0  0  0
 17 18  2  0  0  0  0
 18 19  1  0  0  0  0
 19 16  2  0  0  0  0
 19 12  1  0  0  0  0
 20 15  2  0  0  0  0
 22 21  2  0  0  0  0
 23  9  1  0  0  0  0
 24 23  1  0  0  0  0
 25 26  1  0  0  0  0
 25 24  1  0  0  0  0
 26 27  1  0  0  0  0
 27 28  1  0  0  0  0
 28 30  1  0  0  0  0
 29 28  1  0  0  0  0
M  END
>  <MODEL>
2

>  <REMARK>
 VINA RESULT:      -7.2      2.330      3.969
  Name = 
  8 active torsions:
  status: ('A' for Active; 'I' for Inactive)
    1  A    between atoms: C_6  and  N_15
    2  A    between atoms: C_6  and  C_20
    3  A    between atoms: C_10  and  CA_23
    4  A    between atoms: C_14  and  C_25
    5  A    between atoms: N_15  and  C_19
    6  A    between atoms: C_18  and  C_19
    7  A    between atoms: C_18  and  C_21
    8  A    between atoms: C_21  and  C_24
                            x       y       z     vdW  Elec       q    Type
                         _______ _______ _______ _____ _____    ______ ____

>  <TORSDO>
F 8

$$$$
=
 OpenBabel11042418283D

 30 33  0  0  1  0  0  0  0  0999 V2000
  187.4760  175.4060  142.0790 N   0  0  0  0  0  0  0  0  0  0  0  0
  192.4170  174.9300  142.3230 C   0  0  0  0  0  2  0  0  0  0  0  0
  194.1480  176.2400  143.3600 N   0  0  0  0  0  0  0  0  0  0  0  0
  188.6540  176.3360  143.8370 C   0  0  0  0  0  0  0  0  0  0  0  0
  191.1420  176.1760  144.0810 C   0  0  0  0  0  0  0  0  0  0  0  0
  186.6520  175.9870  142.8600 N   0  0  0  0  0  2  0  0  0  0  0  0
  189.8370  176.6860  144.6810 C   0  0  0  0  0  3  0  0  0  0  0  0
  192.2840  176.4810  144.8490 O   0  0  0  0  0  0  0  0  0  0  0  0
  193.6600  176.4160  144.5510 C   0  0  0  0  0  0  0  0  0  0  0  0
  188.7660  175.5830  142.6340 C   0  0  0  0  0  0  0  0  0  0  0  0
  193.3790  176.0770  142.1420 C   0  0  1  0  0  3  0  0  0  0  0  0
  187.3520  176.5770  143.9670 C   0  0  0  0  0  0  0  0  0  0  0  0
  191.1640  175.4560  142.9180 C   0  0  0  0  0  0  0  0  0  0  0  0
  189.9240  175.1480  142.1630 C   0  0  0  0  0  3  0  0  0  0  0  0
  185.5390  179.2950  145.8960 C   0  0  0  0  0  3  0  0  0  0  0  0
  186.1710  178.6120  144.8530 C   0  0  0  0  0  3  0  0  0  0  0  0
  185.9150  177.4040  147.3590 C   0  0  0  0  0  3  0  0  0  0  0  0
  186.5470  176.7230  146.3150 C   0  0  0  0  0  3  0  0  0  0  0  0
  186.6810  177.3190  145.0540 C   0  0  0  0  0  0  0  0  0  0  0  0
  185.4110  178.6910  147.1490 C   0  0  0  0  0  3  0  0  0  0  0  0
  194.3000  175.8090  140.9940 C   0  0  0  0  0  3  0  0  0  0  0  0
  195.4150  176.3080  140.9520 O   0  0  0  0  0  0  0  0  0  0  0  0
  194.6150  176.5710  145.6790 C   0  0  0  0  0  2  0  0  0  0  0  0
  194.7670  175.3010  146.3680 N   0  0  0  0  0  2  0  0  0  0  0  0
  195.8710  174.6010  145.7360 C   0  0  0  0  0  2  0  0  0  0  0  0
  195.4740  173.1620  145.4540 C   0  0  0  0  0  2  0  0  0  0  0  0
  193.9890  172.9610  145.7070 C   0  0  0  0  0  2  0  0  0  0  0  0
  193.3960  171.9620  144.7260 C   0  0  0  0  0  3  0  0  0  0  0  0
  192.0450  172.2490  144.5340 O   0  0  0  0  0  1  0  0  0  0  0  0
  194.0630  172.0440  143.5030 O   0  0  0  0  0  1  0  0  0  0  0  0
  1 10  2  0  0  0  0
  1  6  1  0  0  0  0
  2 13  1  0  0  0  0
  3  9  2  0  0  0  0
  4 12  2  0  0  0  0
  4  7  1  0  0  0  0
  5  7  2  0  0  0  0
  5  8  1  0  0  0  0
  6 12  1  0  0  0  0
  9  8  1  0  0  0  0
  9 23  1  0  0  0  0
 10  4  1  0  0  0  0
 11 21  1  6  0  0  0
 11  2  1  0  0  0  0
 11  3  1  0  0  0  0
 12 19  1  0  0  0  0
 13  5  1  0  0  0  0
 14 10  1  0  0  0  0
 14 13  2  0  0  0  0
 15 20  1  0  0  0  0
 16 19  1  0  0  0  0
 16 15  2  0  0  0  0
 18 17  1  0  0  0  0
 19 18  2  0  0  0  0
 20 17  2  0  0  0  0
 22 21  2  0  0  0  0
 23 24  1  0  0  0  0
 25 24  1  0  0  0  0
 26 27  1  0  0  0  0
 26 25  1  0  0  0  0
 28 27  1  0  0  0  0
 29 28  1  0  0  0  0
 30 28  1  0  0  0  0
M  END
>  <MODEL>
3

>  <REMARK>
 VINA RESULT:      -6.9      4.639      9.462
  Name = 
  8 active torsions:
  status: ('A' for Active; 'I' for Inactive)
    1  A    between atoms: C_6  and  N_15
    2  A    between atoms: C_6  and  C_20
    3  A    between atoms: C_10  and  CA_23
    4  A    between atoms: C_14  and  C_25
    5  A    between atoms: N_15  and  C_19
    6  A    between atoms: C_18  and  C_19
    7  A    between atoms: C_18  and  C_21
    8  A    between atoms: C_21  and  C_24
                            x       y       z     vdW  Elec       q    Type
                         _______ _______ _______ _____ _____    ______ ____

>  <TORSDO>
F 8

$$$$
=
 OpenBabel11042418283D

 30 33  0  0  1  0  0  0  0  0999 V2000
  187.5040  174.6410  141.8810 N   0  0  0  0  0  0  0  0  0  0  0  0
  192.4440  174.1330  141.6690 C   0  0  0  0  0  2  0  0  0  0  0  0
  194.2750  175.5960  142.2150 N   0  0  0  0  0  0  0  0  0  0  0  0
  188.8680  175.8900  143.2670 C   0  0  0  0  0  0  0  0  0  0  0  0
  191.3680  175.7370  143.2630 C   0  0  0  0  0  0  0  0  0  0  0  0
  186.7700  175.3860  142.6110 N   0  0  0  0  0  2  0  0  0  0  0  0
  190.1360  176.3830  143.8840 C   0  0  0  0  0  3  0  0  0  0  0  0
  192.5880  176.1720  143.8200 O   0  0  0  0  0  0  0  0  0  0  0  0
  193.9220  176.0220  143.3910 C   0  0  0  0  0  0  0  0  0  0  0  0
  188.8480  174.9040  142.2400 C   0  0  0  0  0  0  0  0  0  0  0  0
  193.3750  175.2000  141.1500 C   0  0  1  0  0  3  0  0  0  0  0  0
  187.5880  176.1770  143.4880 C   0  0  0  0  0  0  0  0  0  0  0  0
  191.2630  174.7940  142.2780 C   0  0  0  0  0  0  0  0  0  0  0  0
  189.9470  174.3600  141.7440 C   0  0  0  0  0  3  0  0  0  0  0  0
  186.5580  177.8130  146.7530 C   0  0  0  0  0  3  0  0  0  0  0  0
  187.0830  176.8880  145.8470 C   0  0  0  0  0  3  0  0  0  0  0  0
  185.9340  179.2570  144.9140 C   0  0  0  0  0  3  0  0  0  0  0  0
  186.4590  178.3300  144.0080 C   0  0  0  0  0  3  0  0  0  0  0  0
  187.0390  177.1390  144.4660 C   0  0  0  0  0  0  0  0  0  0  0  0
  185.9830  178.9980  146.2860 C   0  0  0  0  0  3  0  0  0  0  0  0
  194.1620  174.6850  139.9870 C   0  0  0  0  0  3  0  0  0  0  0  0
  194.8890  175.4250  139.3420 O   0  0  0  0  0  0  0  0  0  0  0  0
  194.9970  176.3880  144.3500 C   0  0  0  0  0  2  0  0  0  0  0  0
  194.4370  177.1820  145.4300 N   0  0  0  0  0  2  0  0  0  0  0  0
  194.3130  176.3080  146.5840 C   0  0  0  0  0  2  0  0  0  0  0  0
  192.9850  176.5550  147.2770 C   0  0  0  0  0  2  0  0  0  0  0  0
  192.0490  175.3750  147.0650 C   0  0  0  0  0  2  0  0  0  0  0  0
  190.6790  175.6480  147.6650 C   0  0  0  0  0  3  0  0  0  0  0  0
  190.2860  176.9480  147.3460 O   0  0  0  0  0  1  0  0  0  0  0  0
  189.7470  174.7450  147.1530 O   0  0  0  0  0  1  0  0  0  0  0  0
  1 10  2  0  0  0  0
  1  6  1  0  0  0  0
  2 13  1  0  0  0  0
  3  9  2  0  0  0  0
  4 12  2  0  0  0  0
  4  7  1  0  0  0  0
  5  8  1  0  0  0  0
  5  7  2  0  0  0  0
  6 12  1  0  0  0  0
  9  8  1  0  0  0  0
  9 23  1  0  0  0  0
 10  4  1  0  0  0  0
 11 21  1  6  0  0  0
 11  2  1  0  0  0  0
 11  3  1  0  0  0  0
 12 19  1  0  0  0  0
 13  5  1  0  0  0  0
 14 10  1  0  0  0  0
 14 13  2  0  0  0  0
 16 15  2  0  0  0  0
 17 20  2  0  0  0  0
 18 19  2  0  0  0  0
 18 17  1  0  0  0  0
 19 16  1  0  0  0  0
 20 15  1  0  0  0  0
 22 21  2  0  0  0  0
 23 24  1  0  0  0  0
 24 25  1  0  0  0  0
 25 26  1  0  0  0  0
 27 26  1  0  0  0  0
 27 28  1  0  0  0  0
 29 28  1  0  0  0  0
 30 28  1  0  0  0  0
M  END
>  <MODEL>
4

>  <REMARK>
 VINA RESULT:      -6.8      4.274      8.823
  Name = 
  8 active torsions:
  status: ('A' for Active; 'I' for Inactive)
    1  A    between atoms: C_6  and  N_15
    2  A    between atoms: C_6  and  C_20
    3  A    between atoms: C_10  and  CA_23
    4  A    between atoms: C_14  and  C_25
    5  A    between atoms: N_15  and  C_19
    6  A    between atoms: C_18  and  C_19
    7  A    between atoms: C_18  and  C_21
    8  A    between atoms: C_21  and  C_24
                            x       y       z     vdW  Elec       q    Type
                         _______ _______ _______ _____ _____    ______ ____

>  <TORSDO>
F 8

$$$$
=
 OpenBabel11042418283D

 30 33  0  0  1  0  0  0  0  0999 V2000
  188.6050  174.4760  139.3990 N   0  0  0  0  0  0  0  0  0  0  0  0
  185.5290  178.1270  140.7820 C   0  0  0  0  0  2  0  0  0  0  0  0
  184.4310  178.6570  142.8560 N   0  0  0  0  0  0  0  0  0  0  0  0
  188.4750  175.1170  141.6150 C   0  0  0  0  0  0  0  0  0  0  0  0
  186.9670  176.9350  142.4500 C   0  0  0  0  0  0  0  0  0  0  0  0
  189.4100  173.7580  140.0780 N   0  0  0  0  0  0  0  0  0  0  0  0
  188.0250  175.8970  142.8070 C   0  0  0  0  0  3  0  0  0  0  0  0
  186.5180  177.6980  143.5470 O   0  0  0  0  0  0  0  0  0  0  0  0
  185.4140  178.5610  143.7010 C   0  0  0  0  0  0  0  0  0  0  0  0
  187.9760  175.3630  140.3050 C   0  0  2  0  0  3  0  0  0  0  0  0
  184.2950  177.9100  141.6210 C   0  0  1  0  0  3  0  0  0  0  0  0
  189.3560  174.1320  141.4640 C   0  0  0  0  0  0  0  0  0  0  0  0
  186.5420  177.1110  141.1620 C   0  0  0  0  0  0  0  0  0  0  0  0
  187.0680  176.2890  140.0430 C   0  0  0  0  0  3  0  0  0  0  0  0
  192.3190  173.0630  143.5780 C   0  0  0  0  0  3  0  0  0  0  0  0
  191.5650  173.6790  142.5770 C   0  0  0  0  0  3  0  0  0  0  0  0
  190.3070  172.0580  144.4730 C   0  0  0  0  0  3  0  0  0  0  0  0
  189.5540  172.6750  143.4700 C   0  0  0  0  0  3  0  0  0  0  0  0
  190.1750  173.4910  142.5140 C   0  0  0  0  0  0  0  0  0  0  0  0
  191.6900  172.2520  144.5270 C   0  0  0  0  0  3  0  0  0  0  0  0
  183.0760  178.3670  140.8850 C   0  0  0  0  0  3  0  0  0  0  0  0
  182.5690  177.6750  140.0150 O   0  0  0  0  0  0  0  0  0  0  0  0
  185.3700  179.4090  144.9200 C   0  0  0  0  0  2  0  0  0  0  0  0
  184.1630  179.1170  145.6750 N   0  0  0  0  0  2  0  0  0  0  0  0
  184.4420  177.9500  146.4920 C   0  0  0  0  0  2  0  0  0  0  0  0
  185.7660  178.1310  147.2140 C   0  0  0  0  0  2  0  0  0  0  0  0
  186.4400  176.7860  147.4320 C   0  0  0  0  0  2  0  0  0  0  0  0
  187.7440  176.6950  146.6540 C   0  0  0  0  0  3  0  0  0  0  0  0
  188.6290  177.6670  147.1200 O   0  0  0  0  0  1  0  0  0  0  0  0
  188.3130  175.4330  146.8270 O   0  0  0  0  0  1  0  0  0  0  0  0
  1  6  2  0  0  0  0
  1 10  1  0  0  0  0
  2 13  1  0  0  0  0
  2 11  1  0  0  0  0
  3  9  2  0  0  0  0
  4  7  1  0  0  0  0
  5  7  2  0  0  0  0
  5  8  1  0  0  0  0
  6 12  1  0  0  0  0
  8  9  1  0  0  0  0
  9 23  1  0  0  0  0
 10 14  1  1  0  0  0
 10  4  1  0  0  0  0
 11 21  1  6  0  0  0
 11  3  1  0  0  0  0
 12  4  2  0  0  0  0
 12 19  1  0  0  0  0
 13  5  1  0  0  0  0
 14 13  2  0  0  0  0
 15 20  1  0  0  0  0
 16 15  2  0  0  0  0
 17 20  2  0  0  0  0
 18 17  1  0  0  0  0
 19 16  1  0  0  0  0
 19 18  2  0  0  0  0
 22 21  2  0  0  0  0
 23 24  1  0  0  0  0
 24 25  1  0  0  0  0
 25 26  1  0  0  0  0
 26 27  1  0  0  0  0
 28 30  1  0  0  0  0
 28 29  1  0  0  0  0
 28 27  1  0  0  0  0
M  END
>  <MODEL>
5

>  <REMARK>
 VINA RESULT:      -6.7      3.350      6.143
  Name = 
  8 active torsions:
  status: ('A' for Active; 'I' for Inactive)
    1  A    between atoms: C_6  and  N_15
    2  A    between atoms: C_6  and  C_20
    3  A    between atoms: C_10  and  CA_23
    4  A    between atoms: C_14  and  C_25
    5  A    between atoms: N_15  and  C_19
    6  A    between atoms: C_18  and  C_19
    7  A    between atoms: C_18  and  C_21
    8  A    between atoms: C_21  and  C_24
                            x       y       z     vdW  Elec       q    Type
                         _______ _______ _______ _____ _____    ______ ____

>  <TORSDO>
F 8

$$$$
=
 OpenBabel11042418283D

 30 33  0  0  1  0  0  0  0  0999 V2000
  188.1210  175.6710  147.3430 N   0  0  0  0  0  0  0  0  0  0  0  0
  192.5080  174.1680  145.5550 C   0  0  0  0  0  2  0  0  0  0  0  0
  193.3000  173.6750  143.3370 N   0  0  0  0  0  0  0  0  0  0  0  0
  188.7160  176.1430  145.1600 C   0  0  0  0  0  0  0  0  0  0  0  0
  190.8900  175.4430  144.1310 C   0  0  0  0  0  0  0  0  0  0  0  0
  187.1730  176.3240  146.7940 N   0  0  0  0  0  2  0  0  0  0  0  0
  189.5680  176.1750  143.9330 C   0  0  0  0  0  3  0  0  0  0  0  0
  191.7280  175.4530  142.9960 O   0  0  0  0  0  0  0  0  0  0  0  0
  192.8850  174.7140  142.6780 C   0  0  0  0  0  0  0  0  0  0  0  0
  189.1370  175.5180  146.3690 C   0  0  0  0  0  0  0  0  0  0  0  0
  192.6620  173.0980  144.5040 C   0  0  1  0  0  3  0  0  0  0  0  0
  187.5110  176.6360  145.4330 C   0  0  0  0  0  0  0  0  0  0  0  0
  191.2200  174.8690  145.3280 C   0  0  0  0  0  0  0  0  0  0  0  0
  190.3040  174.9080  146.4950 C   0  0  0  0  0  3  0  0  0  0  0  0
  185.1950  177.5200  142.5610 C   0  0  0  0  0  3  0  0  0  0  0  0
  186.0310  176.7850  143.4060 C   0  0  0  0  0  3  0  0  0  0  0  0
  185.5270  179.4800  143.9410 C   0  0  0  0  0  3  0  0  0  0  0  0
  186.3650  178.7440  144.7840 C   0  0  0  0  0  3  0  0  0  0  0  0
  186.6240  177.3910  144.5250 C   0  0  0  0  0  0  0  0  0  0  0  0
  184.9430  178.8670  142.8290 C   0  0  0  0  0  3  0  0  0  0  0  0
  193.4910  171.9680  145.0270 C   0  0  0  0  0  3  0  0  0  0  0  0
  194.4940  171.5960  144.4370 O   0  0  0  0  0  0  0  0  0  0  0  0
  193.6760  175.1520  141.4990 C   0  0  0  0  0  2  0  0  0  0  0  0
  194.4910  176.3000  141.8570 N   0  0  0  0  0  2  0  0  0  0  0  0
  195.8370  175.8100  142.0980 C   0  0  0  0  0  2  0  0  0  0  0  0
  196.3910  176.4280  143.3700 C   0  0  0  0  0  2  0  0  0  0  0  0
  195.8380  175.7130  144.5920 C   0  0  0  0  0  2  0  0  0  0  0  0
  196.5940  174.4210  144.8590 C   0  0  0  0  0  3  0  0  0  0  0  0
  197.9380  174.5950  144.5310 O   0  0  0  0  0  1  0  0  0  0  0  0
  196.4890  174.0790  146.2080 O   0  0  0  0  0  1  0  0  0  0  0  0
  3 11  1  0  0  0  0
  4 12  2  0  0  0  0
  4 10  1  0  0  0  0
  5 13  1  0  0  0  0
  6  1  1  0  0  0  0
  7  5  2  0  0  0  0
  7  4  1  0  0  0  0
  8  5  1  0  0  0  0
  9  8  1  0  0  0  0
  9  3  2  0  0  0  0
 10 14  1  0  0  0  0
 10  1  2  0  0  0  0
 11 21  1  1  0  0  0
 11  2  1  0  0  0  0
 12  6  1  0  0  0  0
 13  2  1  0  0  0  0
 13 14  2  0  0  0  0
 15 20  2  0  0  0  0
 15 16  1  0  0  0  0
 16 19  2  0  0  0  0
 17 18  2  0  0  0  0
 19 18  1  0  0  0  0
 19 12  1  0  0  0  0
 20 17  1  0  0  0  0
 22 21  2  0  0  0  0
 23 24  1  0  0  0  0
 23  9  1  0  0  0  0
 24 25  1  0  0  0  0
 25 26  1  0  0  0  0
 26 27  1  0  0  0  0
 27 28  1  0  0  0  0
 28 30  1  0  0  0  0
 29 28  1  0  0  0  0
M  END
>  <MODEL>
6

>  <REMARK>
 VINA RESULT:      -6.6      4.340      9.578
  Name = 
  8 active torsions:
  status: ('A' for Active; 'I' for Inactive)
    1  A    between atoms: C_6  and  N_15
    2  A    between atoms: C_6  and  C_20
    3  A    between atoms: C_10  and  CA_23
    4  A    between atoms: C_14  and  C_25
    5  A    between atoms: N_15  and  C_19
    6  A    between atoms: C_18  and  C_19
    7  A    between atoms: C_18  and  C_21
    8  A    between atoms: C_21  and  C_24
                            x       y       z     vdW  Elec       q    Type
                         _______ _______ _______ _____ _____    ______ ____

>  <TORSDO>
F 8

$$$$
=
 OpenBabel11042418283D

 30 33  0  0  1  0  0  0  0  0999 V2000
  184.8980  178.4630  146.4670 N   0  0  0  0  0  0  0  0  0  0  0  0
  189.7590  177.4890  146.8240 C   0  0  0  0  0  2  0  0  0  0  0  0
  191.3000  176.2710  145.4360 N   0  0  0  0  0  0  0  0  0  0  0  0
  186.1460  178.0350  144.5700 C   0  0  0  0  0  0  0  0  0  0  0  0
  188.5990  177.5260  144.6050 C   0  0  0  0  0  0  0  0  0  0  0  0
  184.1310  178.5320  145.4510 N   0  0  0  0  0  0  0  0  0  0  0  0
  187.3550  177.7270  143.7480 C   0  0  0  0  0  2  0  0  0  0  0  0
  189.7650  177.2380  143.8670 O   0  0  0  0  0  0  0  0  0  0  0  0
  191.0300  176.7570  144.2620 C   0  0  0  0  0  0  0  0  0  0  0  0
  186.1930  178.1520  145.9880 C   0  0  0  0  0  0  0  0  0  0  0  0
  190.3660  176.1390  146.5370 C   0  0  1  0  0  3  0  0  0  0  0  0
  184.8770  178.2730  144.2500 C   0  0  0  0  0  0  0  0  0  0  0  0
  188.5600  177.6590  145.9660 C   0  0  0  0  0  0  0  0  0  0  0  0
  187.3040  177.9840  146.6870 C   0  0  0  0  0  3  0  0  0  0  0  0
  184.4850  178.3020  140.4770 C   0  0  0  0  0  3  0  0  0  0  0  0
  185.0740  178.2910  141.7440 C   0  0  0  0  0  3  0  0  0  0  0  0
  182.2910  178.2990  141.4990 C   0  0  0  0  0  3  0  0  0  0  0  0
  182.8820  178.2890  142.7660 C   0  0  0  0  0  3  0  0  0  0  0  0
  184.2780  178.2840  142.9000 C   0  0  0  0  0  0  0  0  0  0  0  0
  183.0930  178.3060  140.3550 C   0  0  0  0  0  3  0  0  0  0  0  0
  191.0780  175.6190  147.7450 C   0  0  0  0  0  3  0  0  0  0  0  0
  191.5670  176.3820  148.5650 O   0  0  0  0  0  0  0  0  0  0  0  0
  192.1250  176.8030  143.2580 C   0  0  0  0  0  2  0  0  0  0  0  0
  192.8950  175.5720  143.3200 N   0  0  0  0  0  2  0  0  0  0  0  0
  194.2200  175.8700  142.8050 C   0  0  0  0  0  2  0  0  0  0  0  0
  195.0960  176.4140  143.9210 C   0  0  0  0  0  2  0  0  0  0  0  0
  195.6520  175.2760  144.7610 C   0  0  0  0  0  2  0  0  0  0  0  0
  195.0010  175.2390  146.1340 C   0  0  0  0  0  3  0  0  0  0  0  0
  194.4890  176.5010  146.4360 O   0  0  0  0  0  1  0  0  0  0  0  0
  193.9640  174.3070  146.1430 O   0  0  0  0  0  1  0  0  0  0  0  0
  3 11  1  0  0  0  0
  4 10  1  0  0  0  0
  5 13  2  0  0  0  0
  6  1  2  0  0  0  0
  7  4  1  0  0  0  0
  7  5  1  0  0  0  0
  8  9  1  0  0  0  0
  8  5  1  0  0  0  0
  9  3  2  0  0  0  0
 10  1  1  0  0  0  0
 10 14  2  0  0  0  0
 11  2  1  0  0  0  0
 11 21  1  1  0  0  0
 12  4  2  0  0  0  0
 12  6  1  0  0  0  0
 13 14  1  0  0  0  0
 13  2  1  0  0  0  0
 15 16  1  0  0  0  0
 16 19  2  0  0  0  0
 17 18  2  0  0  0  0
 18 19  1  0  0  0  0
 19 12  1  0  0  0  0
 20 15  2  0  0  0  0
 20 17  1  0  0  0  0
 21 22  2  0  0  0  0
 23 24  1  0  0  0  0
 23  9  1  0  0  0  0
 25 24  1  0  0  0  0
 25 26  1  0  0  0  0
 26 27  1  0  0  0  0
 27 28  1  0  0  0  0
 28 30  1  0  0  0  0
 28 29  1  0  0  0  0
M  END
>  <MODEL>
7

>  <REMARK>
 VINA RESULT:      -6.6      3.328      9.155
  Name = 
  8 active torsions:
  status: ('A' for Active; 'I' for Inactive)
    1  A    between atoms: C_6  and  N_15
    2  A    between atoms: C_6  and  C_20
    3  A    between atoms: C_10  and  CA_23
    4  A    between atoms: C_14  and  C_25
    5  A    between atoms: N_15  and  C_19
    6  A    between atoms: C_18  and  C_19
    7  A    between atoms: C_18  and  C_21
    8  A    between atoms: C_21  and  C_24
                            x       y       z     vdW  Elec       q    Type
                         _______ _______ _______ _____ _____    ______ ____

>  <TORSDO>
F 8

$$$$
=
 OpenBabel11042418283D

 30 33  0  0  1  0  0  0  0  0999 V2000
  186.5590  176.6600  141.5150 N   0  0  0  0  0  0  0  0  0  0  0  0
  190.6620  173.8790  141.1460 C   0  0  0  0  0  2  0  0  0  0  0  0
  192.6860  173.7510  142.4410 N   0  0  0  0  0  0  0  0  0  0  0  0
  187.8450  176.2210  143.3840 C   0  0  0  0  0  0  0  0  0  0  0  0
  189.9350  174.8410  143.3410 C   0  0  0  0  0  0  0  0  0  0  0  0
  186.0220  177.2300  142.5210 N   0  0  0  0  0  2  0  0  0  0  0  0
  188.9610  175.6450  144.1940 C   0  0  0  0  0  3  0  0  0  0  0  0
  191.0030  174.2750  144.0670 O   0  0  0  0  0  0  0  0  0  0  0  0
  192.2140  173.6890  143.6500 C   0  0  0  0  0  0  0  0  0  0  0  0
  187.7200  175.9990  141.9840 C   0  0  0  0  0  0  0  0  0  0  0  0
  192.0590  174.4200  141.3180 C   0  0  1  0  0  3  0  0  0  0  0  0
  186.7980  176.9760  143.7040 C   0  0  0  0  0  0  0  0  0  0  0  0
  189.7410  174.6730  141.9970 C   0  0  0  0  0  0  0  0  0  0  0  0
  188.5850  175.2780  141.2900 C   0  0  0  0  0  3  0  0  0  0  0  0
  185.5880  179.2570  146.4840 C   0  0  0  0  0  3  0  0  0  0  0  0
  185.9210  178.7890  145.2110 C   0  0  0  0  0  3  0  0  0  0  0  0
  186.2850  177.1460  147.4410 C   0  0  0  0  0  3  0  0  0  0  0  0
  186.6180  176.6790  146.1660 C   0  0  0  0  0  3  0  0  0  0  0  0
  186.4390  177.4950  145.0400 C   0  0  0  0  0  0  0  0  0  0  0  0
  185.7700  178.4350  147.6000 C   0  0  0  0  0  3  0  0  0  0  0  0
  192.8640  174.1900  140.0780 C   0  0  0  0  0  3  0  0  0  0  0  0
  193.2990  173.0820  139.8060 O   0  0  0  0  0  0  0  0  0  0  0  0
  193.0100  172.9580  144.6700 C   0  0  0  0  0  2  0  0  0  0  0  0
  193.0810  173.7460  145.8900 N   0  0  0  0  0  2  0  0  0  0  0  0
  193.7500  174.9910  145.5570 C   0  0  0  0  0  2  0  0  0  0  0  0
  193.3320  176.0780  146.5320 C   0  0  0  0  0  2  0  0  0  0  0  0
  191.9310  176.5710  146.2080 C   0  0  0  0  0  2  0  0  0  0  0  0
  191.0140  176.4450  147.4140 C   0  0  0  0  0  3  0  0  0  0  0  0
  189.9680  177.3600  147.2960 O   0  0  0  0  0  1  0  0  0  0  0  0
  190.4910  175.1530  147.4790 O   0  0  0  0  0  1  0  0  0  0  0  0
  1 10  2  0  0  0  0
  1  6  1  0  0  0  0
  2 11  1  0  0  0  0
  2 13  1  0  0  0  0
  3  9  2  0  0  0  0
  4 12  2  0  0  0  0
  4  7  1  0  0  0  0
  5  8  1  0  0  0  0
  5  7  2  0  0  0  0
  6 12  1  0  0  0  0
  9  8  1  0  0  0  0
  9 23  1  0  0  0  0
 10  4  1  0  0  0  0
 11 21  1  6  0  0  0
 11  3  1  0  0  0  0
 12 19  1  0  0  0  0
 13  5  1  0  0  0  0
 14 10  1  0  0  0  0
 14 13  2  0  0  0  0
 15 20  1  0  0  0  0
 16 15  2  0  0  0  0
 17 20  2  0  0  0  0
 18 17  1  0  0  0  0
 19 16  1  0  0  0  0
 19 18  2  0  0  0  0
 22 21  2  0  0  0  0
 23 24  1  0  0  0  0
 25 24  1  0  0  0  0
 25 26  1  0  0  0  0
 27 26  1  0  0  0  0
 27 28  1  0  0  0  0
 28 30  1  0  0  0  0
 29 28  1  0  0  0  0
M  END
>  <MODEL>
8

>  <REMARK>
 VINA RESULT:      -6.6      4.178      8.774
  Name = 
  8 active torsions:
  status: ('A' for Active; 'I' for Inactive)
    1  A    between atoms: C_6  and  N_15
    2  A    between atoms: C_6  and  C_20
    3  A    between atoms: C_10  and  CA_23
    4  A    between atoms: C_14  and  C_25
    5  A    between atoms: N_15  and  C_19
    6  A    between atoms: C_18  and  C_19
    7  A    between atoms: C_18  and  C_21
    8  A    between atoms: C_21  and  C_24
                            x       y       z     vdW  Elec       q    Type
                         _______ _______ _______ _____ _____    ______ ____

>  <TORSDO>
F 8

$$$$
=
 OpenBabel11042418283D

 30 33  0  0  1  0  0  0  0  0999 V2000
  186.0330  177.9160  140.4220 N   0  0  0  0  0  0  0  0  0  0  0  0
  188.8790  173.8950  139.7580 C   0  0  0  0  0  2  0  0  0  0  0  0
  190.5070  172.7840  141.1380 N   0  0  0  0  0  0  0  0  0  0  0  0
  186.7850  176.7040  142.2400 C   0  0  0  0  0  0  0  0  0  0  0  0
  188.2270  174.6640  142.0500 C   0  0  0  0  0  0  0  0  0  0  0  0
  185.5930  178.4630  141.4860 N   0  0  0  0  0  2  0  0  0  0  0  0
  187.4890  175.6160  142.9840 C   0  0  0  0  0  3  0  0  0  0  0  0
  188.9010  173.6180  142.7120 O   0  0  0  0  0  0  0  0  0  0  0  0
  189.8710  172.6970  142.2680 C   0  0  0  0  0  0  0  0  0  0  0  0
  186.7980  176.7930  140.8190 C   0  0  0  0  0  0  0  0  0  0  0  0
  190.3350  173.8260  140.1440 C   0  0  1  0  0  3  0  0  0  0  0  0
  186.0420  177.7320  142.6390 C   0  0  0  0  0  0  0  0  0  0  0  0
  188.1870  174.8180  140.6920 C   0  0  0  0  0  0  0  0  0  0  0  0
  187.4410  175.9300  140.0500 C   0  0  0  0  0  3  0  0  0  0  0  0
  184.0860  178.8160  145.7040 C   0  0  0  0  0  3  0  0  0  0  0  0
  184.3880  178.4660  144.3860 C   0  0  0  0  0  3  0  0  0  0  0  0
  186.3970  178.4570  146.3270 C   0  0  0  0  0  3  0  0  0  0  0  0
  186.6980  178.1070  145.0080 C   0  0  0  0  0  3  0  0  0  0  0  0
  185.6980  178.1070  144.0260 C   0  0  0  0  0  0  0  0  0  0  0  0
  185.0910  178.8120  146.6750 C   0  0  0  0  0  3  0  0  0  0  0  0
  191.1790  173.5270  138.9460 C   0  0  0  0  0  3  0  0  0  0  0  0
  192.2160  174.1390  138.7380 O   0  0  0  0  0  0  0  0  0  0  0  0
  190.1930  171.5540  143.1610 C   0  0  0  0  0  2  0  0  0  0  0  0
  190.2740  172.0160  144.5360 N   0  0  0  0  0  2  0  0  0  0  0  0
  191.4600  172.8480  144.6380 C   0  0  0  0  0  2  0  0  0  0  0  0
  191.1350  174.1170  145.4060 C   0  0  0  0  0  2  0  0  0  0  0  0
  189.6970  174.0870  145.8970 C   0  0  0  0  0  2  0  0  0  0  0  0
  189.5310  174.9140  147.1620 C   0  0  0  0  0  3  0  0  0  0  0  0
  190.3980  176.0050  147.1170 O   0  0  0  0  0  1  0  0  0  0  0  0
  188.2180  175.3720  147.2620 O   0  0  0  0  0  1  0  0  0  0  0  0
  1 10  2  0  0  0  0
  1  6  1  0  0  0  0
  2 11  1  0  0  0  0
  2 13  1  0  0  0  0
  3  9  2  0  0  0  0
  4 12  2  0  0  0  0
  4  7  1  0  0  0  0
  5  8  1  0  0  0  0
  5  7  2  0  0  0  0
  6 12  1  0  0  0  0
  9  8  1  0  0  0  0
  9 23  1  0  0  0  0
 10  4  1  0  0  0  0
 11 21  1  6  0  0  0
 11  3  1  0  0  0  0
 12 19  1  0  0  0  0
 13  5  1  0  0  0  0
 14 13  2  0  0  0  0
 14 10  1  0  0  0  0
 15 20  1  0  0  0  0
 16 15  2  0  0  0  0
 17 20  2  0  0  0  0
 18 17  1  0  0  0  0
 19 16  1  0  0  0  0
 19 18  2  0  0  0  0
 22 21  2  0  0  0  0
 23 24  1  0  0  0  0
 24 25  1  0  0  0  0
 25 26  1  0  0  0  0
 26 27  1  0  0  0  0
 27 28  1  0  0  0  0
 28 30  1  0  0  0  0
 29 28  1  0  0  0  0
M  END
>  <MODEL>
9

>  <REMARK>
 VINA RESULT:      -6.6      4.150      8.715
  Name = 
  8 active torsions:
  status: ('A' for Active; 'I' for Inactive)
    1  A    between atoms: C_6  and  N_15
    2  A    between atoms: C_6  and  C_20
    3  A    between atoms: C_10  and  CA_23
    4  A    between atoms: C_14  and  C_25
    5  A    between atoms: N_15  and  C_19
    6  A    between atoms: C_18  and  C_19
    7  A    between atoms: C_18  and  C_21
    8  A    between atoms: C_21  and  C_24
                            x       y       z     vdW  Elec       q    Type
                         _______ _______ _______ _____ _____    ______ ____

>  <TORSDO>
F 8

$$$$
