=
 OpenBabel11042414453D

 36 41  0  0  1  0  0  0  0  0999 V2000
  188.6530  176.2600  143.7620 C   0  0  1  0  0  3  0  0  0  0  0  0
  196.3510  174.4150  143.7930 C   0  0  0  0  0  0  0  0  0  0  0  0
  192.5740  176.7200  147.7380 C   0  0  0  0  0  2  0  0  0  0  0  0
  189.1280  175.7080  142.4360 C   0  0  0  0  0  0  0  0  0  0  0  0
  189.3550  176.0180  146.2230 C   0  0  0  0  0  0  0  0  0  0  0  0
  194.5450  175.6480  144.1470 C   0  0  0  0  0  0  0  0  0  0  0  0
  194.6080  175.8000  146.5340 C   0  0  0  0  0  3  0  0  0  0  0  0
  197.3140  173.5940  143.1440 N   0  0  0  0  0  1  0  0  0  0  0  0
  191.2930  176.4950  142.7610 O   0  0  0  0  0  0  0  0  0  0  0  0
  187.4860  178.1390  142.4100 C   0  0  0  0  0  2  0  0  0  0  0  0
  193.3270  176.4140  146.4810 C   0  0  0  0  0  0  0  0  0  0  0  0
  189.6390  176.0530  144.8190 N   0  0  0  0  0  2  0  0  0  0  0  0
  195.2100  175.4540  145.3150 C   0  0  0  0  0  0  0  0  0  0  0  0
  188.2650  177.7430  143.6690 C   0  0  0  0  0  2  0  0  0  0  0  0
  190.3480  175.9220  147.0690 C   0  0  0  0  0  0  0  0  0  0  0  0
  190.3500  175.8280  142.0120 N   0  0  0  0  0  0  0  0  0  0  0  0
  192.6790  176.6140  145.2380 C   0  0  0  0  0  3  0  0  0  0  0  0
  187.2320  176.1700  140.8890 C   0  0  0  0  0  2  0  0  0  0  0  0
  193.2640  175.4220  141.7360 C   0  0  0  0  0  3  0  0  0  0  0  0
  196.3770  174.6610  145.0790 N   0  0  0  0  0  0  0  0  0  0  0  0
  193.2860  176.1880  144.0510 C   0  0  0  0  0  0  0  0  0  0  0  0
  195.1770  175.0090  143.1410 C   0  0  0  0  0  0  0  0  0  0  0  0
  188.0980  175.0970  141.5470 C   0  0  0  0  0  2  0  0  0  0  0  0
  186.5240  177.0630  141.9080 C   0  0  0  0  0  2  0  0  0  0  0  0
  191.3660  175.8380  147.8900 C   0  0  0  0  0  3  0  0  0  0  0  0
  194.5600  174.8630  141.8940 C   0  0  0  0  0  3  0  0  0  0  0  0
  192.6170  176.0740  142.8240 C   0  0  0  0  0  0  0  0  0  0  0  0
  187.9510  175.9490  146.7300 C   0  0  0  0  0  2  0  0  0  0  0  0
  187.4850  177.3070  147.2330 C   0  0  0  0  0  2  0  0  0  0  0  0
  185.8030  177.8560  145.7320 C   0  0  1  0  0  3  0  0  0  0  0  0
  186.0440  177.4260  147.0840 N   0  0  0  0  0  0  0  0  0  0  0  0
  185.6750  176.5500  146.0790 O   0  0  0  0  0  0  0  0  0  0  0  0
  184.4290  178.4940  145.6420 C   0  0  0  0  0  2  0  0  0  0  0  0
  185.2370  180.2540  144.0780 O   0  0  0  0  0  1  0  0  0  0  0  0
  184.3080  179.2680  144.3770 C   0  0  0  0  0  0  0  0  0  0  0  0
  183.3830  179.0050  143.5630 O   0  0  0  0  0  0  0  0  0  0  0  0
  1 14  1  6  0  0  0
  1 12  1  0  0  0  0
  2 20  2  0  0  0  0
  3 25  1  0  0  0  0
  4  1  1  0  0  0  0
  5 28  1  0  0  0  0
  5 15  2  0  0  0  0
  6 13  1  0  0  0  0
  8  2  1  0  0  0  0
  9 27  1  0  0  0  0
 10 14  1  0  0  0  0
 11  7  1  0  0  0  0
 11  3  1  0  0  0  0
 12  5  1  0  0  0  0
 13  7  2  0  0  0  0
 15 25  2  0  0  0  0
 16  4  2  0  0  0  0
 16  9  1  0  0  0  0
 17 11  2  0  0  0  0
 18 23  1  0  0  0  0
 18 24  1  0  0  0  0
 19 26  2  0  0  0  0
 19 27  1  0  0  0  0
 20 13  1  0  0  0  0
 21  6  1  0  0  0  0
 21 17  1  0  0  0  0
 22  2  1  0  0  0  0
 22  6  2  0  0  0  0
 23  4  1  0  0  0  0
 24 10  1  0  0  0  0
 26 22  1  0  0  0  0
 27 21  2  0  0  0  0
 28 29  1  0  0  0  0
 30 33  1  1  0  0  0
 30 32  1  0  0  0  0
 30 31  1  0  0  0  0
 31 29  1  0  0  0  0
 32 31  1  0  0  0  0
 34 35  1  0  0  0  0
 35 33  1  0  0  0  0
 36 35  2  0  0  0  0
M  END
>  <MODEL>
1

>  <REMARK>
 VINA RESULT:      -8.7      0.000      0.000
  Name = 
  5 active torsions:
  status: ('A' for Active; 'I' for Inactive)
    1  A    between atoms: C_2  and  N_15
    2  A    between atoms: C_2  and  C_29
    3  A    between atoms: C_7  and  C_29
    4  A    between atoms: C_8  and  C_22
    5  A    between atoms: C_18  and  C_22
                            x       y       z     vdW  Elec       q    Type
                         _______ _______ _______ _____ _____    ______ ____

>  <TORSDO>
F 5

$$$$
=
 OpenBabel11042414453D

 36 41  0  0  1  0  0  0  0  0999 V2000
  192.2670  174.9060  143.8100 C   0  0  1  0  0  3  0  0  0  0  0  0
  185.2530  177.9080  145.9240 C   0  0  0  0  0  0  0  0  0  0  0  0
  187.6870  176.1270  140.8200 C   0  0  0  0  0  2  0  0  0  0  0  0
  192.1850  175.2180  145.2890 C   0  0  0  0  0  0  0  0  0  0  0  0
  190.5970  174.2840  141.9570 C   0  0  0  0  0  0  0  0  0  0  0  0
  187.0950  177.6780  144.7160 C   0  0  0  0  0  0  0  0  0  0  0  0
  186.1410  177.0110  142.6250 C   0  0  0  0  0  3  0  0  0  0  0  0
  184.3870  178.0660  147.0400 N   0  0  0  0  0  1  0  0  0  0  0  0
  190.6450  176.9300  144.9520 O   0  0  0  0  0  0  0  0  0  0  0  0
  194.5640  176.1060  143.8210 C   0  0  0  0  0  2  0  0  0  0  0  0
  187.4590  176.7570  142.1590 C   0  0  0  0  0  0  0  0  0  0  0  0
  190.9520  174.9530  143.1740 N   0  0  0  0  0  2  0  0  0  0  0  0
  186.0010  177.5140  143.9280 C   0  0  0  0  0  0  0  0  0  0  0  0
  193.2540  175.8250  143.0760 C   0  0  0  0  0  2  0  0  0  0  0  0
  189.4110  174.4900  141.4450 C   0  0  0  0  0  0  0  0  0  0  0  0
  191.4230  176.1500  145.7780 N   0  0  0  0  0  0  0  0  0  0  0  0
  188.5720  176.9620  143.0090 C   0  0  0  0  0  3  0  0  0  0  0  0
  194.5400  175.0110  146.0690 C   0  0  0  0  0  2  0  0  0  0  0  0
  189.0100  177.6030  146.6730 C   0  0  0  0  0  3  0  0  0  0  0  0
  184.8150  177.6670  144.7130 N   0  0  0  0  0  0  0  0  0  0  0  0
  188.3820  177.3960  144.3270 C   0  0  0  0  0  0  0  0  0  0  0  0
  186.7200  177.9050  145.9910 C   0  0  0  0  0  0  0  0  0  0  0  0
  193.1130  174.4790  146.1910 C   0  0  0  0  0  2  0  0  0  0  0  0
  195.0810  174.9260  144.6420 C   0  0  0  0  0  2  0  0  0  0  0  0
  188.2200  174.7270  140.9510 C   0  0  0  0  0  3  0  0  0  0  0  0
  187.6610  177.8710  147.0250 C   0  0  0  0  0  3  0  0  0  0  0  0
  189.3700  177.3500  145.3190 C   0  0  0  0  0  0  0  0  0  0  0  0
  191.4930  173.2590  141.3440 C   0  0  0  0  0  2  0  0  0  0  0  0
  191.8360  173.6230  139.9070 C   0  0  0  0  0  2  0  0  0  0  0  0
  190.7060  173.7670  137.8850 C   0  0  1  0  0  3  0  0  0  0  0  0
  190.9830  172.8850  138.9890 N   0  0  0  0  0  0  0  0  0  0  0  0
  191.6650  172.8100  137.7870 O   0  0  0  0  0  0  0  0  0  0  0  0
  189.4520  173.3010  137.1700 C   0  0  0  0  0  2  0  0  0  0  0  0
  188.9100  175.1220  135.5610 O   0  0  0  0  0  0  0  0  0  0  0  0
  188.6350  174.4740  136.7570 C   0  0  0  0  0  0  0  0  0  0  0  0
  187.6730  174.8570  137.4740 O   0  0  0  0  0  1  0  0  0  0  0  0
  1 14  1  6  0  0  0
  1  4  1  0  0  0  0
  2 22  1  0  0  0  0
  2  8  1  0  0  0  0
  3 25  1  0  0  0  0
  3 11  1  0  0  0  0
  4 16  2  0  0  0  0
  4 23  1  0  0  0  0
  5 12  1  0  0  0  0
  6 22  1  0  0  0  0
  7 13  1  0  0  0  0
  9 27  1  0  0  0  0
  9 16  1  0  0  0  0
 10 24  1  0  0  0  0
 11  7  2  0  0  0  0
 11 17  1  0  0  0  0
 12  1  1  0  0  0  0
 13 20  1  0  0  0  0
 13  6  2  0  0  0  0
 14 10  1  0  0  0  0
 15  5  2  0  0  0  0
 17 21  2  0  0  0  0
 18 23  1  0  0  0  0
 19 26  1  0  0  0  0
 20  2  2  0  0  0  0
 21  6  1  0  0  0  0
 21 27  1  0  0  0  0
 22 26  2  0  0  0  0
 24 18  1  0  0  0  0
 25 15  2  0  0  0  0
 27 19  2  0  0  0  0
 28  5  1  0  0  0  0
 29 28  1  0  0  0  0
 30 33  1  6  0  0  0
 30 31  1  0  0  0  0
 31 29  1  0  0  0  0
 32 30  1  0  0  0  0
 32 31  1  0  0  0  0
 34 35  2  0  0  0  0
 35 33  1  0  0  0  0
 35 36  1  0  0  0  0
M  END
>  <MODEL>
2

>  <REMARK>
 VINA RESULT:      -8.4      2.893      8.306
  Name = 
  5 active torsions:
  status: ('A' for Active; 'I' for Inactive)
    1  A    between atoms: C_2  and  N_15
    2  A    between atoms: C_2  and  C_29
    3  A    between atoms: C_7  and  C_29
    4  A    between atoms: C_8  and  C_22
    5  A    between atoms: C_18  and  C_22
                            x       y       z     vdW  Elec       q    Type
                         _______ _______ _______ _____ _____    ______ ____

>  <TORSDO>
F 5

$$$$
=
 OpenBabel11042414453D

 36 41  0  0  1  0  0  0  0  0999 V2000
  191.4770  174.7190  144.2950 C   0  0  1  0  0  3  0  0  0  0  0  0
  185.0070  178.2550  141.4120 C   0  0  0  0  0  0  0  0  0  0  0  0
  186.9110  176.7580  146.8230 C   0  0  0  0  0  2  0  0  0  0  0  0
  191.4930  174.8290  142.7860 C   0  0  0  0  0  0  0  0  0  0  0  0
  190.4150  176.0320  146.2330 C   0  0  0  0  0  0  0  0  0  0  0  0
  186.1830  176.8460  142.6530 C   0  0  0  0  0  0  0  0  0  0  0  0
  185.5920  177.6230  144.8370 C   0  0  0  0  0  3  0  0  0  0  0  0
  184.5280  178.9790  140.2860 N   0  0  0  0  0  1  0  0  0  0  0  0
  189.1710  174.7750  142.6490 O   0  0  0  0  0  0  0  0  0  0  0  0
  192.1930  172.2470  143.9880 C   0  0  0  0  0  2  0  0  0  0  0  0
  186.5750  176.7420  145.3650 C   0  0  0  0  0  0  0  0  0  0  0  0
  190.4250  175.5420  144.8860 N   0  0  0  0  0  2  0  0  0  0  0  0
  185.4000  177.6200  143.4470 C   0  0  0  0  0  0  0  0  0  0  0  0
  191.3540  173.2640  144.7700 C   0  0  0  0  0  2  0  0  0  0  0  0
  189.3620  176.6780  146.6640 C   0  0  0  0  0  0  0  0  0  0  0  0
  190.4140  174.8610  142.0630 N   0  0  0  0  0  0  0  0  0  0  0  0
  187.3550  175.9380  144.4990 C   0  0  0  0  0  3  0  0  0  0  0  0
  193.3950  173.3730  142.1060 C   0  0  0  0  0  2  0  0  0  0  0  0
  187.9250  175.8290  140.7990 C   0  0  0  0  0  3  0  0  0  0  0  0
  184.6410  178.5250  142.6400 N   0  0  0  0  0  0  0  0  0  0  0  0
  187.1800  176.0200  143.1120 C   0  0  0  0  0  0  0  0  0  0  0  0
  186.0200  177.1930  141.3590 C   0  0  0  0  0  0  0  0  0  0  0  0
  192.8250  174.7910  142.1170 C   0  0  0  0  0  2  0  0  0  0  0  0
  193.5400  172.7860  143.5100 C   0  0  0  0  0  2  0  0  0  0  0  0
  188.2870  177.3100  147.0690 C   0  0  0  0  0  3  0  0  0  0  0  0
  186.8880  176.7030  140.3780 C   0  0  0  0  0  3  0  0  0  0  0  0
  188.0810  175.4980  142.1740 C   0  0  0  0  0  0  0  0  0  0  0  0
  191.6270  175.9420  147.1020 C   0  0  0  0  0  2  0  0  0  0  0  0
  192.6650  176.9790  146.6980 C   0  0  0  0  0  2  0  0  0  0  0  0
  194.4400  176.5560  145.2640 C   0  0  1  0  0  3  0  0  0  0  0  0
  193.9780  176.3620  146.6140 N   0  0  0  0  0  0  0  0  0  0  0  0
  194.8670  177.3650  146.2670 O   0  0  0  0  0  0  0  0  0  0  0  0
  195.5140  175.5330  144.9460 C   0  0  0  0  0  2  0  0  0  0  0  0
  196.4280  174.9850  142.6970 O   0  0  0  0  0  0  0  0  0  0  0  0
  196.2350  175.9200  143.7030 C   0  0  0  0  0  0  0  0  0  0  0  0
  196.6380  177.1040  143.5510 O   0  0  0  0  0  1  0  0  0  0  0  0
  1 14  1  6  0  0  0
  1 12  1  0  0  0  0
  2 20  2  0  0  0  0
  3 25  1  0  0  0  0
  4  1  1  0  0  0  0
  5 15  2  0  0  0  0
  5 28  1  0  0  0  0
  6 21  1  0  0  0  0
  6 13  1  0  0  0  0
  7 11  1  0  0  0  0
  8  2  1  0  0  0  0
 10 14  1  0  0  0  0
 11  3  1  0  0  0  0
 12  5  1  0  0  0  0
 13  7  2  0  0  0  0
 15 25  2  0  0  0  0
 16  9  1  0  0  0  0
 16  4  2  0  0  0  0
 17 11  2  0  0  0  0
 18 23  1  0  0  0  0
 18 24  1  0  0  0  0
 19 27  1  0  0  0  0
 20 13  1  0  0  0  0
 21 17  1  0  0  0  0
 22  2  1  0  0  0  0
 22  6  2  0  0  0  0
 23  4  1  0  0  0  0
 24 10  1  0  0  0  0
 26 19  2  0  0  0  0
 26 22  1  0  0  0  0
 27  9  1  0  0  0  0
 27 21  2  0  0  0  0
 29 28  1  0  0  0  0
 30 33  1  1  0  0  0
 30 32  1  0  0  0  0
 30 31  1  0  0  0  0
 31 29  1  0  0  0  0
 32 31  1  0  0  0  0
 34 35  2  0  0  0  0
 35 33  1  0  0  0  0
 36 35  1  0  0  0  0
M  END
>  <MODEL>
3

>  <REMARK>
 VINA RESULT:      -8.3      2.640      7.971
  Name = 
  5 active torsions:
  status: ('A' for Active; 'I' for Inactive)
    1  A    between atoms: C_2  and  N_15
    2  A    between atoms: C_2  and  C_29
    3  A    between atoms: C_7  and  C_29
    4  A    between atoms: C_8  and  C_22
    5  A    between atoms: C_18  and  C_22
                            x       y       z     vdW  Elec       q    Type
                         _______ _______ _______ _____ _____    ______ ____

>  <TORSDO>
F 5

$$$$
=
 OpenBabel11042414453D

 36 41  0  0  1  0  0  0  0  0999 V2000
  188.8950  176.5090  143.6830 C   0  0  1  0  0  3  0  0  0  0  0  0
  192.8810  169.6730  143.4660 C   0  0  0  0  0  0  0  0  0  0  0  0
  193.4870  174.7910  146.3960 C   0  0  0  0  0  2  0  0  0  0  0  0
  188.3010  175.5160  142.7080 C   0  0  0  0  0  0  0  0  0  0  0  0
  190.2710  176.3760  145.8510 C   0  0  0  0  0  0  0  0  0  0  0  0
  192.5920  171.8690  143.4650 C   0  0  0  0  0  0  0  0  0  0  0  0
  193.7540  172.4430  145.4760 C   0  0  0  0  0  3  0  0  0  0  0  0
  192.7380  168.2960  143.1390 N   0  0  0  0  0  1  0  0  0  0  0  0
  190.3580  174.5010  142.3220 O   0  0  0  0  0  0  0  0  0  0  0  0
  188.6900  178.2770  141.7980 C   0  0  0  0  0  2  0  0  0  0  0  0
  193.2570  173.7670  145.3290 C   0  0  0  0  0  0  0  0  0  0  0  0
  189.8770  175.8820  144.5640 N   0  0  0  0  0  2  0  0  0  0  0  0
  193.4170  171.5120  144.4820 C   0  0  0  0  0  0  0  0  0  0  0  0
  189.5060  177.7250  142.9730 C   0  0  0  0  0  2  0  0  0  0  0  0
  191.2340  175.7690  146.4940 C   0  0  0  0  0  0  0  0  0  0  0  0
  189.0020  174.6010  142.1080 N   0  0  0  0  0  0  0  0  0  0  0  0
  192.4160  174.0990  144.2400 C   0  0  0  0  0  3  0  0  0  0  0  0
  186.6610  176.8670  141.4110 C   0  0  0  0  0  2  0  0  0  0  0  0
  190.5670  172.1390  141.6390 C   0  0  0  0  0  3  0  0  0  0  0  0
  193.6030  170.0930  144.4750 N   0  0  0  0  0  0  0  0  0  0  0  0
  192.0460  173.1200  143.3100 C   0  0  0  0  0  0  0  0  0  0  0  0
  192.1860  170.7750  142.7880 C   0  0  0  0  0  0  0  0  0  0  0  0
  186.8610  175.6860  142.3580 C   0  0  0  0  0  2  0  0  0  0  0  0
  187.1780  178.1830  141.9920 C   0  0  0  0  0  2  0  0  0  0  0  0
  192.2110  175.1460  147.1070 C   0  0  0  0  0  3  0  0  0  0  0  0
  191.1520  170.8620  141.8510 C   0  0  0  0  0  3  0  0  0  0  0  0
  191.0060  173.2710  142.3830 C   0  0  0  0  0  0  0  0  0  0  0  0
  189.5160  177.4740  146.5260 C   0  0  0  0  0  2  0  0  0  0  0  0
  188.1550  176.9880  147.0010 C   0  0  0  0  0  2  0  0  0  0  0  0
  186.0110  177.7720  146.5830 C   0  0  1  0  0  3  0  0  0  0  0  0
  187.2640  178.1190  147.2020 N   0  0  0  0  0  0  0  0  0  0  0  0
  186.1810  177.6490  147.9240 O   0  0  0  0  0  0  0  0  0  0  0  0
  185.2280  179.0370  146.2860 C   0  0  0  0  0  2  0  0  0  0  0  0
  184.3310  178.1790  144.1290 O   0  0  0  0  0  0  0  0  0  0  0  0
  185.0110  179.1710  144.8200 C   0  0  0  0  0  0  0  0  0  0  0  0
  185.4150  180.1990  144.2150 O   0  0  0  0  0  1  0  0  0  0  0  0
  1 14  1  6  0  0  0
  1 12  1  0  0  0  0
  2 20  2  0  0  0  0
  3 25  1  0  0  0  0
  4  1  1  0  0  0  0
  5 15  2  0  0  0  0
  5 28  1  0  0  0  0
  6 13  1  0  0  0  0
  8  2  1  0  0  0  0
  9 27  1  0  0  0  0
 10 24  1  0  0  0  0
 10 14  1  0  0  0  0
 11  7  1  0  0  0  0
 11  3  1  0  0  0  0
 12  5  1  0  0  0  0
 13  7  2  0  0  0  0
 15 25  2  0  0  0  0
 16  9  1  0  0  0  0
 16  4  2  0  0  0  0
 17 11  2  0  0  0  0
 18 24  1  0  0  0  0
 18 23  1  0  0  0  0
 19 26  2  0  0  0  0
 19 27  1  0  0  0  0
 20 13  1  0  0  0  0
 21  6  1  0  0  0  0
 21 17  1  0  0  0  0
 22  6  2  0  0  0  0
 22  2  1  0  0  0  0
 23  4  1  0  0  0  0
 26 22  1  0  0  0  0
 27 21  2  0  0  0  0
 28 29  1  0  0  0  0
 29 31  1  0  0  0  0
 30 33  1  1  0  0  0
 30 31  1  0  0  0  0
 30 32  1  0  0  0  0
 31 32  1  0  0  0  0
 34 35  2  0  0  0  0
 35 33  1  0  0  0  0
 36 35  1  0  0  0  0
M  END
>  <MODEL>
4

>  <REMARK>
 VINA RESULT:      -8.3      2.805      3.025
  Name = 
  5 active torsions:
  status: ('A' for Active; 'I' for Inactive)
    1  A    between atoms: C_2  and  N_15
    2  A    between atoms: C_2  and  C_29
    3  A    between atoms: C_7  and  C_29
    4  A    between atoms: C_8  and  C_22
    5  A    between atoms: C_18  and  C_22
                            x       y       z     vdW  Elec       q    Type
                         _______ _______ _______ _____ _____    ______ ____

>  <TORSDO>
F 5

$$$$
=
 OpenBabel11042414453D

 36 41  0  0  1  0  0  0  0  0999 V2000
  192.4280  175.0400  143.8690 C   0  0  1  0  0  3  0  0  0  0  0  0
  185.3210  177.8080  145.9880 C   0  0  0  0  0  0  0  0  0  0  0  0
  187.8070  176.1030  140.8840 C   0  0  0  0  0  2  0  0  0  0  0  0
  192.3380  175.3510  145.3470 C   0  0  0  0  0  0  0  0  0  0  0  0
  190.7780  174.3600  142.0190 C   0  0  0  0  0  0  0  0  0  0  0  0
  187.1680  177.6380  144.7780 C   0  0  0  0  0  0  0  0  0  0  0  0
  186.2340  176.9370  142.6900 C   0  0  0  0  0  3  0  0  0  0  0  0
  184.4510  177.9390  147.1060 N   0  0  0  0  0  1  0  0  0  0  0  0
  190.7420  177.0100  145.0100 O   0  0  0  0  0  0  0  0  0  0  0  0
  194.6850  176.3160  143.8750 C   0  0  0  0  0  2  0  0  0  0  0  0
  187.5590  176.7270  142.2220 C   0  0  0  0  0  0  0  0  0  0  0  0
  191.1130  175.0420  143.2350 N   0  0  0  0  0  2  0  0  0  0  0  0
  186.0800  177.4370  143.9920 C   0  0  0  0  0  0  0  0  0  0  0  0
  193.3840  175.9900  143.1320 C   0  0  0  0  0  2  0  0  0  0  0  0
  189.5850  174.5250  141.5080 C   0  0  0  0  0  0  0  0  0  0  0  0
  191.5460  176.2570  145.8370 N   0  0  0  0  0  0  0  0  0  0  0  0
  188.6660  176.9700  143.0700 C   0  0  0  0  0  3  0  0  0  0  0  0
  194.7000  175.2240  146.1250 C   0  0  0  0  0  2  0  0  0  0  0  0
  189.0870  177.6300  146.7330 C   0  0  0  0  0  3  0  0  0  0  0  0
  184.8900  177.5510  144.7780 N   0  0  0  0  0  0  0  0  0  0  0  0
  188.4630  177.4000  144.3870 C   0  0  0  0  0  0  0  0  0  0  0  0
  186.7870  177.8550  146.0540 C   0  0  0  0  0  0  0  0  0  0  0  0
  193.2920  174.6440  146.2490 C   0  0  0  0  0  2  0  0  0  0  0  0
  195.2410  175.1550  144.6960 C   0  0  0  0  0  2  0  0  0  0  0  0
  188.3860  174.7220  141.0150 C   0  0  0  0  0  3  0  0  0  0  0  0
  187.7300  177.8540  147.0870 C   0  0  0  0  0  3  0  0  0  0  0  0
  189.4540  177.3870  145.3790 C   0  0  0  0  0  0  0  0  0  0  0  0
  191.7070  173.3640  141.4050 C   0  0  0  0  0  2  0  0  0  0  0  0
  191.8410  172.1300  142.2840 C   0  0  0  0  0  2  0  0  0  0  0  0
  193.5210  171.5290  143.7680 C   0  0  1  0  0  3  0  0  0  0  0  0
  193.2360  171.7290  142.3710 N   0  0  0  0  0  0  0  0  0  0  0  0
  193.2540  170.4750  142.9560 O   0  0  0  0  0  0  0  0  0  0  0  0
  195.0170  171.6260  143.9980 C   0  0  0  0  0  2  0  0  0  0  0  0
  194.5800  170.4710  146.1590 O   0  0  0  0  0  1  0  0  0  0  0  0
  195.3310  171.3840  145.4320 C   0  0  0  0  0  0  0  0  0  0  0  0
  196.2980  171.9810  145.9750 O   0  0  0  0  0  0  0  0  0  0  0  0
  1 14  1  6  0  0  0
  1  4  1  0  0  0  0
  2 22  1  0  0  0  0
  2  8  1  0  0  0  0
  3 25  1  0  0  0  0
  3 11  1  0  0  0  0
  4 16  2  0  0  0  0
  4 23  1  0  0  0  0
  5 12  1  0  0  0  0
  6 22  1  0  0  0  0
  7 13  1  0  0  0  0
  9 27  1  0  0  0  0
  9 16  1  0  0  0  0
 10 24  1  0  0  0  0
 11  7  2  0  0  0  0
 11 17  1  0  0  0  0
 12  1  1  0  0  0  0
 13  6  2  0  0  0  0
 13 20  1  0  0  0  0
 14 10  1  0  0  0  0
 15  5  2  0  0  0  0
 17 21  2  0  0  0  0
 18 23  1  0  0  0  0
 19 26  1  0  0  0  0
 20  2  2  0  0  0  0
 21  6  1  0  0  0  0
 21 27  1  0  0  0  0
 22 26  2  0  0  0  0
 24 18  1  0  0  0  0
 25 15  2  0  0  0  0
 27 19  2  0  0  0  0
 28  5  1  0  0  0  0
 28 29  1  0  0  0  0
 29 31  1  0  0  0  0
 30 33  1  6  0  0  0
 31 32  1  0  0  0  0
 31 30  1  0  0  0  0
 32 30  1  0  0  0  0
 33 35  1  0  0  0  0
 35 36  2  0  0  0  0
 35 34  1  0  0  0  0
M  END
>  <MODEL>
5

>  <REMARK>
 VINA RESULT:      -8.2      2.835      8.799
  Name = 
  5 active torsions:
  status: ('A' for Active; 'I' for Inactive)
    1  A    between atoms: C_2  and  N_15
    2  A    between atoms: C_2  and  C_29
    3  A    between atoms: C_7  and  C_29
    4  A    between atoms: C_8  and  C_22
    5  A    between atoms: C_18  and  C_22
                            x       y       z     vdW  Elec       q    Type
                         _______ _______ _______ _____ _____    ______ ____

>  <TORSDO>
F 5

$$$$
=
 OpenBabel11042414453D

 36 41  0  0  1  0  0  0  0  0999 V2000
  192.8080  173.6620  142.9590 C   0  0  1  0  0  3  0  0  0  0  0  0
  186.4970  178.3120  144.0570 C   0  0  0  0  0  0  0  0  0  0  0  0
  189.9750  175.0590  147.5870 C   0  0  0  0  0  2  0  0  0  0  0  0
  192.2800  174.2470  141.6670 C   0  0  0  0  0  0  0  0  0  0  0  0
  192.8070  174.3510  145.4360 C   0  0  0  0  0  0  0  0  0  0  0  0
  187.7710  176.5140  144.2770 C   0  0  0  0  0  0  0  0  0  0  0  0
  188.1920  176.5880  146.6310 C   0  0  0  0  0  3  0  0  0  0  0  0
  185.7730  179.3850  143.4670 N   0  0  0  0  0  1  0  0  0  0  0  0
  190.1070  174.3770  142.4890 O   0  0  0  0  0  0  0  0  0  0  0  0
  192.8920  171.3790  141.7350 C   0  0  0  0  0  2  0  0  0  0  0  0
  189.1220  175.5290  146.4500 C   0  0  0  0  0  0  0  0  0  0  0  0
  192.2240  174.3160  144.1270 N   0  0  0  0  0  2  0  0  0  0  0  0
  187.4970  177.0400  145.4980 C   0  0  0  0  0  0  0  0  0  0  0  0
  192.6080  172.1420  143.0340 C   0  0  0  0  0  2  0  0  0  0  0  0
  192.1300  174.8870  146.4170 C   0  0  0  0  0  0  0  0  0  0  0  0
  191.0340  174.5710  141.4900 N   0  0  0  0  0  0  0  0  0  0  0  0
  189.3600  174.9970  145.1600 C   0  0  0  0  0  3  0  0  0  0  0  0
  193.4880  172.9720  139.9020 C   0  0  0  0  0  2  0  0  0  0  0  0
  188.4760  176.0390  141.6720 C   0  0  0  0  0  3  0  0  0  0  0  0
  186.6720  178.1990  145.3500 N   0  0  0  0  0  0  0  0  0  0  0  0
  188.6980  175.5270  144.0460 C   0  0  0  0  0  0  0  0  0  0  0  0
  187.2030  177.2640  143.3100 C   0  0  0  0  0  0  0  0  0  0  0  0
  193.2340  174.3440  140.5250 C   0  0  0  0  0  2  0  0  0  0  0  0
  194.0370  171.9600  140.9080 C   0  0  0  0  0  2  0  0  0  0  0  0
  191.4200  175.4210  147.3820 C   0  0  0  0  0  3  0  0  0  0  0  0
  187.5360  177.0620  141.9670 C   0  0  0  0  0  3  0  0  0  0  0  0
  189.0710  175.2780  142.7180 C   0  0  0  0  0  0  0  0  0  0  0  0
  194.2180  173.9170  145.6690 C   0  0  0  0  0  2  0  0  0  0  0  0
  195.2000  174.9720  145.1840 C   0  0  0  0  0  2  0  0  0  0  0  0
  196.5120  175.5120  143.3480 C   0  0  1  0  0  3  0  0  0  0  0  0
  196.0700  174.4110  144.1630 N   0  0  0  0  0  0  0  0  0  0  0  0
  197.3080  175.0080  144.3250 O   0  0  0  0  0  0  0  0  0  0  0  0
  196.9710  174.9900  142.0000 C   0  0  0  0  0  2  0  0  0  0  0  0
  196.9640  175.6930  139.6120 O   0  0  0  0  0  0  0  0  0  0  0  0
  196.6040  175.9530  140.9270 C   0  0  0  0  0  0  0  0  0  0  0  0
  195.9390  176.9850  141.2060 O   0  0  0  0  0  1  0  0  0  0  0  0
  1 14  1  1  0  0  0
  1 12  1  0  0  0  0
  2 20  2  0  0  0  0
  4  1  1  0  0  0  0
  5 28  1  0  0  0  0
  5 15  2  0  0  0  0
  6 13  1  0  0  0  0
  8  2  1  0  0  0  0
  9 27  1  0  0  0  0
 10 14  1  0  0  0  0
 11  7  1  0  0  0  0
 11  3  1  0  0  0  0
 12  5  1  0  0  0  0
 13  7  2  0  0  0  0
 15 25  2  0  0  0  0
 16  4  2  0  0  0  0
 16  9  1  0  0  0  0
 17 11  2  0  0  0  0
 18 23  1  0  0  0  0
 18 24  1  0  0  0  0
 19 26  2  0  0  0  0
 19 27  1  0  0  0  0
 20 13  1  0  0  0  0
 21  6  1  0  0  0  0
 21 17  1  0  0  0  0
 22  2  1  0  0  0  0
 22  6  2  0  0  0  0
 23  4  1  0  0  0  0
 24 10  1  0  0  0  0
 25  3  1  0  0  0  0
 26 22  1  0  0  0  0
 27 21  2  0  0  0  0
 29 28  1  0  0  0  0
 30 33  1  6  0  0  0
 30 31  1  0  0  0  0
 30 32  1  0  0  0  0
 31 32  1  0  0  0  0
 31 29  1  0  0  0  0
 34 35  2  0  0  0  0
 35 36  1  0  0  0  0
 35 33  1  0  0  0  0
M  END
>  <MODEL>
6

>  <REMARK>
 VINA RESULT:      -8.2      2.672      8.035
  Name = 
  5 active torsions:
  status: ('A' for Active; 'I' for Inactive)
    1  A    between atoms: C_2  and  N_15
    2  A    between atoms: C_2  and  C_29
    3  A    between atoms: C_7  and  C_29
    4  A    between atoms: C_8  and  C_22
    5  A    between atoms: C_18  and  C_22
                            x       y       z     vdW  Elec       q    Type
                         _______ _______ _______ _____ _____    ______ ____

>  <TORSDO>
F 5

$$$$
=
 OpenBabel11042414453D

 36 41  0  0  1  0  0  0  0  0999 V2000
  192.0610  174.9200  143.6050 C   0  0  1  0  0  3  0  0  0  0  0  0
  185.1900  178.0250  146.0190 C   0  0  0  0  0  0  0  0  0  0  0  0
  187.4840  176.4830  140.7750 C   0  0  0  0  0  2  0  0  0  0  0  0
  192.0120  175.1420  145.1010 C   0  0  0  0  0  0  0  0  0  0  0  0
  190.3430  174.4740  141.7460 C   0  0  0  0  0  0  0  0  0  0  0  0
  187.0050  177.8070  144.7680 C   0  0  0  0  0  0  0  0  0  0  0  0
  185.9970  177.3060  142.6570 C   0  0  0  0  0  3  0  0  0  0  0  0
  184.3460  178.1420  147.1580 N   0  0  0  0  0  1  0  0  0  0  0  0
  190.5290  176.9230  144.8970 O   0  0  0  0  0  0  0  0  0  0  0  0
  194.4000  176.0370  143.6510 C   0  0  0  0  0  2  0  0  0  0  0  0
  187.2980  177.0360  142.1530 C   0  0  0  0  0  0  0  0  0  0  0  0
  190.7400  175.0520  142.9950 N   0  0  0  0  0  2  0  0  0  0  0  0
  185.8940  177.7300  143.9910 C   0  0  0  0  0  0  0  0  0  0  0  0
  193.0690  175.8480  142.9130 C   0  0  0  0  0  2  0  0  0  0  0  0
  189.1580  174.7520  141.2670 C   0  0  0  0  0  0  0  0  0  0  0  0
  191.2910  176.0660  145.6600 N   0  0  0  0  0  0  0  0  0  0  0  0
  188.4300  177.1490  142.9960 C   0  0  0  0  0  3  0  0  0  0  0  0
  194.3690  174.8050  145.8270 C   0  0  0  0  0  2  0  0  0  0  0  0
  188.9450  177.5440  146.6850 C   0  0  0  0  0  3  0  0  0  0  0  0
  184.7260  177.8750  144.8030 N   0  0  0  0  0  0  0  0  0  0  0  0
  188.2750  177.5060  144.3410 C   0  0  0  0  0  0  0  0  0  0  0  0
  186.6560  177.9670  146.0620 C   0  0  0  0  0  0  0  0  0  0  0  0
  192.9260  174.3160  145.9400 C   0  0  0  0  0  2  0  0  0  0  0  0
  194.8860  174.7910  144.3880 C   0  0  0  0  0  2  0  0  0  0  0  0
  187.9690  175.0600  140.8090 C   0  0  0  0  0  3  0  0  0  0  0  0
  187.6110  177.8350  147.0750 C   0  0  0  0  0  3  0  0  0  0  0  0
  189.2760  177.3630  145.3120 C   0  0  0  0  0  0  0  0  0  0  0  0
  191.1930  173.4580  141.0540 C   0  0  0  0  0  2  0  0  0  0  0  0
  190.3510  172.3000  140.5400 C   0  0  0  0  0  2  0  0  0  0  0  0
  189.6640  171.0790  138.6910 C   0  0  1  0  0  3  0  0  0  0  0  0
  190.4560  172.2120  139.0930 N   0  0  0  0  0  0  0  0  0  0  0  0
  189.1720  172.3400  138.5930 O   0  0  0  0  0  0  0  0  0  0  0  0
  190.1190  170.6050  137.3240 C   0  0  0  0  0  2  0  0  0  0  0  0
  190.3130  168.4350  138.5280 O   0  0  0  0  0  1  0  0  0  0  0  0
  190.5940  169.1970  137.4030 C   0  0  0  0  0  0  0  0  0  0  0  0
  191.2210  168.6870  136.4360 O   0  0  0  0  0  0  0  0  0  0  0  0
  1 14  1  6  0  0  0
  1  4  1  0  0  0  0
  2 22  1  0  0  0  0
  2  8  1  0  0  0  0
  3 25  1  0  0  0  0
  3 11  1  0  0  0  0
  4 16  2  0  0  0  0
  4 23  1  0  0  0  0
  5 12  1  0  0  0  0
  6 22  1  0  0  0  0
  7 13  1  0  0  0  0
  9 27  1  0  0  0  0
  9 16  1  0  0  0  0
 10 24  1  0  0  0  0
 11  7  2  0  0  0  0
 11 17  1  0  0  0  0
 12  1  1  0  0  0  0
 13  6  2  0  0  0  0
 13 20  1  0  0  0  0
 14 10  1  0  0  0  0
 15  5  2  0  0  0  0
 17 21  2  0  0  0  0
 18 23  1  0  0  0  0
 19 26  1  0  0  0  0
 20  2  2  0  0  0  0
 21  6  1  0  0  0  0
 21 27  1  0  0  0  0
 22 26  2  0  0  0  0
 24 18  1  0  0  0  0
 25 15  2  0  0  0  0
 27 19  2  0  0  0  0
 28  5  1  0  0  0  0
 29 28  1  0  0  0  0
 30 33  1  6  0  0  0
 30 31  1  0  0  0  0
 31 29  1  0  0  0  0
 32 30  1  0  0  0  0
 32 31  1  0  0  0  0
 33 35  1  0  0  0  0
 35 34  1  0  0  0  0
 36 35  2  0  0  0  0
M  END
>  <MODEL>
7

>  <REMARK>
 VINA RESULT:      -8.1      3.534      8.855
  Name = 
  5 active torsions:
  status: ('A' for Active; 'I' for Inactive)
    1  A    between atoms: C_2  and  N_15
    2  A    between atoms: C_2  and  C_29
    3  A    between atoms: C_7  and  C_29
    4  A    between atoms: C_8  and  C_22
    5  A    between atoms: C_18  and  C_22
                            x       y       z     vdW  Elec       q    Type
                         _______ _______ _______ _____ _____    ______ ____

>  <TORSDO>
F 5

$$$$
=
 OpenBabel11042414453D

 36 41  0  0  1  0  0  0  0  0999 V2000
  192.4190  175.1010  143.9210 C   0  0  1  0  0  3  0  0  0  0  0  0
  185.2660  177.8150  145.9540 C   0  0  0  0  0  0  0  0  0  0  0  0
  187.8160  176.0990  140.8850 C   0  0  0  0  0  2  0  0  0  0  0  0
  192.3110  175.4210  145.3960 C   0  0  0  0  0  0  0  0  0  0  0  0
  190.7920  174.3920  142.0600 C   0  0  0  0  0  0  0  0  0  0  0  0
  187.1250  177.6550  144.7620 C   0  0  0  0  0  0  0  0  0  0  0  0
  186.2180  176.9310  142.6700 C   0  0  0  0  0  3  0  0  0  0  0  0
  184.3840  177.9450  147.0620 N   0  0  0  0  0  1  0  0  0  0  0  0
  190.7030  177.0620  145.0330 O   0  0  0  0  0  0  0  0  0  0  0  0
  194.6630  176.3980  143.9390 C   0  0  0  0  0  2  0  0  0  0  0  0
  187.5500  176.7300  142.2160 C   0  0  0  0  0  0  0  0  0  0  0  0
  191.1090  175.0860  143.2740 N   0  0  0  0  0  2  0  0  0  0  0  0
  186.0460  177.4370  143.9680 C   0  0  0  0  0  0  0  0  0  0  0  0
  193.3720  176.0550  143.1870 C   0  0  0  0  0  2  0  0  0  0  0  0
  189.6030  174.5430  141.5360 C   0  0  0  0  0  0  0  0  0  0  0  0
  191.5060  176.3220  145.8720 N   0  0  0  0  0  0  0  0  0  0  0  0
  188.6460  176.9890  143.0730 C   0  0  0  0  0  3  0  0  0  0  0  0
  194.6670  175.3210  146.1960 C   0  0  0  0  0  2  0  0  0  0  0  0
  189.0260  177.6780  146.7350 C   0  0  0  0  0  3  0  0  0  0  0  0
  184.8490  177.5450  144.7420 N   0  0  0  0  0  0  0  0  0  0  0  0
  188.4270  177.4250  144.3860 C   0  0  0  0  0  0  0  0  0  0  0  0
  186.7300  177.8760  146.0330 C   0  0  0  0  0  0  0  0  0  0  0  0
  193.2630  174.7290  146.3110 C   0  0  0  0  0  2  0  0  0  0  0  0
  195.2220  175.2480  144.7740 C   0  0  0  0  0  2  0  0  0  0  0  0
  188.4070  174.7240  141.0310 C   0  0  0  0  0  3  0  0  0  0  0  0
  187.6640  177.8910  147.0750 C   0  0  0  0  0  3  0  0  0  0  0  0
  189.4080  177.4290  145.3870 C   0  0  0  0  0  0  0  0  0  0  0  0
  191.7370  173.4020  141.4620 C   0  0  0  0  0  2  0  0  0  0  0  0
  192.3290  173.9280  140.1630 C   0  0  0  0  0  2  0  0  0  0  0  0
  194.2620  174.3920  138.9660 C   0  0  1  0  0  3  0  0  0  0  0  0
  193.7800  173.9260  140.2410 N   0  0  0  0  0  0  0  0  0  0  0  0
  194.1920  175.2300  140.0320 O   0  0  0  0  0  0  0  0  0  0  0  0
  195.6970  173.9390  138.7720 C   0  0  0  0  0  2  0  0  0  0  0  0
  197.4370  175.6650  139.2050 O   0  0  0  0  0  1  0  0  0  0  0  0
  196.5370  175.0820  138.3240 C   0  0  0  0  0  0  0  0  0  0  0  0
  196.4560  175.4970  137.1370 O   0  0  0  0  0  0  0  0  0  0  0  0
  1 14  1  6  0  0  0
  1  4  1  0  0  0  0
  2 22  1  0  0  0  0
  2  8  1  0  0  0  0
  3 25  1  0  0  0  0
  3 11  1  0  0  0  0
  4 16  2  0  0  0  0
  4 23  1  0  0  0  0
  5 12  1  0  0  0  0
  6 22  1  0  0  0  0
  7 13  1  0  0  0  0
  9 27  1  0  0  0  0
  9 16  1  0  0  0  0
 10 24  1  0  0  0  0
 11  7  2  0  0  0  0
 11 17  1  0  0  0  0
 12  1  1  0  0  0  0
 13 20  1  0  0  0  0
 13  6  2  0  0  0  0
 14 10  1  0  0  0  0
 15  5  2  0  0  0  0
 17 21  2  0  0  0  0
 18 23  1  0  0  0  0
 19 26  1  0  0  0  0
 20  2  2  0  0  0  0
 21  6  1  0  0  0  0
 21 27  1  0  0  0  0
 22 26  2  0  0  0  0
 24 18  1  0  0  0  0
 25 15  2  0  0  0  0
 27 19  2  0  0  0  0
 28  5  1  0  0  0  0
 29 31  1  0  0  0  0
 29 28  1  0  0  0  0
 30 33  1  1  0  0  0
 30 32  1  0  0  0  0
 30 31  1  0  0  0  0
 32 31  1  0  0  0  0
 35 33  1  0  0  0  0
 35 34  1  0  0  0  0
 36 35  2  0  0  0  0
M  END
>  <MODEL>
8

>  <REMARK>
 VINA RESULT:      -8.1      2.646      8.998
  Name = 
  5 active torsions:
  status: ('A' for Active; 'I' for Inactive)
    1  A    between atoms: C_2  and  N_15
    2  A    between atoms: C_2  and  C_29
    3  A    between atoms: C_7  and  C_29
    4  A    between atoms: C_8  and  C_22
    5  A    between atoms: C_18  and  C_22
                            x       y       z     vdW  Elec       q    Type
                         _______ _______ _______ _____ _____    ______ ____

>  <TORSDO>
F 5

$$$$
=
 OpenBabel11042414453D

 36 41  0  0  1  0  0  0  0  0999 V2000
  191.7840  173.3430  142.5050 C   0  0  1  0  0  3  0  0  0  0  0  0
  186.2680  178.6890  144.4170 C   0  0  0  0  0  0  0  0  0  0  0  0
  190.1260  175.3700  147.4590 C   0  0  0  0  0  2  0  0  0  0  0  0
  191.0460  173.8790  141.2980 C   0  0  0  0  0  0  0  0  0  0  0  0
  192.3670  174.2130  144.8530 C   0  0  0  0  0  0  0  0  0  0  0  0
  187.4020  176.7910  144.5440 C   0  0  0  0  0  0  0  0  0  0  0  0
  188.3180  176.9990  146.7450 C   0  0  0  0  0  3  0  0  0  0  0  0
  185.5300  179.7840  143.8880 N   0  0  0  0  0  1  0  0  0  0  0  0
  189.1160  174.2960  142.5300 O   0  0  0  0  0  0  0  0  0  0  0  0
  191.4120  170.9770  141.5140 C   0  0  0  0  0  2  0  0  0  0  0  0
  189.0940  175.8390  146.4800 C   0  0  0  0  0  0  0  0  0  0  0  0
  191.5180  174.1400  143.7000 N   0  0  0  0  0  2  0  0  0  0  0  0
  187.4400  177.4330  145.7390 C   0  0  0  0  0  0  0  0  0  0  0  0
  191.4760  171.8620  142.7650 C   0  0  0  0  0  2  0  0  0  0  0  0
  191.9610  174.8890  145.8960 C   0  0  0  0  0  0  0  0  0  0  0  0
  189.8230  174.3160  141.3490 N   0  0  0  0  0  0  0  0  0  0  0  0
  189.0070  175.1890  145.2250 C   0  0  0  0  0  3  0  0  0  0  0  0
  191.7400  172.3570  139.4540 C   0  0  0  0  0  2  0  0  0  0  0  0
  187.4960  176.0500  141.9080 C   0  0  0  0  0  3  0  0  0  0  0  0
  186.7030  178.6560  145.6520 N   0  0  0  0  0  0  0  0  0  0  0  0
  188.1720  175.6990  144.2240 C   0  0  0  0  0  0  0  0  0  0  0  0
  186.7080  177.5200  143.6460 C   0  0  0  0  0  0  0  0  0  0  0  0
  191.7410  173.7910  139.9820 C   0  0  0  0  0  2  0  0  0  0  0  0
  192.4010  171.3730  140.4190 C   0  0  0  0  0  2  0  0  0  0  0  0
  191.5200  175.5640  146.9300 C   0  0  0  0  0  3  0  0  0  0  0  0
  186.7310  177.1840  142.2880 C   0  0  0  0  0  3  0  0  0  0  0  0
  188.2320  175.3120  142.8780 C   0  0  0  0  0  0  0  0  0  0  0  0
  193.7530  173.6550  144.8340 C   0  0  0  0  0  2  0  0  0  0  0  0
  193.8660  172.4460  145.7510 C   0  0  0  0  0  2  0  0  0  0  0  0
  194.9930  170.4220  145.8780 C   0  0  1  0  0  3  0  0  0  0  0  0
  195.1700  171.8230  145.5950 N   0  0  0  0  0  0  0  0  0  0  0  0
  195.0390  170.8720  144.5980 O   0  0  0  0  0  0  0  0  0  0  0  0
  196.3310  169.8090  146.2470 C   0  0  0  0  0  2  0  0  0  0  0  0
  194.9060  168.5410  147.8450 O   0  0  0  0  0  0  0  0  0  0  0  0
  196.1750  168.9130  147.4240 C   0  0  0  0  0  0  0  0  0  0  0  0
  197.1920  168.4650  148.0150 O   0  0  0  0  0  1  0  0  0  0  0  0
  1 14  1  1  0  0  0
  1 12  1  0  0  0  0
  2 20  2  0  0  0  0
  4 16  2  0  0  0  0
  4  1  1  0  0  0  0
  5 15  2  0  0  0  0
  6 13  1  0  0  0  0
  8  2  1  0  0  0  0
  9 27  1  0  0  0  0
 10 14  1  0  0  0  0
 11  7  1  0  0  0  0
 11  3  1  0  0  0  0
 12  5  1  0  0  0  0
 13  7  2  0  0  0  0
 15 25  2  0  0  0  0
 16  9  1  0  0  0  0
 17 11  2  0  0  0  0
 18 23  1  0  0  0  0
 18 24  1  0  0  0  0
 19 26  2  0  0  0  0
 19 27  1  0  0  0  0
 20 13  1  0  0  0  0
 21  6  1  0  0  0  0
 21 17  1  0  0  0  0
 22  2  1  0  0  0  0
 22  6  2  0  0  0  0
 23  4  1  0  0  0  0
 24 10  1  0  0  0  0
 25  3  1  0  0  0  0
 26 22  1  0  0  0  0
 27 21  2  0  0  0  0
 28  5  1  0  0  0  0
 28 29  1  0  0  0  0
 30 33  1  6  0  0  0
 31 29  1  0  0  0  0
 31 30  1  0  0  0  0
 32 31  1  0  0  0  0
 32 30  1  0  0  0  0
 33 35  1  0  0  0  0
 35 34  2  0  0  0  0
 35 36  1  0  0  0  0
M  END
>  <MODEL>
9

>  <REMARK>
 VINA RESULT:      -7.8      3.951      8.609
  Name = 
  5 active torsions:
  status: ('A' for Active; 'I' for Inactive)
    1  A    between atoms: C_2  and  N_15
    2  A    between atoms: C_2  and  C_29
    3  A    between atoms: C_7  and  C_29
    4  A    between atoms: C_8  and  C_22
    5  A    between atoms: C_18  and  C_22
                            x       y       z     vdW  Elec       q    Type
                         _______ _______ _______ _____ _____    ______ ____

>  <TORSDO>
F 5

$$$$
