=
 OpenBabel11042414163D

 45 48  0  0  1  0  0  0  0  0999 V2000
  193.8710  175.1600  143.6170 C   0  0  0  0  0  0  0  0  0  0  0  0
  195.1190  173.6390  140.5300 N   0  0  0  0  0  0  0  0  0  0  0  0
  190.8600  172.0170  143.5500 C   0  0  1  0  0  3  0  0  0  0  0  0
  190.7090  173.8550  145.2880 C   0  0  0  0  0  0  0  0  0  0  0  0
  194.7780  176.2030  143.8210 C   0  0  0  0  0  2  0  0  0  0  0  0
  192.1910  172.7360  138.2490 O   0  0  0  0  0  0  0  0  0  0  0  0
  190.4580  174.7340  146.2600 C   0  0  0  0  0  3  0  0  0  0  0  0
  191.9240  173.0130  143.5250 N   0  0  0  0  0  0  0  0  0  0  0  0
  195.7980  176.3840  142.9380 N   0  0  0  0  0  0  0  0  0  0  0  0
  188.7860  173.2690  139.5010 C   0  0  0  0  0  2  0  0  0  0  0  0
  195.8030  172.7400  138.3330 N   0  0  0  0  0  0  0  0  0  0  0  0
  194.0370  174.3480  142.5410 N   0  0  0  0  0  0  0  0  0  0  0  0
  193.4440  173.3500  138.1670 C   0  0  0  0  0  0  0  0  0  0  0  0
  189.9580  172.7000  139.2180 C   0  0  0  0  0  0  0  0  0  0  0  0
  191.8510  173.9490  144.4090 C   0  0  0  0  0  0  0  0  0  0  0  0
  193.5580  174.5910  138.3720 O   0  0  0  0  0  0  0  0  0  0  0  0
  189.6760  172.4560  144.8840 S   0  0  0  0  0  0  0  0  0  0  0  0
  195.0530  174.5140  141.6590 C   0  0  0  0  0  0  0  0  0  0  0  0
  195.9530  175.5690  141.8590 C   0  0  0  0  0  3  0  0  0  0  0  0
  194.6270  172.5510  137.7930 C   0  0  0  0  0  0  0  0  0  0  0  0
  191.0800  171.6990  141.1340 N   0  0  0  0  0  2  0  0  0  0  0  0
  191.0030  173.4930  138.4670 C   0  0  2  0  0  3  0  0  0  0  0  0
  192.8020  174.9780  144.5060 O   0  0  0  0  0  0  0  0  0  0  0  0
  196.0880  173.5650  139.4720 C   0  0  0  0  0  0  0  0  0  0  0  0
  190.1380  171.9810  142.2110 C   0  0  0  0  0  2  0  0  0  0  0  0
  190.3130  171.4250  139.9260 C   0  0  0  0  0  2  0  0  0  0  0  0
  197.6310  174.0590  139.7020 S   0  0  0  0  0  0  0  0  0  0  0  0
  194.1880  171.9150  135.4490 C   0  0  0  0  0  1  0  0  0  0  0  0
  194.4640  171.5820  136.8020 O   0  0  0  0  0  0  0  0  0  0  0  0
  190.3660  172.9580  136.0780 C   0  0  0  0  0  1  0  0  0  0  0  0
  190.4760  174.0420  137.1380 C   0  0  0  0  0  2  0  0  0  0  0  0
  189.2730  174.6340  147.1680 C   0  0  0  0  0  2  0  0  0  0  0  0
  188.5630  176.8280  146.3050 C   0  0  0  0  0  3  0  0  0  0  0  0
  188.2250  175.6340  146.7930 C   0  0  0  0  0  3  0  0  0  0  0  0
  186.5580  178.0010  147.1290 C   0  0  0  0  0  2  0  0  0  0  0  0
  184.7010  178.5430  145.5410 C   0  0  0  0  0  2  0  0  0  0  0  0
  186.7420  177.3640  144.7170 C   0  0  0  0  0  2  0  0  0  0  0  0
  187.5140  177.8290  145.9520 C   0  0  2  0  0  3  0  0  0  0  0  0
  185.4650  179.0080  146.7770 C   0  0  0  0  0  2  0  0  0  0  0  0
  185.6540  178.3790  144.3550 C   0  0  1  0  0  3  0  0  0  0  0  0
  184.8870  177.9250  143.1110 C   0  0  1  0  0  3  0  0  0  0  0  0
  183.6030  178.4760  143.1030 O   0  0  0  0  0  1  0  0  0  0  0  0
  186.7460  178.7360  141.8860 O   0  0  0  0  0  0  0  0  0  0  0  0
  185.6000  178.3100  141.8490 C   0  0  0  0  0  0  0  0  0  0  0  0
  184.9060  178.1720  140.5380 C   0  0  0  0  0  1  0  0  0  0  0  0
  1  5  1  0  0  0  0
  1 23  1  0  0  0  0
  2 18  2  0  0  0  0
  3 25  1  6  0  0  0
  3 17  1  0  0  0  0
  4  7  2  0  0  0  0
  6 22  1  0  0  0  0
  7 32  1  0  0  0  0
  8  3  1  0  0  0  0
  8 15  2  0  0  0  0
  9  5  1  0  0  0  0
 11 24  1  0  0  0  0
 12  1  2  0  0  0  0
 13  6  1  0  0  0  0
 13 16  2  0  0  0  0
 14 10  2  0  0  0  0
 14 26  1  0  0  0  0
 15 23  1  0  0  0  0
 15  4  1  0  0  0  0
 17  4  1  0  0  0  0
 18 19  1  0  0  0  0
 18 12  1  0  0  0  0
 19  9  2  0  0  0  0
 20 13  1  0  0  0  0
 20 11  2  0  0  0  0
 21 25  1  0  0  0  0
 22 31  1  6  0  0  0
 22 14  1  0  0  0  0
 24 27  2  0  0  0  0
 24  2  1  0  0  0  0
 26 21  1  0  0  0  0
 28 29  1  0  0  0  0
 29 20  1  0  0  0  0
 30 31  1  0  0  0  0
 33 34  2  0  0  0  0
 34 32  1  0  0  0  0
 36 39  1  0  0  0  0
 37 38  1  0  0  0  0
 38 33  1  1  0  0  0
 38 35  1  0  0  0  0
 39 35  1  0  0  0  0
 40 41  1  6  0  0  0
 40 37  1  0  0  0  0
 40 36  1  0  0  0  0
 41 42  1  6  0  0  0
 44 43  2  0  0  0  0
 44 41  1  0  0  0  0
 45 44  1  0  0  0  0
M  END
>  <MODEL>
1

>  <REMARK>
 VINA RESULT:      -8.4      0.000      0.000
  Name = 
  7 active torsions:
  status: ('A' for Active; 'I' for Inactive)
    1  A    between atoms: C_2  and  C_7
    2  A    between atoms: C_2  and  C_14
    3  A    between atoms: C_3  and  C_25
    4  A    between atoms: C_17  and  C_29
    5  A    between atoms: C_17  and  C_45
    6  A    between atoms: O_33  and  C_34
    7  A    between atoms: C_37  and  C_39
                            x       y       z     vdW  Elec       q    Type
                         _______ _______ _______ _____ _____    ______ ____

>  <TORSDO>
F 7

$$$$
=
 OpenBabel11042414163D

 45 48  0  0  1  0  0  0  0  0999 V2000
  190.5470  173.1960  140.9410 C   0  0  0  0  0  0  0  0  0  0  0  0
  192.8310  174.0950  138.2240 N   0  0  0  0  0  0  0  0  0  0  0  0
  192.3920  176.4800  143.1250 C   0  0  1  0  0  3  0  0  0  0  0  0
  190.7320  174.9700  144.3040 C   0  0  0  0  0  0  0  0  0  0  0  0
  189.8200  172.1430  140.3800 C   0  0  0  0  0  3  0  0  0  0  0  0
  196.3120  174.8000  139.6300 O   0  0  0  0  0  0  0  0  0  0  0  0
  189.9000  174.2850  145.0900 C   0  0  0  0  0  3  0  0  0  0  0  0
  191.7960  175.4240  142.3140 N   0  0  0  0  0  0  0  0  0  0  0  0
  190.0890  171.7490  139.1060 N   0  0  0  0  0  0  0  0  0  0  0  0
  196.7650  174.7140  143.2680 C   0  0  0  0  0  2  0  0  0  0  0  0
  194.5310  174.5670  136.4950 N   0  0  0  0  0  0  0  0  0  0  0  0
  191.5040  173.8050  140.1920 N   0  0  0  0  0  0  0  0  0  0  0  0
  195.7200  174.0990  138.5760 C   0  0  0  0  0  0  0  0  0  0  0  0
  196.5240  175.1470  142.0310 C   0  0  0  0  0  0  0  0  0  0  0  0
  190.9500  174.6550  142.9120 C   0  0  0  0  0  0  0  0  0  0  0  0
  195.3440  172.9040  138.7400 O   0  0  0  0  0  0  0  0  0  0  0  0
  191.7350  176.3500  144.8350 S   0  0  0  0  0  0  0  0  0  0  0  0
  191.7750  173.4260  138.9190 C   0  0  0  0  0  0  0  0  0  0  0  0
  191.0530  172.3610  138.3650 C   0  0  0  0  0  2  0  0  0  0  0  0
  195.5800  174.7420  137.2550 C   0  0  0  0  0  0  0  0  0  0  0  0
  194.4360  176.3760  141.7830 N   0  0  0  0  0  2  0  0  0  0  0  0
  196.5950  174.1720  140.8780 C   0  0  2  0  0  3  0  0  0  0  0  0
  190.2970  173.5950  142.2620 O   0  0  0  0  0  0  0  0  0  0  0  0
  193.3050  173.9270  136.8790 C   0  0  0  0  0  0  0  0  0  0  0  0
  193.9080  176.3410  143.1420 C   0  0  0  0  0  2  0  0  0  0  0  0
  195.8860  176.4960  141.8670 C   0  0  0  0  0  2  0  0  0  0  0  0
  192.3180  173.3750  135.6960 S   0  0  0  0  0  0  0  0  0  0  0  0
  197.8680  174.9980  136.3670 C   0  0  0  0  0  1  0  0  0  0  0  0
  196.6350  175.5430  136.8130 O   0  0  0  0  0  0  0  0  0  0  0  0
  197.7750  171.9350  140.8420 C   0  0  0  0  0  1  0  0  0  0  0  0
  197.9410  173.4460  140.8090 C   0  0  0  0  0  2  0  0  0  0  0  0
  189.6790  174.6140  146.5330 C   0  0  0  0  0  2  0  0  0  0  0  0
  188.5600  176.8060  146.6220 C   0  0  0  0  0  3  0  0  0  0  0  0
  188.4700  175.4780  146.7050 C   0  0  0  0  0  3  0  0  0  0  0  0
  186.2780  176.8700  147.5510 C   0  0  0  0  0  2  0  0  0  0  0  0
  184.5040  178.1950  146.3840 C   0  0  0  0  0  2  0  0  0  0  0  0
  186.8220  178.1290  145.4590 C   0  0  0  0  0  2  0  0  0  0  0  0
  187.3540  177.6640  146.8140 C   0  0  2  0  0  3  0  0  0  0  0  0
  185.0280  177.7270  147.7380 C   0  0  0  0  0  2  0  0  0  0  0  0
  185.5770  178.9990  145.6460 C   0  0  1  0  0  3  0  0  0  0  0  0
  185.0480  179.4800  144.2930 C   0  0  1  0  0  3  0  0  0  0  0  0
  185.6050  180.7180  143.9650 O   0  0  0  0  0  1  0  0  0  0  0  0
  184.5790  177.5760  142.9620 O   0  0  0  0  0  0  0  0  0  0  0  0
  185.3470  178.4970  143.1990 C   0  0  0  0  0  0  0  0  0  0  0  0
  186.5920  178.6450  142.3950 C   0  0  0  0  0  1  0  0  0  0  0  0
  1 23  1  0  0  0  0
  2 18  2  0  0  0  0
  3 25  1  1  0  0  0
  3 17  1  0  0  0  0
  4 17  1  0  0  0  0
  4  7  2  0  0  0  0
  5  1  1  0  0  0  0
  6 22  1  0  0  0  0
  7 32  1  0  0  0  0
  8 15  2  0  0  0  0
  8  3  1  0  0  0  0
  9  5  2  0  0  0  0
 11 24  1  0  0  0  0
 11 20  2  0  0  0  0
 12  1  2  0  0  0  0
 13 16  2  0  0  0  0
 13  6  1  0  0  0  0
 14 10  2  0  0  0  0
 15  4  1  0  0  0  0
 18 12  1  0  0  0  0
 19 18  1  0  0  0  0
 19  9  1  0  0  0  0
 20 13  1  0  0  0  0
 21 26  1  0  0  0  0
 21 25  1  0  0  0  0
 22 31  1  6  0  0  0
 22 14  1  0  0  0  0
 23 15  1  0  0  0  0
 24  2  1  0  0  0  0
 26 14  1  0  0  0  0
 27 24  2  0  0  0  0
 28 29  1  0  0  0  0
 29 20  1  0  0  0  0
 31 30  1  0  0  0  0
 32 34  1  0  0  0  0
 33 34  2  0  0  0  0
 35 39  1  0  0  0  0
 36 39  1  0  0  0  0
 37 40  1  0  0  0  0
 37 38  1  0  0  0  0
 38 33  1  6  0  0  0
 38 35  1  0  0  0  0
 40 41  1  6  0  0  0
 40 36  1  0  0  0  0
 41 42  1  6  0  0  0
 43 44  2  0  0  0  0
 44 41  1  0  0  0  0
 45 44  1  0  0  0  0
M  END
>  <MODEL>
2

>  <REMARK>
 VINA RESULT:      -7.8      2.263      4.585
  Name = 
  7 active torsions:
  status: ('A' for Active; 'I' for Inactive)
    1  A    between atoms: C_2  and  C_7
    2  A    between atoms: C_2  and  C_14
    3  A    between atoms: C_3  and  C_25
    4  A    between atoms: C_17  and  C_29
    5  A    between atoms: C_17  and  C_45
    6  A    between atoms: O_33  and  C_34
    7  A    between atoms: C_37  and  C_39
                            x       y       z     vdW  Elec       q    Type
                         _______ _______ _______ _____ _____    ______ ____

>  <TORSDO>
F 7

$$$$
=
 OpenBabel11042414163D

 45 48  0  0  1  0  0  0  0  0999 V2000
  194.0340  175.1640  142.9420 C   0  0  0  0  0  0  0  0  0  0  0  0
  194.8940  173.6770  139.7090 N   0  0  0  0  0  0  0  0  0  0  0  0
  191.0240  172.0290  143.2020 C   0  0  1  0  0  3  0  0  0  0  0  0
  191.0920  173.8470  144.9670 C   0  0  0  0  0  0  0  0  0  0  0  0
  194.9630  176.2030  143.0460 C   0  0  0  0  0  3  0  0  0  0  0  0
  191.7090  172.8090  137.7870 O   0  0  0  0  0  0  0  0  0  0  0  0
  190.9630  174.7150  145.9720 C   0  0  0  0  0  3  0  0  0  0  0  0
  192.0820  173.0230  143.0600 N   0  0  0  0  0  0  0  0  0  0  0  0
  195.8690  176.3920  142.0490 N   0  0  0  0  0  0  0  0  0  0  0  0
  188.4820  173.3350  139.4480 C   0  0  0  0  0  2  0  0  0  0  0  0
  195.3050  172.8030  137.4350 N   0  0  0  0  0  0  0  0  0  0  0  0
  194.0650  174.3650  141.8440 N   0  0  0  0  0  0  0  0  0  0  0  0
  192.9450  173.4210  137.5630 C   0  0  0  0  0  0  0  0  0  0  0  0
  189.6090  172.7670  139.0190 C   0  0  0  0  0  0  0  0  0  0  0  0
  192.1190  173.9490  143.9570 C   0  0  0  0  0  0  0  0  0  0  0  0
  193.0880  174.6590  137.7660 O   0  0  0  0  0  0  0  0  0  0  0  0
  190.0110  172.4550  144.6740 S   0  0  0  0  0  0  0  0  0  0  0  0
  194.9680  174.5390  140.8480 C   0  0  0  0  0  0  0  0  0  0  0  0
  195.8900  175.5890  140.9500 C   0  0  0  0  0  2  0  0  0  0  0  0
  194.0720  172.6240  137.0390 C   0  0  0  0  0  0  0  0  0  0  0  0
  190.9500  171.7400  140.7740 N   0  0  0  0  0  2  0  0  0  0  0  0
  190.5590  173.5660  138.1570 C   0  0  2  0  0  3  0  0  0  0  0  0
  193.0790  174.9740  143.9510 O   0  0  0  0  0  0  0  0  0  0  0  0
  195.7280  173.6130  138.5410 C   0  0  0  0  0  0  0  0  0  0  0  0
  190.1460  172.0110  141.9590 C   0  0  0  0  0  2  0  0  0  0  0  0
  190.0420  171.4820  139.6640 C   0  0  0  0  0  2  0  0  0  0  0  0
  197.2900  174.1010  138.5890 S   0  0  0  0  0  0  0  0  0  0  0  0
  193.6590  170.2850  136.3680 C   0  0  0  0  0  1  0  0  0  0  0  0
  193.7860  171.6660  136.0640 O   0  0  0  0  0  0  0  0  0  0  0  0
  189.6310  173.0600  135.8580 C   0  0  0  0  0  1  0  0  0  0  0  0
  189.8780  174.1320  136.9070 C   0  0  0  0  0  2  0  0  0  0  0  0
  189.8960  174.6070  147.0150 C   0  0  0  0  0  2  0  0  0  0  0  0
  188.7140  176.7610  146.8660 C   0  0  0  0  0  3  0  0  0  0  0  0
  188.7100  175.4450  146.6560 C   0  0  0  0  0  3  0  0  0  0  0  0
  186.3560  177.2020  147.4320 C   0  0  0  0  0  2  0  0  0  0  0  0
  184.7410  177.8120  145.6190 C   0  0  0  0  0  2  0  0  0  0  0  0
  187.1350  177.3730  145.0610 C   0  0  0  0  0  2  0  0  0  0  0  0
  187.5200  177.5900  146.5240 C   0  0  2  0  0  3  0  0  0  0  0  0
  185.1190  178.0260  147.0820 C   0  0  0  0  0  2  0  0  0  0  0  0
  185.9020  178.2080  144.7050 C   0  0  1  0  0  3  0  0  0  0  0  0
  185.5210  178.0060  143.2370 C   0  0  1  0  0  3  0  0  0  0  0  0
  185.6110  176.6550  142.8930 O   0  0  0  0  0  1  0  0  0  0  0  0
  183.5350  179.1840  143.7690 O   0  0  0  0  0  0  0  0  0  0  0  0
  184.1320  178.4980  142.9520 C   0  0  0  0  0  0  0  0  0  0  0  0
  183.4760  178.1490  141.6610 C   0  0  0  0  0  1  0  0  0  0  0  0
  1  5  1  0  0  0  0
  1 23  1  0  0  0  0
  2 18  2  0  0  0  0
  3 25  1  6  0  0  0
  3 17  1  0  0  0  0
  4  7  2  0  0  0  0
  6 22  1  0  0  0  0
  7 32  1  0  0  0  0
  8  3  1  0  0  0  0
  8 15  2  0  0  0  0
  9  5  2  0  0  0  0
 11 24  1  0  0  0  0
 12  1  2  0  0  0  0
 13 16  2  0  0  0  0
 13  6  1  0  0  0  0
 14 10  2  0  0  0  0
 14 26  1  0  0  0  0
 15  4  1  0  0  0  0
 17  4  1  0  0  0  0
 18 19  1  0  0  0  0
 18 12  1  0  0  0  0
 19  9  1  0  0  0  0
 20 11  2  0  0  0  0
 20 13  1  0  0  0  0
 21 25  1  0  0  0  0
 22 31  1  6  0  0  0
 22 14  1  0  0  0  0
 23 15  1  0  0  0  0
 24 27  2  0  0  0  0
 24  2  1  0  0  0  0
 26 21  1  0  0  0  0
 29 28  1  0  0  0  0
 29 20  1  0  0  0  0
 30 31  1  0  0  0  0
 34 33  2  0  0  0  0
 34 32  1  0  0  0  0
 36 39  1  0  0  0  0
 37 38  1  0  0  0  0
 38 33  1  1  0  0  0
 38 35  1  0  0  0  0
 39 35  1  0  0  0  0
 40 41  1  6  0  0  0
 40 37  1  0  0  0  0
 40 36  1  0  0  0  0
 41 42  1  1  0  0  0
 44 41  1  0  0  0  0
 44 43  2  0  0  0  0
 45 44  1  0  0  0  0
M  END
>  <MODEL>
3

>  <REMARK>
 VINA RESULT:      -7.6      0.896      1.076
  Name = 
  7 active torsions:
  status: ('A' for Active; 'I' for Inactive)
    1  A    between atoms: C_2  and  C_7
    2  A    between atoms: C_2  and  C_14
    3  A    between atoms: C_3  and  C_25
    4  A    between atoms: C_17  and  C_29
    5  A    between atoms: C_17  and  C_45
    6  A    between atoms: O_33  and  C_34
    7  A    between atoms: C_37  and  C_39
                            x       y       z     vdW  Elec       q    Type
                         _______ _______ _______ _____ _____    ______ ____

>  <TORSDO>
F 7

$$$$
=
 OpenBabel11042414163D

 45 48  0  0  1  0  0  0  0  0999 V2000
  187.4410  176.2280  140.6170 C   0  0  0  0  0  0  0  0  0  0  0  0
  187.8910  176.7740  144.2090 N   0  0  0  0  0  2  0  0  0  0  0  0
  189.6580  172.5330  141.2430 C   0  0  1  0  0  3  0  0  0  0  0  0
  189.0490  173.2420  138.8870 C   0  0  0  0  0  0  0  0  0  0  0  0
  186.6850  177.3410  140.2410 C   0  0  0  0  0  3  0  0  0  0  0  0
  191.4680  175.8960  145.2200 O   0  0  0  0  0  0  0  0  0  0  0  0
  188.8320  173.4510  137.5880 C   0  0  0  0  0  3  0  0  0  0  0  0
  188.8880  173.7660  141.1220 N   0  0  0  0  0  0  0  0  0  0  0  0
  186.3260  178.2540  141.1830 N   0  0  0  0  0  0  0  0  0  0  0  0
  193.7030  174.5040  142.6670 C   0  0  0  0  0  2  0  0  0  0  0  0
  188.4020  177.2360  146.5820 N   0  0  0  0  0  0  0  0  0  0  0  0
  187.7930  176.0850  141.9220 N   0  0  0  0  0  0  0  0  0  0  0  0
  190.5300  176.9110  145.4290 C   0  0  0  0  0  0  0  0  0  0  0  0
  192.8130  174.6040  143.6540 C   0  0  0  0  0  0  0  0  0  0  0  0
  188.5760  174.1280  139.9240 C   0  0  0  0  0  0  0  0  0  0  0  0
  190.4590  177.8840  144.6280 O   0  0  0  0  0  0  0  0  0  0  0  0
  189.9800  171.8740  139.5600 S   0  0  0  0  0  0  0  0  0  0  0  0
  187.4340  176.9840  142.8700 C   0  0  0  0  0  0  0  0  0  0  0  0
  186.6880  178.1050  142.4870 C   0  0  0  0  0  3  0  0  0  0  0  0
  189.6550  176.8650  146.6170 C   0  0  0  0  0  0  0  0  0  0  0  0
  190.7380  173.3890  143.2660 N   0  0  0  0  0  2  0  0  0  0  0  0
  192.4270  175.9720  144.1670 C   0  0  2  0  0  3  0  0  0  0  0  0
  187.8390  175.2920  139.6510 O   0  0  0  0  0  0  0  0  0  0  0  0
  187.6400  177.5330  145.4020 C   0  0  0  0  0  0  0  0  0  0  0  0
  190.9780  172.8030  141.9530 C   0  0  0  0  0  2  0  0  0  0  0  0
  191.9990  173.3900  143.9960 C   0  0  0  0  0  2  0  0  0  0  0  0
  186.2790  178.4270  145.5660 S   0  0  0  0  0  0  0  0  0  0  0  0
  191.3390  177.0740  148.4080 C   0  0  0  0  0  1  0  0  0  0  0  0
  190.2200  176.4310  147.8170 O   0  0  0  0  0  0  0  0  0  0  0  0
  194.1620  176.3370  145.9720 C   0  0  0  0  0  1  0  0  0  0  0  0
  193.6400  176.7910  144.6170 C   0  0  0  0  0  2  0  0  0  0  0  0
  189.3250  172.5310  136.5160 C   0  0  0  0  0  2  0  0  0  0  0  0
  191.7030  172.0350  136.1180 C   0  0  0  0  0  3  0  0  0  0  0  0
  190.7020  172.9130  136.0740 C   0  0  0  0  0  3  0  0  0  0  0  0
  194.0270  171.2470  135.8870 C   0  0  0  0  0  2  0  0  0  0  0  0
  195.9190  172.8340  136.2980 C   0  0  0  0  0  2  0  0  0  0  0  0
  193.5600  173.6210  136.5190 C   0  0  0  0  0  2  0  0  0  0  0  0
  193.0800  172.4280  135.6940 C   0  0  2  0  0  3  0  0  0  0  0  0
  195.4450  171.6380  135.4770 C   0  0  0  0  0  2  0  0  0  0  0  0
  194.9760  174.0230  136.1000 C   0  0  1  0  0  3  0  0  0  0  0  0
  195.4570  175.2270  136.9140 C   0  0  1  0  0  3  0  0  0  0  0  0
  195.4630  174.9230  138.2770 O   0  0  0  0  0  1  0  0  0  0  0  0
  197.7760  175.5600  137.2650 O   0  0  0  0  0  0  0  0  0  0  0  0
  196.8300  175.6650  136.4980 C   0  0  0  0  0  0  0  0  0  0  0  0
  197.0430  176.2310  135.1370 C   0  0  0  0  0  1  0  0  0  0  0  0
  1 12  2  0  0  0  0
  2 24  1  0  0  0  0
  3 25  1  6  0  0  0
  4 17  1  0  0  0  0
  4 15  1  0  0  0  0
  5  1  1  0  0  0  0
  5  9  2  0  0  0  0
  6 13  1  0  0  0  0
  7  4  2  0  0  0  0
  8  3  1  0  0  0  0
  9 19  1  0  0  0  0
 10 14  2  0  0  0  0
 11 20  2  0  0  0  0
 12 18  1  0  0  0  0
 13 20  1  0  0  0  0
 14 26  1  0  0  0  0
 14 22  1  0  0  0  0
 15  8  2  0  0  0  0
 16 13  2  0  0  0  0
 17  3  1  0  0  0  0
 18  2  1  0  0  0  0
 19 18  2  0  0  0  0
 20 29  1  0  0  0  0
 21 26  1  0  0  0  0
 22 31  1  1  0  0  0
 22  6  1  0  0  0  0
 23 15  1  0  0  0  0
 23  1  1  0  0  0  0
 24 27  2  0  0  0  0
 24 11  1  0  0  0  0
 25 21  1  0  0  0  0
 29 28  1  0  0  0  0
 31 30  1  0  0  0  0
 32  7  1  0  0  0  0
 34 33  2  0  0  0  0
 34 32  1  0  0  0  0
 38 35  1  0  0  0  0
 38 33  1  1  0  0  0
 38 37  1  0  0  0  0
 39 35  1  0  0  0  0
 39 36  1  0  0  0  0
 40 36  1  0  0  0  0
 40 37  1  0  0  0  0
 40 41  1  1  0  0  0
 41 42  1  1  0  0  0
 44 41  1  0  0  0  0
 44 43  2  0  0  0  0
 45 44  1  0  0  0  0
M  END
>  <MODEL>
4

>  <REMARK>
 VINA RESULT:      -7.3      3.182     10.170
  Name = 
  7 active torsions:
  status: ('A' for Active; 'I' for Inactive)
    1  A    between atoms: C_2  and  C_7
    2  A    between atoms: C_2  and  C_14
    3  A    between atoms: C_3  and  C_25
    4  A    between atoms: C_17  and  C_29
    5  A    between atoms: C_17  and  C_45
    6  A    between atoms: O_33  and  C_34
    7  A    between atoms: C_37  and  C_39
                            x       y       z     vdW  Elec       q    Type
                         _______ _______ _______ _____ _____    ______ ____

>  <TORSDO>
F 7

$$$$
=
 OpenBabel11042414163D

 45 48  0  0  1  0  0  0  0  0999 V2000
  194.2190  175.1360  142.3520 C   0  0  0  0  0  0  0  0  0  0  0  0
  195.3290  173.1710  139.4700 N   0  0  0  0  0  0  0  0  0  0  0  0
  191.4720  171.8440  143.1110 C   0  0  1  0  0  3  0  0  0  0  0  0
  191.3170  173.9500  144.5130 C   0  0  0  0  0  0  0  0  0  0  0  0
  195.0540  176.2550  142.2870 C   0  0  0  0  0  3  0  0  0  0  0  0
  192.3070  171.6890  137.6640 O   0  0  0  0  0  0  0  0  0  0  0  0
  191.0770  174.9700  145.3380 C   0  0  0  0  0  3  0  0  0  0  0  0
  192.4490  172.8860  142.8150 N   0  0  0  0  0  0  0  0  0  0  0  0
  195.9800  176.3400  141.2950 N   0  0  0  0  0  0  0  0  0  0  0  0
  188.9830  172.2180  139.1200 C   0  0  0  0  0  2  0  0  0  0  0  0
  195.9020  171.9400  137.4060 N   0  0  0  0  0  0  0  0  0  0  0  0
  194.3610  174.1570  141.4210 N   0  0  0  0  0  0  0  0  0  0  0  0
  193.4960  172.3580  137.3600 C   0  0  0  0  0  0  0  0  0  0  0  0
  190.1700  171.6840  138.8300 C   0  0  0  0  0  0  0  0  0  0  0  0
  192.3730  173.9590  143.5270 C   0  0  0  0  0  0  0  0  0  0  0  0
  193.5270  173.6200  137.3360 O   0  0  0  0  0  0  0  0  0  0  0  0
  190.3690  172.4380  144.4550 S   0  0  0  0  0  0  0  0  0  0  0  0
  195.2860  174.2280  140.4320 C   0  0  0  0  0  0  0  0  0  0  0  0
  196.1110  175.3570  140.3620 C   0  0  0  0  0  2  0  0  0  0  0  0
  194.7050  171.5830  137.0190 C   0  0  0  0  0  0  0  0  0  0  0  0
  191.5200  171.1150  140.7760 N   0  0  0  0  0  2  0  0  0  0  0  0
  191.0840  172.3950  137.8590 C   0  0  2  0  0  3  0  0  0  0  0  0
  193.2430  175.0470  143.3560 O   0  0  0  0  0  0  0  0  0  0  0  0
  196.2120  172.9720  138.3550 C   0  0  0  0  0  0  0  0  0  0  0  0
  190.6490  171.5230  141.8720 C   0  0  0  0  0  2  0  0  0  0  0  0
  190.6820  170.5810  139.7100 C   0  0  0  0  0  2  0  0  0  0  0  0
  197.7250  173.5960  138.3490 S   0  0  0  0  0  0  0  0  0  0  0  0
  195.4330  170.1090  135.1790 C   0  0  0  0  0  1  0  0  0  0  0  0
  194.5400  170.4430  136.2300 O   0  0  0  0  0  0  0  0  0  0  0  0
  190.2090  171.3860  135.7110 C   0  0  0  0  0  1  0  0  0  0  0  0
  190.4090  172.6630  136.5110 C   0  0  0  0  0  2  0  0  0  0  0  0
  189.9810  174.9580  146.3570 C   0  0  0  0  0  2  0  0  0  0  0  0
  188.6520  175.9890  144.5590 C   0  0  0  0  0  3  0  0  0  0  0  0
  188.7690  175.6740  145.8490 C   0  0  0  0  0  3  0  0  0  0  0  0
  187.8580  177.6570  142.9270 C   0  0  0  0  0  2  0  0  0  0  0  0
  186.0110  179.2240  143.5590 C   0  0  0  0  0  2  0  0  0  0  0  0
  186.8180  177.5230  145.1990 C   0  0  0  0  0  2  0  0  0  0  0  0
  187.4490  176.7210  144.0620 C   0  0  2  0  0  3  0  0  0  0  0  0
  186.6420  178.4290  142.4190 C   0  0  0  0  0  2  0  0  0  0  0  0
  185.5920  178.2870  144.6940 C   0  0  1  0  0  3  0  0  0  0  0  0
  184.9460  179.0820  145.8320 C   0  0  1  0  0  3  0  0  0  0  0  0
  183.5590  178.9190  145.8130 O   0  0  0  0  0  1  0  0  0  0  0  0
  185.2150  177.5590  147.6270 O   0  0  0  0  0  0  0  0  0  0  0  0
  185.4770  178.6620  147.1710 C   0  0  0  0  0  0  0  0  0  0  0  0
  186.3320  179.5990  147.9520 C   0  0  0  0  0  1  0  0  0  0  0  0
  1 23  1  0  0  0  0
  2 18  2  0  0  0  0
  3 25  1  6  0  0  0
  3 17  1  0  0  0  0
  4  7  2  0  0  0  0
  5  1  1  0  0  0  0
  6 22  1  0  0  0  0
  7 32  1  0  0  0  0
  8  3  1  0  0  0  0
  8 15  2  0  0  0  0
  9  5  2  0  0  0  0
 11 24  1  0  0  0  0
 12  1  2  0  0  0  0
 13  6  1  0  0  0  0
 14 10  2  0  0  0  0
 14 26  1  0  0  0  0
 15  4  1  0  0  0  0
 16 13  2  0  0  0  0
 17  4  1  0  0  0  0
 18 12  1  0  0  0  0
 19 18  1  0  0  0  0
 19  9  1  0  0  0  0
 20 13  1  0  0  0  0
 20 11  2  0  0  0  0
 21 25  1  0  0  0  0
 22 31  1  6  0  0  0
 22 14  1  0  0  0  0
 23 15  1  0  0  0  0
 24  2  1  0  0  0  0
 26 21  1  0  0  0  0
 27 24  2  0  0  0  0
 28 29  1  0  0  0  0
 29 20  1  0  0  0  0
 30 31  1  0  0  0  0
 33 34  2  0  0  0  0
 34 32  1  0  0  0  0
 35 38  1  0  0  0  0
 36 40  1  0  0  0  0
 38 33  1  1  0  0  0
 38 37  1  0  0  0  0
 39 35  1  0  0  0  0
 39 36  1  0  0  0  0
 40 37  1  0  0  0  0
 40 41  1  1  0  0  0
 41 42  1  1  0  0  0
 41 44  1  0  0  0  0
 44 43  2  0  0  0  0
 44 45  1  0  0  0  0
M  END
>  <MODEL>
5

>  <REMARK>
 VINA RESULT:      -7.1      1.454      2.349
  Name = 
  7 active torsions:
  status: ('A' for Active; 'I' for Inactive)
    1  A    between atoms: C_2  and  C_7
    2  A    between atoms: C_2  and  C_14
    3  A    between atoms: C_3  and  C_25
    4  A    between atoms: C_17  and  C_29
    5  A    between atoms: C_17  and  C_45
    6  A    between atoms: O_33  and  C_34
    7  A    between atoms: C_37  and  C_39
                            x       y       z     vdW  Elec       q    Type
                         _______ _______ _______ _____ _____    ______ ____

>  <TORSDO>
F 7

$$$$
=
 OpenBabel11042414163D

 45 48  0  0  1  0  0  0  0  0999 V2000
  193.5250  176.0850  144.9220 C   0  0  0  0  0  0  0  0  0  0  0  0
  195.3000  174.0340  142.4630 N   0  0  0  0  0  0  0  0  0  0  0  0
  190.4720  172.9830  144.8050 C   0  0  1  0  0  3  0  0  0  0  0  0
  190.0500  175.1030  146.1280 C   0  0  0  0  0  0  0  0  0  0  0  0
  194.4120  177.1470  145.1170 C   0  0  0  0  0  3  0  0  0  0  0  0
  192.8480  172.7400  139.8360 O   0  0  0  0  0  0  0  0  0  0  0  0
  189.6450  176.1420  146.8600 C   0  0  0  0  0  3  0  0  0  0  0  0
  191.5570  173.9570  144.8200 N   0  0  0  0  0  0  0  0  0  0  0  0
  195.5910  177.1660  144.4390 N   0  0  0  0  0  0  0  0  0  0  0  0
  189.2840  173.4910  140.2670 C   0  0  0  0  0  2  0  0  0  0  0  0
  196.3700  172.7560  140.6400 N   0  0  0  0  0  0  0  0  0  0  0  0
  193.8690  175.0930  144.0600 N   0  0  0  0  0  0  0  0  0  0  0  0
  194.1130  173.3280  139.9010 C   0  0  0  0  0  0  0  0  0  0  0  0
  190.4670  172.8800  140.3290 C   0  0  0  0  0  0  0  0  0  0  0  0
  191.3450  175.0370  145.4930 C   0  0  0  0  0  0  0  0  0  0  0  0
  194.2300  174.5860  139.9030 O   0  0  0  0  0  0  0  0  0  0  0  0
  189.0650  173.6550  145.7770 S   0  0  0  0  0  0  0  0  0  0  0  0
  195.0450  175.0980  143.3840 C   0  0  0  0  0  0  0  0  0  0  0  0
  195.9250  176.1710  143.5730 C   0  0  0  0  0  2  0  0  0  0  0  0
  195.3170  172.4740  139.9170 C   0  0  0  0  0  0  0  0  0  0  0  0
  191.1520  172.2370  142.5760 N   0  0  0  0  0  2  0  0  0  0  0  0
  191.6680  173.5240  139.6760 C   0  0  2  0  0  3  0  0  0  0  0  0
  192.2950  176.0660  145.5970 O   0  0  0  0  0  0  0  0  0  0  0  0
  196.4540  173.7710  141.6510 C   0  0  0  0  0  0  0  0  0  0  0  0
  190.0280  172.7080  143.3760 C   0  0  0  0  0  2  0  0  0  0  0  0
  190.6290  171.7520  141.3060 C   0  0  0  0  0  2  0  0  0  0  0  0
  197.9400  174.2970  142.0950 S   0  0  0  0  0  0  0  0  0  0  0  0
  196.4490  170.9560  138.3350 C   0  0  0  0  0  1  0  0  0  0  0  0
  195.3170  171.3430  139.0990 O   0  0  0  0  0  0  0  0  0  0  0  0
  192.0810  172.7880  137.2910 C   0  0  0  0  0  1  0  0  0  0  0  0
  191.4340  173.8270  138.1930 C   0  0  0  0  0  2  0  0  0  0  0  0
  188.3010  176.2070  147.5160 C   0  0  0  0  0  2  0  0  0  0  0  0
  187.6810  177.4550  145.4850 C   0  0  0  0  0  3  0  0  0  0  0  0
  187.3470  177.0230  146.7010 C   0  0  0  0  0  3  0  0  0  0  0  0
  185.4460  178.4920  145.4790 C   0  0  0  0  0  2  0  0  0  0  0  0
  184.1520  178.6320  143.3410 C   0  0  0  0  0  2  0  0  0  0  0  0
  186.4220  177.5930  143.3590 C   0  0  0  0  0  2  0  0  0  0  0  0
  186.7330  178.2850  144.6860 C   0  0  2  0  0  3  0  0  0  0  0  0
  184.4550  179.3240  144.6670 C   0  0  0  0  0  2  0  0  0  0  0  0
  185.4390  178.4310  142.5380 C   0  0  1  0  0  3  0  0  0  0  0  0
  185.1350  177.7490  141.2020 C   0  0  1  0  0  3  0  0  0  0  0  0
  184.1840  178.4810  140.4880 O   0  0  0  0  0  1  0  0  0  0  0  0
  187.4650  177.9180  140.8040 O   0  0  0  0  0  0  0  0  0  0  0  0
  186.3710  177.5930  140.3660 C   0  0  0  0  0  0  0  0  0  0  0  0
  186.2630  177.0360  138.9890 C   0  0  0  0  0  1  0  0  0  0  0  0
  1  5  1  0  0  0  0
  1 23  1  0  0  0  0
  2 18  2  0  0  0  0
  3 25  1  6  0  0  0
  3  8  1  0  0  0  0
  3 17  1  0  0  0  0
  4  7  2  0  0  0  0
  6 13  1  0  0  0  0
  7 32  1  0  0  0  0
  8 15  2  0  0  0  0
  9  5  2  0  0  0  0
 10 14  2  0  0  0  0
 11 24  1  0  0  0  0
 12  1  2  0  0  0  0
 13 16  2  0  0  0  0
 13 20  1  0  0  0  0
 14 26  1  0  0  0  0
 15 23  1  0  0  0  0
 15  4  1  0  0  0  0
 17  4  1  0  0  0  0
 18 19  1  0  0  0  0
 18 12  1  0  0  0  0
 19  9  1  0  0  0  0
 20 11  2  0  0  0  0
 21 25  1  0  0  0  0
 22 31  1  6  0  0  0
 22  6  1  0  0  0  0
 22 14  1  0  0  0  0
 24 27  2  0  0  0  0
 24  2  1  0  0  0  0
 26 21  1  0  0  0  0
 28 29  1  0  0  0  0
 29 20  1  0  0  0  0
 30 31  1  0  0  0  0
 33 34  2  0  0  0  0
 34 32  1  0  0  0  0
 36 39  1  0  0  0  0
 37 38  1  0  0  0  0
 38 35  1  0  0  0  0
 38 33  1  1  0  0  0
 39 35  1  0  0  0  0
 40 41  1  6  0  0  0
 40 36  1  0  0  0  0
 40 37  1  0  0  0  0
 41 42  1  6  0  0  0
 44 43  2  0  0  0  0
 44 41  1  0  0  0  0
 45 44  1  0  0  0  0
M  END
>  <MODEL>
6

>  <REMARK>
 VINA RESULT:      -6.6      1.547      1.896
  Name = 
  7 active torsions:
  status: ('A' for Active; 'I' for Inactive)
    1  A    between atoms: C_2  and  C_7
    2  A    between atoms: C_2  and  C_14
    3  A    between atoms: C_3  and  C_25
    4  A    between atoms: C_17  and  C_29
    5  A    between atoms: C_17  and  C_45
    6  A    between atoms: O_33  and  C_34
    7  A    between atoms: C_37  and  C_39
                            x       y       z     vdW  Elec       q    Type
                         _______ _______ _______ _____ _____    ______ ____

>  <TORSDO>
F 7

$$$$
=
 OpenBabel11042414163D

 45 48  0  0  1  0  0  0  0  0999 V2000
  192.6840  175.1770  143.4960 C   0  0  0  0  0  0  0  0  0  0  0  0
  194.9910  172.3750  143.9760 N   0  0  0  0  0  0  0  0  0  0  0  0
  189.9940  172.2250  141.7620 C   0  0  1  0  0  3  0  0  0  0  0  0
  189.3740  174.6810  141.6810 C   0  0  0  0  0  0  0  0  0  0  0  0
  193.3940  176.2440  144.0530 C   0  0  0  0  0  3  0  0  0  0  0  0
  195.0300  170.1720  140.8560 O   0  0  0  0  0  0  0  0  0  0  0  0
  188.8860  175.9140  141.5340 C   0  0  0  0  0  3  0  0  0  0  0  0
  190.9330  173.1450  142.3930 N   0  0  0  0  0  0  0  0  0  0  0  0
  194.6240  176.0200  144.5900 N   0  0  0  0  0  0  0  0  0  0  0  0
  192.7310  170.9960  138.1200 C   0  0  0  0  0  2  0  0  0  0  0  0
  196.6200  170.5200  144.0820 N   0  0  0  0  0  0  0  0  0  0  0  0
  193.2430  173.9380  143.5100 N   0  0  0  0  0  0  0  0  0  0  0  0
  195.9330  170.7550  141.7500 C   0  0  0  0  0  0  0  0  0  0  0  0
  193.2410  170.4630  139.2310 C   0  0  0  0  0  0  0  0  0  0  0  0
  190.6200  174.3960  142.3540 C   0  0  0  0  0  0  0  0  0  0  0  0
  196.3650  171.9230  141.5450 O   0  0  0  0  0  0  0  0  0  0  0  0
  188.6070  173.1970  141.0500 S   0  0  0  0  0  0  0  0  0  0  0  0
  194.4640  173.7030  144.0490 C   0  0  0  0  0  0  0  0  0  0  0  0
  195.1780  174.7770  144.5950 C   0  0  0  0  0  2  0  0  0  0  0  0
  196.4190  169.9800  142.9080 C   0  0  0  0  0  0  0  0  0  0  0  0
  191.8320  170.7100  141.2030 N   0  0  0  0  0  2  0  0  0  0  0  0
  194.6450  170.8290  139.6510 C   0  0  2  0  0  3  0  0  0  0  0  0
  191.4260  175.3990  142.9170 O   0  0  0  0  0  0  0  0  0  0  0  0
  196.2230  171.8400  144.4840 C   0  0  0  0  0  0  0  0  0  0  0  0
  190.6880  171.4340  140.6620 C   0  0  0  0  0  2  0  0  0  0  0  0
  192.3000  169.7810  140.1820 C   0  0  0  0  0  2  0  0  0  0  0  0
  196.9660  172.5070  145.7810 S   0  0  0  0  0  0  0  0  0  0  0  0
  197.5570  168.1660  141.6820 C   0  0  0  0  0  1  0  0  0  0  0  0
  196.6920  168.6250  142.7100 O   0  0  0  0  0  0  0  0  0  0  0  0
  196.3730  171.8280  138.0960 C   0  0  0  0  0  1  0  0  0  0  0  0
  195.6740  170.5560  138.5500 C   0  0  0  0  0  2  0  0  0  0  0  0
  187.5960  176.2060  140.8350 C   0  0  0  0  0  2  0  0  0  0  0  0
  186.4300  176.2990  143.0020 C   0  0  0  0  0  3  0  0  0  0  0  0
  186.5980  176.8000  141.7780 C   0  0  0  0  0  3  0  0  0  0  0  0
  185.0270  178.2770  143.4440 C   0  0  0  0  0  2  0  0  0  0  0  0
  184.5850  178.9780  145.8050 C   0  0  0  0  0  2  0  0  0  0  0  0
  185.9960  176.9700  145.3440 C   0  0  0  0  0  2  0  0  0  0  0  0
  185.4200  176.8850  143.9310 C   0  0  2  0  0  3  0  0  0  0  0  0
  184.0080  178.8990  144.3950 C   0  0  0  0  0  2  0  0  0  0  0  0
  184.9710  177.5820  146.3010 C   0  0  1  0  0  3  0  0  0  0  0  0
  185.5380  177.6580  147.7210 C   0  0  1  0  0  3  0  0  0  0  0  0
  185.9950  176.4020  148.1290 O   0  0  0  0  0  1  0  0  0  0  0  0
  187.8020  178.3270  147.5280 O   0  0  0  0  0  0  0  0  0  0  0  0
  186.6600  178.6490  147.8180 C   0  0  0  0  0  0  0  0  0  0  0  0
  186.3770  180.0390  148.2720 C   0  0  0  0  0  1  0  0  0  0  0  0
  1 12  2  0  0  0  0
  1  5  1  0  0  0  0
  2 18  2  0  0  0  0
  2 24  1  0  0  0  0
  3 25  1  6  0  0  0
  3  8  1  0  0  0  0
  4 15  1  0  0  0  0
  5  9  2  0  0  0  0
  6 13  1  0  0  0  0
  7  4  2  0  0  0  0
  9 19  1  0  0  0  0
 10 14  2  0  0  0  0
 11 24  1  0  0  0  0
 12 18  1  0  0  0  0
 13 20  1  0  0  0  0
 14 22  1  0  0  0  0
 14 26  1  0  0  0  0
 15  8  2  0  0  0  0
 15 23  1  0  0  0  0
 16 13  2  0  0  0  0
 17  4  1  0  0  0  0
 17  3  1  0  0  0  0
 18 19  1  0  0  0  0
 20 11  2  0  0  0  0
 22 31  1  6  0  0  0
 22  6  1  0  0  0  0
 23  1  1  0  0  0  0
 24 27  2  0  0  0  0
 25 21  1  0  0  0  0
 26 21  1  0  0  0  0
 28 29  1  0  0  0  0
 29 20  1  0  0  0  0
 30 31  1  0  0  0  0
 32  7  1  0  0  0  0
 32 34  1  0  0  0  0
 34 33  2  0  0  0  0
 35 38  1  0  0  0  0
 35 39  1  0  0  0  0
 36 40  1  0  0  0  0
 37 40  1  0  0  0  0
 38 33  1  6  0  0  0
 38 37  1  0  0  0  0
 39 36  1  0  0  0  0
 40 41  1  1  0  0  0
 41 44  1  0  0  0  0
 41 42  1  6  0  0  0
 43 44  2  0  0  0  0
 44 45  1  0  0  0  0
M  END
>  <MODEL>
7

>  <REMARK>
 VINA RESULT:      -6.6      3.172      4.514
  Name = 
  7 active torsions:
  status: ('A' for Active; 'I' for Inactive)
    1  A    between atoms: C_2  and  C_7
    2  A    between atoms: C_2  and  C_14
    3  A    between atoms: C_3  and  C_25
    4  A    between atoms: C_17  and  C_29
    5  A    between atoms: C_17  and  C_45
    6  A    between atoms: O_33  and  C_34
    7  A    between atoms: C_37  and  C_39
                            x       y       z     vdW  Elec       q    Type
                         _______ _______ _______ _____ _____    ______ ____

>  <TORSDO>
F 7

$$$$
=
 OpenBabel11042414163D

 45 48  0  0  1  0  0  0  0  0999 V2000
  189.0080  174.1290  140.7540 C   0  0  0  0  0  0  0  0  0  0  0  0
  188.8670  175.5380  144.1300 N   0  0  0  0  0  2  0  0  0  0  0  0
  191.7260  171.1860  142.4600 C   0  0  1  0  0  3  0  0  0  0  0  0
  191.3270  171.2160  139.9570 C   0  0  0  0  0  0  0  0  0  0  0  0
  188.1290  174.9570  140.0510 C   0  0  0  0  0  3  0  0  0  0  0  0
  192.3730  175.6400  145.6440 O   0  0  0  0  0  0  0  0  0  0  0  0
  191.2540  171.0850  138.6320 C   0  0  0  0  0  3  0  0  0  0  0  0
  190.7780  172.1810  141.9730 N   0  0  0  0  0  0  0  0  0  0  0  0
  187.4930  175.9650  140.7050 N   0  0  0  0  0  0  0  0  0  0  0  0
  195.1380  174.1910  143.7200 C   0  0  0  0  0  2  0  0  0  0  0  0
  188.9650  176.6080  146.3540 N   0  0  0  0  0  0  0  0  0  0  0  0
  189.2000  174.3520  142.0800 N   0  0  0  0  0  0  0  0  0  0  0  0
  191.2540  176.4670  145.5130 C   0  0  0  0  0  0  0  0  0  0  0  0
  194.1190  174.3280  144.5690 C   0  0  0  0  0  0  0  0  0  0  0  0
  190.5720  172.1990  140.7000 C   0  0  0  0  0  0  0  0  0  0  0  0
  191.1240  177.2040  144.4960 O   0  0  0  0  0  0  0  0  0  0  0  0
  192.3810  170.2470  141.0240 S   0  0  0  0  0  0  0  0  0  0  0  0
  188.5660  175.3500  142.7450 C   0  0  0  0  0  0  0  0  0  0  0  0
  187.6960  176.1850  142.0330 C   0  0  0  0  0  3  0  0  0  0  0  0
  190.2470  176.5130  146.5920 C   0  0  0  0  0  0  0  0  0  0  0  0
  192.3570  172.6680  144.3020 N   0  0  0  0  0  2  0  0  0  0  0  0
  193.4370  175.6700  144.6960 C   0  0  2  0  0  3  0  0  0  0  0  0
  189.6890  173.1010  140.0850 O   0  0  0  0  0  0  0  0  0  0  0  0
  188.3300  176.4770  145.0740 C   0  0  0  0  0  0  0  0  0  0  0  0
  192.8700  171.8640  143.1990 C   0  0  0  0  0  2  0  0  0  0  0  0
  193.4890  173.0830  145.1210 C   0  0  0  0  0  2  0  0  0  0  0  0
  186.8250  177.0940  144.8920 S   0  0  0  0  0  0  0  0  0  0  0  0
  191.3460  177.5900  148.5210 C   0  0  0  0  0  1  0  0  0  0  0  0
  190.7110  176.4780  147.9090 O   0  0  0  0  0  0  0  0  0  0  0  0
  194.5370  177.0050  146.5420 C   0  0  0  0  0  1  0  0  0  0  0  0
  194.4180  176.7940  145.0410 C   0  0  0  0  0  2  0  0  0  0  0  0
  192.0400  170.0670  137.8660 C   0  0  0  0  0  2  0  0  0  0  0  0
  194.1810  171.2020  137.4310 C   0  0  0  0  0  3  0  0  0  0  0  0
  193.0290  170.7260  136.9580 C   0  0  0  0  0  3  0  0  0  0  0  0
  196.5320  171.2380  136.6910 C   0  0  0  0  0  2  0  0  0  0  0  0
  197.6130  173.4190  136.1090 C   0  0  0  0  0  2  0  0  0  0  0  0
  195.2290  173.3670  136.8500 C   0  0  0  0  0  2  0  0  0  0  0  0
  195.1550  171.8770  136.5230 C   0  0  2  0  0  3  0  0  0  0  0  0
  197.5470  171.9300  135.7840 C   0  0  0  0  0  2  0  0  0  0  0  0
  196.2370  174.0650  135.9330 C   0  0  1  0  0  3  0  0  0  0  0  0
  196.3040  175.5610  136.2470 C   0  0  1  0  0  3  0  0  0  0  0  0
  197.6340  175.9780  136.3490 O   0  0  0  0  0  1  0  0  0  0  0  0
  194.6380  175.9340  134.6040 O   0  0  0  0  0  0  0  0  0  0  0  0
  195.6080  176.3790  135.1990 C   0  0  0  0  0  0  0  0  0  0  0  0
  196.1030  177.7480  134.8820 C   0  0  0  0  0  1  0  0  0  0  0  0
  1 12  2  0  0  0  0
  2 24  1  0  0  0  0
  3 25  1  6  0  0  0
  4 15  1  0  0  0  0
  4 17  1  0  0  0  0
  5  9  2  0  0  0  0
  5  1  1  0  0  0  0
  7  4  2  0  0  0  0
  8  3  1  0  0  0  0
  9 19  1  0  0  0  0
 10 14  2  0  0  0  0
 11 20  2  0  0  0  0
 12 18  1  0  0  0  0
 13  6  1  0  0  0  0
 13 20  1  0  0  0  0
 14 22  1  0  0  0  0
 14 26  1  0  0  0  0
 15  8  2  0  0  0  0
 16 13  2  0  0  0  0
 17  3  1  0  0  0  0
 18  2  1  0  0  0  0
 19 18  2  0  0  0  0
 20 29  1  0  0  0  0
 21 26  1  0  0  0  0
 22 31  1  1  0  0  0
 22  6  1  0  0  0  0
 23 15  1  0  0  0  0
 23  1  1  0  0  0  0
 24 11  1  0  0  0  0
 25 21  1  0  0  0  0
 27 24  2  0  0  0  0
 29 28  1  0  0  0  0
 31 30  1  0  0  0  0
 32  7  1  0  0  0  0
 34 33  2  0  0  0  0
 34 32  1  0  0  0  0
 38 35  1  0  0  0  0
 38 37  1  0  0  0  0
 38 33  1  1  0  0  0
 39 36  1  0  0  0  0
 39 35  1  0  0  0  0
 40 36  1  0  0  0  0
 40 41  1  1  0  0  0
 40 37  1  0  0  0  0
 41 42  1  6  0  0  0
 43 44  2  0  0  0  0
 44 41  1  0  0  0  0
 45 44  1  0  0  0  0
M  END
>  <MODEL>
8

>  <REMARK>
 VINA RESULT:      -6.5      3.348     10.213
  Name = 
  7 active torsions:
  status: ('A' for Active; 'I' for Inactive)
    1  A    between atoms: C_2  and  C_7
    2  A    between atoms: C_2  and  C_14
    3  A    between atoms: C_3  and  C_25
    4  A    between atoms: C_17  and  C_29
    5  A    between atoms: C_17  and  C_45
    6  A    between atoms: O_33  and  C_34
    7  A    between atoms: C_37  and  C_39
                            x       y       z     vdW  Elec       q    Type
                         _______ _______ _______ _____ _____    ______ ____

>  <TORSDO>
F 7

$$$$
=
 OpenBabel11042414163D

 45 48  0  0  1  0  0  0  0  0999 V2000
  191.5890  176.1010  146.0880 C   0  0  0  0  0  0  0  0  0  0  0  0
  189.0340  176.9150  143.5950 N   0  0  0  0  0  0  0  0  0  0  0  0
  194.2530  175.5590  142.6870 C   0  0  1  0  0  3  0  0  0  0  0  0
  195.0610  174.9670  145.0160 C   0  0  0  0  0  0  0  0  0  0  0  0
  190.8940  176.2700  147.2890 C   0  0  0  0  0  3  0  0  0  0  0  0
  189.2380  174.4610  140.6750 O   0  0  0  0  0  0  0  0  0  0  0  0
  195.6560  174.5940  146.1500 C   0  0  0  0  0  3  0  0  0  0  0  0
  193.3110  175.8000  143.7740 N   0  0  0  0  0  0  0  0  0  0  0  0
  189.5910  176.6590  147.2590 N   0  0  0  0  0  0  0  0  0  0  0  0
  191.9310  171.9720  140.6840 C   0  0  0  0  0  2  0  0  0  0  0  0
  187.2700  177.2350  141.8950 N   0  0  0  0  0  0  0  0  0  0  0  0
  190.9410  176.3390  144.9180 N   0  0  0  0  0  0  0  0  0  0  0  0
  188.2730  175.0430  141.5010 C   0  0  0  0  0  0  0  0  0  0  0  0
  191.2420  173.0940  140.4710 C   0  0  0  0  0  0  0  0  0  0  0  0
  193.7200  175.5000  144.9610 C   0  0  0  0  0  0  0  0  0  0  0  0
  187.9610  174.4960  142.5960 O   0  0  0  0  0  0  0  0  0  0  0  0
  195.7900  174.8390  143.3900 S   0  0  0  0  0  0  0  0  0  0  0  0
  189.6450  176.7350  144.8750 C   0  0  0  0  0  0  0  0  0  0  0  0
  188.9490  176.8900  146.0810 C   0  0  0  0  0  2  0  0  0  0  0  0
  187.5820  176.2730  141.0660 C   0  0  0  0  0  0  0  0  0  0  0  0
  192.3950  175.1280  141.1550 N   0  0  0  0  0  2  0  0  0  0  0  0
  189.8260  173.2010  140.9880 C   0  0  2  0  0  3  0  0  0  0  0  0
  192.9250  175.6760  146.1050 O   0  0  0  0  0  0  0  0  0  0  0  0
  187.7090  177.3540  143.2560 C   0  0  0  0  0  0  0  0  0  0  0  0
  193.6510  174.5990  141.6710 C   0  0  0  0  0  2  0  0  0  0  0  0
  191.9960  174.3090  140.0160 C   0  0  0  0  0  2  0  0  0  0  0  0
  186.8550  178.3240  144.2610 S   0  0  0  0  0  0  0  0  0  0  0  0
  186.6740  177.5560  139.1650 C   0  0  0  0  0  1  0  0  0  0  0  0
  187.2360  176.3760  139.7180 O   0  0  0  0  0  0  0  0  0  0  0  0
  188.5850  172.2210  139.0130 C   0  0  0  0  0  1  0  0  0  0  0  0
  188.9330  172.0630  140.4850 C   0  0  0  0  0  2  0  0  0  0  0  0
  197.0450  174.0400  146.2030 C   0  0  0  0  0  2  0  0  0  0  0  0
  195.9830  171.8410  145.8880 C   0  0  0  0  0  3  0  0  0  0  0  0
  197.0670  172.6080  145.7700 C   0  0  0  0  0  3  0  0  0  0  0  0
  197.4620  169.9900  145.2070 C   0  0  0  0  0  2  0  0  0  0  0  0
  196.6680  168.3340  143.5060 C   0  0  0  0  0  2  0  0  0  0  0  0
  195.1770  170.2080  144.2120 C   0  0  0  0  0  2  0  0  0  0  0  0
  196.0180  170.4080  145.4730 C   0  0  2  0  0  3  0  0  0  0  0  0
  197.5130  168.5310  144.7620 C   0  0  0  0  0  2  0  0  0  0  0  0
  195.2180  168.7430  143.7710 C   0  0  1  0  0  3  0  0  0  0  0  0
  194.3660  168.5350  142.5170 C   0  0  1  0  0  3  0  0  0  0  0  0
  193.1130  169.1320  142.6750 O   0  0  0  0  0  1  0  0  0  0  0  0
  195.1270  170.3030  141.1370 O   0  0  0  0  0  0  0  0  0  0  0  0
  195.0320  169.0950  141.2950 C   0  0  0  0  0  0  0  0  0  0  0  0
  195.5810  168.1700  140.2650 C   0  0  0  0  0  1  0  0  0  0  0  0
  1 23  1  0  0  0  0
  1  5  1  0  0  0  0
  2 18  2  0  0  0  0
  3 25  1  6  0  0  0
  3 17  1  0  0  0  0
  3  8  1  0  0  0  0
  4  7  2  0  0  0  0
  6 22  1  0  0  0  0
  6 13  1  0  0  0  0
  7 32  1  0  0  0  0
  8 15  2  0  0  0  0
  9  5  2  0  0  0  0
 11 24  1  0  0  0  0
 12  1  2  0  0  0  0
 13 16  2  0  0  0  0
 14 10  2  0  0  0  0
 14 22  1  0  0  0  0
 15  4  1  0  0  0  0
 15 23  1  0  0  0  0
 17  4  1  0  0  0  0
 18 12  1  0  0  0  0
 18 19  1  0  0  0  0
 19  9  1  0  0  0  0
 20 13  1  0  0  0  0
 20 11  2  0  0  0  0
 21 25  1  0  0  0  0
 22 31  1  6  0  0  0
 24  2  1  0  0  0  0
 24 27  2  0  0  0  0
 26 14  1  0  0  0  0
 26 21  1  0  0  0  0
 28 29  1  0  0  0  0
 29 20  1  0  0  0  0
 30 31  1  0  0  0  0
 34 33  2  0  0  0  0
 34 32  1  0  0  0  0
 35 38  1  0  0  0  0
 36 40  1  0  0  0  0
 36 39  1  0  0  0  0
 37 38  1  0  0  0  0
 38 33  1  6  0  0  0
 39 35  1  0  0  0  0
 40 41  1  6  0  0  0
 40 37  1  0  0  0  0
 41 42  1  1  0  0  0
 43 44  2  0  0  0  0
 44 41  1  0  0  0  0
 45 44  1  0  0  0  0
M  END
>  <MODEL>
9

>  <REMARK>
 VINA RESULT:      -6.0      3.966      8.815
  Name = 
  7 active torsions:
  status: ('A' for Active; 'I' for Inactive)
    1  A    between atoms: C_2  and  C_7
    2  A    between atoms: C_2  and  C_14
    3  A    between atoms: C_3  and  C_25
    4  A    between atoms: C_17  and  C_29
    5  A    between atoms: C_17  and  C_45
    6  A    between atoms: O_33  and  C_34
    7  A    between atoms: C_37  and  C_39
                            x       y       z     vdW  Elec       q    Type
                         _______ _______ _______ _____ _____    ______ ____

>  <TORSDO>
F 7

$$$$
