=
 OpenBabel11042416513D

 29 32  0  0  1  0  0  0  0  0999 V2000
  188.1140  177.7130  144.7110 C   0  0  1  0  0  3  0  0  0  0  0  0
  184.1990  179.1180  143.7670 N   0  0  0  0  0  0  0  0  0  0  0  0
  186.0030  178.9740  145.3230 C   0  0  0  0  0  3  0  0  0  0  0  0
  186.1600  177.9100  143.1610 C   0  0  0  0  0  3  0  0  0  0  0  0
  184.8770  178.3740  142.8470 C   0  0  0  0  0  0  0  0  0  0  0  0
  186.7270  178.2050  144.4030 C   0  0  0  0  0  0  0  0  0  0  0  0
  184.7280  179.4230  144.9820 C   0  0  0  0  0  3  0  0  0  0  0  0
  184.2360  178.0950  141.5380 C   0  0  0  0  0  0  0  0  0  0  0  0
  182.9780  178.0730  141.4810 O   0  0  0  0  0  0  0  0  0  0  0  0
  184.9670  177.8470  140.3260 N   0  0  0  0  0  2  0  0  0  0  0  0
  186.4140  177.7640  140.2020 C   0  0  0  0  0  1  0  0  0  0  0  0
  189.8040  177.2510  146.4800 N   0  0  0  0  0  2  0  0  0  0  0  0
  189.9580  175.9640  147.0710 N   0  0  0  0  0  0  0  0  0  0  0  0
  188.3780  177.4890  146.2110 C   0  0  2  0  0  3  0  0  0  0  0  0
  187.7210  176.2910  146.7110 C   0  0  0  0  0  0  0  0  0  0  0  0
  188.6770  175.4120  147.2150 N   0  0  0  0  0  0  0  0  0  0  0  0
  186.4820  176.0700  146.7220 O   0  0  0  0  0  0  0  0  0  0  0  0
  189.3970  176.4230  143.1230 C   0  0  0  0  0  0  0  0  0  0  0  0
  188.4130  176.5170  143.9510 N   0  0  0  0  0  0  0  0  0  0  0  0
  190.3160  177.5810  142.8540 C   0  0  0  0  0  1  0  0  0  0  0  0
  188.7770  172.8920  142.4380 C   0  0  1  0  0  3  0  0  0  0  0  0
  188.1200  173.6620  141.3070 C   0  0  2  0  0  3  0  0  0  0  0  0
  188.3960  172.9090  140.0160 C   0  0  1  0  0  3  0  0  0  0  0  0
  188.1970  173.7510  138.8480 N   0  0  0  0  0  1  0  0  0  0  0  0
  189.8190  172.4120  140.0750 C   0  0  0  0  0  2  0  0  0  0  0  0
  190.0970  171.8200  141.7660 S   0  0  0  0  0  0  0  0  0  0  0  0
  189.3840  173.9470  143.3200 C   0  0  0  0  0  2  0  0  0  0  0  0
  189.6020  175.1290  142.4020 C   0  0  1  0  0  3  0  0  0  0  0  0
  188.6830  175.0130  141.2750 N   0  0  0  0  0  2  0  0  0  0  0  0
  1 19  1  6  0  0  0
  2  7  1  0  0  0  0
  4  6  2  0  0  0  0
  5  4  1  0  0  0  0
  5  2  2  0  0  0  0
  6  1  1  0  0  0  0
  6  3  1  0  0  0  0
  7  3  2  0  0  0  0
  8  5  1  0  0  0  0
  9  8  2  0  0  0  0
 10  8  1  0  0  0  0
 11 10  1  0  0  0  0
 12 13  1  0  0  0  0
 13 16  2  0  0  0  0
 14  1  1  6  0  0  0
 14 12  1  0  0  0  0
 14 15  1  0  0  0  0
 15 17  2  0  0  0  0
 15 16  1  0  0  0  0
 18 19  2  0  0  0  0
 20 18  1  0  0  0  0
 21 27  1  1  0  0  0
 22 29  1  6  0  0  0
 22 21  1  0  0  0  0
 23 24  1  6  0  0  0
 23 25  1  0  0  0  0
 23 22  1  0  0  0  0
 25 26  1  0  0  0  0
 26 21  1  0  0  0  0
 28 18  1  1  0  0  0
 28 27  1  0  0  0  0
 29 28  1  0  0  0  0
M  END
>  <MODEL>
1

>  <REMARK>
 VINA RESULT:      -7.4      0.000      0.000
  Name = 
  5 active torsions:
  status: ('A' for Active; 'I' for Inactive)
    1  A    between atoms: C_6  and  C_29
    2  A    between atoms: C_9  and  C_11
    3  A    between atoms: C_12  and  C_26
    4  A    between atoms: N_14  and  C_29
    5  A    between atoms: C_19  and  C_29
                            x       y       z     vdW  Elec       q    Type
                         _______ _______ _______ _____ _____    ______ ____

>  <TORSDO>
F 5

$$$$
=
 OpenBabel11042416513D

 29 32  0  0  1  0  0  0  0  0999 V2000
  190.8620  176.0340  143.4690 C   0  0  1  0  0  3  0  0  0  0  0  0
  194.1470  176.3160  146.1740 N   0  0  0  0  0  0  0  0  0  0  0  0
  191.7900  176.3630  145.8040 C   0  0  0  0  0  3  0  0  0  0  0  0
  193.3140  176.0180  143.9640 C   0  0  0  0  0  3  0  0  0  0  0  0
  194.3950  176.1060  144.8490 C   0  0  0  0  0  0  0  0  0  0  0  0
  192.0070  176.1510  144.4370 C   0  0  0  0  0  0  0  0  0  0  0  0
  192.8850  176.4450  146.6640 C   0  0  0  0  0  3  0  0  0  0  0  0
  195.8000  175.9620  144.3960 C   0  0  0  0  0  0  0  0  0  0  0  0
  196.3210  176.9110  143.7530 O   0  0  0  0  0  0  0  0  0  0  0  0
  196.6060  174.7990  144.6460 N   0  0  0  0  0  2  0  0  0  0  0  0
  196.1680  173.5810  145.3090 C   0  0  0  0  0  1  0  0  0  0  0  0
  190.1050  174.6230  141.5620 N   0  0  0  0  0  2  0  0  0  0  0  0
  188.8410  173.9670  141.5530 N   0  0  0  0  0  0  0  0  0  0  0  0
  190.6440  174.6080  142.9310 C   0  0  2  0  0  3  0  0  0  0  0  0
  189.6430  173.8800  143.6950 C   0  0  0  0  0  0  0  0  0  0  0  0
  188.5930  173.5120  142.8560 N   0  0  0  0  0  0  0  0  0  0  0  0
  189.7030  173.5920  144.9190 O   0  0  0  0  0  0  0  0  0  0  0  0
  188.9180  177.4660  143.4980 C   0  0  0  0  0  0  0  0  0  0  0  0
  189.6440  176.5560  144.0520 N   0  0  0  0  0  0  0  0  0  0  0  0
  189.3010  178.0900  142.1840 C   0  0  0  0  0  1  0  0  0  0  0  0
  185.3320  177.4940  144.1750 C   0  0  1  0  0  3  0  0  0  0  0  0
  185.9740  176.7520  145.3340 C   0  0  2  0  0  3  0  0  0  0  0  0
  185.2780  177.2000  146.6090 C   0  0  1  0  0  3  0  0  0  0  0  0
  186.0710  176.8980  147.7900 N   0  0  0  0  0  1  0  0  0  0  0  0
  185.0360  178.6850  146.4980 C   0  0  0  0  0  2  0  0  0  0  0  0
  184.5050  179.0020  144.7930 S   0  0  0  0  0  0  0  0  0  0  0  0
  186.4790  177.8770  143.2810 C   0  0  0  0  0  2  0  0  0  0  0  0
  187.6780  177.9180  144.2010 C   0  0  1  0  0  3  0  0  0  0  0  0
  187.4030  177.0730  145.3580 N   0  0  0  0  0  2  0  0  0  0  0  0
  1 19  1  1  0  0  0
  1  6  1  0  0  0  0
  2  7  1  0  0  0  0
  3  7  2  0  0  0  0
  4  6  2  0  0  0  0
  4  5  1  0  0  0  0
  5  2  2  0  0  0  0
  6  3  1  0  0  0  0
  8 10  1  0  0  0  0
  8  5  1  0  0  0  0
  9  8  2  0  0  0  0
 10 11  1  0  0  0  0
 12 14  1  0  0  0  0
 13 12  1  0  0  0  0
 13 16  2  0  0  0  0
 14  1  1  1  0  0  0
 14 15  1  0  0  0  0
 15 17  2  0  0  0  0
 16 15  1  0  0  0  0
 18 19  2  0  0  0  0
 20 18  1  0  0  0  0
 21 27  1  6  0  0  0
 21 26  1  0  0  0  0
 21 22  1  0  0  0  0
 22 29  1  1  0  0  0
 22 23  1  0  0  0  0
 23 24  1  1  0  0  0
 25 23  1  0  0  0  0
 26 25  1  0  0  0  0
 27 28  1  0  0  0  0
 28 18  1  6  0  0  0
 28 29  1  0  0  0  0
M  END
>  <MODEL>
2

>  <REMARK>
 VINA RESULT:      -7.4      4.126      7.678
  Name = 
  5 active torsions:
  status: ('A' for Active; 'I' for Inactive)
    1  A    between atoms: C_6  and  C_29
    2  A    between atoms: C_9  and  C_11
    3  A    between atoms: C_12  and  C_26
    4  A    between atoms: N_14  and  C_29
    5  A    between atoms: C_19  and  C_29
                            x       y       z     vdW  Elec       q    Type
                         _______ _______ _______ _____ _____    ______ ____

>  <TORSDO>
F 5

$$$$
=
 OpenBabel11042416513D

 29 32  0  0  1  0  0  0  0  0999 V2000
  188.9190  176.9560  145.6550 C   0  0  1  0  0  3  0  0  0  0  0  0
  184.7720  177.8740  146.0380 N   0  0  0  0  0  0  0  0  0  0  0  0
  186.8220  177.1990  147.0560 C   0  0  0  0  0  3  0  0  0  0  0  0
  186.7170  177.6410  144.6850 C   0  0  0  0  0  3  0  0  0  0  0  0
  185.3570  177.9480  144.8070 C   0  0  0  0  0  0  0  0  0  0  0  0
  187.4550  177.2610  145.8080 C   0  0  0  0  0  0  0  0  0  0  0  0
  185.4660  177.5110  147.1490 C   0  0  0  0  0  3  0  0  0  0  0  0
  184.5350  178.3650  143.6460 C   0  0  0  0  0  0  0  0  0  0  0  0
  183.4930  179.0400  143.8630 O   0  0  0  0  0  0  0  0  0  0  0  0
  184.8550  178.0450  142.2820 N   0  0  0  0  0  2  0  0  0  0  0  0
  185.9700  177.2260  141.8350 C   0  0  0  0  0  1  0  0  0  0  0  0
  191.0050  177.2530  146.9830 N   0  0  0  0  0  2  0  0  0  0  0  0
  191.9420  176.1990  147.1780 N   0  0  0  0  0  0  0  0  0  0  0  0
  189.6440  176.6930  146.9870 C   0  0  2  0  0  3  0  0  0  0  0  0
  189.8490  175.2740  147.2320 C   0  0  0  0  0  0  0  0  0  0  0  0
  191.2120  175.0120  147.3420 N   0  0  0  0  0  0  0  0  0  0  0  0
  188.9500  174.4020  147.3530 O   0  0  0  0  0  0  0  0  0  0  0  0
  189.7740  175.9580  143.6300 C   0  0  0  0  0  0  0  0  0  0  0  0
  189.1190  175.8550  144.7350 N   0  0  0  0  0  0  0  0  0  0  0  0
  190.3740  177.2630  143.1840 C   0  0  0  0  0  1  0  0  0  0  0  0
  188.9980  172.5510  142.5760 C   0  0  1  0  0  3  0  0  0  0  0  0
  188.3540  173.4660  141.5500 C   0  0  2  0  0  3  0  0  0  0  0  0
  188.5770  172.8500  140.1790 C   0  0  1  0  0  3  0  0  0  0  0  0
  188.3930  173.8230  139.1140 N   0  0  0  0  0  1  0  0  0  0  0  0
  189.9790  172.2940  140.1520 C   0  0  0  0  0  2  0  0  0  0  0  0
  190.2610  171.5080  141.7630 S   0  0  0  0  0  0  0  0  0  0  0  0
  189.6630  173.4780  143.5550 C   0  0  0  0  0  2  0  0  0  0  0  0
  189.9140  174.7440  142.7670 C   0  0  1  0  0  3  0  0  0  0  0  0
  188.9720  174.7900  141.6540 N   0  0  0  0  0  2  0  0  0  0  0  0
  1 19  1  6  0  0  0
  1  6  1  0  0  0  0
  2  7  1  0  0  0  0
  3  7  2  0  0  0  0
  4  5  1  0  0  0  0
  4  6  2  0  0  0  0
  5  2  2  0  0  0  0
  6  3  1  0  0  0  0
  8  9  2  0  0  0  0
  8  5  1  0  0  0  0
 10  8  1  0  0  0  0
 11 10  1  0  0  0  0
 12 14  1  0  0  0  0
 12 13  1  0  0  0  0
 13 16  2  0  0  0  0
 14  1  1  6  0  0  0
 14 15  1  0  0  0  0
 15 16  1  0  0  0  0
 15 17  2  0  0  0  0
 18 19  2  0  0  0  0
 20 18  1  0  0  0  0
 21 27  1  1  0  0  0
 22 29  1  6  0  0  0
 22 21  1  0  0  0  0
 23 24  1  6  0  0  0
 23 22  1  0  0  0  0
 25 23  1  0  0  0  0
 25 26  1  0  0  0  0
 26 21  1  0  0  0  0
 28 27  1  0  0  0  0
 28 18  1  1  0  0  0
 29 28  1  0  0  0  0
M  END
>  <MODEL>
3

>  <REMARK>
 VINA RESULT:      -7.4      1.469      1.742
  Name = 
  5 active torsions:
  status: ('A' for Active; 'I' for Inactive)
    1  A    between atoms: C_6  and  C_29
    2  A    between atoms: C_9  and  C_11
    3  A    between atoms: C_12  and  C_26
    4  A    between atoms: N_14  and  C_29
    5  A    between atoms: C_19  and  C_29
                            x       y       z     vdW  Elec       q    Type
                         _______ _______ _______ _____ _____    ______ ____

>  <TORSDO>
F 5

$$$$
=
 OpenBabel11042416513D

 29 32  0  0  1  0  0  0  0  0999 V2000
  190.7630  174.0930  144.9320 C   0  0  1  0  0  3  0  0  0  0  0  0
  190.4150  171.2830  141.7430 N   0  0  0  0  0  0  0  0  0  0  0  0
  191.2520  171.8270  143.9110 C   0  0  0  0  0  3  0  0  0  0  0  0
  189.9470  173.4290  142.6620 C   0  0  0  0  0  3  0  0  0  0  0  0
  189.8270  172.5080  141.6160 C   0  0  0  0  0  0  0  0  0  0  0  0
  190.6640  173.0940  143.8130 C   0  0  0  0  0  0  0  0  0  0  0  0
  191.1150  170.9280  142.8530 C   0  0  0  0  0  3  0  0  0  0  0  0
  189.0680  172.8130  140.3780 C   0  0  0  0  0  0  0  0  0  0  0  0
  187.8160  172.6760  140.3950 O   0  0  0  0  0  0  0  0  0  0  0  0
  189.6770  173.2580  139.1550 N   0  0  0  0  0  2  0  0  0  0  0  0
  191.1040  173.4130  138.9170 C   0  0  0  0  0  1  0  0  0  0  0  0
  192.4390  175.0180  146.5250 N   0  0  0  0  0  2  0  0  0  0  0  0
  192.7010  176.4140  146.6320 N   0  0  0  0  0  0  0  0  0  0  0  0
  192.1710  174.6860  145.1170 C   0  0  2  0  0  3  0  0  0  0  0  0
  192.3310  175.9530  144.4200 C   0  0  0  0  0  0  0  0  0  0  0  0
  192.6450  176.9520  145.3380 N   0  0  0  0  0  0  0  0  0  0  0  0
  192.2300  176.1390  143.1800 O   0  0  0  0  0  0  0  0  0  0  0  0
  188.9760  175.5230  145.7020 C   0  0  0  0  0  0  0  0  0  0  0  0
  189.7800  175.1440  144.7680 N   0  0  0  0  0  0  0  0  0  0  0  0
  188.9760  174.8730  147.0580 C   0  0  0  0  0  1  0  0  0  0  0  0
  185.9480  176.9570  144.2530 C   0  0  1  0  0  3  0  0  0  0  0  0
  185.6870  176.8380  145.7440 C   0  0  2  0  0  3  0  0  0  0  0  0
  184.9590  178.0980  146.1850 C   0  0  1  0  0  3  0  0  0  0  0  0
  185.0390  178.2910  147.6240 N   0  0  0  0  0  1  0  0  0  0  0  0
  185.5830  179.2630  145.4580 C   0  0  0  0  0  2  0  0  0  0  0  0
  185.8860  178.7150  143.7560 S   0  0  0  0  0  0  0  0  0  0  0  0
  187.3430  176.4270  144.0640 C   0  0  0  0  0  2  0  0  0  0  0  0
  188.0080  176.6250  145.4070 C   0  0  1  0  0  3  0  0  0  0  0  0
  186.9710  176.6890  146.4320 N   0  0  0  0  0  2  0  0  0  0  0  0
  1 19  1  6  0  0  0
  2  7  1  0  0  0  0
  4  6  2  0  0  0  0
  5  2  2  0  0  0  0
  5  4  1  0  0  0  0
  6  3  1  0  0  0  0
  6  1  1  0  0  0  0
  7  3  2  0  0  0  0
  8  9  2  0  0  0  0
  8  5  1  0  0  0  0
 10  8  1  0  0  0  0
 11 10  1  0  0  0  0
 12 13  1  0  0  0  0
 14  1  1  1  0  0  0
 14 12  1  0  0  0  0
 15 14  1  0  0  0  0
 15 16  1  0  0  0  0
 16 13  2  0  0  0  0
 17 15  2  0  0  0  0
 18 20  1  0  0  0  0
 19 18  2  0  0  0  0
 21 27  1  1  0  0  0
 21 22  1  0  0  0  0
 22 23  1  0  0  0  0
 22 29  1  1  0  0  0
 23 24  1  1  0  0  0
 25 23  1  0  0  0  0
 26 21  1  0  0  0  0
 26 25  1  0  0  0  0
 27 28  1  0  0  0  0
 28 18  1  1  0  0  0
 28 29  1  0  0  0  0
M  END
>  <MODEL>
4

>  <REMARK>
 VINA RESULT:      -7.2      3.374      6.688
  Name = 
  5 active torsions:
  status: ('A' for Active; 'I' for Inactive)
    1  A    between atoms: C_6  and  C_29
    2  A    between atoms: C_9  and  C_11
    3  A    between atoms: C_12  and  C_26
    4  A    between atoms: N_14  and  C_29
    5  A    between atoms: C_19  and  C_29
                            x       y       z     vdW  Elec       q    Type
                         _______ _______ _______ _____ _____    ______ ____

>  <TORSDO>
F 5

$$$$
=
 OpenBabel11042416513D

 29 32  0  0  1  0  0  0  0  0999 V2000
  189.3310  177.2260  145.2780 C   0  0  1  0  0  3  0  0  0  0  0  0
  185.5670  176.8080  143.3170 N   0  0  0  0  0  0  0  0  0  0  0  0
  187.8500  176.1460  143.5290 C   0  0  0  0  0  3  0  0  0  0  0  0
  186.9310  177.8580  144.9620 C   0  0  0  0  0  3  0  0  0  0  0  0
  185.6940  177.7200  144.3240 C   0  0  0  0  0  0  0  0  0  0  0  0
  188.0170  177.0740  144.5640 C   0  0  0  0  0  0  0  0  0  0  0  0
  186.6050  176.0290  142.9110 C   0  0  0  0  0  3  0  0  0  0  0  0
  184.5100  178.5230  144.7170 C   0  0  0  0  0  0  0  0  0  0  0  0
  183.8100  179.0410  143.8060 O   0  0  0  0  0  0  0  0  0  0  0  0
  184.1110  178.7460  146.0790 N   0  0  0  0  0  2  0  0  0  0  0  0
  184.8200  178.2900  147.2630 C   0  0  0  0  0  1  0  0  0  0  0  0
  190.2040  177.5430  147.5880 N   0  0  0  0  0  2  0  0  0  0  0  0
  191.1910  176.6870  148.1560 N   0  0  0  0  0  0  0  0  0  0  0  0
  189.3060  176.7440  146.7400 C   0  0  2  0  0  3  0  0  0  0  0  0
  189.8060  175.3860  146.8800 C   0  0  0  0  0  0  0  0  0  0  0  0
  190.9160  175.3820  147.7220 N   0  0  0  0  0  0  0  0  0  0  0  0
  189.3160  174.3530  146.3540 O   0  0  0  0  0  0  0  0  0  0  0  0
  191.2470  177.2040  143.8080 C   0  0  0  0  0  0  0  0  0  0  0  0
  190.3930  176.5740  144.5400 N   0  0  0  0  0  0  0  0  0  0  0  0
  191.1910  178.6970  143.6380 C   0  0  0  0  0  1  0  0  0  0  0  0
  193.8310  174.6410  143.5410 C   0  0  1  0  0  3  0  0  0  0  0  0
  192.6240  174.1020  142.7950 C   0  0  2  0  0  3  0  0  0  0  0  0
  193.1290  173.4260  141.5300 C   0  0  1  0  0  3  0  0  0  0  0  0
  192.0690  173.2600  140.5490 N   0  0  0  0  0  1  0  0  0  0  0  0
  194.2400  174.2790  140.9710 C   0  0  0  0  0  2  0  0  0  0  0  0
  195.2320  174.8370  142.3830 S   0  0  0  0  0  0  0  0  0  0  0  0
  193.4000  175.9900  144.0450 C   0  0  0  0  0  2  0  0  0  0  0  0
  192.3000  176.4140  143.0980 C   0  0  1  0  0  3  0  0  0  0  0  0
  191.7270  175.2180  142.4900 N   0  0  0  0  0  2  0  0  0  0  0  0
  1 19  1  6  0  0  0
  2  5  1  0  0  0  0
  3  6  2  0  0  0  0
  5  8  1  0  0  0  0
  5  4  2  0  0  0  0
  6  4  1  0  0  0  0
  6  1  1  0  0  0  0
  7  2  2  0  0  0  0
  7  3  1  0  0  0  0
  8 10  1  0  0  0  0
  9  8  2  0  0  0  0
 10 11  1  0  0  0  0
 12 13  1  0  0  0  0
 14  1  1  6  0  0  0
 14 15  1  0  0  0  0
 14 12  1  0  0  0  0
 15 16  1  0  0  0  0
 16 13  2  0  0  0  0
 17 15  2  0  0  0  0
 18 19  2  0  0  0  0
 20 18  1  0  0  0  0
 21 27  1  6  0  0  0
 22 29  1  6  0  0  0
 22 21  1  0  0  0  0
 23 24  1  6  0  0  0
 23 22  1  0  0  0  0
 25 23  1  0  0  0  0
 25 26  1  0  0  0  0
 26 21  1  0  0  0  0
 28 18  1  1  0  0  0
 28 27  1  0  0  0  0
 29 28  1  0  0  0  0
M  END
>  <MODEL>
5

>  <REMARK>
 VINA RESULT:      -7.2      2.760      3.685
  Name = 
  5 active torsions:
  status: ('A' for Active; 'I' for Inactive)
    1  A    between atoms: C_6  and  C_29
    2  A    between atoms: C_9  and  C_11
    3  A    between atoms: C_12  and  C_26
    4  A    between atoms: N_14  and  C_29
    5  A    between atoms: C_19  and  C_29
                            x       y       z     vdW  Elec       q    Type
                         _______ _______ _______ _____ _____    ______ ____

>  <TORSDO>
F 5

$$$$
=
 OpenBabel11042416513D

 29 32  0  0  1  0  0  0  0  0999 V2000
  190.8680  174.0200  145.2320 C   0  0  1  0  0  3  0  0  0  0  0  0
  190.6160  170.9420  142.2910 N   0  0  0  0  0  0  0  0  0  0  0  0
  189.5440  172.6570  143.5570 C   0  0  0  0  0  3  0  0  0  0  0  0
  191.8920  172.1900  143.8670 C   0  0  0  0  0  3  0  0  0  0  0  0
  191.8140  171.1820  142.8990 C   0  0  0  0  0  0  0  0  0  0  0  0
  190.7550  172.9300  144.2030 C   0  0  0  0  0  0  0  0  0  0  0  0
  189.4950  171.6480  142.5960 C   0  0  0  0  0  3  0  0  0  0  0  0
  192.9940  170.3770  142.5010 C   0  0  0  0  0  0  0  0  0  0  0  0
  193.5510  170.6360  141.4010 O   0  0  0  0  0  0  0  0  0  0  0  0
  193.5440  169.3150  143.2970 N   0  0  0  0  0  2  0  0  0  0  0  0
  193.0080  168.8260  144.5570 C   0  0  0  0  0  1  0  0  0  0  0  0
  192.5390  175.0940  146.7340 N   0  0  0  0  0  2  0  0  0  0  0  0
  192.8320  176.4870  146.6780 N   0  0  0  0  0  0  0  0  0  0  0  0
  192.2870  174.6010  145.3710 C   0  0  2  0  0  3  0  0  0  0  0  0
  192.4870  175.7720  144.5310 C   0  0  0  0  0  0  0  0  0  0  0  0
  192.8100  176.8680  145.3290 N   0  0  0  0  0  0  0  0  0  0  0  0
  192.4110  175.8100  143.2760 O   0  0  0  0  0  0  0  0  0  0  0  0
  189.0440  175.4810  145.8380 C   0  0  0  0  0  0  0  0  0  0  0  0
  189.9060  175.0710  144.9720 N   0  0  0  0  0  0  0  0  0  0  0  0
  188.9490  174.8700  147.2090 C   0  0  0  0  0  1  0  0  0  0  0  0
  186.1230  176.8840  144.1580 C   0  0  1  0  0  3  0  0  0  0  0  0
  185.7700  176.8180  145.6330 C   0  0  2  0  0  3  0  0  0  0  0  0
  185.0270  178.0960  145.9860 C   0  0  1  0  0  3  0  0  0  0  0  0
  185.0200  178.3380  147.4200 N   0  0  0  0  0  1  0  0  0  0  0  0
  185.7040  179.2320  145.2600 C   0  0  0  0  0  2  0  0  0  0  0  0
  186.1070  178.6240  143.5990 S   0  0  0  0  0  0  0  0  0  0  0  0
  187.5220  176.3390  144.0730 C   0  0  0  0  0  2  0  0  0  0  0  0
  188.1050  176.5780  145.4480 C   0  0  1  0  0  3  0  0  0  0  0  0
  187.0080  176.6840  146.4040 N   0  0  0  0  0  2  0  0  0  0  0  0
  1 19  1  6  0  0  0
  2  7  2  0  0  0  0
  2  5  1  0  0  0  0
  3  6  2  0  0  0  0
  4  6  1  0  0  0  0
  5  4  2  0  0  0  0
  6  1  1  0  0  0  0
  7  3  1  0  0  0  0
  8  5  1  0  0  0  0
  8 10  1  0  0  0  0
  9  8  2  0  0  0  0
 10 11  1  0  0  0  0
 13 12  1  0  0  0  0
 14  1  1  1  0  0  0
 14 12  1  0  0  0  0
 15 16  1  0  0  0  0
 15 14  1  0  0  0  0
 16 13  2  0  0  0  0
 17 15  2  0  0  0  0
 18 20  1  0  0  0  0
 19 18  2  0  0  0  0
 21 27  1  1  0  0  0
 21 22  1  0  0  0  0
 22 23  1  0  0  0  0
 22 29  1  1  0  0  0
 23 24  1  1  0  0  0
 25 23  1  0  0  0  0
 26 21  1  0  0  0  0
 26 25  1  0  0  0  0
 27 28  1  0  0  0  0
 28 18  1  1  0  0  0
 28 29  1  0  0  0  0
M  END
>  <MODEL>
6

>  <REMARK>
 VINA RESULT:      -7.0      4.118      7.707
  Name = 
  5 active torsions:
  status: ('A' for Active; 'I' for Inactive)
    1  A    between atoms: C_6  and  C_29
    2  A    between atoms: C_9  and  C_11
    3  A    between atoms: C_12  and  C_26
    4  A    between atoms: N_14  and  C_29
    5  A    between atoms: C_19  and  C_29
                            x       y       z     vdW  Elec       q    Type
                         _______ _______ _______ _____ _____    ______ ____

>  <TORSDO>
F 5

$$$$
=
 OpenBabel11042416513D

 29 32  0  0  1  0  0  0  0  0999 V2000
  190.2120  175.6710  145.3090 C   0  0  1  0  0  3  0  0  0  0  0  0
  191.5200  172.4540  142.8340 N   0  0  0  0  0  0  0  0  0  0  0  0
  191.3150  173.4100  145.0110 C   0  0  0  0  0  3  0  0  0  0  0  0
  190.4920  174.5880  143.0710 C   0  0  0  0  0  3  0  0  0  0  0  0
  190.9160  173.5320  142.2570 C   0  0  0  0  0  0  0  0  0  0  0  0
  190.6940  174.5340  144.4520 C   0  0  0  0  0  0  0  0  0  0  0  0
  191.7260  172.3720  144.1760 C   0  0  0  0  0  3  0  0  0  0  0  0
  190.7160  173.5400  140.7870 C   0  0  0  0  0  0  0  0  0  0  0  0
  191.7060  173.7920  140.0500 O   0  0  0  0  0  0  0  0  0  0  0  0
  189.4560  173.2780  140.1500 N   0  0  0  0  0  2  0  0  0  0  0  0
  188.1910  173.0330  140.8240 C   0  0  0  0  0  1  0  0  0  0  0  0
  192.3210  176.7400  144.5270 N   0  0  0  0  0  2  0  0  0  0  0  0
  193.5800  176.4840  145.1420 N   0  0  0  0  0  0  0  0  0  0  0  0
  191.2750  176.7550  145.5620 C   0  0  2  0  0  3  0  0  0  0  0  0
  192.0040  176.5320  146.8010 C   0  0  0  0  0  0  0  0  0  0  0  0
  193.3600  176.3780  146.5230 N   0  0  0  0  0  0  0  0  0  0  0  0
  191.5130  176.5030  147.9590 O   0  0  0  0  0  0  0  0  0  0  0  0
  187.9280  176.4430  145.4380 C   0  0  0  0  0  0  0  0  0  0  0  0
  189.0060  176.2530  144.7570 N   0  0  0  0  0  0  0  0  0  0  0  0
  187.8250  176.0440  146.8840 C   0  0  0  0  0  1  0  0  0  0  0  0
  185.8740  179.2200  144.2560 C   0  0  1  0  0  3  0  0  0  0  0  0
  186.5620  178.6510  143.0280 C   0  0  2  0  0  3  0  0  0  0  0  0
  185.5440  178.6330  141.8990 C   0  0  1  0  0  3  0  0  0  0  0  0
  185.9440  177.7350  140.8270 N   0  0  0  0  0  1  0  0  0  0  0  0
  184.2220  178.2040  142.4840 C   0  0  0  0  0  2  0  0  0  0  0  0
  184.0630  179.0410  144.0850 S   0  0  0  0  0  0  0  0  0  0  0  0
  186.3600  178.3680  145.3970 C   0  0  0  0  0  2  0  0  0  0  0  0
  186.7490  177.0580  144.7520 C   0  0  1  0  0  3  0  0  0  0  0  0
  187.0420  177.3040  143.3440 N   0  0  0  0  0  2  0  0  0  0  0  0
  1 19  1  6  0  0  0
  2  7  1  0  0  0  0
  4  6  2  0  0  0  0
  5  2  2  0  0  0  0
  5  4  1  0  0  0  0
  6  3  1  0  0  0  0
  6  1  1  0  0  0  0
  7  3  2  0  0  0  0
  8  5  1  0  0  0  0
  9  8  2  0  0  0  0
 10  8  1  0  0  0  0
 10 11  1  0  0  0  0
 12 13  1  0  0  0  0
 12 14  1  0  0  0  0
 13 16  2  0  0  0  0
 14  1  1  6  0  0  0
 14 15  1  0  0  0  0
 15 17  2  0  0  0  0
 16 15  1  0  0  0  0
 18 20  1  0  0  0  0
 19 18  2  0  0  0  0
 21 27  1  1  0  0  0
 22 29  1  1  0  0  0
 22 21  1  0  0  0  0
 23 24  1  6  0  0  0
 23 25  1  0  0  0  0
 23 22  1  0  0  0  0
 25 26  1  0  0  0  0
 26 21  1  0  0  0  0
 28 27  1  0  0  0  0
 28 18  1  1  0  0  0
 29 28  1  0  0  0  0
M  END
>  <MODEL>
7

>  <REMARK>
 VINA RESULT:      -7.0      3.358      6.243
  Name = 
  5 active torsions:
  status: ('A' for Active; 'I' for Inactive)
    1  A    between atoms: C_6  and  C_29
    2  A    between atoms: C_9  and  C_11
    3  A    between atoms: C_12  and  C_26
    4  A    between atoms: N_14  and  C_29
    5  A    between atoms: C_19  and  C_29
                            x       y       z     vdW  Elec       q    Type
                         _______ _______ _______ _____ _____    ______ ____

>  <TORSDO>
F 5

$$$$
=
 OpenBabel11042416513D

 29 32  0  0  1  0  0  0  0  0999 V2000
  191.6800  175.9150  145.1680 C   0  0  1  0  0  3  0  0  0  0  0  0
  191.7700  171.8960  143.7460 N   0  0  0  0  0  0  0  0  0  0  0  0
  192.7140  173.6030  145.1200 C   0  0  0  0  0  3  0  0  0  0  0  0
  190.7790  174.0600  143.7510 C   0  0  0  0  0  3  0  0  0  0  0  0
  190.8030  172.7410  143.2860 C   0  0  0  0  0  0  0  0  0  0  0  0
  191.7380  174.4990  144.6680 C   0  0  0  0  0  0  0  0  0  0  0  0
  192.7140  172.2930  144.6410 C   0  0  0  0  0  3  0  0  0  0  0  0
  189.8010  172.2260  142.3200 C   0  0  0  0  0  0  0  0  0  0  0  0
  188.6620  171.9080  142.7540 O   0  0  0  0  0  0  0  0  0  0  0  0
  190.0530  172.0670  140.9150 N   0  0  0  0  0  2  0  0  0  0  0  0
  191.3160  172.3160  140.2390 C   0  0  0  0  0  1  0  0  0  0  0  0
  193.2220  176.3840  143.2700 N   0  0  0  0  0  2  0  0  0  0  0  0
  194.6070  176.0540  143.3120 N   0  0  0  0  0  0  0  0  0  0  0  0
  192.7910  176.8210  144.6070 C   0  0  2  0  0  3  0  0  0  0  0  0
  194.0060  176.7590  145.4050 C   0  0  0  0  0  0  0  0  0  0  0  0
  195.0600  176.3070  144.6150 N   0  0  0  0  0  0  0  0  0  0  0  0
  194.1190  177.0830  146.6160 O   0  0  0  0  0  0  0  0  0  0  0  0
  189.6540  177.0450  145.8390 C   0  0  0  0  0  0  0  0  0  0  0  0
  190.3740  176.4910  144.9230 N   0  0  0  0  0  0  0  0  0  0  0  0
  190.1110  177.1150  147.2700 C   0  0  0  0  0  1  0  0  0  0  0  0
  186.2870  176.8970  144.4380 C   0  0  1  0  0  3  0  0  0  0  0  0
  186.1140  176.9510  145.9460 C   0  0  2  0  0  3  0  0  0  0  0  0
  184.9490  177.8800  146.2420 C   0  0  1  0  0  3  0  0  0  0  0  0
  184.9630  178.3400  147.6220 N   0  0  0  0  0  1  0  0  0  0  0  0
  185.0440  179.0480  145.2930 C   0  0  0  0  0  2  0  0  0  0  0  0
  185.5200  178.3720  143.6780 S   0  0  0  0  0  0  0  0  0  0  0  0
  187.7740  176.9320  144.2200 C   0  0  0  0  0  2  0  0  0  0  0  0
  188.3220  177.6080  145.4560 C   0  0  1  0  0  3  0  0  0  0  0  0
  187.3600  177.4410  146.5400 N   0  0  0  0  0  2  0  0  0  0  0  0
  1 19  1  6  0  0  0
  2  7  1  0  0  0  0
  4  6  2  0  0  0  0
  5  2  2  0  0  0  0
  5  4  1  0  0  0  0
  6  3  1  0  0  0  0
  6  1  1  0  0  0  0
  7  3  2  0  0  0  0
  8  9  2  0  0  0  0
  8  5  1  0  0  0  0
 10  8  1  0  0  0  0
 11 10  1  0  0  0  0
 12 13  1  0  0  0  0
 12 14  1  0  0  0  0
 13 16  2  0  0  0  0
 14  1  1  1  0  0  0
 14 15  1  0  0  0  0
 15 17  2  0  0  0  0
 16 15  1  0  0  0  0
 18 20  1  0  0  0  0
 19 18  2  0  0  0  0
 21 27  1  1  0  0  0
 21 22  1  0  0  0  0
 22 23  1  0  0  0  0
 22 29  1  1  0  0  0
 23 24  1  1  0  0  0
 25 23  1  0  0  0  0
 26 21  1  0  0  0  0
 26 25  1  0  0  0  0
 27 28  1  0  0  0  0
 28 18  1  1  0  0  0
 28 29  1  0  0  0  0
M  END
>  <MODEL>
8

>  <REMARK>
 VINA RESULT:      -7.0      3.803      7.055
  Name = 
  5 active torsions:
  status: ('A' for Active; 'I' for Inactive)
    1  A    between atoms: C_6  and  C_29
    2  A    between atoms: C_9  and  C_11
    3  A    between atoms: C_12  and  C_26
    4  A    between atoms: N_14  and  C_29
    5  A    between atoms: C_19  and  C_29
                            x       y       z     vdW  Elec       q    Type
                         _______ _______ _______ _____ _____    ______ ____

>  <TORSDO>
F 5

$$$$
=
 OpenBabel11042416513D

 29 32  0  0  1  0  0  0  0  0999 V2000
  189.3830  174.7950  143.5430 C   0  0  1  0  0  3  0  0  0  0  0  0
  187.4170  178.3850  142.3440 N   0  0  0  0  0  0  0  0  0  0  0  0
  189.3970  177.0540  142.3950 C   0  0  0  0  0  3  0  0  0  0  0  0
  187.3690  176.2760  143.4460 C   0  0  0  0  0  3  0  0  0  0  0  0
  186.7190  177.4500  143.0510 C   0  0  0  0  0  0  0  0  0  0  0  0
  188.7120  176.0740  143.1240 C   0  0  0  0  0  0  0  0  0  0  0  0
  188.7250  178.2140  142.0130 C   0  0  0  0  0  3  0  0  0  0  0  0
  185.2910  177.7060  143.3610 C   0  0  0  0  0  0  0  0  0  0  0  0
  184.4420  177.5410  142.4460 O   0  0  0  0  0  0  0  0  0  0  0  0
  184.8160  178.1320  144.6480 N   0  0  0  0  0  2  0  0  0  0  0  0
  185.6410  178.4390  145.8060 C   0  0  0  0  0  1  0  0  0  0  0  0
  189.1600  172.3150  143.5210 N   0  0  0  0  0  2  0  0  0  0  0  0
  190.0150  171.4790  142.7470 N   0  0  0  0  0  0  0  0  0  0  0  0
  188.8950  173.5540  142.7740 C   0  0  2  0  0  3  0  0  0  0  0  0
  189.6090  173.3680  141.5200 C   0  0  0  0  0  0  0  0  0  0  0  0
  190.2570  172.1360  141.5310 N   0  0  0  0  0  0  0  0  0  0  0  0
  189.6330  174.1700  140.5500 O   0  0  0  0  0  0  0  0  0  0  0  0
  191.6010  174.9460  144.4850 C   0  0  0  0  0  0  0  0  0  0  0  0
  190.8230  174.9200  143.4570 N   0  0  0  0  0  0  0  0  0  0  0  0
  191.0620  174.8730  145.8860 C   0  0  0  0  0  1  0  0  0  0  0  0
  194.9010  176.4170  145.0020 C   0  0  1  0  0  3  0  0  0  0  0  0
  194.9130  175.0870  145.7330 C   0  0  2  0  0  3  0  0  0  0  0  0
  196.2640  174.4370  145.4830 C   0  0  1  0  0  3  0  0  0  0  0  0
  196.2350  173.0100  145.7620 N   0  0  0  0  0  1  0  0  0  0  0  0
  196.6310  174.6880  144.0420 C   0  0  0  0  0  2  0  0  0  0  0  0
  196.1560  176.3990  143.6720 S   0  0  0  0  0  0  0  0  0  0  0  0
  193.5270  176.5110  144.3980 C   0  0  0  0  0  2  0  0  0  0  0  0
  193.0750  175.0750  144.2620 C   0  0  1  0  0  3  0  0  0  0  0  0
  193.8150  174.2640  145.2220 N   0  0  0  0  0  2  0  0  0  0  0  0
  1 19  1  6  0  0  0
  2  5  1  0  0  0  0
  3  6  2  0  0  0  0
  5  8  1  0  0  0  0
  5  4  2  0  0  0  0
  6  4  1  0  0  0  0
  6  1  1  0  0  0  0
  7  2  2  0  0  0  0
  7  3  1  0  0  0  0
  8 10  1  0  0  0  0
  9  8  2  0  0  0  0
 10 11  1  0  0  0  0
 13 12  1  0  0  0  0
 14 12  1  0  0  0  0
 14  1  1  1  0  0  0
 15 16  1  0  0  0  0
 15 14  1  0  0  0  0
 16 13  2  0  0  0  0
 17 15  2  0  0  0  0
 18 20  1  0  0  0  0
 19 18  2  0  0  0  0
 21 27  1  6  0  0  0
 21 22  1  0  0  0  0
 22 29  1  6  0  0  0
 23 22  1  0  0  0  0
 23 24  1  6  0  0  0
 25 23  1  0  0  0  0
 26 25  1  0  0  0  0
 26 21  1  0  0  0  0
 28 27  1  0  0  0  0
 28 18  1  1  0  0  0
 28 29  1  0  0  0  0
M  END
>  <MODEL>
9

>  <REMARK>
 VINA RESULT:      -6.9      4.029      5.771
  Name = 
  5 active torsions:
  status: ('A' for Active; 'I' for Inactive)
    1  A    between atoms: C_6  and  C_29
    2  A    between atoms: C_9  and  C_11
    3  A    between atoms: C_12  and  C_26
    4  A    between atoms: N_14  and  C_29
    5  A    between atoms: C_19  and  C_29
                            x       y       z     vdW  Elec       q    Type
                         _______ _______ _______ _____ _____    ______ ____

>  <TORSDO>
F 5

$$$$
