=
 OpenBabel11042416333D

 62 68  0  0  1  0  0  0  0  0999 V2000
  188.8560  175.4330  144.8230 C   0  0  0  0  0  2  0  0  0  0  0  0
  191.2740  174.9160  145.3250 N   0  0  0  0  0  0  0  0  0  0  0  0
  190.3130  177.8240  147.3250 O   0  0  0  0  0  1  0  0  0  0  0  0
  190.3210  176.9420  146.2700 C   0  0  1  0  0  3  0  0  0  0  0  0
  191.0170  175.5980  146.5950 C   0  0  0  0  0  2  0  0  0  0  0  0
  190.1860  175.0130  144.2610 C   0  0  1  0  0  3  0  0  0  0  0  0
  188.8990  176.7350  145.7080 C   0  0  2  0  0  3  0  0  0  0  0  0
  193.5690  175.4880  144.3150 C   0  0  0  0  0  3  0  0  0  0  0  0
  194.6970  173.2280  145.3380 C   0  0  0  0  0  0  0  0  0  0  0  0
  192.7020  174.6540  145.1180 C   0  0  0  0  0  0  0  0  0  0  0  0
  195.5080  173.9460  144.5100 C   0  0  0  0  0  0  0  0  0  0  0  0
  195.1820  172.1240  145.8940 F   0  0  0  0  0  0  0  0  0  0  0  0
  194.9750  175.1490  144.1820 C   0  0  0  0  0  0  0  0  0  0  0  0
  196.8850  173.4780  144.1590 C   0  0  0  0  0  1  0  0  0  0  0  0
  193.4100  173.6560  145.7700 C   0  0  0  0  0  3  0  0  0  0  0  0
  195.9490  177.2840  144.4470 O   0  0  0  0  0  0  0  0  0  0  0  0
  195.9490  176.1880  143.8380 C   0  0  0  0  0  0  0  0  0  0  0  0
  196.6870  176.1250  142.6250 C   0  0  0  0  0  2  0  0  0  0  0  0
  195.7440  176.5410  141.5300 C   0  0  0  0  0  2  0  0  0  0  0  0
  195.6550  175.4680  140.5820 N   0  0  0  0  0  2  0  0  0  0  0  0
  194.2500  175.2620  140.2460 C   0  0  0  0  0  2  0  0  0  0  0  0
  194.3380  173.3260  138.6240 C   0  0  0  0  0  2  0  0  0  0  0  0
  193.6630  171.9070  138.6160 C   0  0  0  0  0  2  0  0  0  0  0  0
  194.1710  171.7810  141.1510 C   0  0  0  0  0  2  0  0  0  0  0  0
  194.1410  173.8660  139.9790 C   0  0  1  0  0  3  0  0  0  0  0  0
  194.9370  173.0410  141.0180 C   0  0  0  0  0  2  0  0  0  0  0  0
  194.1670  171.0510  139.8200 C   0  0  1  0  0  3  0  0  0  0  0  0
  191.9020  170.0160  140.1750 N   0  0  0  0  0  1  0  0  0  0  0  0
  193.3520  169.7740  139.9600 C   0  0  0  0  0  2  0  0  0  0  0  0
  190.0610  174.1790  142.9710 C   0  0  0  0  0  0  0  0  0  0  0  0
  188.6710  172.7740  141.5570 C   0  0  0  0  0  0  0  0  0  0  0  0
  191.0260  174.0800  141.8960 C   0  0  0  0  0  3  0  0  0  0  0  0
  189.5440  172.6880  140.4960 C   0  0  0  0  0  0  0  0  0  0  0  0
  187.3820  172.7280  141.2120 F   0  0  0  0  0  0  0  0  0  0  0  0
  190.6880  173.4020  140.6660 C   0  0  0  0  0  3  0  0  0  0  0  0
  188.9420  173.4240  142.7580 C   0  0  0  0  0  3  0  0  0  0  0  0
  189.0610  172.1900  139.1530 C   0  0  0  0  0  2  0  0  0  0  0  0
  189.4610  172.8200  135.1210 N   0  0  0  0  0  0  0  0  0  0  0  0
  190.4450  171.5790  137.0580 C   0  0  0  0  0  2  0  0  0  0  0  0
  189.7840  174.0780  137.3170 C   0  0  0  0  0  2  0  0  0  0  0  0
  189.4820  171.5020  135.8490 C   0  0  0  0  0  2  0  0  0  0  0  0
  190.0050  172.6450  138.0160 C   0  0  1  0  0  3  0  0  0  0  0  0
  189.4860  174.0290  135.7780 C   0  0  0  0  0  0  0  0  0  0  0  0
  189.9960  176.0890  134.6750 O   0  0  0  0  0  1  0  0  0  0  0  0
  187.8460  175.5750  134.6140 O   0  0  0  0  0  0  0  0  0  0  0  0
  189.1440  175.2820  134.9820 C   0  0  0  0  0  0  0  0  0  0  0  0
  187.7490  176.7590  146.7900 C   0  0  0  0  0  2  0  0  0  0  0  0
  185.2120  178.1080  146.0310 C   0  0  1  0  0  3  0  0  0  0  0  0
  185.5980  176.7490  146.2110 C   0  0  0  0  0  2  0  0  0  0  0  0
  186.6250  177.7600  146.5850 N   0  0  0  0  0  0  0  0  0  0  0  0
  184.0410  178.1780  141.3960 N   0  0  0  0  0  0  0  0  0  0  0  0
  182.0540  178.8650  142.3080 O   0  0  0  0  0  0  0  0  0  0  0  0
  183.2400  178.4800  142.5930 C   0  0  0  0  0  0  0  0  0  0  0  0
  186.2710  178.2060  142.1450 O   0  0  0  0  0  0  0  0  0  0  0  0
  183.6360  178.3750  143.9480 N   0  0  0  0  0  2  0  0  0  0  0  0
  185.0040  178.4340  144.5110 C   0  0  1  0  0  3  0  0  0  0  0  0
  186.1370  179.4170  143.4840 S   0  0  0  0  0  0  0  0  0  0  0  0
  185.2780  178.0060  141.1730 C   0  0  0  0  0  0  0  0  0  0  0  0
  185.6700  177.8110  139.7540 C   0  0  0  0  0  2  0  0  0  0  0  0
  187.4980  176.0590  140.3510 C   0  0  0  0  0  1  0  0  0  0  0  0
  186.8930  176.9920  139.3460 C   0  0  0  0  0  3  0  0  0  0  0  0
  186.7080  176.3100  137.9580 C   0  0  0  0  0  1  0  0  0  0  0  0
  1  7  1  0  0  0  0
  2  5  1  0  0  0  0
  4  5  1  0  0  0  0
  4  3  1  1  0  0  0
  6 30  1  1  0  0  0
  6  1  1  0  0  0  0
  6  2  1  0  0  0  0
  7  4  1  0  0  0  0
  7 47  1  1  0  0  0
  8 10  1  0  0  0  0
  9 15  1  0  0  0  0
  9 12  1  0  0  0  0
 10  2  1  0  0  0  0
 10 15  2  0  0  0  0
 11  9  2  0  0  0  0
 13  8  2  0  0  0  0
 13 11  1  0  0  0  0
 14 11  1  0  0  0  0
 17 13  1  0  0  0  0
 17 16  2  0  0  0  0
 18 17  1  0  0  0  0
 19 18  1  0  0  0  0
 20 19  1  0  0  0  0
 21 20  1  0  0  0  0
 22 25  1  0  0  0  0
 23 22  1  0  0  0  0
 23 27  1  0  0  0  0
 25 21  1  6  0  0  0
 25 26  1  0  0  0  0
 26 24  1  0  0  0  0
 27 29  1  1  0  0  0
 27 24  1  0  0  0  0
 29 28  1  0  0  0  0
 31 36  2  0  0  0  0
 32 30  2  0  0  0  0
 33 35  2  0  0  0  0
 33 31  1  0  0  0  0
 34 31  1  0  0  0  0
 35 32  1  0  0  0  0
 36 30  1  0  0  0  0
 37 33  1  0  0  0  0
 38 43  2  0  0  0  0
 38 41  1  0  0  0  0
 39 42  1  0  0  0  0
 40 42  1  0  0  0  0
 41 39  1  0  0  0  0
 42 37  1  6  0  0  0
 43 40  1  0  0  0  0
 44 46  1  0  0  0  0
 45 46  2  0  0  0  0
 46 43  1  0  0  0  0
 48 49  1  6  0  0  0
 48 50  1  0  0  0  0
 49 50  1  0  0  0  0
 50 47  1  0  0  0  0
 51 53  1  0  0  0  0
 52 53  2  0  0  0  0
 53 55  1  0  0  0  0
 54 57  1  0  0  0  0
 55 56  1  0  0  0  0
 56 57  1  1  0  0  0
 56 48  1  0  0  0  0
 58 51  2  0  0  0  0
 58 54  1  0  0  0  0
 59 58  1  0  0  0  0
 61 59  1  0  0  0  0
 61 60  1  0  0  0  0
 62 61  1  0  0  0  0
M  END
>  <MODEL>
1

>  <REMARK>
 VINA RESULT:      -7.0      0.000      0.000
  Name = 
  17 active torsions:
  status: ('A' for Active; 'I' for Inactive)
    1  A    between atoms: C_1  and  N_35
    2  A    between atoms: C_1  and  C_60
    3  A    between atoms: C_2  and  C_49
    4  A    between atoms: C_5  and  C_48
    5  A    between atoms: C_11  and  C_41
    6  A    between atoms: N_14  and  C_17
    7  A    between atoms: N_14  and  C_33
    8  A    between atoms: C_17  and  C_36
    9  A    between atoms: C_18  and  C_29
   10  A    between atoms: N_22  and  C_28
   11  A    between atoms: C_29  and  C_47
   12  A    between atoms: C_33  and  C_52
   13  A    between atoms: C_36  and  C_54
   14  A    between atoms: C_40  and  C_54
   15  A    between atoms: C_41  and  C_62
   16  A    between atoms: C_53  and  C_58
   17  A    between atoms: CA_56  and  C_61
                            x       y       z     vdW  Elec       q    Type
                         _______ _______ _______ _____ _____    ______ ____

>  <TORSDO>
F 17

$$$$
=
 OpenBabel11042416333D

 62 68  0  0  1  0  0  0  0  0999 V2000
  191.6810  175.3090  144.8690 C   0  0  0  0  0  2  0  0  0  0  0  0
  189.5980  176.6730  145.2830 N   0  0  0  0  0  0  0  0  0  0  0  0
  191.7720  177.0350  148.2020 O   0  0  0  0  0  1  0  0  0  0  0  0
  191.1950  176.4470  147.1010 C   0  0  1  0  0  3  0  0  0  0  0  0
  190.4490  177.4500  146.1870 C   0  0  0  0  0  2  0  0  0  0  0  0
  190.1850  175.3770  144.7330 C   0  0  1  0  0  3  0  0  0  0  0  0
  192.2230  175.6050  146.3180 C   0  0  2  0  0  3  0  0  0  0  0  0
  187.4910  177.9570  144.5600 C   0  0  0  0  0  3  0  0  0  0  0  0
  186.0400  176.9500  146.6350 C   0  0  0  0  0  0  0  0  0  0  0  0
  188.1810  177.0220  145.4210 C   0  0  0  0  0  0  0  0  0  0  0  0
  185.3970  177.8990  145.8960 C   0  0  0  0  0  0  0  0  0  0  0  0
  185.3900  176.3950  147.6510 F   0  0  0  0  0  0  0  0  0  0  0  0
  186.0810  178.2270  144.7710 C   0  0  0  0  0  0  0  0  0  0  0  0
  184.0240  178.3750  146.2510 C   0  0  0  0  0  1  0  0  0  0  0  0
  187.3110  176.4020  146.3050 C   0  0  0  0  0  3  0  0  0  0  0  0
  185.0610  179.9600  143.5320 O   0  0  0  0  0  0  0  0  0  0  0  0
  185.2580  178.7290  143.6670 C   0  0  0  0  0  0  0  0  0  0  0  0
  184.4110  177.8560  142.9320 C   0  0  0  0  0  2  0  0  0  0  0  0
  184.3210  178.4210  141.5410 C   0  0  0  0  0  2  0  0  0  0  0  0
  183.0240  178.1110  141.0130 N   0  0  0  0  0  2  0  0  0  0  0  0
  182.0310  178.3410  142.0570 C   0  0  0  0  0  2  0  0  0  0  0  0
  179.6410  177.6820  141.5650 C   0  0  0  0  0  2  0  0  0  0  0  0
  178.7120  177.8870  140.3140 C   0  0  0  0  0  2  0  0  0  0  0  0
  179.6930  180.2730  140.1230 C   0  0  0  0  0  2  0  0  0  0  0  0
  180.8080  178.5540  141.3560 C   0  0  1  0  0  3  0  0  0  0  0  0
  180.3940  180.0430  141.4060 C   0  0  0  0  0  2  0  0  0  0  0  0
  178.4500  179.4040  140.0650 C   0  0  1  0  0  3  0  0  0  0  0  0
  178.1660  180.8790  138.0480 N   0  0  0  0  0  1  0  0  0  0  0  0
  177.7540  179.6260  138.7310 C   0  0  0  0  0  2  0  0  0  0  0  0
  189.6440  174.5250  143.5680 C   0  0  0  0  0  0  0  0  0  0  0  0
  188.5830  174.4680  141.3820 C   0  0  0  0  0  0  0  0  0  0  0  0
  189.7660  173.0920  143.4010 C   0  0  0  0  0  3  0  0  0  0  0  0
  188.7150  173.1140  141.1680 C   0  0  0  0  0  0  0  0  0  0  0  0
  188.6220  175.2070  140.2710 F   0  0  0  0  0  0  0  0  0  0  0  0
  189.3660  172.4600  142.1640 C   0  0  0  0  0  3  0  0  0  0  0  0
  188.9610  175.1280  142.5480 C   0  0  0  0  0  3  0  0  0  0  0  0
  188.5170  172.5420  139.7820 C   0  0  0  0  0  2  0  0  0  0  0  0
  190.9320  171.9880  136.5150 N   0  0  0  0  0  0  0  0  0  0  0  0
  189.6560  170.7680  138.2880 C   0  0  0  0  0  2  0  0  0  0  0  0
  191.0890  172.8440  138.9140 C   0  0  0  0  0  2  0  0  0  0  0  0
  189.6390  171.2840  136.8290 C   0  0  0  0  0  2  0  0  0  0  0  0
  189.8210  171.9080  139.2480 C   0  0  1  0  0  3  0  0  0  0  0  0
  191.5670  172.8070  137.4200 C   0  0  0  0  0  0  0  0  0  0  0  0
  193.7000  173.2550  136.4350 O   0  0  0  0  0  0  0  0  0  0  0  0
  192.5970  175.0870  136.9990 O   0  0  0  0  0  1  0  0  0  0  0  0
  192.6810  173.7110  136.9080 C   0  0  0  0  0  0  0  0  0  0  0  0
  193.6870  176.1950  146.2980 C   0  0  0  0  0  2  0  0  0  0  0  0
  195.9530  174.3330  145.8170 C   0  0  1  0  0  3  0  0  0  0  0  0
  195.3720  175.4030  145.0760 C   0  0  0  0  0  2  0  0  0  0  0  0
  194.8330  175.2110  146.4510 N   0  0  0  0  0  0  0  0  0  0  0  0
  195.9290  170.1610  143.4830 N   0  0  0  0  0  0  0  0  0  0  0  0
  197.0170  169.5280  145.3970 O   0  0  0  0  0  0  0  0  0  0  0  0
  196.4940  170.5250  144.7920 C   0  0  0  0  0  0  0  0  0  0  0  0
  194.4650  171.9250  142.9500 O   0  0  0  0  0  0  0  0  0  0  0  0
  196.5210  171.8050  145.3960 N   0  0  0  0  0  2  0  0  0  0  0  0
  195.6130  172.9500  145.1610 C   0  0  1  0  0  3  0  0  0  0  0  0
  193.9600  172.4260  144.6140 S   0  0  0  0  0  0  0  0  0  0  0  0
  195.1350  170.7240  142.6680 C   0  0  0  0  0  0  0  0  0  0  0  0
  194.7470  169.9310  141.4730 C   0  0  0  0  0  2  0  0  0  0  0  0
  192.2430  169.9070  142.1810 C   0  0  0  0  0  1  0  0  0  0  0  0
  193.3140  169.4610  141.2310 C   0  0  0  0  0  3  0  0  0  0  0  0
  192.8810  169.6370  139.7450 C   0  0  0  0  0  1  0  0  0  0  0  0
  1  7  1  0  0  0  0
  2 10  1  0  0  0  0
  2  5  1  0  0  0  0
  4  3  1  1  0  0  0
  5  4  1  0  0  0  0
  6 30  1  6  0  0  0
  6  1  1  0  0  0  0
  6  2  1  0  0  0  0
  7 47  1  6  0  0  0
  7  4  1  0  0  0  0
  8 13  2  0  0  0  0
  8 10  1  0  0  0  0
  9 12  1  0  0  0  0
 10 15  2  0  0  0  0
 11 14  1  0  0  0  0
 11  9  2  0  0  0  0
 13 11  1  0  0  0  0
 15  9  1  0  0  0  0
 16 17  2  0  0  0  0
 17 13  1  0  0  0  0
 18 17  1  0  0  0  0
 19 18  1  0  0  0  0
 20 19  1  0  0  0  0
 20 21  1  0  0  0  0
 23 22  1  0  0  0  0
 24 26  1  0  0  0  0
 25 26  1  0  0  0  0
 25 22  1  0  0  0  0
 25 21  1  1  0  0  0
 27 29  1  6  0  0  0
 27 24  1  0  0  0  0
 27 23  1  0  0  0  0
 28 29  1  0  0  0  0
 31 36  1  0  0  0  0
 32 30  1  0  0  0  0
 33 31  2  0  0  0  0
 33 35  1  0  0  0  0
 34 31  1  0  0  0  0
 35 32  2  0  0  0  0
 36 30  2  0  0  0  0
 37 33  1  0  0  0  0
 38 41  1  0  0  0  0
 38 43  2  0  0  0  0
 39 42  1  0  0  0  0
 40 42  1  0  0  0  0
 41 39  1  0  0  0  0
 42 37  1  6  0  0  0
 43 40  1  0  0  0  0
 44 46  2  0  0  0  0
 46 45  1  0  0  0  0
 46 43  1  0  0  0  0
 47 50  1  0  0  0  0
 48 49  1  6  0  0  0
 48 50  1  0  0  0  0
 49 50  1  0  0  0  0
 51 53  1  0  0  0  0
 53 55  1  0  0  0  0
 53 52  2  0  0  0  0
 54 57  1  0  0  0  0
 56 57  1  1  0  0  0
 56 55  1  0  0  0  0
 56 48  1  0  0  0  0
 58 54  1  0  0  0  0
 58 51  2  0  0  0  0
 59 58  1  0  0  0  0
 61 59  1  0  0  0  0
 61 60  1  0  0  0  0
 62 61  1  0  0  0  0
M  END
>  <MODEL>
2

>  <REMARK>
 VINA RESULT:      -6.8      3.365     10.004
  Name = 
  17 active torsions:
  status: ('A' for Active; 'I' for Inactive)
    1  A    between atoms: C_1  and  N_35
    2  A    between atoms: C_1  and  C_60
    3  A    between atoms: C_2  and  C_49
    4  A    between atoms: C_5  and  C_48
    5  A    between atoms: C_11  and  C_41
    6  A    between atoms: N_14  and  C_17
    7  A    between atoms: N_14  and  C_33
    8  A    between atoms: C_17  and  C_36
    9  A    between atoms: C_18  and  C_29
   10  A    between atoms: N_22  and  C_28
   11  A    between atoms: C_29  and  C_47
   12  A    between atoms: C_33  and  C_52
   13  A    between atoms: C_36  and  C_54
   14  A    between atoms: C_40  and  C_54
   15  A    between atoms: C_41  and  C_62
   16  A    between atoms: C_53  and  C_58
   17  A    between atoms: CA_56  and  C_61
                            x       y       z     vdW  Elec       q    Type
                         _______ _______ _______ _____ _____    ______ ____

>  <TORSDO>
F 17

$$$$
=
 OpenBabel11042416333D

 62 68  0  0  1  0  0  0  0  0999 V2000
  191.3230  175.2810  144.9930 C   0  0  0  0  0  2  0  0  0  0  0  0
  189.2680  176.7330  145.1750 N   0  0  0  0  0  0  0  0  0  0  0  0
  191.1870  177.1200  148.2650 O   0  0  0  0  0  1  0  0  0  0  0  0
  190.6870  176.5150  147.1360 C   0  0  1  0  0  3  0  0  0  0  0  0
  190.0650  177.5110  146.1260 C   0  0  0  0  0  2  0  0  0  0  0  0
  189.8500  175.3980  144.7220 C   0  0  1  0  0  3  0  0  0  0  0  0
  191.7460  175.6080  146.4750 C   0  0  2  0  0  3  0  0  0  0  0  0
  187.2230  177.8530  144.0900 C   0  0  0  0  0  3  0  0  0  0  0  0
  185.6820  177.4100  146.2920 C   0  0  0  0  0  0  0  0  0  0  0  0
  187.8580  177.1380  145.1750 C   0  0  0  0  0  0  0  0  0  0  0  0
  185.0900  178.1660  145.3240 C   0  0  0  0  0  0  0  0  0  0  0  0
  184.9850  177.1310  147.3880 F   0  0  0  0  0  0  0  0  0  0  0  0
  185.8160  178.1980  144.1790 C   0  0  0  0  0  0  0  0  0  0  0  0
  183.7220  178.7450  145.5050 C   0  0  0  0  0  1  0  0  0  0  0  0
  186.9440  176.7690  146.1500 C   0  0  0  0  0  3  0  0  0  0  0  0
  185.6240  178.6740  141.8730 O   0  0  0  0  0  0  0  0  0  0  0  0
  185.0420  178.4380  142.9580 C   0  0  0  0  0  0  0  0  0  0  0  0
  183.6520  178.7290  143.0190 C   0  0  0  0  0  2  0  0  0  0  0  0
  183.0600  178.2620  141.7190 C   0  0  0  0  0  2  0  0  0  0  0  0
  181.6670  178.6050  141.7100 N   0  0  0  0  0  2  0  0  0  0  0  0
  181.0510  178.0120  140.5280 C   0  0  0  0  0  2  0  0  0  0  0  0
  178.6130  178.5090  140.0860 C   0  0  0  0  0  2  0  0  0  0  0  0
  177.8850  179.5760  139.1910 C   0  0  0  0  0  2  0  0  0  0  0  0
  179.6570  181.2840  139.9890 C   0  0  0  0  0  2  0  0  0  0  0  0
  180.0230  178.9260  140.1560 C   0  0  1  0  0  3  0  0  0  0  0  0
  180.1610  180.2590  140.9300 C   0  0  0  0  0  2  0  0  0  0  0  0
  178.1910  181.0200  139.6950 C   0  0  1  0  0  3  0  0  0  0  0  0
  178.1260  181.8060  137.3070 N   0  0  0  0  0  1  0  0  0  0  0  0
  177.6910  182.0610  138.7040 C   0  0  0  0  0  2  0  0  0  0  0  0
  189.3810  174.5260  143.5410 C   0  0  0  0  0  0  0  0  0  0  0  0
  188.2580  174.4090  141.3890 C   0  0  0  0  0  0  0  0  0  0  0  0
  189.6800  173.1270  143.3130 C   0  0  0  0  0  3  0  0  0  0  0  0
  188.5550  173.0930  141.1160 C   0  0  0  0  0  0  0  0  0  0  0  0
  188.1620  175.1860  140.3070 F   0  0  0  0  0  0  0  0  0  0  0  0
  189.3200  172.4940  142.0650 C   0  0  0  0  0  3  0  0  0  0  0  0
  188.5900  175.0700  142.5680 C   0  0  0  0  0  3  0  0  0  0  0  0
  188.3820  172.5500  139.7160 C   0  0  0  0  0  2  0  0  0  0  0  0
  190.2060  172.0340  136.0790 N   0  0  0  0  0  0  0  0  0  0  0  0
  190.2180  171.2410  138.4530 C   0  0  0  0  0  2  0  0  0  0  0  0
  190.0440  173.7810  137.9320 C   0  0  0  0  0  2  0  0  0  0  0  0
  189.7110  170.9640  137.0170 C   0  0  0  0  0  2  0  0  0  0  0  0
  189.7190  172.5680  138.9410 C   0  0  1  0  0  3  0  0  0  0  0  0
  190.2650  173.3610  136.4370 C   0  0  0  0  0  0  0  0  0  0  0  0
  191.3590  174.2700  134.5140 O   0  0  0  0  0  0  0  0  0  0  0  0
  189.6910  175.5250  135.2430 O   0  0  0  0  0  1  0  0  0  0  0  0
  190.4730  174.3900  135.3330 C   0  0  0  0  0  0  0  0  0  0  0  0
  193.2280  176.1450  146.5680 C   0  0  0  0  0  2  0  0  0  0  0  0
  195.4150  175.0810  144.8590 C   0  0  1  0  0  3  0  0  0  0  0  0
  194.9220  176.3880  145.1420 C   0  0  0  0  0  2  0  0  0  0  0  0
  194.3150  175.2880  145.9420 N   0  0  0  0  0  0  0  0  0  0  0  0
  195.2620  173.3960  140.3880 N   0  0  0  0  0  0  0  0  0  0  0  0
  195.0460  171.4330  141.5490 O   0  0  0  0  0  0  0  0  0  0  0  0
  195.2070  172.6950  141.6800 C   0  0  0  0  0  0  0  0  0  0  0  0
  194.8440  175.6520  140.9120 O   0  0  0  0  0  0  0  0  0  0  0  0
  195.3240  173.2560  142.9740 N   0  0  0  0  0  2  0  0  0  0  0  0
  195.0340  174.6430  143.4020 C   0  0  1  0  0  3  0  0  0  0  0  0
  193.7790  175.4450  142.3600 S   0  0  0  0  0  0  0  0  0  0  0  0
  195.1700  174.6100  140.0290 C   0  0  0  0  0  0  0  0  0  0  0  0
  195.1860  174.8670  138.5660 C   0  0  0  0  0  2  0  0  0  0  0  0
  193.7110  175.9030  136.6900 C   0  0  0  0  0  1  0  0  0  0  0  0
  193.9200  174.8270  137.7120 C   0  0  0  0  0  3  0  0  0  0  0  0
  193.6520  173.4080  137.1260 C   0  0  0  0  0  1  0  0  0  0  0  0
  1  7  1  0  0  0  0
  2 10  1  0  0  0  0
  2  5  1  0  0  0  0
  4  3  1  1  0  0  0
  5  4  1  0  0  0  0
  6 30  1  6  0  0  0
  6  1  1  0  0  0  0
  6  2  1  0  0  0  0
  7 47  1  6  0  0  0
  7  4  1  0  0  0  0
  8 13  2  0  0  0  0
  8 10  1  0  0  0  0
  9 12  1  0  0  0  0
 10 15  2  0  0  0  0
 11 14  1  0  0  0  0
 11  9  2  0  0  0  0
 13 11  1  0  0  0  0
 15  9  1  0  0  0  0
 16 17  2  0  0  0  0
 17 18  1  0  0  0  0
 17 13  1  0  0  0  0
 19 18  1  0  0  0  0
 20 19  1  0  0  0  0
 21 20  1  0  0  0  0
 22 25  1  0  0  0  0
 23 27  1  0  0  0  0
 23 22  1  0  0  0  0
 24 26  1  0  0  0  0
 25 21  1  1  0  0  0
 25 26  1  0  0  0  0
 27 29  1  6  0  0  0
 27 24  1  0  0  0  0
 28 29  1  0  0  0  0
 31 36  1  0  0  0  0
 32 30  1  0  0  0  0
 33 31  2  0  0  0  0
 33 35  1  0  0  0  0
 34 31  1  0  0  0  0
 35 32  2  0  0  0  0
 36 30  2  0  0  0  0
 37 33  1  0  0  0  0
 38 43  2  0  0  0  0
 38 41  1  0  0  0  0
 39 42  1  0  0  0  0
 40 42  1  0  0  0  0
 41 39  1  0  0  0  0
 42 37  1  6  0  0  0
 43 40  1  0  0  0  0
 44 46  2  0  0  0  0
 45 46  1  0  0  0  0
 46 43  1  0  0  0  0
 48 49  1  6  0  0  0
 48 50  1  0  0  0  0
 49 50  1  0  0  0  0
 50 47  1  0  0  0  0
 51 53  1  0  0  0  0
 52 53  2  0  0  0  0
 53 55  1  0  0  0  0
 54 57  1  0  0  0  0
 55 56  1  0  0  0  0
 56 57  1  1  0  0  0
 56 48  1  0  0  0  0
 58 51  2  0  0  0  0
 58 54  1  0  0  0  0
 59 58  1  0  0  0  0
 60 61  1  0  0  0  0
 61 59  1  0  0  0  0
 62 61  1  0  0  0  0
M  END
>  <MODEL>
3

>  <REMARK>
 VINA RESULT:      -6.4      3.173      9.809
  Name = 
  17 active torsions:
  status: ('A' for Active; 'I' for Inactive)
    1  A    between atoms: C_1  and  N_35
    2  A    between atoms: C_1  and  C_60
    3  A    between atoms: C_2  and  C_49
    4  A    between atoms: C_5  and  C_48
    5  A    between atoms: C_11  and  C_41
    6  A    between atoms: N_14  and  C_17
    7  A    between atoms: N_14  and  C_33
    8  A    between atoms: C_17  and  C_36
    9  A    between atoms: C_18  and  C_29
   10  A    between atoms: N_22  and  C_28
   11  A    between atoms: C_29  and  C_47
   12  A    between atoms: C_33  and  C_52
   13  A    between atoms: C_36  and  C_54
   14  A    between atoms: C_40  and  C_54
   15  A    between atoms: C_41  and  C_62
   16  A    between atoms: C_53  and  C_58
   17  A    between atoms: CA_56  and  C_61
                            x       y       z     vdW  Elec       q    Type
                         _______ _______ _______ _____ _____    ______ ____

>  <TORSDO>
F 17

$$$$
=
 OpenBabel11042416333D

 62 68  0  0  1  0  0  0  0  0999 V2000
  187.6220  176.0160  140.3130 C   0  0  0  0  0  2  0  0  0  0  0  0
  186.6140  176.4710  142.5820 N   0  0  0  0  0  0  0  0  0  0  0  0
  185.2780  178.9490  140.2460 O   0  0  0  0  0  1  0  0  0  0  0  0
  186.1710  178.0600  140.7970 C   0  0  1  0  0  3  0  0  0  0  0  0
  185.5270  177.0970  141.8250 C   0  0  0  0  0  2  0  0  0  0  0  0
  187.8610  176.0800  141.7960 C   0  0  1  0  0  3  0  0  0  0  0  0
  186.9470  177.3010  139.7000 C   0  0  2  0  0  3  0  0  0  0  0  0
  187.6130  176.5950  144.9470 C   0  0  0  0  0  3  0  0  0  0  0  0
  185.2080  177.2670  146.0390 C   0  0  0  0  0  0  0  0  0  0  0  0
  186.5140  176.7430  144.0190 C   0  0  0  0  0  0  0  0  0  0  0  0
  186.2040  177.0440  146.9440 C   0  0  0  0  0  0  0  0  0  0  0  0
  184.0120  177.6220  146.4930 F   0  0  0  0  0  0  0  0  0  0  0  0
  187.4160  176.9020  146.3530 C   0  0  0  0  0  0  0  0  0  0  0  0
  185.9550  177.1110  148.4180 C   0  0  0  0  0  1  0  0  0  0  0  0
  185.3970  177.2940  144.6290 C   0  0  0  0  0  3  0  0  0  0  0  0
  188.5960  178.3630  147.7860 O   0  0  0  0  0  0  0  0  0  0  0  0
  188.5630  177.2590  147.1920 C   0  0  0  0  0  0  0  0  0  0  0  0
  189.7850  176.5380  147.1050 C   0  0  0  0  0  2  0  0  0  0  0  0
  190.7270  177.1740  148.0880 C   0  0  0  0  0  2  0  0  0  0  0  0
  192.0360  176.6280  147.8760 N   0  0  0  0  0  2  0  0  0  0  0  0
  191.9480  175.6020  146.8420 C   0  0  0  0  0  2  0  0  0  0  0  0
  194.1470  176.7730  146.4170 C   0  0  0  0  0  2  0  0  0  0  0  0
  195.0240  176.9640  145.1280 C   0  0  0  0  0  2  0  0  0  0  0  0
  194.4810  174.5050  144.5350 C   0  0  0  0  0  2  0  0  0  0  0  0
  193.1460  175.7460  146.0840 C   0  0  1  0  0  3  0  0  0  0  0  0
  193.8250  174.3750  145.8550 C   0  0  0  0  0  2  0  0  0  0  0  0
  195.5410  175.5890  144.6040 C   0  0  1  0  0  3  0  0  0  0  0  0
  197.1620  176.8540  143.1550 N   0  0  0  0  0  1  0  0  0  0  0  0
  196.1880  175.7350  143.2350 C   0  0  0  0  0  2  0  0  0  0  0  0
  189.0140  175.1690  142.2630 C   0  0  0  0  0  0  0  0  0  0  0  0
  189.7780  172.9210  142.7780 C   0  0  0  0  0  0  0  0  0  0  0  0
  190.3930  175.5490  142.4870 C   0  0  0  0  0  3  0  0  0  0  0  0
  191.1070  173.2330  142.9600 C   0  0  0  0  0  0  0  0  0  0  0  0
  189.5640  171.6950  142.2950 F   0  0  0  0  0  0  0  0  0  0  0  0
  191.3980  174.5430  142.7470 C   0  0  0  0  0  3  0  0  0  0  0  0
  188.7730  173.8470  142.5140 C   0  0  0  0  0  3  0  0  0  0  0  0
  192.1480  172.1380  142.9820 C   0  0  0  0  0  2  0  0  0  0  0  0
  194.2800  169.8160  140.3590 N   0  0  0  0  0  0  0  0  0  0  0  0
  194.4270  171.8590  141.7960 C   0  0  0  0  0  2  0  0  0  0  0  0
  192.3110  171.4390  140.3470 C   0  0  0  0  0  2  0  0  0  0  0  0
  194.7350  170.3460  141.6930 C   0  0  0  0  0  2  0  0  0  0  0  0
  192.9540  172.1070  141.6630 C   0  0  1  0  0  3  0  0  0  0  0  0
  193.1060  170.2190  139.7650 C   0  0  0  0  0  0  0  0  0  0  0  0
  193.3240  168.9990  137.7190 O   0  0  0  0  0  0  0  0  0  0  0  0
  191.2380  169.1250  138.4420 O   0  0  0  0  0  1  0  0  0  0  0  0
  192.5830  169.4020  138.5890 C   0  0  0  0  0  0  0  0  0  0  0  0
  186.1110  176.9730  138.4020 C   0  0  0  0  0  2  0  0  0  0  0  0
  187.4200  175.9880  135.9230 C   0  0  1  0  0  3  0  0  0  0  0  0
  186.3750  175.4960  136.7560 C   0  0  0  0  0  2  0  0  0  0  0  0
  186.8770  176.8570  137.0960 N   0  0  0  0  0  0  0  0  0  0  0  0
  191.2540  173.5980  137.4860 N   0  0  0  0  0  0  0  0  0  0  0  0
  189.6160  172.0820  138.0030 O   0  0  0  0  0  0  0  0  0  0  0  0
  189.8270  173.2440  137.5140 C   0  0  0  0  0  0  0  0  0  0  0  0
  191.4030  175.3750  135.9510 O   0  0  0  0  0  0  0  0  0  0  0  0
  188.7320  174.0350  137.0900 N   0  0  0  0  0  2  0  0  0  0  0  0
  188.7230  175.1320  136.0960 C   0  0  1  0  0  3  0  0  0  0  0  0
  190.0320  174.9500  134.8470 S   0  0  0  0  0  0  0  0  0  0  0  0
  191.9390  174.4920  136.9010 C   0  0  0  0  0  0  0  0  0  0  0  0
  193.4110  174.4190  137.0850 C   0  0  0  0  0  2  0  0  0  0  0  0
  195.3480  173.1240  138.2420 C   0  0  0  0  0  1  0  0  0  0  0  0
  194.0530  173.8710  138.3570 C   0  0  0  0  0  3  0  0  0  0  0  0
  194.0930  174.9300  139.5000 C   0  0  0  0  0  1  0  0  0  0  0  0
  1  6  1  0  0  0  0
  2 10  1  0  0  0  0
  4  3  1  6  0  0  0
  4  5  1  0  0  0  0
  5  2  1  0  0  0  0
  6 30  1  1  0  0  0
  6  2  1  0  0  0  0
  7 47  1  6  0  0  0
  7  1  1  0  0  0  0
  7  4  1  0  0  0  0
  8 13  1  0  0  0  0
  9 12  1  0  0  0  0
  9 11  1  0  0  0  0
 10 15  1  0  0  0  0
 10  8  2  0  0  0  0
 11 14  1  0  0  0  0
 13 11  2  0  0  0  0
 13 17  1  0  0  0  0
 15  9  2  0  0  0  0
 17 16  2  0  0  0  0
 18 17  1  0  0  0  0
 18 19  1  0  0  0  0
 20 19  1  0  0  0  0
 21 20  1  0  0  0  0
 23 22  1  0  0  0  0
 24 27  1  0  0  0  0
 24 26  1  0  0  0  0
 25 22  1  0  0  0  0
 25 21  1  1  0  0  0
 26 25  1  0  0  0  0
 27 29  1  6  0  0  0
 27 23  1  0  0  0  0
 28 29  1  0  0  0  0
 30 32  2  0  0  0  0
 30 36  1  0  0  0  0
 31 33  1  0  0  0  0
 32 35  1  0  0  0  0
 33 37  1  0  0  0  0
 34 31  1  0  0  0  0
 35 33  2  0  0  0  0
 36 31  2  0  0  0  0
 38 41  1  0  0  0  0
 40 42  1  0  0  0  0
 41 39  1  0  0  0  0
 42 39  1  0  0  0  0
 42 37  1  1  0  0  0
 43 40  1  0  0  0  0
 43 38  2  0  0  0  0
 44 46  2  0  0  0  0
 45 46  1  0  0  0  0
 46 43  1  0  0  0  0
 48 56  1  0  0  0  0
 48 49  1  1  0  0  0
 48 50  1  0  0  0  0
 49 50  1  0  0  0  0
 50 47  1  0  0  0  0
 51 53  1  0  0  0  0
 53 52  2  0  0  0  0
 54 58  1  0  0  0  0
 55 53  1  0  0  0  0
 56 57  1  6  0  0  0
 56 55  1  0  0  0  0
 57 54  1  0  0  0  0
 58 59  1  0  0  0  0
 58 51  2  0  0  0  0
 59 61  1  0  0  0  0
 60 61  1  0  0  0  0
 61 62  1  0  0  0  0
M  END
>  <MODEL>
4

>  <REMARK>
 VINA RESULT:      -6.4      2.908      7.746
  Name = 
  17 active torsions:
  status: ('A' for Active; 'I' for Inactive)
    1  A    between atoms: C_1  and  N_35
    2  A    between atoms: C_1  and  C_60
    3  A    between atoms: C_2  and  C_49
    4  A    between atoms: C_5  and  C_48
    5  A    between atoms: C_11  and  C_41
    6  A    between atoms: N_14  and  C_17
    7  A    between atoms: N_14  and  C_33
    8  A    between atoms: C_17  and  C_36
    9  A    between atoms: C_18  and  C_29
   10  A    between atoms: N_22  and  C_28
   11  A    between atoms: C_29  and  C_47
   12  A    between atoms: C_33  and  C_52
   13  A    between atoms: C_36  and  C_54
   14  A    between atoms: C_40  and  C_54
   15  A    between atoms: C_41  and  C_62
   16  A    between atoms: C_53  and  C_58
   17  A    between atoms: CA_56  and  C_61
                            x       y       z     vdW  Elec       q    Type
                         _______ _______ _______ _____ _____    ______ ____

>  <TORSDO>
F 17

$$$$
=
 OpenBabel11042416333D

 62 68  0  0  1  0  0  0  0  0999 V2000
  187.1810  176.1730  140.3240 C   0  0  0  0  0  2  0  0  0  0  0  0
  188.6380  175.2410  142.1610 N   0  0  0  0  0  0  0  0  0  0  0  0
  188.0010  178.7620  142.9170 O   0  0  0  0  0  1  0  0  0  0  0  0
  188.1910  177.6290  142.1610 C   0  0  1  0  0  3  0  0  0  0  0  0
  188.0700  176.3170  142.9750 C   0  0  0  0  0  2  0  0  0  0  0  0
  188.3410  175.2810  140.6660 C   0  0  1  0  0  3  0  0  0  0  0  0
  187.2720  177.6280  140.9220 C   0  0  2  0  0  3  0  0  0  0  0  0
  191.1510  174.8480  142.5380 C   0  0  0  0  0  3  0  0  0  0  0  0
  190.6750  172.8560  144.3350 C   0  0  0  0  0  0  0  0  0  0  0  0
  189.7610  174.5760  142.8300 C   0  0  0  0  0  0  0  0  0  0  0  0
  191.9880  173.0280  144.0080 C   0  0  0  0  0  0  0  0  0  0  0  0
  190.3650  171.9180  145.2220 F   0  0  0  0  0  0  0  0  0  0  0  0
  192.1920  174.1450  143.2650 C   0  0  0  0  0  0  0  0  0  0  0  0
  193.0590  172.1420  144.5610 C   0  0  0  0  0  1  0  0  0  0  0  0
  189.6220  173.7100  143.9040 C   0  0  0  0  0  3  0  0  0  0  0  0
  193.8310  175.4420  144.3650 O   0  0  0  0  0  0  0  0  0  0  0  0
  193.5310  174.7300  143.3780 C   0  0  0  0  0  0  0  0  0  0  0  0
  194.4000  174.7870  142.2550 C   0  0  0  0  0  2  0  0  0  0  0  0
  195.5590  175.6570  142.6550 C   0  0  0  0  0  2  0  0  0  0  0  0
  196.7570  174.8710  142.5850 N   0  0  0  0  0  2  0  0  0  0  0  0
  197.4160  174.9140  143.8860 C   0  0  0  0  0  2  0  0  0  0  0  0
  196.3550  173.3210  145.5370 C   0  0  0  0  0  2  0  0  0  0  0  0
  196.8190  171.9490  146.1470 C   0  0  0  0  0  2  0  0  0  0  0  0
  197.6900  171.3290  143.7910 C   0  0  0  0  0  2  0  0  0  0  0  0
  197.2650  173.5980  144.4140 C   0  0  1  0  0  3  0  0  0  0  0  0
  197.0640  172.5670  143.2780 C   0  0  0  0  0  2  0  0  0  0  0  0
  196.9500  170.8660  145.0330 C   0  0  1  0  0  3  0  0  0  0  0  0
  196.6760  168.4880  145.8060 N   0  0  0  0  0  1  0  0  0  0  0  0
  197.6200  169.6100  145.5680 C   0  0  0  0  0  2  0  0  0  0  0  0
  188.5610  174.1540  139.6370 C   0  0  0  0  0  0  0  0  0  0  0  0
  188.5820  173.4750  137.3040 C   0  0  0  0  0  0  0  0  0  0  0  0
  189.0650  172.8210  139.8930 C   0  0  0  0  0  3  0  0  0  0  0  0
  189.0980  172.2140  137.5010 C   0  0  0  0  0  0  0  0  0  0  0  0
  188.9250  174.0330  136.1400 F   0  0  0  0  0  0  0  0  0  0  0  0
  189.3890  171.9360  138.7980 C   0  0  0  0  0  3  0  0  0  0  0  0
  188.2640  174.3710  138.3210 C   0  0  0  0  0  3  0  0  0  0  0  0
  189.6480  171.4280  136.3330 C   0  0  0  0  0  2  0  0  0  0  0  0
  193.0370  173.2200  137.7880 N   0  0  0  0  0  0  0  0  0  0  0  0
  191.8540  172.6000  135.6720 C   0  0  0  0  0  2  0  0  0  0  0  0
  191.9930  170.8970  137.6300 C   0  0  0  0  0  2  0  0  0  0  0  0
  192.1280  173.7250  136.6990 C   0  0  0  0  0  2  0  0  0  0  0  0
  191.1940  171.4300  136.3370 C   0  0  1  0  0  3  0  0  0  0  0  0
  192.9250  171.9550  138.3180 C   0  0  0  0  0  0  0  0  0  0  0  0
  194.8310  171.3100  139.6110 O   0  0  0  0  0  0  0  0  0  0  0  0
  193.0380  171.7140  140.8410 O   0  0  0  0  0  1  0  0  0  0  0  0
  193.6680  171.6530  139.6130 C   0  0  0  0  0  0  0  0  0  0  0  0
  185.8480  178.2690  141.1520 C   0  0  0  0  0  2  0  0  0  0  0  0
  184.3880  177.9160  143.7160 C   0  0  1  0  0  3  0  0  0  0  0  0
  184.8100  179.0490  142.9610 C   0  0  0  0  0  2  0  0  0  0  0  0
  185.0230  177.7280  142.3070 N   0  0  0  0  0  0  0  0  0  0  0  0
  187.5340  178.2880  147.2970 N   0  0  0  0  0  0  0  0  0  0  0  0
  186.0520  179.9230  147.9130 O   0  0  0  0  0  0  0  0  0  0  0  0
  186.3110  179.0540  147.0120 C   0  0  0  0  0  0  0  0  0  0  0  0
  187.3740  176.3730  145.9390 O   0  0  0  0  0  0  0  0  0  0  0  0
  185.4570  178.9320  145.8890 N   0  0  0  0  0  2  0  0  0  0  0  0
  185.2540  177.7550  145.0140 C   0  0  1  0  0  3  0  0  0  0  0  0
  185.5740  176.1860  145.8730 S   0  0  0  0  0  0  0  0  0  0  0  0
  188.0370  177.2130  146.8480 C   0  0  0  0  0  0  0  0  0  0  0  0
  189.2780  176.7400  147.5110 C   0  0  0  0  0  2  0  0  0  0  0  0
  191.4530  175.4630  146.8710 C   0  0  0  0  0  1  0  0  0  0  0  0
  190.6290  176.7140  146.7990 C   0  0  0  0  0  3  0  0  0  0  0  0
  190.5380  177.2660  145.3450 C   0  0  0  0  0  1  0  0  0  0  0  0
  1  6  1  0  0  0  0
  1  7  1  0  0  0  0
  2 10  1  0  0  0  0
  2  5  1  0  0  0  0
  4  3  1  1  0  0  0
  4  5  1  0  0  0  0
  6 30  1  1  0  0  0
  6  2  1  0  0  0  0
  7 47  1  1  0  0  0
  7  4  1  0  0  0  0
  8 10  2  0  0  0  0
  8 13  1  0  0  0  0
  9 12  1  0  0  0  0
 10 15  1  0  0  0  0
 11  9  1  0  0  0  0
 11 14  1  0  0  0  0
 13 17  1  0  0  0  0
 13 11  2  0  0  0  0
 15  9  2  0  0  0  0
 17 16  2  0  0  0  0
 18 19  1  0  0  0  0
 18 17  1  0  0  0  0
 20 19  1  0  0  0  0
 20 21  1  0  0  0  0
 22 23  1  0  0  0  0
 24 27  1  0  0  0  0
 25 21  1  6  0  0  0
 25 22  1  0  0  0  0
 26 24  1  0  0  0  0
 26 25  1  0  0  0  0
 27 29  1  1  0  0  0
 27 23  1  0  0  0  0
 29 28  1  0  0  0  0
 30 32  1  0  0  0  0
 31 33  2  0  0  0  0
 31 36  1  0  0  0  0
 33 35  1  0  0  0  0
 34 31  1  0  0  0  0
 35 32  2  0  0  0  0
 36 30  2  0  0  0  0
 37 33  1  0  0  0  0
 38 43  2  0  0  0  0
 39 42  1  0  0  0  0
 39 41  1  0  0  0  0
 40 43  1  0  0  0  0
 41 38  1  0  0  0  0
 42 37  1  1  0  0  0
 42 40  1  0  0  0  0
 43 46  1  0  0  0  0
 44 46  2  0  0  0  0
 46 45  1  0  0  0  0
 47 50  1  0  0  0  0
 48 49  1  6  0  0  0
 48 56  1  0  0  0  0
 50 49  1  0  0  0  0
 50 48  1  0  0  0  0
 53 51  1  0  0  0  0
 53 52  2  0  0  0  0
 54 58  1  0  0  0  0
 55 53  1  0  0  0  0
 56 57  1  1  0  0  0
 56 55  1  0  0  0  0
 57 54  1  0  0  0  0
 58 51  2  0  0  0  0
 58 59  1  0  0  0  0
 61 60  1  0  0  0  0
 61 59  1  0  0  0  0
 62 61  1  0  0  0  0
M  END
>  <MODEL>
5

>  <REMARK>
 VINA RESULT:      -6.1      2.720      5.106
  Name = 
  17 active torsions:
  status: ('A' for Active; 'I' for Inactive)
    1  A    between atoms: C_1  and  N_35
    2  A    between atoms: C_1  and  C_60
    3  A    between atoms: C_2  and  C_49
    4  A    between atoms: C_5  and  C_48
    5  A    between atoms: C_11  and  C_41
    6  A    between atoms: N_14  and  C_17
    7  A    between atoms: N_14  and  C_33
    8  A    between atoms: C_17  and  C_36
    9  A    between atoms: C_18  and  C_29
   10  A    between atoms: N_22  and  C_28
   11  A    between atoms: C_29  and  C_47
   12  A    between atoms: C_33  and  C_52
   13  A    between atoms: C_36  and  C_54
   14  A    between atoms: C_40  and  C_54
   15  A    between atoms: C_41  and  C_62
   16  A    between atoms: C_53  and  C_58
   17  A    between atoms: CA_56  and  C_61
                            x       y       z     vdW  Elec       q    Type
                         _______ _______ _______ _____ _____    ______ ____

>  <TORSDO>
F 17

$$$$
=
 OpenBabel11042416333D

 62 68  0  0  1  0  0  0  0  0999 V2000
  192.1230  175.0860  144.9990 C   0  0  0  0  0  2  0  0  0  0  0  0
  190.1170  176.6020  145.2130 N   0  0  0  0  0  0  0  0  0  0  0  0
  192.0660  176.8830  148.2960 O   0  0  0  0  0  1  0  0  0  0  0  0
  191.5400  176.3100  147.1620 C   0  0  1  0  0  3  0  0  0  0  0  0
  190.9450  177.3400  146.1700 C   0  0  0  0  0  2  0  0  0  0  0  0
  190.6520  175.2550  144.7380 C   0  0  1  0  0  3  0  0  0  0  0  0
  192.5650  175.3790  146.4820 C   0  0  2  0  0  3  0  0  0  0  0  0
  188.0110  177.5160  144.0560 C   0  0  0  0  0  3  0  0  0  0  0  0
  186.6560  177.6710  146.4150 C   0  0  0  0  0  0  0  0  0  0  0  0
  188.7220  177.0520  145.2270 C   0  0  0  0  0  0  0  0  0  0  0  0
  185.9990  178.2000  145.3430 C   0  0  0  0  0  0  0  0  0  0  0  0
  186.0510  177.6880  147.5970 F   0  0  0  0  0  0  0  0  0  0  0  0
  186.6240  177.9290  144.1700 C   0  0  0  0  0  0  0  0  0  0  0  0
  184.6650  178.8610  145.4880 C   0  0  0  0  0  1  0  0  0  0  0  0
  187.8880  176.9630  146.3310 C   0  0  0  0  0  3  0  0  0  0  0  0
  184.9020  176.9940  142.8510 O   0  0  0  0  0  0  0  0  0  0  0  0
  185.7520  177.9050  142.9930 C   0  0  0  0  0  0  0  0  0  0  0  0
  186.0490  178.6920  141.8470 C   0  0  0  0  0  2  0  0  0  0  0  0
  187.1720  177.9960  141.1310 C   0  0  0  0  0  2  0  0  0  0  0  0
  186.6420  177.3930  139.9420 N   0  0  0  0  0  2  0  0  0  0  0  0
  187.0820  176.0020  139.8910 C   0  0  0  0  0  2  0  0  0  0  0  0
  187.9410  174.4790  138.0670 C   0  0  0  0  0  2  0  0  0  0  0  0
  188.6780  174.7510  136.7060 C   0  0  0  0  0  2  0  0  0  0  0  0
  187.0750  176.7550  136.3740 C   0  0  0  0  0  2  0  0  0  0  0  0
  187.4370  175.7830  138.5280 C   0  0  1  0  0  3  0  0  0  0  0  0
  186.3370  176.3120  137.5780 C   0  0  0  0  0  2  0  0  0  0  0  0
  187.7630  175.5620  135.7360 C   0  0  1  0  0  3  0  0  0  0  0  0
  189.4590  177.1670  134.8020 N   0  0  0  0  0  1  0  0  0  0  0  0
  188.5420  176.0330  134.5180 C   0  0  0  0  0  2  0  0  0  0  0  0
  190.1480  174.4150  143.5480 C   0  0  0  0  0  0  0  0  0  0  0  0
  190.1480  174.0440  141.1460 C   0  0  0  0  0  0  0  0  0  0  0  0
  189.3810  173.1880  143.6060 C   0  0  0  0  0  3  0  0  0  0  0  0
  189.4560  172.8540  141.1610 C   0  0  0  0  0  0  0  0  0  0  0  0
  191.0340  174.1520  140.1540 F   0  0  0  0  0  0  0  0  0  0  0  0
  189.1390  172.4170  142.4070 C   0  0  0  0  0  3  0  0  0  0  0  0
  190.4180  174.8190  142.2710 C   0  0  0  0  0  3  0  0  0  0  0  0
  189.4430  171.9690  139.9360 C   0  0  0  0  0  2  0  0  0  0  0  0
  191.4140  168.9060  138.0510 N   0  0  0  0  0  0  0  0  0  0  0  0
  190.8200  169.8140  140.3060 C   0  0  0  0  0  2  0  0  0  0  0  0
  191.6610  171.4160  138.4410 C   0  0  0  0  0  2  0  0  0  0  0  0
  190.4420  168.8030  139.1960 C   0  0  0  0  0  2  0  0  0  0  0  0
  190.7840  171.2160  139.7760 C   0  0  1  0  0  3  0  0  0  0  0  0
  191.9080  170.1110  137.6060 C   0  0  0  0  0  0  0  0  0  0  0  0
  192.4280  169.2840  135.4230 O   0  0  0  0  0  0  0  0  0  0  0  0
  193.5570  171.1090  135.9560 O   0  0  0  0  0  1  0  0  0  0  0  0
  192.6230  170.1380  136.2610 C   0  0  0  0  0  0  0  0  0  0  0  0
  194.0640  175.8650  146.5730 C   0  0  0  0  0  2  0  0  0  0  0  0
  195.8450  175.2910  144.2640 C   0  0  1  0  0  3  0  0  0  0  0  0
  195.2690  176.4770  144.8020 C   0  0  0  0  0  2  0  0  0  0  0  0
  195.0540  175.2410  145.6050 N   0  0  0  0  0  0  0  0  0  0  0  0
  194.5000  173.3390  140.1120 N   0  0  0  0  0  0  0  0  0  0  0  0
  193.6010  171.8150  141.5660 O   0  0  0  0  0  0  0  0  0  0  0  0
  194.2950  172.8860  141.4960 C   0  0  0  0  0  0  0  0  0  0  0  0
  195.1400  175.5960  140.3090 O   0  0  0  0  0  0  0  0  0  0  0  0
  194.7810  173.4840  142.6830 N   0  0  0  0  0  2  0  0  0  0  0  0
  195.1560  174.8980  142.9110 C   0  0  1  0  0  3  0  0  0  0  0  0
  194.2540  176.0410  141.8230 S   0  0  0  0  0  0  0  0  0  0  0  0
  194.8930  174.4220  139.5790 C   0  0  0  0  0  0  0  0  0  0  0  0
  194.8550  174.4770  138.0950 C   0  0  0  0  0  2  0  0  0  0  0  0
  197.2780  174.8040  137.2040 C   0  0  0  0  0  1  0  0  0  0  0  0
  195.8600  175.2870  137.2790 C   0  0  0  0  0  3  0  0  0  0  0  0
  195.3030  175.6720  135.8750 C   0  0  0  0  0  1  0  0  0  0  0  0
  1  7  1  0  0  0  0
  2 10  1  0  0  0  0
  2  5  1  0  0  0  0
  4  3  1  1  0  0  0
  5  4  1  0  0  0  0
  6 30  1  6  0  0  0
  6  1  1  0  0  0  0
  6  2  1  0  0  0  0
  7 47  1  6  0  0  0
  7  4  1  0  0  0  0
  8 13  2  0  0  0  0
  8 10  1  0  0  0  0
  9 12  1  0  0  0  0
 10 15  2  0  0  0  0
 11 14  1  0  0  0  0
 11  9  2  0  0  0  0
 13 11  1  0  0  0  0
 15  9  1  0  0  0  0
 16 17  2  0  0  0  0
 17 13  1  0  0  0  0
 18 17  1  0  0  0  0
 19 18  1  0  0  0  0
 20 19  1  0  0  0  0
 21 20  1  0  0  0  0
 22 25  1  0  0  0  0
 23 22  1  0  0  0  0
 24 26  1  0  0  0  0
 25 21  1  1  0  0  0
 26 25  1  0  0  0  0
 27 29  1  6  0  0  0
 27 24  1  0  0  0  0
 27 23  1  0  0  0  0
 29 28  1  0  0  0  0
 30 32  1  0  0  0  0
 31 33  2  0  0  0  0
 31 36  1  0  0  0  0
 33 35  1  0  0  0  0
 34 31  1  0  0  0  0
 35 32  2  0  0  0  0
 36 30  2  0  0  0  0
 37 33  1  0  0  0  0
 38 41  1  0  0  0  0
 40 42  1  0  0  0  0
 41 39  1  0  0  0  0
 42 37  1  6  0  0  0
 42 39  1  0  0  0  0
 43 38  2  0  0  0  0
 43 40  1  0  0  0  0
 44 46  2  0  0  0  0
 45 46  1  0  0  0  0
 46 43  1  0  0  0  0
 48 49  1  6  0  0  0
 48 50  1  0  0  0  0
 49 50  1  0  0  0  0
 50 47  1  0  0  0  0
 51 53  1  0  0  0  0
 53 52  2  0  0  0  0
 53 55  1  0  0  0  0
 54 57  1  0  0  0  0
 55 56  1  0  0  0  0
 56 57  1  1  0  0  0
 56 48  1  0  0  0  0
 58 51  2  0  0  0  0
 58 54  1  0  0  0  0
 59 58  1  0  0  0  0
 60 61  1  0  0  0  0
 61 59  1  0  0  0  0
 62 61  1  0  0  0  0
M  END
>  <MODEL>
6

>  <REMARK>
 VINA RESULT:      -6.1      2.914      7.904
  Name = 
  17 active torsions:
  status: ('A' for Active; 'I' for Inactive)
    1  A    between atoms: C_1  and  N_35
    2  A    between atoms: C_1  and  C_60
    3  A    between atoms: C_2  and  C_49
    4  A    between atoms: C_5  and  C_48
    5  A    between atoms: C_11  and  C_41
    6  A    between atoms: N_14  and  C_17
    7  A    between atoms: N_14  and  C_33
    8  A    between atoms: C_17  and  C_36
    9  A    between atoms: C_18  and  C_29
   10  A    between atoms: N_22  and  C_28
   11  A    between atoms: C_29  and  C_47
   12  A    between atoms: C_33  and  C_52
   13  A    between atoms: C_36  and  C_54
   14  A    between atoms: C_40  and  C_54
   15  A    between atoms: C_41  and  C_62
   16  A    between atoms: C_53  and  C_58
   17  A    between atoms: CA_56  and  C_61
                            x       y       z     vdW  Elec       q    Type
                         _______ _______ _______ _____ _____    ______ ____

>  <TORSDO>
F 17

$$$$
=
 OpenBabel11042416333D

 62 68  0  0  1  0  0  0  0  0999 V2000
  191.2000  175.1040  144.3020 C   0  0  0  0  0  2  0  0  0  0  0  0
  189.4980  176.7220  143.3790 N   0  0  0  0  0  0  0  0  0  0  0  0
  190.0270  177.5450  146.9030 O   0  0  0  0  0  1  0  0  0  0  0  0
  189.9440  176.7750  145.7670 C   0  0  1  0  0  3  0  0  0  0  0  0
  189.9470  177.6030  144.4590 C   0  0  0  0  0  2  0  0  0  0  0  0
  190.0020  175.2830  143.4120 C   0  0  1  0  0  3  0  0  0  0  0  0
  191.0280  175.6770  145.7590 C   0  0  2  0  0  3  0  0  0  0  0  0
  187.0670  177.5580  143.4130 C   0  0  0  0  0  3  0  0  0  0  0  0
  186.9920  177.7700  140.6980 C   0  0  0  0  0  0  0  0  0  0  0  0
  188.2910  177.2290  142.7180 C   0  0  0  0  0  0  0  0  0  0  0  0
  185.8000  177.9950  141.3210 C   0  0  0  0  0  0  0  0  0  0  0  0
  187.0420  177.8770  139.3760 F   0  0  0  0  0  0  0  0  0  0  0  0
  185.9280  178.0670  142.6700 C   0  0  0  0  0  0  0  0  0  0  0  0
  184.5500  178.2760  140.5490 C   0  0  0  0  0  1  0  0  0  0  0  0
  188.2270  177.5740  141.3760 C   0  0  0  0  0  3  0  0  0  0  0  0
  185.2250  179.9170  143.9580 O   0  0  0  0  0  0  0  0  0  0  0  0
  184.9070  178.8680  143.3500 C   0  0  0  0  0  0  0  0  0  0  0  0
  183.6180  178.3320  143.6190 C   0  0  0  0  0  2  0  0  0  0  0  0
  182.6290  179.4150  143.2890 C   0  0  0  0  0  2  0  0  0  0  0  0
  181.7100  178.9030  142.3150 N   0  0  0  0  0  2  0  0  0  0  0  0
  180.3650  179.3480  142.6670 C   0  0  0  0  0  2  0  0  0  0  0  0
  178.1880  178.0930  142.3970 C   0  0  0  0  0  2  0  0  0  0  0  0
  177.7690  176.8560  141.5230 C   0  0  0  0  0  2  0  0  0  0  0  0
  179.1700  177.8840  139.6060 C   0  0  0  0  0  2  0  0  0  0  0  0
  179.4960  178.5320  141.8840 C   0  0  1  0  0  3  0  0  0  0  0  0
  179.3620  179.0860  140.4470 C   0  0  0  0  0  2  0  0  0  0  0  0
  177.8780  177.1920  140.0040 C   0  0  1  0  0  3  0  0  0  0  0  0
  178.3220  176.0500  137.8070 N   0  0  0  0  0  1  0  0  0  0  0  0
  177.7050  175.9420  139.1550 C   0  0  0  0  0  2  0  0  0  0  0  0
  189.9280  174.2390  142.2810 C   0  0  0  0  0  0  0  0  0  0  0  0
  188.6410  173.2610  140.4660 C   0  0  0  0  0  0  0  0  0  0  0  0
  190.9920  173.3730  141.8180 C   0  0  0  0  0  3  0  0  0  0  0  0
  189.6380  172.4530  139.9700 C   0  0  0  0  0  0  0  0  0  0  0  0
  187.7830  173.7050  139.5440 F   0  0  0  0  0  0  0  0  0  0  0  0
  190.8220  172.5740  140.6250 C   0  0  0  0  0  3  0  0  0  0  0  0
  188.7550  174.0570  141.6020 C   0  0  0  0  0  3  0  0  0  0  0  0
  189.5020  171.8350  138.5970 C   0  0  0  0  0  2  0  0  0  0  0  0
  189.8120  173.2530  134.7620 N   0  0  0  0  0  0  0  0  0  0  0  0
  190.8920  171.7230  136.4220 C   0  0  0  0  0  2  0  0  0  0  0  0
  190.0890  174.0820  137.1590 C   0  0  0  0  0  2  0  0  0  0  0  0
  189.9200  171.8230  135.2220 C   0  0  0  0  0  2  0  0  0  0  0  0
  190.4020  172.5560  137.5680 C   0  0  1  0  0  3  0  0  0  0  0  0
  189.7740  174.3120  135.6400 C   0  0  0  0  0  0  0  0  0  0  0  0
  190.1610  176.4690  134.6820 O   0  0  0  0  0  0  0  0  0  0  0  0
  188.0280  176.0740  135.1080 O   0  0  0  0  0  1  0  0  0  0  0  0
  189.3490  175.6720  135.1010 C   0  0  0  0  0  0  0  0  0  0  0  0
  192.4070  176.1020  146.4000 C   0  0  0  0  0  2  0  0  0  0  0  0
  195.0150  174.9420  145.5730 C   0  0  1  0  0  3  0  0  0  0  0  0
  194.5370  176.2690  145.7710 C   0  0  0  0  0  2  0  0  0  0  0  0
  193.5930  175.1850  146.1620 N   0  0  0  0  0  0  0  0  0  0  0  0
  194.7300  174.6180  140.8120 N   0  0  0  0  0  0  0  0  0  0  0  0
  195.6410  176.7110  141.0030 O   0  0  0  0  0  0  0  0  0  0  0  0
  195.2010  175.7140  141.6720 C   0  0  0  0  0  0  0  0  0  0  0  0
  194.6680  172.7340  142.2210 O   0  0  0  0  0  0  0  0  0  0  0  0
  195.1950  175.7660  143.0870 N   0  0  0  0  0  2  0  0  0  0  0  0
  195.2090  174.6390  144.0460 C   0  0  1  0  0  3  0  0  0  0  0  0
  196.0060  173.1550  143.3650 S   0  0  0  0  0  0  0  0  0  0  0  0
  194.4490  173.3950  141.0010 C   0  0  0  0  0  0  0  0  0  0  0  0
  194.0930  172.6060  139.7940 C   0  0  0  0  0  2  0  0  0  0  0  0
  192.9870  170.3620  139.0800 C   0  0  0  0  0  1  0  0  0  0  0  0
  194.1020  171.0790  139.7810 C   0  0  0  0  0  3  0  0  0  0  0  0
  195.4970  170.5020  139.3930 C   0  0  0  0  0  1  0  0  0  0  0  0
  1  7  1  0  0  0  0
  2  6  1  0  0  0  0
  2  5  1  0  0  0  0
  4  3  1  1  0  0  0
  5  4  1  0  0  0  0
  6 30  1  6  0  0  0
  6  1  1  0  0  0  0
  7  4  1  0  0  0  0
  7 47  1  6  0  0  0
  9 11  2  0  0  0  0
  9 15  1  0  0  0  0
 10  2  1  0  0  0  0
 10  8  1  0  0  0  0
 11 13  1  0  0  0  0
 12  9  1  0  0  0  0
 13 17  1  0  0  0  0
 13  8  2  0  0  0  0
 14 11  1  0  0  0  0
 15 10  2  0  0  0  0
 17 18  1  0  0  0  0
 17 16  2  0  0  0  0
 19 18  1  0  0  0  0
 20 21  1  0  0  0  0
 20 19  1  0  0  0  0
 23 22  1  0  0  0  0
 24 27  1  0  0  0  0
 24 26  1  0  0  0  0
 25 22  1  0  0  0  0
 25 21  1  1  0  0  0
 26 25  1  0  0  0  0
 27 29  1  6  0  0  0
 27 23  1  0  0  0  0
 28 29  1  0  0  0  0
 31 36  1  0  0  0  0
 32 30  1  0  0  0  0
 33 31  2  0  0  0  0
 33 35  1  0  0  0  0
 34 31  1  0  0  0  0
 35 32  2  0  0  0  0
 36 30  2  0  0  0  0
 37 33  1  0  0  0  0
 38 41  1  0  0  0  0
 38 43  2  0  0  0  0
 39 42  1  0  0  0  0
 40 42  1  0  0  0  0
 41 39  1  0  0  0  0
 42 37  1  6  0  0  0
 43 40  1  0  0  0  0
 44 46  2  0  0  0  0
 46 45  1  0  0  0  0
 46 43  1  0  0  0  0
 48 49  1  6  0  0  0
 48 50  1  0  0  0  0
 49 50  1  0  0  0  0
 50 47  1  0  0  0  0
 51 58  2  0  0  0  0
 51 53  1  0  0  0  0
 52 53  2  0  0  0  0
 53 55  1  0  0  0  0
 54 57  1  0  0  0  0
 56 55  1  1  0  0  0
 56 48  1  0  0  0  0
 57 56  1  0  0  0  0
 58 54  1  0  0  0  0
 59 58  1  0  0  0  0
 60 61  1  0  0  0  0
 61 59  1  0  0  0  0
 62 61  1  0  0  0  0
M  END
>  <MODEL>
7

>  <REMARK>
 VINA RESULT:      -6.0      3.039      9.628
  Name = 
  17 active torsions:
  status: ('A' for Active; 'I' for Inactive)
    1  A    between atoms: C_1  and  N_35
    2  A    between atoms: C_1  and  C_60
    3  A    between atoms: C_2  and  C_49
    4  A    between atoms: C_5  and  C_48
    5  A    between atoms: C_11  and  C_41
    6  A    between atoms: N_14  and  C_17
    7  A    between atoms: N_14  and  C_33
    8  A    between atoms: C_17  and  C_36
    9  A    between atoms: C_18  and  C_29
   10  A    between atoms: N_22  and  C_28
   11  A    between atoms: C_29  and  C_47
   12  A    between atoms: C_33  and  C_52
   13  A    between atoms: C_36  and  C_54
   14  A    between atoms: C_40  and  C_54
   15  A    between atoms: C_41  and  C_62
   16  A    between atoms: C_53  and  C_58
   17  A    between atoms: CA_56  and  C_61
                            x       y       z     vdW  Elec       q    Type
                         _______ _______ _______ _____ _____    ______ ____

>  <TORSDO>
F 17

$$$$
=
 OpenBabel11042416333D

 62 68  0  0  1  0  0  0  0  0999 V2000
  189.1630  175.3520  141.9290 C   0  0  0  0  0  2  0  0  0  0  0  0
  191.6510  175.4460  142.3380 N   0  0  0  0  0  0  0  0  0  0  0  0
  190.2340  178.6740  143.3140 O   0  0  0  0  0  1  0  0  0  0  0  0
  190.3700  177.4900  142.6260 C   0  0  1  0  0  3  0  0  0  0  0  0
  191.3150  176.4790  143.3200 C   0  0  0  0  0  2  0  0  0  0  0  0
  190.5280  174.9830  141.4170 C   0  0  1  0  0  3  0  0  0  0  0  0
  188.9930  176.8710  142.3100 C   0  0  2  0  0  3  0  0  0  0  0  0
  193.8740  174.1560  142.2610 C   0  0  0  0  0  3  0  0  0  0  0  0
  195.2740  176.4010  141.6110 C   0  0  0  0  0  0  0  0  0  0  0  0
  193.0950  175.3630  142.0950 C   0  0  0  0  0  0  0  0  0  0  0  0
  196.0410  175.3000  141.8520 C   0  0  0  0  0  0  0  0  0  0  0  0
  195.8820  177.5300  141.2650 F   0  0  0  0  0  0  0  0  0  0  0  0
  195.2990  174.1730  141.9820 C   0  0  0  0  0  0  0  0  0  0  0  0
  197.5360  175.3600  141.8150 C   0  0  0  0  0  1  0  0  0  0  0  0
  193.8520  176.3920  141.5560 C   0  0  0  0  0  3  0  0  0  0  0  0
  196.0350  172.5280  140.4550 O   0  0  0  0  0  0  0  0  0  0  0  0
  195.9940  172.9280  141.6420 C   0  0  0  0  0  0  0  0  0  0  0  0
  196.3490  171.9910  142.6500 C   0  0  0  0  0  2  0  0  0  0  0  0
  196.2130  170.6270  142.0320 C   0  0  0  0  0  2  0  0  0  0  0  0
  195.0750  169.9790  142.6170 N   0  0  0  0  0  2  0  0  0  0  0  0
  194.0810  169.7560  141.5720 C   0  0  0  0  0  2  0  0  0  0  0  0
  191.5920  169.4730  141.9090 C   0  0  0  0  0  2  0  0  0  0  0  0
  190.4360  170.4860  142.2330 C   0  0  0  0  0  2  0  0  0  0  0  0
  192.0650  171.6360  143.8820 C   0  0  0  0  0  2  0  0  0  0  0  0
  192.8510  170.2000  142.1390 C   0  0  1  0  0  3  0  0  0  0  0  0
  193.0230  170.5350  143.6400 C   0  0  0  0  0  2  0  0  0  0  0  0
  190.6520  171.1390  143.6340 C   0  0  1  0  0  3  0  0  0  0  0  0
  188.3940  172.1250  143.1270 N   0  0  0  0  0  1  0  0  0  0  0  0
  189.6790  172.2870  143.8570 C   0  0  0  0  0  2  0  0  0  0  0  0
  190.5160  173.7400  140.5060 C   0  0  0  0  0  0  0  0  0  0  0  0
  189.2170  172.1850  139.1640 C   0  0  0  0  0  0  0  0  0  0  0  0
  191.6630  173.0260  139.9860 C   0  0  0  0  0  3  0  0  0  0  0  0
  190.2810  171.5060  138.6160 C   0  0  0  0  0  0  0  0  0  0  0  0
  188.1450  172.2580  138.3720 F   0  0  0  0  0  0  0  0  0  0  0  0
  191.4940  171.9870  138.9950 C   0  0  0  0  0  3  0  0  0  0  0  0
  189.3240  173.1990  140.1120 C   0  0  0  0  0  3  0  0  0  0  0  0
  190.0740  170.6120  137.4150 C   0  0  0  0  0  2  0  0  0  0  0  0
  191.0800  174.1660  135.6340 N   0  0  0  0  0  0  0  0  0  0  0  0
  189.5460  172.1990  135.4450 C   0  0  0  0  0  2  0  0  0  0  0  0
  192.0590  171.8380  135.9950 C   0  0  0  0  0  2  0  0  0  0  0  0
  189.6980  173.6560  135.9450 C   0  0  0  0  0  2  0  0  0  0  0  0
  190.5450  171.3040  136.1150 C   0  0  1  0  0  3  0  0  0  0  0  0
  192.2040  173.3820  135.7570 C   0  0  0  0  0  0  0  0  0  0  0  0
  193.7700  175.0330  135.0210 O   0  0  0  0  0  0  0  0  0  0  0  0
  194.6280  173.6010  136.4710 O   0  0  0  0  0  1  0  0  0  0  0  0
  193.5630  174.0700  135.7280 C   0  0  0  0  0  0  0  0  0  0  0  0
  187.8960  177.0860  143.4250 C   0  0  0  0  0  2  0  0  0  0  0  0
  188.3010  176.0700  146.1890 C   0  0  1  0  0  3  0  0  0  0  0  0
  188.0450  177.3560  145.6310 C   0  0  0  0  0  2  0  0  0  0  0  0
  187.9940  176.2200  144.6690 N   0  0  0  0  0  0  0  0  0  0  0  0
  192.8500  176.7870  147.4740 N   0  0  0  0  0  0  0  0  0  0  0  0
  191.7870  177.7340  149.2680 O   0  0  0  0  0  0  0  0  0  0  0  0
  191.5940  177.1630  148.1410 C   0  0  0  0  0  0  0  0  0  0  0  0
  192.2190  175.1880  145.8660 O   0  0  0  0  0  0  0  0  0  0  0  0
  190.2730  176.9750  147.6670 N   0  0  0  0  0  2  0  0  0  0  0  0
  189.7800  175.9670  146.7020 C   0  0  1  0  0  3  0  0  0  0  0  0
  190.7880  174.4550  146.6980 S   0  0  0  0  0  0  0  0  0  0  0  0
  193.1500  176.0220  146.5070 C   0  0  0  0  0  0  0  0  0  0  0  0
  194.5980  175.8580  146.2220 C   0  0  0  0  0  2  0  0  0  0  0  0
  194.4370  173.3050  145.7480 C   0  0  0  0  0  1  0  0  0  0  0  0
  195.2680  174.4880  146.1420 C   0  0  0  0  0  3  0  0  0  0  0  0
  196.6160  174.5370  145.3610 C   0  0  0  0  0  1  0  0  0  0  0  0
  1  7  1  0  0  0  0
  2  5  1  0  0  0  0
  4  3  1  1  0  0  0
  4  5  1  0  0  0  0
  6 30  1  1  0  0  0
  6  1  1  0  0  0  0
  6  2  1  0  0  0  0
  7  4  1  0  0  0  0
  7 47  1  1  0  0  0
  9 11  2  0  0  0  0
 10  8  1  0  0  0  0
 10  2  1  0  0  0  0
 11 13  1  0  0  0  0
 12  9  1  0  0  0  0
 13  8  2  0  0  0  0
 14 11  1  0  0  0  0
 15  9  1  0  0  0  0
 15 10  2  0  0  0  0
 16 17  2  0  0  0  0
 17 13  1  0  0  0  0
 17 18  1  0  0  0  0
 19 20  1  0  0  0  0
 19 18  1  0  0  0  0
 21 20  1  0  0  0  0
 22 25  1  0  0  0  0
 22 23  1  0  0  0  0
 23 27  1  0  0  0  0
 25 21  1  1  0  0  0
 25 26  1  0  0  0  0
 26 24  1  0  0  0  0
 27 29  1  6  0  0  0
 27 24  1  0  0  0  0
 28 29  1  0  0  0  0
 31 36  2  0  0  0  0
 32 30  2  0  0  0  0
 33 35  2  0  0  0  0
 33 31  1  0  0  0  0
 34 31  1  0  0  0  0
 35 32  1  0  0  0  0
 36 30  1  0  0  0  0
 37 33  1  0  0  0  0
 38 43  2  0  0  0  0
 38 41  1  0  0  0  0
 39 41  1  0  0  0  0
 39 42  1  0  0  0  0
 40 42  1  0  0  0  0
 42 37  1  1  0  0  0
 43 40  1  0  0  0  0
 44 46  2  0  0  0  0
 46 43  1  0  0  0  0
 46 45  1  0  0  0  0
 47 50  1  0  0  0  0
 48 49  1  1  0  0  0
 48 56  1  0  0  0  0
 50 49  1  0  0  0  0
 50 48  1  0  0  0  0
 51 53  1  0  0  0  0
 53 52  2  0  0  0  0
 54 58  1  0  0  0  0
 54 57  1  0  0  0  0
 55 53  1  0  0  0  0
 56 57  1  1  0  0  0
 56 55  1  0  0  0  0
 58 51  2  0  0  0  0
 59 58  1  0  0  0  0
 60 61  1  0  0  0  0
 61 59  1  0  0  0  0
 62 61  1  0  0  0  0
M  END
>  <MODEL>
8

>  <REMARK>
 VINA RESULT:      -5.9      3.129      5.628
  Name = 
  17 active torsions:
  status: ('A' for Active; 'I' for Inactive)
    1  A    between atoms: C_1  and  N_35
    2  A    between atoms: C_1  and  C_60
    3  A    between atoms: C_2  and  C_49
    4  A    between atoms: C_5  and  C_48
    5  A    between atoms: C_11  and  C_41
    6  A    between atoms: N_14  and  C_17
    7  A    between atoms: N_14  and  C_33
    8  A    between atoms: C_17  and  C_36
    9  A    between atoms: C_18  and  C_29
   10  A    between atoms: N_22  and  C_28
   11  A    between atoms: C_29  and  C_47
   12  A    between atoms: C_33  and  C_52
   13  A    between atoms: C_36  and  C_54
   14  A    between atoms: C_40  and  C_54
   15  A    between atoms: C_41  and  C_62
   16  A    between atoms: C_53  and  C_58
   17  A    between atoms: CA_56  and  C_61
                            x       y       z     vdW  Elec       q    Type
                         _______ _______ _______ _____ _____    ______ ____

>  <TORSDO>
F 17

$$$$
=
 OpenBabel11042416333D

 62 68  0  0  1  0  0  0  0  0999 V2000
  187.3760  175.9140  140.2170 C   0  0  0  0  0  2  0  0  0  0  0  0
  188.9010  175.4330  142.1690 N   0  0  0  0  0  0  0  0  0  0  0  0
  188.1730  179.0180  142.1750 O   0  0  0  0  0  1  0  0  0  0  0  0
  188.3810  177.7550  141.6720 C   0  0  1  0  0  3  0  0  0  0  0  0
  188.3180  176.6450  142.7500 C   0  0  0  0  0  2  0  0  0  0  0  0
  188.5700  175.1450  140.7080 C   0  0  1  0  0  3  0  0  0  0  0  0
  187.4360  177.4650  140.4880 C   0  0  2  0  0  3  0  0  0  0  0  0
  191.3480  175.6100  142.9390 C   0  0  0  0  0  3  0  0  0  0  0  0
  191.1880  173.2700  144.3270 C   0  0  0  0  0  0  0  0  0  0  0  0
  190.0580  174.9550  142.9330 C   0  0  0  0  0  0  0  0  0  0  0  0
  192.4360  173.8170  144.2710 C   0  0  0  0  0  0  0  0  0  0  0  0
  191.0240  172.1400  145.0040 F   0  0  0  0  0  0  0  0  0  0  0  0
  192.4290  175.0650  143.7400 C   0  0  0  0  0  0  0  0  0  0  0  0
  193.6200  173.1360  144.8820 C   0  0  0  0  0  1  0  0  0  0  0  0
  190.0120  173.9030  143.8340 C   0  0  0  0  0  3  0  0  0  0  0  0
  193.4690  176.5280  145.2750 O   0  0  0  0  0  0  0  0  0  0  0  0
  193.5280  175.9310  144.1740 C   0  0  0  0  0  0  0  0  0  0  0  0
  194.5160  176.3750  143.2530 C   0  0  0  0  0  2  0  0  0  0  0  0
  195.8450  175.9640  143.8220 C   0  0  0  0  0  2  0  0  0  0  0  0
  196.6320  175.3990  142.7640 N   0  0  0  0  0  2  0  0  0  0  0  0
  196.1170  174.0680  142.4620 C   0  0  0  0  0  2  0  0  0  0  0  0
  196.4640  173.9790  139.9600 C   0  0  0  0  0  2  0  0  0  0  0  0
  195.7110  174.6450  138.7520 C   0  0  0  0  0  2  0  0  0  0  0  0
  193.5020  174.1210  139.9930 C   0  0  0  0  0  2  0  0  0  0  0  0
  195.6010  174.1700  141.1370 C   0  0  1  0  0  3  0  0  0  0  0  0
  194.2890  173.3630  140.9900 C   0  0  0  0  0  2  0  0  0  0  0  0
  194.2410  174.1290  138.6670 C   0  0  1  0  0  3  0  0  0  0  0  0
  192.0690  174.4050  137.4310 N   0  0  0  0  0  1  0  0  0  0  0  0
  193.4380  174.9350  137.6580 C   0  0  0  0  0  2  0  0  0  0  0  0
  188.8020  173.8300  139.9380 C   0  0  0  0  0  0  0  0  0  0  0  0
  188.8780  172.6890  137.7940 C   0  0  0  0  0  0  0  0  0  0  0  0
  189.2790  172.5730  140.4760 C   0  0  0  0  0  3  0  0  0  0  0  0
  189.3690  171.4910  138.2590 C   0  0  0  0  0  0  0  0  0  0  0  0
  189.2610  172.9950  136.5520 F   0  0  0  0  0  0  0  0  0  0  0  0
  189.6200  171.4800  139.5940 C   0  0  0  0  0  3  0  0  0  0  0  0
  188.5450  173.7770  138.5970 C   0  0  0  0  0  3  0  0  0  0  0  0
  189.9400  170.4780  137.2930 C   0  0  0  0  0  2  0  0  0  0  0  0
  193.5350  168.9030  136.1040 N   0  0  0  0  0  0  0  0  0  0  0  0
  191.6030  168.5320  137.6500 C   0  0  0  0  0  2  0  0  0  0  0  0
  192.6350  170.9040  137.4070 C   0  0  0  0  0  2  0  0  0  0  0  0
  192.2290  168.1750  136.2810 C   0  0  0  0  0  2  0  0  0  0  0  0
  191.3420  170.0060  137.7420 C   0  0  1  0  0  3  0  0  0  0  0  0
  193.7180  170.2040  136.5120 C   0  0  0  0  0  0  0  0  0  0  0  0
  194.9560  172.1500  135.8810 O   0  0  0  0  0  1  0  0  0  0  0  0
  196.0980  170.2720  135.6370 O   0  0  0  0  0  0  0  0  0  0  0  0
  194.9500  170.9450  136.0100 C   0  0  0  0  0  0  0  0  0  0  0  0
  185.9980  178.1040  140.6160 C   0  0  0  0  0  2  0  0  0  0  0  0
  184.4450  177.8150  143.1330 C   0  0  1  0  0  3  0  0  0  0  0  0
  184.9420  178.9280  142.3950 C   0  0  0  0  0  2  0  0  0  0  0  0
  185.1130  177.6000  141.7430 N   0  0  0  0  0  0  0  0  0  0  0  0
  187.2180  178.2110  147.0070 N   0  0  0  0  0  0  0  0  0  0  0  0
  185.3370  179.2730  147.7680 O   0  0  0  0  0  0  0  0  0  0  0  0
  185.8530  178.6950  146.7520 C   0  0  0  0  0  0  0  0  0  0  0  0
  187.6220  176.6320  145.3100 O   0  0  0  0  0  0  0  0  0  0  0  0
  185.1130  178.5980  145.5490 N   0  0  0  0  0  2  0  0  0  0  0  0
  185.2620  177.6110  144.4560 C   0  0  1  0  0  3  0  0  0  0  0  0
  185.9380  176.0270  145.0370 S   0  0  0  0  0  0  0  0  0  0  0  0
  188.0020  177.4050  146.4180 C   0  0  0  0  0  0  0  0  0  0  0  0
  189.2920  177.1260  147.0990 C   0  0  0  0  0  2  0  0  0  0  0  0
  191.2260  175.5490  147.8380 C   0  0  0  0  0  1  0  0  0  0  0  0
  189.9530  175.7490  147.0710 C   0  0  0  0  0  3  0  0  0  0  0  0
  188.9320  174.6010  147.3310 C   0  0  0  0  0  1  0  0  0  0  0  0
  1  7  1  0  0  0  0
  1  6  1  0  0  0  0
  2  5  1  0  0  0  0
  2 10  1  0  0  0  0
  4  3  1  1  0  0  0
  4  5  1  0  0  0  0
  6 30  1  1  0  0  0
  6  2  1  0  0  0  0
  7 47  1  1  0  0  0
  7  4  1  0  0  0  0
  8 13  1  0  0  0  0
  9 12  1  0  0  0  0
 10  8  2  0  0  0  0
 10 15  1  0  0  0  0
 11  9  1  0  0  0  0
 11 14  1  0  0  0  0
 13 17  1  0  0  0  0
 13 11  2  0  0  0  0
 15  9  2  0  0  0  0
 17 16  2  0  0  0  0
 18 19  1  0  0  0  0
 18 17  1  0  0  0  0
 20 19  1  0  0  0  0
 21 20  1  0  0  0  0
 22 25  1  0  0  0  0
 23 22  1  0  0  0  0
 24 26  1  0  0  0  0
 25 21  1  1  0  0  0
 26 25  1  0  0  0  0
 27 29  1  6  0  0  0
 27 23  1  0  0  0  0
 27 24  1  0  0  0  0
 28 29  1  0  0  0  0
 30 32  1  0  0  0  0
 31 33  2  0  0  0  0
 31 36  1  0  0  0  0
 33 35  1  0  0  0  0
 34 31  1  0  0  0  0
 35 32  2  0  0  0  0
 36 30  2  0  0  0  0
 37 33  1  0  0  0  0
 38 41  1  0  0  0  0
 38 43  2  0  0  0  0
 39 42  1  0  0  0  0
 40 42  1  0  0  0  0
 41 39  1  0  0  0  0
 42 37  1  6  0  0  0
 43 40  1  0  0  0  0
 44 46  1  0  0  0  0
 45 46  2  0  0  0  0
 46 43  1  0  0  0  0
 47 50  1  0  0  0  0
 48 49  1  6  0  0  0
 48 56  1  0  0  0  0
 50 49  1  0  0  0  0
 50 48  1  0  0  0  0
 53 51  1  0  0  0  0
 53 52  2  0  0  0  0
 54 58  1  0  0  0  0
 55 53  1  0  0  0  0
 56 57  1  1  0  0  0
 56 55  1  0  0  0  0
 57 54  1  0  0  0  0
 58 51  2  0  0  0  0
 58 59  1  0  0  0  0
 61 59  1  0  0  0  0
 61 62  1  0  0  0  0
 61 60  1  0  0  0  0
M  END
>  <MODEL>
9

>  <REMARK>
 VINA RESULT:      -5.9      2.587      4.727
  Name = 
  17 active torsions:
  status: ('A' for Active; 'I' for Inactive)
    1  A    between atoms: C_1  and  N_35
    2  A    between atoms: C_1  and  C_60
    3  A    between atoms: C_2  and  C_49
    4  A    between atoms: C_5  and  C_48
    5  A    between atoms: C_11  and  C_41
    6  A    between atoms: N_14  and  C_17
    7  A    between atoms: N_14  and  C_33
    8  A    between atoms: C_17  and  C_36
    9  A    between atoms: C_18  and  C_29
   10  A    between atoms: N_22  and  C_28
   11  A    between atoms: C_29  and  C_47
   12  A    between atoms: C_33  and  C_52
   13  A    between atoms: C_36  and  C_54
   14  A    between atoms: C_40  and  C_54
   15  A    between atoms: C_41  and  C_62
   16  A    between atoms: C_53  and  C_58
   17  A    between atoms: CA_56  and  C_61
                            x       y       z     vdW  Elec       q    Type
                         _______ _______ _______ _____ _____    ______ ____

>  <TORSDO>
F 17

$$$$
