=
 OpenBabel11042418513D

 26 28  0  0  1  0  0  0  0  0999 V2000
  189.1860  175.1470  146.4560 C   0  0  0  0  0  3  0  0  0  0  0  0
  187.5620  176.6050  145.3890 C   0  0  0  0  0  0  0  0  0  0  0  0
  189.8270  174.9310  145.2300 C   0  0  0  0  0  0  0  0  0  0  0  0
  189.3430  175.5730  144.0720 C   0  0  0  0  0  0  0  0  0  0  0  0
  188.0640  175.9730  146.5360 C   0  0  0  0  0  3  0  0  0  0  0  0
  188.2120  176.3990  144.1650 C   0  0  0  0  0  3  0  0  0  0  0  0
  184.1370  179.1250  145.6240 N   0  0  0  0  0  0  0  0  0  0  0  0
  185.3530  177.2240  146.4030 C   0  0  0  0  0  3  0  0  0  0  0  0
  184.2380  178.0620  146.4640 C   0  0  0  0  0  3  0  0  0  0  0  0
  186.3700  177.4830  145.4710 C   0  0  0  0  0  0  0  0  0  0  0  0
  186.2350  178.5900  144.6180 C   0  0  0  0  0  3  0  0  0  0  0  0
  185.1040  179.4040  144.7110 C   0  0  0  0  0  3  0  0  0  0  0  0
  192.4320  175.8490  145.8720 O   0  0  0  0  0  1  0  0  0  0  0  0
  192.2290  174.5230  145.5060 C   0  0  0  0  0  3  0  0  0  0  0  0
  191.0160  174.0500  145.1910 C   0  0  0  0  0  0  0  0  0  0  0  0
  191.8470  172.0570  144.2970 O   0  0  0  0  0  0  0  0  0  0  0  0
  190.8760  172.6830  144.7720 N   0  0  0  0  0  0  0  0  0  0  0  0
  189.6760  172.0280  144.9310 O   0  0  0  0  0  0  0  0  0  0  0  0
  190.0050  175.3980  142.8490 O   0  0  0  0  0  0  0  0  0  0  0  0
  188.6760  173.6160  141.9580 C   0  0  0  0  0  2  0  0  0  0  0  0
  189.9970  173.6520  141.2050 C   0  0  2  0  0  3  0  0  0  0  0  0
  189.3440  174.9420  141.6770 C   0  0  2  0  0  3  0  0  0  0  0  0
  190.8270  173.4320  138.9100 C   0  0  0  0  0  2  0  0  0  0  0  0
  189.7750  173.4670  139.7260 C   0  0  0  0  0  0  0  0  0  0  0  0
  188.4350  173.0970  139.1500 C   0  0  0  0  0  2  0  0  0  0  0  0
  188.0520  173.9780  138.0580 N   0  0  0  0  0  1  0  0  0  0  0  0
  1  5  1  0  0  0  0
  2 10  1  0  0  0  0
  2  5  2  0  0  0  0
  3  1  2  0  0  0  0
  4  6  2  0  0  0  0
  4  3  1  0  0  0  0
  6  2  1  0  0  0  0
  7  9  1  0  0  0  0
  8  9  2  0  0  0  0
 10  8  1  0  0  0  0
 11 12  1  0  0  0  0
 11 10  2  0  0  0  0
 12  7  2  0  0  0  0
 14 13  1  0  0  0  0
 15  3  1  0  0  0  0
 15 14  2  0  0  0  0
 16 17  2  0  0  0  0
 17 18  2  0  0  0  0
 17 15  1  0  0  0  0
 19  4  1  0  0  0  0
 21 24  1  6  0  0  0
 21 22  1  0  0  0  0
 21 20  1  0  0  0  0
 22 20  1  0  0  0  0
 22 19  1  1  0  0  0
 23 24  2  0  0  0  0
 25 24  1  0  0  0  0
 26 25  1  0  0  0  0
M  END
>  <MODEL>
1

>  <REMARK>
 VINA RESULT:      -6.4      0.000      0.000
  Name = 
  7 active torsions:
  status: ('A' for Active; 'I' for Inactive)
    1  A    between atoms: C_2  and  C_19
    2  A    between atoms: C_3  and  C_26
    3  A    between atoms: C_6  and  O_18
    4  A    between atoms: C_8  and  C_14
    5  A    between atoms: C_8  and  C_22
    6  A    between atoms: N_10  and  C_26
    7  A    between atoms: O_18  and  C_24
                            x       y       z     vdW  Elec       q    Type
                         _______ _______ _______ _____ _____    ______ ____

>  <TORSDO>
F 7

$$$$
=
 OpenBabel11042418513D

 26 28  0  0  1  0  0  0  0  0999 V2000
  189.2490  175.0790  146.3940 C   0  0  0  0  0  3  0  0  0  0  0  0
  187.6120  176.5480  145.3620 C   0  0  0  0  0  0  0  0  0  0  0  0
  189.8670  174.8660  145.1550 C   0  0  0  0  0  0  0  0  0  0  0  0
  189.3660  175.5140  144.0090 C   0  0  0  0  0  0  0  0  0  0  0  0
  188.1320  175.9090  146.4970 C   0  0  0  0  0  3  0  0  0  0  0  0
  188.2400  176.3440  144.1250 C   0  0  0  0  0  3  0  0  0  0  0  0
  184.2050  179.0850  145.6660 N   0  0  0  0  0  0  0  0  0  0  0  0
  186.3040  178.5660  144.6520 C   0  0  0  0  0  3  0  0  0  0  0  0
  185.1790  179.3860  144.7660 C   0  0  0  0  0  3  0  0  0  0  0  0
  186.4260  177.4300  145.4680 C   0  0  0  0  0  0  0  0  0  0  0  0
  185.4020  177.1490  146.3860 C   0  0  0  0  0  3  0  0  0  0  0  0
  184.2930  177.9940  146.4710 C   0  0  0  0  0  3  0  0  0  0  0  0
  189.6770  172.0850  144.6290 O   0  0  0  0  0  1  0  0  0  0  0  0
  190.9190  172.6740  144.8360 C   0  0  0  0  0  3  0  0  0  0  0  0
  191.0530  173.9810  145.0920 C   0  0  0  0  0  0  0  0  0  0  0  0
  193.2810  173.7960  145.7740 O   0  0  0  0  0  0  0  0  0  0  0  0
  192.3590  174.5230  145.3480 N   0  0  0  0  0  0  0  0  0  0  0  0
  192.6260  175.8470  145.0830 O   0  0  0  0  0  0  0  0  0  0  0  0
  190.0050  175.3420  142.7740 O   0  0  0  0  0  0  0  0  0  0  0  0
  188.6510  173.6140  141.8170 C   0  0  0  0  0  2  0  0  0  0  0  0
  189.9480  173.6980  141.0280 C   0  0  2  0  0  3  0  0  0  0  0  0
  189.3090  174.9560  141.5970 C   0  0  2  0  0  3  0  0  0  0  0  0
  190.7100  173.5230  138.7060 C   0  0  0  0  0  2  0  0  0  0  0  0
  189.6810  173.6020  139.5480 C   0  0  0  0  0  0  0  0  0  0  0  0
  188.3050  173.3670  138.9890 C   0  0  0  0  0  2  0  0  0  0  0  0
  187.8920  174.4380  138.0950 N   0  0  0  0  0  1  0  0  0  0  0  0
  1  5  1  0  0  0  0
  2 10  1  0  0  0  0
  2  5  2  0  0  0  0
  3  1  2  0  0  0  0
  4  6  2  0  0  0  0
  4  3  1  0  0  0  0
  6  2  1  0  0  0  0
  7 12  1  0  0  0  0
  8  9  1  0  0  0  0
  8 10  2  0  0  0  0
  9  7  2  0  0  0  0
 10 11  1  0  0  0  0
 11 12  2  0  0  0  0
 13 14  1  0  0  0  0
 14 15  2  0  0  0  0
 15  3  1  0  0  0  0
 15 17  1  0  0  0  0
 17 16  2  0  0  0  0
 18 17  2  0  0  0  0
 19  4  1  0  0  0  0
 21 24  1  6  0  0  0
 21 22  1  0  0  0  0
 21 20  1  0  0  0  0
 22 20  1  0  0  0  0
 22 19  1  1  0  0  0
 23 24  2  0  0  0  0
 25 24  1  0  0  0  0
 26 25  1  0  0  0  0
M  END
>  <MODEL>
2

>  <REMARK>
 VINA RESULT:      -6.3      0.742      1.850
  Name = 
  7 active torsions:
  status: ('A' for Active; 'I' for Inactive)
    1  A    between atoms: C_2  and  C_19
    2  A    between atoms: C_3  and  C_26
    3  A    between atoms: C_6  and  O_18
    4  A    between atoms: C_8  and  C_14
    5  A    between atoms: C_8  and  C_22
    6  A    between atoms: N_10  and  C_26
    7  A    between atoms: O_18  and  C_24
                            x       y       z     vdW  Elec       q    Type
                         _______ _______ _______ _____ _____    ______ ____

>  <TORSDO>
F 7

$$$$
=
 OpenBabel11042418513D

 26 28  0  0  1  0  0  0  0  0999 V2000
  189.9990  174.1550  144.1330 C   0  0  0  0  0  3  0  0  0  0  0  0
  189.1300  174.3040  141.8690 C   0  0  0  0  0  0  0  0  0  0  0  0
  189.3820  175.3660  144.4700 C   0  0  0  0  0  0  0  0  0  0  0  0
  188.6140  176.0460  143.5040 C   0  0  0  0  0  0  0  0  0  0  0  0
  189.8770  173.6300  142.8450 C   0  0  0  0  0  3  0  0  0  0  0  0
  188.5020  175.5090  142.2120 C   0  0  0  0  0  3  0  0  0  0  0  0
  188.7550  172.7060  137.9390 N   0  0  0  0  0  0  0  0  0  0  0  0
  189.5560  172.5010  140.1790 C   0  0  0  0  0  3  0  0  0  0  0  0
  189.4220  171.9940  138.8850 C   0  0  0  0  0  3  0  0  0  0  0  0
  188.9980  173.7480  140.5010 C   0  0  0  0  0  0  0  0  0  0  0  0
  188.3160  174.4580  139.5010 C   0  0  0  0  0  3  0  0  0  0  0  0
  188.2040  173.9170  138.2180 C   0  0  0  0  0  3  0  0  0  0  0  0
  191.5480  177.0220  145.2530 O   0  0  0  0  0  1  0  0  0  0  0  0
  190.5700  176.6680  146.1750 C   0  0  0  0  0  3  0  0  0  0  0  0
  189.5340  175.8850  145.8480 C   0  0  0  0  0  0  0  0  0  0  0  0
  187.5040  176.1330  146.9800 O   0  0  0  0  0  0  0  0  0  0  0  0
  188.5810  175.5130  146.8580 N   0  0  0  0  0  0  0  0  0  0  0  0
  188.8240  174.4350  147.6780 O   0  0  0  0  0  0  0  0  0  0  0  0
  187.9560  177.2350  143.8450 O   0  0  0  0  0  0  0  0  0  0  0  0
  186.4610  178.6730  142.6490 C   0  0  0  0  0  2  0  0  0  0  0  0
  186.1680  178.8070  144.1360 C   0  0  2  0  0  3  0  0  0  0  0  0
  186.5860  177.4670  143.5500 C   0  0  2  0  0  3  0  0  0  0  0  0
  183.8470  178.6670  143.3630 C   0  0  0  0  0  2  0  0  0  0  0  0
  184.6830  178.8240  144.3880 C   0  0  0  0  0  0  0  0  0  0  0  0
  184.0980  178.7890  145.7740 C   0  0  0  0  0  2  0  0  0  0  0  0
  184.5000  177.5950  146.5020 N   0  0  0  0  0  1  0  0  0  0  0  0
  1  3  1  0  0  0  0
  2  6  2  0  0  0  0
  2  5  1  0  0  0  0
  3 15  1  0  0  0  0
  4 19  1  0  0  0  0
  4  3  2  0  0  0  0
  5  1  2  0  0  0  0
  6  4  1  0  0  0  0
  7 12  2  0  0  0  0
  7  9  1  0  0  0  0
  8 10  1  0  0  0  0
  9  8  2  0  0  0  0
 10  2  1  0  0  0  0
 11 10  2  0  0  0  0
 12 11  1  0  0  0  0
 13 14  1  0  0  0  0
 15 14  2  0  0  0  0
 15 17  1  0  0  0  0
 17 16  2  0  0  0  0
 17 18  2  0  0  0  0
 20 22  1  0  0  0  0
 20 21  1  0  0  0  0
 21 24  1  6  0  0  0
 22 19  1  1  0  0  0
 22 21  1  0  0  0  0
 23 24  2  0  0  0  0
 24 25  1  0  0  0  0
 25 26  1  0  0  0  0
M  END
>  <MODEL>
3

>  <REMARK>
 VINA RESULT:      -6.1      2.081      6.548
  Name = 
  7 active torsions:
  status: ('A' for Active; 'I' for Inactive)
    1  A    between atoms: C_2  and  C_19
    2  A    between atoms: C_3  and  C_26
    3  A    between atoms: C_6  and  O_18
    4  A    between atoms: C_8  and  C_14
    5  A    between atoms: C_8  and  C_22
    6  A    between atoms: N_10  and  C_26
    7  A    between atoms: O_18  and  C_24
                            x       y       z     vdW  Elec       q    Type
                         _______ _______ _______ _____ _____    ______ ____

>  <TORSDO>
F 7

$$$$
=
 OpenBabel11042418513D

 26 28  0  0  1  0  0  0  0  0999 V2000
  190.3380  177.1620  145.4880 C   0  0  0  0  0  3  0  0  0  0  0  0
  187.9390  177.1180  145.1090 C   0  0  0  0  0  0  0  0  0  0  0  0
  190.4990  175.9950  144.7310 C   0  0  0  0  0  0  0  0  0  0  0  0
  189.3710  175.3910  144.1390 C   0  0  0  0  0  0  0  0  0  0  0  0
  189.0720  177.7170  145.6780 C   0  0  0  0  0  3  0  0  0  0  0  0
  188.1030  175.9580  144.3410 C   0  0  0  0  0  3  0  0  0  0  0  0
  184.0700  178.8030  145.6850 N   0  0  0  0  0  0  0  0  0  0  0  0
  185.7130  177.1690  146.2630 C   0  0  0  0  0  3  0  0  0  0  0  0
  184.4480  177.7350  146.4370 C   0  0  0  0  0  3  0  0  0  0  0  0
  186.5930  177.7060  145.3090 C   0  0  0  0  0  0  0  0  0  0  0  0
  186.1710  178.8070  144.5500 C   0  0  0  0  0  3  0  0  0  0  0  0
  184.8980  179.3450  144.7530 C   0  0  0  0  0  3  0  0  0  0  0  0
  192.2250  176.8270  142.6390 O   0  0  0  0  0  1  0  0  0  0  0  0
  192.6450  175.8660  143.5520 C   0  0  0  0  0  3  0  0  0  0  0  0
  191.8610  175.4420  144.5510 C   0  0  0  0  0  0  0  0  0  0  0  0
  192.6700  174.6780  146.6060 O   0  0  0  0  0  0  0  0  0  0  0  0
  192.3320  174.4110  145.4330 N   0  0  0  0  0  0  0  0  0  0  0  0
  192.3750  173.1020  145.0100 O   0  0  0  0  0  0  0  0  0  0  0  0
  189.5280  174.2490  143.3430 O   0  0  0  0  0  0  0  0  0  0  0  0
  188.0600  173.0140  141.9100 C   0  0  0  0  0  2  0  0  0  0  0  0
  189.4830  172.8510  141.3950 C   0  0  2  0  0  3  0  0  0  0  0  0
  189.0330  174.1650  142.0140 C   0  0  2  0  0  3  0  0  0  0  0  0
  190.7050  172.9980  139.2770 C   0  0  0  0  0  2  0  0  0  0  0  0
  189.5250  172.9700  139.8940 C   0  0  0  0  0  0  0  0  0  0  0  0
  188.2960  172.8360  139.0370 C   0  0  0  0  0  2  0  0  0  0  0  0
  188.0690  174.0210  138.2240 N   0  0  0  0  0  1  0  0  0  0  0  0
  1  5  1  0  0  0  0
  2 10  1  0  0  0  0
  2  5  2  0  0  0  0
  3  1  2  0  0  0  0
  4  6  2  0  0  0  0
  4  3  1  0  0  0  0
  6  2  1  0  0  0  0
  7  9  1  0  0  0  0
  8  9  2  0  0  0  0
 10  8  1  0  0  0  0
 11 12  1  0  0  0  0
 11 10  2  0  0  0  0
 12  7  2  0  0  0  0
 13 14  1  0  0  0  0
 14 15  2  0  0  0  0
 15  3  1  0  0  0  0
 15 17  1  0  0  0  0
 17 16  2  0  0  0  0
 18 17  2  0  0  0  0
 19  4  1  0  0  0  0
 20 22  1  0  0  0  0
 21 24  1  6  0  0  0
 21 20  1  0  0  0  0
 21 22  1  0  0  0  0
 22 19  1  1  0  0  0
 23 24  2  0  0  0  0
 25 24  1  0  0  0  0
 26 25  1  0  0  0  0
M  END
>  <MODEL>
4

>  <REMARK>
 VINA RESULT:      -6.1      1.255      1.601
  Name = 
  7 active torsions:
  status: ('A' for Active; 'I' for Inactive)
    1  A    between atoms: C_2  and  C_19
    2  A    between atoms: C_3  and  C_26
    3  A    between atoms: C_6  and  O_18
    4  A    between atoms: C_8  and  C_14
    5  A    between atoms: C_8  and  C_22
    6  A    between atoms: N_10  and  C_26
    7  A    between atoms: O_18  and  C_24
                            x       y       z     vdW  Elec       q    Type
                         _______ _______ _______ _____ _____    ______ ____

>  <TORSDO>
F 7

$$$$
=
 OpenBabel11042418513D

 26 28  0  0  1  0  0  0  0  0999 V2000
  187.7340  174.8280  142.0800 C   0  0  0  0  0  3  0  0  0  0  0  0
  187.2660  176.2420  144.0000 C   0  0  0  0  0  0  0  0  0  0  0  0
  188.9440  174.4170  142.6530 C   0  0  0  0  0  0  0  0  0  0  0  0
  189.3120  174.9070  143.9220 C   0  0  0  0  0  0  0  0  0  0  0  0
  186.9050  175.7330  142.7440 C   0  0  0  0  0  3  0  0  0  0  0  0
  188.4710  175.8190  144.5780 C   0  0  0  0  0  3  0  0  0  0  0  0
  184.7430  179.0050  146.0320 N   0  0  0  0  0  0  0  0  0  0  0  0
  186.3160  178.5440  144.2960 C   0  0  0  0  0  3  0  0  0  0  0  0
  185.4830  179.4350  144.9760 C   0  0  0  0  0  3  0  0  0  0  0  0
  186.3870  177.2030  144.7070 C   0  0  0  0  0  0  0  0  0  0  0  0
  185.6100  176.7930  145.8010 C   0  0  0  0  0  3  0  0  0  0  0  0
  184.7890  177.7150  146.4550 C   0  0  0  0  0  3  0  0  0  0  0  0
  188.8990  171.6290  143.1750 O   0  0  0  0  0  1  0  0  0  0  0  0
  189.7360  172.1420  142.1910 C   0  0  0  0  0  3  0  0  0  0  0  0
  189.7920  173.4520  141.9160 C   0  0  0  0  0  0  0  0  0  0  0  0
  191.7460  174.5510  141.2540 O   0  0  0  0  0  0  0  0  0  0  0  0
  190.7140  173.9290  140.9230 N   0  0  0  0  0  0  0  0  0  0  0  0
  190.4940  173.6690  139.5900 O   0  0  0  0  0  0  0  0  0  0  0  0
  190.4990  174.4660  144.5230 O   0  0  0  0  0  0  0  0  0  0  0  0
  192.8830  174.5510  144.7290 C   0  0  0  0  0  2  0  0  0  0  0  0
  192.2730  174.8980  146.0780 C   0  0  2  0  0  3  0  0  0  0  0  0
  191.5920  175.3340  144.7900 C   0  0  2  0  0  3  0  0  0  0  0  0
  192.3650  176.7940  147.6280 C   0  0  0  0  0  2  0  0  0  0  0  0
  192.9920  176.0630  146.7070 C   0  0  0  0  0  0  0  0  0  0  0  0
  194.4620  176.3090  146.5060 C   0  0  0  0  0  2  0  0  0  0  0  0
  194.7130  177.5470  145.7850 N   0  0  0  0  0  1  0  0  0  0  0  0
  1  3  2  0  0  0  0
  1  5  1  0  0  0  0
  2  6  1  0  0  0  0
  2 10  1  0  0  0  0
  3  4  1  0  0  0  0
  4 19  1  0  0  0  0
  4  6  2  0  0  0  0
  5  2  2  0  0  0  0
  7 12  1  0  0  0  0
  8 10  2  0  0  0  0
  8  9  1  0  0  0  0
  9  7  2  0  0  0  0
 10 11  1  0  0  0  0
 11 12  2  0  0  0  0
 14 13  1  0  0  0  0
 15 14  2  0  0  0  0
 15  3  1  0  0  0  0
 17 16  2  0  0  0  0
 17 15  1  0  0  0  0
 18 17  2  0  0  0  0
 20 22  1  0  0  0  0
 20 21  1  0  0  0  0
 21 24  1  1  0  0  0
 22 19  1  6  0  0  0
 22 21  1  0  0  0  0
 24 23  2  0  0  0  0
 25 24  1  0  0  0  0
 26 25  1  0  0  0  0
M  END
>  <MODEL>
5

>  <REMARK>
 VINA RESULT:      -6.1      2.194      5.032
  Name = 
  7 active torsions:
  status: ('A' for Active; 'I' for Inactive)
    1  A    between atoms: C_2  and  C_19
    2  A    between atoms: C_3  and  C_26
    3  A    between atoms: C_6  and  O_18
    4  A    between atoms: C_8  and  C_14
    5  A    between atoms: C_8  and  C_22
    6  A    between atoms: N_10  and  C_26
    7  A    between atoms: O_18  and  C_24
                            x       y       z     vdW  Elec       q    Type
                         _______ _______ _______ _____ _____    ______ ____

>  <TORSDO>
F 7

$$$$
=
 OpenBabel11042418513D

 26 28  0  0  1  0  0  0  0  0999 V2000
  188.3120  174.7180  142.3540 C   0  0  0  0  0  3  0  0  0  0  0  0
  187.7510  176.4480  143.9660 C   0  0  0  0  0  0  0  0  0  0  0  0
  189.3830  174.2950  143.1510 C   0  0  0  0  0  0  0  0  0  0  0  0
  189.6310  174.9410  144.3790 C   0  0  0  0  0  0  0  0  0  0  0  0
  187.5060  175.7850  142.7540 C   0  0  0  0  0  3  0  0  0  0  0  0
  188.8150  176.0140  144.7690 C   0  0  0  0  0  3  0  0  0  0  0  0
  185.2940  179.7000  145.1980 N   0  0  0  0  0  0  0  0  0  0  0  0
  186.5650  177.7550  145.7470 C   0  0  0  0  0  3  0  0  0  0  0  0
  185.7590  178.8280  146.1310 C   0  0  0  0  0  3  0  0  0  0  0  0
  186.8970  177.5800  144.3940 C   0  0  0  0  0  0  0  0  0  0  0  0
  186.4000  178.4990  143.4560 C   0  0  0  0  0  3  0  0  0  0  0  0
  185.5960  179.5590  143.8810 C   0  0  0  0  0  3  0  0  0  0  0  0
  191.6150  174.6220  141.4320 O   0  0  0  0  0  1  0  0  0  0  0  0
  191.2590  173.3560  141.8820 C   0  0  0  0  0  3  0  0  0  0  0  0
  190.2100  173.1570  142.6900 C   0  0  0  0  0  0  0  0  0  0  0  0
  190.1360  170.8460  142.3490 O   0  0  0  0  0  0  0  0  0  0  0  0
  189.8600  171.8190  143.0820 N   0  0  0  0  0  0  0  0  0  0  0  0
  189.2550  171.5870  144.2950 O   0  0  0  0  0  0  0  0  0  0  0  0
  190.6720  174.4960  145.2040 O   0  0  0  0  0  0  0  0  0  0  0  0
  192.9080  173.6390  145.2590 C   0  0  0  0  0  2  0  0  0  0  0  0
  192.7950  174.7530  146.2900 C   0  0  2  0  0  3  0  0  0  0  0  0
  192.0320  174.8380  144.9770 C   0  0  2  0  0  3  0  0  0  0  0  0
  193.9440  176.8560  146.8000 C   0  0  0  0  0  2  0  0  0  0  0  0
  194.0080  175.6460  146.2460 C   0  0  0  0  0  0  0  0  0  0  0  0
  195.3580  175.1550  145.8020 C   0  0  0  0  0  2  0  0  0  0  0  0
  195.7750  175.7700  144.5510 N   0  0  0  0  0  1  0  0  0  0  0  0
  1  5  2  0  0  0  0
  1  3  1  0  0  0  0
  2 10  1  0  0  0  0
  2  6  2  0  0  0  0
  3  4  2  0  0  0  0
  4  6  1  0  0  0  0
  4 19  1  0  0  0  0
  5  2  1  0  0  0  0
  7  9  1  0  0  0  0
  8  9  2  0  0  0  0
 10  8  1  0  0  0  0
 11 12  1  0  0  0  0
 11 10  2  0  0  0  0
 12  7  2  0  0  0  0
 13 14  1  0  0  0  0
 14 15  2  0  0  0  0
 15 17  1  0  0  0  0
 15  3  1  0  0  0  0
 16 17  2  0  0  0  0
 17 18  2  0  0  0  0
 20 21  1  0  0  0  0
 21 24  1  6  0  0  0
 22 19  1  1  0  0  0
 22 20  1  0  0  0  0
 22 21  1  0  0  0  0
 24 23  2  0  0  0  0
 25 24  1  0  0  0  0
 26 25  1  0  0  0  0
M  END
>  <MODEL>
6

>  <REMARK>
 VINA RESULT:      -5.9      2.084      4.596
  Name = 
  7 active torsions:
  status: ('A' for Active; 'I' for Inactive)
    1  A    between atoms: C_2  and  C_19
    2  A    between atoms: C_3  and  C_26
    3  A    between atoms: C_6  and  O_18
    4  A    between atoms: C_8  and  C_14
    5  A    between atoms: C_8  and  C_22
    6  A    between atoms: N_10  and  C_26
    7  A    between atoms: O_18  and  C_24
                            x       y       z     vdW  Elec       q    Type
                         _______ _______ _______ _____ _____    ______ ____

>  <TORSDO>
F 7

$$$$
=
 OpenBabel11042418513D

 26 28  0  0  1  0  0  0  0  0999 V2000
  187.4560  174.7330  142.1380 C   0  0  0  0  0  3  0  0  0  0  0  0
  187.3500  176.5980  143.6920 C   0  0  0  0  0  0  0  0  0  0  0  0
  188.8130  174.5430  142.4280 C   0  0  0  0  0  0  0  0  0  0  0  0
  189.4430  175.3750  143.3750 C   0  0  0  0  0  0  0  0  0  0  0  0
  186.7320  175.7510  142.7600 C   0  0  0  0  0  3  0  0  0  0  0  0
  188.7040  176.3970  143.9910 C   0  0  0  0  0  3  0  0  0  0  0  0
  185.1460  179.7030  145.5980 N   0  0  0  0  0  0  0  0  0  0  0  0
  186.3530  177.6470  145.7390 C   0  0  0  0  0  3  0  0  0  0  0  0
  185.6280  178.6750  146.3460 C   0  0  0  0  0  3  0  0  0  0  0  0
  186.5830  177.6790  144.3550 C   0  0  0  0  0  0  0  0  0  0  0  0
  186.0720  178.7550  143.6120 C   0  0  0  0  0  3  0  0  0  0  0  0
  185.3520  179.7630  144.2570 C   0  0  0  0  0  3  0  0  0  0  0  0
  188.9650  171.9150  143.4870 O   0  0  0  0  0  1  0  0  0  0  0  0
  189.5860  172.2200  142.2800 C   0  0  0  0  0  3  0  0  0  0  0  0
  189.5420  173.4480  141.7480 C   0  0  0  0  0  0  0  0  0  0  0  0
  191.4840  173.8740  140.5200 O   0  0  0  0  0  0  0  0  0  0  0  0
  190.2450  173.7150  140.5240 N   0  0  0  0  0  0  0  0  0  0  0  0
  189.5660  173.7560  139.3280 O   0  0  0  0  0  0  0  0  0  0  0  0
  190.7880  175.1640  143.7050 O   0  0  0  0  0  0  0  0  0  0  0  0
  192.9840  176.0690  144.0120 C   0  0  0  0  0  2  0  0  0  0  0  0
  192.5870  175.3330  145.2830 C   0  0  2  0  0  3  0  0  0  0  0  0
  191.5450  176.0890  144.4720 C   0  0  2  0  0  3  0  0  0  0  0  0
  194.1680  176.7160  146.5430 C   0  0  0  0  0  2  0  0  0  0  0  0
  192.9740  176.1260  146.5040 C   0  0  0  0  0  0  0  0  0  0  0  0
  191.9910  176.4710  147.5880 C   0  0  0  0  0  2  0  0  0  0  0  0
  191.1960  175.3200  147.9870 N   0  0  0  0  0  1  0  0  0  0  0  0
  1  3  2  0  0  0  0
  1  5  1  0  0  0  0
  2  6  1  0  0  0  0
  2 10  1  0  0  0  0
  3  4  1  0  0  0  0
  4 19  1  0  0  0  0
  4  6  2  0  0  0  0
  5  2  2  0  0  0  0
  7  9  1  0  0  0  0
  8  9  2  0  0  0  0
 10  8  1  0  0  0  0
 11 12  1  0  0  0  0
 11 10  2  0  0  0  0
 12  7  2  0  0  0  0
 14 13  1  0  0  0  0
 15 14  2  0  0  0  0
 15  3  1  0  0  0  0
 16 17  2  0  0  0  0
 17 15  1  0  0  0  0
 18 17  2  0  0  0  0
 20 22  1  0  0  0  0
 20 21  1  0  0  0  0
 21 24  1  1  0  0  0
 22 19  1  6  0  0  0
 22 21  1  0  0  0  0
 24 23  2  0  0  0  0
 24 25  1  0  0  0  0
 25 26  1  0  0  0  0
M  END
>  <MODEL>
7

>  <REMARK>
 VINA RESULT:      -5.9      2.050      4.883
  Name = 
  7 active torsions:
  status: ('A' for Active; 'I' for Inactive)
    1  A    between atoms: C_2  and  C_19
    2  A    between atoms: C_3  and  C_26
    3  A    between atoms: C_6  and  O_18
    4  A    between atoms: C_8  and  C_14
    5  A    between atoms: C_8  and  C_22
    6  A    between atoms: N_10  and  C_26
    7  A    between atoms: O_18  and  C_24
                            x       y       z     vdW  Elec       q    Type
                         _______ _______ _______ _____ _____    ______ ____

>  <TORSDO>
F 7

$$$$
=
 OpenBabel11042418513D

 26 28  0  0  1  0  0  0  0  0999 V2000
  188.2410  175.9380  143.4800 C   0  0  0  0  0  3  0  0  0  0  0  0
  189.0190  174.3580  141.8060 C   0  0  0  0  0  0  0  0  0  0  0  0
  189.2000  175.4770  144.3900 C   0  0  0  0  0  0  0  0  0  0  0  0
  190.0930  174.4580  144.0000 C   0  0  0  0  0  0  0  0  0  0  0  0
  188.1490  175.3840  142.2020 C   0  0  0  0  0  3  0  0  0  0  0  0
  189.9870  173.9060  142.7140 C   0  0  0  0  0  3  0  0  0  0  0  0
  188.7420  172.6630  137.9100 N   0  0  0  0  0  0  0  0  0  0  0  0
  188.2710  174.4550  139.4150 C   0  0  0  0  0  3  0  0  0  0  0  0
  188.1900  173.8830  138.1440 C   0  0  0  0  0  3  0  0  0  0  0  0
  188.9240  173.7680  140.4500 C   0  0  0  0  0  0  0  0  0  0  0  0
  189.4830  172.5100  140.1740 C   0  0  0  0  0  3  0  0  0  0  0  0
  189.3810  171.9720  138.8900 C   0  0  0  0  0  3  0  0  0  0  0  0
  190.8400  177.7190  144.9640 O   0  0  0  0  0  1  0  0  0  0  0  0
  190.0510  177.1570  145.9610 C   0  0  0  0  0  3  0  0  0  0  0  0
  189.2660  176.0950  145.7330 C   0  0  0  0  0  0  0  0  0  0  0  0
  188.9430  174.5400  147.4480 O   0  0  0  0  0  0  0  0  0  0  0  0
  188.5110  175.5270  146.8160 N   0  0  0  0  0  0  0  0  0  0  0  0
  187.3180  176.0930  147.2020 O   0  0  0  0  0  0  0  0  0  0  0  0
  191.0840  174.0210  144.8880 O   0  0  0  0  0  0  0  0  0  0  0  0
  193.3150  173.2700  145.3280 C   0  0  0  0  0  2  0  0  0  0  0  0
  193.0770  174.5510  146.1120 C   0  0  2  0  0  3  0  0  0  0  0  0
  192.4550  174.3620  144.7370 C   0  0  2  0  0  3  0  0  0  0  0  0
  194.1890  176.6970  146.5150 C   0  0  0  0  0  2  0  0  0  0  0  0
  194.2740  175.4630  146.0210 C   0  0  0  0  0  0  0  0  0  0  0  0
  195.6320  174.9750  145.5980 C   0  0  0  0  0  2  0  0  0  0  0  0
  196.0570  175.5730  144.3420 N   0  0  0  0  0  1  0  0  0  0  0  0
  1  3  1  0  0  0  0
  2  5  1  0  0  0  0
  2  6  2  0  0  0  0
  3 15  1  0  0  0  0
  4  3  2  0  0  0  0
  4 19  1  0  0  0  0
  5  1  2  0  0  0  0
  6  4  1  0  0  0  0
  7  9  2  0  0  0  0
  7 12  1  0  0  0  0
  8 10  2  0  0  0  0
  9  8  1  0  0  0  0
 10  2  1  0  0  0  0
 11 10  1  0  0  0  0
 12 11  2  0  0  0  0
 13 14  1  0  0  0  0
 15 14  2  0  0  0  0
 15 17  1  0  0  0  0
 17 18  2  0  0  0  0
 17 16  2  0  0  0  0
 20 21  1  0  0  0  0
 21 24  1  6  0  0  0
 22 19  1  1  0  0  0
 22 20  1  0  0  0  0
 22 21  1  0  0  0  0
 24 23  2  0  0  0  0
 25 24  1  0  0  0  0
 26 25  1  0  0  0  0
M  END
>  <MODEL>
8

>  <REMARK>
 VINA RESULT:      -5.8      2.716      6.536
  Name = 
  7 active torsions:
  status: ('A' for Active; 'I' for Inactive)
    1  A    between atoms: C_2  and  C_19
    2  A    between atoms: C_3  and  C_26
    3  A    between atoms: C_6  and  O_18
    4  A    between atoms: C_8  and  C_14
    5  A    between atoms: C_8  and  C_22
    6  A    between atoms: N_10  and  C_26
    7  A    between atoms: O_18  and  C_24
                            x       y       z     vdW  Elec       q    Type
                         _______ _______ _______ _____ _____    ______ ____

>  <TORSDO>
F 7

$$$$
=
 OpenBabel11042418513D

 26 28  0  0  1  0  0  0  0  0999 V2000
  188.3120  177.3140  145.8490 C   0  0  0  0  0  3  0  0  0  0  0  0
  187.2400  177.1300  143.6770 C   0  0  0  0  0  0  0  0  0  0  0  0
  189.2380  176.3240  145.4980 C   0  0  0  0  0  0  0  0  0  0  0  0
  189.1770  175.7410  144.2160 C   0  0  0  0  0  0  0  0  0  0  0  0
  187.3220  177.7130  144.9500 C   0  0  0  0  0  3  0  0  0  0  0  0
  188.1750  176.1480  143.3220 C   0  0  0  0  0  3  0  0  0  0  0  0
  184.2190  178.3380  140.9290 N   0  0  0  0  0  0  0  0  0  0  0  0
  184.8710  177.7660  143.1530 C   0  0  0  0  0  3  0  0  0  0  0  0
  183.8950  178.1620  142.2370 C   0  0  0  0  0  3  0  0  0  0  0  0
  186.1890  177.5510  142.7200 C   0  0  0  0  0  0  0  0  0  0  0  0
  186.4900  177.7420  141.3620 C   0  0  0  0  0  3  0  0  0  0  0  0
  185.4850  178.1380  140.4770 C   0  0  0  0  0  3  0  0  0  0  0  0
  188.7660  174.4230  147.5500 O   0  0  0  0  0  1  0  0  0  0  0  0
  190.0110  175.0290  147.4310 C   0  0  0  0  0  3  0  0  0  0  0  0
  190.2740  175.9340  146.4800 C   0  0  0  0  0  0  0  0  0  0  0  0
  192.2470  176.6930  147.4780 O   0  0  0  0  0  0  0  0  0  0  0  0
  191.5660  176.5640  146.4390 N   0  0  0  0  0  0  0  0  0  0  0  0
  192.0900  176.9950  145.2420 O   0  0  0  0  0  0  0  0  0  0  0  0
  190.1260  174.7810  143.8400 O   0  0  0  0  0  0  0  0  0  0  0  0
  190.0960  172.4010  144.1040 C   0  0  0  0  0  2  0  0  0  0  0  0
  191.0320  172.7440  142.9550 C   0  0  2  0  0  3  0  0  0  0  0  0
  189.7740  173.5650  143.1960 C   0  0  2  0  0  3  0  0  0  0  0  0
  190.4550  170.5450  142.0420 C   0  0  0  0  0  2  0  0  0  0  0  0
  190.8250  171.8010  141.7980 C   0  0  0  0  0  0  0  0  0  0  0  0
  190.8010  172.2690  140.3690 C   0  0  0  0  0  2  0  0  0  0  0  0
  189.4830  172.1180  139.7710 N   0  0  0  0  0  1  0  0  0  0  0  0
  2  5  1  0  0  0  0
  3  1  1  0  0  0  0
  3 15  1  0  0  0  0
  4  3  2  0  0  0  0
  5  1  2  0  0  0  0
  6  2  2  0  0  0  0
  6  4  1  0  0  0  0
  7  9  1  0  0  0  0
  9  8  2  0  0  0  0
 10  8  1  0  0  0  0
 10  2  1  0  0  0  0
 11 10  2  0  0  0  0
 12  7  2  0  0  0  0
 12 11  1  0  0  0  0
 14 13  1  0  0  0  0
 15 14  2  0  0  0  0
 17 15  1  0  0  0  0
 17 16  2  0  0  0  0
 18 17  2  0  0  0  0
 19  4  1  0  0  0  0
 21 24  1  6  0  0  0
 21 22  1  0  0  0  0
 21 20  1  0  0  0  0
 22 19  1  1  0  0  0
 22 20  1  0  0  0  0
 24 23  2  0  0  0  0
 25 24  1  0  0  0  0
 26 25  1  0  0  0  0
M  END
>  <MODEL>
9

>  <REMARK>
 VINA RESULT:      -5.8      2.468      3.305
  Name = 
  7 active torsions:
  status: ('A' for Active; 'I' for Inactive)
    1  A    between atoms: C_2  and  C_19
    2  A    between atoms: C_3  and  C_26
    3  A    between atoms: C_6  and  O_18
    4  A    between atoms: C_8  and  C_14
    5  A    between atoms: C_8  and  C_22
    6  A    between atoms: N_10  and  C_26
    7  A    between atoms: O_18  and  C_24
                            x       y       z     vdW  Elec       q    Type
                         _______ _______ _______ _____ _____    ______ ____

>  <TORSDO>
F 7

$$$$
