=
 OpenBabel11042416523D

 29 31  0  0  1  0  0  0  0  0999 V2000
  188.1680  175.8350  143.2880 N   0  0  0  0  0  0  0  0  0  0  0  0
  190.1950  173.7860  143.3220 C   0  0  0  0  0  2  0  0  0  0  0  0
  189.1260  176.9250  145.2030 O   0  0  0  0  0  0  0  0  0  0  0  0
  188.0580  174.6760  142.4870 N   0  0  0  0  0  0  0  0  0  0  0  0
  189.3680  176.0650  144.0960 C   0  0  1  0  0  3  0  0  0  0  0  0
  189.5690  175.1970  146.8310 C   0  0  2  0  0  3  0  0  0  0  0  0
  190.0180  174.3040  145.7150 C   0  0  0  0  0  3  0  0  0  0  0  0
  188.9470  173.7160  142.4790 C   0  0  0  0  0  0  0  0  0  0  0  0
  188.5540  176.1980  146.2690 C   0  0  0  0  0  2  0  0  0  0  0  0
  189.9890  174.7370  144.4490 C   0  0  0  0  0  0  0  0  0  0  0  0
  185.9210  176.5140  143.9870 C   0  0  0  0  0  2  0  0  0  0  0  0
  187.9010  177.6370  141.0190 O   0  0  0  0  0  1  0  0  0  0  0  0
  184.8300  177.5570  143.7660 C   0  0  0  0  0  2  0  0  0  0  0  0
  185.6460  178.1290  141.6170 C   0  0  0  0  0  2  0  0  0  0  0  0
  184.4860  177.6220  142.3460 N   0  0  0  0  0  0  0  0  0  0  0  0
  187.1590  176.8840  143.1700 C   0  0  2  0  0  3  0  0  0  0  0  0
  186.7960  177.1280  141.7020 C   0  0  2  0  0  3  0  0  0  0  0  0
  183.4360  178.6190  142.2070 C   0  0  0  0  0  2  0  0  0  0  0  0
  182.6990  178.4320  140.8920 C   0  0  0  0  0  2  0  0  0  0  0  0
  181.2190  178.2150  141.1440 C   0  0  0  0  0  2  0  0  0  0  0  0
  180.7370  179.2120  142.0810 N   0  0  0  0  0  2  0  0  0  0  0  0
  179.3360  178.9150  142.3200 C   0  0  0  0  0  1  0  0  0  0  0  0
  190.7730  175.9090  147.4390 C   0  0  0  0  0  2  0  0  0  0  0  0
  192.0750  175.2010  147.0840 C   0  0  0  0  0  2  0  0  0  0  0  0
  192.9490  176.6750  145.2710 C   0  0  0  0  0  1  0  0  0  0  0  0
  193.1620  176.1880  146.6910 C   0  0  0  0  0  2  0  0  0  0  0  0
  188.7730  172.6000  141.6550 O   0  0  0  0  0  0  0  0  0  0  0  0
  188.3300  172.6580  139.2840 C   0  0  0  0  0  1  0  0  0  0  0  0
  189.3750  172.4880  140.3700 C   0  0  0  0  0  2  0  0  0  0  0  0
  1  5  1  0  0  0  0
  2 10  1  0  0  0  0
  3  9  1  0  0  0  0
  4  1  1  0  0  0  0
  5 10  1  1  0  0  0
  5  3  1  0  0  0  0
  6 23  1  6  0  0  0
  7  6  1  0  0  0  0
  8  4  2  0  0  0  0
  8  2  1  0  0  0  0
  9  6  1  0  0  0  0
 10  7  2  0  0  0  0
 13 11  1  0  0  0  0
 14 17  1  0  0  0  0
 14 15  1  0  0  0  0
 15 13  1  0  0  0  0
 16  1  1  6  0  0  0
 16 11  1  0  0  0  0
 17 12  1  6  0  0  0
 17 16  1  0  0  0  0
 18 15  1  0  0  0  0
 19 20  1  0  0  0  0
 19 18  1  0  0  0  0
 20 21  1  0  0  0  0
 21 22  1  0  0  0  0
 24 23  1  0  0  0  0
 25 26  1  0  0  0  0
 26 24  1  0  0  0  0
 27  8  1  0  0  0  0
 28 29  1  0  0  0  0
 29 27  1  0  0  0  0
M  END
>  <MODEL>
1

>  <REMARK>
 VINA RESULT:      -6.2      0.000      0.000
  Name = 
  10 active torsions:
  status: ('A' for Active; 'I' for Inactive)
    1  A    between atoms: N_1  and  C_15
    2  A    between atoms: C_6  and  C_18
    3  A    between atoms: C_6  and  N_22
    4  A    between atoms: C_9  and  C_11
    5  A    between atoms: C_11  and  C_23
    6  A    between atoms: N_14  and  C_29
    7  A    between atoms: C_17  and  C_23
    8  A    between atoms: C_18  and  C_29
    9  A    between atoms: C_20  and  O_27
   10  A    between atoms: O_27  and  C_28
                            x       y       z     vdW  Elec       q    Type
                         _______ _______ _______ _____ _____    ______ ____

>  <TORSDO>
F 10

$$$$
=
 OpenBabel11042416523D

 29 31  0  0  1  0  0  0  0  0999 V2000
  190.5040  175.3250  144.3980 N   0  0  0  0  0  0  0  0  0  0  0  0
  192.1350  173.8510  142.5340 C   0  0  0  0  0  2  0  0  0  0  0  0
  192.4400  176.2200  145.5050 O   0  0  0  0  0  0  0  0  0  0  0  0
  189.9460  174.3510  143.5400 N   0  0  0  0  0  0  0  0  0  0  0  0
  191.9230  175.6730  144.2970 C   0  0  1  0  0  3  0  0  0  0  0  0
  193.9420  174.3650  145.8750 C   0  0  2  0  0  3  0  0  0  0  0  0
  193.5750  173.8380  144.5210 C   0  0  0  0  0  3  0  0  0  0  0  0
  190.6490  173.6510  142.6870 C   0  0  0  0  0  0  0  0  0  0  0  0
  192.7630  175.1860  146.4090 C   0  0  0  0  0  2  0  0  0  0  0  0
  192.6870  174.4890  143.7600 C   0  0  0  0  0  0  0  0  0  0  0  0
  188.9420  175.1920  146.2780 C   0  0  0  0  0  2  0  0  0  0  0  0
  189.2300  177.8290  143.6430 O   0  0  0  0  0  1  0  0  0  0  0  0
  187.9390  175.9950  147.1000 C   0  0  0  0  0  2  0  0  0  0  0  0
  187.6010  177.5720  145.3640 C   0  0  0  0  0  2  0  0  0  0  0  0
  186.9360  176.5890  146.2160 N   0  0  0  0  0  0  0  0  0  0  0  0
  189.6240  176.1060  145.2610 C   0  0  2  0  0  3  0  0  0  0  0  0
  188.5890  176.8750  144.4330 C   0  0  2  0  0  3  0  0  0  0  0  0
  186.0070  177.3250  147.0590 C   0  0  0  0  0  2  0  0  0  0  0  0
  185.6460  178.6530  146.4150 C   0  0  0  0  0  2  0  0  0  0  0  0
  184.1970  178.6460  145.9690 C   0  0  0  0  0  2  0  0  0  0  0  0
  184.1320  178.8250  144.5310 N   0  0  0  0  0  2  0  0  0  0  0  0
  185.1110  179.8430  144.1940 C   0  0  0  0  0  1  0  0  0  0  0  0
  195.2070  175.2110  145.7740 C   0  0  0  0  0  2  0  0  0  0  0  0
  196.3800  174.3960  145.2450 C   0  0  0  0  0  2  0  0  0  0  0  0
  196.9380  172.0310  145.8110 C   0  0  0  0  0  1  0  0  0  0  0  0
  196.9420  173.4640  146.3070 C   0  0  0  0  0  2  0  0  0  0  0  0
  190.0250  172.7060  141.8660 O   0  0  0  0  0  0  0  0  0  0  0  0
  189.0230  173.9660  140.0680 C   0  0  0  0  0  1  0  0  0  0  0  0
  188.8020  172.9630  141.1850 C   0  0  0  0  0  2  0  0  0  0  0  0
  2  8  1  0  0  0  0
  2 10  1  0  0  0  0
  3  9  1  0  0  0  0
  4  1  1  0  0  0  0
  5 10  1  1  0  0  0
  5  1  1  0  0  0  0
  5  3  1  0  0  0  0
  6 23  1  6  0  0  0
  6  9  1  0  0  0  0
  7  6  1  0  0  0  0
  8  4  2  0  0  0  0
 10  7  2  0  0  0  0
 11 13  1  0  0  0  0
 14 15  1  0  0  0  0
 15 18  1  0  0  0  0
 15 13  1  0  0  0  0
 16  1  1  6  0  0  0
 16 11  1  0  0  0  0
 17 12  1  1  0  0  0
 17 16  1  0  0  0  0
 17 14  1  0  0  0  0
 19 18  1  0  0  0  0
 20 19  1  0  0  0  0
 21 20  1  0  0  0  0
 22 21  1  0  0  0  0
 24 23  1  0  0  0  0
 24 26  1  0  0  0  0
 25 26  1  0  0  0  0
 27  8  1  0  0  0  0
 28 29  1  0  0  0  0
 29 27  1  0  0  0  0
M  END
>  <MODEL>
2

>  <REMARK>
 VINA RESULT:      -6.1      2.625      4.062
  Name = 
  10 active torsions:
  status: ('A' for Active; 'I' for Inactive)
    1  A    between atoms: N_1  and  C_15
    2  A    between atoms: C_6  and  C_18
    3  A    between atoms: C_6  and  N_22
    4  A    between atoms: C_9  and  C_11
    5  A    between atoms: C_11  and  C_23
    6  A    between atoms: N_14  and  C_29
    7  A    between atoms: C_17  and  C_23
    8  A    between atoms: C_18  and  C_29
    9  A    between atoms: C_20  and  O_27
   10  A    between atoms: O_27  and  C_28
                            x       y       z     vdW  Elec       q    Type
                         _______ _______ _______ _____ _____    ______ ____

>  <TORSDO>
F 10

$$$$
=
 OpenBabel11042416523D

 29 31  0  0  1  0  0  0  0  0999 V2000
  189.5890  175.3780  143.1960 N   0  0  0  0  0  0  0  0  0  0  0  0
  189.4690  176.8760  145.6550 C   0  0  0  0  0  2  0  0  0  0  0  0
  188.2210  176.9900  142.0550 O   0  0  0  0  0  0  0  0  0  0  0  0
  190.0520  174.8330  144.4150 N   0  0  0  0  0  0  0  0  0  0  0  0
  189.1150  176.7630  143.1380 C   0  0  1  0  0  3  0  0  0  0  0  0
  186.3470  177.4550  143.5070 C   0  0  2  0  0  3  0  0  0  0  0  0
  187.2840  177.4140  144.6760 C   0  0  0  0  0  3  0  0  0  0  0  0
  190.0070  175.4710  145.5560 C   0  0  0  0  0  0  0  0  0  0  0  0
  186.9200  176.5640  142.4000 C   0  0  0  0  0  2  0  0  0  0  0  0
  188.5850  177.1620  144.4920 C   0  0  0  0  0  0  0  0  0  0  0  0
  188.7290  173.4800  141.9110 C   0  0  0  0  0  2  0  0  0  0  0  0
  192.0790  175.1300  141.7110 O   0  0  0  0  0  1  0  0  0  0  0  0
  188.9810  172.6170  140.6780 C   0  0  0  0  0  2  0  0  0  0  0  0
  191.2850  173.1660  140.6170 C   0  0  0  0  0  2  0  0  0  0  0  0
  190.3330  172.0630  140.7270 N   0  0  0  0  0  0  0  0  0  0  0  0
  189.7520  174.6140  141.9630 C   0  0  2  0  0  3  0  0  0  0  0  0
  191.1800  174.0710  141.8420 C   0  0  2  0  0  3  0  0  0  0  0  0
  190.5020  171.2440  139.5370 C   0  0  0  0  0  2  0  0  0  0  0  0
  189.4640  171.6110  138.4900 C   0  0  0  0  0  2  0  0  0  0  0  0
  190.1270  171.8280  137.1440 C   0  0  0  0  0  2  0  0  0  0  0  0
  190.4110  173.2400  136.9670 N   0  0  0  0  0  2  0  0  0  0  0  0
  189.1700  173.9490  137.2200 C   0  0  0  0  0  1  0  0  0  0  0  0
  186.1780  178.8930  143.0310 C   0  0  0  0  0  2  0  0  0  0  0  0
  185.4030  179.7280  144.0430 C   0  0  0  0  0  2  0  0  0  0  0  0
  184.0120  178.7820  145.8860 C   0  0  0  0  0  1  0  0  0  0  0  0
  184.0730  179.0840  144.4010 C   0  0  0  0  0  2  0  0  0  0  0  0
  190.4880  174.8690  146.7210 O   0  0  0  0  0  0  0  0  0  0  0  0
  192.8260  175.4690  146.7060 C   0  0  0  0  0  1  0  0  0  0  0  0
  191.5360  175.4300  147.5050 C   0  0  0  0  0  2  0  0  0  0  0  0
  1  4  1  0  0  0  0
  3  9  1  0  0  0  0
  4  8  2  0  0  0  0
  5  3  1  6  0  0  0
  5  1  1  0  0  0  0
  5 10  1  0  0  0  0
  6 23  1  6  0  0  0
  6  7  1  0  0  0  0
  8  2  1  0  0  0  0
  8 27  1  0  0  0  0
  9  6  1  0  0  0  0
 10  7  2  0  0  0  0
 10  2  1  0  0  0  0
 13 15  1  0  0  0  0
 13 11  1  0  0  0  0
 14 15  1  0  0  0  0
 14 17  1  0  0  0  0
 16 11  1  1  0  0  0
 16  1  1  0  0  0  0
 17 12  1  6  0  0  0
 17 16  1  0  0  0  0
 18 15  1  0  0  0  0
 19 18  1  0  0  0  0
 20 19  1  0  0  0  0
 21 20  1  0  0  0  0
 21 22  1  0  0  0  0
 23 24  1  0  0  0  0
 24 26  1  0  0  0  0
 26 25  1  0  0  0  0
 27 29  1  0  0  0  0
 28 29  1  0  0  0  0
M  END
>  <MODEL>
3

>  <REMARK>
 VINA RESULT:      -5.9      2.953      7.239
  Name = 
  10 active torsions:
  status: ('A' for Active; 'I' for Inactive)
    1  A    between atoms: N_1  and  C_15
    2  A    between atoms: C_6  and  C_18
    3  A    between atoms: C_6  and  N_22
    4  A    between atoms: C_9  and  C_11
    5  A    between atoms: C_11  and  C_23
    6  A    between atoms: N_14  and  C_29
    7  A    between atoms: C_17  and  C_23
    8  A    between atoms: C_18  and  C_29
    9  A    between atoms: C_20  and  O_27
   10  A    between atoms: O_27  and  C_28
                            x       y       z     vdW  Elec       q    Type
                         _______ _______ _______ _____ _____    ______ ____

>  <TORSDO>
F 10

$$$$
=
 OpenBabel11042416523D

 29 31  0  0  1  0  0  0  0  0999 V2000
  189.3010  175.3820  142.1760 N   0  0  0  0  0  0  0  0  0  0  0  0
  191.3100  173.6950  140.9830 C   0  0  0  0  0  2  0  0  0  0  0  0
  190.7190  175.8810  144.0500 O   0  0  0  0  0  0  0  0  0  0  0  0
  189.0050  174.5500  141.0730 N   0  0  0  0  0  0  0  0  0  0  0  0
  190.6700  175.4720  142.6880 C   0  0  1  0  0  3  0  0  0  0  0  0
  191.6340  173.7750  144.8020 C   0  0  2  0  0  3  0  0  0  0  0  0
  191.7820  173.3640  143.3690 C   0  0  0  0  0  3  0  0  0  0  0  0
  189.8810  173.7610  140.5070 C   0  0  0  0  0  0  0  0  0  0  0  0
  190.4800  174.7780  144.8990 C   0  0  0  0  0  2  0  0  0  0  0  0
  191.3970  174.1860  142.3860 C   0  0  0  0  0  0  0  0  0  0  0  0
  186.9230  175.5660  142.7320 C   0  0  0  0  0  2  0  0  0  0  0  0
  189.3750  178.2830  141.9640 O   0  0  0  0  0  1  0  0  0  0  0  0
  185.8350  176.5460  143.1590 C   0  0  0  0  0  2  0  0  0  0  0  0
  187.0210  178.4150  142.3150 C   0  0  0  0  0  2  0  0  0  0  0  0
  185.7730  177.6620  142.2150 N   0  0  0  0  0  0  0  0  0  0  0  0
  188.2720  176.2830  142.6890 C   0  0  2  0  0  3  0  0  0  0  0  0
  188.1910  177.5570  141.8420 C   0  0  2  0  0  3  0  0  0  0  0  0
  184.7120  178.5470  142.6680 C   0  0  0  0  0  2  0  0  0  0  0  0
  185.1750  179.3560  143.8680 C   0  0  0  0  0  2  0  0  0  0  0  0
  184.2230  179.1630  145.0330 C   0  0  0  0  0  2  0  0  0  0  0  0
  184.9810  178.8760  146.2360 N   0  0  0  0  0  2  0  0  0  0  0  0
  184.6980  177.4970  146.5880 C   0  0  0  0  0  1  0  0  0  0  0  0
  192.9400  174.3830  145.3020 C   0  0  0  0  0  2  0  0  0  0  0  0
  192.7420  175.1210  146.6200 C   0  0  0  0  0  2  0  0  0  0  0  0
  193.9110  176.8430  145.2420 C   0  0  0  0  0  1  0  0  0  0  0  0
  193.4980  176.4410  146.6450 C   0  0  0  0  0  2  0  0  0  0  0  0
  189.5160  172.9690  139.4140 O   0  0  0  0  0  0  0  0  0  0  0  0
  189.0540  174.0020  137.2820 C   0  0  0  0  0  1  0  0  0  0  0  0
  188.4740  173.3300  138.5130 C   0  0  0  0  0  2  0  0  0  0  0  0
  1  5  1  0  0  0  0
  2 10  1  0  0  0  0
  3  9  1  0  0  0  0
  4  1  1  0  0  0  0
  5 10  1  1  0  0  0
  5  3  1  0  0  0  0
  6  9  1  0  0  0  0
  6 23  1  6  0  0  0
  7  6  1  0  0  0  0
  8  2  1  0  0  0  0
  8  4  2  0  0  0  0
 10  7  2  0  0  0  0
 11 13  1  0  0  0  0
 15 14  1  0  0  0  0
 15 18  1  0  0  0  0
 15 13  1  0  0  0  0
 16  1  1  6  0  0  0
 16 11  1  0  0  0  0
 17 12  1  1  0  0  0
 17 14  1  0  0  0  0
 17 16  1  0  0  0  0
 18 19  1  0  0  0  0
 19 20  1  0  0  0  0
 20 21  1  0  0  0  0
 21 22  1  0  0  0  0
 23 24  1  0  0  0  0
 24 26  1  0  0  0  0
 25 26  1  0  0  0  0
 27  8  1  0  0  0  0
 28 29  1  0  0  0  0
 29 27  1  0  0  0  0
M  END
>  <MODEL>
4

>  <REMARK>
 VINA RESULT:      -5.9      2.233      2.847
  Name = 
  10 active torsions:
  status: ('A' for Active; 'I' for Inactive)
    1  A    between atoms: N_1  and  C_15
    2  A    between atoms: C_6  and  C_18
    3  A    between atoms: C_6  and  N_22
    4  A    between atoms: C_9  and  C_11
    5  A    between atoms: C_11  and  C_23
    6  A    between atoms: N_14  and  C_29
    7  A    between atoms: C_17  and  C_23
    8  A    between atoms: C_18  and  C_29
    9  A    between atoms: C_20  and  O_27
   10  A    between atoms: O_27  and  C_28
                            x       y       z     vdW  Elec       q    Type
                         _______ _______ _______ _____ _____    ______ ____

>  <TORSDO>
F 10

$$$$
=
 OpenBabel11042416523D

 29 31  0  0  1  0  0  0  0  0999 V2000
  190.1770  175.2160  143.6260 N   0  0  0  0  0  0  0  0  0  0  0  0
  187.5620  175.1580  142.4160 C   0  0  0  0  0  2  0  0  0  0  0  0
  189.2850  176.0320  145.7020 O   0  0  0  0  0  0  0  0  0  0  0  0
  190.0110  175.0110  142.2380 N   0  0  0  0  0  0  0  0  0  0  0  0
  189.0080  175.3180  144.5030 C   0  0  1  0  0  3  0  0  0  0  0  0
  187.7840  177.8410  145.1450 C   0  0  2  0  0  3  0  0  0  0  0  0
  187.3150  177.0460  143.9640 C   0  0  0  0  0  3  0  0  0  0  0  0
  188.8450  174.9870  141.6440 C   0  0  0  0  0  0  0  0  0  0  0  0
  189.2220  177.4230  145.4670 C   0  0  0  0  0  2  0  0  0  0  0  0
  187.8370  175.8400  143.7100 C   0  0  0  0  0  0  0  0  0  0  0  0
  192.3730  176.2990  143.6720 C   0  0  0  0  0  2  0  0  0  0  0  0
  191.4660  172.7810  144.5590 O   0  0  0  0  0  1  0  0  0  0  0  0
  193.8010  176.1560  144.1900 C   0  0  0  0  0  2  0  0  0  0  0  0
  193.6140  173.8040  144.4070 C   0  0  0  0  0  2  0  0  0  0  0  0
  194.3610  174.8770  143.7550 N   0  0  0  0  0  0  0  0  0  0  0  0
  191.5160  175.1500  144.2040 C   0  0  2  0  0  3  0  0  0  0  0  0
  192.1700  173.7960  143.9120 C   0  0  2  0  0  3  0  0  0  0  0  0
  195.7210  174.8110  144.2670 C   0  0  0  0  0  2  0  0  0  0  0  0
  195.7120  174.4940  145.7530 C   0  0  0  0  0  2  0  0  0  0  0  0
  196.9750  173.7490  146.1400 C   0  0  0  0  0  2  0  0  0  0  0  0
  197.1710  172.6290  145.2390 N   0  0  0  0  0  2  0  0  0  0  0  0
  196.7120  171.4450  145.9420 C   0  0  0  0  0  1  0  0  0  0  0  0
  186.8560  177.5990  146.3310 C   0  0  0  0  0  2  0  0  0  0  0  0
  185.8850  178.7570  146.5230 C   0  0  0  0  0  2  0  0  0  0  0  0
  184.1340  178.8810  144.7490 C   0  0  0  0  0  1  0  0  0  0  0  0
  184.4650  178.3690  146.1370 C   0  0  0  0  0  2  0  0  0  0  0  0
  188.7590  174.7730  140.2650 O   0  0  0  0  0  0  0  0  0  0  0  0
  188.2990  172.6370  139.2400 C   0  0  0  0  0  1  0  0  0  0  0  0
  189.3590  173.6550  139.6190 C   0  0  0  0  0  2  0  0  0  0  0  0
  1  5  1  0  0  0  0
  2 10  1  0  0  0  0
  4  1  1  0  0  0  0
  5 10  1  6  0  0  0
  5  3  1  0  0  0  0
  6  9  1  0  0  0  0
  6 23  1  1  0  0  0
  7  6  1  0  0  0  0
  8  4  2  0  0  0  0
  8  2  1  0  0  0  0
  9  3  1  0  0  0  0
 10  7  2  0  0  0  0
 11 13  1  0  0  0  0
 11 16  1  0  0  0  0
 15 13  1  0  0  0  0
 15 18  1  0  0  0  0
 15 14  1  0  0  0  0
 16  1  1  6  0  0  0
 17 16  1  0  0  0  0
 17 14  1  0  0  0  0
 17 12  1  1  0  0  0
 18 19  1  0  0  0  0
 19 20  1  0  0  0  0
 21 22  1  0  0  0  0
 21 20  1  0  0  0  0
 23 24  1  0  0  0  0
 25 26  1  0  0  0  0
 26 24  1  0  0  0  0
 27  8  1  0  0  0  0
 28 29  1  0  0  0  0
 29 27  1  0  0  0  0
M  END
>  <MODEL>
5

>  <REMARK>
 VINA RESULT:      -5.9      3.274      8.527
  Name = 
  10 active torsions:
  status: ('A' for Active; 'I' for Inactive)
    1  A    between atoms: N_1  and  C_15
    2  A    between atoms: C_6  and  C_18
    3  A    between atoms: C_6  and  N_22
    4  A    between atoms: C_9  and  C_11
    5  A    between atoms: C_11  and  C_23
    6  A    between atoms: N_14  and  C_29
    7  A    between atoms: C_17  and  C_23
    8  A    between atoms: C_18  and  C_29
    9  A    between atoms: C_20  and  O_27
   10  A    between atoms: O_27  and  C_28
                            x       y       z     vdW  Elec       q    Type
                         _______ _______ _______ _____ _____    ______ ____

>  <TORSDO>
F 10

$$$$
=
 OpenBabel11042416523D

 29 31  0  0  1  0  0  0  0  0999 V2000
  188.9970  175.8080  143.8370 N   0  0  0  0  0  0  0  0  0  0  0  0
  190.3800  177.3460  145.8440 C   0  0  0  0  0  2  0  0  0  0  0  0
  186.9690  177.0520  144.1680 O   0  0  0  0  0  0  0  0  0  0  0  0
  190.2680  175.4200  144.3170 N   0  0  0  0  0  0  0  0  0  0  0  0
  188.3860  177.0600  144.2890 C   0  0  1  0  0  3  0  0  0  0  0  0
  186.6170  177.1760  146.5550 C   0  0  2  0  0  3  0  0  0  0  0  0
  188.0910  177.3780  146.7290 C   0  0  0  0  0  3  0  0  0  0  0  0
  190.9270  176.0810  145.2340 C   0  0  0  0  0  0  0  0  0  0  0  0
  186.3890  176.3800  145.2650 C   0  0  0  0  0  2  0  0  0  0  0  0
  188.9030  177.3940  145.6660 C   0  0  0  0  0  0  0  0  0  0  0  0
  188.8360  173.5890  142.8140 C   0  0  0  0  0  2  0  0  0  0  0  0
  188.1110  176.9320  141.3030 O   0  0  0  0  0  1  0  0  0  0  0  0
  188.2760  172.8270  141.6180 C   0  0  0  0  0  2  0  0  0  0  0  0
  188.1530  174.7790  140.2810 C   0  0  0  0  0  2  0  0  0  0  0  0
  188.7390  173.4440  140.3750 N   0  0  0  0  0  0  0  0  0  0  0  0
  188.3770  175.0460  142.7570 C   0  0  2  0  0  3  0  0  0  0  0  0
  188.6970  175.6690  141.3950 C   0  0  2  0  0  3  0  0  0  0  0  0
  188.1840  172.6640  139.2790 C   0  0  0  0  0  2  0  0  0  0  0  0
  188.3890  173.3880  137.9590 C   0  0  0  0  0  2  0  0  0  0  0  0
  189.3850  172.6380  137.0960 C   0  0  0  0  0  2  0  0  0  0  0  0
  189.6450  171.3350  137.6790 N   0  0  0  0  0  2  0  0  0  0  0  0
  190.1130  170.4830  136.6010 C   0  0  0  0  0  1  0  0  0  0  0  0
  185.9130  178.5270  146.5040 C   0  0  0  0  0  2  0  0  0  0  0  0
  184.4190  178.3680  146.2470 C   0  0  0  0  0  2  0  0  0  0  0  0
  185.1360  179.8600  144.3800 C   0  0  0  0  0  1  0  0  0  0  0  0
  183.9980  179.0320  144.9460 C   0  0  0  0  0  2  0  0  0  0  0  0
  192.1840  175.6390  145.6560 O   0  0  0  0  0  0  0  0  0  0  0  0
  194.1760  176.6900  146.5230 C   0  0  0  0  0  1  0  0  0  0  0  0
  192.8100  176.1120  146.8440 C   0  0  0  0  0  2  0  0  0  0  0  0
  1  5  1  0  0  0  0
  1  4  1  0  0  0  0
  3  9  1  0  0  0  0
  4  8  2  0  0  0  0
  5  3  1  1  0  0  0
  5 10  1  0  0  0  0
  6 23  1  6  0  0  0
  6  7  1  0  0  0  0
  8 27  1  0  0  0  0
  8  2  1  0  0  0  0
  9  6  1  0  0  0  0
 10  2  1  0  0  0  0
 10  7  2  0  0  0  0
 13 11  1  0  0  0  0
 14 15  1  0  0  0  0
 14 17  1  0  0  0  0
 15 13  1  0  0  0  0
 16 11  1  6  0  0  0
 16  1  1  0  0  0  0
 17 12  1  1  0  0  0
 17 16  1  0  0  0  0
 18 15  1  0  0  0  0
 19 18  1  0  0  0  0
 20 21  1  0  0  0  0
 20 19  1  0  0  0  0
 22 21  1  0  0  0  0
 24 23  1  0  0  0  0
 25 26  1  0  0  0  0
 26 24  1  0  0  0  0
 27 29  1  0  0  0  0
 28 29  1  0  0  0  0
M  END
>  <MODEL>
6

>  <REMARK>
 VINA RESULT:      -5.9      3.070      6.761
  Name = 
  10 active torsions:
  status: ('A' for Active; 'I' for Inactive)
    1  A    between atoms: N_1  and  C_15
    2  A    between atoms: C_6  and  C_18
    3  A    between atoms: C_6  and  N_22
    4  A    between atoms: C_9  and  C_11
    5  A    between atoms: C_11  and  C_23
    6  A    between atoms: N_14  and  C_29
    7  A    between atoms: C_17  and  C_23
    8  A    between atoms: C_18  and  C_29
    9  A    between atoms: C_20  and  O_27
   10  A    between atoms: O_27  and  C_28
                            x       y       z     vdW  Elec       q    Type
                         _______ _______ _______ _____ _____    ______ ____

>  <TORSDO>
F 10

$$$$
=
 OpenBabel11042416523D

 29 31  0  0  1  0  0  0  0  0999 V2000
  190.1550  175.4070  143.9060 N   0  0  0  0  0  0  0  0  0  0  0  0
  187.5370  175.1600  142.7260 C   0  0  0  0  0  2  0  0  0  0  0  0
  189.2220  175.8780  146.0690 O   0  0  0  0  0  0  0  0  0  0  0  0
  189.9810  175.3340  142.5050 N   0  0  0  0  0  0  0  0  0  0  0  0
  189.0040  175.2690  144.8020 C   0  0  1  0  0  3  0  0  0  0  0  0
  187.5010  177.5390  145.7310 C   0  0  2  0  0  3  0  0  0  0  0  0
  187.1020  176.8250  144.4750 C   0  0  0  0  0  3  0  0  0  0  0  0
  188.8130  175.2320  141.9260 C   0  0  0  0  0  0  0  0  0  0  0  0
  188.9860  177.2670  145.9890 C   0  0  0  0  0  2  0  0  0  0  0  0
  187.7600  175.7270  144.0840 C   0  0  0  0  0  0  0  0  0  0  0  0
  192.1330  176.8150  144.2170 C   0  0  0  0  0  2  0  0  0  0  0  0
  191.8750  173.0840  144.2440 O   0  0  0  0  0  1  0  0  0  0  0  0
  193.5820  176.8080  144.6930 C   0  0  0  0  0  2  0  0  0  0  0  0
  193.8090  174.4750  144.3480 C   0  0  0  0  0  2  0  0  0  0  0  0
  194.3370  175.7840  143.9710 N   0  0  0  0  0  0  0  0  0  0  0  0
  191.5050  175.4430  144.4580 C   0  0  2  0  0  3  0  0  0  0  0  0
  192.3700  174.3300  143.8580 C   0  0  2  0  0  3  0  0  0  0  0  0
  195.7060  175.8390  144.4590 C   0  0  0  0  0  2  0  0  0  0  0  0
  196.5830  176.6130  143.4890 C   0  0  0  0  0  2  0  0  0  0  0  0
  196.7920  175.8140  142.2170 C   0  0  0  0  0  2  0  0  0  0  0  0
  196.2350  176.5420  141.0920 N   0  0  0  0  0  2  0  0  0  0  0  0
  195.3060  175.6410  140.4330 C   0  0  0  0  0  1  0  0  0  0  0  0
  186.6380  177.0590  146.8940 C   0  0  0  0  0  2  0  0  0  0  0  0
  185.1710  176.9650  146.4960 C   0  0  0  0  0  2  0  0  0  0  0  0
  184.0440  178.8900  145.3770 C   0  0  0  0  0  1  0  0  0  0  0  0
  184.4450  178.2850  146.7090 C   0  0  0  0  0  2  0  0  0  0  0  0
  188.7190  175.1600  140.5330 O   0  0  0  0  0  0  0  0  0  0  0  0
  189.9030  173.3360  139.4860 C   0  0  0  0  0  1  0  0  0  0  0  0
  188.5510  173.9310  139.8330 C   0  0  0  0  0  2  0  0  0  0  0  0
  1  5  1  0  0  0  0
  2 10  1  0  0  0  0
  4  1  1  0  0  0  0
  5 10  1  6  0  0  0
  5  3  1  0  0  0  0
  6  9  1  0  0  0  0
  6 23  1  1  0  0  0
  7  6  1  0  0  0  0
  8  4  2  0  0  0  0
  8  2  1  0  0  0  0
  9  3  1  0  0  0  0
 10  7  2  0  0  0  0
 11 16  1  0  0  0  0
 11 13  1  0  0  0  0
 15 14  1  0  0  0  0
 15 18  1  0  0  0  0
 15 13  1  0  0  0  0
 16  1  1  6  0  0  0
 17 12  1  1  0  0  0
 17 14  1  0  0  0  0
 17 16  1  0  0  0  0
 19 18  1  0  0  0  0
 20 19  1  0  0  0  0
 21 20  1  0  0  0  0
 22 21  1  0  0  0  0
 24 26  1  0  0  0  0
 24 23  1  0  0  0  0
 25 26  1  0  0  0  0
 27  8  1  0  0  0  0
 28 29  1  0  0  0  0
 29 27  1  0  0  0  0
M  END
>  <MODEL>
7

>  <REMARK>
 VINA RESULT:      -5.9      3.323      8.009
  Name = 
  10 active torsions:
  status: ('A' for Active; 'I' for Inactive)
    1  A    between atoms: N_1  and  C_15
    2  A    between atoms: C_6  and  C_18
    3  A    between atoms: C_6  and  N_22
    4  A    between atoms: C_9  and  C_11
    5  A    between atoms: C_11  and  C_23
    6  A    between atoms: N_14  and  C_29
    7  A    between atoms: C_17  and  C_23
    8  A    between atoms: C_18  and  C_29
    9  A    between atoms: C_20  and  O_27
   10  A    between atoms: O_27  and  C_28
                            x       y       z     vdW  Elec       q    Type
                         _______ _______ _______ _____ _____    ______ ____

>  <TORSDO>
F 10

$$$$
=
 OpenBabel11042416523D

 29 31  0  0  1  0  0  0  0  0999 V2000
  190.1870  175.0910  144.1800 N   0  0  0  0  0  0  0  0  0  0  0  0
  192.7340  174.1760  143.1880 C   0  0  0  0  0  2  0  0  0  0  0  0
  188.9970  173.5580  142.7650 O   0  0  0  0  0  0  0  0  0  0  0  0
  191.3850  175.7810  144.4760 N   0  0  0  0  0  0  0  0  0  0  0  0
  190.2240  173.8350  143.4280 C   0  0  1  0  0  3  0  0  0  0  0  0
  189.9730  173.7510  140.5630 C   0  0  2  0  0  3  0  0  0  0  0  0
  191.3230  173.8580  141.2060 C   0  0  0  0  0  3  0  0  0  0  0  0
  192.5610  175.4090  144.0390 C   0  0  0  0  0  0  0  0  0  0  0  0
  188.9260  174.2760  141.5510 C   0  0  0  0  0  2  0  0  0  0  0  0
  191.4420  173.8250  142.5390 C   0  0  0  0  0  0  0  0  0  0  0  0
  188.5470  176.9080  144.2090 C   0  0  0  0  0  2  0  0  0  0  0  0
  189.2240  174.3100  146.8120 O   0  0  0  0  0  1  0  0  0  0  0  0
  187.3010  177.4260  144.9210 C   0  0  0  0  0  2  0  0  0  0  0  0
  187.7750  176.2010  146.8940 C   0  0  0  0  0  2  0  0  0  0  0  0
  187.5620  177.5430  146.3560 N   0  0  0  0  0  0  0  0  0  0  0  0
  188.9350  175.5440  144.7780 C   0  0  2  0  0  3  0  0  0  0  0  0
  189.0470  175.5970  146.3050 C   0  0  2  0  0  3  0  0  0  0  0  0
  186.3460  178.0520  146.9710 C   0  0  0  0  0  2  0  0  0  0  0  0
  185.1220  177.5070  146.2530 C   0  0  0  0  0  2  0  0  0  0  0  0
  184.0820  178.5980  146.0840 C   0  0  0  0  0  2  0  0  0  0  0  0
  184.4180  179.4120  144.9320 N   0  0  0  0  0  2  0  0  0  0  0  0
  184.0800  178.6300  143.7570 C   0  0  0  0  0  1  0  0  0  0  0  0
  189.6970  172.3010  140.1810 C   0  0  0  0  0  2  0  0  0  0  0  0
  190.9380  171.6320  139.6040 C   0  0  0  0  0  2  0  0  0  0  0  0
  190.8280  170.2040  141.6480 C   0  0  0  0  0  1  0  0  0  0  0  0
  191.1340  170.2310  140.1630 C   0  0  0  0  0  2  0  0  0  0  0  0
  193.7030  176.1390  144.3780 O   0  0  0  0  0  0  0  0  0  0  0  0
  194.5570  177.2300  146.3540 C   0  0  0  0  0  1  0  0  0  0  0  0
  194.4240  175.9280  145.5870 C   0  0  0  0  0  2  0  0  0  0  0  0
  1  4  1  0  0  0  0
  2  8  1  0  0  0  0
  3  5  1  0  0  0  0
  5 10  1  6  0  0  0
  5  1  1  0  0  0  0
  6 23  1  1  0  0  0
  6  7  1  0  0  0  0
  6  9  1  0  0  0  0
  7 10  2  0  0  0  0
  8 27  1  0  0  0  0
  8  4  2  0  0  0  0
  9  3  1  0  0  0  0
 10  2  1  0  0  0  0
 11 16  1  0  0  0  0
 11 13  1  0  0  0  0
 13 15  1  0  0  0  0
 15 14  1  0  0  0  0
 15 18  1  0  0  0  0
 16  1  1  6  0  0  0
 16 17  1  0  0  0  0
 17 12  1  1  0  0  0
 17 14  1  0  0  0  0
 19 18  1  0  0  0  0
 20 19  1  0  0  0  0
 21 20  1  0  0  0  0
 22 21  1  0  0  0  0
 24 26  1  0  0  0  0
 24 23  1  0  0  0  0
 26 25  1  0  0  0  0
 27 29  1  0  0  0  0
 29 28  1  0  0  0  0
M  END
>  <MODEL>
8

>  <REMARK>
 VINA RESULT:      -5.7      2.523      5.778
  Name = 
  10 active torsions:
  status: ('A' for Active; 'I' for Inactive)
    1  A    between atoms: N_1  and  C_15
    2  A    between atoms: C_6  and  C_18
    3  A    between atoms: C_6  and  N_22
    4  A    between atoms: C_9  and  C_11
    5  A    between atoms: C_11  and  C_23
    6  A    between atoms: N_14  and  C_29
    7  A    between atoms: C_17  and  C_23
    8  A    between atoms: C_18  and  C_29
    9  A    between atoms: C_20  and  O_27
   10  A    between atoms: O_27  and  C_28
                            x       y       z     vdW  Elec       q    Type
                         _______ _______ _______ _____ _____    ______ ____

>  <TORSDO>
F 10

$$$$
=
 OpenBabel11042416523D

 29 31  0  0  1  0  0  0  0  0999 V2000
  187.4570  176.3220  142.0260 N   0  0  0  0  0  0  0  0  0  0  0  0
  185.2410  177.5310  140.6360 C   0  0  0  0  0  2  0  0  0  0  0  0
  186.5720  176.9700  144.1630 O   0  0  0  0  0  0  0  0  0  0  0  0
  187.4700  176.4880  140.6230 N   0  0  0  0  0  0  0  0  0  0  0  0
  186.2700  176.6830  142.8030 C   0  0  1  0  0  3  0  0  0  0  0  0
  185.9320  179.2910  143.9700 C   0  0  2  0  0  3  0  0  0  0  0  0
  185.4210  179.0020  142.5910 C   0  0  0  0  0  3  0  0  0  0  0  0
  186.4920  177.0410  139.9520 C   0  0  0  0  0  0  0  0  0  0  0  0
  187.0500  178.2920  144.2880 C   0  0  0  0  0  2  0  0  0  0  0  0
  185.5150  177.7700  142.0790 C   0  0  0  0  0  0  0  0  0  0  0  0
  189.7800  176.5470  142.7680 C   0  0  0  0  0  2  0  0  0  0  0  0
  187.8460  173.4380  142.0050 O   0  0  0  0  0  1  0  0  0  0  0  0
  190.9660  175.7770  143.3390 C   0  0  0  0  0  2  0  0  0  0  0  0
  190.1550  173.7000  142.5380 C   0  0  0  0  0  2  0  0  0  0  0  0
  191.2770  174.6350  142.4790 N   0  0  0  0  0  0  0  0  0  0  0  0
  188.5650  175.6250  142.6730 C   0  0  2  0  0  3  0  0  0  0  0  0
  188.9110  174.3350  141.9220 C   0  0  2  0  0  3  0  0  0  0  0  0
  192.4190  173.9550  143.0690 C   0  0  0  0  0  2  0  0  0  0  0  0
  192.8620  174.6670  144.3360 C   0  0  0  0  0  2  0  0  0  0  0  0
  194.3620  174.5310  144.5200 C   0  0  0  0  0  2  0  0  0  0  0  0
  194.8350  175.5660  145.4200 N   0  0  0  0  0  2  0  0  0  0  0  0
  193.7240  175.8960  146.2950 C   0  0  0  0  0  1  0  0  0  0  0  0
  184.7910  179.1870  144.9760 C   0  0  0  0  0  2  0  0  0  0  0  0
  185.3060  179.2470  146.4090 C   0  0  0  0  0  2  0  0  0  0  0  0
  185.9480  177.1850  147.6600 C   0  0  0  0  0  1  0  0  0  0  0  0
  184.7970  178.0780  147.2390 C   0  0  0  0  0  2  0  0  0  0  0  0
  186.5730  177.1670  138.5620 O   0  0  0  0  0  0  0  0  0  0  0  0
  187.0480  176.4970  136.2930 C   0  0  0  0  0  1  0  0  0  0  0  0
  186.6580  176.0460  137.6880 C   0  0  0  0  0  2  0  0  0  0  0  0
  1  5  1  0  0  0  0
  2 10  1  0  0  0  0
  3  9  1  0  0  0  0
  4  1  1  0  0  0  0
  5 10  1  6  0  0  0
  5  3  1  0  0  0  0
  6  9  1  0  0  0  0
  6 23  1  1  0  0  0
  7  6  1  0  0  0  0
  8  4  2  0  0  0  0
  8  2  1  0  0  0  0
 10  7  2  0  0  0  0
 11 13  1  0  0  0  0
 15 14  1  0  0  0  0
 15 18  1  0  0  0  0
 15 13  1  0  0  0  0
 16  1  1  6  0  0  0
 16 11  1  0  0  0  0
 17 12  1  1  0  0  0
 17 14  1  0  0  0  0
 17 16  1  0  0  0  0
 18 19  1  0  0  0  0
 19 20  1  0  0  0  0
 20 21  1  0  0  0  0
 21 22  1  0  0  0  0
 23 24  1  0  0  0  0
 24 26  1  0  0  0  0
 26 25  1  0  0  0  0
 27  8  1  0  0  0  0
 28 29  1  0  0  0  0
 29 27  1  0  0  0  0
M  END
>  <MODEL>
9

>  <REMARK>
 VINA RESULT:      -5.7      2.833      7.519
  Name = 
  10 active torsions:
  status: ('A' for Active; 'I' for Inactive)
    1  A    between atoms: N_1  and  C_15
    2  A    between atoms: C_6  and  C_18
    3  A    between atoms: C_6  and  N_22
    4  A    between atoms: C_9  and  C_11
    5  A    between atoms: C_11  and  C_23
    6  A    between atoms: N_14  and  C_29
    7  A    between atoms: C_17  and  C_23
    8  A    between atoms: C_18  and  C_29
    9  A    between atoms: C_20  and  O_27
   10  A    between atoms: O_27  and  C_28
                            x       y       z     vdW  Elec       q    Type
                         _______ _______ _______ _____ _____    ______ ____

>  <TORSDO>
F 10

$$$$
