=
 OpenBabel11042414543D

 53 54  0  0  1  0  0  0  0  0999 V2000
  192.2550  176.7400  145.6270 N   0  0  0  0  0  0  0  0  0  0  0  0
  191.3020  176.5180  146.7270 C   0  0  1  0  0  3  0  0  0  0  0  0
  190.0500  176.1620  146.0450 C   0  0  0  0  0  0  0  0  0  0  0  0
  187.8370  177.4260  146.6030 C   0  0  0  0  0  3  0  0  0  0  0  0
  191.8300  175.9450  144.5410 N   0  0  0  0  0  2  0  0  0  0  0  0
  188.9420  176.7950  146.3240 C   0  0  0  0  0  0  0  0  0  0  0  0
  190.3800  175.8180  144.6490 C   0  0  1  0  0  3  0  0  0  0  0  0
  191.6770  175.3640  147.6610 C   0  0  0  0  0  1  0  0  0  0  0  0
  189.9750  174.3830  144.3690 C   0  0  0  0  0  2  0  0  0  0  0  0
  191.1890  173.4660  144.4610 C   0  0  0  0  0  2  0  0  0  0  0  0
  189.4890  171.8220  143.2590 Cl  0  0  0  0  0  0  0  0  0  0  0  0
  191.1880  172.3330  143.4290 C   0  0  1  0  0  0  0  0  0  0  0  0
  191.7800  172.9470  141.7980 S   0  0  0  0  0  0  0  0  0  0  0  0
  192.1910  171.3080  141.1150 C   0  0  0  0  0  2  0  0  0  0  0  0
  191.5950  171.1620  139.7610 C   0  0  0  0  0  0  0  0  0  0  0  0
  190.9710  170.1080  139.4650 O   0  0  0  0  0  0  0  0  0  0  0  0
  191.7690  172.2020  138.7970 N   0  0  0  0  0  2  0  0  0  0  0  0
  191.1560  172.1570  137.4750 C   0  0  0  0  0  2  0  0  0  0  0  0
  191.5430  173.3710  136.6320 C   0  0  1  0  0  3  0  0  0  0  0  0
  191.9820  174.4270  137.4370 O   0  0  0  0  0  1  0  0  0  0  0  0
  192.5770  173.0210  135.5630 C   0  0  2  0  0  3  0  0  0  0  0  0
  192.6410  171.6390  135.3670 O   0  0  0  0  0  1  0  0  0  0  0  0
  193.9440  173.5490  135.9650 C   0  0  0  0  0  2  0  0  0  0  0  0
  194.6210  172.5840  136.7100 O   0  0  0  0  0  0  0  0  0  0  0  0
  195.5490  173.3060  137.4620 C   0  0  0  0  0  2  0  0  0  0  0  0
  195.0520  173.4720  138.8880 C   0  0  0  0  0  2  0  0  0  0  0  0
  194.1170  175.2160  140.2330 O   0  0  0  0  0  1  0  0  0  0  0  0
  195.1440  174.9230  139.3340 C   0  0  0  0  0  2  0  0  0  0  0  0
  191.9850  171.1190  143.9300 C   0  0  0  0  0  2  0  0  0  0  0  0
  193.1950  171.4860  144.7790 C   0  0  0  0  0  2  0  0  0  0  0  0
  194.0980  170.2810  144.9210 C   0  0  0  0  0  2  0  0  0  0  0  0
  194.7470  170.3320  146.1530 O   0  0  0  0  0  1  0  0  0  0  0  0
  193.6310  176.3740  145.9670 C   0  0  0  0  0  2  0  0  0  0  0  0
  194.3400  175.9890  144.7950 O   0  0  0  0  0  0  0  0  0  0  0  0
  196.2380  173.1100  143.4720 C   0  0  0  0  0  0  0  0  0  0  0  0
  196.7800  173.3720  145.8180 C   0  0  0  0  0  3  0  0  0  0  0  0
  195.3760  174.2080  143.5470 C   0  0  0  0  0  3  0  0  0  0  0  0
  195.2090  174.8940  144.7550 C   0  0  0  0  0  0  0  0  0  0  0  0
  196.9390  172.6910  144.6080 C   0  0  0  0  0  3  0  0  0  0  0  0
  196.4100  172.3860  142.1860 C   0  0  0  0  0  1  0  0  0  0  0  0
  195.9180  174.4700  145.8920 C   0  0  0  0  0  3  0  0  0  0  0  0
  186.6800  176.6840  147.1660 C   0  0  0  0  0  2  0  0  0  0  0  0
  185.4150  177.4920  146.9620 C   0  0  0  0  0  2  0  0  0  0  0  0
  185.5300  178.3450  145.7110 C   0  0  0  0  0  2  0  0  0  0  0  0
  184.4770  178.0580  144.8390 O   0  0  0  0  0  0  0  0  0  0  0  0
  185.0750  177.9250  143.5800 C   0  0  1  0  0  3  0  0  0  0  0  0
  185.8440  176.6070  143.4840 C   0  0  0  0  0  2  0  0  0  0  0  0
  187.9440  177.9180  143.1280 O   0  0  0  0  0  1  0  0  0  0  0  0
  187.6510  175.8890  142.0990 O   0  0  0  0  0  0  0  0  0  0  0  0
  187.1980  176.7740  142.8710 C   0  0  0  0  0  0  0  0  0  0  0  0
  184.0280  178.0290  142.4760 C   0  0  0  0  0  2  0  0  0  0  0  0
  184.6750  178.3160  141.1320 C   0  0  0  0  0  2  0  0  0  0  0  0
  183.7020  178.3520  140.1330 O   0  0  0  0  0  1  0  0  0  0  0  0
  1 33  1  0  0  0  0
  1  2  1  0  0  0  0
  2  8  1  1  0  0  0
  3  6  2  0  0  0  0
  3  2  1  0  0  0  0
  4 42  1  0  0  0  0
  5  7  1  0  0  0  0
  5  1  1  0  0  0  0
  6  4  2  0  0  0  0
  7  9  1  1  0  0  0
  7  3  1  0  0  0  0
  9 10  1  0  0  0  0
 12 11  1  6  0  0  0
 12 29  1  0  0  0  0
 12 10  1  0  0  0  0
 13 12  1  0  0  0  0
 14 13  1  0  0  0  0
 15 14  1  0  0  0  0
 16 15  2  0  0  0  0
 17 15  1  0  0  0  0
 18 17  1  0  0  0  0
 19 20  1  1  0  0  0
 19 18  1  0  0  0  0
 21 22  1  1  0  0  0
 21 23  1  0  0  0  0
 21 19  1  0  0  0  0
 23 24  1  0  0  0  0
 24 25  1  0  0  0  0
 25 26  1  0  0  0  0
 26 28  1  0  0  0  0
 28 27  1  0  0  0  0
 29 30  1  0  0  0  0
 30 31  1  0  0  0  0
 31 32  1  0  0  0  0
 34 33  1  0  0  0  0
 35 37  2  0  0  0  0
 35 39  1  0  0  0  0
 36 41  1  0  0  0  0
 37 38  1  0  0  0  0
 38 34  1  0  0  0  0
 38 41  2  0  0  0  0
 39 36  2  0  0  0  0
 40 35  1  0  0  0  0
 43 42  1  0  0  0  0
 44 43  1  0  0  0  0
 45 44  1  0  0  0  0
 46 51  1  6  0  0  0
 46 45  1  0  0  0  0
 47 46  1  0  0  0  0
 49 50  2  0  0  0  0
 50 48  1  0  0  0  0
 50 47  1  0  0  0  0
 52 51  1  0  0  0  0
 53 52  1  0  0  0  0
M  END
>  <MODEL>
1

>  <REMARK>
 VINA RESULT:      -5.0      0.000      0.000
  Name = 
  29 active torsions:
  status: ('A' for Active; 'I' for Inactive)
    1  A    between atoms: C_1  and  C_12
    2  A    between atoms: C_1  and  O_36
    3  A    between atoms: C_2  and  C_10
    4  A    between atoms: C_3  and  C_22
    5  A    between atoms: C_4  and  C_13
    6  A    between atoms: C_4  and  C_51
    7  A    between atoms: O_6  and  C_19
    8  A    between atoms: O_6  and  C_40
    9  A    between atoms: C_7  and  C_30
   10  A    between atoms: C_7  and  C_50
   11  A    between atoms: C_8  and  C_9
   12  A    between atoms: C_8  and  C_14
   13  A    between atoms: C_10  and  C_35
   14  A    between atoms: C_12  and  C_31
   15  A    between atoms: C_13  and  O_36
   16  A    between atoms: C_14  and  C_23
   17  A    between atoms: N_15  and  C_19
   18  A    between atoms: C_17  and  C_31
   19  A    between atoms: C_17  and  N_52
   20  A    between atoms: C_22  and  S_38
   21  A    between atoms: C_23  and  C_26
   22  A    between atoms: C_23  and  S_38
   23  A    between atoms: C_26  and  C_32
   24  A    between atoms: O_29  and  C_35
   25  A    between atoms: O_29  and  C_41
   26  A    between atoms: C_32  and  C_43
   27  A    between atoms: C_35  and  C_47
   28  A    between atoms: C_41  and  C_50
   29  A    between atoms: C_42  and  C_47
                            x       y       z     vdW  Elec       q    Type
                         _______ _______ _______ _____ _____    ______ ____

>  <TORSDO>
F 29

$$$$
=
 OpenBabel11042414543D

 53 54  0  0  1  0  0  0  0  0999 V2000
  191.9280  176.6900  146.0570 N   0  0  0  0  0  0  0  0  0  0  0  0
  190.8590  176.5390  147.0580 C   0  0  1  0  0  3  0  0  0  0  0  0
  189.6670  176.2190  146.2580 C   0  0  0  0  0  0  0  0  0  0  0  0
  187.4690  177.5900  146.5580 C   0  0  0  0  0  3  0  0  0  0  0  0
  191.5800  175.8860  144.9510 N   0  0  0  0  0  2  0  0  0  0  0  0
  188.5670  176.9050  146.4090 C   0  0  0  0  0  0  0  0  0  0  0  0
  190.1220  175.8230  144.9120 C   0  0  1  0  0  3  0  0  0  0  0  0
  191.0840  175.3950  148.0510 C   0  0  0  0  0  1  0  0  0  0  0  0
  189.6840  174.4000  144.6240 C   0  0  0  0  0  2  0  0  0  0  0  0
  190.8830  173.5510  144.2210 C   0  0  0  0  0  2  0  0  0  0  0  0
  189.1810  171.8850  143.0530 Cl  0  0  0  0  0  0  0  0  0  0  0  0
  190.6970  172.8090  142.8930 C   0  0  1  0  0  0  0  0  0  0  0  0
  190.5110  174.0040  141.5070 S   0  0  0  0  0  0  0  0  0  0  0  0
  189.1120  173.1540  140.7070 C   0  0  0  0  0  2  0  0  0  0  0  0
  189.1480  173.3940  139.2400 C   0  0  0  0  0  0  0  0  0  0  0  0
  188.2860  174.1440  138.7090 O   0  0  0  0  0  0  0  0  0  0  0  0
  190.1370  172.7400  138.4420 N   0  0  0  0  0  2  0  0  0  0  0  0
  190.2740  172.9800  137.0110 C   0  0  0  0  0  2  0  0  0  0  0  0
  191.7310  173.2180  136.6160 C   0  0  1  0  0  3  0  0  0  0  0  0
  191.8790  173.2570  135.2260 O   0  0  0  0  0  1  0  0  0  0  0  0
  192.3060  174.4720  137.2720 C   0  0  2  0  0  3  0  0  0  0  0  0
  192.6770  175.4120  136.3080 O   0  0  0  0  0  1  0  0  0  0  0  0
  193.5080  174.1100  138.1280 C   0  0  0  0  0  2  0  0  0  0  0  0
  193.9420  175.2340  138.8310 O   0  0  0  0  0  0  0  0  0  0  0  0
  194.1550  174.7760  140.1320 C   0  0  0  0  0  2  0  0  0  0  0  0
  195.6340  174.8420  140.4760 C   0  0  0  0  0  2  0  0  0  0  0  0
  197.5380  173.3940  140.5230 O   0  0  0  0  0  1  0  0  0  0  0  0
  196.1770  173.4660  140.8250 C   0  0  0  0  0  2  0  0  0  0  0  0
  191.8290  171.7960  142.6550 C   0  0  0  0  0  2  0  0  0  0  0  0
  192.1050  170.8920  143.8480 C   0  0  0  0  0  2  0  0  0  0  0  0
  193.5890  170.8820  144.1420 C   0  0  0  0  0  2  0  0  0  0  0  0
  194.2620  171.5970  143.1530 O   0  0  0  0  0  1  0  0  0  0  0  0
  193.2440  176.2760  146.5440 C   0  0  0  0  0  2  0  0  0  0  0  0
  193.6470  175.0700  145.9040 O   0  0  0  0  0  0  0  0  0  0  0  0
  196.7150  175.7300  143.9570 C   0  0  0  0  0  0  0  0  0  0  0  0
  196.9540  173.5870  145.0610 C   0  0  0  0  0  3  0  0  0  0  0  0
  195.4440  175.8800  144.5210 C   0  0  0  0  0  3  0  0  0  0  0  0
  194.9200  174.8870  145.3550 C   0  0  0  0  0  0  0  0  0  0  0  0
  197.4690  174.5830  144.2260 C   0  0  0  0  0  3  0  0  0  0  0  0
  197.2640  176.7880  143.0710 C   0  0  0  0  0  1  0  0  0  0  0  0
  195.6840  173.7390  145.6250 C   0  0  0  0  0  3  0  0  0  0  0  0
  186.2280  176.9130  147.0160 C   0  0  0  0  0  2  0  0  0  0  0  0
  185.1070  177.1980  146.0370 C   0  0  0  0  0  2  0  0  0  0  0  0
  185.6610  177.8240  144.7700 C   0  0  0  0  0  2  0  0  0  0  0  0
  184.7340  177.7010  143.7320 O   0  0  0  0  0  0  0  0  0  0  0  0
  185.5040  177.5770  142.5700 C   0  0  1  0  0  3  0  0  0  0  0  0
  184.9130  178.4160  141.4370 C   0  0  0  0  0  2  0  0  0  0  0  0
  182.9870  177.6520  140.0360 O   0  0  0  0  0  0  0  0  0  0  0  0
  182.6370  178.4560  142.1560 O   0  0  0  0  0  1  0  0  0  0  0  0
  183.4510  178.1690  141.2400 C   0  0  0  0  0  0  0  0  0  0  0  0
  186.9530  177.9700  142.8430 C   0  0  0  0  0  2  0  0  0  0  0  0
  187.9150  177.1220  142.0290 C   0  0  0  0  0  2  0  0  0  0  0  0
  187.3970  175.8370  141.8670 O   0  0  0  0  0  1  0  0  0  0  0  0
  1 33  1  0  0  0  0
  1  2  1  0  0  0  0
  2  8  1  1  0  0  0
  3  6  2  0  0  0  0
  3  2  1  0  0  0  0
  4 42  1  0  0  0  0
  5  1  1  0  0  0  0
  6  4  2  0  0  0  0
  7  9  1  1  0  0  0
  7  5  1  0  0  0  0
  7  3  1  0  0  0  0
 10  9  1  0  0  0  0
 12 11  1  1  0  0  0
 12 10  1  0  0  0  0
 13 12  1  0  0  0  0
 14 13  1  0  0  0  0
 15 14  1  0  0  0  0
 16 15  2  0  0  0  0
 17 15  1  0  0  0  0
 18 17  1  0  0  0  0
 19 20  1  6  0  0  0
 19 18  1  0  0  0  0
 19 21  1  0  0  0  0
 21 22  1  6  0  0  0
 21 23  1  0  0  0  0
 23 24  1  0  0  0  0
 24 25  1  0  0  0  0
 25 26  1  0  0  0  0
 26 28  1  0  0  0  0
 27 28  1  0  0  0  0
 29 12  1  0  0  0  0
 29 30  1  0  0  0  0
 30 31  1  0  0  0  0
 32 31  1  0  0  0  0
 34 33  1  0  0  0  0
 35 39  2  0  0  0  0
 35 37  1  0  0  0  0
 36 41  2  0  0  0  0
 37 38  2  0  0  0  0
 38 41  1  0  0  0  0
 38 34  1  0  0  0  0
 39 36  1  0  0  0  0
 40 35  1  0  0  0  0
 43 42  1  0  0  0  0
 44 43  1  0  0  0  0
 45 44  1  0  0  0  0
 46 47  1  6  0  0  0
 46 51  1  0  0  0  0
 46 45  1  0  0  0  0
 48 50  2  0  0  0  0
 50 47  1  0  0  0  0
 50 49  1  0  0  0  0
 52 51  1  0  0  0  0
 53 52  1  0  0  0  0
M  END
>  <MODEL>
2

>  <REMARK>
 VINA RESULT:      -5.0      1.587      2.530
  Name = 
  29 active torsions:
  status: ('A' for Active; 'I' for Inactive)
    1  A    between atoms: C_1  and  C_12
    2  A    between atoms: C_1  and  O_36
    3  A    between atoms: C_2  and  C_10
    4  A    between atoms: C_3  and  C_22
    5  A    between atoms: C_4  and  C_13
    6  A    between atoms: C_4  and  C_51
    7  A    between atoms: O_6  and  C_19
    8  A    between atoms: O_6  and  C_40
    9  A    between atoms: C_7  and  C_30
   10  A    between atoms: C_7  and  C_50
   11  A    between atoms: C_8  and  C_9
   12  A    between atoms: C_8  and  C_14
   13  A    between atoms: C_10  and  C_35
   14  A    between atoms: C_12  and  C_31
   15  A    between atoms: C_13  and  O_36
   16  A    between atoms: C_14  and  C_23
   17  A    between atoms: N_15  and  C_19
   18  A    between atoms: C_17  and  C_31
   19  A    between atoms: C_17  and  N_52
   20  A    between atoms: C_22  and  S_38
   21  A    between atoms: C_23  and  C_26
   22  A    between atoms: C_23  and  S_38
   23  A    between atoms: C_26  and  C_32
   24  A    between atoms: O_29  and  C_35
   25  A    between atoms: O_29  and  C_41
   26  A    between atoms: C_32  and  C_43
   27  A    between atoms: C_35  and  C_47
   28  A    between atoms: C_41  and  C_50
   29  A    between atoms: C_42  and  C_47
                            x       y       z     vdW  Elec       q    Type
                         _______ _______ _______ _____ _____    ______ ____

>  <TORSDO>
F 29

$$$$
=
 OpenBabel11042414543D

 53 54  0  0  1  0  0  0  0  0999 V2000
  188.6340  173.1270  141.9390 N   0  0  0  0  0  0  0  0  0  0  0  0
  189.2940  174.2240  142.6660 C   0  0  1  0  0  3  0  0  0  0  0  0
  189.8900  173.5660  143.8370 C   0  0  0  0  0  0  0  0  0  0  0  0
  189.4310  174.4770  146.2380 C   0  0  0  0  0  3  0  0  0  0  0  0
  189.3380  171.9420  142.2440 N   0  0  0  0  0  2  0  0  0  0  0  0
  189.6600  174.0220  145.0390 C   0  0  0  0  0  0  0  0  0  0  0  0
  189.9000  172.1140  143.5810 C   0  0  1  0  0  3  0  0  0  0  0  0
  190.4200  174.9090  141.8840 C   0  0  0  0  0  1  0  0  0  0  0  0
  191.3280  171.6020  143.5990 C   0  0  0  0  0  2  0  0  0  0  0  0
  191.6360  170.8520  142.3090 C   0  0  0  0  0  2  0  0  0  0  0  0
  193.2880  172.8830  141.8820 Cl  0  0  0  0  0  0  0  0  0  0  0  0
  193.0380  171.1230  141.7560 C   0  0  1  0  0  0  0  0  0  0  0  0
  194.3100  170.2760  142.7820 S   0  0  0  0  0  0  0  0  0  0  0  0
  195.6350  170.3370  141.5320 C   0  0  0  0  0  2  0  0  0  0  0  0
  196.8100  171.0670  142.0770 C   0  0  0  0  0  0  0  0  0  0  0  0
  197.7890  170.4210  142.5350 O   0  0  0  0  0  0  0  0  0  0  0  0
  196.7990  172.4960  142.1110 N   0  0  0  0  0  2  0  0  0  0  0  0
  197.9400  173.2780  142.5670 C   0  0  0  0  0  2  0  0  0  0  0  0
  197.8250  174.7430  142.1460 C   0  0  1  0  0  3  0  0  0  0  0  0
  197.4600  174.8550  140.8000 O   0  0  0  0  0  1  0  0  0  0  0  0
  196.8720  175.5260  143.0480 C   0  0  2  0  0  3  0  0  0  0  0  0
  197.2160  176.8800  143.0770 O   0  0  0  0  0  1  0  0  0  0  0  0
  196.8980  174.9550  144.4560 C   0  0  0  0  0  2  0  0  0  0  0  0
  195.7400  175.3300  145.1370 O   0  0  0  0  0  0  0  0  0  0  0  0
  194.8110  174.3370  144.8250 C   0  0  0  0  0  2  0  0  0  0  0  0
  193.4110  174.9270  144.7730 C   0  0  0  0  0  2  0  0  0  0  0  0
  192.2130  176.9330  144.2590 O   0  0  0  0  0  1  0  0  0  0  0  0
  193.3990  176.2420  144.0100 C   0  0  0  0  0  2  0  0  0  0  0  0
  193.1340  170.7510  140.2680 C   0  0  0  0  0  2  0  0  0  0  0  0
  192.9140  171.9260  139.3260 C   0  0  0  0  0  2  0  0  0  0  0  0
  194.0340  171.9780  138.3110 C   0  0  0  0  0  2  0  0  0  0  0  0
  193.8080  171.0220  137.3220 O   0  0  0  0  0  1  0  0  0  0  0  0
  188.6300  173.3100  140.4870 C   0  0  0  0  0  2  0  0  0  0  0  0
  188.4840  172.0540  139.8340 O   0  0  0  0  0  0  0  0  0  0  0  0
  190.3320  170.1500  137.2640 C   0  0  0  0  0  0  0  0  0  0  0  0
  189.7900  172.3320  136.3600 C   0  0  0  0  0  3  0  0  0  0  0  0
  189.6990  170.4890  138.4640 C   0  0  0  0  0  3  0  0  0  0  0  0
  189.1100  171.7490  138.6220 C   0  0  0  0  0  0  0  0  0  0  0  0
  190.3780  171.0720  136.2130 C   0  0  0  0  0  3  0  0  0  0  0  0
  190.9560  168.8120  137.1050 C   0  0  0  0  0  1  0  0  0  0  0  0
  189.1570  172.6690  137.5600 C   0  0  0  0  0  3  0  0  0  0  0  0
  190.5590  174.9650  147.0740 C   0  0  0  0  0  2  0  0  0  0  0  0
  190.4860  176.4750  147.1860 C   0  0  0  0  0  2  0  0  0  0  0  0
  189.1010  176.9660  146.8020 C   0  0  0  0  0  2  0  0  0  0  0  0
  189.1620  177.6700  145.5960 O   0  0  0  0  0  0  0  0  0  0  0  0
  187.8360  177.7500  145.1560 C   0  0  1  0  0  3  0  0  0  0  0  0
  187.6650  177.0240  143.8220 C   0  0  0  0  0  2  0  0  0  0  0  0
  189.0960  178.2090  142.1470 O   0  0  0  0  0  1  0  0  0  0  0  0
  186.8170  178.4720  142.1240 O   0  0  0  0  0  0  0  0  0  0  0  0
  187.8280  177.9340  142.6460 C   0  0  0  0  0  0  0  0  0  0  0  0
  186.8870  177.1870  146.2100 C   0  0  0  0  0  2  0  0  0  0  0  0
  185.5110  177.8230  146.1040 C   0  0  0  0  0  2  0  0  0  0  0  0
  185.6030  179.1970  146.3310 O   0  0  0  0  0  1  0  0  0  0  0  0
  1  5  1  0  0  0  0
  1  2  1  0  0  0  0
  2  8  1  6  0  0  0
  2  3  1  0  0  0  0
  3  6  2  0  0  0  0
  4 42  1  0  0  0  0
  5  7  1  0  0  0  0
  6  4  2  0  0  0  0
  7  9  1  6  0  0  0
  7  3  1  0  0  0  0
 10  9  1  0  0  0  0
 12 11  1  1  0  0  0
 12 10  1  0  0  0  0
 12 13  1  0  0  0  0
 14 15  1  0  0  0  0
 14 13  1  0  0  0  0
 15 17  1  0  0  0  0
 15 16  2  0  0  0  0
 17 18  1  0  0  0  0
 19 20  1  6  0  0  0
 19 18  1  0  0  0  0
 19 21  1  0  0  0  0
 21 22  1  1  0  0  0
 21 23  1  0  0  0  0
 23 24  1  0  0  0  0
 25 24  1  0  0  0  0
 26 25  1  0  0  0  0
 28 27  1  0  0  0  0
 28 26  1  0  0  0  0
 29 12  1  0  0  0  0
 30 29  1  0  0  0  0
 31 30  1  0  0  0  0
 32 31  1  0  0  0  0
 33  1  1  0  0  0  0
 34 33  1  0  0  0  0
 35 37  1  0  0  0  0
 36 41  2  0  0  0  0
 37 38  2  0  0  0  0
 38 34  1  0  0  0  0
 39 36  1  0  0  0  0
 39 35  2  0  0  0  0
 40 35  1  0  0  0  0
 41 38  1  0  0  0  0
 42 43  1  0  0  0  0
 44 43  1  0  0  0  0
 45 44  1  0  0  0  0
 46 47  1  6  0  0  0
 46 45  1  0  0  0  0
 46 51  1  0  0  0  0
 48 50  1  0  0  0  0
 49 50  2  0  0  0  0
 50 47  1  0  0  0  0
 52 51  1  0  0  0  0
 52 53  1  0  0  0  0
M  END
>  <MODEL>
3

>  <REMARK>
 VINA RESULT:      -4.9      2.586      6.513
  Name = 
  29 active torsions:
  status: ('A' for Active; 'I' for Inactive)
    1  A    between atoms: C_1  and  C_12
    2  A    between atoms: C_1  and  O_36
    3  A    between atoms: C_2  and  C_10
    4  A    between atoms: C_3  and  C_22
    5  A    between atoms: C_4  and  C_13
    6  A    between atoms: C_4  and  C_51
    7  A    between atoms: O_6  and  C_19
    8  A    between atoms: O_6  and  C_40
    9  A    between atoms: C_7  and  C_30
   10  A    between atoms: C_7  and  C_50
   11  A    between atoms: C_8  and  C_9
   12  A    between atoms: C_8  and  C_14
   13  A    between atoms: C_10  and  C_35
   14  A    between atoms: C_12  and  C_31
   15  A    between atoms: C_13  and  O_36
   16  A    between atoms: C_14  and  C_23
   17  A    between atoms: N_15  and  C_19
   18  A    between atoms: C_17  and  C_31
   19  A    between atoms: C_17  and  N_52
   20  A    between atoms: C_22  and  S_38
   21  A    between atoms: C_23  and  C_26
   22  A    between atoms: C_23  and  S_38
   23  A    between atoms: C_26  and  C_32
   24  A    between atoms: O_29  and  C_35
   25  A    between atoms: O_29  and  C_41
   26  A    between atoms: C_32  and  C_43
   27  A    between atoms: C_35  and  C_47
   28  A    between atoms: C_41  and  C_50
   29  A    between atoms: C_42  and  C_47
                            x       y       z     vdW  Elec       q    Type
                         _______ _______ _______ _____ _____    ______ ____

>  <TORSDO>
F 29

$$$$
=
 OpenBabel11042414543D

 53 54  0  0  1  0  0  0  0  0999 V2000
  192.2740  177.0120  146.3710 N   0  0  0  0  0  0  0  0  0  0  0  0
  191.1870  176.6660  147.3010 C   0  0  1  0  0  3  0  0  0  0  0  0
  190.0400  176.3970  146.4220 C   0  0  0  0  0  0  0  0  0  0  0  0
  187.7580  177.5950  146.8270 C   0  0  0  0  0  3  0  0  0  0  0  0
  192.0060  176.3520  145.1520 N   0  0  0  0  0  2  0  0  0  0  0  0
  188.8980  176.9970  146.6250 C   0  0  0  0  0  0  0  0  0  0  0  0
  190.5550  176.2180  145.0520 C   0  0  1  0  0  3  0  0  0  0  0  0
  191.4490  175.4080  148.1350 C   0  0  0  0  0  1  0  0  0  0  0  0
  190.2090  174.8280  144.5540 C   0  0  0  0  0  2  0  0  0  0  0  0
  191.3300  173.8530  144.8910 C   0  0  0  0  0  2  0  0  0  0  0  0
  189.8380  171.7220  144.3690 Cl  0  0  0  0  0  0  0  0  0  0  0  0
  191.3460  172.6010  144.0080 C   0  0  1  0  0  0  0  0  0  0  0  0
  191.3410  173.0670  142.2280 S   0  0  0  0  0  0  0  0  0  0  0  0
  189.9640  171.9740  141.7480 C   0  0  0  0  0  2  0  0  0  0  0  0
  189.9480  171.8020  140.2710 C   0  0  0  0  0  0  0  0  0  0  0  0
  190.7680  171.0170  139.7250 O   0  0  0  0  0  0  0  0  0  0  0  0
  189.0260  172.5580  139.4830 N   0  0  0  0  0  2  0  0  0  0  0  0
  188.9070  172.3910  138.0400 C   0  0  0  0  0  2  0  0  0  0  0  0
  188.5120  173.6970  137.3520 C   0  0  1  0  0  3  0  0  0  0  0  0
  188.1300  174.6660  138.2850 O   0  0  0  0  0  1  0  0  0  0  0  0
  189.6150  174.2160  136.4300 C   0  0  2  0  0  3  0  0  0  0  0  0
  189.6700  173.4690  135.2510 O   0  0  0  0  0  1  0  0  0  0  0  0
  190.9570  174.1610  137.1410 C   0  0  0  0  0  2  0  0  0  0  0  0
  191.9880  174.1740  136.2010 O   0  0  0  0  0  0  0  0  0  0  0  0
  193.1480  173.9610  136.9470 C   0  0  0  0  0  2  0  0  0  0  0  0
  193.7140  175.2870  137.4260 C   0  0  0  0  0  2  0  0  0  0  0  0
  193.7160  174.8440  139.7770 O   0  0  0  0  0  1  0  0  0  0  0  0
  194.5460  175.1050  138.6850 C   0  0  0  0  0  2  0  0  0  0  0  0
  192.5170  171.6730  144.3730 C   0  0  0  0  0  2  0  0  0  0  0  0
  192.4950  170.3390  143.6400 C   0  0  0  0  0  2  0  0  0  0  0  0
  193.8690  169.7100  143.6950 C   0  0  0  0  0  2  0  0  0  0  0  0
  194.0950  168.9880  142.5240 O   0  0  0  0  0  1  0  0  0  0  0  0
  193.5970  176.6030  146.8440 C   0  0  0  0  0  2  0  0  0  0  0  0
  194.5590  176.7570  145.8070 O   0  0  0  0  0  0  0  0  0  0  0  0
  195.8100  173.3800  144.9880 C   0  0  0  0  0  0  0  0  0  0  0  0
  195.7630  174.6940  142.9530 C   0  0  0  0  0  3  0  0  0  0  0  0
  195.3200  174.4740  145.7070 C   0  0  0  0  0  3  0  0  0  0  0  0
  195.0500  175.6830  145.0580 C   0  0  0  0  0  0  0  0  0  0  0  0
  196.0330  173.4900  143.6110 C   0  0  0  0  0  3  0  0  0  0  0  0
  196.0950  172.0990  145.6850 C   0  0  0  0  0  1  0  0  0  0  0  0
  195.2730  175.7870  143.6740 C   0  0  0  0  0  3  0  0  0  0  0  0
  186.5460  176.7950  147.1410 C   0  0  0  0  0  2  0  0  0  0  0  0
  185.5040  177.0150  146.0630 C   0  0  0  0  0  2  0  0  0  0  0  0
  185.4520  178.4810  145.6710 C   0  0  0  0  0  2  0  0  0  0  0  0
  185.0400  178.6050  144.3410 O   0  0  0  0  0  0  0  0  0  0  0  0
  185.9330  177.8130  143.6100 C   0  0  1  0  0  3  0  0  0  0  0  0
  185.2250  177.1510  142.4280 C   0  0  0  0  0  2  0  0  0  0  0  0
  183.0230  178.3160  142.2070 O   0  0  0  0  0  1  0  0  0  0  0  0
  184.6740  178.6420  140.6480 O   0  0  0  0  0  0  0  0  0  0  0  0
  184.3010  178.0850  141.7130 C   0  0  0  0  0  0  0  0  0  0  0  0
  187.1240  178.6420  143.1400 C   0  0  0  0  0  2  0  0  0  0  0  0
  188.2850  177.7520  142.7320 C   0  0  0  0  0  2  0  0  0  0  0  0
  189.0430  178.3800  141.7430 O   0  0  0  0  0  1  0  0  0  0  0  0
  1 33  1  0  0  0  0
  1  2  1  0  0  0  0
  2  8  1  6  0  0  0
  3  6  2  0  0  0  0
  3  2  1  0  0  0  0
  4 42  1  0  0  0  0
  5  1  1  0  0  0  0
  6  4  2  0  0  0  0
  7  9  1  1  0  0  0
  7  5  1  0  0  0  0
  7  3  1  0  0  0  0
  9 10  1  0  0  0  0
 12 11  1  1  0  0  0
 12 29  1  0  0  0  0
 12 10  1  0  0  0  0
 13 12  1  0  0  0  0
 14 13  1  0  0  0  0
 15 14  1  0  0  0  0
 16 15  2  0  0  0  0
 17 15  1  0  0  0  0
 18 17  1  0  0  0  0
 19 18  1  0  0  0  0
 19 20  1  1  0  0  0
 21 22  1  6  0  0  0
 21 23  1  0  0  0  0
 21 19  1  0  0  0  0
 24 25  1  0  0  0  0
 24 23  1  0  0  0  0
 25 26  1  0  0  0  0
 26 28  1  0  0  0  0
 28 27  1  0  0  0  0
 30 31  1  0  0  0  0
 30 29  1  0  0  0  0
 32 31  1  0  0  0  0
 34 33  1  0  0  0  0
 35 40  1  0  0  0  0
 35 37  1  0  0  0  0
 36 39  1  0  0  0  0
 36 41  2  0  0  0  0
 38 37  2  0  0  0  0
 38 34  1  0  0  0  0
 39 35  2  0  0  0  0
 41 38  1  0  0  0  0
 43 42  1  0  0  0  0
 44 43  1  0  0  0  0
 45 44  1  0  0  0  0
 46 47  1  6  0  0  0
 46 45  1  0  0  0  0
 49 50  2  0  0  0  0
 50 48  1  0  0  0  0
 50 47  1  0  0  0  0
 51 46  1  0  0  0  0
 52 51  1  0  0  0  0
 53 52  1  0  0  0  0
M  END
>  <MODEL>
4

>  <REMARK>
 VINA RESULT:      -4.7      1.558      2.359
  Name = 
  29 active torsions:
  status: ('A' for Active; 'I' for Inactive)
    1  A    between atoms: C_1  and  C_12
    2  A    between atoms: C_1  and  O_36
    3  A    between atoms: C_2  and  C_10
    4  A    between atoms: C_3  and  C_22
    5  A    between atoms: C_4  and  C_13
    6  A    between atoms: C_4  and  C_51
    7  A    between atoms: O_6  and  C_19
    8  A    between atoms: O_6  and  C_40
    9  A    between atoms: C_7  and  C_30
   10  A    between atoms: C_7  and  C_50
   11  A    between atoms: C_8  and  C_9
   12  A    between atoms: C_8  and  C_14
   13  A    between atoms: C_10  and  C_35
   14  A    between atoms: C_12  and  C_31
   15  A    between atoms: C_13  and  O_36
   16  A    between atoms: C_14  and  C_23
   17  A    between atoms: N_15  and  C_19
   18  A    between atoms: C_17  and  C_31
   19  A    between atoms: C_17  and  N_52
   20  A    between atoms: C_22  and  S_38
   21  A    between atoms: C_23  and  C_26
   22  A    between atoms: C_23  and  S_38
   23  A    between atoms: C_26  and  C_32
   24  A    between atoms: O_29  and  C_35
   25  A    between atoms: O_29  and  C_41
   26  A    between atoms: C_32  and  C_43
   27  A    between atoms: C_35  and  C_47
   28  A    between atoms: C_41  and  C_50
   29  A    between atoms: C_42  and  C_47
                            x       y       z     vdW  Elec       q    Type
                         _______ _______ _______ _____ _____    ______ ____

>  <TORSDO>
F 29

$$$$
=
 OpenBabel11042414543D

 53 54  0  0  1  0  0  0  0  0999 V2000
  189.3190  177.7730  143.4890 N   0  0  0  0  0  0  0  0  0  0  0  0
  187.9420  177.7570  144.0090 C   0  0  1  0  0  3  0  0  0  0  0  0
  187.1360  177.3080  142.8650 C   0  0  0  0  0  0  0  0  0  0  0  0
  185.0550  178.6820  142.0980 C   0  0  0  0  0  3  0  0  0  0  0  0
  189.3870  176.8120  142.4580 N   0  0  0  0  0  2  0  0  0  0  0  0
  186.0950  177.9960  142.4810 C   0  0  0  0  0  0  0  0  0  0  0  0
  188.0540  176.7270  141.8680 C   0  0  1  0  0  3  0  0  0  0  0  0
  187.7170  176.7720  145.1620 C   0  0  0  0  0  1  0  0  0  0  0  0
  187.6960  175.2710  141.6340 C   0  0  0  0  0  2  0  0  0  0  0  0
  188.9090  174.3830  141.8870 C   0  0  0  0  0  2  0  0  0  0  0  0
  187.1920  172.3660  142.0300 Cl  0  0  0  0  0  0  0  0  0  0  0  0
  188.7420  172.9490  141.3740 C   0  0  1  0  0  0  0  0  0  0  0  0
  188.6450  172.9300  139.5360 S   0  0  0  0  0  0  0  0  0  0  0  0
  190.1050  171.8700  139.2780 C   0  0  0  0  0  2  0  0  0  0  0  0
  191.0240  172.5070  138.2980 C   0  0  0  0  0  0  0  0  0  0  0  0
  191.1200  173.7620  138.2560 O   0  0  0  0  0  0  0  0  0  0  0  0
  191.7600  171.6880  137.3860 N   0  0  0  0  0  2  0  0  0  0  0  0
  192.7280  172.2370  136.4460 C   0  0  0  0  0  2  0  0  0  0  0  0
  194.1590  171.8590  136.8240 C   0  0  1  0  0  3  0  0  0  0  0  0
  194.8300  171.2730  135.7450 O   0  0  0  0  0  1  0  0  0  0  0  0
  194.9380  173.0490  137.3830 C   0  0  2  0  0  3  0  0  0  0  0  0
  196.2880  172.9670  137.0340 O   0  0  0  0  0  1  0  0  0  0  0  0
  194.7980  173.1010  138.8950 C   0  0  0  0  0  2  0  0  0  0  0  0
  195.9730  173.5970  139.4600 O   0  0  0  0  0  0  0  0  0  0  0  0
  195.5610  174.2180  140.6400 C   0  0  0  0  0  2  0  0  0  0  0  0
  195.0490  175.6180  140.3450 C   0  0  0  0  0  2  0  0  0  0  0  0
  195.6150  176.5090  142.4920 O   0  0  0  0  0  1  0  0  0  0  0  0
  194.5530  176.2990  141.6110 C   0  0  0  0  0  2  0  0  0  0  0  0
  189.8470  172.0290  141.9180 C   0  0  0  0  0  2  0  0  0  0  0  0
  190.6670  172.6510  143.0390 C   0  0  0  0  0  2  0  0  0  0  0  0
  190.3090  171.9910  144.3530 C   0  0  0  0  0  2  0  0  0  0  0  0
  189.7320  172.9340  145.2020 O   0  0  0  0  0  1  0  0  0  0  0  0
  190.3270  177.4500  144.4990 C   0  0  0  0  0  2  0  0  0  0  0  0
  191.4070  176.7390  143.9060 O   0  0  0  0  0  0  0  0  0  0  0  0
  193.8730  174.4180  145.3800 C   0  0  0  0  0  0  0  0  0  0  0  0
  194.4520  176.6740  146.0440 C   0  0  0  0  0  3  0  0  0  0  0  0
  192.7780  174.9080  144.6640 C   0  0  0  0  0  3  0  0  0  0  0  0
  192.5100  176.2810  144.6330 C   0  0  0  0  0  0  0  0  0  0  0  0
  194.7100  175.3010  146.0710 C   0  0  0  0  0  3  0  0  0  0  0  0
  194.1490  172.9590  145.4090 C   0  0  0  0  0  1  0  0  0  0  0  0
  193.3570  177.1640  145.3270 C   0  0  0  0  0  3  0  0  0  0  0  0
  183.7050  178.0640  142.1300 C   0  0  0  0  0  2  0  0  0  0  0  0
  183.0160  178.2880  140.8000 C   0  0  0  0  0  2  0  0  0  0  0  0
  181.5090  178.3210  140.9860 C   0  0  0  0  0  2  0  0  0  0  0  0
  181.0430  179.6330  140.8710 O   0  0  0  0  0  0  0  0  0  0  0  0
  179.6520  179.5360  140.9910 C   0  0  1  0  0  3  0  0  0  0  0  0
  178.9740  179.8010  139.6470 C   0  0  0  0  0  2  0  0  0  0  0  0
  179.1210  181.6460  137.9650 O   0  0  0  0  0  0  0  0  0  0  0  0
  178.8150  182.1200  140.1880 O   0  0  0  0  0  1  0  0  0  0  0  0
  178.9550  181.2530  139.2870 C   0  0  0  0  0  0  0  0  0  0  0  0
  179.2560  178.1690  141.5430 C   0  0  0  0  0  2  0  0  0  0  0  0
  178.4000  178.3080  142.7900 C   0  0  0  0  0  2  0  0  0  0  0  0
  178.0860  177.0460  143.2950 O   0  0  0  0  0  1  0  0  0  0  0  0
  1  2  1  0  0  0  0
  1 33  1  0  0  0  0
  2  8  1  1  0  0  0
  3  2  1  0  0  0  0
  4 42  1  0  0  0  0
  4  6  2  0  0  0  0
  5  1  1  0  0  0  0
  6  3  2  0  0  0  0
  7  9  1  1  0  0  0
  7  5  1  0  0  0  0
  7  3  1  0  0  0  0
  9 10  1  0  0  0  0
 12 10  1  0  0  0  0
 12 29  1  0  0  0  0
 12 11  1  1  0  0  0
 13 12  1  0  0  0  0
 14 13  1  0  0  0  0
 15 14  1  0  0  0  0
 16 15  2  0  0  0  0
 17 15  1  0  0  0  0
 18 19  1  0  0  0  0
 18 17  1  0  0  0  0
 19 20  1  6  0  0  0
 19 21  1  0  0  0  0
 21 22  1  1  0  0  0
 21 23  1  0  0  0  0
 23 24  1  0  0  0  0
 24 25  1  0  0  0  0
 26 25  1  0  0  0  0
 26 28  1  0  0  0  0
 28 27  1  0  0  0  0
 29 30  1  0  0  0  0
 30 31  1  0  0  0  0
 31 32  1  0  0  0  0
 34 33  1  0  0  0  0
 34 38  1  0  0  0  0
 35 40  1  0  0  0  0
 35 39  1  0  0  0  0
 36 39  2  0  0  0  0
 37 35  2  0  0  0  0
 38 37  1  0  0  0  0
 38 41  2  0  0  0  0
 41 36  1  0  0  0  0
 43 44  1  0  0  0  0
 43 42  1  0  0  0  0
 45 44  1  0  0  0  0
 45 46  1  0  0  0  0
 46 47  1  6  0  0  0
 46 51  1  0  0  0  0
 48 50  2  0  0  0  0
 50 47  1  0  0  0  0
 50 49  1  0  0  0  0
 51 52  1  0  0  0  0
 52 53  1  0  0  0  0
M  END
>  <MODEL>
5

>  <REMARK>
 VINA RESULT:      -4.6      3.009      4.861
  Name = 
  29 active torsions:
  status: ('A' for Active; 'I' for Inactive)
    1  A    between atoms: C_1  and  C_12
    2  A    between atoms: C_1  and  O_36
    3  A    between atoms: C_2  and  C_10
    4  A    between atoms: C_3  and  C_22
    5  A    between atoms: C_4  and  C_13
    6  A    between atoms: C_4  and  C_51
    7  A    between atoms: O_6  and  C_19
    8  A    between atoms: O_6  and  C_40
    9  A    between atoms: C_7  and  C_30
   10  A    between atoms: C_7  and  C_50
   11  A    between atoms: C_8  and  C_9
   12  A    between atoms: C_8  and  C_14
   13  A    between atoms: C_10  and  C_35
   14  A    between atoms: C_12  and  C_31
   15  A    between atoms: C_13  and  O_36
   16  A    between atoms: C_14  and  C_23
   17  A    between atoms: N_15  and  C_19
   18  A    between atoms: C_17  and  C_31
   19  A    between atoms: C_17  and  N_52
   20  A    between atoms: C_22  and  S_38
   21  A    between atoms: C_23  and  C_26
   22  A    between atoms: C_23  and  S_38
   23  A    between atoms: C_26  and  C_32
   24  A    between atoms: O_29  and  C_35
   25  A    between atoms: O_29  and  C_41
   26  A    between atoms: C_32  and  C_43
   27  A    between atoms: C_35  and  C_47
   28  A    between atoms: C_41  and  C_50
   29  A    between atoms: C_42  and  C_47
                            x       y       z     vdW  Elec       q    Type
                         _______ _______ _______ _____ _____    ______ ____

>  <TORSDO>
F 29

$$$$
=
 OpenBabel11042414543D

 53 54  0  0  1  0  0  0  0  0999 V2000
  189.0760  174.3160  142.0800 N   0  0  0  0  0  0  0  0  0  0  0  0
  189.1390  172.8480  142.1590 C   0  0  1  0  0  3  0  0  0  0  0  0
  190.4260  172.5130  141.5330 C   0  0  0  0  0  0  0  0  0  0  0  0
  190.5420  170.7510  139.6130 C   0  0  0  0  0  3  0  0  0  0  0  0
  190.4050  174.7910  142.0740 N   0  0  0  0  0  2  0  0  0  0  0  0
  190.4840  171.6320  140.5730 C   0  0  0  0  0  0  0  0  0  0  0  0
  191.2250  173.7510  141.4590 C   0  0  1  0  0  3  0  0  0  0  0  0
  189.1490  172.2950  143.5880 C   0  0  0  0  0  1  0  0  0  0  0  0
  192.5060  173.5790  142.2540 C   0  0  0  0  0  2  0  0  0  0  0  0
  193.7030  173.5080  141.3140 C   0  0  0  0  0  2  0  0  0  0  0  0
  194.6390  175.4130  139.7230 Cl  0  0  0  0  0  0  0  0  0  0  0  0
  194.6100  174.7410  141.3730 C   0  0  1  0  0  0  0  0  0  0  0  0
  193.9040  176.0060  142.5080 S   0  0  0  0  0  0  0  0  0  0  0  0
  195.0460  175.6810  143.8910 C   0  0  0  0  0  2  0  0  0  0  0  0
  194.3180  175.7890  145.1830 C   0  0  0  0  0  0  0  0  0  0  0  0
  194.8370  176.4220  146.1400 O   0  0  0  0  0  0  0  0  0  0  0  0
  193.0530  175.1410  145.3370 N   0  0  0  0  0  2  0  0  0  0  0  0
  192.2530  175.2600  146.5490 C   0  0  0  0  0  2  0  0  0  0  0  0
  191.1260  176.2790  146.3830 C   0  0  1  0  0  3  0  0  0  0  0  0
  190.9480  176.6220  145.0390 O   0  0  0  0  0  1  0  0  0  0  0  0
  189.8190  175.7950  147.0110 C   0  0  2  0  0  3  0  0  0  0  0  0
  189.5060  174.5050  146.5760 O   0  0  0  0  0  1  0  0  0  0  0  0
  188.6880  176.7470  146.6610 C   0  0  0  0  0  2  0  0  0  0  0  0
  187.4820  176.0490  146.6140 O   0  0  0  0  0  0  0  0  0  0  0  0
  186.5440  176.9270  147.1590 C   0  0  0  0  0  2  0  0  0  0  0  0
  185.3510  177.0640  146.2280 C   0  0  0  0  0  2  0  0  0  0  0  0
  184.1440  179.0820  145.7850 O   0  0  0  0  0  1  0  0  0  0  0  0
  184.3650  178.0980  146.7500 C   0  0  0  0  0  2  0  0  0  0  0  0
  196.0530  174.3580  141.7380 C   0  0  0  0  0  2  0  0  0  0  0  0
  196.8680  173.8430  140.5600 C   0  0  0  0  0  2  0  0  0  0  0  0
  197.2340  172.3930  140.7930 C   0  0  0  0  0  2  0  0  0  0  0  0
  197.0840  172.0900  142.1460 O   0  0  0  0  0  1  0  0  0  0  0  0
  188.3630  174.9300  143.2010 C   0  0  0  0  0  2  0  0  0  0  0  0
  188.2240  176.3300  142.9870 O   0  0  0  0  0  0  0  0  0  0  0  0
  185.0300  177.8280  141.8930 C   0  0  0  0  0  0  0  0  0  0  0  0
  186.4750  177.6070  139.9610 C   0  0  0  0  0  3  0  0  0  0  0  0
  186.0260  177.2730  142.7030 C   0  0  0  0  0  3  0  0  0  0  0  0
  187.2490  176.8800  142.1490 C   0  0  0  0  0  0  0  0  0  0  0  0
  185.2540  177.9930  140.5220 C   0  0  0  0  0  3  0  0  0  0  0  0
  183.7340  178.2410  142.4880 C   0  0  0  0  0  1  0  0  0  0  0  0
  187.4700  177.0520  140.7720 C   0  0  0  0  0  3  0  0  0  0  0  0
  191.3390  169.5100  139.7920 C   0  0  0  0  0  2  0  0  0  0  0  0
  192.2020  169.2840  138.5680 C   0  0  0  0  0  2  0  0  0  0  0  0
  192.2490  170.5410  137.7170 C   0  0  0  0  0  2  0  0  0  0  0  0
  191.9720  170.2260  136.3840 O   0  0  0  0  0  0  0  0  0  0  0  0
  191.4590  171.4050  135.8320 C   0  0  1  0  0  3  0  0  0  0  0  0
  189.9470  171.4870  136.0440 C   0  0  0  0  0  2  0  0  0  0  0  0
  189.2070  173.3420  137.5490 O   0  0  0  0  0  1  0  0  0  0  0  0
  189.2830  173.6480  135.2770 O   0  0  0  0  0  0  0  0  0  0  0  0
  189.4710  172.8880  136.2630 C   0  0  0  0  0  0  0  0  0  0  0  0
  192.1610  172.6240  136.4230 C   0  0  0  0  0  2  0  0  0  0  0  0
  193.1420  173.2260  135.4320 C   0  0  0  0  0  2  0  0  0  0  0  0
  192.4630  174.0370  134.5230 O   0  0  0  0  0  1  0  0  0  0  0  0
  1  2  1  0  0  0  0
  1 33  1  0  0  0  0
  2  8  1  1  0  0  0
  3  2  1  0  0  0  0
  4 42  1  0  0  0  0
  4  6  2  0  0  0  0
  5  1  1  0  0  0  0
  6  3  2  0  0  0  0
  7  3  1  0  0  0  0
  7  5  1  0  0  0  0
  7  9  1  1  0  0  0
 10 12  1  0  0  0  0
 10  9  1  0  0  0  0
 12 11  1  6  0  0  0
 12 29  1  0  0  0  0
 12 13  1  0  0  0  0
 13 14  1  0  0  0  0
 14 15  1  0  0  0  0
 15 17  1  0  0  0  0
 15 16  2  0  0  0  0
 17 18  1  0  0  0  0
 19 20  1  6  0  0  0
 19 18  1  0  0  0  0
 19 21  1  0  0  0  0
 21 22  1  6  0  0  0
 23 21  1  0  0  0  0
 24 23  1  0  0  0  0
 24 25  1  0  0  0  0
 26 28  1  0  0  0  0
 26 25  1  0  0  0  0
 27 28  1  0  0  0  0
 30 31  1  0  0  0  0
 30 29  1  0  0  0  0
 31 32  1  0  0  0  0
 34 33  1  0  0  0  0
 35 40  1  0  0  0  0
 35 37  1  0  0  0  0
 36 39  1  0  0  0  0
 36 41  2  0  0  0  0
 38 37  2  0  0  0  0
 38 34  1  0  0  0  0
 39 35  2  0  0  0  0
 41 38  1  0  0  0  0
 43 42  1  0  0  0  0
 44 43  1  0  0  0  0
 45 44  1  0  0  0  0
 46 47  1  1  0  0  0
 46 45  1  0  0  0  0
 46 51  1  0  0  0  0
 47 50  1  0  0  0  0
 49 50  2  0  0  0  0
 50 48  1  0  0  0  0
 52 51  1  0  0  0  0
 53 52  1  0  0  0  0
M  END
>  <MODEL>
6

>  <REMARK>
 VINA RESULT:      -4.6      2.592      9.575
  Name = 
  29 active torsions:
  status: ('A' for Active; 'I' for Inactive)
    1  A    between atoms: C_1  and  C_12
    2  A    between atoms: C_1  and  O_36
    3  A    between atoms: C_2  and  C_10
    4  A    between atoms: C_3  and  C_22
    5  A    between atoms: C_4  and  C_13
    6  A    between atoms: C_4  and  C_51
    7  A    between atoms: O_6  and  C_19
    8  A    between atoms: O_6  and  C_40
    9  A    between atoms: C_7  and  C_30
   10  A    between atoms: C_7  and  C_50
   11  A    between atoms: C_8  and  C_9
   12  A    between atoms: C_8  and  C_14
   13  A    between atoms: C_10  and  C_35
   14  A    between atoms: C_12  and  C_31
   15  A    between atoms: C_13  and  O_36
   16  A    between atoms: C_14  and  C_23
   17  A    between atoms: N_15  and  C_19
   18  A    between atoms: C_17  and  C_31
   19  A    between atoms: C_17  and  N_52
   20  A    between atoms: C_22  and  S_38
   21  A    between atoms: C_23  and  C_26
   22  A    between atoms: C_23  and  S_38
   23  A    between atoms: C_26  and  C_32
   24  A    between atoms: O_29  and  C_35
   25  A    between atoms: O_29  and  C_41
   26  A    between atoms: C_32  and  C_43
   27  A    between atoms: C_35  and  C_47
   28  A    between atoms: C_41  and  C_50
   29  A    between atoms: C_42  and  C_47
                            x       y       z     vdW  Elec       q    Type
                         _______ _______ _______ _____ _____    ______ ____

>  <TORSDO>
F 29

$$$$
=
 OpenBabel11042414543D

 53 54  0  0  1  0  0  0  0  0999 V2000
  190.1810  177.6440  144.6530 N   0  0  0  0  0  0  0  0  0  0  0  0
  191.5340  177.2680  144.2090 C   0  0  1  0  0  3  0  0  0  0  0  0
  191.9160  176.1790  145.1200 C   0  0  0  0  0  0  0  0  0  0  0  0
  194.1750  176.2770  146.4200 C   0  0  0  0  0  3  0  0  0  0  0  0
  189.6000  176.4980  145.2350 N   0  0  0  0  0  2  0  0  0  0  0  0
  193.0460  176.2280  145.7700 C   0  0  0  0  0  0  0  0  0  0  0  0
  190.6910  175.7020  145.7890 C   0  0  1  0  0  3  0  0  0  0  0  0
  191.5990  176.7310  142.7760 C   0  0  0  0  0  1  0  0  0  0  0  0
  190.4680  174.2380  145.4590 C   0  0  0  0  0  2  0  0  0  0  0  0
  190.2680  174.0600  143.9590 C   0  0  0  0  0  2  0  0  0  0  0  0
  189.6430  171.7150  145.0310 Cl  0  0  0  0  0  0  0  0  0  0  0  0
  190.0250  172.6080  143.5360 C   0  0  1  0  0  0  0  0  0  0  0  0
  188.5790  172.5000  142.4040 S   0  0  0  0  0  0  0  0  0  0  0  0
  188.4710  174.2860  142.0610 C   0  0  0  0  0  2  0  0  0  0  0  0
  188.4270  174.5170  140.5930 C   0  0  0  0  0  0  0  0  0  0  0  0
  187.8030  175.5110  140.1360 O   0  0  0  0  0  0  0  0  0  0  0  0
  189.0630  173.5870  139.7130 N   0  0  0  0  0  2  0  0  0  0  0  0
  189.1190  173.7850  138.2710 C   0  0  0  0  0  2  0  0  0  0  0  0
  190.5170  173.5100  137.7170 C   0  0  1  0  0  3  0  0  0  0  0  0
  191.4790  173.5510  138.7310 O   0  0  0  0  0  1  0  0  0  0  0  0
  190.5790  172.1930  136.9440 C   0  0  2  0  0  3  0  0  0  0  0  0
  189.9340  172.3100  135.7110 O   0  0  0  0  0  1  0  0  0  0  0  0
  189.9400  171.0800  137.7580 C   0  0  0  0  0  2  0  0  0  0  0  0
  190.4650  169.8490  137.3640 O   0  0  0  0  0  0  0  0  0  0  0  0
  191.6570  169.7280  138.0790 C   0  0  0  0  0  2  0  0  0  0  0  0
  192.2380  168.3360  137.8990 C   0  0  0  0  0  2  0  0  0  0  0  0
  193.0710  169.1470  135.8080 O   0  0  0  0  0  1  0  0  0  0  0  0
  193.3900  168.3480  136.9070 C   0  0  0  0  0  2  0  0  0  0  0  0
  191.2940  171.9790  142.9380 C   0  0  0  0  0  2  0  0  0  0  0  0
  191.0490  170.6500  142.2360 C   0  0  0  0  0  2  0  0  0  0  0  0
  192.2280  169.7310  142.4690 C   0  0  0  0  0  2  0  0  0  0  0  0
  193.1210  170.3370  143.3510 O   0  0  0  0  0  1  0  0  0  0  0  0
  189.3200  178.1070  143.5640 C   0  0  0  0  0  2  0  0  0  0  0  0
  188.1240  177.3360  143.5220 O   0  0  0  0  0  0  0  0  0  0  0  0
  184.6280  178.3120  142.8410 C   0  0  0  0  0  0  0  0  0  0  0  0
  185.2230  179.0890  145.0570 C   0  0  0  0  0  3  0  0  0  0  0  0
  185.9080  177.7720  142.6850 C   0  0  0  0  0  3  0  0  0  0  0  0
  186.8540  177.8880  143.7100 C   0  0  0  0  0  0  0  0  0  0  0  0
  184.2860  178.9710  144.0260 C   0  0  0  0  0  3  0  0  0  0  0  0
  183.6300  178.1850  141.7480 C   0  0  0  0  0  1  0  0  0  0  0  0
  186.5030  178.5490  144.9000 C   0  0  0  0  0  3  0  0  0  0  0  0
  195.2060  175.2310  146.1960 C   0  0  0  0  0  2  0  0  0  0  0  0
  194.7070  174.2460  145.1580 C   0  0  0  0  0  2  0  0  0  0  0  0
  195.8740  173.4960  144.5390 C   0  0  0  0  0  2  0  0  0  0  0  0
  196.2170  174.0750  143.3140 O   0  0  0  0  0  0  0  0  0  0  0  0
  194.9960  174.4160  142.7200 C   0  0  1  0  0  3  0  0  0  0  0  0
  195.0750  175.8030  142.0820 C   0  0  0  0  0  2  0  0  0  0  0  0
  197.4190  176.4050  141.4500 O   0  0  0  0  0  0  0  0  0  0  0  0
  196.5260  177.1320  143.4340 O   0  0  0  0  0  1  0  0  0  0  0  0
  196.3720  176.4930  142.3600 C   0  0  0  0  0  0  0  0  0  0  0  0
  194.5870  173.3640  141.6940 C   0  0  0  0  0  2  0  0  0  0  0  0
  195.2350  173.6310  140.3460 C   0  0  0  0  0  2  0  0  0  0  0  0
  196.2420  172.6950  140.1090 O   0  0  0  0  0  1  0  0  0  0  0  0
  1  5  1  0  0  0  0
  2  8  1  6  0  0  0
  2  1  1  0  0  0  0
  2  3  1  0  0  0  0
  3  6  2  0  0  0  0
  3  7  1  0  0  0  0
  5  7  1  0  0  0  0
  6  4  2  0  0  0  0
  7  9  1  6  0  0  0
 10  9  1  0  0  0  0
 12 10  1  0  0  0  0
 12 11  1  1  0  0  0
 13 12  1  0  0  0  0
 14 13  1  0  0  0  0
 15 14  1  0  0  0  0
 16 15  2  0  0  0  0
 17 15  1  0  0  0  0
 18 17  1  0  0  0  0
 19 18  1  0  0  0  0
 19 20  1  1  0  0  0
 21 22  1  6  0  0  0
 21 19  1  0  0  0  0
 21 23  1  0  0  0  0
 24 23  1  0  0  0  0
 24 25  1  0  0  0  0
 26 25  1  0  0  0  0
 27 28  1  0  0  0  0
 28 26  1  0  0  0  0
 29 12  1  0  0  0  0
 30 31  1  0  0  0  0
 30 29  1  0  0  0  0
 31 32  1  0  0  0  0
 33  1  1  0  0  0  0
 34 33  1  0  0  0  0
 34 38  1  0  0  0  0
 35 39  1  0  0  0  0
 37 35  2  0  0  0  0
 37 38  1  0  0  0  0
 38 41  2  0  0  0  0
 39 36  2  0  0  0  0
 40 35  1  0  0  0  0
 41 36  1  0  0  0  0
 42  4  1  0  0  0  0
 43 42  1  0  0  0  0
 44 43  1  0  0  0  0
 45 44  1  0  0  0  0
 46 51  1  6  0  0  0
 46 45  1  0  0  0  0
 47 50  1  0  0  0  0
 47 46  1  0  0  0  0
 48 50  2  0  0  0  0
 50 49  1  0  0  0  0
 52 51  1  0  0  0  0
 53 52  1  0  0  0  0
M  END
>  <MODEL>
7

>  <REMARK>
 VINA RESULT:      -4.4      2.215      7.491
  Name = 
  29 active torsions:
  status: ('A' for Active; 'I' for Inactive)
    1  A    between atoms: C_1  and  C_12
    2  A    between atoms: C_1  and  O_36
    3  A    between atoms: C_2  and  C_10
    4  A    between atoms: C_3  and  C_22
    5  A    between atoms: C_4  and  C_13
    6  A    between atoms: C_4  and  C_51
    7  A    between atoms: O_6  and  C_19
    8  A    between atoms: O_6  and  C_40
    9  A    between atoms: C_7  and  C_30
   10  A    between atoms: C_7  and  C_50
   11  A    between atoms: C_8  and  C_9
   12  A    between atoms: C_8  and  C_14
   13  A    between atoms: C_10  and  C_35
   14  A    between atoms: C_12  and  C_31
   15  A    between atoms: C_13  and  O_36
   16  A    between atoms: C_14  and  C_23
   17  A    between atoms: N_15  and  C_19
   18  A    between atoms: C_17  and  C_31
   19  A    between atoms: C_17  and  N_52
   20  A    between atoms: C_22  and  S_38
   21  A    between atoms: C_23  and  C_26
   22  A    between atoms: C_23  and  S_38
   23  A    between atoms: C_26  and  C_32
   24  A    between atoms: O_29  and  C_35
   25  A    between atoms: O_29  and  C_41
   26  A    between atoms: C_32  and  C_43
   27  A    between atoms: C_35  and  C_47
   28  A    between atoms: C_41  and  C_50
   29  A    between atoms: C_42  and  C_47
                            x       y       z     vdW  Elec       q    Type
                         _______ _______ _______ _____ _____    ______ ____

>  <TORSDO>
F 29

$$$$
=
 OpenBabel11042414543D

 53 54  0  0  1  0  0  0  0  0999 V2000
  189.0820  174.0780  141.6480 N   0  0  0  0  0  0  0  0  0  0  0  0
  189.2430  172.6190  141.7580 C   0  0  1  0  0  3  0  0  0  0  0  0
  190.5460  172.3580  141.1280 C   0  0  0  0  0  0  0  0  0  0  0  0
  190.7650  170.5670  139.2440 C   0  0  0  0  0  3  0  0  0  0  0  0
  190.3760  174.6400  141.6200 N   0  0  0  0  0  2  0  0  0  0  0  0
  190.6550  171.4620  140.1850 C   0  0  0  0  0  0  0  0  0  0  0  0
  191.2590  173.6440  141.0200 C   0  0  1  0  0  3  0  0  0  0  0  0
  189.3020  172.0990  143.1980 C   0  0  0  0  0  1  0  0  0  0  0  0
  192.5540  173.5770  141.8060 C   0  0  0  0  0  2  0  0  0  0  0  0
  193.7400  173.4460  140.8580 C   0  0  0  0  0  2  0  0  0  0  0  0
  194.6510  175.3760  139.2830 Cl  0  0  0  0  0  0  0  0  0  0  0  0
  194.7020  174.6370  140.9040 C   0  0  1  0  0  0  0  0  0  0  0  0
  194.1290  175.8810  142.1330 S   0  0  0  0  0  0  0  0  0  0  0  0
  195.1790  175.2940  143.5030 C   0  0  0  0  0  2  0  0  0  0  0  0
  194.4790  175.4990  144.7990 C   0  0  0  0  0  0  0  0  0  0  0  0
  195.1510  175.6850  145.8480 O   0  0  0  0  0  0  0  0  0  0  0  0
  193.0520  175.4470  144.8460 N   0  0  0  0  0  2  0  0  0  0  0  0
  192.2970  175.7060  146.0660 C   0  0  0  0  0  2  0  0  0  0  0  0
  191.1640  176.7020  145.8270 C   0  0  1  0  0  3  0  0  0  0  0  0
  191.0230  176.9920  144.4660 O   0  0  0  0  0  1  0  0  0  0  0  0
  189.8440  176.2270  146.4340 C   0  0  2  0  0  3  0  0  0  0  0  0
  189.4250  175.0350  145.8380 O   0  0  0  0  0  1  0  0  0  0  0  0
  188.7760  177.2940  146.2630 C   0  0  0  0  0  2  0  0  0  0  0  0
  187.7480  177.0820  147.1810 O   0  0  0  0  0  0  0  0  0  0  0  0
  186.6080  176.8970  146.3970 C   0  0  0  0  0  2  0  0  0  0  0  0
  186.0570  178.2390  145.9470 C   0  0  0  0  0  2  0  0  0  0  0  0
  184.3050  178.5230  147.5510 O   0  0  0  0  0  1  0  0  0  0  0  0
  185.5310  179.0390  147.1280 C   0  0  0  0  0  2  0  0  0  0  0  0
  196.1480  174.1790  141.1550 C   0  0  0  0  0  2  0  0  0  0  0  0
  196.6070  173.0600  140.2300 C   0  0  0  0  0  2  0  0  0  0  0  0
  197.9400  173.4260  139.6160 C   0  0  0  0  0  2  0  0  0  0  0  0
  197.7290  174.0290  138.3770 O   0  0  0  0  0  1  0  0  0  0  0  0
  188.3380  174.6660  142.7630 C   0  0  0  0  0  2  0  0  0  0  0  0
  188.2680  176.0800  142.6150 O   0  0  0  0  0  0  0  0  0  0  0  0
  185.0790  177.8350  141.9860 C   0  0  0  0  0  0  0  0  0  0  0  0
  186.2410  177.5760  139.8760 C   0  0  0  0  0  3  0  0  0  0  0  0
  186.1280  177.1850  142.6440 C   0  0  0  0  0  3  0  0  0  0  0  0
  187.2370  176.7250  141.9250 C   0  0  0  0  0  0  0  0  0  0  0  0
  185.1360  178.0290  140.6010 C   0  0  0  0  0  3  0  0  0  0  0  0
  183.9050  178.3190  142.7550 C   0  0  0  0  0  1  0  0  0  0  0  0
  187.2890  176.9260  140.5350 C   0  0  0  0  0  3  0  0  0  0  0  0
  191.6450  169.3860  139.4420 C   0  0  0  0  0  2  0  0  0  0  0  0
  193.0940  169.8180  139.3580 C   0  0  0  0  0  2  0  0  0  0  0  0
  193.8620  169.3260  140.5730 C   0  0  0  0  0  2  0  0  0  0  0  0
  194.4100  170.4110  141.2630 O   0  0  0  0  0  0  0  0  0  0  0  0
  194.5400  169.9710  142.5850 C   0  0  1  0  0  3  0  0  0  0  0  0
  195.7210  170.6590  143.2690 C   0  0  0  0  0  2  0  0  0  0  0  0
  197.9340  169.6520  143.8570 O   0  0  0  0  0  1  0  0  0  0  0  0
  197.3470  169.9680  141.6630 O   0  0  0  0  0  0  0  0  0  0  0  0
  197.0380  170.0660  142.8790 C   0  0  0  0  0  0  0  0  0  0  0  0
  193.2470  170.2070  143.3580 C   0  0  0  0  0  2  0  0  0  0  0  0
  193.4970  171.0350  144.6070 C   0  0  0  0  0  2  0  0  0  0  0  0
  192.5490  172.0540  144.7010 O   0  0  0  0  0  1  0  0  0  0  0  0
  1  2  1  0  0  0  0
  1 33  1  0  0  0  0
  2  8  1  1  0  0  0
  3  2  1  0  0  0  0
  4 42  1  0  0  0  0
  4  6  2  0  0  0  0
  5  1  1  0  0  0  0
  6  3  2  0  0  0  0
  7  3  1  0  0  0  0
  7  5  1  0  0  0  0
  7  9  1  1  0  0  0
 10 12  1  0  0  0  0
 10  9  1  0  0  0  0
 12 11  1  6  0  0  0
 12 29  1  0  0  0  0
 12 13  1  0  0  0  0
 13 14  1  0  0  0  0
 14 15  1  0  0  0  0
 15 17  1  0  0  0  0
 15 16  2  0  0  0  0
 17 18  1  0  0  0  0
 19 20  1  6  0  0  0
 19 18  1  0  0  0  0
 19 21  1  0  0  0  0
 21 22  1  6  0  0  0
 23 21  1  0  0  0  0
 23 24  1  0  0  0  0
 25 24  1  0  0  0  0
 26 25  1  0  0  0  0
 26 28  1  0  0  0  0
 28 27  1  0  0  0  0
 30 29  1  0  0  0  0
 31 30  1  0  0  0  0
 32 31  1  0  0  0  0
 34 33  1  0  0  0  0
 35 37  1  0  0  0  0
 35 40  1  0  0  0  0
 36 41  2  0  0  0  0
 36 39  1  0  0  0  0
 38 34  1  0  0  0  0
 38 37  2  0  0  0  0
 39 35  2  0  0  0  0
 41 38  1  0  0  0  0
 43 42  1  0  0  0  0
 43 44  1  0  0  0  0
 44 45  1  0  0  0  0
 45 46  1  0  0  0  0
 46 47  1  1  0  0  0
 46 51  1  0  0  0  0
 49 50  2  0  0  0  0
 50 47  1  0  0  0  0
 50 48  1  0  0  0  0
 51 52  1  0  0  0  0
 52 53  1  0  0  0  0
M  END
>  <MODEL>
8

>  <REMARK>
 VINA RESULT:      -4.4      2.844      9.972
  Name = 
  29 active torsions:
  status: ('A' for Active; 'I' for Inactive)
    1  A    between atoms: C_1  and  C_12
    2  A    between atoms: C_1  and  O_36
    3  A    between atoms: C_2  and  C_10
    4  A    between atoms: C_3  and  C_22
    5  A    between atoms: C_4  and  C_13
    6  A    between atoms: C_4  and  C_51
    7  A    between atoms: O_6  and  C_19
    8  A    between atoms: O_6  and  C_40
    9  A    between atoms: C_7  and  C_30
   10  A    between atoms: C_7  and  C_50
   11  A    between atoms: C_8  and  C_9
   12  A    between atoms: C_8  and  C_14
   13  A    between atoms: C_10  and  C_35
   14  A    between atoms: C_12  and  C_31
   15  A    between atoms: C_13  and  O_36
   16  A    between atoms: C_14  and  C_23
   17  A    between atoms: N_15  and  C_19
   18  A    between atoms: C_17  and  C_31
   19  A    between atoms: C_17  and  N_52
   20  A    between atoms: C_22  and  S_38
   21  A    between atoms: C_23  and  C_26
   22  A    between atoms: C_23  and  S_38
   23  A    between atoms: C_26  and  C_32
   24  A    between atoms: O_29  and  C_35
   25  A    between atoms: O_29  and  C_41
   26  A    between atoms: C_32  and  C_43
   27  A    between atoms: C_35  and  C_47
   28  A    between atoms: C_41  and  C_50
   29  A    between atoms: C_42  and  C_47
                            x       y       z     vdW  Elec       q    Type
                         _______ _______ _______ _____ _____    ______ ____

>  <TORSDO>
F 29

$$$$
=
 OpenBabel11042414543D

 53 54  0  0  1  0  0  0  0  0999 V2000
  192.7380  176.9380  145.1090 N   0  0  0  0  0  0  0  0  0  0  0  0
  191.8190  176.8490  146.2550 C   0  0  1  0  0  3  0  0  0  0  0  0
  190.6220  176.2000  145.7010 C   0  0  0  0  0  0  0  0  0  0  0  0
  188.2670  177.2730  146.0280 C   0  0  0  0  0  3  0  0  0  0  0  0
  192.4180  175.8790  144.2340 N   0  0  0  0  0  2  0  0  0  0  0  0
  189.4440  176.7370  145.8640 C   0  0  0  0  0  0  0  0  0  0  0  0
  190.9950  175.6000  144.4060 C   0  0  1  0  0  3  0  0  0  0  0  0
  192.3350  175.9830  147.4090 C   0  0  0  0  0  1  0  0  0  0  0  0
  190.7750  174.1000  144.4560 C   0  0  0  0  0  2  0  0  0  0  0  0
  192.0850  173.3670  144.1980 C   0  0  0  0  0  2  0  0  0  0  0  0
  190.1610  171.7850  143.2860 Cl  0  0  0  0  0  0  0  0  0  0  0  0
  191.9170  172.0540  143.4260 C   0  0  1  0  0  0  0  0  0  0  0  0
  192.6230  172.2050  141.7340 S   0  0  0  0  0  0  0  0  0  0  0  0
  192.7910  170.4150  141.4360 C   0  0  0  0  0  2  0  0  0  0  0  0
  191.8040  169.9790  140.4120 C   0  0  0  0  0  0  0  0  0  0  0  0
  191.6940  168.7560  140.1340 O   0  0  0  0  0  0  0  0  0  0  0  0
  191.0180  170.9570  139.7290 N   0  0  0  0  0  2  0  0  0  0  0  0
  189.9850  170.5990  138.7650 C   0  0  0  0  0  2  0  0  0  0  0  0
  189.2970  171.8360  138.1900 C   0  0  1  0  0  3  0  0  0  0  0  0
  188.3380  172.3390  139.0750 O   0  0  0  0  0  1  0  0  0  0  0  0
  190.3000  172.9150  137.7840 C   0  0  2  0  0  3  0  0  0  0  0  0
  189.8970  174.1690  138.2510 O   0  0  0  0  0  1  0  0  0  0  0  0
  190.4470  172.9500  136.2730 C   0  0  0  0  0  2  0  0  0  0  0  0
  191.3120  173.9820  135.9070 O   0  0  0  0  0  0  0  0  0  0  0  0
  190.5510  174.7980  135.0680 C   0  0  0  0  0  2  0  0  0  0  0  0
  191.3930  175.9570  134.5600 C   0  0  0  0  0  2  0  0  0  0  0  0
  192.7590  177.7430  135.3770 O   0  0  0  0  0  1  0  0  0  0  0  0
  192.3800  176.4220  135.6200 C   0  0  0  0  0  2  0  0  0  0  0  0
  192.5020  170.8670  144.2080 C   0  0  0  0  0  2  0  0  0  0  0  0
  193.7180  171.2260  145.0520 C   0  0  0  0  0  2  0  0  0  0  0  0
  194.7920  170.1780  144.8640 C   0  0  0  0  0  2  0  0  0  0  0  0
  195.1540  169.6580  146.1060 O   0  0  0  0  0  1  0  0  0  0  0  0
  194.1480  176.8290  145.4830 C   0  0  0  0  0  2  0  0  0  0  0  0
  194.9470  176.6040  144.3270 O   0  0  0  0  0  0  0  0  0  0  0  0
  196.7270  173.4320  144.9710 C   0  0  0  0  0  0  0  0  0  0  0  0
  196.5300  173.7280  142.5750 C   0  0  0  0  0  3  0  0  0  0  0  0
  196.0550  174.6410  145.1770 C   0  0  0  0  0  3  0  0  0  0  0  0
  195.6180  175.4010  144.0860 C   0  0  0  0  0  0  0  0  0  0  0  0
  196.9660  172.9770  143.6700 C   0  0  0  0  0  3  0  0  0  0  0  0
  197.1880  172.6320  146.1340 C   0  0  0  0  0  1  0  0  0  0  0  0
  195.8580  174.9360  142.7820 C   0  0  0  0  0  3  0  0  0  0  0  0
  187.2120  176.5360  146.7700 C   0  0  0  0  0  2  0  0  0  0  0  0
  185.8690  176.7810  146.1140 C   0  0  0  0  0  2  0  0  0  0  0  0
  186.0380  177.6430  144.8750 C   0  0  0  0  0  2  0  0  0  0  0  0
  184.8580  177.6360  144.1250 O   0  0  0  0  0  0  0  0  0  0  0  0
  185.2760  177.5280  142.7940 C   0  0  1  0  0  3  0  0  0  0  0  0
  184.6940  178.6630  141.9510 C   0  0  0  0  0  2  0  0  0  0  0  0
  183.3570  177.9730  139.9540 O   0  0  0  0  0  0  0  0  0  0  0  0
  182.3350  178.3020  141.9810 O   0  0  0  0  0  1  0  0  0  0  0  0
  183.3960  178.2940  141.3050 C   0  0  0  0  0  0  0  0  0  0  0  0
  186.7990  177.5090  142.7100 C   0  0  0  0  0  2  0  0  0  0  0  0
  187.2740  177.8000  141.2960 C   0  0  0  0  0  2  0  0  0  0  0  0
  187.1410  176.6590  140.5050 O   0  0  0  0  0  1  0  0  0  0  0  0
  1 33  1  0  0  0  0
  1  2  1  0  0  0  0
  2  8  1  1  0  0  0
  3  6  2  0  0  0  0
  3  2  1  0  0  0  0
  4 42  1  0  0  0  0
  5  7  1  0  0  0  0
  5  1  1  0  0  0  0
  6  4  2  0  0  0  0
  7  9  1  1  0  0  0
  7  3  1  0  0  0  0
 10  9  1  0  0  0  0
 12 11  1  6  0  0  0
 12 10  1  0  0  0  0
 12 29  1  0  0  0  0
 13 12  1  0  0  0  0
 14 13  1  0  0  0  0
 15 14  1  0  0  0  0
 16 15  2  0  0  0  0
 17 15  1  0  0  0  0
 18 17  1  0  0  0  0
 19 18  1  0  0  0  0
 19 20  1  1  0  0  0
 21 19  1  0  0  0  0
 21 22  1  6  0  0  0
 23 21  1  0  0  0  0
 24 23  1  0  0  0  0
 25 24  1  0  0  0  0
 26 25  1  0  0  0  0
 26 28  1  0  0  0  0
 27 28  1  0  0  0  0
 29 30  1  0  0  0  0
 31 30  1  0  0  0  0
 31 32  1  0  0  0  0
 34 33  1  0  0  0  0
 35 37  1  0  0  0  0
 35 40  1  0  0  0  0
 36 41  2  0  0  0  0
 36 39  1  0  0  0  0
 38 34  1  0  0  0  0
 38 37  2  0  0  0  0
 39 35  2  0  0  0  0
 41 38  1  0  0  0  0
 43 42  1  0  0  0  0
 44 43  1  0  0  0  0
 45 44  1  0  0  0  0
 46 47  1  6  0  0  0
 46 45  1  0  0  0  0
 48 50  2  0  0  0  0
 50 47  1  0  0  0  0
 50 49  1  0  0  0  0
 51 46  1  0  0  0  0
 52 51  1  0  0  0  0
 53 52  1  0  0  0  0
M  END
>  <MODEL>
9

>  <REMARK>
 VINA RESULT:      -4.4      1.754      2.794
  Name = 
  29 active torsions:
  status: ('A' for Active; 'I' for Inactive)
    1  A    between atoms: C_1  and  C_12
    2  A    between atoms: C_1  and  O_36
    3  A    between atoms: C_2  and  C_10
    4  A    between atoms: C_3  and  C_22
    5  A    between atoms: C_4  and  C_13
    6  A    between atoms: C_4  and  C_51
    7  A    between atoms: O_6  and  C_19
    8  A    between atoms: O_6  and  C_40
    9  A    between atoms: C_7  and  C_30
   10  A    between atoms: C_7  and  C_50
   11  A    between atoms: C_8  and  C_9
   12  A    between atoms: C_8  and  C_14
   13  A    between atoms: C_10  and  C_35
   14  A    between atoms: C_12  and  C_31
   15  A    between atoms: C_13  and  O_36
   16  A    between atoms: C_14  and  C_23
   17  A    between atoms: N_15  and  C_19
   18  A    between atoms: C_17  and  C_31
   19  A    between atoms: C_17  and  N_52
   20  A    between atoms: C_22  and  S_38
   21  A    between atoms: C_23  and  C_26
   22  A    between atoms: C_23  and  S_38
   23  A    between atoms: C_26  and  C_32
   24  A    between atoms: O_29  and  C_35
   25  A    between atoms: O_29  and  C_41
   26  A    between atoms: C_32  and  C_43
   27  A    between atoms: C_35  and  C_47
   28  A    between atoms: C_41  and  C_50
   29  A    between atoms: C_42  and  C_47
                            x       y       z     vdW  Elec       q    Type
                         _______ _______ _______ _____ _____    ______ ____

>  <TORSDO>
F 29

$$$$
