=
 OpenBabel11042416303D

 29 31  0  0  1  0  0  0  0  0999 V2000
  189.5060  176.5080  146.1100 N   0  0  0  0  0  0  0  0  0  0  0  0
  189.7250  177.6030  145.1740 C   0  0  0  0  0  2  0  0  0  0  0  0
  190.6300  177.1490  144.0380 C   0  0  2  0  0  3  0  0  0  0  0  0
  191.7340  177.9970  143.9380 O   0  0  0  0  0  1  0  0  0  0  0  0
  189.8860  177.0750  142.7030 C   0  0  0  0  0  2  0  0  0  0  0  0
  189.6160  175.6680  142.2720 C   0  0  0  0  0  0  0  0  0  0  0  0
  190.4680  174.6450  142.6640 O   0  0  0  0  0  1  0  0  0  0  0  0
  188.6270  175.4140  141.5370 O   0  0  0  0  0  0  0  0  0  0  0  0
  188.2780  175.8280  145.7170 C   0  0  0  0  0  2  0  0  0  0  0  0
  184.6440  178.2690  144.1640 C   0  0  0  0  0  0  0  0  0  0  0  0
  186.2280  176.8770  146.6850 C   0  0  2  0  0  3  0  0  0  0  0  0
  185.8900  179.2770  147.4860 C   0  0  0  0  0  2  0  0  0  0  0  0
  184.7500  177.0850  146.3340 C   0  0  0  0  0  2  0  0  0  0  0  0
  186.6920  177.9780  147.6480 C   0  0  0  0  0  2  0  0  0  0  0  0
  186.4760  176.5420  144.1340 C   0  0  0  0  0  2  0  0  0  0  0  0
  187.1690  176.8400  145.4670 C   0  0  2  0  0  3  0  0  0  0  0  0
  183.6990  178.7150  143.4210 N   0  0  0  0  0  2  0  0  0  0  0  0
  185.9270  177.8270  143.5180 C   0  0  0  0  0  2  0  0  0  0  0  0
  184.5440  178.4490  145.6490 C   0  0  1  0  0  3  0  0  0  0  0  0
  185.5070  179.4760  146.0870 N   0  0  0  0  0  2  0  0  0  0  0  0
  190.6290  175.5720  146.0210 C   0  0  0  0  0  2  0  0  0  0  0  0
  191.1950  175.3200  147.2800 O   0  0  0  0  0  0  0  0  0  0  0  0
  194.9590  175.3640  145.5030 C   0  0  0  0  0  2  0  0  0  0  0  0
  194.3110  176.6100  146.0500 C   0  0  0  0  0  0  0  0  0  0  0  0
  194.9200  177.8780  145.8350 N   0  0  0  0  0  1  0  0  0  0  0  0
  192.7880  174.2410  145.8790 C   0  0  0  0  0  3  0  0  0  0  0  0
  193.9180  174.3260  145.1610 C   0  0  0  0  0  3  0  0  0  0  0  0
  192.5620  175.1810  147.0370 C   0  0  1  0  0  3  0  0  0  0  0  0
  193.1840  176.5270  146.7640 C   0  0  0  0  0  3  0  0  0  0  0  0
  2  1  1  0  0  0  0
  3  4  1  6  0  0  0
  3  2  1  0  0  0  0
  5  3  1  0  0  0  0
  6  7  1  0  0  0  0
  6  5  1  0  0  0  0
  8  6  2  0  0  0  0
  9  1  1  0  0  0  0
 10 19  1  0  0  0  0
 11 13  1  6  0  0  0
 11 14  1  0  0  0  0
 12 14  1  0  0  0  0
 15 16  1  0  0  0  0
 16  9  1  1  0  0  0
 16 11  1  0  0  0  0
 17 10  2  0  0  0  0
 18 15  1  0  0  0  0
 18 10  1  0  0  0  0
 19 20  1  0  0  0  0
 19 13  1  1  0  0  0
 20 12  1  0  0  0  0
 21  1  1  0  0  0  0
 21 22  1  0  0  0  0
 23 24  1  0  0  0  0
 24 29  2  0  0  0  0
 25 24  1  0  0  0  0
 26 28  1  0  0  0  0
 27 23  1  0  0  0  0
 27 26  2  0  0  0  0
 28 22  1  6  0  0  0
 29 28  1  0  0  0  0
M  END
>  <MODEL>
1

>  <REMARK>
 VINA RESULT:      -6.8      0.000      0.000
  Name = 
  9 active torsions:
  status: ('A' for Active; 'I' for Inactive)
    1  A    between atoms: C_4  and  C_7
    2  A    between atoms: C_4  and  C_15
    3  A    between atoms: C_6  and  C_15
    4  A    between atoms: C_7  and  N_18
    5  A    between atoms: C_10  and  C_12
    6  A    between atoms: C_12  and  N_18
    7  A    between atoms: N_18  and  C_29
    8  A    between atoms: C_26  and  O_28
    9  A    between atoms: O_28  and  C_29
                            x       y       z     vdW  Elec       q    Type
                         _______ _______ _______ _____ _____    ______ ____

>  <TORSDO>
F 9

$$$$
=
 OpenBabel11042416303D

 29 31  0  0  1  0  0  0  0  0999 V2000
  187.3610  177.7170  143.2420 N   0  0  0  0  0  0  0  0  0  0  0  0
  186.2500  178.5900  142.8860 C   0  0  0  0  0  2  0  0  0  0  0  0
  185.0120  178.2170  143.6880 C   0  0  2  0  0  3  0  0  0  0  0  0
  183.9380  177.9850  142.8270 O   0  0  0  0  0  1  0  0  0  0  0  0
  184.6510  179.2860  144.7210 C   0  0  0  0  0  2  0  0  0  0  0  0
  184.7460  178.7830  146.1260 C   0  0  0  0  0  0  0  0  0  0  0  0
  185.6240  179.3790  147.0220 O   0  0  0  0  0  1  0  0  0  0  0  0
  184.0450  177.8050  146.4930 O   0  0  0  0  0  0  0  0  0  0  0  0
  187.8630  178.1470  144.5420 C   0  0  0  0  0  2  0  0  0  0  0  0
  192.0240  176.2960  145.4600 C   0  0  0  0  0  0  0  0  0  0  0  0
  189.0070  177.0910  146.4950 C   0  0  2  0  0  3  0  0  0  0  0  0
  189.1780  174.6160  147.0980 C   0  0  0  0  0  2  0  0  0  0  0  0
  190.3910  177.0570  147.1550 C   0  0  0  0  0  2  0  0  0  0  0  0
  188.2420  175.8030  146.8280 C   0  0  0  0  0  2  0  0  0  0  0  0
  190.3470  177.8630  144.4230 C   0  0  0  0  0  2  0  0  0  0  0  0
  189.0390  177.2800  144.9670 C   0  0  2  0  0  3  0  0  0  0  0  0
  193.2840  176.0610  145.4580 N   0  0  0  0  0  2  0  0  0  0  0  0
  191.3690  176.7540  144.1860 C   0  0  0  0  0  2  0  0  0  0  0  0
  191.2080  175.8580  146.6390 C   0  0  1  0  0  3  0  0  0  0  0  0
  190.3740  174.7020  146.2590 N   0  0  0  0  0  2  0  0  0  0  0  0
  186.8720  176.3400  143.3420 C   0  0  0  0  0  2  0  0  0  0  0  0
  186.9250  175.6800  142.1050 O   0  0  0  0  0  0  0  0  0  0  0  0
  190.4610  173.5660  141.5100 C   0  0  0  0  0  2  0  0  0  0  0  0
  189.5160  173.8900  140.3810 C   0  0  0  0  0  0  0  0  0  0  0  0
  189.7440  173.3430  139.0880 N   0  0  0  0  0  1  0  0  0  0  0  0
  188.6990  174.3940  143.0350 C   0  0  0  0  0  3  0  0  0  0  0  0
  189.7340  173.5640  142.8330 C   0  0  0  0  0  3  0  0  0  0  0  0
  188.2670  175.3360  141.9390 C   0  0  1  0  0  3  0  0  0  0  0  0
  188.4840  174.7150  140.5830 C   0  0  0  0  0  3  0  0  0  0  0  0
  1 21  1  0  0  0  0
  1  9  1  0  0  0  0
  2  1  1  0  0  0  0
  2  3  1  0  0  0  0
  3  4  1  6  0  0  0
  3  5  1  0  0  0  0
  5  6  1  0  0  0  0
  6  8  2  0  0  0  0
  6  7  1  0  0  0  0
 10 19  1  0  0  0  0
 11 14  1  6  0  0  0
 11 13  1  0  0  0  0
 14 12  1  0  0  0  0
 15 16  1  0  0  0  0
 16  9  1  1  0  0  0
 16 11  1  0  0  0  0
 17 10  2  0  0  0  0
 18 15  1  0  0  0  0
 18 10  1  0  0  0  0
 19 13  1  6  0  0  0
 20 19  1  0  0  0  0
 20 12  1  0  0  0  0
 22 21  1  0  0  0  0
 23 27  1  0  0  0  0
 24 29  2  0  0  0  0
 24 23  1  0  0  0  0
 25 24  1  0  0  0  0
 27 26  2  0  0  0  0
 28 22  1  1  0  0  0
 28 26  1  0  0  0  0
 29 28  1  0  0  0  0
M  END
>  <MODEL>
2

>  <REMARK>
 VINA RESULT:      -6.7      3.039      6.291
  Name = 
  9 active torsions:
  status: ('A' for Active; 'I' for Inactive)
    1  A    between atoms: C_4  and  C_7
    2  A    between atoms: C_4  and  C_15
    3  A    between atoms: C_6  and  C_15
    4  A    between atoms: C_7  and  N_18
    5  A    between atoms: C_10  and  C_12
    6  A    between atoms: C_12  and  N_18
    7  A    between atoms: N_18  and  C_29
    8  A    between atoms: C_26  and  O_28
    9  A    between atoms: O_28  and  C_29
                            x       y       z     vdW  Elec       q    Type
                         _______ _______ _______ _____ _____    ______ ____

>  <TORSDO>
F 9

$$$$
=
 OpenBabel11042416303D

 29 31  0  0  1  0  0  0  0  0999 V2000
  189.5230  176.5290  145.3720 N   0  0  0  0  0  0  0  0  0  0  0  0
  190.8480  176.8750  145.8690 C   0  0  0  0  0  2  0  0  0  0  0  0
  191.3040  175.8540  146.9020 C   0  0  2  0  0  3  0  0  0  0  0  0
  191.2990  176.4270  148.1740 O   0  0  0  0  0  1  0  0  0  0  0  0
  192.6840  175.2800  146.5750 C   0  0  0  0  0  2  0  0  0  0  0  0
  193.6530  176.3310  146.1340 C   0  0  0  0  0  0  0  0  0  0  0  0
  194.0050  176.4350  144.7950 O   0  0  0  0  0  0  0  0  0  0  0  0
  194.1670  177.1080  146.9800 O   0  0  0  0  0  1  0  0  0  0  0  0
  189.3860  175.0790  145.4450 C   0  0  0  0  0  2  0  0  0  0  0  0
  188.8010  174.2640  140.9100 C   0  0  0  0  0  0  0  0  0  0  0  0
  190.6340  173.9220  143.6170 C   0  0  2  0  0  3  0  0  0  0  0  0
  190.3920  171.5190  142.7920 C   0  0  0  0  0  2  0  0  0  0  0  0
  190.9500  174.1030  142.1270 C   0  0  0  0  0  2  0  0  0  0  0  0
  190.7030  172.4340  143.9840 C   0  0  0  0  0  2  0  0  0  0  0  0
  188.6740  175.5220  143.0880 C   0  0  0  0  0  2  0  0  0  0  0  0
  189.2680  174.4880  144.0480 C   0  0  2  0  0  3  0  0  0  0  0  0
  188.4660  174.3900  139.6790 N   0  0  0  0  0  2  0  0  0  0  0  0
  187.8980  174.8290  141.9700 C   0  0  0  0  0  2  0  0  0  0  0  0
  189.9290  173.3400  141.2620 C   0  0  1  0  0  3  0  0  0  0  0  0
  189.3920  172.1340  141.9180 N   0  0  0  0  0  2  0  0  0  0  0  0
  188.5130  177.1560  146.2280 C   0  0  0  0  0  2  0  0  0  0  0  0
  187.6800  176.2010  146.8320 O   0  0  0  0  0  0  0  0  0  0  0  0
  184.4490  178.7210  146.0970 C   0  0  0  0  0  2  0  0  0  0  0  0
  185.0530  177.8510  145.0240 C   0  0  0  0  0  0  0  0  0  0  0  0
  184.6190  177.9850  143.6770 N   0  0  0  0  0  1  0  0  0  0  0  0
  186.3720  178.0710  147.5090 C   0  0  0  0  0  3  0  0  0  0  0  0
  185.4510  178.9940  147.1930 C   0  0  0  0  0  3  0  0  0  0  0  0
  186.4010  176.7540  146.7740 C   0  0  1  0  0  3  0  0  0  0  0  0
  185.9730  176.9340  145.3390 C   0  0  0  0  0  3  0  0  0  0  0  0
  1  9  1  0  0  0  0
  1  2  1  0  0  0  0
  1 21  1  0  0  0  0
  2  3  1  0  0  0  0
  3  4  1  1  0  0  0
  5  3  1  0  0  0  0
  6  5  1  0  0  0  0
  6  8  1  0  0  0  0
  7  6  2  0  0  0  0
 10 19  1  0  0  0  0
 10 18  1  0  0  0  0
 11 13  1  6  0  0  0
 11 14  1  0  0  0  0
 11 16  1  0  0  0  0
 12 14  1  0  0  0  0
 15 16  1  0  0  0  0
 16  9  1  1  0  0  0
 17 10  2  0  0  0  0
 18 15  1  0  0  0  0
 19 20  1  0  0  0  0
 19 13  1  1  0  0  0
 20 12  1  0  0  0  0
 21 22  1  0  0  0  0
 23 27  1  0  0  0  0
 24 29  2  0  0  0  0
 24 23  1  0  0  0  0
 25 24  1  0  0  0  0
 27 26  2  0  0  0  0
 28 22  1  6  0  0  0
 28 26  1  0  0  0  0
 29 28  1  0  0  0  0
M  END
>  <MODEL>
3

>  <REMARK>
 VINA RESULT:      -6.5      2.580      6.769
  Name = 
  9 active torsions:
  status: ('A' for Active; 'I' for Inactive)
    1  A    between atoms: C_4  and  C_7
    2  A    between atoms: C_4  and  C_15
    3  A    between atoms: C_6  and  C_15
    4  A    between atoms: C_7  and  N_18
    5  A    between atoms: C_10  and  C_12
    6  A    between atoms: C_12  and  N_18
    7  A    between atoms: N_18  and  C_29
    8  A    between atoms: C_26  and  O_28
    9  A    between atoms: O_28  and  C_29
                            x       y       z     vdW  Elec       q    Type
                         _______ _______ _______ _____ _____    ______ ____

>  <TORSDO>
F 9

$$$$
=
 OpenBabel11042416303D

 29 31  0  0  1  0  0  0  0  0999 V2000
  189.6570  175.8940  143.4200 N   0  0  0  0  0  0  0  0  0  0  0  0
  188.8950  174.9280  144.2000 C   0  0  0  0  0  2  0  0  0  0  0  0
  189.7790  174.3040  145.2700 C   0  0  2  0  0  3  0  0  0  0  0  0
  189.7110  172.9120  145.1950 O   0  0  0  0  0  1  0  0  0  0  0  0
  189.4100  174.7850  146.6750 C   0  0  0  0  0  2  0  0  0  0  0  0
  190.4640  175.6560  147.2800 C   0  0  0  0  0  0  0  0  0  0  0  0
  191.5570  175.0840  147.9170 O   0  0  0  0  0  1  0  0  0  0  0  0
  190.3510  176.9080  147.2310 O   0  0  0  0  0  0  0  0  0  0  0  0
  189.3600  177.2210  143.9460 C   0  0  0  0  0  2  0  0  0  0  0  0
  184.9910  178.2070  145.1760 C   0  0  0  0  0  0  0  0  0  0  0  0
  187.4250  178.4730  142.9830 C   0  0  2  0  0  3  0  0  0  0  0  0
  185.4900  177.5840  141.5750 C   0  0  0  0  0  2  0  0  0  0  0  0
  186.2930  179.4000  143.4430 C   0  0  0  0  0  2  0  0  0  0  0  0
  187.0110  177.7500  141.6940 C   0  0  0  0  0  2  0  0  0  0  0  0
  187.4530  177.7690  145.4700 C   0  0  0  0  0  2  0  0  0  0  0  0
  187.8550  177.4310  144.0320 C   0  0  2  0  0  3  0  0  0  0  0  0
  183.9490  178.4780  145.8720 N   0  0  0  0  0  2  0  0  0  0  0  0
  186.0320  177.2900  145.7550 C   0  0  0  0  0  2  0  0  0  0  0  0
  185.0130  178.5910  143.7270 C   0  0  1  0  0  3  0  0  0  0  0  0
  184.8890  177.3810  142.8940 N   0  0  0  0  0  2  0  0  0  0  0  0
  191.0870  175.6170  143.5810 C   0  0  0  0  0  2  0  0  0  0  0  0
  191.8100  176.7820  143.8820 O   0  0  0  0  0  0  0  0  0  0  0  0
  194.9560  175.1440  146.0610 C   0  0  0  0  0  2  0  0  0  0  0  0
  193.9180  174.2900  145.3780 C   0  0  0  0  0  0  0  0  0  0  0  0
  193.9070  172.8840  145.5900 N   0  0  0  0  0  1  0  0  0  0  0  0
  193.5210  177.0810  145.5090 C   0  0  0  0  0  3  0  0  0  0  0  0
  194.4130  176.5240  146.3430 C   0  0  0  0  0  3  0  0  0  0  0  0
  193.0670  176.3290  144.2830 C   0  0  1  0  0  3  0  0  0  0  0  0
  193.0280  174.8450  144.5490 C   0  0  0  0  0  3  0  0  0  0  0  0
  1 21  1  0  0  0  0
  1  9  1  0  0  0  0
  1  2  1  0  0  0  0
  2  3  1  0  0  0  0
  3  4  1  1  0  0  0
  3  5  1  0  0  0  0
  5  6  1  0  0  0  0
  6  7  1  0  0  0  0
  8  6  2  0  0  0  0
 10 18  1  0  0  0  0
 10 17  2  0  0  0  0
 11 14  1  6  0  0  0
 11 13  1  0  0  0  0
 11 16  1  0  0  0  0
 12 14  1  0  0  0  0
 12 20  1  0  0  0  0
 15 18  1  0  0  0  0
 16  9  1  1  0  0  0
 16 15  1  0  0  0  0
 19 13  1  6  0  0  0
 19 10  1  0  0  0  0
 20 19  1  0  0  0  0
 21 22  1  0  0  0  0
 23 27  1  0  0  0  0
 24 25  1  0  0  0  0
 24 23  1  0  0  0  0
 26 27  2  0  0  0  0
 28 22  1  1  0  0  0
 28 29  1  0  0  0  0
 28 26  1  0  0  0  0
 29 24  2  0  0  0  0
M  END
>  <MODEL>
4

>  <REMARK>
 VINA RESULT:      -6.5      1.957      3.755
  Name = 
  9 active torsions:
  status: ('A' for Active; 'I' for Inactive)
    1  A    between atoms: C_4  and  C_7
    2  A    between atoms: C_4  and  C_15
    3  A    between atoms: C_6  and  C_15
    4  A    between atoms: C_7  and  N_18
    5  A    between atoms: C_10  and  C_12
    6  A    between atoms: C_12  and  N_18
    7  A    between atoms: N_18  and  C_29
    8  A    between atoms: C_26  and  O_28
    9  A    between atoms: O_28  and  C_29
                            x       y       z     vdW  Elec       q    Type
                         _______ _______ _______ _____ _____    ______ ____

>  <TORSDO>
F 9

$$$$
=
 OpenBabel11042416303D

 29 31  0  0  1  0  0  0  0  0999 V2000
  188.9870  175.7940  143.1140 N   0  0  0  0  0  0  0  0  0  0  0  0
  190.4300  175.6670  143.2700 C   0  0  0  0  0  2  0  0  0  0  0  0
  190.7720  175.3140  144.7110 C   0  0  2  0  0  3  0  0  0  0  0  0
  191.8970  174.4880  144.7460 O   0  0  0  0  0  1  0  0  0  0  0  0
  189.5980  174.6550  145.4370 C   0  0  0  0  0  2  0  0  0  0  0  0
  189.4580  175.1260  146.8490 C   0  0  0  0  0  0  0  0  0  0  0  0
  190.0540  176.3140  147.2490 O   0  0  0  0  0  0  0  0  0  0  0  0
  188.8170  174.4340  147.6820 O   0  0  0  0  0  1  0  0  0  0  0  0
  188.6780  177.2140  142.9880 C   0  0  0  0  0  2  0  0  0  0  0  0
  184.7990  178.1850  145.3520 C   0  0  0  0  0  0  0  0  0  0  0  0
  186.7180  178.7430  142.7420 C   0  0  2  0  0  3  0  0  0  0  0  0
  184.4460  178.2670  141.6800 C   0  0  0  0  0  2  0  0  0  0  0  0
  185.8120  179.6230  143.6110 C   0  0  0  0  0  2  0  0  0  0  0  0
  185.9660  178.3180  141.4740 C   0  0  0  0  0  2  0  0  0  0  0  0
  187.2090  177.5550  144.9850 C   0  0  0  0  0  2  0  0  0  0  0  0
  187.2560  177.4890  143.4560 C   0  0  2  0  0  3  0  0  0  0  0  0
  183.9640  178.3710  146.3060 N   0  0  0  0  0  2  0  0  0  0  0  0
  185.8410  177.1120  145.4980 C   0  0  0  0  0  2  0  0  0  0  0  0
  184.5480  178.8490  144.0300 C   0  0  1  0  0  3  0  0  0  0  0  0
  184.1260  177.8390  143.0430 N   0  0  0  0  0  2  0  0  0  0  0  0
  188.5760  175.0980  141.8920 C   0  0  0  0  0  2  0  0  0  0  0  0
  187.6730  174.0590  142.1670 O   0  0  0  0  0  0  0  0  0  0  0  0
  190.2600  171.3580  140.3400 C   0  0  0  0  0  2  0  0  0  0  0  0
  190.1950  171.5250  141.8360 C   0  0  0  0  0  0  0  0  0  0  0  0
  191.1370  170.8560  142.6650 N   0  0  0  0  0  1  0  0  0  0  0  0
  188.8030  173.3510  140.1950 C   0  0  0  0  0  3  0  0  0  0  0  0
  189.7680  172.6020  139.6400 C   0  0  0  0  0  3  0  0  0  0  0  0
  188.2030  172.9440  141.5180 C   0  0  1  0  0  3  0  0  0  0  0  0
  189.2350  172.2730  142.3890 C   0  0  0  0  0  3  0  0  0  0  0  0
  1  2  1  0  0  0  0
  2  3  1  0  0  0  0
  3  4  1  6  0  0  0
  3  5  1  0  0  0  0
  5  6  1  0  0  0  0
  6  7  2  0  0  0  0
  6  8  1  0  0  0  0
  9  1  1  0  0  0  0
 10 18  1  0  0  0  0
 10 17  2  0  0  0  0
 11 14  1  6  0  0  0
 11 16  1  0  0  0  0
 11 13  1  0  0  0  0
 12 20  1  0  0  0  0
 14 12  1  0  0  0  0
 15 18  1  0  0  0  0
 16  9  1  1  0  0  0
 16 15  1  0  0  0  0
 19 13  1  6  0  0  0
 19 10  1  0  0  0  0
 20 19  1  0  0  0  0
 21 22  1  0  0  0  0
 21  1  1  0  0  0  0
 23 24  1  0  0  0  0
 24 29  2  0  0  0  0
 24 25  1  0  0  0  0
 26 28  1  0  0  0  0
 27 26  2  0  0  0  0
 27 23  1  0  0  0  0
 28 22  1  1  0  0  0
 28 29  1  0  0  0  0
M  END
>  <MODEL>
5

>  <REMARK>
 VINA RESULT:      -6.4      2.624      5.108
  Name = 
  9 active torsions:
  status: ('A' for Active; 'I' for Inactive)
    1  A    between atoms: C_4  and  C_7
    2  A    between atoms: C_4  and  C_15
    3  A    between atoms: C_6  and  C_15
    4  A    between atoms: C_7  and  N_18
    5  A    between atoms: C_10  and  C_12
    6  A    between atoms: C_12  and  N_18
    7  A    between atoms: N_18  and  C_29
    8  A    between atoms: C_26  and  O_28
    9  A    between atoms: O_28  and  C_29
                            x       y       z     vdW  Elec       q    Type
                         _______ _______ _______ _____ _____    ______ ____

>  <TORSDO>
F 9

$$$$
=
 OpenBabel11042416303D

 29 31  0  0  1  0  0  0  0  0999 V2000
  191.3770  176.3860  144.4670 N   0  0  0  0  0  0  0  0  0  0  0  0
  192.7300  176.8370  144.7630 C   0  0  0  0  0  2  0  0  0  0  0  0
  193.0160  176.6960  146.2510 C   0  0  2  0  0  3  0  0  0  0  0  0
  194.3940  176.6960  146.4740 O   0  0  0  0  0  1  0  0  0  0  0  0
  192.3750  175.4400  146.8450 C   0  0  0  0  0  2  0  0  0  0  0  0
  191.1920  175.7500  147.7050 C   0  0  0  0  0  0  0  0  0  0  0  0
  190.0830  174.9160  147.6900 O   0  0  0  0  0  0  0  0  0  0  0  0
  191.1920  176.7800  148.4280 O   0  0  0  0  0  1  0  0  0  0  0  0
  190.5520  177.5690  144.2500 C   0  0  0  0  0  2  0  0  0  0  0  0
  186.1320  176.9080  145.5160 C   0  0  0  0  0  0  0  0  0  0  0  0
  188.2880  177.9920  143.2840 C   0  0  2  0  0  3  0  0  0  0  0  0
  186.8120  176.4150  141.9240 C   0  0  0  0  0  2  0  0  0  0  0  0
  186.8960  178.4490  143.7380 C   0  0  0  0  0  2  0  0  0  0  0  0
  188.1650  177.1340  142.0180 C   0  0  0  0  0  2  0  0  0  0  0  0
  188.5840  177.4160  145.7870 C   0  0  0  0  0  2  0  0  0  0  0  0
  189.0770  177.2110  144.3520 C   0  0  2  0  0  3  0  0  0  0  0  0
  185.0670  176.7940  146.2200 N   0  0  0  0  0  2  0  0  0  0  0  0
  187.4410  176.4550  146.1020 C   0  0  0  0  0  2  0  0  0  0  0  0
  186.0060  177.2330  144.0580 C   0  0  1  0  0  3  0  0  0  0  0  0
  186.3340  176.0410  143.2560 N   0  0  0  0  0  2  0  0  0  0  0  0
  191.3980  175.5780  143.2450 C   0  0  0  0  0  2  0  0  0  0  0  0
  192.2580  174.4760  143.3670 O   0  0  0  0  0  0  0  0  0  0  0  0
  188.9750  171.9160  143.3350 C   0  0  0  0  0  2  0  0  0  0  0  0
  189.1930  172.9600  142.2710 C   0  0  0  0  0  0  0  0  0  0  0  0
  188.1860  173.1970  141.2950 N   0  0  0  0  0  1  0  0  0  0  0  0
  190.8450  172.9760  144.5590 C   0  0  0  0  0  3  0  0  0  0  0  0
  189.6910  172.2930  144.6100 C   0  0  0  0  0  3  0  0  0  0  0  0
  191.4320  173.3610  143.2240 C   0  0  1  0  0  3  0  0  0  0  0  0
  190.3420  173.6430  142.2210 C   0  0  0  0  0  3  0  0  0  0  0  0
  1  2  1  0  0  0  0
  2  3  1  0  0  0  0
  3  4  1  6  0  0  0
  3  5  1  0  0  0  0
  5  6  1  0  0  0  0
  6  8  1  0  0  0  0
  7  6  2  0  0  0  0
  9  1  1  0  0  0  0
 10 18  1  0  0  0  0
 10 17  2  0  0  0  0
 11 14  1  6  0  0  0
 11 13  1  0  0  0  0
 11 16  1  0  0  0  0
 12 14  1  0  0  0  0
 12 20  1  0  0  0  0
 15 18  1  0  0  0  0
 16  9  1  1  0  0  0
 16 15  1  0  0  0  0
 19 13  1  6  0  0  0
 19 10  1  0  0  0  0
 20 19  1  0  0  0  0
 21 22  1  0  0  0  0
 21  1  1  0  0  0  0
 23 27  1  0  0  0  0
 24 23  1  0  0  0  0
 25 24  1  0  0  0  0
 26 27  2  0  0  0  0
 28 22  1  1  0  0  0
 28 26  1  0  0  0  0
 29 24  2  0  0  0  0
 29 28  1  0  0  0  0
M  END
>  <MODEL>
6

>  <REMARK>
 VINA RESULT:      -6.4      2.444      4.812
  Name = 
  9 active torsions:
  status: ('A' for Active; 'I' for Inactive)
    1  A    between atoms: C_4  and  C_7
    2  A    between atoms: C_4  and  C_15
    3  A    between atoms: C_6  and  C_15
    4  A    between atoms: C_7  and  N_18
    5  A    between atoms: C_10  and  C_12
    6  A    between atoms: C_12  and  N_18
    7  A    between atoms: N_18  and  C_29
    8  A    between atoms: C_26  and  O_28
    9  A    between atoms: O_28  and  C_29
                            x       y       z     vdW  Elec       q    Type
                         _______ _______ _______ _____ _____    ______ ____

>  <TORSDO>
F 9

$$$$
=
 OpenBabel11042416303D

 29 31  0  0  1  0  0  0  0  0999 V2000
  189.8320  175.6690  145.5300 N   0  0  0  0  0  0  0  0  0  0  0  0
  190.2000  174.2690  145.6930 C   0  0  0  0  0  2  0  0  0  0  0  0
  189.6910  173.4520  144.5140 C   0  0  2  0  0  3  0  0  0  0  0  0
  190.0980  172.1230  144.6430 O   0  0  0  0  0  1  0  0  0  0  0  0
  190.1520  174.0270  143.1730 C   0  0  0  0  0  2  0  0  0  0  0  0
  189.0650  174.0320  142.1460 C   0  0  0  0  0  0  0  0  0  0  0  0
  188.8160  175.1770  141.4020 O   0  0  0  0  0  0  0  0  0  0  0  0
  188.3610  173.0040  141.9690 O   0  0  0  0  0  1  0  0  0  0  0  0
  188.7660  175.9610  146.4810 C   0  0  0  0  0  2  0  0  0  0  0  0
  185.7690  178.2060  143.7320 C   0  0  0  0  0  0  0  0  0  0  0  0
  186.4120  176.7840  146.6250 C   0  0  2  0  0  3  0  0  0  0  0  0
  185.5680  179.0950  147.3070 C   0  0  0  0  0  2  0  0  0  0  0  0
  185.1620  176.8990  145.7430 C   0  0  0  0  0  2  0  0  0  0  0  0
  186.3710  177.8540  147.7240 C   0  0  0  0  0  2  0  0  0  0  0  0
  187.6340  176.6320  144.3520 C   0  0  0  0  0  2  0  0  0  0  0  0
  187.7420  176.8970  145.8570 C   0  0  2  0  0  3  0  0  0  0  0  0
  185.1360  178.6240  142.6990 N   0  0  0  0  0  2  0  0  0  0  0  0
  187.2370  177.9070  143.6120 C   0  0  0  0  0  2  0  0  0  0  0  0
  185.1000  178.2830  145.0720 C   0  0  1  0  0  3  0  0  0  0  0  0
  185.7240  179.3510  145.8750 N   0  0  0  0  0  2  0  0  0  0  0  0
  190.9940  176.5070  145.8310 C   0  0  0  0  0  2  0  0  0  0  0  0
  191.5700  177.0340  144.6650 O   0  0  0  0  0  0  0  0  0  0  0  0
  195.3210  175.3760  145.3790 C   0  0  0  0  0  2  0  0  0  0  0  0
  194.5830  175.1700  144.0810 C   0  0  0  0  0  0  0  0  0  0  0  0
  195.0960  174.2660  143.1100 N   0  0  0  0  0  1  0  0  0  0  0  0
  193.2390  176.3970  146.2380 C   0  0  0  0  0  3  0  0  0  0  0  0
  194.3600  175.7060  146.4950 C   0  0  0  0  0  3  0  0  0  0  0  0
  192.9440  176.8530  144.8310 C   0  0  1  0  0  3  0  0  0  0  0  0
  193.4650  175.8560  143.8260 C   0  0  0  0  0  3  0  0  0  0  0  0
  1  2  1  0  0  0  0
  1 21  1  0  0  0  0
  1  9  1  0  0  0  0
  3  4  1  1  0  0  0
  3  2  1  0  0  0  0
  5  3  1  0  0  0  0
  6  5  1  0  0  0  0
  7  6  2  0  0  0  0
  8  6  1  0  0  0  0
 10 19  1  0  0  0  0
 11 13  1  6  0  0  0
 11 14  1  0  0  0  0
 12 14  1  0  0  0  0
 15 16  1  0  0  0  0
 16  9  1  1  0  0  0
 16 11  1  0  0  0  0
 17 10  2  0  0  0  0
 18 10  1  0  0  0  0
 18 15  1  0  0  0  0
 19 13  1  1  0  0  0
 19 20  1  0  0  0  0
 20 12  1  0  0  0  0
 22 21  1  0  0  0  0
 23 27  1  0  0  0  0
 24 23  1  0  0  0  0
 25 24  1  0  0  0  0
 26 27  2  0  0  0  0
 28 22  1  1  0  0  0
 28 26  1  0  0  0  0
 29 24  2  0  0  0  0
 29 28  1  0  0  0  0
M  END
>  <MODEL>
7

>  <REMARK>
 VINA RESULT:      -6.4      1.635      2.364
  Name = 
  9 active torsions:
  status: ('A' for Active; 'I' for Inactive)
    1  A    between atoms: C_4  and  C_7
    2  A    between atoms: C_4  and  C_15
    3  A    between atoms: C_6  and  C_15
    4  A    between atoms: C_7  and  N_18
    5  A    between atoms: C_10  and  C_12
    6  A    between atoms: C_12  and  N_18
    7  A    between atoms: N_18  and  C_29
    8  A    between atoms: C_26  and  O_28
    9  A    between atoms: O_28  and  C_29
                            x       y       z     vdW  Elec       q    Type
                         _______ _______ _______ _____ _____    ______ ____

>  <TORSDO>
F 9

$$$$
=
 OpenBabel11042416303D

 29 31  0  0  1  0  0  0  0  0999 V2000
  189.7010  176.7620  145.8380 N   0  0  0  0  0  0  0  0  0  0  0  0
  190.0680  177.8350  144.9230 C   0  0  0  0  0  2  0  0  0  0  0  0
  189.9900  177.3460  143.4840 C   0  0  2  0  0  3  0  0  0  0  0  0
  191.0920  177.8080  142.7620 O   0  0  0  0  0  1  0  0  0  0  0  0
  188.6860  177.7670  142.8020 C   0  0  0  0  0  2  0  0  0  0  0  0
  187.9880  176.6220  142.1410 C   0  0  0  0  0  0  0  0  0  0  0  0
  187.4160  176.7870  140.8860 O   0  0  0  0  0  0  0  0  0  0  0  0
  187.9000  175.5140  142.7290 O   0  0  0  0  0  1  0  0  0  0  0  0
  190.8550  176.4870  146.6840 C   0  0  0  0  0  2  0  0  0  0  0  0
  195.0000  175.4210  144.8780 C   0  0  0  0  0  0  0  0  0  0  0  0
  191.9830  174.4600  145.7580 C   0  0  2  0  0  3  0  0  0  0  0  0
  192.1360  173.6880  143.3290 C   0  0  0  0  0  2  0  0  0  0  0  0
  193.3630  173.7910  145.7620 C   0  0  0  0  0  2  0  0  0  0  0  0
  191.2080  174.0430  144.5000 C   0  0  0  0  0  2  0  0  0  0  0  0
  193.3370  176.5720  146.3800 C   0  0  0  0  0  2  0  0  0  0  0  0
  192.0240  175.9970  145.8420 C   0  0  2  0  0  3  0  0  0  0  0  0
  196.2590  175.4000  144.6370 N   0  0  0  0  0  2  0  0  0  0  0  0
  194.3550  176.7270  145.2520 C   0  0  0  0  0  2  0  0  0  0  0  0
  194.1750  174.2200  144.5260 C   0  0  1  0  0  3  0  0  0  0  0  0
  193.3370  174.5240  143.3520 N   0  0  0  0  0  2  0  0  0  0  0  0
  188.5820  177.2080  146.6730 C   0  0  0  0  0  2  0  0  0  0  0  0
  187.6700  176.1690  146.9150 O   0  0  0  0  0  0  0  0  0  0  0  0
  184.5570  178.7540  145.9360 C   0  0  0  0  0  2  0  0  0  0  0  0
  185.1800  177.8240  144.9270 C   0  0  0  0  0  0  0  0  0  0  0  0
  184.8100  177.9160  143.5570 N   0  0  0  0  0  1  0  0  0  0  0  0
  186.3940  178.1030  147.4590 C   0  0  0  0  0  3  0  0  0  0  0  0
  185.5180  179.0400  147.0650 C   0  0  0  0  0  3  0  0  0  0  0  0
  186.4130  176.7580  146.7780 C   0  0  1  0  0  3  0  0  0  0  0  0
  186.0550  176.8920  145.3190 C   0  0  0  0  0  3  0  0  0  0  0  0
  1 21  1  0  0  0  0
  1  9  1  0  0  0  0
  2  1  1  0  0  0  0
  3  4  1  6  0  0  0
  3  2  1  0  0  0  0
  5  3  1  0  0  0  0
  6  8  1  0  0  0  0
  6  5  1  0  0  0  0
  7  6  2  0  0  0  0
 10 18  1  0  0  0  0
 11 14  1  6  0  0  0
 11 13  1  0  0  0  0
 11 16  1  0  0  0  0
 12 20  1  0  0  0  0
 12 14  1  0  0  0  0
 16 15  1  0  0  0  0
 16  9  1  1  0  0  0
 17 10  2  0  0  0  0
 18 15  1  0  0  0  0
 19 10  1  0  0  0  0
 19 13  1  1  0  0  0
 20 19  1  0  0  0  0
 21 22  1  0  0  0  0
 23 27  1  0  0  0  0
 24 29  2  0  0  0  0
 24 23  1  0  0  0  0
 25 24  1  0  0  0  0
 27 26  2  0  0  0  0
 28 22  1  6  0  0  0
 28 26  1  0  0  0  0
 29 28  1  0  0  0  0
M  END
>  <MODEL>
8

>  <REMARK>
 VINA RESULT:      -6.3      1.686      7.238
  Name = 
  9 active torsions:
  status: ('A' for Active; 'I' for Inactive)
    1  A    between atoms: C_4  and  C_7
    2  A    between atoms: C_4  and  C_15
    3  A    between atoms: C_6  and  C_15
    4  A    between atoms: C_7  and  N_18
    5  A    between atoms: C_10  and  C_12
    6  A    between atoms: C_12  and  N_18
    7  A    between atoms: N_18  and  C_29
    8  A    between atoms: C_26  and  O_28
    9  A    between atoms: O_28  and  C_29
                            x       y       z     vdW  Elec       q    Type
                         _______ _______ _______ _____ _____    ______ ____

>  <TORSDO>
F 9

$$$$
=
 OpenBabel11042416303D

 29 31  0  0  1  0  0  0  0  0999 V2000
  187.3580  176.5580  143.3030 N   0  0  0  0  0  0  0  0  0  0  0  0
  186.7970  177.8520  142.9410 C   0  0  0  0  0  2  0  0  0  0  0  0
  185.3660  177.9640  143.4460 C   0  0  2  0  0  3  0  0  0  0  0  0
  184.4720  177.8400  142.3810 O   0  0  0  0  0  1  0  0  0  0  0  0
  185.1230  179.2710  144.2030 C   0  0  0  0  0  2  0  0  0  0  0  0
  184.9170  179.0560  145.6690 C   0  0  0  0  0  0  0  0  0  0  0  0
  183.6850  178.6250  146.1430 O   0  0  0  0  0  0  0  0  0  0  0  0
  185.8530  179.2870  146.4770 O   0  0  0  0  0  1  0  0  0  0  0  0
  188.6540  176.4370  142.6470 C   0  0  0  0  0  2  0  0  0  0  0  0
  189.2970  172.5060  140.2560 C   0  0  0  0  0  0  0  0  0  0  0  0
  190.2470  174.5130  142.6800 C   0  0  2  0  0  3  0  0  0  0  0  0
  190.0120  172.2650  143.8670 C   0  0  0  0  0  2  0  0  0  0  0  0
  190.9870  173.5970  141.6970 C   0  0  0  0  0  2  0  0  0  0  0  0
  190.0620  173.7920  144.0210 C   0  0  0  0  0  2  0  0  0  0  0  0
  188.6840  174.9150  140.6610 C   0  0  0  0  0  2  0  0  0  0  0  0
  188.8780  175.0070  142.1770 C   0  0  2  0  0  3  0  0  0  0  0  0
  189.3360  171.6470  139.3060 N   0  0  0  0  0  2  0  0  0  0  0  0
  188.1910  173.5240  140.2680 C   0  0  0  0  0  2  0  0  0  0  0  0
  190.1820  172.3070  141.4500 C   0  0  1  0  0  3  0  0  0  0  0  0
  189.3650  171.8970  142.6070 N   0  0  0  0  0  2  0  0  0  0  0  0
  187.5430  176.5070  144.7560 C   0  0  0  0  0  2  0  0  0  0  0  0
  188.2650  177.6150  145.2260 O   0  0  0  0  0  0  0  0  0  0  0  0
  190.7480  175.2980  147.6330 C   0  0  0  0  0  2  0  0  0  0  0  0
  191.2870  176.2050  146.5560 C   0  0  0  0  0  0  0  0  0  0  0  0
  192.6720  176.1780  146.2350 N   0  0  0  0  0  1  0  0  0  0  0  0
  188.5030  175.7670  146.7080 C   0  0  0  0  0  3  0  0  0  0  0  0
  189.3190  174.9100  147.3400 C   0  0  0  0  0  3  0  0  0  0  0  0
  189.0140  177.1250  146.2960 C   0  0  1  0  0  3  0  0  0  0  0  0
  190.4740  177.0580  145.9250 C   0  0  0  0  0  3  0  0  0  0  0  0
  1 21  1  0  0  0  0
  2  1  1  0  0  0  0
  2  3  1  0  0  0  0
  3  4  1  6  0  0  0
  3  5  1  0  0  0  0
  5  6  1  0  0  0  0
  6  7  2  0  0  0  0
  6  8  1  0  0  0  0
  9  1  1  0  0  0  0
 10 18  1  0  0  0  0
 10 19  1  0  0  0  0
 11 13  1  6  0  0  0
 11 14  1  0  0  0  0
 12 14  1  0  0  0  0
 15 16  1  0  0  0  0
 16  9  1  6  0  0  0
 16 11  1  0  0  0  0
 17 10  2  0  0  0  0
 18 15  1  0  0  0  0
 19 13  1  1  0  0  0
 19 20  1  0  0  0  0
 20 12  1  0  0  0  0
 21 22  1  0  0  0  0
 24 23  1  0  0  0  0
 25 24  1  0  0  0  0
 26 27  2  0  0  0  0
 27 23  1  0  0  0  0
 28 22  1  6  0  0  0
 28 26  1  0  0  0  0
 29 28  1  0  0  0  0
 29 24  2  0  0  0  0
M  END
>  <MODEL>
9

>  <REMARK>
 VINA RESULT:      -6.3      3.473      6.164
  Name = 
  9 active torsions:
  status: ('A' for Active; 'I' for Inactive)
    1  A    between atoms: C_4  and  C_7
    2  A    between atoms: C_4  and  C_15
    3  A    between atoms: C_6  and  C_15
    4  A    between atoms: C_7  and  N_18
    5  A    between atoms: C_10  and  C_12
    6  A    between atoms: C_12  and  N_18
    7  A    between atoms: N_18  and  C_29
    8  A    between atoms: C_26  and  O_28
    9  A    between atoms: O_28  and  C_29
                            x       y       z     vdW  Elec       q    Type
                         _______ _______ _______ _____ _____    ______ ____

>  <TORSDO>
F 9

$$$$
