=
 OpenBabel11042413403D

 42 45  0  0  1  0  0  0  0  0999 V2000
  192.5590  175.9440  145.4620 C   0  0  0  0  0  2  0  0  0  0  0  0
  193.7880  173.3400  145.5870 C   0  0  0  0  0  3  0  0  0  0  0  0
  194.4330  170.9880  142.1900 O   0  0  0  0  0  1  0  0  0  0  0  0
  194.2270  172.0240  145.7100 C   0  0  0  0  0  3  0  0  0  0  0  0
  193.5310  173.8920  144.3220 C   0  0  0  0  0  0  0  0  0  0  0  0
  193.4640  173.6670  141.8030 C   0  0  0  0  0  0  0  0  0  0  0  0
  192.8050  172.8100  140.8600 N   0  0  0  0  0  2  0  0  0  0  0  0
  195.1170  176.7820  141.5380 O   0  0  0  0  0  0  0  0  0  0  0  0
  194.1970  171.7860  143.3020 C   0  0  0  0  0  0  0  0  0  0  0  0
  194.2830  176.1130  143.6470 C   0  0  0  0  0  2  0  0  0  0  0  0
  193.1080  175.3230  144.1810 C   0  0  2  0  0  3  0  0  0  0  0  0
  194.4390  175.9290  142.1670 C   0  0  0  0  0  0  0  0  0  0  0  0
  193.8080  174.8700  141.4240 N   0  0  0  0  0  0  0  0  0  0  0  0
  193.7520  173.1210  143.1600 C   0  0  0  0  0  0  0  0  0  0  0  0
  194.4280  171.2500  144.5700 C   0  0  0  0  0  3  0  0  0  0  0  0
  192.4400  173.2240  139.5100 C   0  0  0  0  0  2  0  0  0  0  0  0
  190.9660  173.1240  139.3090 C   0  0  0  0  0  0  0  0  0  0  0  0
  190.4510  172.9300  138.0220 C   0  0  0  0  0  3  0  0  0  0  0  0
  188.7160  173.1300  140.2080 C   0  0  0  0  0  3  0  0  0  0  0  0
  188.2020  172.9380  138.9220 C   0  0  0  0  0  3  0  0  0  0  0  0
  190.0980  173.2210  140.4020 C   0  0  0  0  0  3  0  0  0  0  0  0
  189.0690  172.8370  137.8300 C   0  0  0  0  0  3  0  0  0  0  0  0
  189.3500  174.7040  147.1040 N   0  0  0  0  0  1  0  0  0  0  0  0
  190.6770  175.1950  146.9420 C   0  0  0  0  0  0  0  0  0  0  0  0
  191.1580  175.5800  145.6440 N   0  0  0  0  0  0  0  0  0  0  0  0
  191.4290  175.2770  147.9500 O   0  0  0  0  0  0  0  0  0  0  0  0
  190.2970  175.5140  144.4670 C   0  0  0  0  0  2  0  0  0  0  0  0
  188.2550  176.8030  144.1280 N   0  0  0  0  0  0  0  0  0  0  0  0
  190.1190  177.3400  142.7790 C   0  0  0  0  0  2  0  0  0  0  0  0
  189.7020  176.8800  144.1460 C   0  0  2  0  0  3  0  0  0  0  0  0
  188.9870  178.0490  142.2200 N   0  0  0  0  0  2  0  0  0  0  0  0
  187.8290  177.6440  143.0110 C   0  0  1  0  0  3  0  0  0  0  0  0
  186.8500  176.8800  142.1380 C   0  0  0  0  0  2  0  0  0  0  0  0
  187.0780  175.5080  142.2600 O   0  0  0  0  0  1  0  0  0  0  0  0
  187.7890  177.4350  145.3550 C   0  0  0  0  0  2  0  0  0  0  0  0
  186.5400  176.7370  145.8690 C   0  0  0  0  0  2  0  0  0  0  0  0
  186.0970  177.3610  147.5190 S   0  0  0  0  0  0  0  0  0  0  0  0
  185.2060  178.7900  146.8250 C   0  0  0  0  0  2  0  0  0  0  0  0
  184.4470  178.9780  144.4100 C   0  0  0  0  0  0  0  0  0  0  0  0
  183.6930  178.5680  143.4910 O   0  0  0  0  0  0  0  0  0  0  0  0
  185.3870  180.1020  144.1310 C   0  0  0  0  0  1  0  0  0  0  0  0
  184.3820  178.3660  145.7030 N   0  0  0  0  0  2  0  0  0  0  0  0
  1 25  1  0  0  0  0
  2  4  1  0  0  0  0
  3  9  1  0  0  0  0
  5  2  2  0  0  0  0
  6 14  1  0  0  0  0
  7  6  1  0  0  0  0
  8 12  2  0  0  0  0
  9 15  1  0  0  0  0
 10 11  1  0  0  0  0
 11  5  1  0  0  0  0
 11  1  1  1  0  0  0
 12 10  1  0  0  0  0
 13  6  2  0  0  0  0
 13 12  1  0  0  0  0
 14  9  2  0  0  0  0
 14  5  1  0  0  0  0
 15  4  2  0  0  0  0
 16  7  1  0  0  0  0
 17 16  1  0  0  0  0
 17 21  1  0  0  0  0
 18 17  2  0  0  0  0
 19 21  2  0  0  0  0
 20 19  1  0  0  0  0
 22 18  1  0  0  0  0
 22 20  2  0  0  0  0
 24 23  1  0  0  0  0
 24 26  2  0  0  0  0
 25 24  1  0  0  0  0
 27 25  1  0  0  0  0
 28 30  1  0  0  0  0
 28 35  1  0  0  0  0
 29 30  1  0  0  0  0
 30 27  1  6  0  0  0
 31 29  1  0  0  0  0
 31 32  1  0  0  0  0
 32 33  1  6  0  0  0
 32 28  1  0  0  0  0
 33 34  1  0  0  0  0
 35 36  1  0  0  0  0
 36 37  1  0  0  0  0
 38 37  1  0  0  0  0
 39 42  1  0  0  0  0
 40 39  2  0  0  0  0
 41 39  1  0  0  0  0
 42 38  1  0  0  0  0
M  END
>  <MODEL>
1

>  <REMARK>
 VINA RESULT:      -6.9      0.000      0.000
  Name = 
  12 active torsions:
  status: ('A' for Active; 'I' for Inactive)
    1  A    between atoms: C_1  and  C_39
    2  A    between atoms: N_6  and  C_19
    3  A    between atoms: N_6  and  C_37
    4  A    between atoms: C_10  and  C_40
    5  A    between atoms: C_12  and  N_21
    6  A    between atoms: C_12  and  C_24
    7  A    between atoms: S_13  and  C_24
    8  A    between atoms: S_13  and  C_25
    9  A    between atoms: C_19  and  C_33
   10  A    between atoms: C_25  and  N_42
   11  A    between atoms: N_26  and  C_39
   12  A    between atoms: C_28  and  C_37
                            x       y       z     vdW  Elec       q    Type
                         _______ _______ _______ _____ _____    ______ ____

>  <TORSDO>
F 12

$$$$
=
 OpenBabel11042413403D

 42 45  0  0  1  0  0  0  0  0999 V2000
  191.0400  174.1370  144.7020 C   0  0  0  0  0  2  0  0  0  0  0  0
  189.9830  173.6110  142.0720 C   0  0  0  0  0  3  0  0  0  0  0  0
  187.3300  176.2090  140.1490 O   0  0  0  0  0  1  0  0  0  0  0  0
  189.3670  173.2390  140.8800 C   0  0  0  0  0  3  0  0  0  0  0  0
  189.7060  174.8550  142.6630 C   0  0  0  0  0  0  0  0  0  0  0  0
  188.4840  177.0710  142.6370 C   0  0  0  0  0  0  0  0  0  0  0  0
  187.1140  177.4940  142.6080 N   0  0  0  0  0  2  0  0  0  0  0  0
  191.5300  178.6920  143.4140 O   0  0  0  0  0  0  0  0  0  0  0  0
  188.2040  175.3600  140.8160 C   0  0  0  0  0  0  0  0  0  0  0  0
  191.4290  176.3340  143.5530 C   0  0  0  0  0  2  0  0  0  0  0  0
  190.4050  175.2810  143.9170 C   0  0  2  0  0  3  0  0  0  0  0  0
  190.7900  177.6760  143.3570 C   0  0  0  0  0  0  0  0  0  0  0  0
  189.3750  177.8660  143.1690 N   0  0  0  0  0  0  0  0  0  0  0  0
  188.8220  175.7540  142.0260 C   0  0  0  0  0  0  0  0  0  0  0  0
  188.4780  174.1110  140.2560 C   0  0  0  0  0  3  0  0  0  0  0  0
  186.6420  178.7440  143.1920 C   0  0  0  0  0  2  0  0  0  0  0  0
  185.9390  178.4900  144.4820 C   0  0  0  0  0  0  0  0  0  0  0  0
  186.5880  177.7860  145.5020 C   0  0  0  0  0  3  0  0  0  0  0  0
  183.9760  178.7130  145.8850 C   0  0  0  0  0  3  0  0  0  0  0  0
  184.6240  178.0080  146.9040 C   0  0  0  0  0  3  0  0  0  0  0  0
  184.6330  178.9560  144.6750 C   0  0  0  0  0  3  0  0  0  0  0  0
  185.9300  177.5460  146.7130 C   0  0  0  0  0  3  0  0  0  0  0  0
  191.1080  175.7560  148.1510 N   0  0  0  0  0  1  0  0  0  0  0  0
  190.6220  175.1590  146.9540 C   0  0  0  0  0  0  0  0  0  0  0  0
  191.5360  174.6160  145.9870 N   0  0  0  0  0  0  0  0  0  0  0  0
  189.3790  175.1210  146.7480 O   0  0  0  0  0  0  0  0  0  0  0  0
  192.9770  174.6280  146.2170 C   0  0  0  0  0  2  0  0  0  0  0  0
  194.3860  172.7530  145.5530 N   0  0  0  0  0  0  0  0  0  0  0  0
  194.7960  174.8410  144.5250 C   0  0  0  0  0  2  0  0  0  0  0  0
  193.7210  173.9480  145.0740 C   0  0  2  0  0  3  0  0  0  0  0  0
  195.9020  173.9790  144.1650 N   0  0  0  0  0  2  0  0  0  0  0  0
  195.6790  172.7210  144.8720 C   0  0  1  0  0  3  0  0  0  0  0  0
  196.7870  172.4970  145.8860 C   0  0  0  0  0  2  0  0  0  0  0  0
  197.0920  173.6990  146.5260 O   0  0  0  0  0  1  0  0  0  0  0  0
  193.6080  171.6200  145.0680 C   0  0  0  0  0  2  0  0  0  0  0  0
  194.0030  171.2800  143.6400 C   0  0  0  0  0  2  0  0  0  0  0  0
  192.5440  170.7630  142.6840 S   0  0  0  0  0  0  0  0  0  0  0  0
  193.0850  171.6880  141.2110 C   0  0  0  0  0  2  0  0  0  0  0  0
  193.3770  174.1660  140.7480 C   0  0  0  0  0  0  0  0  0  0  0  0
  193.7960  175.2860  141.1400 O   0  0  0  0  0  0  0  0  0  0  0  0
  192.7430  174.0590  139.4030 C   0  0  0  0  0  1  0  0  0  0  0  0
  193.5260  173.0200  141.5940 N   0  0  0  0  0  2  0  0  0  0  0  0
  1 25  1  0  0  0  0
  2  5  1  0  0  0  0
  3  9  1  0  0  0  0
  4  2  2  0  0  0  0
  5 11  1  0  0  0  0
  6 13  2  0  0  0  0
  7  6  1  0  0  0  0
  7 16  1  0  0  0  0
  9 14  1  0  0  0  0
 10 11  1  0  0  0  0
 11  1  1  6  0  0  0
 12  8  2  0  0  0  0
 12 10  1  0  0  0  0
 13 12  1  0  0  0  0
 14  6  1  0  0  0  0
 14  5  2  0  0  0  0
 15  9  2  0  0  0  0
 15  4  1  0  0  0  0
 16 17  1  0  0  0  0
 17 21  2  0  0  0  0
 17 18  1  0  0  0  0
 18 22  2  0  0  0  0
 19 20  2  0  0  0  0
 21 19  1  0  0  0  0
 22 20  1  0  0  0  0
 24 23  1  0  0  0  0
 25 27  1  0  0  0  0
 25 24  1  0  0  0  0
 26 24  2  0  0  0  0
 29 30  1  0  0  0  0
 30 28  1  0  0  0  0
 30 27  1  1  0  0  0
 31 29  1  0  0  0  0
 31 32  1  0  0  0  0
 32 28  1  0  0  0  0
 32 33  1  1  0  0  0
 33 34  1  0  0  0  0
 35 28  1  0  0  0  0
 36 35  1  0  0  0  0
 37 36  1  0  0  0  0
 38 42  1  0  0  0  0
 38 37  1  0  0  0  0
 39 40  2  0  0  0  0
 39 42  1  0  0  0  0
 41 39  1  0  0  0  0
M  END
>  <MODEL>
2

>  <REMARK>
 VINA RESULT:      -6.9      2.592      7.835
  Name = 
  12 active torsions:
  status: ('A' for Active; 'I' for Inactive)
    1  A    between atoms: C_1  and  C_39
    2  A    between atoms: N_6  and  C_19
    3  A    between atoms: N_6  and  C_37
    4  A    between atoms: C_10  and  C_40
    5  A    between atoms: C_12  and  N_21
    6  A    between atoms: C_12  and  C_24
    7  A    between atoms: S_13  and  C_24
    8  A    between atoms: S_13  and  C_25
    9  A    between atoms: C_19  and  C_33
   10  A    between atoms: C_25  and  N_42
   11  A    between atoms: N_26  and  C_39
   12  A    between atoms: C_28  and  C_37
                            x       y       z     vdW  Elec       q    Type
                         _______ _______ _______ _____ _____    ______ ____

>  <TORSDO>
F 12

$$$$
=
 OpenBabel11042413403D

 42 45  0  0  1  0  0  0  0  0999 V2000
  191.7070  172.9570  143.1990 C   0  0  0  0  0  2  0  0  0  0  0  0
  190.4720  174.0750  145.5520 C   0  0  0  0  0  3  0  0  0  0  0  0
  187.4530  176.9620  145.3560 O   0  0  0  0  0  1  0  0  0  0  0  0
  190.0230  174.7090  146.7080 C   0  0  0  0  0  3  0  0  0  0  0  0
  189.9360  174.4100  144.2980 C   0  0  0  0  0  0  0  0  0  0  0  0
  188.3340  175.7730  142.8910 C   0  0  0  0  0  0  0  0  0  0  0  0
  188.0960  177.1690  142.6570 N   0  0  0  0  0  2  0  0  0  0  0  0
  187.3900  172.8130  141.2020 O   0  0  0  0  0  0  0  0  0  0  0  0
  188.4640  176.0090  145.3910 C   0  0  0  0  0  0  0  0  0  0  0  0
  189.2700  172.7550  142.6350 C   0  0  0  0  0  2  0  0  0  0  0  0
  190.3780  173.6940  143.0580 C   0  0  2  0  0  3  0  0  0  0  0  0
  188.1750  173.4870  141.9190 C   0  0  0  0  0  0  0  0  0  0  0  0
  188.0130  174.9170  141.9570 N   0  0  0  0  0  0  0  0  0  0  0  0
  188.9080  175.3740  144.2080 C   0  0  0  0  0  0  0  0  0  0  0  0
  189.0240  175.6760  146.6260 C   0  0  0  0  0  3  0  0  0  0  0  0
  187.5660  177.6980  141.4070 C   0  0  0  0  0  2  0  0  0  0  0  0
  186.0930  177.9070  141.5060 C   0  0  0  0  0  0  0  0  0  0  0  0
  185.4820  177.9640  142.7630 C   0  0  0  0  0  3  0  0  0  0  0  0
  183.9400  178.2410  140.4450 C   0  0  0  0  0  3  0  0  0  0  0  0
  183.3300  178.2970  141.7010 C   0  0  0  0  0  3  0  0  0  0  0  0
  185.3210  178.0490  140.3470 C   0  0  0  0  0  3  0  0  0  0  0  0
  184.1000  178.1590  142.8600 C   0  0  0  0  0  3  0  0  0  0  0  0
  194.2500  173.0080  140.3610 N   0  0  0  0  0  1  0  0  0  0  0  0
  193.2070  172.5720  141.2270 C   0  0  0  0  0  0  0  0  0  0  0  0
  192.6700  173.4560  142.2250 N   0  0  0  0  0  0  0  0  0  0  0  0
  192.7660  171.3970  141.1130 O   0  0  0  0  0  0  0  0  0  0  0  0
  193.1510  174.8280  142.3580 C   0  0  0  0  0  2  0  0  0  0  0  0
  194.1290  175.2500  144.5510 N   0  0  0  0  0  0  0  0  0  0  0  0
  195.3640  175.9350  142.6560 C   0  0  0  0  0  2  0  0  0  0  0  0
  194.4310  174.8830  143.1820 C   0  0  2  0  0  3  0  0  0  0  0  0
  196.0190  176.5180  143.8090 N   0  0  0  0  0  2  0  0  0  0  0  0
  195.2000  176.1560  144.9620 C   0  0  1  0  0  3  0  0  0  0  0  0
  194.6040  177.4060  145.5840 C   0  0  0  0  0  2  0  0  0  0  0  0
  194.3870  177.1990  146.9470 O   0  0  0  0  0  1  0  0  0  0  0  0
  194.2520  174.0350  145.3450 C   0  0  0  0  0  2  0  0  0  0  0  0
  195.2870  173.1060  144.7320 C   0  0  0  0  0  2  0  0  0  0  0  0
  196.6340  172.7880  145.9140 S   0  0  0  0  0  0  0  0  0  0  0  0
  196.6760  171.0130  145.5080 C   0  0  0  0  0  2  0  0  0  0  0  0
  195.6890  169.2560  147.0510 C   0  0  0  0  0  0  0  0  0  0  0  0
  194.6640  168.7080  147.5310 O   0  0  0  0  0  0  0  0  0  0  0  0
  197.0360  168.7590  147.4570 C   0  0  0  0  0  1  0  0  0  0  0  0
  195.5440  170.3350  146.1220 N   0  0  0  0  0  2  0  0  0  0  0  0
  2  4  1  0  0  0  0
  3  9  1  0  0  0  0
  5  2  2  0  0  0  0
  6 14  1  0  0  0  0
  7  6  1  0  0  0  0
  8 12  2  0  0  0  0
  9 15  1  0  0  0  0
 10 11  1  0  0  0  0
 11  1  1  1  0  0  0
 11  5  1  0  0  0  0
 12 13  1  0  0  0  0
 12 10  1  0  0  0  0
 13  6  2  0  0  0  0
 14  5  1  0  0  0  0
 14  9  2  0  0  0  0
 15  4  2  0  0  0  0
 16 17  1  0  0  0  0
 16  7  1  0  0  0  0
 17 18  1  0  0  0  0
 18 22  2  0  0  0  0
 19 20  2  0  0  0  0
 20 22  1  0  0  0  0
 21 19  1  0  0  0  0
 21 17  2  0  0  0  0
 23 24  1  0  0  0  0
 24 25  1  0  0  0  0
 25 27  1  0  0  0  0
 25  1  1  0  0  0  0
 26 24  2  0  0  0  0
 28 32  1  0  0  0  0
 28 35  1  0  0  0  0
 29 30  1  0  0  0  0
 29 31  1  0  0  0  0
 30 27  1  6  0  0  0
 30 28  1  0  0  0  0
 31 32  1  0  0  0  0
 32 33  1  6  0  0  0
 33 34  1  0  0  0  0
 36 35  1  0  0  0  0
 36 37  1  0  0  0  0
 38 37  1  0  0  0  0
 38 42  1  0  0  0  0
 39 41  1  0  0  0  0
 39 40  2  0  0  0  0
 42 39  1  0  0  0  0
M  END
>  <MODEL>
3

>  <REMARK>
 VINA RESULT:      -6.9      3.205      8.386
  Name = 
  12 active torsions:
  status: ('A' for Active; 'I' for Inactive)
    1  A    between atoms: C_1  and  C_39
    2  A    between atoms: N_6  and  C_19
    3  A    between atoms: N_6  and  C_37
    4  A    between atoms: C_10  and  C_40
    5  A    between atoms: C_12  and  N_21
    6  A    between atoms: C_12  and  C_24
    7  A    between atoms: S_13  and  C_24
    8  A    between atoms: S_13  and  C_25
    9  A    between atoms: C_19  and  C_33
   10  A    between atoms: C_25  and  N_42
   11  A    between atoms: N_26  and  C_39
   12  A    between atoms: C_28  and  C_37
                            x       y       z     vdW  Elec       q    Type
                         _______ _______ _______ _____ _____    ______ ____

>  <TORSDO>
F 12

$$$$
=
 OpenBabel11042413403D

 42 45  0  0  1  0  0  0  0  0999 V2000
  192.0390  174.3200  144.2350 C   0  0  0  0  0  2  0  0  0  0  0  0
  190.0600  174.6420  146.3060 C   0  0  0  0  0  3  0  0  0  0  0  0
  186.5480  176.8430  145.7420 O   0  0  0  0  0  1  0  0  0  0  0  0
  189.2150  174.9150  147.3790 C   0  0  0  0  0  3  0  0  0  0  0  0
  189.7600  175.1230  145.0200 C   0  0  0  0  0  0  0  0  0  0  0  0
  188.2390  176.4060  143.4580 C   0  0  0  0  0  0  0  0  0  0  0  0
  187.7230  177.7420  143.3850 N   0  0  0  0  0  2  0  0  0  0  0  0
  188.4700  173.7440  141.1410 O   0  0  0  0  0  0  0  0  0  0  0  0
  187.7280  176.1260  145.9040 C   0  0  0  0  0  0  0  0  0  0  0  0
  189.9260  173.7590  143.0040 C   0  0  0  0  0  2  0  0  0  0  0  0
  190.6390  174.7890  143.8530 C   0  0  2  0  0  3  0  0  0  0  0  0
  188.8770  174.3930  142.1390 C   0  0  0  0  0  0  0  0  0  0  0  0
  188.3630  175.7200  142.3520 N   0  0  0  0  0  0  0  0  0  0  0  0
  188.5740  175.8590  144.8040 C   0  0  0  0  0  0  0  0  0  0  0  0
  188.0540  175.6570  147.1780 C   0  0  0  0  0  3  0  0  0  0  0  0
  187.3800  178.4090  142.1350 C   0  0  0  0  0  2  0  0  0  0  0  0
  185.9100  178.3430  141.8900 C   0  0  0  0  0  0  0  0  0  0  0  0
  185.4270  178.2470  140.5800 C   0  0  0  0  0  3  0  0  0  0  0  0
  183.6380  178.3160  142.7300 C   0  0  0  0  0  3  0  0  0  0  0  0
  183.1550  178.2220  141.4210 C   0  0  0  0  0  3  0  0  0  0  0  0
  185.0150  178.3740  142.9650 C   0  0  0  0  0  3  0  0  0  0  0  0
  184.0490  178.1860  140.3460 C   0  0  0  0  0  3  0  0  0  0  0  0
  194.2750  177.1020  145.5720 N   0  0  0  0  0  1  0  0  0  0  0  0
  193.4860  175.9170  145.5170 C   0  0  0  0  0  0  0  0  0  0  0  0
  192.9630  175.4480  144.2640 N   0  0  0  0  0  0  0  0  0  0  0  0
  193.2430  175.2920  146.5840 O   0  0  0  0  0  0  0  0  0  0  0  0
  193.2520  176.1450  143.0140 C   0  0  0  0  0  2  0  0  0  0  0  0
  195.4250  175.0380  142.9980 N   0  0  0  0  0  0  0  0  0  0  0  0
  194.7910  176.2220  141.0540 C   0  0  0  0  0  2  0  0  0  0  0  0
  194.2750  175.3780  142.1840 C   0  0  2  0  0  3  0  0  0  0  0  0
  196.1900  175.8860  140.8950 N   0  0  0  0  0  2  0  0  0  0  0  0
  196.5890  175.2290  142.1360 C   0  0  1  0  0  3  0  0  0  0  0  0
  197.6270  176.0730  142.8560 C   0  0  0  0  0  2  0  0  0  0  0  0
  197.0010  177.1320  143.5140 O   0  0  0  0  0  1  0  0  0  0  0  0
  195.3220  173.6140  143.2880 C   0  0  0  0  0  2  0  0  0  0  0  0
  195.8560  173.3170  144.6800 C   0  0  0  0  0  2  0  0  0  0  0  0
  197.4060  172.3720  144.5770 S   0  0  0  0  0  0  0  0  0  0  0  0
  196.8260  171.1380  145.7850 C   0  0  0  0  0  2  0  0  0  0  0  0
  194.8950  169.6270  145.1260 C   0  0  0  0  0  0  0  0  0  0  0  0
  193.6560  169.4820  144.9690 O   0  0  0  0  0  0  0  0  0  0  0  0
  195.8050  168.4870  144.8150 C   0  0  0  0  0  1  0  0  0  0  0  0
  195.4060  170.8810  145.5910 N   0  0  0  0  0  2  0  0  0  0  0  0
  1 25  1  0  0  0  0
  2  4  1  0  0  0  0
  3  9  1  0  0  0  0
  5  2  2  0  0  0  0
  6 14  1  0  0  0  0
  7  6  1  0  0  0  0
  8 12  2  0  0  0  0
  9 15  1  0  0  0  0
 10 11  1  0  0  0  0
 11  1  1  1  0  0  0
 11  5  1  0  0  0  0
 12 13  1  0  0  0  0
 12 10  1  0  0  0  0
 13  6  2  0  0  0  0
 14  5  1  0  0  0  0
 14  9  2  0  0  0  0
 15  4  2  0  0  0  0
 16  7  1  0  0  0  0
 17 16  1  0  0  0  0
 17 21  1  0  0  0  0
 18 17  2  0  0  0  0
 19 21  2  0  0  0  0
 20 19  1  0  0  0  0
 22 18  1  0  0  0  0
 22 20  2  0  0  0  0
 24 23  1  0  0  0  0
 24 26  2  0  0  0  0
 25 24  1  0  0  0  0
 27 25  1  0  0  0  0
 28 35  1  0  0  0  0
 29 30  1  0  0  0  0
 30 28  1  0  0  0  0
 30 27  1  1  0  0  0
 31 29  1  0  0  0  0
 31 32  1  0  0  0  0
 32 33  1  1  0  0  0
 32 28  1  0  0  0  0
 33 34  1  0  0  0  0
 35 36  1  0  0  0  0
 37 36  1  0  0  0  0
 37 38  1  0  0  0  0
 39 42  1  0  0  0  0
 40 39  2  0  0  0  0
 41 39  1  0  0  0  0
 42 38  1  0  0  0  0
M  END
>  <MODEL>
4

>  <REMARK>
 VINA RESULT:      -6.8      3.252      8.285
  Name = 
  12 active torsions:
  status: ('A' for Active; 'I' for Inactive)
    1  A    between atoms: C_1  and  C_39
    2  A    between atoms: N_6  and  C_19
    3  A    between atoms: N_6  and  C_37
    4  A    between atoms: C_10  and  C_40
    5  A    between atoms: C_12  and  N_21
    6  A    between atoms: C_12  and  C_24
    7  A    between atoms: S_13  and  C_24
    8  A    between atoms: S_13  and  C_25
    9  A    between atoms: C_19  and  C_33
   10  A    between atoms: C_25  and  N_42
   11  A    between atoms: N_26  and  C_39
   12  A    between atoms: C_28  and  C_37
                            x       y       z     vdW  Elec       q    Type
                         _______ _______ _______ _____ _____    ______ ____

>  <TORSDO>
F 12

$$$$
=
 OpenBabel11042413403D

 42 45  0  0  1  0  0  0  0  0999 V2000
  190.9610  174.1140  144.7340 C   0  0  0  0  0  2  0  0  0  0  0  0
  190.0430  173.5720  142.0550 C   0  0  0  0  0  3  0  0  0  0  0  0
  187.3790  176.0840  140.0350 O   0  0  0  0  0  1  0  0  0  0  0  0
  189.4960  173.1870  140.8340 C   0  0  0  0  0  3  0  0  0  0  0  0
  189.6920  174.7990  142.6420 C   0  0  0  0  0  0  0  0  0  0  0  0
  188.3880  176.9670  142.5780 C   0  0  0  0  0  0  0  0  0  0  0  0
  187.0050  177.3370  142.4910 N   0  0  0  0  0  2  0  0  0  0  0  0
  191.3310  178.6960  143.5020 O   0  0  0  0  0  0  0  0  0  0  0  0
  188.2550  175.2620  140.7340 C   0  0  0  0  0  0  0  0  0  0  0  0
  191.3160  176.3340  143.6190 C   0  0  0  0  0  2  0  0  0  0  0  0
  190.3180  175.2400  143.9300 C   0  0  2  0  0  3  0  0  0  0  0  0
  190.6350  177.6530  143.4040 C   0  0  0  0  0  0  0  0  0  0  0  0
  189.2230  177.7910  143.1550 N   0  0  0  0  0  0  0  0  0  0  0  0
  188.8030  175.6690  141.9730 C   0  0  0  0  0  0  0  0  0  0  0  0
  188.6020  174.0300  140.1780 C   0  0  0  0  0  3  0  0  0  0  0  0
  186.4600  178.5630  143.0620 C   0  0  0  0  0  2  0  0  0  0  0  0
  185.7350  178.2750  144.3330 C   0  0  0  0  0  0  0  0  0  0  0  0
  186.1170  177.1830  145.1190 C   0  0  0  0  0  3  0  0  0  0  0  0
  183.9970  178.8190  145.9310 C   0  0  0  0  0  3  0  0  0  0  0  0
  184.3780  177.7270  146.7160 C   0  0  0  0  0  3  0  0  0  0  0  0
  184.6770  179.0950  144.7410 C   0  0  0  0  0  3  0  0  0  0  0  0
  185.4380  176.9090  146.3120 C   0  0  0  0  0  3  0  0  0  0  0  0
  191.2380  176.0040  148.0310 N   0  0  0  0  0  1  0  0  0  0  0  0
  190.6780  175.3760  146.8820 C   0  0  0  0  0  0  0  0  0  0  0  0
  191.5130  174.6310  145.9800 N   0  0  0  0  0  0  0  0  0  0  0  0
  189.4430  175.4910  146.6600 O   0  0  0  0  0  0  0  0  0  0  0  0
  192.9420  174.4670  146.2320 C   0  0  0  0  0  2  0  0  0  0  0  0
  194.7680  173.9280  144.7090 N   0  0  0  0  0  0  0  0  0  0  0  0
  194.5070  176.1900  145.3410 C   0  0  0  0  0  2  0  0  0  0  0  0
  193.7640  174.9220  145.0320 C   0  0  2  0  0  3  0  0  0  0  0  0
  195.7820  176.0960  144.6620 N   0  0  0  0  0  2  0  0  0  0  0  0
  195.9680  174.6810  144.3510 C   0  0  1  0  0  3  0  0  0  0  0  0
  197.1620  174.1380  145.1160 C   0  0  0  0  0  2  0  0  0  0  0  0
  196.7370  173.5830  146.3230 O   0  0  0  0  0  1  0  0  0  0  0  0
  194.3050  173.2440  143.5090 C   0  0  0  0  0  2  0  0  0  0  0  0
  194.6950  171.7750  143.5540 C   0  0  0  0  0  2  0  0  0  0  0  0
  193.2310  170.7400  143.8580 S   0  0  0  0  0  0  0  0  0  0  0  0
  194.2480  169.2870  144.2750 C   0  0  0  0  0  2  0  0  0  0  0  0
  194.9520  169.1550  146.7100 C   0  0  0  0  0  0  0  0  0  0  0  0
  194.6910  168.7760  147.8800 O   0  0  0  0  0  0  0  0  0  0  0  0
  196.2410  169.8580  146.4450 C   0  0  0  0  0  1  0  0  0  0  0  0
  194.0160  168.8970  145.6570 N   0  0  0  0  0  2  0  0  0  0  0  0
  1 25  1  0  0  0  0
  2  5  1  0  0  0  0
  3  9  1  0  0  0  0
  4  2  2  0  0  0  0
  5 11  1  0  0  0  0
  6 13  2  0  0  0  0
  7  6  1  0  0  0  0
  7 16  1  0  0  0  0
  9 14  1  0  0  0  0
 10 11  1  0  0  0  0
 11  1  1  6  0  0  0
 12  8  2  0  0  0  0
 12 10  1  0  0  0  0
 13 12  1  0  0  0  0
 14  6  1  0  0  0  0
 14  5  2  0  0  0  0
 15  9  2  0  0  0  0
 15  4  1  0  0  0  0
 16 17  1  0  0  0  0
 17 21  2  0  0  0  0
 17 18  1  0  0  0  0
 18 22  2  0  0  0  0
 19 20  2  0  0  0  0
 21 19  1  0  0  0  0
 22 20  1  0  0  0  0
 24 23  1  0  0  0  0
 25 27  1  0  0  0  0
 25 24  1  0  0  0  0
 26 24  2  0  0  0  0
 28 30  1  0  0  0  0
 30 29  1  0  0  0  0
 30 27  1  1  0  0  0
 31 29  1  0  0  0  0
 32 31  1  0  0  0  0
 32 28  1  0  0  0  0
 32 33  1  1  0  0  0
 33 34  1  0  0  0  0
 35 36  1  0  0  0  0
 35 28  1  0  0  0  0
 36 37  1  0  0  0  0
 37 38  1  0  0  0  0
 38 42  1  0  0  0  0
 39 40  2  0  0  0  0
 41 39  1  0  0  0  0
 42 39  1  0  0  0  0
M  END
>  <MODEL>
5

>  <REMARK>
 VINA RESULT:      -6.8      2.978      8.341
  Name = 
  12 active torsions:
  status: ('A' for Active; 'I' for Inactive)
    1  A    between atoms: C_1  and  C_39
    2  A    between atoms: N_6  and  C_19
    3  A    between atoms: N_6  and  C_37
    4  A    between atoms: C_10  and  C_40
    5  A    between atoms: C_12  and  N_21
    6  A    between atoms: C_12  and  C_24
    7  A    between atoms: S_13  and  C_24
    8  A    between atoms: S_13  and  C_25
    9  A    between atoms: C_19  and  C_33
   10  A    between atoms: C_25  and  N_42
   11  A    between atoms: N_26  and  C_39
   12  A    between atoms: C_28  and  C_37
                            x       y       z     vdW  Elec       q    Type
                         _______ _______ _______ _____ _____    ______ ____

>  <TORSDO>
F 12

$$$$
=
 OpenBabel11042413403D

 42 45  0  0  1  0  0  0  0  0999 V2000
  193.4810  173.4840  143.1370 C   0  0  0  0  0  2  0  0  0  0  0  0
  193.8600  175.0620  145.5200 C   0  0  0  0  0  3  0  0  0  0  0  0
  190.7200  177.0710  147.4150 O   0  0  0  0  0  1  0  0  0  0  0  0
  194.1140  175.9460  146.5650 C   0  0  0  0  0  3  0  0  0  0  0  0
  192.5480  174.8470  145.0670 C   0  0  0  0  0  0  0  0  0  0  0  0
  190.0680  175.3220  145.2280 C   0  0  0  0  0  0  0  0  0  0  0  0
  189.2310  176.4840  145.1390 N   0  0  0  0  0  2  0  0  0  0  0  0
  189.4500  171.8440  145.0640 O   0  0  0  0  0  0  0  0  0  0  0  0
  191.7460  176.4020  146.7590 C   0  0  0  0  0  0  0  0  0  0  0  0
  191.6310  172.6350  144.6050 C   0  0  0  0  0  2  0  0  0  0  0  0
  192.2640  173.8580  143.9780 C   0  0  2  0  0  3  0  0  0  0  0  0
  190.1760  172.8570  144.8930 C   0  0  0  0  0  0  0  0  0  0  0  0
  189.5590  174.1580  144.9230 N   0  0  0  0  0  0  0  0  0  0  0  0
  191.4700  175.5060  145.6990 C   0  0  0  0  0  0  0  0  0  0  0  0
  193.0590  176.6160  147.1800 C   0  0  0  0  0  3  0  0  0  0  0  0
  187.8510  176.4510  144.6690 C   0  0  0  0  0  2  0  0  0  0  0  0
  186.9650  177.2270  145.5840 C   0  0  0  0  0  0  0  0  0  0  0  0
  186.2970  178.3610  145.1100 C   0  0  0  0  0  3  0  0  0  0  0  0
  185.9690  177.5540  147.7690 C   0  0  0  0  0  3  0  0  0  0  0  0
  185.3030  178.6880  147.2950 C   0  0  0  0  0  3  0  0  0  0  0  0
  186.7980  176.8220  146.9130 C   0  0  0  0  0  3  0  0  0  0  0  0
  185.4660  179.0910  145.9650 C   0  0  0  0  0  3  0  0  0  0  0  0
  195.1260  176.1040  140.9120 N   0  0  0  0  0  1  0  0  0  0  0  0
  194.9610  175.0580  141.8630 C   0  0  0  0  0  0  0  0  0  0  0  0
  193.6730  174.4520  142.0630 N   0  0  0  0  0  0  0  0  0  0  0  0
  195.9560  174.6760  142.5360 O   0  0  0  0  0  0  0  0  0  0  0  0
  192.5130  174.8630  141.2790 C   0  0  0  0  0  2  0  0  0  0  0  0
  191.0160  173.0130  140.7460 N   0  0  0  0  0  0  0  0  0  0  0  0
  193.2660  172.8310  140.0470 C   0  0  0  0  0  2  0  0  0  0  0  0
  192.1350  173.7950  140.2590 C   0  0  2  0  0  3  0  0  0  0  0  0
  192.6640  171.5290  139.8470 N   0  0  0  0  0  2  0  0  0  0  0  0
  191.3010  171.6330  140.3590 C   0  0  1  0  0  3  0  0  0  0  0  0
  191.1300  170.7180  141.5580 C   0  0  0  0  0  2  0  0  0  0  0  0
  192.0880  169.7040  141.5200 O   0  0  0  0  0  1  0  0  0  0  0  0
  189.8460  173.4470  139.9930 C   0  0  0  0  0  2  0  0  0  0  0  0
  188.5850  172.8250  140.5700 C   0  0  0  0  0  2  0  0  0  0  0  0
  187.8890  173.8910  141.8690 S   0  0  0  0  0  0  0  0  0  0  0  0
  188.1970  175.4040  140.9030 C   0  0  0  0  0  2  0  0  0  0  0  0
  187.2190  177.6950  141.3870 C   0  0  0  0  0  0  0  0  0  0  0  0
  186.1980  178.4210  141.4950 O   0  0  0  0  0  0  0  0  0  0  0  0
  188.5630  178.2900  141.6390 C   0  0  0  0  0  1  0  0  0  0  0  0
  187.0710  176.3150  141.0330 N   0  0  0  0  0  2  0  0  0  0  0  0
  2  4  1  0  0  0  0
  4 15  2  0  0  0  0
  5  2  2  0  0  0  0
  5 14  1  0  0  0  0
  6 14  1  0  0  0  0
  7  6  1  0  0  0  0
  9 15  1  0  0  0  0
  9  3  1  0  0  0  0
 10 12  1  0  0  0  0
 11  1  1  1  0  0  0
 11 10  1  0  0  0  0
 11  5  1  0  0  0  0
 12 13  1  0  0  0  0
 12  8  2  0  0  0  0
 13  6  2  0  0  0  0
 14  9  2  0  0  0  0
 16  7  1  0  0  0  0
 16 17  1  0  0  0  0
 17 21  1  0  0  0  0
 18 17  2  0  0  0  0
 18 22  1  0  0  0  0
 20 19  1  0  0  0  0
 21 19  2  0  0  0  0
 22 20  2  0  0  0  0
 23 24  1  0  0  0  0
 24 25  1  0  0  0  0
 24 26  2  0  0  0  0
 25  1  1  0  0  0  0
 27 25  1  0  0  0  0
 29 30  1  0  0  0  0
 30 28  1  0  0  0  0
 30 27  1  1  0  0  0
 31 29  1  0  0  0  0
 31 32  1  0  0  0  0
 32 28  1  0  0  0  0
 32 33  1  1  0  0  0
 34 33  1  0  0  0  0
 35 36  1  0  0  0  0
 35 28  1  0  0  0  0
 36 37  1  0  0  0  0
 38 42  1  0  0  0  0
 38 37  1  0  0  0  0
 39 40  2  0  0  0  0
 39 41  1  0  0  0  0
 42 39  1  0  0  0  0
M  END
>  <MODEL>
6

>  <REMARK>
 VINA RESULT:      -6.8      2.246      6.657
  Name = 
  12 active torsions:
  status: ('A' for Active; 'I' for Inactive)
    1  A    between atoms: C_1  and  C_39
    2  A    between atoms: N_6  and  C_19
    3  A    between atoms: N_6  and  C_37
    4  A    between atoms: C_10  and  C_40
    5  A    between atoms: C_12  and  N_21
    6  A    between atoms: C_12  and  C_24
    7  A    between atoms: S_13  and  C_24
    8  A    between atoms: S_13  and  C_25
    9  A    between atoms: C_19  and  C_33
   10  A    between atoms: C_25  and  N_42
   11  A    between atoms: N_26  and  C_39
   12  A    between atoms: C_28  and  C_37
                            x       y       z     vdW  Elec       q    Type
                         _______ _______ _______ _____ _____    ______ ____

>  <TORSDO>
F 12

$$$$
=
 OpenBabel11042413403D

 42 45  0  0  1  0  0  0  0  0999 V2000
  192.8590  173.5510  142.3520 C   0  0  0  0  0  2  0  0  0  0  0  0
  190.5890  173.8350  140.5970 C   0  0  0  0  0  3  0  0  0  0  0  0
  187.0870  175.8110  141.7450 O   0  0  0  0  0  1  0  0  0  0  0  0
  189.4590  173.8020  139.7840 C   0  0  0  0  0  3  0  0  0  0  0  0
  190.5660  174.5110  141.8280 C   0  0  0  0  0  0  0  0  0  0  0  0
  189.3290  175.9010  143.5430 C   0  0  0  0  0  0  0  0  0  0  0  0
  188.1340  175.7550  144.3230 N   0  0  0  0  0  2  0  0  0  0  0  0
  192.1350  178.0440  143.7440 O   0  0  0  0  0  0  0  0  0  0  0  0
  188.2590  175.1510  141.3950 C   0  0  0  0  0  0  0  0  0  0  0  0
  192.3480  175.9970  142.5780 C   0  0  0  0  0  2  0  0  0  0  0  0
  191.7940  174.5930  142.6820 C   0  0  2  0  0  3  0  0  0  0  0  0
  191.5840  176.9530  143.4450 C   0  0  0  0  0  0  0  0  0  0  0  0
  190.2870  176.6650  143.9990 N   0  0  0  0  0  0  0  0  0  0  0  0
  189.3980  175.1950  142.2310 C   0  0  0  0  0  0  0  0  0  0  0  0
  188.2970  174.4560  140.1850 C   0  0  0  0  0  3  0  0  0  0  0  0
  187.9450  176.3670  145.6320 C   0  0  0  0  0  2  0  0  0  0  0  0
  186.7410  177.2470  145.6330 C   0  0  0  0  0  0  0  0  0  0  0  0
  185.6570  176.9420  146.4640 C   0  0  0  0  0  3  0  0  0  0  0  0
  185.5610  179.1960  144.8090 C   0  0  0  0  0  3  0  0  0  0  0  0
  184.4770  178.8910  145.6390 C   0  0  0  0  0  3  0  0  0  0  0  0
  186.6930  178.3760  144.8080 C   0  0  0  0  0  3  0  0  0  0  0  0
  184.5260  177.7650  146.4670 C   0  0  0  0  0  3  0  0  0  0  0  0
  192.3550  170.0310  143.7220 N   0  0  0  0  0  1  0  0  0  0  0  0
  192.5650  171.1030  142.8080 C   0  0  0  0  0  0  0  0  0  0  0  0
  192.7890  172.4380  143.2910 N   0  0  0  0  0  0  0  0  0  0  0  0
  192.5430  170.8680  141.5700 O   0  0  0  0  0  0  0  0  0  0  0  0
  192.8410  172.7270  144.7210 C   0  0  0  0  0  2  0  0  0  0  0  0
  195.2020  172.8550  144.1240 N   0  0  0  0  0  0  0  0  0  0  0  0
  194.5990  171.3910  145.8790 C   0  0  0  0  0  2  0  0  0  0  0  0
  194.2770  172.7060  145.2310 C   0  0  2  0  0  3  0  0  0  0  0  0
  195.9780  171.0970  145.5520 N   0  0  0  0  0  2  0  0  0  0  0  0
  196.3120  171.9490  144.4140 C   0  0  1  0  0  3  0  0  0  0  0  0
  196.6060  171.0910  143.1970 C   0  0  0  0  0  2  0  0  0  0  0  0
  195.9300  171.5990  142.0860 O   0  0  0  0  0  1  0  0  0  0  0  0
  195.7170  174.2160  144.1920 C   0  0  0  0  0  2  0  0  0  0  0  0
  195.3290  174.8630  145.5110 C   0  0  0  0  0  2  0  0  0  0  0  0
  195.0300  176.6430  145.2800 S   0  0  0  0  0  0  0  0  0  0  0  0
  193.9060  176.7200  146.7120 C   0  0  0  0  0  2  0  0  0  0  0  0
  191.6000  175.8200  147.2720 C   0  0  0  0  0  0  0  0  0  0  0  0
  190.7290  174.9280  147.1030 O   0  0  0  0  0  0  0  0  0  0  0  0
  191.3200  176.9370  148.2200 C   0  0  0  0  0  1  0  0  0  0  0  0
  192.8410  175.7400  146.5620 N   0  0  0  0  0  2  0  0  0  0  0  0
  1 25  1  0  0  0  0
  2  5  1  0  0  0  0
  4 15  1  0  0  0  0
  4  2  2  0  0  0  0
  5 14  2  0  0  0  0
  5 11  1  0  0  0  0
  6 13  2  0  0  0  0
  6  7  1  0  0  0  0
  7 16  1  0  0  0  0
  9  3  1  0  0  0  0
  9 14  1  0  0  0  0
 10 11  1  0  0  0  0
 10 12  1  0  0  0  0
 11  1  1  6  0  0  0
 12  8  2  0  0  0  0
 12 13  1  0  0  0  0
 14  6  1  0  0  0  0
 15  9  2  0  0  0  0
 16 17  1  0  0  0  0
 17 18  1  0  0  0  0
 18 22  2  0  0  0  0
 19 20  2  0  0  0  0
 20 22  1  0  0  0  0
 21 19  1  0  0  0  0
 21 17  2  0  0  0  0
 24 25  1  0  0  0  0
 24 23  1  0  0  0  0
 25 27  1  0  0  0  0
 26 24  2  0  0  0  0
 28 35  1  0  0  0  0
 28 32  1  0  0  0  0
 28 30  1  0  0  0  0
 30 27  1  6  0  0  0
 30 29  1  0  0  0  0
 31 29  1  0  0  0  0
 32 33  1  6  0  0  0
 32 31  1  0  0  0  0
 34 33  1  0  0  0  0
 35 36  1  0  0  0  0
 37 36  1  0  0  0  0
 37 38  1  0  0  0  0
 39 41  1  0  0  0  0
 40 39  2  0  0  0  0
 42 38  1  0  0  0  0
 42 39  1  0  0  0  0
M  END
>  <MODEL>
7

>  <REMARK>
 VINA RESULT:      -6.7      2.519      7.639
  Name = 
  12 active torsions:
  status: ('A' for Active; 'I' for Inactive)
    1  A    between atoms: C_1  and  C_39
    2  A    between atoms: N_6  and  C_19
    3  A    between atoms: N_6  and  C_37
    4  A    between atoms: C_10  and  C_40
    5  A    between atoms: C_12  and  N_21
    6  A    between atoms: C_12  and  C_24
    7  A    between atoms: S_13  and  C_24
    8  A    between atoms: S_13  and  C_25
    9  A    between atoms: C_19  and  C_33
   10  A    between atoms: C_25  and  N_42
   11  A    between atoms: N_26  and  C_39
   12  A    between atoms: C_28  and  C_37
                            x       y       z     vdW  Elec       q    Type
                         _______ _______ _______ _____ _____    ______ ____

>  <TORSDO>
F 12

$$$$
=
 OpenBabel11042413403D

 42 45  0  0  1  0  0  0  0  0999 V2000
  191.2200  174.2770  144.5820 C   0  0  0  0  0  2  0  0  0  0  0  0
  190.1430  173.7360  141.9630 C   0  0  0  0  0  3  0  0  0  0  0  0
  187.2760  176.1870  140.1560 O   0  0  0  0  0  1  0  0  0  0  0  0
  189.5270  173.3470  140.7760 C   0  0  0  0  0  3  0  0  0  0  0  0
  189.7950  174.9450  142.5880 C   0  0  0  0  0  0  0  0  0  0  0  0
  188.4260  177.0720  142.6380 C   0  0  0  0  0  0  0  0  0  0  0  0
  187.0300  177.4020  142.6470 N   0  0  0  0  0  2  0  0  0  0  0  0
  191.3710  178.8810  143.3870 O   0  0  0  0  0  0  0  0  0  0  0  0
  188.2210  175.3850  140.7850 C   0  0  0  0  0  0  0  0  0  0  0  0
  191.4340  176.5190  143.4750 C   0  0  0  0  0  2  0  0  0  0  0  0
  190.4920  175.3910  143.8370 C   0  0  2  0  0  3  0  0  0  0  0  0
  190.7010  177.8180  143.3220 C   0  0  0  0  0  0  0  0  0  0  0  0
  189.2730  177.9150  143.1680 N   0  0  0  0  0  0  0  0  0  0  0  0
  188.8380  175.7940  141.9900 C   0  0  0  0  0  0  0  0  0  0  0  0
  188.5660  174.1690  140.1920 C   0  0  0  0  0  3  0  0  0  0  0  0
  186.4880  178.6040  143.2690 C   0  0  0  0  0  2  0  0  0  0  0  0
  185.7970  178.2700  144.5470 C   0  0  0  0  0  0  0  0  0  0  0  0
  186.2890  177.2400  145.3560 C   0  0  0  0  0  3  0  0  0  0  0  0
  184.0130  178.6660  146.1390 C   0  0  0  0  0  3  0  0  0  0  0  0
  184.5050  177.6360  146.9460 C   0  0  0  0  0  3  0  0  0  0  0  0
  184.6600  178.9850  144.9410 C   0  0  0  0  0  3  0  0  0  0  0  0
  185.6430  176.9240  146.5560 C   0  0  0  0  0  3  0  0  0  0  0  0
  191.1760  175.9150  148.0220 N   0  0  0  0  0  1  0  0  0  0  0  0
  190.7280  175.3260  146.8060 C   0  0  0  0  0  0  0  0  0  0  0  0
  191.6690  174.7470  145.8870 N   0  0  0  0  0  0  0  0  0  0  0  0
  189.4960  175.3280  146.5390 O   0  0  0  0  0  0  0  0  0  0  0  0
  193.0980  174.7140  146.1870 C   0  0  0  0  0  2  0  0  0  0  0  0
  194.9170  173.6480  144.9620 N   0  0  0  0  0  0  0  0  0  0  0  0
  194.6840  175.9900  144.7480 C   0  0  0  0  0  2  0  0  0  0  0  0
  193.9260  174.7040  144.9070 C   0  0  2  0  0  3  0  0  0  0  0  0
  195.9580  175.6460  144.1520 N   0  0  0  0  0  2  0  0  0  0  0  0
  196.1260  174.2110  144.3650 C   0  0  1  0  0  3  0  0  0  0  0  0
  197.3140  173.9620  145.2770 C   0  0  0  0  0  2  0  0  0  0  0  0
  196.8710  173.4710  146.5070 O   0  0  0  0  0  1  0  0  0  0  0  0
  194.4460  172.5880  144.0820 C   0  0  0  0  0  2  0  0  0  0  0  0
  194.1510  173.1420  142.6970 C   0  0  0  0  0  2  0  0  0  0  0  0
  194.7620  172.0050  141.4160 S   0  0  0  0  0  0  0  0  0  0  0  0
  193.1030  171.8040  140.6920 C   0  0  0  0  0  2  0  0  0  0  0  0
  191.2900  170.0400  140.9040 C   0  0  0  0  0  0  0  0  0  0  0  0
  190.6590  169.2370  141.6380 O   0  0  0  0  0  0  0  0  0  0  0  0
  190.9250  170.1450  139.4620 C   0  0  0  0  0  1  0  0  0  0  0  0
  192.3360  170.8400  141.4670 N   0  0  0  0  0  2  0  0  0  0  0  0
  1 25  1  0  0  0  0
  2  5  1  0  0  0  0
  3  9  1  0  0  0  0
  4  2  2  0  0  0  0
  5 11  1  0  0  0  0
  6  7  1  0  0  0  0
  6 13  2  0  0  0  0
  7 16  1  0  0  0  0
  9 14  1  0  0  0  0
 10 11  1  0  0  0  0
 11  1  1  6  0  0  0
 12  8  2  0  0  0  0
 12 10  1  0  0  0  0
 13 12  1  0  0  0  0
 14  5  2  0  0  0  0
 14  6  1  0  0  0  0
 15  4  1  0  0  0  0
 15  9  2  0  0  0  0
 16 17  1  0  0  0  0
 17 21  2  0  0  0  0
 17 18  1  0  0  0  0
 18 22  2  0  0  0  0
 19 20  2  0  0  0  0
 21 19  1  0  0  0  0
 22 20  1  0  0  0  0
 24 23  1  0  0  0  0
 25 27  1  0  0  0  0
 25 24  1  0  0  0  0
 26 24  2  0  0  0  0
 29 30  1  0  0  0  0
 30 28  1  0  0  0  0
 30 27  1  1  0  0  0
 31 32  1  0  0  0  0
 31 29  1  0  0  0  0
 32 28  1  0  0  0  0
 32 33  1  1  0  0  0
 33 34  1  0  0  0  0
 35 28  1  0  0  0  0
 36 35  1  0  0  0  0
 37 36  1  0  0  0  0
 38 37  1  0  0  0  0
 38 42  1  0  0  0  0
 39 42  1  0  0  0  0
 39 40  2  0  0  0  0
 41 39  1  0  0  0  0
M  END
>  <MODEL>
8

>  <REMARK>
 VINA RESULT:      -6.6      2.904      7.961
  Name = 
  12 active torsions:
  status: ('A' for Active; 'I' for Inactive)
    1  A    between atoms: C_1  and  C_39
    2  A    between atoms: N_6  and  C_19
    3  A    between atoms: N_6  and  C_37
    4  A    between atoms: C_10  and  C_40
    5  A    between atoms: C_12  and  N_21
    6  A    between atoms: C_12  and  C_24
    7  A    between atoms: S_13  and  C_24
    8  A    between atoms: S_13  and  C_25
    9  A    between atoms: C_19  and  C_33
   10  A    between atoms: C_25  and  N_42
   11  A    between atoms: N_26  and  C_39
   12  A    between atoms: C_28  and  C_37
                            x       y       z     vdW  Elec       q    Type
                         _______ _______ _______ _____ _____    ______ ____

>  <TORSDO>
F 12

$$$$
=
 OpenBabel11042413403D

 42 45  0  0  1  0  0  0  0  0999 V2000
  188.1270  174.5420  141.8950 C   0  0  0  0  0  2  0  0  0  0  0  0
  188.1950  174.1470  139.0400 C   0  0  0  0  0  3  0  0  0  0  0  0
  191.6430  172.9160  137.0190 O   0  0  0  0  0  1  0  0  0  0  0  0
  188.2330  174.1330  137.6480 C   0  0  0  0  0  3  0  0  0  0  0  0
  189.3230  173.7720  139.7900 C   0  0  0  0  0  0  0  0  0  0  0  0
  191.7180  172.9620  139.8930 C   0  0  0  0  0  0  0  0  0  0  0  0
  192.9850  173.4220  139.4040 N   0  0  0  0  0  2  0  0  0  0  0  0
  190.7520  170.5970  142.3380 O   0  0  0  0  0  0  0  0  0  0  0  0
  190.5160  173.3340  137.7160 C   0  0  0  0  0  0  0  0  0  0  0  0
  189.2180  172.2880  141.7230 C   0  0  0  0  0  2  0  0  0  0  0  0
  189.2710  173.7360  141.2870 C   0  0  2  0  0  3  0  0  0  0  0  0
  190.5740  171.6510  141.6740 C   0  0  0  0  0  0  0  0  0  0  0  0
  191.6930  172.2100  140.9620 N   0  0  0  0  0  0  0  0  0  0  0  0
  190.4950  173.3420  139.1290 C   0  0  0  0  0  0  0  0  0  0  0  0
  189.3910  173.7300  136.9890 C   0  0  0  0  0  3  0  0  0  0  0  0
  194.2550  173.1470  140.0660 C   0  0  0  0  0  2  0  0  0  0  0  0
  194.8840  174.4120  140.5450 C   0  0  0  0  0  0  0  0  0  0  0  0
  196.1470  174.7820  140.0730 C   0  0  0  0  0  3  0  0  0  0  0  0
  194.8070  176.4110  141.9110 C   0  0  0  0  0  3  0  0  0  0  0  0
  196.0710  176.7810  141.4410 C   0  0  0  0  0  3  0  0  0  0  0  0
  194.2130  175.2290  141.4620 C   0  0  0  0  0  3  0  0  0  0  0  0
  196.7400  175.9670  140.5210 C   0  0  0  0  0  3  0  0  0  0  0  0
  188.7480  178.3000  141.9990 N   0  0  0  0  0  1  0  0  0  0  0  0
  188.1810  177.0380  141.6620 C   0  0  0  0  0  0  0  0  0  0  0  0
  188.6040  175.8450  142.3420 N   0  0  0  0  0  0  0  0  0  0  0  0
  187.3110  176.9780  140.7520 O   0  0  0  0  0  0  0  0  0  0  0  0
  189.5930  175.8950  143.4150 C   0  0  0  0  0  2  0  0  0  0  0  0
  189.2820  176.6330  145.7180 N   0  0  0  0  0  0  0  0  0  0  0  0
  189.4860  174.3100  145.3360 C   0  0  0  0  0  2  0  0  0  0  0  0
  188.9530  175.5920  144.7650 C   0  0  2  0  0  3  0  0  0  0  0  0
  189.5710  174.5030  146.7690 N   0  0  0  0  0  2  0  0  0  0  0  0
  189.5270  175.9460  146.9840 C   0  0  1  0  0  3  0  0  0  0  0  0
  190.8420  176.4190  147.5780 C   0  0  0  0  0  2  0  0  0  0  0  0
  191.5630  175.3260  148.0610 O   0  0  0  0  0  1  0  0  0  0  0  0
  188.0810  177.4410  145.8830 C   0  0  0  0  0  2  0  0  0  0  0  0
  186.9280  176.5800  146.3730 C   0  0  0  0  0  2  0  0  0  0  0  0
  185.9830  177.4570  147.6570 S   0  0  0  0  0  0  0  0  0  0  0  0
  184.6000  177.7940  146.5200 C   0  0  0  0  0  2  0  0  0  0  0  0
  185.0610  179.1400  144.4180 C   0  0  0  0  0  0  0  0  0  0  0  0
  185.2580  180.2640  143.8890 O   0  0  0  0  0  0  0  0  0  0  0  0
  185.0910  177.9190  143.5620 C   0  0  0  0  0  1  0  0  0  0  0  0
  184.8220  179.0540  145.8270 N   0  0  0  0  0  2  0  0  0  0  0  0
  1 25  1  0  0  0  0
  2  5  1  0  0  0  0
  3  9  1  0  0  0  0
  4  2  2  0  0  0  0
  5 11  1  0  0  0  0
  6 13  2  0  0  0  0
  7  6  1  0  0  0  0
  7 16  1  0  0  0  0
  9 14  1  0  0  0  0
 11 10  1  0  0  0  0
 11  1  1  6  0  0  0
 12 10  1  0  0  0  0
 12  8  2  0  0  0  0
 13 12  1  0  0  0  0
 14  5  2  0  0  0  0
 14  6  1  0  0  0  0
 15  4  1  0  0  0  0
 15  9  2  0  0  0  0
 16 17  1  0  0  0  0
 17 21  1  0  0  0  0
 18 22  1  0  0  0  0
 18 17  2  0  0  0  0
 20 19  1  0  0  0  0
 21 19  2  0  0  0  0
 22 20  2  0  0  0  0
 24 23  1  0  0  0  0
 24 25  1  0  0  0  0
 25 27  1  0  0  0  0
 26 24  2  0  0  0  0
 28 35  1  0  0  0  0
 28 32  1  0  0  0  0
 29 31  1  0  0  0  0
 30 27  1  6  0  0  0
 30 29  1  0  0  0  0
 30 28  1  0  0  0  0
 31 32  1  0  0  0  0
 32 33  1  6  0  0  0
 33 34  1  0  0  0  0
 35 36  1  0  0  0  0
 36 37  1  0  0  0  0
 38 37  1  0  0  0  0
 39 42  1  0  0  0  0
 40 39  2  0  0  0  0
 41 39  1  0  0  0  0
 42 38  1  0  0  0  0
M  END
>  <MODEL>
9

>  <REMARK>
 VINA RESULT:      -6.6      2.370      5.541
  Name = 
  12 active torsions:
  status: ('A' for Active; 'I' for Inactive)
    1  A    between atoms: C_1  and  C_39
    2  A    between atoms: N_6  and  C_19
    3  A    between atoms: N_6  and  C_37
    4  A    between atoms: C_10  and  C_40
    5  A    between atoms: C_12  and  N_21
    6  A    between atoms: C_12  and  C_24
    7  A    between atoms: S_13  and  C_24
    8  A    between atoms: S_13  and  C_25
    9  A    between atoms: C_19  and  C_33
   10  A    between atoms: C_25  and  N_42
   11  A    between atoms: N_26  and  C_39
   12  A    between atoms: C_28  and  C_37
                            x       y       z     vdW  Elec       q    Type
                         _______ _______ _______ _____ _____    ______ ____

>  <TORSDO>
F 12

$$$$
