=
 OpenBabel11042417293D

 39 43  0  0  1  0  0  0  0  0999 V2000
  190.5720  174.6060  145.6840 O   0  0  0  0  0  0  0  0  0  0  0  0
  191.6260  177.7860  142.8570 O   0  0  0  0  0  0  0  0  0  0  0  0
  188.7910  175.6690  147.0010 C   0  0  0  0  0  3  0  0  0  0  0  0
  190.3620  176.6980  144.7950 C   0  0  2  0  0  3  0  0  0  0  0  0
  191.1650  176.8340  143.5400 C   0  0  0  0  0  0  0  0  0  0  0  0
  189.7860  174.7640  146.8400 C   0  0  0  0  0  3  0  0  0  0  0  0
  191.2990  175.3610  143.5120 N   0  0  0  0  0  0  0  0  0  0  0  0
  190.2500  175.3160  144.5060 C   0  0  1  0  0  3  0  0  0  0  0  0
  188.2750  176.7410  146.0720 C   0  0  0  0  0  0  0  0  0  0  0  0
  188.9630  177.1880  144.9860 C   0  0  0  0  0  0  0  0  0  0  0  0
  185.7740  176.6340  146.0720 C   0  0  0  0  0  3  0  0  0  0  0  0
  184.5660  177.1370  146.4350 N   0  0  0  0  0  0  0  0  0  0  0  0
  184.4650  178.2690  147.1320 N   0  0  0  0  0  0  0  0  0  0  0  0
  186.8290  178.4950  147.1650 C   0  0  0  0  0  3  0  0  0  0  0  0
  185.5670  178.9670  147.5110 C   0  0  0  0  0  3  0  0  0  0  0  0
  186.9470  177.3130  146.4240 C   0  0  0  0  0  0  0  0  0  0  0  0
  192.0070  174.4020  142.6810 C   0  0  0  0  0  2  0  0  0  0  0  0
  193.5130  174.5780  142.8240 C   0  0  0  0  0  2  0  0  0  0  0  0
  194.4060  175.7700  144.8640 N   0  0  0  0  0  2  0  0  0  0  0  0
  193.9180  174.5690  144.2610 C   0  0  0  0  0  0  0  0  0  0  0  0
  193.7270  173.5050  144.9700 N   0  0  0  0  0  2  0  0  0  0  0  0
  193.3560  176.5250  146.9260 C   0  0  0  0  0  1  0  0  0  0  0  0
  194.5940  175.9110  146.3000 C   0  0  0  0  0  2  0  0  0  0  0  0
  188.3610  178.0850  144.0940 O   0  0  0  0  0  0  0  0  0  0  0  0
  188.2220  177.8110  142.7920 O   0  0  0  0  0  0  0  0  0  0  0  0
  186.8620  177.9930  142.5370 C   0  0  2  0  0  3  0  0  0  0  0  0
  186.3430  178.9270  143.4330 O   0  0  0  0  0  1  0  0  0  0  0  0
  186.1210  176.6790  142.7050 C   0  0  0  0  0  2  0  0  0  0  0  0
  187.6960  174.6070  142.1030 C   0  0  0  0  0  0  0  0  0  0  0  0
  186.9850  175.5440  142.3680 C   0  0  0  0  0  0  0  0  0  0  0  0
  188.5440  173.4890  141.7940 C   0  0  0  0  0  0  0  0  0  0  0  0
  190.6090  172.1880  138.3640 N   0  0  0  0  0  0  0  0  0  0  0  0
  189.9050  171.9880  140.7030 C   0  0  0  0  0  0  0  0  0  0  0  0
  189.1900  173.2170  140.5270 C   0  0  0  0  0  0  0  0  0  0  0  0
  189.7280  171.5420  141.9400 C   0  0  0  0  0  3  0  0  0  0  0  0
  190.7010  171.3750  139.5950 C   0  0  0  0  0  3  0  0  0  0  0  0
  189.1750  173.8780  139.3750 C   0  0  0  0  0  3  0  0  0  0  0  0
  189.9380  173.3040  138.2440 C   0  0  0  0  0  3  0  0  0  0  0  0
  188.8500  172.5080  142.6390 C   0  0  0  0  0  2  0  0  0  0  0  0
  1  6  1  0  0  0  0
  2  5  2  0  0  0  0
  4  5  1  6  0  0  0
  4 10  1  0  0  0  0
  6  3  2  0  0  0  0
  7  5  1  0  0  0  0
  7  8  1  0  0  0  0
  8  4  1  0  0  0  0
  8  1  1  1  0  0  0
  9 16  1  0  0  0  0
  9  3  1  0  0  0  0
 10  9  2  0  0  0  0
 11 16  2  0  0  0  0
 11 12  1  0  0  0  0
 12 13  2  0  0  0  0
 13 15  1  0  0  0  0
 14 15  2  0  0  0  0
 16 14  1  0  0  0  0
 17 18  1  0  0  0  0
 17  7  1  0  0  0  0
 18 20  1  0  0  0  0
 19 23  1  0  0  0  0
 20 19  1  0  0  0  0
 20 21  2  0  0  0  0
 23 22  1  0  0  0  0
 24 10  1  0  0  0  0
 25 24  1  0  0  0  0
 26 28  1  0  0  0  0
 26 25  1  0  0  0  0
 26 27  1  1  0  0  0
 29 30  3  0  0  0  0
 30 28  1  0  0  0  0
 31 29  1  0  0  0  0
 31 39  1  0  0  0  0
 32 36  2  0  0  0  0
 33 35  2  0  0  0  0
 34 33  1  0  0  0  0
 34 31  2  0  0  0  0
 35 39  1  0  0  0  0
 36 33  1  0  0  0  0
 37 34  1  0  0  0  0
 38 32  1  0  0  0  0
 38 37  2  0  0  0  0
M  END
>  <MODEL>
1

>  <REMARK>
 VINA RESULT:      -7.3      0.000      0.000
  Name = 
  11 active torsions:
  status: ('A' for Active; 'I' for Inactive)
    1  A    between atoms: C_1  and  C_5
    2  A    between atoms: N_7  and  C_26
    3  A    between atoms: C_8  and  C_15
    4  A    between atoms: C_8  and  O_17
    5  A    between atoms: C_10  and  C_38
    6  A    between atoms: C_15  and  C_19
    7  A    between atoms: O_17  and  O_37
    8  A    between atoms: C_24  and  N_30
    9  A    between atoms: C_24  and  C_38
   10  A    between atoms: C_32  and  C_34
   11  A    between atoms: C_35  and  O_37
                            x       y       z     vdW  Elec       q    Type
                         _______ _______ _______ _____ _____    ______ ____

>  <TORSDO>
F 11

$$$$
=
 OpenBabel11042417293D

 39 43  0  0  1  0  0  0  0  0999 V2000
  192.0660  174.9770  141.4750 O   0  0  0  0  0  0  0  0  0  0  0  0
  190.8780  177.9230  144.4960 O   0  0  0  0  0  0  0  0  0  0  0  0
  194.2160  174.1830  142.3600 C   0  0  0  0  0  3  0  0  0  0  0  0
  192.3740  176.1610  143.4020 C   0  0  2  0  0  3  0  0  0  0  0  0
  191.1450  176.9360  143.7610 C   0  0  0  0  0  0  0  0  0  0  0  0
  193.3440  174.4040  141.3470 C   0  0  0  0  0  3  0  0  0  0  0  0
  190.3930  176.1240  142.7800 N   0  0  0  0  0  0  0  0  0  0  0  0
  191.5270  175.2270  142.7570 C   0  0  1  0  0  3  0  0  0  0  0  0
  194.1130  174.4950  143.8330 C   0  0  0  0  0  0  0  0  0  0  0  0
  193.2060  175.3650  144.3550 C   0  0  0  0  0  0  0  0  0  0  0  0
  194.9340  172.4370  144.9970 C   0  0  0  0  0  3  0  0  0  0  0  0
  195.8560  171.7930  145.7590 N   0  0  0  0  0  0  0  0  0  0  0  0
  196.9250  172.4280  146.2400 N   0  0  0  0  0  0  0  0  0  0  0  0
  196.2260  174.4510  145.2110 C   0  0  0  0  0  3  0  0  0  0  0  0
  197.1400  173.7460  145.9860 C   0  0  0  0  0  3  0  0  0  0  0  0
  195.0930  173.7980  144.7080 C   0  0  0  0  0  0  0  0  0  0  0  0
  189.0340  176.1200  142.2640 C   0  0  0  0  0  2  0  0  0  0  0  0
  188.2770  174.8950  142.7590 C   0  0  0  0  0  2  0  0  0  0  0  0
  188.5420  174.2190  140.3390 N   0  0  0  0  0  2  0  0  0  0  0  0
  188.0660  173.9150  141.6520 C   0  0  0  0  0  0  0  0  0  0  0  0
  187.5460  172.7600  141.9140 N   0  0  0  0  0  2  0  0  0  0  0  0
  189.2670  173.8270  138.0480 C   0  0  0  0  0  1  0  0  0  0  0  0
  188.5930  173.2330  139.2700 C   0  0  0  0  0  2  0  0  0  0  0  0
  193.0800  175.4990  145.7430 O   0  0  0  0  0  0  0  0  0  0  0  0
  192.4110  174.6110  146.4880 O   0  0  0  0  0  0  0  0  0  0  0  0
  191.2640  175.2910  146.9010 C   0  0  2  0  0  3  0  0  0  0  0  0
  191.2130  175.3110  148.2940 O   0  0  0  0  0  1  0  0  0  0  0  0
  190.0250  174.5940  146.3690 C   0  0  0  0  0  2  0  0  0  0  0  0
  187.8820  176.1820  146.5240 C   0  0  0  0  0  0  0  0  0  0  0  0
  188.8530  175.4680  146.4600 C   0  0  0  0  0  0  0  0  0  0  0  0
  186.7230  177.0290  146.5960 C   0  0  0  0  0  0  0  0  0  0  0  0
  184.0240  178.6100  143.7790 N   0  0  0  0  0  0  0  0  0  0  0  0
  184.8850  178.3010  146.0530 C   0  0  0  0  0  0  0  0  0  0  0  0
  185.8970  177.4600  145.4880 C   0  0  0  0  0  0  0  0  0  0  0  0
  185.0570  178.3870  147.3660 C   0  0  0  0  0  3  0  0  0  0  0  0
  183.8350  178.9470  145.2060 C   0  0  0  0  0  3  0  0  0  0  0  0
  185.9780  177.2120  144.1850 C   0  0  0  0  0  3  0  0  0  0  0  0
  184.9680  177.8400  143.3030 C   0  0  0  0  0  3  0  0  0  0  0  0
  186.2430  177.5690  147.7120 C   0  0  0  0  0  2  0  0  0  0  0  0
  3  9  1  0  0  0  0
  4  5  1  1  0  0  0
  4 10  1  0  0  0  0
  5  2  2  0  0  0  0
  6  1  1  0  0  0  0
  6  3  2  0  0  0  0
  7  5  1  0  0  0  0
  8  1  1  6  0  0  0
  8  7  1  0  0  0  0
  8  4  1  0  0  0  0
  9 10  2  0  0  0  0
  9 16  1  0  0  0  0
 10 24  1  0  0  0  0
 11 12  1  0  0  0  0
 12 13  2  0  0  0  0
 14 15  2  0  0  0  0
 15 13  1  0  0  0  0
 16 11  2  0  0  0  0
 16 14  1  0  0  0  0
 17 18  1  0  0  0  0
 17  7  1  0  0  0  0
 19 20  1  0  0  0  0
 20 21  2  0  0  0  0
 20 18  1  0  0  0  0
 22 23  1  0  0  0  0
 23 19  1  0  0  0  0
 24 25  1  0  0  0  0
 25 26  1  0  0  0  0
 26 27  1  1  0  0  0
 28 30  1  0  0  0  0
 28 26  1  0  0  0  0
 29 31  1  0  0  0  0
 30 29  3  0  0  0  0
 31 39  1  0  0  0  0
 32 36  2  0  0  0  0
 33 35  2  0  0  0  0
 34 33  1  0  0  0  0
 34 31  2  0  0  0  0
 35 39  1  0  0  0  0
 36 33  1  0  0  0  0
 37 34  1  0  0  0  0
 38 32  1  0  0  0  0
 38 37  2  0  0  0  0
M  END
>  <MODEL>
2

>  <REMARK>
 VINA RESULT:      -7.3      2.127      7.755
  Name = 
  11 active torsions:
  status: ('A' for Active; 'I' for Inactive)
    1  A    between atoms: C_1  and  C_5
    2  A    between atoms: N_7  and  C_26
    3  A    between atoms: C_8  and  C_15
    4  A    between atoms: C_8  and  O_17
    5  A    between atoms: C_10  and  C_38
    6  A    between atoms: C_15  and  C_19
    7  A    between atoms: O_17  and  O_37
    8  A    between atoms: C_24  and  N_30
    9  A    between atoms: C_24  and  C_38
   10  A    between atoms: C_32  and  C_34
   11  A    between atoms: C_35  and  O_37
                            x       y       z     vdW  Elec       q    Type
                         _______ _______ _______ _____ _____    ______ ____

>  <TORSDO>
F 11

$$$$
=
 OpenBabel11042417293D

 39 43  0  0  1  0  0  0  0  0999 V2000
  190.5170  174.5770  145.4380 O   0  0  0  0  0  0  0  0  0  0  0  0
  191.6480  177.9650  142.8950 O   0  0  0  0  0  0  0  0  0  0  0  0
  188.7470  175.5580  146.8300 C   0  0  0  0  0  3  0  0  0  0  0  0
  190.3510  176.7410  144.7280 C   0  0  2  0  0  3  0  0  0  0  0  0
  191.1660  176.9670  143.4930 C   0  0  0  0  0  0  0  0  0  0  0  0
  189.7260  174.6520  146.5980 C   0  0  0  0  0  3  0  0  0  0  0  0
  191.2730  175.5000  143.3410 N   0  0  0  0  0  0  0  0  0  0  0  0
  190.2170  175.3910  144.3220 C   0  0  1  0  0  3  0  0  0  0  0  0
  188.2570  176.7140  145.9920 C   0  0  0  0  0  0  0  0  0  0  0  0
  188.9600  177.2390  144.9510 C   0  0  0  0  0  0  0  0  0  0  0  0
  185.7540  176.6450  145.9830 C   0  0  0  0  0  3  0  0  0  0  0  0
  184.5530  177.1380  146.3800 N   0  0  0  0  0  0  0  0  0  0  0  0
  184.4680  178.2180  147.1580 N   0  0  0  0  0  0  0  0  0  0  0  0
  186.8350  178.4060  147.2080 C   0  0  0  0  0  3  0  0  0  0  0  0
  185.5800  178.8710  147.5870 C   0  0  0  0  0  3  0  0  0  0  0  0
  186.9370  177.2790  146.3830 C   0  0  0  0  0  0  0  0  0  0  0  0
  191.9700  174.6010  142.4360 C   0  0  0  0  0  2  0  0  0  0  0  0
  193.4780  174.7340  142.6040 C   0  0  0  0  0  2  0  0  0  0  0  0
  194.3540  175.7250  144.7570 N   0  0  0  0  0  2  0  0  0  0  0  0
  193.8700  174.5880  144.0370 C   0  0  0  0  0  0  0  0  0  0  0  0
  193.6730  173.4610  144.6400 N   0  0  0  0  0  2  0  0  0  0  0  0
  193.3020  176.3200  146.8700 C   0  0  0  0  0  1  0  0  0  0  0  0
  194.5280  175.7280  146.2010 C   0  0  0  0  0  2  0  0  0  0  0  0
  188.3800  178.2190  144.1350 O   0  0  0  0  0  0  0  0  0  0  0  0
  188.2940  178.0820  142.8070 O   0  0  0  0  0  0  0  0  0  0  0  0
  186.9260  178.1370  142.5360 C   0  0  2  0  0  3  0  0  0  0  0  0
  186.3060  178.9890  143.4480 O   0  0  0  0  0  1  0  0  0  0  0  0
  186.3150  176.7530  142.6560 C   0  0  0  0  0  2  0  0  0  0  0  0
  187.8260  174.9390  141.4030 C   0  0  0  0  0  0  0  0  0  0  0  0
  187.1440  175.7540  141.9750 C   0  0  0  0  0  0  0  0  0  0  0  0
  188.6370  173.9720  140.7160 C   0  0  0  0  0  0  0  0  0  0  0  0
  190.6950  170.4800  141.8540 N   0  0  0  0  0  0  0  0  0  0  0  0
  189.9760  172.1660  140.2270 C   0  0  0  0  0  0  0  0  0  0  0  0
  189.2600  172.8000  141.2940 C   0  0  0  0  0  0  0  0  0  0  0  0
  189.8180  172.8620  139.1080 C   0  0  0  0  0  3  0  0  0  0  0  0
  190.7610  170.9110  140.4420 C   0  0  0  0  0  2  0  0  0  0  0  0
  189.2590  172.3270  142.5360 C   0  0  0  0  0  3  0  0  0  0  0  0
  190.0330  171.0930  142.8010 C   0  0  0  0  0  3  0  0  0  0  0  0
  188.9580  174.0250  139.4270 C   0  0  0  0  0  3  0  0  0  0  0  0
  1  6  1  0  0  0  0
  2  5  2  0  0  0  0
  4  5  1  6  0  0  0
  4 10  1  0  0  0  0
  6  3  2  0  0  0  0
  7  5  1  0  0  0  0
  7  8  1  0  0  0  0
  8  4  1  0  0  0  0
  8  1  1  1  0  0  0
  9 16  1  0  0  0  0
  9  3  1  0  0  0  0
 10  9  2  0  0  0  0
 11 12  2  0  0  0  0
 11 16  1  0  0  0  0
 12 13  1  0  0  0  0
 13 15  2  0  0  0  0
 14 15  1  0  0  0  0
 16 14  2  0  0  0  0
 17 18  1  0  0  0  0
 17  7  1  0  0  0  0
 18 20  1  0  0  0  0
 19 23  1  0  0  0  0
 20 21  2  0  0  0  0
 20 19  1  0  0  0  0
 23 22  1  0  0  0  0
 24 10  1  0  0  0  0
 25 24  1  0  0  0  0
 26 28  1  0  0  0  0
 26 25  1  0  0  0  0
 26 27  1  1  0  0  0
 29 30  3  0  0  0  0
 30 28  1  0  0  0  0
 31 34  1  0  0  0  0
 31 29  1  0  0  0  0
 32 38  2  0  0  0  0
 33 36  1  0  0  0  0
 33 34  1  0  0  0  0
 34 37  2  0  0  0  0
 35 39  1  0  0  0  0
 35 33  2  0  0  0  0
 36 32  1  0  0  0  0
 37 38  1  0  0  0  0
 39 31  2  0  0  0  0
M  END
>  <MODEL>
3

>  <REMARK>
 VINA RESULT:      -7.0      0.759      1.439
  Name = 
  11 active torsions:
  status: ('A' for Active; 'I' for Inactive)
    1  A    between atoms: C_1  and  C_5
    2  A    between atoms: N_7  and  C_26
    3  A    between atoms: C_8  and  C_15
    4  A    between atoms: C_8  and  O_17
    5  A    between atoms: C_10  and  C_38
    6  A    between atoms: C_15  and  C_19
    7  A    between atoms: O_17  and  O_37
    8  A    between atoms: C_24  and  N_30
    9  A    between atoms: C_24  and  C_38
   10  A    between atoms: C_32  and  C_34
   11  A    between atoms: C_35  and  O_37
                            x       y       z     vdW  Elec       q    Type
                         _______ _______ _______ _____ _____    ______ ____

>  <TORSDO>
F 11

$$$$
=
 OpenBabel11042417293D

 39 43  0  0  1  0  0  0  0  0999 V2000
  197.1500  174.0340  144.3000 O   0  0  0  0  0  0  0  0  0  0  0  0
  196.2140  177.0350  141.2450 O   0  0  0  0  0  0  0  0  0  0  0  0
  195.5970  174.6440  146.1020 C   0  0  0  0  0  3  0  0  0  0  0  0
  196.0120  175.8440  143.4980 C   0  0  2  0  0  3  0  0  0  0  0  0
  196.3160  176.0730  142.0510 C   0  0  0  0  0  0  0  0  0  0  0  0
  196.7370  174.0760  145.6430 C   0  0  0  0  0  3  0  0  0  0  0  0
  196.9090  174.7200  142.0000 N   0  0  0  0  0  0  0  0  0  0  0  0
  196.2790  174.4710  143.2770 C   0  0  1  0  0  3  0  0  0  0  0  0
  194.5070  175.3920  145.3720 C   0  0  0  0  0  0  0  0  0  0  0  0
  194.6540  175.9000  144.1190 C   0  0  0  0  0  0  0  0  0  0  0  0
  192.2610  174.5580  146.0990 C   0  0  0  0  0  3  0  0  0  0  0  0
  191.1190  174.7020  146.8200 N   0  0  0  0  0  0  0  0  0  0  0  0
  190.9000  175.7850  147.5660 N   0  0  0  0  0  0  0  0  0  0  0  0
  192.9960  176.6940  146.9170 C   0  0  0  0  0  3  0  0  0  0  0  0
  191.8100  176.7920  147.6370 C   0  0  0  0  0  3  0  0  0  0  0  0
  193.2330  175.5660  146.1220 C   0  0  0  0  0  0  0  0  0  0  0  0
  197.6110  173.9350  140.9980 C   0  0  0  0  0  2  0  0  0  0  0  0
  196.6230  173.1660  140.1310 C   0  0  0  0  0  2  0  0  0  0  0  0
  197.2730  173.8810  137.7960 N   0  0  0  0  0  2  0  0  0  0  0  0
  196.3290  173.9090  138.8700 C   0  0  0  0  0  0  0  0  0  0  0  0
  195.1800  174.4840  138.7230 N   0  0  0  0  0  2  0  0  0  0  0  0
  197.2880  175.8500  136.3650 C   0  0  0  0  0  1  0  0  0  0  0  0
  196.9640  174.3710  136.4620 C   0  0  0  0  0  2  0  0  0  0  0  0
  193.5560  176.4600  143.4540 O   0  0  0  0  0  0  0  0  0  0  0  0
  192.8410  175.7750  142.5540 O   0  0  0  0  0  0  0  0  0  0  0  0
  191.5300  175.8280  143.0310 C   0  0  2  0  0  3  0  0  0  0  0  0
  190.6500  175.4700  142.0110 O   0  0  0  0  0  1  0  0  0  0  0  0
  191.2030  177.2350  143.4980 C   0  0  0  0  0  2  0  0  0  0  0  0
  188.9460  177.2600  144.9280 C   0  0  0  0  0  0  0  0  0  0  0  0
  189.9690  177.2500  144.2890 C   0  0  0  0  0  0  0  0  0  0  0  0
  187.7240  177.2720  145.6850 C   0  0  0  0  0  0  0  0  0  0  0  0
  183.9650  179.1100  145.2240 N   0  0  0  0  0  0  0  0  0  0  0  0
  185.5820  177.6980  146.4070 C   0  0  0  0  0  0  0  0  0  0  0  0
  186.5030  177.9710  145.3450 C   0  0  0  0  0  0  0  0  0  0  0  0
  186.1600  176.9160  147.3100 C   0  0  0  0  0  3  0  0  0  0  0  0
  184.1960  178.2610  146.4120 C   0  0  0  0  0  3  0  0  0  0  0  0
  186.1940  178.7470  144.3110 C   0  0  0  0  0  3  0  0  0  0  0  0
  184.8380  179.3380  144.2770 C   0  0  0  0  0  3  0  0  0  0  0  0
  187.5400  176.6460  146.8440 C   0  0  0  0  0  2  0  0  0  0  0  0
  1  6  1  0  0  0  0
  2  5  2  0  0  0  0
  4  5  1  6  0  0  0
  4 10  1  0  0  0  0
  6  3  2  0  0  0  0
  7  5  1  0  0  0  0
  7  8  1  0  0  0  0
  8  4  1  0  0  0  0
  8  1  1  1  0  0  0
  9  3  1  0  0  0  0
  9 16  1  0  0  0  0
 10  9  2  0  0  0  0
 11 16  2  0  0  0  0
 11 12  1  0  0  0  0
 12 13  2  0  0  0  0
 13 15  1  0  0  0  0
 14 15  2  0  0  0  0
 16 14  1  0  0  0  0
 17  7  1  0  0  0  0
 18 17  1  0  0  0  0
 19 20  1  0  0  0  0
 20 18  1  0  0  0  0
 21 20  2  0  0  0  0
 22 23  1  0  0  0  0
 23 19  1  0  0  0  0
 24 10  1  0  0  0  0
 25 26  1  0  0  0  0
 25 24  1  0  0  0  0
 26 27  1  6  0  0  0
 26 28  1  0  0  0  0
 28 30  1  0  0  0  0
 29 31  1  0  0  0  0
 30 29  3  0  0  0  0
 31 39  1  0  0  0  0
 32 36  2  0  0  0  0
 33 36  1  0  0  0  0
 33 35  2  0  0  0  0
 34 31  2  0  0  0  0
 34 33  1  0  0  0  0
 37 34  1  0  0  0  0
 38 37  2  0  0  0  0
 38 32  1  0  0  0  0
 39 35  1  0  0  0  0
M  END
>  <MODEL>
4

>  <REMARK>
 VINA RESULT:      -6.7      3.427      7.080
  Name = 
  11 active torsions:
  status: ('A' for Active; 'I' for Inactive)
    1  A    between atoms: C_1  and  C_5
    2  A    between atoms: N_7  and  C_26
    3  A    between atoms: C_8  and  C_15
    4  A    between atoms: C_8  and  O_17
    5  A    between atoms: C_10  and  C_38
    6  A    between atoms: C_15  and  C_19
    7  A    between atoms: O_17  and  O_37
    8  A    between atoms: C_24  and  N_30
    9  A    between atoms: C_24  and  C_38
   10  A    between atoms: C_32  and  C_34
   11  A    between atoms: C_35  and  O_37
                            x       y       z     vdW  Elec       q    Type
                         _______ _______ _______ _____ _____    ______ ____

>  <TORSDO>
F 11

$$$$
=
 OpenBabel11042417293D

 39 43  0  0  1  0  0  0  0  0999 V2000
  191.1240  176.7360  146.9790 O   0  0  0  0  0  0  0  0  0  0  0  0
  191.3490  176.7420  142.6010 O   0  0  0  0  0  0  0  0  0  0  0  0
  188.9810  177.8690  147.3770 C   0  0  0  0  0  3  0  0  0  0  0  0
  190.3310  177.2290  144.8950 C   0  0  2  0  0  3  0  0  0  0  0  0
  191.1600  176.5760  143.8340 C   0  0  0  0  0  0  0  0  0  0  0  0
  190.2260  177.4910  147.7540 C   0  0  0  0  0  3  0  0  0  0  0  0
  191.7660  175.7280  144.8830 N   0  0  0  0  0  0  0  0  0  0  0  0
  190.7010  176.1670  145.7570 C   0  0  1  0  0  3  0  0  0  0  0  0
  188.2340  177.6480  146.0840 C   0  0  0  0  0  0  0  0  0  0  0  0
  188.8380  177.2740  144.9230 C   0  0  0  0  0  0  0  0  0  0  0  0
  186.2170  179.0390  145.5720 C   0  0  0  0  0  3  0  0  0  0  0  0
  184.8720  179.2280  145.5870 N   0  0  0  0  0  0  0  0  0  0  0  0
  184.0500  178.3280  146.1260 N   0  0  0  0  0  0  0  0  0  0  0  0
  185.8920  176.9400  146.6950 C   0  0  0  0  0  3  0  0  0  0  0  0
  184.5220  177.1820  146.6840 C   0  0  0  0  0  3  0  0  0  0  0  0
  186.7660  177.8830  146.1400 C   0  0  0  0  0  0  0  0  0  0  0  0
  192.8210  174.7290  144.9260 C   0  0  0  0  0  2  0  0  0  0  0  0
  193.9050  175.1360  145.9150 C   0  0  0  0  0  2  0  0  0  0  0  0
  195.7250  175.8050  144.2960 N   0  0  0  0  0  2  0  0  0  0  0  0
  194.8040  176.1720  145.3260 C   0  0  0  0  0  0  0  0  0  0  0  0
  194.6690  177.4080  145.6810 N   0  0  0  0  0  2  0  0  0  0  0  0
  197.6140  176.1130  142.7910 C   0  0  0  0  0  1  0  0  0  0  0  0
  196.4580  176.7850  143.5090 C   0  0  0  0  0  2  0  0  0  0  0  0
  188.0630  176.9550  143.8000 O   0  0  0  0  0  0  0  0  0  0  0  0
  187.8900  177.8110  142.7860 O   0  0  0  0  0  0  0  0  0  0  0  0
  186.6720  177.4380  142.2150 C   0  0  2  0  0  3  0  0  0  0  0  0
  186.0620  176.4710  143.0130 O   0  0  0  0  0  1  0  0  0  0  0  0
  186.9020  176.8630  140.8290 C   0  0  0  0  0  2  0  0  0  0  0  0
  188.5990  174.8020  140.9300 C   0  0  0  0  0  0  0  0  0  0  0  0
  187.8290  175.7290  140.8800 C   0  0  0  0  0  0  0  0  0  0  0  0
  189.5210  173.7010  140.9940 C   0  0  0  0  0  0  0  0  0  0  0  0
  191.1680  171.3840  144.0990 N   0  0  0  0  0  0  0  0  0  0  0  0
  190.8880  172.0100  141.7460 C   0  0  0  0  0  0  0  0  0  0  0  0
  189.9630  173.0110  142.1870 C   0  0  1  0  0  3  0  0  0  0  0  0
  191.0110  172.0670  140.4260 C   0  0  0  0  0  3  0  0  0  0  0  0
  191.5690  171.0890  142.7080 C   0  0  0  0  0  3  0  0  0  0  0  0
  189.6630  173.1940  143.4690 C   0  0  0  0  0  3  0  0  0  0  0  0
  190.3210  172.3140  144.4610 C   0  0  0  0  0  3  0  0  0  0  0  0
  190.1330  173.1580  139.9450 C   0  0  0  0  0  3  0  0  0  0  0  0
  1  6  1  0  0  0  0
  2  5  2  0  0  0  0
  3  6  2  0  0  0  0
  4  5  1  6  0  0  0
  4 10  1  0  0  0  0
  4  8  1  0  0  0  0
  5  7  1  0  0  0  0
  7 17  1  0  0  0  0
  7  8  1  0  0  0  0
  8  1  1  1  0  0  0
  9 16  1  0  0  0  0
  9  3  1  0  0  0  0
 10  9  2  0  0  0  0
 11 12  2  0  0  0  0
 11 16  1  0  0  0  0
 12 13  1  0  0  0  0
 13 15  2  0  0  0  0
 15 14  1  0  0  0  0
 16 14  2  0  0  0  0
 17 18  1  0  0  0  0
 19 20  1  0  0  0  0
 20 21  2  0  0  0  0
 20 18  1  0  0  0  0
 22 23  1  0  0  0  0
 23 19  1  0  0  0  0
 24 10  1  0  0  0  0
 25 24  1  0  0  0  0
 26 25  1  0  0  0  0
 26 27  1  1  0  0  0
 28 30  1  0  0  0  0
 28 26  1  0  0  0  0
 29 31  1  0  0  0  0
 30 29  3  0  0  0  0
 31 34  1  0  0  0  0
 32 38  1  0  0  0  0
 33 34  1  0  0  0  0
 33 36  1  0  0  0  0
 34 37  1  1  0  0  0
 35 33  2  0  0  0  0
 36 32  2  0  0  0  0
 37 38  2  0  0  0  0
 39 35  1  0  0  0  0
 39 31  2  0  0  0  0
M  END
>  <MODEL>
5

>  <REMARK>
 VINA RESULT:      -6.6      1.752      2.656
  Name = 
  11 active torsions:
  status: ('A' for Active; 'I' for Inactive)
    1  A    between atoms: C_1  and  C_5
    2  A    between atoms: N_7  and  C_26
    3  A    between atoms: C_8  and  C_15
    4  A    between atoms: C_8  and  O_17
    5  A    between atoms: C_10  and  C_38
    6  A    between atoms: C_15  and  C_19
    7  A    between atoms: O_17  and  O_37
    8  A    between atoms: C_24  and  N_30
    9  A    between atoms: C_24  and  C_38
   10  A    between atoms: C_32  and  C_34
   11  A    between atoms: C_35  and  O_37
                            x       y       z     vdW  Elec       q    Type
                         _______ _______ _______ _____ _____    ______ ____

>  <TORSDO>
F 11

$$$$
=
 OpenBabel11042417293D

 39 43  0  0  1  0  0  0  0  0999 V2000
  192.5430  177.1080  144.0680 O   0  0  0  0  0  0  0  0  0  0  0  0
  192.8930  173.4610  141.6600 O   0  0  0  0  0  0  0  0  0  0  0  0
  190.4240  178.0490  143.2560 C   0  0  0  0  0  3  0  0  0  0  0  0
  191.8250  175.6360  142.4770 C   0  0  2  0  0  3  0  0  0  0  0  0
  192.6640  174.3970  142.4710 C   0  0  0  0  0  0  0  0  0  0  0  0
  191.6450  178.1640  143.8290 C   0  0  0  0  0  3  0  0  0  0  0  0
  193.2140  174.8090  143.7800 N   0  0  0  0  0  0  0  0  0  0  0  0
  192.1380  175.7720  143.8520 C   0  0  1  0  0  3  0  0  0  0  0  0
  189.7080  176.8430  142.6970 C   0  0  0  0  0  0  0  0  0  0  0  0
  190.3330  175.6730  142.3930 C   0  0  0  0  0  0  0  0  0  0  0  0
  187.7830  177.6950  141.3430 C   0  0  0  0  0  3  0  0  0  0  0  0
  186.4480  177.8050  141.1180 N   0  0  0  0  0  0  0  0  0  0  0  0
  185.5560  177.2650  141.9500 N   0  0  0  0  0  0  0  0  0  0  0  0
  187.3010  176.4370  143.3330 C   0  0  0  0  0  3  0  0  0  0  0  0
  185.9450  176.5790  143.0570 C   0  0  0  0  0  3  0  0  0  0  0  0
  188.2470  177.0090  142.4720 C   0  0  0  0  0  0  0  0  0  0  0  0
  194.2360  174.3010  144.6800 C   0  0  0  0  0  2  0  0  0  0  0  0
  193.8140  172.9610  145.2690 C   0  0  0  0  0  2  0  0  0  0  0  0
  194.8510  170.7550  145.9360 N   0  0  0  0  0  2  0  0  0  0  0  0
  195.0060  172.1490  145.6560 C   0  0  0  0  0  0  0  0  0  0  0  0
  196.1800  172.6910  145.6360 N   0  0  0  0  0  2  0  0  0  0  0  0
  195.7210  168.8800  147.2210 C   0  0  0  0  0  1  0  0  0  0  0  0
  195.9800  169.8500  146.0840 C   0  0  0  0  0  2  0  0  0  0  0  0
  189.5820  174.5550  142.0100 O   0  0  0  0  0  0  0  0  0  0  0  0
  188.9100  173.8080  142.8940 O   0  0  0  0  0  0  0  0  0  0  0  0
  189.7700  172.7470  143.1840 C   0  0  2  0  0  3  0  0  0  0  0  0
  189.2720  171.5770  142.6120 O   0  0  0  0  0  1  0  0  0  0  0  0
  189.8760  172.5580  144.6860 C   0  0  0  0  0  2  0  0  0  0  0  0
  189.5110  174.8820  145.9550 C   0  0  0  0  0  0  0  0  0  0  0  0
  189.6750  173.8290  145.3880 C   0  0  0  0  0  0  0  0  0  0  0  0
  189.3170  176.1390  146.6240 C   0  0  0  0  0  0  0  0  0  0  0  0
  185.9620  178.4600  147.6630 N   0  0  0  0  0  0  0  0  0  0  0  0
  188.3700  178.0130  147.5650 C   0  0  0  0  0  0  0  0  0  0  0  0
  188.0510  176.7800  146.9080 C   0  0  0  0  0  0  0  0  0  0  0  0
  189.6870  178.1290  147.6800 C   0  0  0  0  0  3  0  0  0  0  0  0
  187.3070  178.9650  148.0130 C   0  0  0  0  0  3  0  0  0  0  0  0
  186.8010  176.4130  146.6430 C   0  0  0  0  0  3  0  0  0  0  0  0
  185.7140  177.3290  147.0560 C   0  0  0  0  0  3  0  0  0  0  0  0
  190.2930  176.9230  147.0700 C   0  0  0  0  0  2  0  0  0  0  0  0
  2  5  2  0  0  0  0
  3  6  2  0  0  0  0
  4 10  1  1  0  0  0
  4  8  1  0  0  0  0
  5  4  1  0  0  0  0
  5  7  1  0  0  0  0
  6  1  1  0  0  0  0
  7  8  1  0  0  0  0
  7 17  1  0  0  0  0
  8  1  1  6  0  0  0
  9  3  1  0  0  0  0
 10  9  2  0  0  0  0
 11 16  1  0  0  0  0
 12 11  2  0  0  0  0
 12 13  1  0  0  0  0
 13 15  2  0  0  0  0
 15 14  1  0  0  0  0
 16  9  1  0  0  0  0
 16 14  2  0  0  0  0
 17 18  1  0  0  0  0
 18 20  1  0  0  0  0
 19 23  1  0  0  0  0
 20 19  1  0  0  0  0
 21 20  2  0  0  0  0
 23 22  1  0  0  0  0
 24 10  1  0  0  0  0
 24 25  1  0  0  0  0
 25 26  1  0  0  0  0
 26 27  1  6  0  0  0
 26 28  1  0  0  0  0
 28 30  1  0  0  0  0
 29 31  1  0  0  0  0
 30 29  3  0  0  0  0
 31 34  2  0  0  0  0
 31 39  1  0  0  0  0
 32 36  2  0  0  0  0
 33 35  2  0  0  0  0
 33 36  1  0  0  0  0
 34 33  1  0  0  0  0
 37 34  1  0  0  0  0
 37 38  2  0  0  0  0
 38 32  1  0  0  0  0
 39 35  1  0  0  0  0
M  END
>  <MODEL>
6

>  <REMARK>
 VINA RESULT:      -6.5      2.692      6.003
  Name = 
  11 active torsions:
  status: ('A' for Active; 'I' for Inactive)
    1  A    between atoms: C_1  and  C_5
    2  A    between atoms: N_7  and  C_26
    3  A    between atoms: C_8  and  C_15
    4  A    between atoms: C_8  and  O_17
    5  A    between atoms: C_10  and  C_38
    6  A    between atoms: C_15  and  C_19
    7  A    between atoms: O_17  and  O_37
    8  A    between atoms: C_24  and  N_30
    9  A    between atoms: C_24  and  C_38
   10  A    between atoms: C_32  and  C_34
   11  A    between atoms: C_35  and  O_37
                            x       y       z     vdW  Elec       q    Type
                         _______ _______ _______ _____ _____    ______ ____

>  <TORSDO>
F 11

$$$$
=
 OpenBabel11042417293D

 39 43  0  0  1  0  0  0  0  0999 V2000
  191.9810  170.5610  143.3340 O   0  0  0  0  0  0  0  0  0  0  0  0
  191.8810  174.3510  145.5340 O   0  0  0  0  0  0  0  0  0  0  0  0
  190.5340  171.0530  141.4110 C   0  0  0  0  0  3  0  0  0  0  0  0
  191.3070  172.7190  143.6510 C   0  0  2  0  0  3  0  0  0  0  0  0
  192.0520  173.3550  144.7820 C   0  0  0  0  0  0  0  0  0  0  0  0
  191.1170  170.1990  142.2850 C   0  0  0  0  0  3  0  0  0  0  0  0
  193.0160  172.2360  144.7270 N   0  0  0  0  0  0  0  0  0  0  0  0
  192.4390  171.8930  143.4470 C   0  0  1  0  0  3  0  0  0  0  0  0
  190.5950  172.5580  141.3160 C   0  0  0  0  0  0  0  0  0  0  0  0
  191.0250  173.3580  142.3300 C   0  0  0  0  0  0  0  0  0  0  0  0
  191.0150  173.2570  138.9490 C   0  0  0  0  0  3  0  0  0  0  0  0
  190.5750  173.7480  137.7620 N   0  0  0  0  0  0  0  0  0  0  0  0
  189.3060  174.1200  137.5910 N   0  0  0  0  0  0  0  0  0  0  0  0
  188.7980  173.5260  139.8340 C   0  0  0  0  0  3  0  0  0  0  0  0
  188.3980  174.0220  138.5970 C   0  0  0  0  0  3  0  0  0  0  0  0
  190.1300  173.1410  140.0280 C   0  0  0  0  0  0  0  0  0  0  0  0
  194.1720  171.8260  145.5070 C   0  0  0  0  0  2  0  0  0  0  0  0
  195.4620  172.1430  144.7620 C   0  0  0  0  0  2  0  0  0  0  0  0
  195.3260  174.6570  144.5540 N   0  0  0  0  0  2  0  0  0  0  0  0
  195.9610  173.5050  145.1150 C   0  0  0  0  0  0  0  0  0  0  0  0
  196.8950  173.6320  146.0010 N   0  0  0  0  0  2  0  0  0  0  0  0
  194.4600  176.4730  145.9240 C   0  0  0  0  0  1  0  0  0  0  0  0
  195.5890  176.0090  145.0240 C   0  0  0  0  0  2  0  0  0  0  0  0
  191.1830  174.7330  142.1210 O   0  0  0  0  0  0  0  0  0  0  0  0
  190.6170  175.6470  142.9190 O   0  0  0  0  0  0  0  0  0  0  0  0
  191.4190  176.7810  142.7800 C   0  0  2  0  0  3  0  0  0  0  0  0
  192.7290  176.3920  142.5040 O   0  0  0  0  0  1  0  0  0  0  0  0
  191.4020  177.5900  144.0640 C   0  0  0  0  0  2  0  0  0  0  0  0
  189.0050  177.4480  145.2370 C   0  0  0  0  0  0  0  0  0  0  0  0
  190.0910  177.5130  144.7140 C   0  0  0  0  0  0  0  0  0  0  0  0
  187.7100  177.3720  145.8540 C   0  0  0  0  0  0  0  0  0  0  0  0
  183.9550  179.1190  145.1000 N   0  0  0  0  0  0  0  0  0  0  0  0
  185.4870  177.6820  146.3620 C   0  0  0  0  0  0  0  0  0  0  0  0
  186.5060  178.0540  145.4260 C   0  0  0  0  0  0  0  0  0  0  0  0
  185.9950  176.8590  147.2710 C   0  0  0  0  0  3  0  0  0  0  0  0
  184.0890  178.2000  146.2500 C   0  0  0  0  0  3  0  0  0  0  0  0
  186.2820  178.8870  144.4160 C   0  0  0  0  0  3  0  0  0  0  0  0
  184.9150  179.4380  144.2710 C   0  0  0  0  0  3  0  0  0  0  0  0
  187.4260  176.6640  146.9430 C   0  0  0  0  0  2  0  0  0  0  0  0
  3  6  2  0  0  0  0
  4 10  1  6  0  0  0
  4  5  1  0  0  0  0
  5  2  2  0  0  0  0
  6  1  1  0  0  0  0
  7  5  1  0  0  0  0
  7 17  1  0  0  0  0
  8  1  1  1  0  0  0
  8  4  1  0  0  0  0
  8  7  1  0  0  0  0
  9  3  1  0  0  0  0
  9 10  2  0  0  0  0
 11 16  1  0  0  0  0
 12 11  2  0  0  0  0
 13 12  1  0  0  0  0
 13 15  2  0  0  0  0
 14 16  2  0  0  0  0
 15 14  1  0  0  0  0
 16  9  1  0  0  0  0
 18 20  1  0  0  0  0
 18 17  1  0  0  0  0
 19 23  1  0  0  0  0
 19 20  1  0  0  0  0
 20 21  2  0  0  0  0
 23 22  1  0  0  0  0
 24 10  1  0  0  0  0
 24 25  1  0  0  0  0
 26 27  1  1  0  0  0
 26 25  1  0  0  0  0
 26 28  1  0  0  0  0
 28 30  1  0  0  0  0
 29 31  1  0  0  0  0
 30 29  3  0  0  0  0
 31 39  1  0  0  0  0
 32 36  2  0  0  0  0
 33 35  2  0  0  0  0
 34 31  2  0  0  0  0
 34 33  1  0  0  0  0
 36 33  1  0  0  0  0
 37 34  1  0  0  0  0
 38 37  2  0  0  0  0
 38 32  1  0  0  0  0
 39 35  1  0  0  0  0
M  END
>  <MODEL>
7

>  <REMARK>
 VINA RESULT:      -6.4      2.184      6.839
  Name = 
  11 active torsions:
  status: ('A' for Active; 'I' for Inactive)
    1  A    between atoms: C_1  and  C_5
    2  A    between atoms: N_7  and  C_26
    3  A    between atoms: C_8  and  C_15
    4  A    between atoms: C_8  and  O_17
    5  A    between atoms: C_10  and  C_38
    6  A    between atoms: C_15  and  C_19
    7  A    between atoms: O_17  and  O_37
    8  A    between atoms: C_24  and  N_30
    9  A    between atoms: C_24  and  C_38
   10  A    between atoms: C_32  and  C_34
   11  A    between atoms: C_35  and  O_37
                            x       y       z     vdW  Elec       q    Type
                         _______ _______ _______ _____ _____    ______ ____

>  <TORSDO>
F 11

$$$$
=
 OpenBabel11042417293D

 39 43  0  0  1  0  0  0  0  0999 V2000
  195.1140  171.9070  141.8600 O   0  0  0  0  0  0  0  0  0  0  0  0
  194.5720  170.9500  146.1040 O   0  0  0  0  0  0  0  0  0  0  0  0
  192.7940  172.1810  141.1030 C   0  0  0  0  0  3  0  0  0  0  0  0
  193.8460  171.5230  143.7200 C   0  0  2  0  0  3  0  0  0  0  0  0
  194.7010  171.4220  144.9440 C   0  0  0  0  0  0  0  0  0  0  0  0
  194.1020  171.9070  140.8850 C   0  0  0  0  0  3  0  0  0  0  0  0
  195.8170  172.0020  144.1660 N   0  0  0  0  0  0  0  0  0  0  0  0
  194.8380  172.3690  143.1670 C   0  0  1  0  0  3  0  0  0  0  0  0
  192.0570  172.5130  142.3780 C   0  0  0  0  0  0  0  0  0  0  0  0
  192.5620  172.2810  143.6200 C   0  0  0  0  0  0  0  0  0  0  0  0
  190.5670  174.4470  141.8230 C   0  0  0  0  0  3  0  0  0  0  0  0
  189.3310  174.9720  141.6210 N   0  0  0  0  0  0  0  0  0  0  0  0
  188.2300  174.2340  141.7680 N   0  0  0  0  0  0  0  0  0  0  0  0
  189.5400  172.3390  142.3450 C   0  0  0  0  0  3  0  0  0  0  0  0
  188.2980  172.9250  142.1260 C   0  0  0  0  0  3  0  0  0  0  0  0
  190.7030  173.1060  142.2030 C   0  0  0  0  0  0  0  0  0  0  0  0
  197.2220  172.2780  144.4180 C   0  0  0  0  0  2  0  0  0  0  0  0
  197.3770  173.5300  145.2730 C   0  0  0  0  0  2  0  0  0  0  0  0
  195.5230  175.2360  145.0760 N   0  0  0  0  0  2  0  0  0  0  0  0
  196.7670  174.7150  144.6000 C   0  0  0  0  0  0  0  0  0  0  0  0
  197.4180  175.3190  143.6600 N   0  0  0  0  0  2  0  0  0  0  0  0
  193.9030  176.2930  143.5990 C   0  0  0  0  0  1  0  0  0  0  0  0
  194.9850  176.5150  144.6390 C   0  0  0  0  0  2  0  0  0  0  0  0
  191.8800  172.7410  144.7530 O   0  0  0  0  0  0  0  0  0  0  0  0
  192.4240  173.6160  145.6080 O   0  0  0  0  0  0  0  0  0  0  0  0
  191.5710  174.7200  145.5720 C   0  0  2  0  0  3  0  0  0  0  0  0
  191.9000  175.5940  146.6070 O   0  0  0  0  0  1  0  0  0  0  0  0
  190.1310  174.2710  145.7420 C   0  0  0  0  0  2  0  0  0  0  0  0
  188.4320  176.1310  144.8510 C   0  0  0  0  0  0  0  0  0  0  0  0
  189.2030  175.2960  145.2560 C   0  0  0  0  0  0  0  0  0  0  0  0
  187.5090  177.1200  144.3660 C   0  0  0  0  0  0  0  0  0  0  0  0
  183.8770  178.7290  145.7580 N   0  0  0  0  0  0  0  0  0  0  0  0
  185.7090  178.5350  144.1410 C   0  0  0  0  0  0  0  0  0  0  0  0
  186.2910  177.5590  145.0130 C   0  0  0  0  0  0  0  0  0  0  0  0
  186.4760  178.6910  143.0700 C   0  0  0  0  0  3  0  0  0  0  0  0
  184.4210  179.2190  144.4740 C   0  0  0  0  0  2  0  0  0  0  0  0
  185.7230  177.1900  146.1560 C   0  0  0  0  0  3  0  0  0  0  0  0
  184.4390  177.8300  146.5230 C   0  0  0  0  0  3  0  0  0  0  0  0
  187.6320  177.7770  143.2160 C   0  0  0  0  0  3  0  0  0  0  0  0
  3  9  1  0  0  0  0
  4 10  1  1  0  0  0
  4  5  1  0  0  0  0
  5  2  2  0  0  0  0
  6  3  2  0  0  0  0
  6  1  1  0  0  0  0
  7 17  1  0  0  0  0
  7  5  1  0  0  0  0
  8  1  1  6  0  0  0
  8  4  1  0  0  0  0
  8  7  1  0  0  0  0
  9 10  2  0  0  0  0
 10 24  1  0  0  0  0
 11 16  1  0  0  0  0
 12 13  1  0  0  0  0
 12 11  2  0  0  0  0
 13 15  2  0  0  0  0
 15 14  1  0  0  0  0
 16 14  2  0  0  0  0
 16  9  1  0  0  0  0
 17 18  1  0  0  0  0
 20 19  1  0  0  0  0
 20 18  1  0  0  0  0
 21 20  2  0  0  0  0
 22 23  1  0  0  0  0
 23 19  1  0  0  0  0
 24 25  1  0  0  0  0
 26 25  1  0  0  0  0
 26 28  1  0  0  0  0
 26 27  1  1  0  0  0
 29 30  3  0  0  0  0
 30 28  1  0  0  0  0
 31 29  1  0  0  0  0
 31 34  1  0  0  0  0
 32 38  2  0  0  0  0
 33 36  1  0  0  0  0
 33 34  1  0  0  0  0
 34 37  2  0  0  0  0
 35 39  1  0  0  0  0
 35 33  2  0  0  0  0
 36 32  1  0  0  0  0
 37 38  1  0  0  0  0
 39 31  2  0  0  0  0
M  END
>  <MODEL>
8

>  <REMARK>
 VINA RESULT:      -6.4      2.670      6.859
  Name = 
  11 active torsions:
  status: ('A' for Active; 'I' for Inactive)
    1  A    between atoms: C_1  and  C_5
    2  A    between atoms: N_7  and  C_26
    3  A    between atoms: C_8  and  C_15
    4  A    between atoms: C_8  and  O_17
    5  A    between atoms: C_10  and  C_38
    6  A    between atoms: C_15  and  C_19
    7  A    between atoms: O_17  and  O_37
    8  A    between atoms: C_24  and  N_30
    9  A    between atoms: C_24  and  C_38
   10  A    between atoms: C_32  and  C_34
   11  A    between atoms: C_35  and  O_37
                            x       y       z     vdW  Elec       q    Type
                         _______ _______ _______ _____ _____    ______ ____

>  <TORSDO>
F 11

$$$$
=
 OpenBabel11042417293D

 39 43  0  0  1  0  0  0  0  0999 V2000
  195.7060  176.3810  144.1730 O   0  0  0  0  0  0  0  0  0  0  0  0
  194.0050  174.9910  140.3800 O   0  0  0  0  0  0  0  0  0  0  0  0
  193.6920  177.0000  145.4350 C   0  0  0  0  0  3  0  0  0  0  0  0
  193.9730  175.9370  142.7550 C   0  0  2  0  0  3  0  0  0  0  0  0
  194.4450  175.2010  141.5400 C   0  0  0  0  0  0  0  0  0  0  0  0
  195.0160  177.0960  145.1680 C   0  0  0  0  0  3  0  0  0  0  0  0
  195.7170  174.9320  142.2450 N   0  0  0  0  0  0  0  0  0  0  0  0
  195.0530  175.3510  143.4590 C   0  0  1  0  0  3  0  0  0  0  0  0
  192.6100  176.1820  144.7720 C   0  0  0  0  0  0  0  0  0  0  0  0
  192.7470  175.6090  143.5450 C   0  0  0  0  0  0  0  0  0  0  0  0
  191.2190  175.0420  146.5140 C   0  0  0  0  0  3  0  0  0  0  0  0
  190.0790  174.9480  147.2460 N   0  0  0  0  0  0  0  0  0  0  0  0
  189.0670  175.7970  147.0680 N   0  0  0  0  0  0  0  0  0  0  0  0
  190.2790  176.9350  145.3720 C   0  0  0  0  0  3  0  0  0  0  0  0
  189.1330  176.7950  146.1480 C   0  0  0  0  0  3  0  0  0  0  0  0
  191.3450  176.0430  145.5420 C   0  0  0  0  0  0  0  0  0  0  0  0
  196.9810  174.3040  141.8960 C   0  0  0  0  0  2  0  0  0  0  0  0
  196.8880  172.7910  142.0500 C   0  0  0  0  0  2  0  0  0  0  0  0
  195.8260  171.6270  144.0240 N   0  0  0  0  0  2  0  0  0  0  0  0
  196.9050  172.3990  143.4900 C   0  0  0  0  0  0  0  0  0  0  0  0
  197.9410  172.6740  144.2140 N   0  0  0  0  0  2  0  0  0  0  0  0
  194.5110  170.4560  145.7050 C   0  0  0  0  0  1  0  0  0  0  0  0
  195.8770  171.0050  145.3390 C   0  0  0  0  0  2  0  0  0  0  0  0
  191.7540  174.7510  143.0550 O   0  0  0  0  0  0  0  0  0  0  0  0
  190.8940  175.1260  142.1020 O   0  0  0  0  0  0  0  0  0  0  0  0
  190.1840  173.9650  141.7920 C   0  0  2  0  0  3  0  0  0  0  0  0
  189.5580  174.1190  140.5560 O   0  0  0  0  0  1  0  0  0  0  0  0
  189.1310  173.7000  142.8520 C   0  0  0  0  0  2  0  0  0  0  0  0
  187.4220  175.7470  143.0220 C   0  0  0  0  0  0  0  0  0  0  0  0
  188.1960  174.8240  142.9520 C   0  0  0  0  0  0  0  0  0  0  0  0
  186.4970  176.8450  143.1000 C   0  0  0  0  0  0  0  0  0  0  0  0
  184.0940  178.4920  146.1380 N   0  0  0  0  0  0  0  0  0  0  0  0
  184.9620  178.3860  143.8480 C   0  0  0  0  0  0  0  0  0  0  0  0
  185.7610  177.2750  144.2700 C   0  0  1  0  0  3  0  0  0  0  0  0
  185.1750  178.6260  142.5610 C   0  0  0  0  0  3  0  0  0  0  0  0
  184.0500  179.1020  144.7930 C   0  0  0  0  0  3  0  0  0  0  0  0
  185.7340  176.8030  145.5120 C   0  0  0  0  0  3  0  0  0  0  0  0
  184.8360  177.4710  146.4810 C   0  0  0  0  0  3  0  0  0  0  0  0
  186.1610  177.6300  142.0810 C   0  0  0  0  0  3  0  0  0  0  0  0
  1  6  1  0  0  0  0
  2  5  2  0  0  0  0
  4  5  1  6  0  0  0
  4  8  1  0  0  0  0
  4 10  1  0  0  0  0
  5  7  1  0  0  0  0
  6  3  2  0  0  0  0
  7  8  1  0  0  0  0
  8  1  1  6  0  0  0
  9  3  1  0  0  0  0
  9 16  1  0  0  0  0
 10  9  2  0  0  0  0
 11 12  1  0  0  0  0
 13 12  2  0  0  0  0
 14 16  1  0  0  0  0
 14 15  2  0  0  0  0
 15 13  1  0  0  0  0
 16 11  2  0  0  0  0
 17 18  1  0  0  0  0
 17  7  1  0  0  0  0
 18 20  1  0  0  0  0
 19 23  1  0  0  0  0
 20 19  1  0  0  0  0
 20 21  2  0  0  0  0
 23 22  1  0  0  0  0
 24 10  1  0  0  0  0
 25 24  1  0  0  0  0
 26 27  1  6  0  0  0
 26 25  1  0  0  0  0
 26 28  1  0  0  0  0
 28 30  1  0  0  0  0
 29 31  1  0  0  0  0
 30 29  3  0  0  0  0
 31 34  1  0  0  0  0
 32 38  1  0  0  0  0
 33 34  1  0  0  0  0
 33 36  1  0  0  0  0
 34 37  1  6  0  0  0
 35 33  2  0  0  0  0
 36 32  2  0  0  0  0
 37 38  2  0  0  0  0
 39 35  1  0  0  0  0
 39 31  2  0  0  0  0
M  END
>  <MODEL>
9

>  <REMARK>
 VINA RESULT:      -6.4      2.695      5.911
  Name = 
  11 active torsions:
  status: ('A' for Active; 'I' for Inactive)
    1  A    between atoms: C_1  and  C_5
    2  A    between atoms: N_7  and  C_26
    3  A    between atoms: C_8  and  C_15
    4  A    between atoms: C_8  and  O_17
    5  A    between atoms: C_10  and  C_38
    6  A    between atoms: C_15  and  C_19
    7  A    between atoms: O_17  and  O_37
    8  A    between atoms: C_24  and  N_30
    9  A    between atoms: C_24  and  C_38
   10  A    between atoms: C_32  and  C_34
   11  A    between atoms: C_35  and  O_37
                            x       y       z     vdW  Elec       q    Type
                         _______ _______ _______ _____ _____    ______ ____

>  <TORSDO>
F 11

$$$$
