=
 OpenBabel11042414263D

 41 46  0  0  1  0  0  0  0  0999 V2000
  189.5430  174.5670  142.2390 C   0  0  0  0  0  0  0  0  0  0  0  0
  190.6240  174.9400  144.3630 N   0  0  0  0  0  0  0  0  0  0  0  0
  189.5070  172.6410  140.6930 N   0  0  0  0  0  0  0  0  0  0  0  0
  191.0230  175.6110  145.4770 C   0  0  0  0  0  0  0  0  0  0  0  0
  188.2260  173.1760  140.1920 C   0  0  0  0  0  2  0  0  0  0  0  0
  188.7750  175.3030  141.3660 C   0  0  0  0  0  0  0  0  0  0  0  0
  189.2880  176.6730  143.0780 C   0  0  0  0  0  0  0  0  0  0  0  0
  189.8030  173.0990  142.0630 C   0  0  0  0  0  2  0  0  0  0  0  0
  190.7020  176.9400  145.7890 C   0  0  0  0  0  3  0  0  0  0  0  0
  188.6450  176.5970  141.8550 C   0  0  0  0  0  0  0  0  0  0  0  0
  189.8790  175.3600  143.3150 C   0  0  0  0  0  0  0  0  0  0  0  0
  188.1940  174.7150  140.1200 C   0  0  0  0  0  2  0  0  0  0  0  0
  189.3210  177.7950  143.8810 C   0  0  0  0  0  3  0  0  0  0  0  0
  189.9600  177.8980  145.1050 C   0  0  0  0  0  3  0  0  0  0  0  0
  191.8350  175.1500  147.6690 O   0  0  0  0  0  0  0  0  0  0  0  0
  191.8560  174.8690  146.4400 C   0  0  0  0  0  0  0  0  0  0  0  0
  192.6600  173.8640  146.0050 F   0  0  0  0  0  0  0  0  0  0  0  0
  190.6040  173.0280  139.8070 C   0  0  0  0  0  2  0  0  0  0  0  0
  191.9130  173.0370  140.5760 C   0  0  0  0  0  2  0  0  0  0  0  0
  192.7360  174.0600  140.1030 O   0  0  0  0  0  0  0  0  0  0  0  0
  193.8540  174.0530  140.9380 C   0  0  1  0  0  3  0  0  0  0  0  0
  194.7680  175.2340  140.5700 C   0  0  0  0  0  2  0  0  0  0  0  0
  196.0360  176.9760  141.5680 O   0  0  0  0  0  0  0  0  0  0  0  0
  194.6350  174.0610  143.2790 C   0  0  0  0  0  2  0  0  0  0  0  0
  195.4460  175.2590  143.0480 N   0  0  0  0  0  0  0  0  0  0  0  0
  193.4030  174.0870  142.3930 C   0  0  0  0  0  2  0  0  0  0  0  0
  195.4680  175.8690  141.7420 C   0  0  0  0  0  0  0  0  0  0  0  0
  194.8820  176.6350  145.0010 C   0  0  0  0  0  2  0  0  0  0  0  0
  195.4800  175.3380  145.4950 C   0  0  0  0  0  2  0  0  0  0  0  0
  195.9980  175.9670  144.2060 C   0  0  0  0  0  3  0  0  0  0  0  0
  187.8670  177.6520  141.2760 N   0  0  0  0  0  2  0  0  0  0  0  0
  184.5600  178.3110  142.7870 N   0  0  0  0  0  0  0  0  0  0  0  0
  184.2720  177.9830  140.4680 N   0  0  0  0  0  0  0  0  0  0  0  0
  185.8980  178.0980  142.6560 C   0  0  0  0  0  3  0  0  0  0  0  0
  183.7460  178.2510  141.6930 C   0  0  0  0  0  0  0  0  0  0  0  0
  185.6020  177.7680  140.3080 C   0  0  0  0  0  3  0  0  0  0  0  0
  182.5060  178.4500  141.8050 O   0  0  0  0  0  0  0  0  0  0  0  0
  186.4500  177.8070  141.4110 C   0  0  0  0  0  0  0  0  0  0  0  0
  184.0200  178.6070  144.1100 C   0  0  0  0  0  2  0  0  0  0  0  0
  185.1300  178.7420  145.1390 C   0  0  0  0  0  2  0  0  0  0  0  0
  184.9460  177.7490  146.2620 C   0  0  0  0  0  1  0  0  0  0  0  0
  1 11  1  0  0  0  0
  2  4  1  0  0  0  0
  3  8  1  0  0  0  0
  4  9  2  0  0  0  0
  4 16  1  0  0  0  0
  5  3  1  0  0  0  0
  6 10  1  0  0  0  0
  6  1  2  0  0  0  0
  7 11  1  0  0  0  0
  7 13  1  0  0  0  0
  8  1  1  0  0  0  0
 10  7  2  0  0  0  0
 11  2  2  0  0  0  0
 12  5  1  0  0  0  0
 12  6  1  0  0  0  0
 13 14  2  0  0  0  0
 14  9  1  0  0  0  0
 16 15  2  0  0  0  0
 17 16  1  0  0  0  0
 18 19  1  0  0  0  0
 18  3  1  0  0  0  0
 20 19  1  0  0  0  0
 21 20  1  6  0  0  0
 21 26  1  0  0  0  0
 22 21  1  0  0  0  0
 22 27  1  0  0  0  0
 23 27  2  0  0  0  0
 25 24  1  0  0  0  0
 25 30  1  0  0  0  0
 26 24  1  0  0  0  0
 27 25  1  0  0  0  0
 28 29  1  0  0  0  0
 30 28  1  0  0  0  0
 30 29  1  0  0  0  0
 31 38  1  0  0  0  0
 31 10  1  0  0  0  0
 32 39  1  0  0  0  0
 33 35  1  0  0  0  0
 34 32  1  0  0  0  0
 35 37  2  0  0  0  0
 35 32  1  0  0  0  0
 36 33  2  0  0  0  0
 36 38  1  0  0  0  0
 38 34  2  0  0  0  0
 39 40  1  0  0  0  0
 40 41  1  0  0  0  0
M  END
>  <MODEL>
1

>  <REMARK>
 VINA RESULT:      -7.5      0.000      0.000
  Name = 
  10 active torsions:
  status: ('A' for Active; 'I' for Inactive)
    1  A    between atoms: C_1  and  O_13
    2  A    between atoms: N_2  and  C_32
    3  A    between atoms: C_3  and  N_15
    4  A    between atoms: C_3  and  C_37
    5  A    between atoms: C_10  and  C_32
    6  A    between atoms: O_13  and  C_37
    7  A    between atoms: N_17  and  C_29
    8  A    between atoms: N_17  and  C_40
    9  A    between atoms: C_18  and  C_22
   10  A    between atoms: N_23  and  C_39
                            x       y       z     vdW  Elec       q    Type
                         _______ _______ _______ _____ _____    ______ ____

>  <TORSDO>
F 10

$$$$
=
 OpenBabel11042414263D

 41 46  0  0  1  0  0  0  0  0999 V2000
  189.8230  174.2860  143.1290 C   0  0  0  0  0  0  0  0  0  0  0  0
  191.5060  175.3720  144.4740 N   0  0  0  0  0  0  0  0  0  0  0  0
  189.2430  171.9140  142.7650 N   0  0  0  0  0  0  0  0  0  0  0  0
  192.2480  176.3870  144.9920 C   0  0  0  0  0  0  0  0  0  0  0  0
  187.8950  172.3880  142.3960 C   0  0  0  0  0  2  0  0  0  0  0  0
  188.8610  174.6770  142.2250 C   0  0  0  0  0  0  0  0  0  0  0  0
  189.9210  176.5520  142.8820 C   0  0  0  0  0  0  0  0  0  0  0  0
  189.9560  172.8760  143.6250 C   0  0  0  0  0  2  0  0  0  0  0  0
  192.0930  177.7480  144.6920 C   0  0  0  0  0  3  0  0  0  0  0  0
  188.9390  176.0520  142.0450 C   0  0  0  0  0  0  0  0  0  0  0  0
  190.5000  175.4040  143.5710 C   0  0  0  0  0  0  0  0  0  0  0  0
  187.9090  173.7080  141.6020 C   0  0  0  0  0  2  0  0  0  0  0  0
  190.2420  177.8890  143.0090 C   0  0  0  0  0  3  0  0  0  0  0  0
  191.2220  178.4130  143.8340 C   0  0  0  0  0  3  0  0  0  0  0  0
  194.0970  176.8850  146.4090 O   0  0  0  0  0  0  0  0  0  0  0  0
  193.2980  176.0200  145.9580 C   0  0  0  0  0  0  0  0  0  0  0  0
  193.4130  174.7330  146.3760 F   0  0  0  0  0  0  0  0  0  0  0  0
  190.0400  171.6560  141.5660 C   0  0  0  0  0  2  0  0  0  0  0  0
  191.4500  171.2510  141.9580 C   0  0  0  0  0  2  0  0  0  0  0  0
  192.3740  171.8610  141.1080 O   0  0  0  0  0  0  0  0  0  0  0  0
  192.6990  173.0710  141.7230 C   0  0  1  0  0  3  0  0  0  0  0  0
  193.5620  172.7930  142.9650 C   0  0  0  0  0  2  0  0  0  0  0  0
  195.5220  173.5560  144.0680 O   0  0  0  0  0  0  0  0  0  0  0  0
  193.7190  175.2970  141.4030 C   0  0  0  0  0  2  0  0  0  0  0  0
  194.6610  175.0680  142.5010 N   0  0  0  0  0  0  0  0  0  0  0  0
  193.3910  173.9830  140.7160 C   0  0  0  0  0  2  0  0  0  0  0  0
  194.6270  173.8240  143.2280 C   0  0  0  0  0  0  0  0  0  0  0  0
  196.9140  175.6210  141.6990 C   0  0  0  0  0  2  0  0  0  0  0  0
  196.0010  176.7790  141.3720 C   0  0  0  0  0  2  0  0  0  0  0  0
  195.7890  175.9900  142.6590 C   0  0  0  0  0  3  0  0  0  0  0  0
  188.0700  176.8570  141.2380 N   0  0  0  0  0  2  0  0  0  0  0  0
  185.1650  177.8310  143.3030 N   0  0  0  0  0  0  0  0  0  0  0  0
  184.5880  178.0910  141.0300 N   0  0  0  0  0  0  0  0  0  0  0  0
  186.3980  177.3820  142.9440 C   0  0  0  0  0  3  0  0  0  0  0  0
  184.2590  178.1840  142.3460 C   0  0  0  0  0  0  0  0  0  0  0  0
  185.8100  177.6480  140.6440 C   0  0  0  0  0  3  0  0  0  0  0  0
  183.1140  178.6040  142.6700 O   0  0  0  0  0  0  0  0  0  0  0  0
  186.7460  177.2660  141.6010 C   0  0  0  0  0  0  0  0  0  0  0  0
  184.8370  177.9320  144.7220 C   0  0  0  0  0  2  0  0  0  0  0  0
  185.9170  178.6820  145.4830 C   0  0  0  0  0  2  0  0  0  0  0  0
  185.4960  178.9260  146.9130 C   0  0  0  0  0  1  0  0  0  0  0  0
  1 11  1  0  0  0  0
  1  8  1  0  0  0  0
  2  4  1  0  0  0  0
  3  8  1  0  0  0  0
  4 16  1  0  0  0  0
  5  3  1  0  0  0  0
  6  1  2  0  0  0  0
  7 13  1  0  0  0  0
  7 11  1  0  0  0  0
  9  4  2  0  0  0  0
 10  6  1  0  0  0  0
 10  7  2  0  0  0  0
 11  2  2  0  0  0  0
 12  6  1  0  0  0  0
 12  5  1  0  0  0  0
 13 14  2  0  0  0  0
 14  9  1  0  0  0  0
 16 17  1  0  0  0  0
 16 15  2  0  0  0  0
 18 19  1  0  0  0  0
 18  3  1  0  0  0  0
 20 19  1  0  0  0  0
 21 20  1  6  0  0  0
 21 22  1  0  0  0  0
 22 27  1  0  0  0  0
 24 25  1  0  0  0  0
 25 30  1  0  0  0  0
 25 27  1  0  0  0  0
 26 24  1  0  0  0  0
 26 21  1  0  0  0  0
 27 23  2  0  0  0  0
 28 30  1  0  0  0  0
 29 28  1  0  0  0  0
 29 30  1  0  0  0  0
 31 38  1  0  0  0  0
 31 10  1  0  0  0  0
 32 39  1  0  0  0  0
 33 35  1  0  0  0  0
 34 32  1  0  0  0  0
 35 37  2  0  0  0  0
 35 32  1  0  0  0  0
 36 33  2  0  0  0  0
 36 38  1  0  0  0  0
 38 34  2  0  0  0  0
 39 40  1  0  0  0  0
 40 41  1  0  0  0  0
M  END
>  <MODEL>
2

>  <REMARK>
 VINA RESULT:      -7.1      1.570      1.986
  Name = 
  10 active torsions:
  status: ('A' for Active; 'I' for Inactive)
    1  A    between atoms: C_1  and  O_13
    2  A    between atoms: N_2  and  C_32
    3  A    between atoms: C_3  and  N_15
    4  A    between atoms: C_3  and  C_37
    5  A    between atoms: C_10  and  C_32
    6  A    between atoms: O_13  and  C_37
    7  A    between atoms: N_17  and  C_29
    8  A    between atoms: N_17  and  C_40
    9  A    between atoms: C_18  and  C_22
   10  A    between atoms: N_23  and  C_39
                            x       y       z     vdW  Elec       q    Type
                         _______ _______ _______ _____ _____    ______ ____

>  <TORSDO>
F 10

$$$$
=
 OpenBabel11042414263D

 41 46  0  0  1  0  0  0  0  0999 V2000
  190.6640  175.7070  142.6380 C   0  0  0  0  0  0  0  0  0  0  0  0
  191.1060  173.5170  141.7290 N   0  0  0  0  0  0  0  0  0  0  0  0
  191.9290  177.1720  144.1700 N   0  0  0  0  0  0  0  0  0  0  0  0
  190.8860  172.3690  141.0330 C   0  0  0  0  0  0  0  0  0  0  0  0
  191.1880  178.2990  143.5700 C   0  0  0  0  0  2  0  0  0  0  0  0
  189.6310  176.6170  142.5940 C   0  0  0  0  0  0  0  0  0  0  0  0
  188.9690  174.8390  141.3810 C   0  0  0  0  0  0  0  0  0  0  0  0
  191.9910  176.0050  143.2720 C   0  0  0  0  0  2  0  0  0  0  0  0
  189.7320  172.0720  140.2920 C   0  0  0  0  0  3  0  0  0  0  0  0
  188.5830  176.0790  141.8580 C   0  0  0  0  0  0  0  0  0  0  0  0
  190.3110  174.5970  141.8990 C   0  0  0  0  0  0  0  0  0  0  0  0
  189.7200  177.9590  143.2460 C   0  0  0  0  0  2  0  0  0  0  0  0
  188.1990  174.0350  140.5650 C   0  0  0  0  0  3  0  0  0  0  0  0
  188.5590  172.7900  140.0790 C   0  0  0  0  0  3  0  0  0  0  0  0
  192.7040  171.1810  140.0550 O   0  0  0  0  0  0  0  0  0  0  0  0
  191.9580  171.3590  141.0550 C   0  0  0  0  0  0  0  0  0  0  0  0
  192.1520  170.6040  142.1670 F   0  0  0  0  0  0  0  0  0  0  0  0
  191.3160  176.7750  145.4380 C   0  0  0  0  0  2  0  0  0  0  0  0
  192.1770  175.7290  146.1240 C   0  0  0  0  0  2  0  0  0  0  0  0
  193.3810  176.3010  146.5380 O   0  0  0  0  0  0  0  0  0  0  0  0
  194.3670  175.3700  146.2080 C   0  0  1  0  0  3  0  0  0  0  0  0
  193.7000  174.0310  145.8510 C   0  0  0  0  0  2  0  0  0  0  0  0
  193.7870  172.2890  144.2400 O   0  0  0  0  0  0  0  0  0  0  0  0
  196.3010  174.8980  144.7470 C   0  0  0  0  0  2  0  0  0  0  0  0
  195.6850  173.6600  144.2630 N   0  0  0  0  0  0  0  0  0  0  0  0
  195.2270  175.9210  145.0760 C   0  0  0  0  0  2  0  0  0  0  0  0
  194.3900  173.2630  144.7550 C   0  0  0  0  0  0  0  0  0  0  0  0
  195.8900  173.7390  141.8180 C   0  0  0  0  0  2  0  0  0  0  0  0
  197.2650  173.9290  142.4120 C   0  0  0  0  0  2  0  0  0  0  0  0
  196.2700  172.9980  143.0940 C   0  0  0  0  0  3  0  0  0  0  0  0
  187.3530  176.7340  141.5230 N   0  0  0  0  0  2  0  0  0  0  0  0
  185.5290  177.2560  144.6930 N   0  0  0  0  0  0  0  0  0  0  0  0
  184.6780  178.7580  143.0840 N   0  0  0  0  0  0  0  0  0  0  0  0
  186.3880  176.7470  143.7700 C   0  0  0  0  0  3  0  0  0  0  0  0
  184.6720  178.2610  144.3500 C   0  0  0  0  0  0  0  0  0  0  0  0
  185.5250  178.2700  142.1440 C   0  0  0  0  0  3  0  0  0  0  0  0
  183.8730  178.7420  145.2000 O   0  0  0  0  0  0  0  0  0  0  0  0
  186.3970  177.2330  142.4650 C   0  0  0  0  0  0  0  0  0  0  0  0
  185.5470  176.7140  146.0480 C   0  0  0  0  0  2  0  0  0  0  0  0
  186.7560  177.2100  146.8220 C   0  0  0  0  0  2  0  0  0  0  0  0
  187.8150  176.1360  146.9110 C   0  0  0  0  0  1  0  0  0  0  0  0
  1  8  1  0  0  0  0
  2 11  1  0  0  0  0
  3 18  1  0  0  0  0
  4 16  1  0  0  0  0
  4  2  2  0  0  0  0
  5  3  1  0  0  0  0
  6  1  1  0  0  0  0
  6 12  1  0  0  0  0
  7 10  1  0  0  0  0
  7 11  1  0  0  0  0
  8  3  1  0  0  0  0
  9  4  1  0  0  0  0
 10  6  2  0  0  0  0
 11  1  2  0  0  0  0
 12  5  1  0  0  0  0
 13  7  2  0  0  0  0
 14  9  2  0  0  0  0
 14 13  1  0  0  0  0
 15 16  2  0  0  0  0
 16 17  1  0  0  0  0
 18 19  1  0  0  0  0
 19 20  1  0  0  0  0
 21 20  1  6  0  0  0
 22 21  1  0  0  0  0
 23 27  2  0  0  0  0
 24 26  1  0  0  0  0
 25 24  1  0  0  0  0
 25 27  1  0  0  0  0
 26 21  1  0  0  0  0
 27 22  1  0  0  0  0
 28 29  1  0  0  0  0
 28 30  1  0  0  0  0
 29 30  1  0  0  0  0
 30 25  1  0  0  0  0
 31 10  1  0  0  0  0
 31 38  1  0  0  0  0
 32 39  1  0  0  0  0
 33 35  1  0  0  0  0
 34 32  1  0  0  0  0
 35 32  1  0  0  0  0
 35 37  2  0  0  0  0
 36 38  1  0  0  0  0
 36 33  2  0  0  0  0
 38 34  2  0  0  0  0
 39 40  1  0  0  0  0
 40 41  1  0  0  0  0
M  END
>  <MODEL>
3

>  <REMARK>
 VINA RESULT:      -6.9      2.002      4.519
  Name = 
  10 active torsions:
  status: ('A' for Active; 'I' for Inactive)
    1  A    between atoms: C_1  and  O_13
    2  A    between atoms: N_2  and  C_32
    3  A    between atoms: C_3  and  N_15
    4  A    between atoms: C_3  and  C_37
    5  A    between atoms: C_10  and  C_32
    6  A    between atoms: O_13  and  C_37
    7  A    between atoms: N_17  and  C_29
    8  A    between atoms: N_17  and  C_40
    9  A    between atoms: C_18  and  C_22
   10  A    between atoms: N_23  and  C_39
                            x       y       z     vdW  Elec       q    Type
                         _______ _______ _______ _____ _____    ______ ____

>  <TORSDO>
F 10

$$$$
=
 OpenBabel11042414263D

 41 46  0  0  1  0  0  0  0  0999 V2000
  190.7110  174.1000  143.3260 C   0  0  0  0  0  0  0  0  0  0  0  0
  192.6940  173.6740  144.6320 N   0  0  0  0  0  0  0  0  0  0  0  0
  189.6310  172.8770  141.4720 N   0  0  0  0  0  0  0  0  0  0  0  0
  193.6710  173.8900  145.5530 C   0  0  0  0  0  0  0  0  0  0  0  0
  188.3790  173.5500  141.8690 C   0  0  0  0  0  2  0  0  0  0  0  0
  189.7700  175.1010  143.2360 C   0  0  0  0  0  0  0  0  0  0  0  0
  191.2440  175.7480  144.8100 C   0  0  0  0  0  0  0  0  0  0  0  0
  190.5990  172.8010  142.5810 C   0  0  0  0  0  2  0  0  0  0  0  0
  193.7680  175.0090  146.3930 C   0  0  0  0  0  3  0  0  0  0  0  0
  190.1080  176.1230  144.1130 C   0  0  0  0  0  0  0  0  0  0  0  0
  191.6370  174.4450  144.2870 C   0  0  0  0  0  0  0  0  0  0  0  0
  188.5890  175.0070  142.3250 C   0  0  0  0  0  2  0  0  0  0  0  0
  191.8390  176.4960  145.8060 C   0  0  0  0  0  3  0  0  0  0  0  0
  192.9760  176.1470  146.5140 C   0  0  0  0  0  3  0  0  0  0  0  0
  194.4350  171.6350  145.4980 O   0  0  0  0  0  0  0  0  0  0  0  0
  194.7080  172.8520  145.6820 C   0  0  0  0  0  0  0  0  0  0  0  0
  195.9800  173.2030  146.0030 F   0  0  0  0  0  0  0  0  0  0  0  0
  190.2470  173.5700  140.3400 C   0  0  0  0  0  2  0  0  0  0  0  0
  191.5760  172.9220  139.9970 C   0  0  0  0  0  2  0  0  0  0  0  0
  192.5350  173.9050  139.7500 O   0  0  0  0  0  0  0  0  0  0  0  0
  193.1560  174.1360  140.9790 C   0  0  1  0  0  3  0  0  0  0  0  0
  194.0400  172.9290  141.3330 C   0  0  0  0  0  2  0  0  0  0  0  0
  196.2000  172.3960  142.1650 O   0  0  0  0  0  0  0  0  0  0  0  0
  194.5880  175.6790  142.2680 C   0  0  0  0  0  2  0  0  0  0  0  0
  195.5490  174.6110  142.5570 N   0  0  0  0  0  0  0  0  0  0  0  0
  193.9380  175.4430  140.9160 C   0  0  0  0  0  2  0  0  0  0  0  0
  195.3150  173.2810  142.0530 C   0  0  0  0  0  0  0  0  0  0  0  0
  197.7210  175.6350  142.0490 C   0  0  0  0  0  2  0  0  0  0  0  0
  197.0290  176.4890  143.0850 C   0  0  0  0  0  2  0  0  0  0  0  0
  196.8540  174.9750  143.1150 C   0  0  0  0  0  3  0  0  0  0  0  0
  189.3510  177.3120  144.3690 N   0  0  0  0  0  2  0  0  0  0  0  0
  185.7230  177.8640  144.8010 N   0  0  0  0  0  0  0  0  0  0  0  0
  186.5530  176.7980  146.7350 N   0  0  0  0  0  0  0  0  0  0  0  0
  186.9740  177.8760  144.2650 C   0  0  0  0  0  3  0  0  0  0  0  0
  185.5130  177.3260  146.0370 C   0  0  0  0  0  0  0  0  0  0  0  0
  187.8100  176.7960  146.2250 C   0  0  0  0  0  3  0  0  0  0  0  0
  184.3560  177.3070  146.5410 O   0  0  0  0  0  0  0  0  0  0  0  0
  188.0530  177.3530  144.9730 C   0  0  0  0  0  0  0  0  0  0  0  0
  184.6200  178.4270  144.0290 C   0  0  0  0  0  2  0  0  0  0  0  0
  184.5970  177.8700  142.6160 C   0  0  0  0  0  2  0  0  0  0  0  0
  183.3030  178.2220  141.9200 C   0  0  0  0  0  1  0  0  0  0  0  0
  1 11  1  0  0  0  0
  2  4  1  0  0  0  0
  3  5  1  0  0  0  0
  3  8  1  0  0  0  0
  4 16  1  0  0  0  0
  4  9  2  0  0  0  0
  5 12  1  0  0  0  0
  6  1  2  0  0  0  0
  6 10  1  0  0  0  0
  7 13  1  0  0  0  0
  8  1  1  0  0  0  0
  9 14  1  0  0  0  0
 10 31  1  0  0  0  0
 10  7  2  0  0  0  0
 11  2  2  0  0  0  0
 11  7  1  0  0  0  0
 12  6  1  0  0  0  0
 13 14  2  0  0  0  0
 15 16  2  0  0  0  0
 16 17  1  0  0  0  0
 18  3  1  0  0  0  0
 19 18  1  0  0  0  0
 20 19  1  0  0  0  0
 21 20  1  6  0  0  0
 21 22  1  0  0  0  0
 22 27  1  0  0  0  0
 24 25  1  0  0  0  0
 25 30  1  0  0  0  0
 26 21  1  0  0  0  0
 26 24  1  0  0  0  0
 27 23  2  0  0  0  0
 27 25  1  0  0  0  0
 28 29  1  0  0  0  0
 28 30  1  0  0  0  0
 29 30  1  0  0  0  0
 31 38  1  0  0  0  0
 32 35  1  0  0  0  0
 34 32  1  0  0  0  0
 34 38  2  0  0  0  0
 35 37  2  0  0  0  0
 35 33  1  0  0  0  0
 36 33  2  0  0  0  0
 38 36  1  0  0  0  0
 39 32  1  0  0  0  0
 40 39  1  0  0  0  0
 41 40  1  0  0  0  0
M  END
>  <MODEL>
4

>  <REMARK>
 VINA RESULT:      -6.9      2.171      3.196
  Name = 
  10 active torsions:
  status: ('A' for Active; 'I' for Inactive)
    1  A    between atoms: C_1  and  O_13
    2  A    between atoms: N_2  and  C_32
    3  A    between atoms: C_3  and  N_15
    4  A    between atoms: C_3  and  C_37
    5  A    between atoms: C_10  and  C_32
    6  A    between atoms: O_13  and  C_37
    7  A    between atoms: N_17  and  C_29
    8  A    between atoms: N_17  and  C_40
    9  A    between atoms: C_18  and  C_22
   10  A    between atoms: N_23  and  C_39
                            x       y       z     vdW  Elec       q    Type
                         _______ _______ _______ _____ _____    ______ ____

>  <TORSDO>
F 10

$$$$
=
 OpenBabel11042414263D

 41 46  0  0  1  0  0  0  0  0999 V2000
  190.4790  174.0990  143.4430 C   0  0  0  0  0  0  0  0  0  0  0  0
  192.0550  175.6090  144.4710 N   0  0  0  0  0  0  0  0  0  0  0  0
  190.2930  171.6370  143.4130 N   0  0  0  0  0  0  0  0  0  0  0  0
  192.6500  176.7890  144.7890 C   0  0  0  0  0  0  0  0  0  0  0  0
  188.8560  171.8330  143.1380 C   0  0  0  0  0  2  0  0  0  0  0  0
  189.3900  174.2080  142.6080 C   0  0  0  0  0  0  0  0  0  0  0  0
  190.1590  176.2990  142.9320 C   0  0  0  0  0  0  0  0  0  0  0  0
  190.8970  172.8050  144.0790 C   0  0  0  0  0  2  0  0  0  0  0  0
  192.2350  178.0570  144.3550 C   0  0  0  0  0  3  0  0  0  0  0  0
  189.2110  175.5420  142.2670 C   0  0  0  0  0  0  0  0  0  0  0  0
  190.9860  175.3590  143.6810 C   0  0  0  0  0  0  0  0  0  0  0  0
  188.5720  173.0240  142.2030 C   0  0  0  0  0  2  0  0  0  0  0  0
  190.2510  177.6750  142.8730 C   0  0  0  0  0  3  0  0  0  0  0  0
  191.1910  178.4540  143.5250 C   0  0  0  0  0  3  0  0  0  0  0  0
  194.8980  177.3210  145.3740 O   0  0  0  0  0  0  0  0  0  0  0  0
  193.8270  176.7260  145.6740 C   0  0  0  0  0  0  0  0  0  0  0  0
  193.7650  176.0200  146.8330 F   0  0  0  0  0  0  0  0  0  0  0  0
  191.0170  171.3590  142.1730 C   0  0  0  0  0  2  0  0  0  0  0  0
  192.4990  171.2000  142.4640 C   0  0  0  0  0  2  0  0  0  0  0  0
  192.7150  170.0390  143.2070 O   0  0  0  0  0  0  0  0  0  0  0  0
  193.9970  170.1760  143.7440 C   0  0  1  0  0  3  0  0  0  0  0  0
  194.9760  170.5660  142.6240 C   0  0  0  0  0  2  0  0  0  0  0  0
  196.7580  172.0660  142.1600 O   0  0  0  0  0  0  0  0  0  0  0  0
  195.3660  171.3080  145.4580 C   0  0  0  0  0  2  0  0  0  0  0  0
  196.2870  171.8220  144.4410 N   0  0  0  0  0  0  0  0  0  0  0  0
  193.9660  171.1900  144.8810 C   0  0  0  0  0  2  0  0  0  0  0  0
  196.0670  171.5120  143.0510 C   0  0  0  0  0  0  0  0  0  0  0  0
  196.5770  174.2280  144.8330 C   0  0  0  0  0  2  0  0  0  0  0  0
  196.8170  173.5070  146.1380 C   0  0  0  0  0  2  0  0  0  0  0  0
  197.2480  172.8590  144.8270 C   0  0  0  0  0  3  0  0  0  0  0  0
  188.1500  176.0830  141.4700 N   0  0  0  0  0  2  0  0  0  0  0  0
  185.5600  177.2400  143.8380 N   0  0  0  0  0  0  0  0  0  0  0  0
  185.1340  178.2110  141.7300 N   0  0  0  0  0  0  0  0  0  0  0  0
  186.6360  176.5850  143.3240 C   0  0  0  0  0  3  0  0  0  0  0  0
  184.8070  178.0520  143.0400 C   0  0  0  0  0  0  0  0  0  0  0  0
  186.2020  177.5720  141.1920 C   0  0  0  0  0  3  0  0  0  0  0  0
  183.8100  178.6660  143.5080 O   0  0  0  0  0  0  0  0  0  0  0  0
  186.9750  176.7250  141.9810 C   0  0  0  0  0  0  0  0  0  0  0  0
  185.2330  177.0610  145.2490 C   0  0  0  0  0  2  0  0  0  0  0  0
  186.2110  177.8100  146.1380 C   0  0  0  0  0  2  0  0  0  0  0  0
  185.5670  179.0410  146.7300 C   0  0  0  0  0  1  0  0  0  0  0  0
  1 11  1  0  0  0  0
  1  8  1  0  0  0  0
  2  4  1  0  0  0  0
  3  8  1  0  0  0  0
  4 16  1  0  0  0  0
  5  3  1  0  0  0  0
  6  1  2  0  0  0  0
  7 11  1  0  0  0  0
  9  4  2  0  0  0  0
 10  6  1  0  0  0  0
 10  7  2  0  0  0  0
 11  2  2  0  0  0  0
 12  6  1  0  0  0  0
 12  5  1  0  0  0  0
 13  7  1  0  0  0  0
 13 14  2  0  0  0  0
 14  9  1  0  0  0  0
 15 16  2  0  0  0  0
 16 17  1  0  0  0  0
 18 19  1  0  0  0  0
 18  3  1  0  0  0  0
 19 20  1  0  0  0  0
 21 20  1  6  0  0  0
 21 26  1  0  0  0  0
 22 27  1  0  0  0  0
 22 21  1  0  0  0  0
 23 27  2  0  0  0  0
 25 30  1  0  0  0  0
 25 24  1  0  0  0  0
 26 24  1  0  0  0  0
 27 25  1  0  0  0  0
 28 29  1  0  0  0  0
 30 28  1  0  0  0  0
 30 29  1  0  0  0  0
 31 38  1  0  0  0  0
 31 10  1  0  0  0  0
 32 39  1  0  0  0  0
 33 35  1  0  0  0  0
 34 32  1  0  0  0  0
 35 37  2  0  0  0  0
 35 32  1  0  0  0  0
 36 33  2  0  0  0  0
 36 38  1  0  0  0  0
 38 34  2  0  0  0  0
 39 40  1  0  0  0  0
 40 41  1  0  0  0  0
M  END
>  <MODEL>
5

>  <REMARK>
 VINA RESULT:      -6.7      2.457      2.846
  Name = 
  10 active torsions:
  status: ('A' for Active; 'I' for Inactive)
    1  A    between atoms: C_1  and  O_13
    2  A    between atoms: N_2  and  C_32
    3  A    between atoms: C_3  and  N_15
    4  A    between atoms: C_3  and  C_37
    5  A    between atoms: C_10  and  C_32
    6  A    between atoms: O_13  and  C_37
    7  A    between atoms: N_17  and  C_29
    8  A    between atoms: N_17  and  C_40
    9  A    between atoms: C_18  and  C_22
   10  A    between atoms: N_23  and  C_39
                            x       y       z     vdW  Elec       q    Type
                         _______ _______ _______ _____ _____    ______ ____

>  <TORSDO>
F 10

$$$$
=
 OpenBabel11042414263D

 41 46  0  0  1  0  0  0  0  0999 V2000
  192.8420  173.2770  144.9500 C   0  0  0  0  0  0  0  0  0  0  0  0
  194.6060  171.6960  145.4110 N   0  0  0  0  0  0  0  0  0  0  0  0
  192.5360  175.6590  145.5230 N   0  0  0  0  0  0  0  0  0  0  0  0
  195.2580  170.5030  145.4370 C   0  0  0  0  0  0  0  0  0  0  0  0
  191.6340  175.7360  144.3580 C   0  0  0  0  0  2  0  0  0  0  0  0
  191.6050  173.2460  144.3480 C   0  0  0  0  0  0  0  0  0  0  0  0
  192.4150  171.1470  144.2540 C   0  0  0  0  0  0  0  0  0  0  0  0
  193.4970  174.5470  145.4110 C   0  0  0  0  0  2  0  0  0  0  0  0
  194.7800  169.2990  144.8990 C   0  0  0  0  0  3  0  0  0  0  0  0
  191.3250  171.9440  143.9530 C   0  0  0  0  0  0  0  0  0  0  0  0
  193.3890  172.0120  144.9110 C   0  0  0  0  0  0  0  0  0  0  0  0
  190.7710  174.4730  144.1710 C   0  0  0  0  0  2  0  0  0  0  0  0
  192.5140  169.8020  143.9560 C   0  0  0  0  0  3  0  0  0  0  0  0
  193.5910  168.9830  144.2500 C   0  0  0  0  0  3  0  0  0  0  0  0
  197.0510  169.4180  146.5700 O   0  0  0  0  0  0  0  0  0  0  0  0
  196.5840  170.4820  146.0780 C   0  0  0  0  0  0  0  0  0  0  0  0
  197.3230  171.6200  146.1440 F   0  0  0  0  0  0  0  0  0  0  0  0
  191.7660  175.5090  146.7570 C   0  0  0  0  0  2  0  0  0  0  0  0
  190.7460  176.6280  146.8710 C   0  0  0  0  0  2  0  0  0  0  0  0
  189.4910  176.0990  147.1710 O   0  0  0  0  0  0  0  0  0  0  0  0
  188.5770  177.1010  146.8390 C   0  0  1  0  0  3  0  0  0  0  0  0
  188.8040  177.5300  145.3800 C   0  0  0  0  0  2  0  0  0  0  0  0
  187.6120  178.0170  143.3840 O   0  0  0  0  0  0  0  0  0  0  0  0
  186.1870  177.7130  146.7400 C   0  0  0  0  0  2  0  0  0  0  0  0
  186.2860  178.0340  145.3140 N   0  0  0  0  0  0  0  0  0  0  0  0
  187.1590  176.6010  147.0920 C   0  0  0  0  0  2  0  0  0  0  0  0
  187.5480  177.8900  144.6320 C   0  0  0  0  0  0  0  0  0  0  0  0
  184.0460  179.0370  145.3700 C   0  0  0  0  0  2  0  0  0  0  0  0
  184.8380  179.7150  144.2770 C   0  0  0  0  0  2  0  0  0  0  0  0
  185.0490  178.2310  144.5530 C   0  0  0  0  0  3  0  0  0  0  0  0
  190.1680  171.5020  143.2320 N   0  0  0  0  0  2  0  0  0  0  0  0
  190.1200  172.0550  139.5790 N   0  0  0  0  0  0  0  0  0  0  0  0
  188.1920  173.0470  140.5120 N   0  0  0  0  0  0  0  0  0  0  0  0
  190.5240  171.6660  140.8180 C   0  0  0  0  0  3  0  0  0  0  0  0
  188.9540  172.7480  139.4260 C   0  0  0  0  0  0  0  0  0  0  0  0
  188.5710  172.6700  141.7580 C   0  0  0  0  0  3  0  0  0  0  0  0
  188.5690  173.1100  138.2800 O   0  0  0  0  0  0  0  0  0  0  0  0
  189.7640  171.9770  141.9420 C   0  0  0  0  0  0  0  0  0  0  0  0
  190.9480  171.7140  138.4270 C   0  0  0  0  0  2  0  0  0  0  0  0
  191.0190  170.2100  138.2270 C   0  0  0  0  0  2  0  0  0  0  0  0
  189.6930  169.6680  137.7500 C   0  0  0  0  0  1  0  0  0  0  0  0
  1  8  1  0  0  0  0
  2  4  1  0  0  0  0
  3 18  1  0  0  0  0
  4 16  1  0  0  0  0
  5  3  1  0  0  0  0
  6  1  2  0  0  0  0
  7 11  1  0  0  0  0
  8  3  1  0  0  0  0
  9  4  2  0  0  0  0
 10  7  2  0  0  0  0
 10  6  1  0  0  0  0
 11  1  1  0  0  0  0
 11  2  2  0  0  0  0
 12  6  1  0  0  0  0
 12  5  1  0  0  0  0
 13 14  2  0  0  0  0
 13  7  1  0  0  0  0
 14  9  1  0  0  0  0
 16 17  1  0  0  0  0
 16 15  2  0  0  0  0
 18 19  1  0  0  0  0
 19 20  1  0  0  0  0
 21 26  1  0  0  0  0
 21 20  1  6  0  0  0
 22 21  1  0  0  0  0
 23 27  2  0  0  0  0
 24 26  1  0  0  0  0
 25 24  1  0  0  0  0
 27 25  1  0  0  0  0
 27 22  1  0  0  0  0
 29 30  1  0  0  0  0
 29 28  1  0  0  0  0
 30 25  1  0  0  0  0
 30 28  1  0  0  0  0
 31 10  1  0  0  0  0
 32 34  1  0  0  0  0
 33 36  2  0  0  0  0
 34 38  2  0  0  0  0
 35 32  1  0  0  0  0
 35 33  1  0  0  0  0
 36 38  1  0  0  0  0
 37 35  2  0  0  0  0
 38 31  1  0  0  0  0
 39 32  1  0  0  0  0
 40 39  1  0  0  0  0
 41 40  1  0  0  0  0
M  END
>  <MODEL>
6

>  <REMARK>
 VINA RESULT:      -6.5      3.248      8.140
  Name = 
  10 active torsions:
  status: ('A' for Active; 'I' for Inactive)
    1  A    between atoms: C_1  and  O_13
    2  A    between atoms: N_2  and  C_32
    3  A    between atoms: C_3  and  N_15
    4  A    between atoms: C_3  and  C_37
    5  A    between atoms: C_10  and  C_32
    6  A    between atoms: O_13  and  C_37
    7  A    between atoms: N_17  and  C_29
    8  A    between atoms: N_17  and  C_40
    9  A    between atoms: C_18  and  C_22
   10  A    between atoms: N_23  and  C_39
                            x       y       z     vdW  Elec       q    Type
                         _______ _______ _______ _____ _____    ______ ____

>  <TORSDO>
F 10

$$$$
=
 OpenBabel11042414263D

 41 46  0  0  1  0  0  0  0  0999 V2000
  191.8070  173.5160  143.9800 C   0  0  0  0  0  0  0  0  0  0  0  0
  194.0230  173.7490  144.9050 N   0  0  0  0  0  0  0  0  0  0  0  0
  190.5930  171.6020  143.0020 N   0  0  0  0  0  0  0  0  0  0  0  0
  195.1070  174.3650  145.4490 C   0  0  0  0  0  0  0  0  0  0  0  0
  189.3510  172.3130  143.3650 C   0  0  0  0  0  2  0  0  0  0  0  0
  190.7430  174.3490  143.7150 C   0  0  0  0  0  0  0  0  0  0  0  0
  192.3690  175.6450  144.5790 C   0  0  0  0  0  0  0  0  0  0  0  0
  191.7380  172.0240  143.8280 C   0  0  0  0  0  2  0  0  0  0  0  0
  195.2020  175.7290  145.7590 C   0  0  0  0  0  3  0  0  0  0  0  0
  191.0920  175.6520  144.0460 C   0  0  0  0  0  0  0  0  0  0  0  0
  192.8320  174.2630  144.5220 C   0  0  0  0  0  0  0  0  0  0  0  0
  189.4450  173.8390  143.1760 C   0  0  0  0  0  2  0  0  0  0  0  0
  193.0240  176.7580  145.0670 C   0  0  0  0  0  3  0  0  0  0  0  0
  194.3010  176.7780  145.6000 C   0  0  0  0  0  3  0  0  0  0  0  0
  196.1760  172.2620  145.7840 O   0  0  0  0  0  0  0  0  0  0  0  0
  196.2770  173.5190  145.7440 C   0  0  0  0  0  0  0  0  0  0  0  0
  197.4860  174.0930  145.9750 F   0  0  0  0  0  0  0  0  0  0  0  0
  190.9100  171.8170  141.5900 C   0  0  0  0  0  2  0  0  0  0  0  0
  192.3660  171.4750  141.3290 C   0  0  0  0  0  2  0  0  0  0  0  0
  192.7030  171.8040  140.0150 O   0  0  0  0  0  0  0  0  0  0  0  0
  194.0360  172.2170  140.0670 C   0  0  1  0  0  3  0  0  0  0  0  0
  194.3030  173.2080  138.9220 C   0  0  0  0  0  2  0  0  0  0  0  0
  195.3550  175.2910  138.4810 O   0  0  0  0  0  0  0  0  0  0  0  0
  195.7890  173.2350  141.4760 C   0  0  0  0  0  2  0  0  0  0  0  0
  196.0300  174.2890  140.4870 N   0  0  0  0  0  0  0  0  0  0  0  0
  194.3320  172.8090  141.4400 C   0  0  0  0  0  2  0  0  0  0  0  0
  195.2660  174.3140  139.2650 C   0  0  0  0  0  0  0  0  0  0  0  0
  196.0500  176.3610  141.8030 C   0  0  0  0  0  2  0  0  0  0  0  0
  197.0830  175.4250  142.3840 C   0  0  0  0  0  2  0  0  0  0  0  0
  196.8420  175.4440  140.8790 C   0  0  0  0  0  3  0  0  0  0  0  0
  190.2420  176.8040  143.9820 N   0  0  0  0  0  2  0  0  0  0  0  0
  186.8510  177.3490  145.3420 N   0  0  0  0  0  0  0  0  0  0  0  0
  188.4030  177.5220  147.1110 N   0  0  0  0  0  0  0  0  0  0  0  0
  187.8670  177.1250  144.4660 C   0  0  0  0  0  3  0  0  0  0  0  0
  187.1190  177.5500  146.6650 C   0  0  0  0  0  0  0  0  0  0  0  0
  189.4350  177.2990  146.2590 C   0  0  0  0  0  3  0  0  0  0  0  0
  186.1830  177.7550  147.4860 O   0  0  0  0  0  0  0  0  0  0  0  0
  189.1880  177.1080  144.9030 C   0  0  0  0  0  0  0  0  0  0  0  0
  185.4790  177.3650  144.8430 C   0  0  0  0  0  2  0  0  0  0  0  0
  185.3130  178.3810  143.7260 C   0  0  0  0  0  2  0  0  0  0  0  0
  185.5480  179.7830  144.2350 C   0  0  0  0  0  1  0  0  0  0  0  0
  1 11  1  0  0  0  0
  2  4  1  0  0  0  0
  3  5  1  0  0  0  0
  3  8  1  0  0  0  0
  4 16  1  0  0  0  0
  4  9  2  0  0  0  0
  6  1  2  0  0  0  0
  6 10  1  0  0  0  0
  7 13  1  0  0  0  0
  8  1  1  0  0  0  0
 10  7  2  0  0  0  0
 11  7  1  0  0  0  0
 11  2  2  0  0  0  0
 12  5  1  0  0  0  0
 12  6  1  0  0  0  0
 13 14  2  0  0  0  0
 14  9  1  0  0  0  0
 16 15  2  0  0  0  0
 16 17  1  0  0  0  0
 18  3  1  0  0  0  0
 19 18  1  0  0  0  0
 20 19  1  0  0  0  0
 21 20  1  1  0  0  0
 21 26  1  0  0  0  0
 22 27  1  0  0  0  0
 22 21  1  0  0  0  0
 23 27  2  0  0  0  0
 25 30  1  0  0  0  0
 25 24  1  0  0  0  0
 26 24  1  0  0  0  0
 27 25  1  0  0  0  0
 28 29  1  0  0  0  0
 30 28  1  0  0  0  0
 30 29  1  0  0  0  0
 31 10  1  0  0  0  0
 31 38  1  0  0  0  0
 32 35  1  0  0  0  0
 34 38  2  0  0  0  0
 34 32  1  0  0  0  0
 35 33  1  0  0  0  0
 35 37  2  0  0  0  0
 36 33  2  0  0  0  0
 38 36  1  0  0  0  0
 39 32  1  0  0  0  0
 40 41  1  0  0  0  0
 40 39  1  0  0  0  0
M  END
>  <MODEL>
7

>  <REMARK>
 VINA RESULT:      -6.5      2.750      3.898
  Name = 
  10 active torsions:
  status: ('A' for Active; 'I' for Inactive)
    1  A    between atoms: C_1  and  O_13
    2  A    between atoms: N_2  and  C_32
    3  A    between atoms: C_3  and  N_15
    4  A    between atoms: C_3  and  C_37
    5  A    between atoms: C_10  and  C_32
    6  A    between atoms: O_13  and  C_37
    7  A    between atoms: N_17  and  C_29
    8  A    between atoms: N_17  and  C_40
    9  A    between atoms: C_18  and  C_22
   10  A    between atoms: N_23  and  C_39
                            x       y       z     vdW  Elec       q    Type
                         _______ _______ _______ _____ _____    ______ ____

>  <TORSDO>
F 10

$$$$
=
 OpenBabel11042414263D

 41 46  0  0  1  0  0  0  0  0999 V2000
  193.2820  173.9640  144.8270 C   0  0  0  0  0  0  0  0  0  0  0  0
  194.3810  171.9080  145.4480 N   0  0  0  0  0  0  0  0  0  0  0  0
  192.2760  175.7910  146.1480 N   0  0  0  0  0  0  0  0  0  0  0  0
  194.9910  170.7030  145.2870 C   0  0  0  0  0  0  0  0  0  0  0  0
  192.5060  176.6540  144.9730 C   0  0  0  0  0  2  0  0  0  0  0  0
  192.8970  174.5770  143.6560 C   0  0  0  0  0  0  0  0  0  0  0  0
  193.8460  172.6200  143.0720 C   0  0  0  0  0  0  0  0  0  0  0  0
  193.1790  174.6260  146.1700 C   0  0  0  0  0  2  0  0  0  0  0  0
  195.2570  170.0790  144.0600 C   0  0  0  0  0  3  0  0  0  0  0  0
  193.2070  173.7470  142.5860 C   0  0  0  0  0  0  0  0  0  0  0  0
  193.8800  172.7590  144.5240 C   0  0  0  0  0  0  0  0  0  0  0  0
  192.2700  175.9340  143.6320 C   0  0  0  0  0  2  0  0  0  0  0  0
  194.3460  171.5990  142.2880 C   0  0  0  0  0  3  0  0  0  0  0  0
  194.9840  170.4610  142.7500 C   0  0  0  0  0  3  0  0  0  0  0  0
  194.6210  169.2440  147.1340 O   0  0  0  0  0  0  0  0  0  0  0  0
  195.4140  170.0010  146.5120 C   0  0  0  0  0  0  0  0  0  0  0  0
  196.6770  170.1670  146.9830 F   0  0  0  0  0  0  0  0  0  0  0  0
  190.8890  175.3270  146.1770 C   0  0  0  0  0  2  0  0  0  0  0  0
  189.9450  176.5160  146.1510 C   0  0  0  0  0  2  0  0  0  0  0  0
  189.0010  176.3950  147.1720 O   0  0  0  0  0  0  0  0  0  0  0  0
  187.7650  176.3180  146.5280 C   0  0  1  0  0  3  0  0  0  0  0  0
  186.6730  176.8640  147.4630 C   0  0  0  0  0  2  0  0  0  0  0  0
  184.7740  178.2900  147.4590 O   0  0  0  0  0  0  0  0  0  0  0  0
  186.4860  176.9540  144.5150 C   0  0  0  0  0  2  0  0  0  0  0  0
  185.4520  177.6020  145.3260 N   0  0  0  0  0  0  0  0  0  0  0  0
  187.8350  177.0670  145.2020 C   0  0  0  0  0  2  0  0  0  0  0  0
  185.5690  177.6120  146.7630 C   0  0  0  0  0  0  0  0  0  0  0  0
  185.1040  179.7890  144.2650 C   0  0  0  0  0  2  0  0  0  0  0  0
  184.9030  178.7190  143.2170 C   0  0  0  0  0  2  0  0  0  0  0  0
  184.4700  178.4580  144.6560 C   0  0  0  0  0  3  0  0  0  0  0  0
  193.0290  174.0470  141.1960 N   0  0  0  0  0  2  0  0  0  0  0  0
  189.4610  173.5720  140.3630 N   0  0  0  0  0  0  0  0  0  0  0  0
  190.7130  173.4850  138.3650 N   0  0  0  0  0  0  0  0  0  0  0  0
  190.6040  173.7520  141.0780 C   0  0  0  0  0  3  0  0  0  0  0  0
  189.5150  173.4360  139.0060 C   0  0  0  0  0  0  0  0  0  0  0  0
  191.8690  173.6650  139.0530 C   0  0  0  0  0  3  0  0  0  0  0  0
  188.4600  173.2720  138.3350 O   0  0  0  0  0  0  0  0  0  0  0  0
  191.8410  173.7890  140.4380 C   0  0  0  0  0  0  0  0  0  0  0  0
  188.1860  173.5330  141.0710 C   0  0  0  0  0  2  0  0  0  0  0  0
  188.0400  174.7210  142.0060 C   0  0  0  0  0  2  0  0  0  0  0  0
  187.8160  175.9950  141.2260 C   0  0  0  0  0  1  0  0  0  0  0  0
  1  8  1  0  0  0  0
  3  8  1  0  0  0  0
  3 18  1  0  0  0  0
  4  2  1  0  0  0  0
  4 16  1  0  0  0  0
  5  3  1  0  0  0  0
  6  1  2  0  0  0  0
  7 11  1  0  0  0  0
  9  4  2  0  0  0  0
 10  7  2  0  0  0  0
 10  6  1  0  0  0  0
 11  1  1  0  0  0  0
 11  2  2  0  0  0  0
 12  6  1  0  0  0  0
 12  5  1  0  0  0  0
 13 14  2  0  0  0  0
 13  7  1  0  0  0  0
 14  9  1  0  0  0  0
 16 17  1  0  0  0  0
 16 15  2  0  0  0  0
 19 18  1  0  0  0  0
 19 20  1  0  0  0  0
 21 20  1  1  0  0  0
 21 22  1  0  0  0  0
 24 26  1  0  0  0  0
 24 25  1  0  0  0  0
 25 27  1  0  0  0  0
 26 21  1  0  0  0  0
 27 23  2  0  0  0  0
 27 22  1  0  0  0  0
 28 30  1  0  0  0  0
 29 28  1  0  0  0  0
 29 30  1  0  0  0  0
 30 25  1  0  0  0  0
 31 10  1  0  0  0  0
 32 39  1  0  0  0  0
 32 34  1  0  0  0  0
 33 35  1  0  0  0  0
 33 36  2  0  0  0  0
 35 32  1  0  0  0  0
 36 38  1  0  0  0  0
 37 35  2  0  0  0  0
 38 34  2  0  0  0  0
 38 31  1  0  0  0  0
 39 40  1  0  0  0  0
 41 40  1  0  0  0  0
M  END
>  <MODEL>
8

>  <REMARK>
 VINA RESULT:      -6.5      2.952      7.825
  Name = 
  10 active torsions:
  status: ('A' for Active; 'I' for Inactive)
    1  A    between atoms: C_1  and  O_13
    2  A    between atoms: N_2  and  C_32
    3  A    between atoms: C_3  and  N_15
    4  A    between atoms: C_3  and  C_37
    5  A    between atoms: C_10  and  C_32
    6  A    between atoms: O_13  and  C_37
    7  A    between atoms: N_17  and  C_29
    8  A    between atoms: N_17  and  C_40
    9  A    between atoms: C_18  and  C_22
   10  A    between atoms: N_23  and  C_39
                            x       y       z     vdW  Elec       q    Type
                         _______ _______ _______ _____ _____    ______ ____

>  <TORSDO>
F 10

$$$$
=
 OpenBabel11042414263D

 41 46  0  0  1  0  0  0  0  0999 V2000
  190.4520  173.9510  142.8930 C   0  0  0  0  0  0  0  0  0  0  0  0
  192.4420  173.9630  144.2580 N   0  0  0  0  0  0  0  0  0  0  0  0
  189.2070  172.1430  141.7630 N   0  0  0  0  0  0  0  0  0  0  0  0
  193.4670  174.4730  144.9920 C   0  0  0  0  0  0  0  0  0  0  0  0
  188.0300  173.0320  141.8220 C   0  0  0  0  0  2  0  0  0  0  0  0
  189.5930  174.8920  142.3710 C   0  0  0  0  0  0  0  0  0  0  0  0
  191.1730  176.0280  143.5040 C   0  0  0  0  0  0  0  0  0  0  0  0
  190.2070  172.4730  142.7950 C   0  0  0  0  0  2  0  0  0  0  0  0
  193.6870  175.8330  145.2550 C   0  0  0  0  0  3  0  0  0  0  0  0
  190.0470  176.1600  142.7110 C   0  0  0  0  0  0  0  0  0  0  0  0
  191.4390  174.5970  143.6070 C   0  0  0  0  0  0  0  0  0  0  0  0
  188.3750  174.5160  141.5910 C   0  0  0  0  0  2  0  0  0  0  0  0
  191.8650  177.0790  144.0710 C   0  0  0  0  0  3  0  0  0  0  0  0
  192.9950  176.9740  144.8630 C   0  0  0  0  0  3  0  0  0  0  0  0
  195.6560  173.7580  145.6050 O   0  0  0  0  0  0  0  0  0  0  0  0
  194.4210  173.5070  145.5660 C   0  0  0  0  0  0  0  0  0  0  0  0
  193.9700  172.3270  146.0640 F   0  0  0  0  0  0  0  0  0  0  0  0
  189.8340  172.2120  140.4430 C   0  0  0  0  0  2  0  0  0  0  0  0
  191.2220  171.6000  140.4970 C   0  0  0  0  0  2  0  0  0  0  0  0
  191.8080  171.6400  139.2310 O   0  0  0  0  0  0  0  0  0  0  0  0
  193.0990  172.1300  139.4350 C   0  0  1  0  0  3  0  0  0  0  0  0
  193.4260  173.1650  138.3460 C   0  0  0  0  0  2  0  0  0  0  0  0
  194.3890  175.3180  138.0650 O   0  0  0  0  0  0  0  0  0  0  0  0
  194.6260  173.2100  141.0460 C   0  0  0  0  0  2  0  0  0  0  0  0
  194.9060  174.3030  140.1110 N   0  0  0  0  0  0  0  0  0  0  0  0
  193.2100  172.7000  140.8440 C   0  0  0  0  0  2  0  0  0  0  0  0
  194.2770  174.3160  138.8150 C   0  0  0  0  0  0  0  0  0  0  0  0
  194.6330  176.3830  141.3860 C   0  0  0  0  0  2  0  0  0  0  0  0
  195.5960  175.4940  142.1360 C   0  0  0  0  0  2  0  0  0  0  0  0
  195.5990  175.4930  140.6120 C   0  0  0  0  0  3  0  0  0  0  0  0
  189.3990  177.4040  142.4170 N   0  0  0  0  0  2  0  0  0  0  0  0
  186.1050  178.0060  143.9800 N   0  0  0  0  0  0  0  0  0  0  0  0
  185.8860  178.2740  141.6460 N   0  0  0  0  0  0  0  0  0  0  0  0
  187.4220  177.6990  143.8260 C   0  0  0  0  0  3  0  0  0  0  0  0
  185.3360  178.2910  142.8890 C   0  0  0  0  0  0  0  0  0  0  0  0
  187.1960  177.9730  141.4630 C   0  0  0  0  0  3  0  0  0  0  0  0
  184.1160  178.5800  143.0220 O   0  0  0  0  0  0  0  0  0  0  0  0
  187.9970  177.6610  142.5580 C   0  0  0  0  0  0  0  0  0  0  0  0
  185.5390  178.0280  145.3250 C   0  0  0  0  0  2  0  0  0  0  0  0
  186.1540  176.9480  146.1980 C   0  0  0  0  0  2  0  0  0  0  0  0
  185.9420  177.2540  147.6610 C   0  0  0  0  0  1  0  0  0  0  0  0
  1 11  1  0  0  0  0
  2  4  1  0  0  0  0
  3  5  1  0  0  0  0
  3  8  1  0  0  0  0
  4  9  2  0  0  0  0
  4 16  1  0  0  0  0
  6 10  1  0  0  0  0
  6  1  2  0  0  0  0
  7 11  1  0  0  0  0
  7 13  1  0  0  0  0
  8  1  1  0  0  0  0
 10  7  2  0  0  0  0
 11  2  2  0  0  0  0
 12  5  1  0  0  0  0
 12  6  1  0  0  0  0
 13 14  2  0  0  0  0
 14  9  1  0  0  0  0
 16 15  2  0  0  0  0
 16 17  1  0  0  0  0
 18 19  1  0  0  0  0
 18  3  1  0  0  0  0
 20 19  1  0  0  0  0
 21 20  1  6  0  0  0
 21 26  1  0  0  0  0
 22 27  1  0  0  0  0
 22 21  1  0  0  0  0
 23 27  2  0  0  0  0
 25 30  1  0  0  0  0
 25 24  1  0  0  0  0
 26 24  1  0  0  0  0
 27 25  1  0  0  0  0
 28 29  1  0  0  0  0
 30 28  1  0  0  0  0
 30 29  1  0  0  0  0
 31 38  1  0  0  0  0
 31 10  1  0  0  0  0
 32 39  1  0  0  0  0
 33 35  1  0  0  0  0
 34 32  1  0  0  0  0
 35 37  2  0  0  0  0
 35 32  1  0  0  0  0
 36 33  2  0  0  0  0
 36 38  1  0  0  0  0
 38 34  2  0  0  0  0
 39 40  1  0  0  0  0
 40 41  1  0  0  0  0
M  END
>  <MODEL>
9

>  <REMARK>
 VINA RESULT:      -6.5      1.929      2.497
  Name = 
  10 active torsions:
  status: ('A' for Active; 'I' for Inactive)
    1  A    between atoms: C_1  and  O_13
    2  A    between atoms: N_2  and  C_32
    3  A    between atoms: C_3  and  N_15
    4  A    between atoms: C_3  and  C_37
    5  A    between atoms: C_10  and  C_32
    6  A    between atoms: O_13  and  C_37
    7  A    between atoms: N_17  and  C_29
    8  A    between atoms: N_17  and  C_40
    9  A    between atoms: C_18  and  C_22
   10  A    between atoms: N_23  and  C_39
                            x       y       z     vdW  Elec       q    Type
                         _______ _______ _______ _____ _____    ______ ____

>  <TORSDO>
F 10

$$$$
