=
 OpenBabel11042416513D

 29 32  0  0  1  0  0  0  0  0999 V2000
  191.7600  176.0890  146.6870 C   0  0  0  0  0  0  0  0  0  0  0  0
  188.3210  177.3540  143.7090 C   0  0  0  0  0  2  0  0  0  0  0  0
  187.0700  177.0610  142.8740 C   0  0  0  0  0  0  0  0  0  0  0  0
  186.0900  178.0800  142.6740 N   0  0  0  0  0  2  0  0  0  0  0  0
  190.6470  174.6520  144.5710 C   0  0  0  0  0  0  0  0  0  0  0  0
  189.1170  175.1780  142.9930 C   0  0  1  0  0  3  0  0  0  0  0  0
  190.6070  176.5800  146.0370 C   0  0  0  0  0  3  0  0  0  0  0  0
  190.1020  175.8570  144.9590 C   0  0  0  0  0  0  0  0  0  0  0  0
  189.9490  174.0710  143.4650 N   0  0  0  0  0  0  0  0  0  0  0  0
  187.8210  174.8320  142.4420 N   0  0  0  0  0  2  0  0  0  0  0  0
  191.7850  174.1440  145.1990 C   0  0  0  0  0  3  0  0  0  0  0  0
  186.8820  175.8820  142.3220 N   0  0  0  0  0  0  0  0  0  0  0  0
  192.3410  174.8760  146.2610 C   0  0  0  0  0  3  0  0  0  0  0  0
  188.8440  176.0250  144.2080 C   0  0  1  0  0  3  0  0  0  0  0  0
  192.3410  176.7740  147.7570 O   0  0  0  0  0  0  0  0  0  0  0  0
  191.5730  177.3920  148.7800 C   0  0  0  0  0  1  0  0  0  0  0  0
  186.2190  179.4120  143.2430 C   0  0  0  0  0  2  0  0  0  0  0  0
  183.4600  178.8080  145.6920 O   0  0  0  0  0  0  0  0  0  0  0  0
  186.2900  178.9520  145.5850 O   0  0  0  0  0  0  0  0  0  0  0  0
  185.5820  179.0740  146.7970 C   0  0  0  0  0  2  0  0  0  0  0  0
  184.1680  178.6870  144.4800 C   0  0  0  0  0  2  0  0  0  0  0  0
  185.4780  179.4860  144.5650 C   0  0  2  0  0  3  0  0  0  0  0  0
  184.2740  178.2780  146.7130 C   0  0  0  0  0  2  0  0  0  0  0  0
  190.5440  173.0350  142.6200 C   0  0  2  0  0  3  0  0  0  0  0  0
  190.2310  173.2860  140.2530 O   0  0  0  0  0  0  0  0  0  0  0  0
  192.0680  174.3320  141.1320 O   0  0  0  0  0  1  0  0  0  0  0  0
  190.9270  173.5550  141.2680 C   0  0  0  0  0  0  0  0  0  0  0  0
  188.7710  171.7180  143.5810 F   0  0  0  0  0  0  0  0  0  0  0  0
  189.6920  171.7690  142.5500 C   0  0  0  0  0  2  0  0  0  0  0  0
  1 15  1  0  0  0  0
  3  2  1  0  0  0  0
  4  3  1  0  0  0  0
  4 17  1  0  0  0  0
  5  8  2  0  0  0  0
  5 11  1  0  0  0  0
  6 10  1  1  0  0  0
  6  9  1  0  0  0  0
  6 14  1  0  0  0  0
  7  1  2  0  0  0  0
  8  7  1  0  0  0  0
  9  5  1  0  0  0  0
 11 13  2  0  0  0  0
 12 10  1  0  0  0  0
 12  3  2  0  0  0  0
 13  1  1  0  0  0  0
 14  2  1  6  0  0  0
 14  8  1  0  0  0  0
 15 16  1  0  0  0  0
 18 23  1  0  0  0  0
 19 20  1  0  0  0  0
 21 22  1  0  0  0  0
 21 18  1  0  0  0  0
 22 17  1  6  0  0  0
 22 19  1  0  0  0  0
 23 20  1  0  0  0  0
 24 29  1  6  0  0  0
 24  9  1  0  0  0  0
 25 27  2  0  0  0  0
 26 27  1  0  0  0  0
 27 24  1  0  0  0  0
 29 28  1  0  0  0  0
M  END
>  <MODEL>
1

>  <REMARK>
 VINA RESULT:      -6.6      0.000      0.000
  Name = 
  6 active torsions:
  status: ('A' for Active; 'I' for Inactive)
    1  A    between atoms: C_1  and  N_15
    2  A    between atoms: C_1  and  C_23
    3  A    between atoms: C_2  and  O_6
    4  A    between atoms: C_5  and  C_12
    5  A    between atoms: C_5  and  N_21
    6  A    between atoms: C_5  and  C_24
                            x       y       z     vdW  Elec       q    Type
                         _______ _______ _______ _____ _____    ______ ____

>  <TORSDO>
F 6

$$$$
=
 OpenBabel11042416513D

 29 32  0  0  1  0  0  0  0  0999 V2000
  186.6840  177.5370  140.2680 C   0  0  0  0  0  0  0  0  0  0  0  0
  190.0900  177.3410  143.5320 C   0  0  0  0  0  2  0  0  0  0  0  0
  190.6320  176.9420  144.9080 C   0  0  0  0  0  0  0  0  0  0  0  0
  192.0090  176.5960  145.0600 N   0  0  0  0  0  2  0  0  0  0  0  0
  186.4910  177.8430  143.0340 C   0  0  0  0  0  0  0  0  0  0  0  0
  188.0350  177.9170  144.6830 C   0  0  1  0  0  3  0  0  0  0  0  0
  187.8000  177.2530  141.0830 C   0  0  0  0  0  3  0  0  0  0  0  0
  187.6810  177.4560  142.4550 C   0  0  0  0  0  0  0  0  0  0  0  0
  186.5900  177.9580  144.4570 N   0  0  0  0  0  0  0  0  0  0  0  0
  188.4870  177.2860  145.9070 N   0  0  0  0  0  2  0  0  0  0  0  0
  185.3710  178.1280  142.2490 C   0  0  0  0  0  3  0  0  0  0  0  0
  189.8510  176.9210  145.9660 N   0  0  0  0  0  0  0  0  0  0  0  0
  185.4790  177.9740  140.8580 C   0  0  0  0  0  3  0  0  0  0  0  0
  188.5970  177.0950  143.5530 C   0  0  1  0  0  3  0  0  0  0  0  0
  186.7370  177.3860  138.8800 O   0  0  0  0  0  0  0  0  0  0  0  0
  186.6620  176.1180  138.2430 C   0  0  0  0  0  1  0  0  0  0  0  0
  192.9430  176.5960  143.9460 C   0  0  0  0  0  2  0  0  0  0  0  0
  195.6060  174.9860  146.0190 O   0  0  0  0  0  0  0  0  0  0  0  0
  195.1460  175.8790  143.3670 O   0  0  0  0  0  0  0  0  0  0  0  0
  196.4460  175.6590  143.8650 C   0  0  0  0  0  2  0  0  0  0  0  0
  194.3080  175.2080  145.5210 C   0  0  0  0  0  2  0  0  0  0  0  0
  194.3470  176.3060  144.4460 C   0  0  2  0  0  3  0  0  0  0  0  0
  196.4070  174.5640  144.9390 C   0  0  0  0  0  2  0  0  0  0  0  0
  185.6260  178.7230  145.2500 C   0  0  2  0  0  3  0  0  0  0  0  0
  183.7100  178.2920  146.6310 O   0  0  0  0  0  1  0  0  0  0  0  0
  185.1070  176.5120  146.2820 O   0  0  0  0  0  0  0  0  0  0  0  0
  184.7540  177.8400  146.0900 C   0  0  0  0  0  0  0  0  0  0  0  0
  185.5950  180.8210  144.0670 F   0  0  0  0  0  0  0  0  0  0  0  0
  184.8310  179.7200  144.4110 C   0  0  0  0  0  2  0  0  0  0  0  0
  1 13  2  0  0  0  0
  1  7  1  0  0  0  0
  2  3  1  0  0  0  0
  3  4  1  0  0  0  0
  3 12  2  0  0  0  0
  5  9  1  0  0  0  0
  6 10  1  1  0  0  0
  7  8  2  0  0  0  0
  8  5  1  0  0  0  0
  8 14  1  0  0  0  0
  9  6  1  0  0  0  0
  9 24  1  0  0  0  0
 10 12  1  0  0  0  0
 11  5  2  0  0  0  0
 13 11  1  0  0  0  0
 14  2  1  6  0  0  0
 14  6  1  0  0  0  0
 15  1  1  0  0  0  0
 16 15  1  0  0  0  0
 17  4  1  0  0  0  0
 19 20  1  0  0  0  0
 19 22  1  0  0  0  0
 20 23  1  0  0  0  0
 21 18  1  0  0  0  0
 22 17  1  6  0  0  0
 22 21  1  0  0  0  0
 23 18  1  0  0  0  0
 24 29  1  6  0  0  0
 24 27  1  0  0  0  0
 27 26  2  0  0  0  0
 27 25  1  0  0  0  0
 28 29  1  0  0  0  0
M  END
>  <MODEL>
2

>  <REMARK>
 VINA RESULT:      -6.5      3.396      8.348
  Name = 
  6 active torsions:
  status: ('A' for Active; 'I' for Inactive)
    1  A    between atoms: C_1  and  N_15
    2  A    between atoms: C_1  and  C_23
    3  A    between atoms: C_2  and  O_6
    4  A    between atoms: C_5  and  C_12
    5  A    between atoms: C_5  and  N_21
    6  A    between atoms: C_5  and  C_24
                            x       y       z     vdW  Elec       q    Type
                         _______ _______ _______ _____ _____    ______ ____

>  <TORSDO>
F 6

$$$$
=
 OpenBabel11042416513D

 29 32  0  0  1  0  0  0  0  0999 V2000
  185.0500  177.9480  143.3930 C   0  0  0  0  0  0  0  0  0  0  0  0
  187.9760  174.7820  141.4680 C   0  0  0  0  0  2  0  0  0  0  0  0
  188.9780  173.6270  141.5590 C   0  0  0  0  0  0  0  0  0  0  0  0
  189.0300  172.6440  140.5240 N   0  0  0  0  0  2  0  0  0  0  0  0
  187.5460  177.0840  144.2910 C   0  0  0  0  0  0  0  0  0  0  0  0
  189.1010  175.7010  143.4100 C   0  0  1  0  0  3  0  0  0  0  0  0
  185.6780  176.8510  142.7660 C   0  0  0  0  0  3  0  0  0  0  0  0
  186.9410  176.4730  143.2140 C   0  0  0  0  0  0  0  0  0  0  0  0
  188.8220  176.5130  144.5950 N   0  0  0  0  0  0  0  0  0  0  0  0
  189.8460  174.4750  143.6190 N   0  0  0  0  0  2  0  0  0  0  0  0
  186.9440  178.1700  144.9310 C   0  0  0  0  0  3  0  0  0  0  0  0
  189.8080  173.5240  142.5740 N   0  0  0  0  0  0  0  0  0  0  0  0
  185.6890  178.6000  144.4700 C   0  0  0  0  0  3  0  0  0  0  0  0
  187.7550  175.2900  142.8770 C   0  0  1  0  0  3  0  0  0  0  0  0
  183.7950  178.4040  142.9800 O   0  0  0  0  0  0  0  0  0  0  0  0
  183.3060  178.2140  141.6600 C   0  0  0  0  0  1  0  0  0  0  0  0
  188.1540  172.6810  139.3650 C   0  0  0  0  0  2  0  0  0  0  0  0
  189.3770  174.3180  136.2340 O   0  0  0  0  0  0  0  0  0  0  0  0
  190.3440  172.7940  138.4210 O   0  0  0  0  0  0  0  0  0  0  0  0
  191.0670  172.9130  137.2170 C   0  0  0  0  0  2  0  0  0  0  0  0
  188.6550  174.1980  137.4370 C   0  0  0  0  0  2  0  0  0  0  0  0
  188.9740  172.8470  138.0990 C   0  0  2  0  0  3  0  0  0  0  0  0
  190.7480  174.2600  136.5550 C   0  0  0  0  0  2  0  0  0  0  0  0
  189.8230  177.2150  145.4000 C   0  0  2  0  0  3  0  0  0  0  0  0
  192.1190  176.9440  144.7510 O   0  0  0  0  0  1  0  0  0  0  0  0
  190.9790  178.6300  143.7010 O   0  0  0  0  0  0  0  0  0  0  0  0
  191.0400  177.5770  144.6030 C   0  0  0  0  0  0  0  0  0  0  0  0
  189.2820  175.4360  146.9320 F   0  0  0  0  0  0  0  0  0  0  0  0
  190.1580  176.4800  146.6960 C   0  0  0  0  0  2  0  0  0  0  0  0
  1 13  1  0  0  0  0
  2  3  1  0  0  0  0
  3 12  2  0  0  0  0
  4  3  1  0  0  0  0
  5  9  1  0  0  0  0
  5 11  1  0  0  0  0
  6 10  1  1  0  0  0
  6  9  1  0  0  0  0
  7  8  1  0  0  0  0
  7  1  2  0  0  0  0
  8  5  2  0  0  0  0
  9 24  1  0  0  0  0
 12 10  1  0  0  0  0
 13 11  2  0  0  0  0
 14  2  1  6  0  0  0
 14  8  1  0  0  0  0
 14  6  1  0  0  0  0
 15  1  1  0  0  0  0
 16 15  1  0  0  0  0
 17  4  1  0  0  0  0
 18 23  1  0  0  0  0
 18 21  1  0  0  0  0
 20 19  1  0  0  0  0
 21 22  1  0  0  0  0
 22 19  1  0  0  0  0
 22 17  1  1  0  0  0
 23 20  1  0  0  0  0
 24 29  1  1  0  0  0
 26 27  2  0  0  0  0
 27 25  1  0  0  0  0
 27 24  1  0  0  0  0
 29 28  1  0  0  0  0
M  END
>  <MODEL>
3

>  <REMARK>
 VINA RESULT:      -6.5      2.794      7.314
  Name = 
  6 active torsions:
  status: ('A' for Active; 'I' for Inactive)
    1  A    between atoms: C_1  and  N_15
    2  A    between atoms: C_1  and  C_23
    3  A    between atoms: C_2  and  O_6
    4  A    between atoms: C_5  and  C_12
    5  A    between atoms: C_5  and  N_21
    6  A    between atoms: C_5  and  C_24
                            x       y       z     vdW  Elec       q    Type
                         _______ _______ _______ _____ _____    ______ ____

>  <TORSDO>
F 6

$$$$
=
 OpenBabel11042416513D

 29 32  0  0  1  0  0  0  0  0999 V2000
  186.5680  177.4870  140.3850 C   0  0  0  0  0  0  0  0  0  0  0  0
  189.8440  177.2480  143.7760 C   0  0  0  0  0  2  0  0  0  0  0  0
  190.3840  176.7210  145.1100 C   0  0  0  0  0  0  0  0  0  0  0  0
  191.7890  176.5380  145.2890 N   0  0  0  0  0  2  0  0  0  0  0  0
  186.2310  177.3460  143.1500 C   0  0  0  0  0  0  0  0  0  0  0  0
  187.6880  177.3720  144.8790 C   0  0  1  0  0  3  0  0  0  0  0  0
  187.6810  177.2310  141.2140 C   0  0  0  0  0  3  0  0  0  0  0  0
  187.4840  177.2090  142.5920 C   0  0  0  0  0  0  0  0  0  0  0  0
  186.2600  177.2580  144.5780 N   0  0  0  0  0  0  0  0  0  0  0  0
  188.1760  176.6280  146.0230 N   0  0  0  0  0  2  0  0  0  0  0  0
  185.1130  177.5970  142.3520 C   0  0  0  0  0  3  0  0  0  0  0  0
  189.5740  176.4400  146.1070 N   0  0  0  0  0  0  0  0  0  0  0  0
  185.2930  177.6690  140.9610 C   0  0  0  0  0  3  0  0  0  0  0  0
  188.3990  176.8090  143.6770 C   0  0  1  0  0  3  0  0  0  0  0  0
  186.6940  177.5540  138.9950 O   0  0  0  0  0  0  0  0  0  0  0  0
  186.5610  176.4150  138.1560 C   0  0  0  0  0  1  0  0  0  0  0  0
  192.7550  176.8270  144.2430 C   0  0  0  0  0  2  0  0  0  0  0  0
  195.3580  175.2670  146.4260 O   0  0  0  0  0  0  0  0  0  0  0  0
  194.7590  175.6550  143.6820 O   0  0  0  0  0  0  0  0  0  0  0  0
  196.0580  175.3320  144.1230 C   0  0  0  0  0  2  0  0  0  0  0  0
  194.0610  175.5910  145.9840 C   0  0  0  0  0  2  0  0  0  0  0  0
  194.1460  176.4210  144.6930 C   0  0  2  0  0  3  0  0  0  0  0  0
  195.9730  174.5050  145.4130 C   0  0  0  0  0  2  0  0  0  0  0  0
  185.1720  177.7620  145.4170 C   0  0  2  0  0  3  0  0  0  0  0  0
  185.5300  179.4140  147.1220 O   0  0  0  0  0  1  0  0  0  0  0  0
  185.5270  180.1900  144.9670 O   0  0  0  0  0  0  0  0  0  0  0  0
  185.4230  179.1610  145.8920 C   0  0  0  0  0  0  0  0  0  0  0  0
  185.7880  176.7760  147.5270 F   0  0  0  0  0  0  0  0  0  0  0  0
  184.8090  176.8050  146.5500 C   0  0  0  0  0  2  0  0  0  0  0  0
  1 13  2  0  0  0  0
  1  7  1  0  0  0  0
  2  3  1  0  0  0  0
  3  4  1  0  0  0  0
  3 12  2  0  0  0  0
  5  9  1  0  0  0  0
  6 10  1  1  0  0  0
  7  8  2  0  0  0  0
  8  5  1  0  0  0  0
  8 14  1  0  0  0  0
  9  6  1  0  0  0  0
  9 24  1  0  0  0  0
 10 12  1  0  0  0  0
 11  5  2  0  0  0  0
 13 11  1  0  0  0  0
 14  2  1  6  0  0  0
 14  6  1  0  0  0  0
 15  1  1  0  0  0  0
 16 15  1  0  0  0  0
 17  4  1  0  0  0  0
 19 20  1  0  0  0  0
 19 22  1  0  0  0  0
 20 23  1  0  0  0  0
 21 18  1  0  0  0  0
 22 17  1  6  0  0  0
 22 21  1  0  0  0  0
 23 18  1  0  0  0  0
 24 27  1  0  0  0  0
 24 29  1  1  0  0  0
 26 27  2  0  0  0  0
 27 25  1  0  0  0  0
 29 28  1  0  0  0  0
M  END
>  <MODEL>
4

>  <REMARK>
 VINA RESULT:      -6.4      3.119      8.099
  Name = 
  6 active torsions:
  status: ('A' for Active; 'I' for Inactive)
    1  A    between atoms: C_1  and  N_15
    2  A    between atoms: C_1  and  C_23
    3  A    between atoms: C_2  and  O_6
    4  A    between atoms: C_5  and  C_12
    5  A    between atoms: C_5  and  N_21
    6  A    between atoms: C_5  and  C_24
                            x       y       z     vdW  Elec       q    Type
                         _______ _______ _______ _____ _____    ______ ____

>  <TORSDO>
F 6

$$$$
=
 OpenBabel11042416513D

 29 32  0  0  1  0  0  0  0  0999 V2000
  188.6210  174.9700  141.7330 C   0  0  0  0  0  0  0  0  0  0  0  0
  191.7280  176.3040  145.0280 C   0  0  0  0  0  2  0  0  0  0  0  0
  192.1670  176.4970  146.4830 C   0  0  0  0  0  0  0  0  0  0  0  0
  193.5420  176.3540  146.8400 N   0  0  0  0  0  2  0  0  0  0  0  0
  188.1650  176.2710  144.1570 C   0  0  0  0  0  0  0  0  0  0  0  0
  189.5490  177.0900  145.7460 C   0  0  1  0  0  3  0  0  0  0  0  0
  189.6750  175.1090  142.6620 C   0  0  0  0  0  3  0  0  0  0  0  0
  189.4220  175.7990  143.8440 C   0  0  0  0  0  0  0  0  0  0  0  0
  188.1300  176.9180  145.4330 N   0  0  0  0  0  0  0  0  0  0  0  0
  189.9250  177.0030  147.1430 N   0  0  0  0  0  2  0  0  0  0  0  0
  187.1050  176.1430  143.2570 C   0  0  0  0  0  3  0  0  0  0  0  0
  191.2970  176.8070  147.4200 N   0  0  0  0  0  0  0  0  0  0  0  0
  187.3450  175.4890  142.0370 C   0  0  0  0  0  3  0  0  0  0  0  0
  190.2550  175.9560  145.0500 C   0  0  1  0  0  3  0  0  0  0  0  0
  188.8070  174.3150  140.5120 O   0  0  0  0  0  0  0  0  0  0  0  0
  188.1920  173.0710  140.2070 C   0  0  0  0  0  1  0  0  0  0  0  0
  194.5710  176.0170  145.8690 C   0  0  0  0  0  2  0  0  0  0  0  0
  194.7220  172.2860  145.6870 O   0  0  0  0  0  0  0  0  0  0  0  0
  196.4410  174.5420  145.7040 O   0  0  0  0  0  0  0  0  0  0  0  0
  196.9070  173.2460  146.0060 C   0  0  0  0  0  2  0  0  0  0  0  0
  194.2570  173.5810  145.3870 C   0  0  0  0  0  2  0  0  0  0  0  0
  195.1030  174.6220  146.1380 C   0  0  2  0  0  3  0  0  0  0  0  0
  196.0620  172.2070  145.2580 C   0  0  0  0  0  2  0  0  0  0  0  0
  187.0580  177.8380  145.8170 C   0  0  2  0  0  3  0  0  0  0  0  0
  184.9880  176.6490  146.0750 O   0  0  0  0  0  0  0  0  0  0  0  0
  186.1180  177.1170  148.0110 O   0  0  0  0  0  1  0  0  0  0  0  0
  185.9950  177.1640  146.6300 C   0  0  0  0  0  0  0  0  0  0  0  0
  185.8910  179.7930  145.0290 F   0  0  0  0  0  0  0  0  0  0  0  0
  186.4940  178.6140  144.6280 C   0  0  0  0  0  2  0  0  0  0  0  0
  1 13  2  0  0  0  0
  1  7  1  0  0  0  0
  2  3  1  0  0  0  0
  3  4  1  0  0  0  0
  3 12  2  0  0  0  0
  5  9  1  0  0  0  0
  6 10  1  1  0  0  0
  7  8  2  0  0  0  0
  8  5  1  0  0  0  0
  8 14  1  0  0  0  0
  9  6  1  0  0  0  0
  9 24  1  0  0  0  0
 10 12  1  0  0  0  0
 11  5  2  0  0  0  0
 13 11  1  0  0  0  0
 14  2  1  6  0  0  0
 14  6  1  0  0  0  0
 15  1  1  0  0  0  0
 16 15  1  0  0  0  0
 17  4  1  0  0  0  0
 19 20  1  0  0  0  0
 19 22  1  0  0  0  0
 21 18  1  0  0  0  0
 21 22  1  0  0  0  0
 22 17  1  6  0  0  0
 23 18  1  0  0  0  0
 23 20  1  0  0  0  0
 24 29  1  6  0  0  0
 24 27  1  0  0  0  0
 25 27  2  0  0  0  0
 27 26  1  0  0  0  0
 29 28  1  0  0  0  0
M  END
>  <MODEL>
5

>  <REMARK>
 VINA RESULT:      -6.2      3.409      8.147
  Name = 
  6 active torsions:
  status: ('A' for Active; 'I' for Inactive)
    1  A    between atoms: C_1  and  N_15
    2  A    between atoms: C_1  and  C_23
    3  A    between atoms: C_2  and  O_6
    4  A    between atoms: C_5  and  C_12
    5  A    between atoms: C_5  and  N_21
    6  A    between atoms: C_5  and  C_24
                            x       y       z     vdW  Elec       q    Type
                         _______ _______ _______ _____ _____    ______ ____

>  <TORSDO>
F 6

$$$$
=
 OpenBabel11042416513D

 29 32  0  0  1  0  0  0  0  0999 V2000
  191.5720  176.0070  146.3960 C   0  0  0  0  0  0  0  0  0  0  0  0
  189.0110  175.0980  142.5350 C   0  0  0  0  0  2  0  0  0  0  0  0
  188.1190  175.5240  141.3650 C   0  0  0  0  0  0  0  0  0  0  0  0
  188.1890  174.8250  140.1220 N   0  0  0  0  0  2  0  0  0  0  0  0
  189.1410  177.1160  145.5950 C   0  0  0  0  0  0  0  0  0  0  0  0
  187.7480  176.6800  143.8690 C   0  0  1  0  0  3  0  0  0  0  0  0
  191.0670  175.7310  145.1080 C   0  0  0  0  0  3  0  0  0  0  0  0
  189.8320  176.2680  144.7560 C   0  0  0  0  0  0  0  0  0  0  0  0
  187.9150  177.5730  145.0160 N   0  0  0  0  0  0  0  0  0  0  0  0
  187.1150  177.2410  142.6920 N   0  0  0  0  0  2  0  0  0  0  0  0
  189.6200  177.4080  146.8740 C   0  0  0  0  0  3  0  0  0  0  0  0
  187.2720  176.5220  141.4850 N   0  0  0  0  0  0  0  0  0  0  0  0
  190.8430  176.8420  147.2700 C   0  0  0  0  0  3  0  0  0  0  0  0
  189.1420  176.2940  143.4530 C   0  0  1  0  0  3  0  0  0  0  0  0
  192.7910  175.4800  146.8310 O   0  0  0  0  0  0  0  0  0  0  0  0
  194.0410  176.0740  146.5130 C   0  0  0  0  0  1  0  0  0  0  0  0
  189.0930  173.7080  139.9030 C   0  0  0  0  0  2  0  0  0  0  0  0
  190.8880  172.5290  136.8420 O   0  0  0  0  0  0  0  0  0  0  0  0
  188.6910  174.1580  137.5930 O   0  0  0  0  0  0  0  0  0  0  0  0
  189.2970  174.2610  136.3240 C   0  0  0  0  0  2  0  0  0  0  0  0
  190.2830  172.4280  138.1100 C   0  0  0  0  0  2  0  0  0  0  0  0
  189.6940  173.7900  138.5120 C   0  0  2  0  0  3  0  0  0  0  0  0
  189.8870  172.9020  135.9230 C   0  0  0  0  0  2  0  0  0  0  0  0
  186.8290  178.1340  145.8220 C   0  0  2  0  0  3  0  0  0  0  0  0
  185.1570  176.4150  145.9430 O   0  0  0  0  0  0  0  0  0  0  0  0
  186.3060  176.8250  147.8810 O   0  0  0  0  0  1  0  0  0  0  0  0
  186.0490  177.0740  146.5400 C   0  0  0  0  0  0  0  0  0  0  0  0
  184.8560  179.5150  145.7770 F   0  0  0  0  0  0  0  0  0  0  0  0
  185.9410  179.0920  145.0310 C   0  0  0  0  0  2  0  0  0  0  0  0
  1 15  1  0  0  0  0
  1 13  1  0  0  0  0
  3 12  2  0  0  0  0
  3  2  1  0  0  0  0
  4  3  1  0  0  0  0
  5 11  1  0  0  0  0
  6 10  1  6  0  0  0
  6  9  1  0  0  0  0
  7  1  2  0  0  0  0
  8  7  1  0  0  0  0
  8  5  2  0  0  0  0
  9  5  1  0  0  0  0
  9 24  1  0  0  0  0
 11 13  2  0  0  0  0
 12 10  1  0  0  0  0
 14  2  1  1  0  0  0
 14  6  1  0  0  0  0
 14  8  1  0  0  0  0
 16 15  1  0  0  0  0
 17  4  1  0  0  0  0
 18 21  1  0  0  0  0
 19 22  1  0  0  0  0
 20 19  1  0  0  0  0
 21 22  1  0  0  0  0
 22 17  1  1  0  0  0
 23 20  1  0  0  0  0
 23 18  1  0  0  0  0
 24 29  1  6  0  0  0
 24 27  1  0  0  0  0
 25 27  2  0  0  0  0
 27 26  1  0  0  0  0
 29 28  1  0  0  0  0
M  END
>  <MODEL>
6

>  <REMARK>
 VINA RESULT:      -6.1      2.946      6.912
  Name = 
  6 active torsions:
  status: ('A' for Active; 'I' for Inactive)
    1  A    between atoms: C_1  and  N_15
    2  A    between atoms: C_1  and  C_23
    3  A    between atoms: C_2  and  O_6
    4  A    between atoms: C_5  and  C_12
    5  A    between atoms: C_5  and  N_21
    6  A    between atoms: C_5  and  C_24
                            x       y       z     vdW  Elec       q    Type
                         _______ _______ _______ _____ _____    ______ ____

>  <TORSDO>
F 6

$$$$
=
 OpenBabel11042416513D

 29 32  0  0  1  0  0  0  0  0999 V2000
  189.3940  173.6350  140.3870 C   0  0  0  0  0  0  0  0  0  0  0  0
  189.0410  175.5440  144.6910 C   0  0  0  0  0  2  0  0  0  0  0  0
  189.4600  176.5450  145.7720 C   0  0  0  0  0  0  0  0  0  0  0  0
  188.4900  177.0560  146.6870 N   0  0  0  0  0  2  0  0  0  0  0  0
  191.4170  174.5260  142.0890 C   0  0  0  0  0  0  0  0  0  0  0  0
  191.4060  175.3180  144.2060 C   0  0  1  0  0  3  0  0  0  0  0  0
  189.0600  174.3490  141.5580 C   0  0  0  0  0  3  0  0  0  0  0  0
  190.0930  174.7430  142.4050 C   0  0  0  0  0  0  0  0  0  0  0  0
  192.3050  175.0430  143.0850 N   0  0  0  0  0  0  0  0  0  0  0  0
  191.7360  176.4540  145.0430 N   0  0  0  0  0  2  0  0  0  0  0  0
  191.7740  173.8250  140.9350 C   0  0  0  0  0  3  0  0  0  0  0  0
  190.7090  176.9400  145.8850 N   0  0  0  0  0  0  0  0  0  0  0  0
  190.7480  173.3770  140.0860 C   0  0  0  0  0  3  0  0  0  0  0  0
  190.0700  175.6270  143.5850 C   0  0  1  0  0  3  0  0  0  0  0  0
  188.4110  173.1810  139.5040 O   0  0  0  0  0  0  0  0  0  0  0  0
  188.1930  173.7700  138.2300 C   0  0  0  0  0  1  0  0  0  0  0  0
  187.0890  176.6700  146.6380 C   0  0  0  0  0  2  0  0  0  0  0  0
  185.7920  179.4720  144.5300 O   0  0  0  0  0  0  0  0  0  0  0  0
  184.8720  177.5140  146.3640 O   0  0  0  0  0  0  0  0  0  0  0  0
  184.1140  178.6620  146.0560 C   0  0  0  0  0  2  0  0  0  0  0  0
  186.5490  178.3260  144.8400 C   0  0  0  0  0  2  0  0  0  0  0  0
  186.2330  177.8680  146.2730 C   0  0  2  0  0  3  0  0  0  0  0  0
  184.4310  179.1190  144.6260 C   0  0  0  0  0  2  0  0  0  0  0  0
  193.6970  174.6020  143.1990 C   0  0  2  0  0  3  0  0  0  0  0  0
  193.6070  172.6500  144.5940 O   0  0  0  0  0  0  0  0  0  0  0  0
  194.5690  174.5040  145.5340 O   0  0  0  0  0  1  0  0  0  0  0  0
  193.9530  173.8560  144.4730 C   0  0  0  0  0  0  0  0  0  0  0  0
  194.2440  176.6170  141.9970 F   0  0  0  0  0  0  0  0  0  0  0  0
  194.6950  175.7330  142.9610 C   0  0  0  0  0  2  0  0  0  0  0  0
  1  7  1  0  0  0  0
  2  3  1  0  0  0  0
  3 12  2  0  0  0  0
  3  4  1  0  0  0  0
  5  8  1  0  0  0  0
  5  9  1  0  0  0  0
  6 10  1  6  0  0  0
  7  8  2  0  0  0  0
  8 14  1  0  0  0  0
  9 24  1  0  0  0  0
  9  6  1  0  0  0  0
 10 12  1  0  0  0  0
 11  5  2  0  0  0  0
 13  1  2  0  0  0  0
 13 11  1  0  0  0  0
 14  6  1  0  0  0  0
 14  2  1  1  0  0  0
 15  1  1  0  0  0  0
 16 15  1  0  0  0  0
 17  4  1  0  0  0  0
 18 23  1  0  0  0  0
 18 21  1  0  0  0  0
 20 19  1  0  0  0  0
 21 22  1  0  0  0  0
 22 19  1  0  0  0  0
 22 17  1  6  0  0  0
 23 20  1  0  0  0  0
 24 29  1  1  0  0  0
 24 27  1  0  0  0  0
 27 25  2  0  0  0  0
 27 26  1  0  0  0  0
 28 29  1  0  0  0  0
M  END
>  <MODEL>
7

>  <REMARK>
 VINA RESULT:      -6.1      2.855      5.035
  Name = 
  6 active torsions:
  status: ('A' for Active; 'I' for Inactive)
    1  A    between atoms: C_1  and  N_15
    2  A    between atoms: C_1  and  C_23
    3  A    between atoms: C_2  and  O_6
    4  A    between atoms: C_5  and  C_12
    5  A    between atoms: C_5  and  N_21
    6  A    between atoms: C_5  and  C_24
                            x       y       z     vdW  Elec       q    Type
                         _______ _______ _______ _____ _____    ______ ____

>  <TORSDO>
F 6

$$$$
=
 OpenBabel11042416513D

 29 32  0  0  1  0  0  0  0  0999 V2000
  186.9560  177.7100  146.8450 C   0  0  0  0  0  0  0  0  0  0  0  0
  191.1680  176.4260  145.1410 C   0  0  0  0  0  2  0  0  0  0  0  0
  192.2530  176.4250  144.0600 C   0  0  0  0  0  0  0  0  0  0  0  0
  193.6310  176.3570  144.4310 N   0  0  0  0  0  2  0  0  0  0  0  0
  187.6590  177.0010  144.2410 C   0  0  0  0  0  0  0  0  0  0  0  0
  189.5770  176.2350  143.3210 C   0  0  1  0  0  3  0  0  0  0  0  0
  188.3160  177.5410  146.5090 C   0  0  0  0  0  3  0  0  0  0  0  0
  188.6280  177.1470  145.2100 C   0  0  0  0  0  0  0  0  0  0  0  0
  188.2090  176.6230  142.9750 N   0  0  0  0  0  0  0  0  0  0  0  0
  190.6020  176.5050  142.3330 N   0  0  0  0  0  2  0  0  0  0  0  0
  186.3070  177.1650  144.5480 C   0  0  0  0  0  3  0  0  0  0  0  0
  191.9410  176.4730  142.7830 N   0  0  0  0  0  0  0  0  0  0  0  0
  185.9620  177.5190  145.8620 C   0  0  0  0  0  3  0  0  0  0  0  0
  189.9340  177.0560  144.5320 C   0  0  1  0  0  3  0  0  0  0  0  0
  186.5640  178.0760  148.1360 O   0  0  0  0  0  0  0  0  0  0  0  0
  186.7190  179.3950  148.6400 C   0  0  0  0  0  1  0  0  0  0  0  0
  194.0650  176.2960  145.8170 C   0  0  0  0  0  2  0  0  0  0  0  0
  194.8540  172.6420  145.8050 O   0  0  0  0  0  0  0  0  0  0  0  0
  196.1100  175.1470  145.3720 O   0  0  0  0  0  0  0  0  0  0  0  0
  196.8500  173.9780  145.6450 C   0  0  0  0  0  2  0  0  0  0  0  0
  194.1160  173.8100  145.5320 C   0  0  0  0  0  2  0  0  0  0  0  0
  194.8810  175.0380  146.0510 C   0  0  2  0  0  3  0  0  0  0  0  0
  196.0860  172.7520  145.1300 C   0  0  0  0  0  2  0  0  0  0  0  0
  187.3970  176.0210  141.9150 C   0  0  2  0  0  3  0  0  0  0  0  0
  188.5670  174.7000  140.2880 O   0  0  0  0  0  0  0  0  0  0  0  0
  187.8830  173.5880  142.1690 O   0  0  0  0  0  1  0  0  0  0  0  0
  187.9870  174.7420  141.4050 C   0  0  0  0  0  0  0  0  0  0  0  0
  187.9610  178.0570  140.7560 F   0  0  0  0  0  0  0  0  0  0  0  0
  187.0600  177.0070  140.7990 C   0  0  0  0  0  2  0  0  0  0  0  0
  1 15  1  0  0  0  0
  3  4  1  0  0  0  0
  3  2  1  0  0  0  0
  4 17  1  0  0  0  0
  5 11  2  0  0  0  0
  5  8  1  0  0  0  0
  6 10  1  6  0  0  0
  6 14  1  0  0  0  0
  7  1  1  0  0  0  0
  8  7  2  0  0  0  0
  9  6  1  0  0  0  0
  9  5  1  0  0  0  0
 10 12  1  0  0  0  0
 11 13  1  0  0  0  0
 12  3  2  0  0  0  0
 13  1  2  0  0  0  0
 14  2  1  1  0  0  0
 14  8  1  0  0  0  0
 15 16  1  0  0  0  0
 19 20  1  0  0  0  0
 19 22  1  0  0  0  0
 21 18  1  0  0  0  0
 21 22  1  0  0  0  0
 22 17  1  6  0  0  0
 23 20  1  0  0  0  0
 23 18  1  0  0  0  0
 24 29  1  6  0  0  0
 24  9  1  0  0  0  0
 25 27  2  0  0  0  0
 27 24  1  0  0  0  0
 27 26  1  0  0  0  0
 28 29  1  0  0  0  0
M  END
>  <MODEL>
8

>  <REMARK>
 VINA RESULT:      -6.1      3.013      6.975
  Name = 
  6 active torsions:
  status: ('A' for Active; 'I' for Inactive)
    1  A    between atoms: C_1  and  N_15
    2  A    between atoms: C_1  and  C_23
    3  A    between atoms: C_2  and  O_6
    4  A    between atoms: C_5  and  C_12
    5  A    between atoms: C_5  and  N_21
    6  A    between atoms: C_5  and  C_24
                            x       y       z     vdW  Elec       q    Type
                         _______ _______ _______ _____ _____    ______ ____

>  <TORSDO>
F 6

$$$$
=
 OpenBabel11042416513D

 29 32  0  0  1  0  0  0  0  0999 V2000
  191.7870  172.6780  140.9290 C   0  0  0  0  0  0  0  0  0  0  0  0
  189.2980  175.9640  143.2310 C   0  0  0  0  0  2  0  0  0  0  0  0
  189.1170  177.3670  143.8200 C   0  0  0  0  0  0  0  0  0  0  0  0
  187.8230  177.9710  143.8420 N   0  0  0  0  0  2  0  0  0  0  0  0
  192.6570  174.5570  142.7980 C   0  0  0  0  0  0  0  0  0  0  0  0
  191.5690  176.0760  144.0710 C   0  0  1  0  0  3  0  0  0  0  0  0
  190.9100  173.6970  141.3580 C   0  0  0  0  0  3  0  0  0  0  0  0
  191.3640  174.5930  142.3220 C   0  0  0  0  0  0  0  0  0  0  0  0
  192.9130  175.5900  143.7550 N   0  0  0  0  0  0  0  0  0  0  0  0
  191.4400  177.4870  144.3730 N   0  0  0  0  0  2  0  0  0  0  0  0
  193.5460  173.5610  142.3870 C   0  0  0  0  0  3  0  0  0  0  0  0
  190.1350  178.0300  144.3230 N   0  0  0  0  0  0  0  0  0  0  0  0
  193.0980  172.6180  141.4490 C   0  0  0  0  0  3  0  0  0  0  0  0
  190.7520  175.8340  142.8300 C   0  0  1  0  0  3  0  0  0  0  0  0
  191.3930  171.7250  139.9870 O   0  0  0  0  0  0  0  0  0  0  0  0
  190.8600  170.4600  140.3520 C   0  0  0  0  0  1  0  0  0  0  0  0
  186.6420  177.3090  143.3120 C   0  0  0  0  0  2  0  0  0  0  0  0
  184.7590  176.8920  146.5150 O   0  0  0  0  0  0  0  0  0  0  0  0
  185.2010  178.8150  144.4780 O   0  0  0  0  0  0  0  0  0  0  0  0
  184.1030  178.8980  145.3570 C   0  0  0  0  0  2  0  0  0  0  0  0
  185.8550  176.8090  145.6360 C   0  0  0  0  0  2  0  0  0  0  0  0
  185.4870  177.4490  144.2870 C   0  0  2  0  0  3  0  0  0  0  0  0
  184.4690  178.2580  146.7020 C   0  0  0  0  0  2  0  0  0  0  0  0
  194.0380  175.5310  144.6900 C   0  0  2  0  0  3  0  0  0  0  0  0
  193.8990  176.6740  146.7970 O   0  0  0  0  0  1  0  0  0  0  0  0
  192.8580  174.6370  146.6970 O   0  0  0  0  0  0  0  0  0  0  0  0
  193.5970  175.6570  146.1170 C   0  0  0  0  0  0  0  0  0  0  0  0
  196.3450  175.8370  144.0670 F   0  0  0  0  0  0  0  0  0  0  0  0
  195.1590  176.5020  144.3260 C   0  0  0  0  0  2  0  0  0  0  0  0
  1  7  2  0  0  0  0
  1 13  1  0  0  0  0
  2  3  1  0  0  0  0
  3  4  1  0  0  0  0
  3 12  2  0  0  0  0
  5  9  1  0  0  0  0
  6 10  1  6  0  0  0
  7  8  1  0  0  0  0
  8  5  2  0  0  0  0
  8 14  1  0  0  0  0
  9  6  1  0  0  0  0
  9 24  1  0  0  0  0
 11  5  1  0  0  0  0
 12 10  1  0  0  0  0
 13 11  2  0  0  0  0
 14  2  1  1  0  0  0
 14  6  1  0  0  0  0
 15 16  1  0  0  0  0
 15  1  1  0  0  0  0
 17  4  1  0  0  0  0
 18 23  1  0  0  0  0
 19 20  1  0  0  0  0
 20 23  1  0  0  0  0
 21 18  1  0  0  0  0
 22 17  1  6  0  0  0
 22 19  1  0  0  0  0
 22 21  1  0  0  0  0
 24 29  1  6  0  0  0
 24 27  1  0  0  0  0
 27 26  2  0  0  0  0
 27 25  1  0  0  0  0
 28 29  1  0  0  0  0
M  END
>  <MODEL>
9

>  <REMARK>
 VINA RESULT:      -5.8      2.724      5.038
  Name = 
  6 active torsions:
  status: ('A' for Active; 'I' for Inactive)
    1  A    between atoms: C_1  and  N_15
    2  A    between atoms: C_1  and  C_23
    3  A    between atoms: C_2  and  O_6
    4  A    between atoms: C_5  and  C_12
    5  A    between atoms: C_5  and  N_21
    6  A    between atoms: C_5  and  C_24
                            x       y       z     vdW  Elec       q    Type
                         _______ _______ _______ _____ _____    ______ ____

>  <TORSDO>
F 6

$$$$
