=
 OpenBabel11042416583D

 67 73  0  0  1  0  0  0  0  0999 V2000
  190.0470  173.5360  141.6290 C   0  0  2  0  0  0  0  0  0  0  0  0
  192.1460  174.7240  141.3530 O   0  0  0  0  0  0  0  0  0  0  0  0
  190.5800  171.7940  140.2400 C   0  0  0  0  0  2  0  0  0  0  0  0
  191.4330  173.7550  141.0980 C   0  0  0  0  0  0  0  0  0  0  0  0
  191.8010  172.6920  140.1630 C   0  0  1  0  0  3  0  0  0  0  0  0
  189.7500  172.1880  141.3170 O   0  0  0  0  0  0  0  0  0  0  0  0
  188.4760  175.4480  141.6400 C   0  0  0  0  0  3  0  0  0  0  0  0
  188.5410  174.1130  139.5880 C   0  0  0  0  0  1  0  0  0  0  0  0
  189.0250  174.4410  140.9670 C   0  0  0  0  0  0  0  0  0  0  0  0
  187.4870  176.2720  141.0950 O   0  0  0  0  0  0  0  0  0  0  0  0
  186.5230  176.8770  141.9010 C   0  0  0  0  0  0  0  0  0  0  0  0
  185.6590  177.8640  141.4010 C   0  0  0  0  0  3  0  0  0  0  0  0
  184.7080  178.4630  142.2280 C   0  0  0  0  0  3  0  0  0  0  0  0
  184.6130  178.0840  143.5620 C   0  0  0  0  0  3  0  0  0  0  0  0
  186.4090  176.4890  143.2370 C   0  0  0  0  0  3  0  0  0  0  0  0
  185.4710  177.1010  144.0780 C   0  0  0  0  0  0  0  0  0  0  0  0
  185.3920  176.7010  145.4210 O   0  0  0  0  0  0  0  0  0  0  0  0
  185.2710  177.6380  146.4860 C   0  0  0  0  0  2  0  0  0  0  0  0
  186.6140  177.8450  147.1780 C   0  0  0  0  0  2  0  0  0  0  0  0
  187.4780  176.7630  146.9600 O   0  0  0  0  0  0  0  0  0  0  0  0
  188.7370  177.3570  146.8050 C   0  0  0  0  0  2  0  0  0  0  0  0
  189.6140  177.7720  144.5180 C   0  0  0  0  0  2  0  0  0  0  0  0
  191.0700  177.7550  144.0930 C   0  0  2  0  0  3  0  0  0  0  0  0
  189.4640  176.7400  145.6210 C   0  0  1  0  0  3  0  0  0  0  0  0
  191.1650  177.6250  142.7020 O   0  0  0  0  0  1  0  0  0  0  0  0
  193.0180  176.8710  145.1430 O   0  0  0  0  0  1  0  0  0  0  0  0
  190.8690  176.3050  146.0020 C   0  0  0  0  0  2  0  0  0  0  0  0
  191.7140  176.5600  144.7660 C   0  0  1  0  0  3  0  0  0  0  0  0
  193.0410  171.9440  140.6370 C   0  0  0  0  0  2  0  0  0  0  0  0
  193.4030  170.9240  139.6650 N   0  0  0  0  0  2  0  0  0  0  0  0
  195.6060  170.0680  138.5780 O   0  0  0  0  0  1  0  0  0  0  0  0
  193.6920  170.6280  137.2730 C   0  0  2  0  0  3  0  0  0  0  0  0
  193.7540  171.6160  138.4370 C   0  0  2  0  0  3  0  0  0  0  0  0
  195.0360  171.0870  137.8110 C   0  0  1  0  0  3  0  0  0  0  0  0
  193.4360  171.3450  135.9480 C   0  0  1  0  0  3  0  0  0  0  0  0
  193.9520  170.5230  134.7900 C   0  0  0  0  0  1  0  0  0  0  0  0
  192.0640  174.2130  135.6640 C   0  0  0  0  0  3  0  0  0  0  0  0
  189.5920  171.4520  135.6720 C   0  0  0  0  0  2  0  0  0  0  0  0
  190.0450  172.8770  135.6060 C   0  0  0  0  0  0  0  0  0  0  0  0
  191.4210  172.9710  135.6800 C   0  0  0  0  0  0  0  0  0  0  0  0
  189.8900  175.2760  135.4380 C   0  0  0  0  0  3  0  0  0  0  0  0
  191.0710  169.5330  135.9380 O   0  0  0  0  0  0  0  0  0  0  0  0
  192.0240  171.6880  135.7460 N   0  0  0  0  0  0  0  0  0  0  0  0
  191.2880  175.3700  135.5360 C   0  0  0  0  0  3  0  0  0  0  0  0
  190.9330  170.7700  135.7630 C   0  0  0  0  0  0  0  0  0  0  0  0
  189.2570  174.0200  135.4780 C   0  0  0  0  0  3  0  0  0  0  0  0
  189.9690  173.6760  143.1600 C   0  0  0  0  0  2  0  0  0  0  0  0
  190.0890  172.0860  144.0700 S   0  0  0  0  0  0  0  0  0  0  0  0
  191.8970  172.1850  144.1820 C   0  0  0  0  0  2  0  0  0  0  0  0
  192.4930  170.7940  144.3980 C   0  0  0  0  0  2  0  0  0  0  0  0
  194.2540  169.4530  143.3910 O   0  0  0  0  0  1  0  0  0  0  0  0
  193.9480  170.7040  143.9280 C   0  0  2  0  0  3  0  0  0  0  0  0
  194.9790  171.1770  144.9810 C   0  0  1  0  0  3  0  0  0  0  0  0
  194.5630  172.3860  145.5580 O   0  0  0  0  0  0  0  0  0  0  0  0
  195.5620  173.3280  145.3040 C   0  0  1  0  0  3  0  0  0  0  0  0
  196.1820  173.0040  143.9590 C   0  0  0  0  0  2  0  0  0  0  0  0
  195.2160  174.1690  144.0810 C   0  0  2  0  0  3  0  0  0  0  0  0
  196.5730  176.0490  143.0300 C   0  0  0  0  0  0  0  0  0  0  0  0
  197.3500  177.0220  143.2350 O   0  0  0  0  0  0  0  0  0  0  0  0
  195.9640  175.4170  144.1590 N   0  0  0  0  0  2  0  0  0  0  0  0
  196.3250  175.5690  141.7010 N   0  0  0  0  0  0  0  0  0  0  0  0
  195.3340  175.9960  140.9880 C   0  0  0  0  0  3  0  0  0  0  0  0
  196.4090  175.0030  138.9970 C   0  0  0  0  0  1  0  0  0  0  0  0
  195.1050  175.4360  139.6260 C   0  0  0  0  0  2  0  0  0  0  0  0
  195.2150  170.1460  146.0860 C   0  0  0  0  0  2  0  0  0  0  0  0
  196.7640  168.6810  147.6660 C   0  0  0  0  0  1  0  0  0  0  0  0
  196.9750  169.7030  146.1730 S   0  0  0  0  0  0  0  0  0  0  0  0
  1 47  1  1  0  0  0
  3  6  1  0  0  0  0
  4  2  2  0  0  0  0
  4  1  1  0  0  0  0
  5  3  1  0  0  0  0
  5 29  1  1  0  0  0
  5  4  1  0  0  0  0
  6  1  1  0  0  0  0
  8  9  1  0  0  0  0
  9  1  1  0  0  0  0
  9  7  2  0  0  0  0
 10  7  1  0  0  0  0
 10 11  1  0  0  0  0
 11 15  1  0  0  0  0
 12 11  2  0  0  0  0
 12 13  1  0  0  0  0
 13 14  2  0  0  0  0
 14 16  1  0  0  0  0
 15 16  2  0  0  0  0
 16 17  1  0  0  0  0
 17 18  1  0  0  0  0
 18 19  1  0  0  0  0
 20 19  1  0  0  0  0
 21 20  1  0  0  0  0
 22 24  1  0  0  0  0
 23 25  1  6  0  0  0
 23 22  1  0  0  0  0
 23 28  1  0  0  0  0
 24 27  1  0  0  0  0
 24 21  1  1  0  0  0
 28 26  1  1  0  0  0
 28 27  1  0  0  0  0
 30 29  1  0  0  0  0
 32 35  1  6  0  0  0
 32 34  1  0  0  0  0
 32 33  1  0  0  0  0
 33 30  1  1  0  0  0
 34 33  1  0  0  0  0
 34 31  1  1  0  0  0
 35 36  1  6  0  0  0
 37 40  1  0  0  0  0
 38 45  1  0  0  0  0
 39 38  1  0  0  0  0
 39 40  2  0  0  0  0
 40 43  1  0  0  0  0
 41 46  2  0  0  0  0
 41 44  1  0  0  0  0
 43 45  1  0  0  0  0
 43 35  1  0  0  0  0
 44 37  2  0  0  0  0
 45 42  2  0  0  0  0
 46 39  1  0  0  0  0
 47 48  1  0  0  0  0
 48 49  1  0  0  0  0
 49 50  1  0  0  0  0
 52 51  1  1  0  0  0
 52 50  1  0  0  0  0
 52 53  1  0  0  0  0
 53 54  1  0  0  0  0
 53 65  1  1  0  0  0
 55 54  1  6  0  0  0
 56 57  1  0  0  0  0
 56 55  1  0  0  0  0
 57 60  1  1  0  0  0
 57 55  1  0  0  0  0
 58 59  2  0  0  0  0
 58 60  1  0  0  0  0
 61 58  1  0  0  0  0
 62 61  2  0  0  0  0
 63 64  1  0  0  0  0
 64 62  1  0  0  0  0
 65 67  1  0  0  0  0
 67 66  1  0  0  0  0
M  END
>  <MODEL>
1

>  <REMARK>
 VINA RESULT:      -6.1      0.000      0.000
  Name = 
  27 active torsions:
  status: ('A' for Active; 'I' for Inactive)
    1  A    between atoms: N_1  and  C_20
    2  A    between atoms: C_2  and  C_42
    3  A    between atoms: C_2  and  S_61
    4  A    between atoms: O_3  and  C_19
    5  A    between atoms: O_3  and  C_42
    6  A    between atoms: C_6  and  C_22
    7  A    between atoms: C_6  and  C_60
    8  A    between atoms: C_7  and  O_48
    9  A    between atoms: O_11  and  C_37
   10  A    between atoms: O_11  and  C_67
   11  A    between atoms: C_14  and  O_48
   12  A    between atoms: C_15  and  S_21
   13  A    between atoms: C_15  and  C_50
   14  A    between atoms: C_17  and  C_67
   15  A    between atoms: S_21  and  C_22
   16  A    between atoms: N_26  and  C_49
   17  A    between atoms: N_26  and  C_55
   18  A    between atoms: N_28  and  C_53
   19  A    between atoms: O_32  and  C_63
   20  A    between atoms: O_32  and  C_64
   21  A    between atoms: N_35  and  C_47
   22  A    between atoms: C_37  and  C_63
   23  A    between atoms: C_39  and  C_47
   24  A    between atoms: C_40  and  C_42
   25  A    between atoms: C_40  and  C_50
   26  A    between atoms: C_45  and  C_66
   27  A    between atoms: C_49  and  C_54
                            x       y       z     vdW  Elec       q    Type
                         _______ _______ _______ _____ _____    ______ ____

>  <TORSDO>
F 27

$$$$
=
 OpenBabel11042416583D

 67 73  0  0  1  0  0  0  0  0999 V2000
  190.0270  172.2810  141.6890 C   0  0  2  0  0  0  0  0  0  0  0  0
  187.6110  172.3040  141.9190 O   0  0  0  0  0  0  0  0  0  0  0  0
  190.1960  174.3830  140.7920 C   0  0  0  0  0  2  0  0  0  0  0  0
  188.6520  172.8710  141.5910 C   0  0  0  0  0  0  0  0  0  0  0  0
  188.7010  174.1970  140.9740 C   0  0  1  0  0  3  0  0  0  0  0  0
  190.9040  173.3750  141.4900 O   0  0  0  0  0  0  0  0  0  0  0  0
  189.8830  171.4300  139.3700 C   0  0  0  0  0  3  0  0  0  0  0  0
  190.8800  169.9180  141.0170 C   0  0  0  0  0  1  0  0  0  0  0  0
  190.2840  171.2340  140.6220 C   0  0  0  0  0  0  0  0  0  0  0  0
  190.0430  170.4720  138.3650 O   0  0  0  0  0  0  0  0  0  0  0  0
  190.5800  170.8080  137.1220 C   0  0  0  0  0  0  0  0  0  0  0  0
  189.7740  170.9200  135.9780 C   0  0  0  0  0  3  0  0  0  0  0  0
  190.3340  171.2480  134.7420 C   0  0  0  0  0  3  0  0  0  0  0  0
  191.7030  171.4630  134.6380 C   0  0  0  0  0  3  0  0  0  0  0  0
  191.9520  171.0430  137.0120 C   0  0  0  0  0  3  0  0  0  0  0  0
  192.5230  171.3520  135.7710 C   0  0  0  0  0  0  0  0  0  0  0  0
  193.9070  171.5670  135.6890 O   0  0  0  0  0  0  0  0  0  0  0  0
  194.8140  171.0480  136.6560 C   0  0  0  0  0  2  0  0  0  0  0  0
  196.1290  171.8210  136.6330 C   0  0  0  0  0  2  0  0  0  0  0  0
  195.9540  173.1180  136.1340 O   0  0  0  0  0  0  0  0  0  0  0  0
  196.3000  173.9470  137.2100 C   0  0  0  0  0  2  0  0  0  0  0  0
  195.2790  175.8930  136.0510 C   0  0  0  0  0  2  0  0  0  0  0  0
  193.8250  176.0410  135.6460 C   0  0  2  0  0  3  0  0  0  0  0  0
  195.3000  175.0840  137.3360 C   0  0  1  0  0  3  0  0  0  0  0  0
  193.5280  177.3870  135.3970 O   0  0  0  0  0  1  0  0  0  0  0  0
  191.8630  174.8720  136.3250 O   0  0  0  0  0  1  0  0  0  0  0  0
  193.8890  174.5580  137.5400 C   0  0  0  0  0  2  0  0  0  0  0  0
  192.9890  175.5370  136.8040 C   0  0  1  0  0  3  0  0  0  0  0  0
  188.1450  175.2630  141.9110 C   0  0  0  0  0  2  0  0  0  0  0  0
  187.3830  176.2400  141.1490 N   0  0  0  0  0  2  0  0  0  0  0  0
  185.5980  177.9880  140.4230 O   0  0  0  0  0  1  0  0  0  0  0  0
  186.2180  177.6930  142.7060 C   0  0  2  0  0  3  0  0  0  0  0  0
  187.4780  177.5020  141.8640 C   0  0  2  0  0  3  0  0  0  0  0  0
  186.4140  178.5000  141.4340 C   0  0  1  0  0  3  0  0  0  0  0  0
  186.4800  178.6090  143.9010 C   0  0  1  0  0  3  0  0  0  0  0  0
  185.4430  179.7040  143.9700 C   0  0  0  0  0  1  0  0  0  0  0  0
  188.9220  177.0210  145.2060 C   0  0  0  0  0  3  0  0  0  0  0  0
  185.8130  176.7330  147.2030 C   0  0  0  0  0  2  0  0  0  0  0  0
  187.2550  176.4910  146.8810 C   0  0  0  0  0  0  0  0  0  0  0  0
  187.6240  177.1310  145.7140 C   0  0  0  0  0  0  0  0  0  0  0  0
  189.4960  175.6380  147.1210 C   0  0  0  0  0  3  0  0  0  0  0  0
  184.2800  178.0360  145.8260 O   0  0  0  0  0  0  0  0  0  0  0  0
  186.5470  177.8830  145.1740 N   0  0  0  0  0  0  0  0  0  0  0  0
  189.8630  176.2720  145.9230 C   0  0  0  0  0  3  0  0  0  0  0  0
  185.4500  177.6320  146.0490 C   0  0  0  0  0  0  0  0  0  0  0  0
  188.1790  175.7420  147.6070 C   0  0  0  0  0  3  0  0  0  0  0  0
  190.3290  171.7050  143.0840 C   0  0  0  0  0  2  0  0  0  0  0  0
  189.8460  172.8030  144.4740 S   0  0  0  0  0  0  0  0  0  0  0  0
  191.5670  173.0570  144.9880 C   0  0  0  0  0  2  0  0  0  0  0  0
  192.4500  171.9270  144.4590 C   0  0  0  0  0  2  0  0  0  0  0  0
  194.2480  173.4790  144.9840 O   0  0  0  0  0  1  0  0  0  0  0  0
  193.9280  172.1320  144.8060 C   0  0  2  0  0  3  0  0  0  0  0  0
  194.9050  171.4000  143.8540 C   0  0  1  0  0  3  0  0  0  0  0  0
  194.5410  171.6280  142.5180 O   0  0  0  0  0  0  0  0  0  0  0  0
  195.5100  172.4690  141.9660 C   0  0  1  0  0  3  0  0  0  0  0  0
  195.5500  172.2210  140.4720 C   0  0  0  0  0  2  0  0  0  0  0  0
  194.8750  173.4710  141.0090 C   0  0  2  0  0  3  0  0  0  0  0  0
  195.5660  175.8670  141.5180 C   0  0  0  0  0  0  0  0  0  0  0  0
  196.3030  176.8380  141.1900 O   0  0  0  0  0  0  0  0  0  0  0  0
  195.7770  174.6070  140.8750 N   0  0  0  0  0  2  0  0  0  0  0  0
  194.5250  176.0270  142.4920 N   0  0  0  0  0  0  0  0  0  0  0  0
  193.2910  176.2230  142.1570 C   0  0  0  0  0  3  0  0  0  0  0  0
  191.6410  177.7920  143.1130 C   0  0  0  0  0  1  0  0  0  0  0  0
  192.2570  176.4170  143.2130 C   0  0  0  0  0  2  0  0  0  0  0  0
  196.3610  171.8220  144.0580 C   0  0  0  0  0  2  0  0  0  0  0  0
  196.7120  169.4660  145.2270 C   0  0  0  0  0  1  0  0  0  0  0  0
  196.9780  171.2160  145.6560 S   0  0  0  0  0  0  0  0  0  0  0  0
  1 47  1  1  0  0  0
  3  5  1  0  0  0  0
  3  6  1  0  0  0  0
  4  1  1  0  0  0  0
  4  2  2  0  0  0  0
  5  4  1  0  0  0  0
  5 29  1  1  0  0  0
  6  1  1  0  0  0  0
  7  9  2  0  0  0  0
  9  8  1  0  0  0  0
  9  1  1  0  0  0  0
 10  7  1  0  0  0  0
 11 10  1  0  0  0  0
 12 11  2  0  0  0  0
 13 12  1  0  0  0  0
 14 13  2  0  0  0  0
 14 16  1  0  0  0  0
 15 11  1  0  0  0  0
 16 15  2  0  0  0  0
 17 16  1  0  0  0  0
 17 18  1  0  0  0  0
 19 18  1  0  0  0  0
 20 19  1  0  0  0  0
 20 21  1  0  0  0  0
 22 24  1  0  0  0  0
 23 25  1  1  0  0  0
 23 22  1  0  0  0  0
 23 28  1  0  0  0  0
 24 21  1  6  0  0  0
 24 27  1  0  0  0  0
 28 26  1  6  0  0  0
 28 27  1  0  0  0  0
 30 29  1  0  0  0  0
 32 35  1  1  0  0  0
 33 30  1  6  0  0  0
 33 32  1  0  0  0  0
 34 31  1  6  0  0  0
 34 33  1  0  0  0  0
 34 32  1  0  0  0  0
 35 36  1  1  0  0  0
 35 43  1  0  0  0  0
 37 40  2  0  0  0  0
 37 44  1  0  0  0  0
 39 38  1  0  0  0  0
 39 46  2  0  0  0  0
 40 39  1  0  0  0  0
 41 46  1  0  0  0  0
 42 45  2  0  0  0  0
 43 40  1  0  0  0  0
 43 45  1  0  0  0  0
 44 41  2  0  0  0  0
 45 38  1  0  0  0  0
 47 48  1  0  0  0  0
 48 49  1  0  0  0  0
 50 52  1  0  0  0  0
 50 49  1  0  0  0  0
 52 51  1  6  0  0  0
 53 65  1  6  0  0  0
 53 52  1  0  0  0  0
 54 53  1  0  0  0  0
 55 54  1  1  0  0  0
 56 57  1  0  0  0  0
 56 55  1  0  0  0  0
 57 60  1  6  0  0  0
 57 55  1  0  0  0  0
 58 61  1  0  0  0  0
 59 58  2  0  0  0  0
 60 58  1  0  0  0  0
 62 61  2  0  0  0  0
 62 64  1  0  0  0  0
 63 64  1  0  0  0  0
 65 67  1  0  0  0  0
 66 67  1  0  0  0  0
M  END
>  <MODEL>
2

>  <REMARK>
 VINA RESULT:      -6.0      2.550      8.865
  Name = 
  27 active torsions:
  status: ('A' for Active; 'I' for Inactive)
    1  A    between atoms: N_1  and  C_20
    2  A    between atoms: C_2  and  C_42
    3  A    between atoms: C_2  and  S_61
    4  A    between atoms: O_3  and  C_19
    5  A    between atoms: O_3  and  C_42
    6  A    between atoms: C_6  and  C_22
    7  A    between atoms: C_6  and  C_60
    8  A    between atoms: C_7  and  O_48
    9  A    between atoms: O_11  and  C_37
   10  A    between atoms: O_11  and  C_67
   11  A    between atoms: C_14  and  O_48
   12  A    between atoms: C_15  and  S_21
   13  A    between atoms: C_15  and  C_50
   14  A    between atoms: C_17  and  C_67
   15  A    between atoms: S_21  and  C_22
   16  A    between atoms: N_26  and  C_49
   17  A    between atoms: N_26  and  C_55
   18  A    between atoms: N_28  and  C_53
   19  A    between atoms: O_32  and  C_63
   20  A    between atoms: O_32  and  C_64
   21  A    between atoms: N_35  and  C_47
   22  A    between atoms: C_37  and  C_63
   23  A    between atoms: C_39  and  C_47
   24  A    between atoms: C_40  and  C_42
   25  A    between atoms: C_40  and  C_50
   26  A    between atoms: C_45  and  C_66
   27  A    between atoms: C_49  and  C_54
                            x       y       z     vdW  Elec       q    Type
                         _______ _______ _______ _____ _____    ______ ____

>  <TORSDO>
F 27

$$$$
=
 OpenBabel11042416583D

 67 73  0  0  1  0  0  0  0  0999 V2000
  196.2590  174.4530  141.6900 C   0  0  2  0  0  0  0  0  0  0  0  0
  194.1710  173.4030  141.0350 O   0  0  0  0  0  0  0  0  0  0  0  0
  195.4340  176.5900  141.7600 C   0  0  0  0  0  2  0  0  0  0  0  0
  194.8020  174.4150  141.3350 C   0  0  0  0  0  0  0  0  0  0  0  0
  194.2400  175.7650  141.3150 C   0  0  1  0  0  3  0  0  0  0  0  0
  196.4630  175.7420  142.2380 O   0  0  0  0  0  0  0  0  0  0  0  0
  197.1660  175.1840  139.5070 C   0  0  0  0  0  3  0  0  0  0  0  0
  197.9330  173.0060  140.3230 C   0  0  0  0  0  1  0  0  0  0  0  0
  197.1550  174.2760  140.4790 C   0  0  0  0  0  0  0  0  0  0  0  0
  197.9280  175.0370  138.3450 O   0  0  0  0  0  0  0  0  0  0  0  0
  197.3280  174.9960  137.0860 C   0  0  0  0  0  0  0  0  0  0  0  0
  197.9160  174.3110  136.0110 C   0  0  0  0  0  3  0  0  0  0  0  0
  197.3030  174.2920  134.7570 C   0  0  0  0  0  3  0  0  0  0  0  0
  196.0990  174.9590  134.5650 C   0  0  0  0  0  3  0  0  0  0  0  0
  196.1090  175.6490  136.8890 C   0  0  0  0  0  3  0  0  0  0  0  0
  195.5000  175.6510  135.6280 C   0  0  0  0  0  0  0  0  0  0  0  0
  194.2830  176.3300  135.4570 O   0  0  0  0  0  0  0  0  0  0  0  0
  193.2170  176.2240  136.3950 C   0  0  0  0  0  2  0  0  0  0  0  0
  192.1060  175.3310  135.8510 C   0  0  0  0  0  2  0  0  0  0  0  0
  192.5190  173.9960  135.7590 O   0  0  0  0  0  0  0  0  0  0  0  0
  192.8600  173.6520  137.0730 C   0  0  0  0  0  2  0  0  0  0  0  0
  193.7340  171.7720  135.7050 C   0  0  0  0  0  2  0  0  0  0  0  0
  195.1480  171.2220  135.7240 C   0  0  2  0  0  3  0  0  0  0  0  0
  193.4230  172.2410  137.1150 C   0  0  1  0  0  3  0  0  0  0  0  0
  195.1770  169.9440  135.1520 O   0  0  0  0  0  1  0  0  0  0  0  0
  196.9230  171.4670  137.2940 O   0  0  0  0  0  1  0  0  0  0  0  0
  194.7310  172.1910  137.8870 C   0  0  0  0  0  2  0  0  0  0  0  0
  195.5730  171.1450  137.1760 C   0  0  1  0  0  3  0  0  0  0  0  0
  193.0980  175.9040  142.3150 C   0  0  0  0  0  2  0  0  0  0  0  0
  191.8230  175.7520  141.6320 N   0  0  0  0  0  2  0  0  0  0  0  0
  189.2280  175.8950  141.7550 O   0  0  0  0  0  1  0  0  0  0  0  0
  190.3500  173.9050  141.0730 C   0  0  2  0  0  3  0  0  0  0  0  0
  191.1980  174.5530  142.1660 C   0  0  2  0  0  3  0  0  0  0  0  0
  189.6810  174.6540  142.2120 C   0  0  1  0  0  3  0  0  0  0  0  0
  190.1770  172.4060  141.3180 C   0  0  1  0  0  3  0  0  0  0  0  0
  188.9380  172.1400  142.1390 C   0  0  0  0  0  1  0  0  0  0  0  0
  192.2380  170.2110  140.2580 C   0  0  0  0  0  3  0  0  0  0  0  0
  189.5510  170.9350  137.8090 C   0  0  0  0  0  2  0  0  0  0  0  0
  190.7840  170.2560  138.3220 C   0  0  0  0  0  0  0  0  0  0  0  0
  191.1060  170.6920  139.5920 C   0  0  0  0  0  0  0  0  0  0  0  0
  192.6910  168.7840  138.3430 C   0  0  0  0  0  3  0  0  0  0  0  0
  188.2960  172.6380  139.0190 O   0  0  0  0  0  0  0  0  0  0  0  0
  190.1500  171.6230  140.0770 N   0  0  0  0  0  0  0  0  0  0  0  0
  193.0290  169.2450  139.6260 C   0  0  0  0  0  3  0  0  0  0  0  0
  189.2250  171.7920  139.0050 C   0  0  0  0  0  0  0  0  0  0  0  0
  191.5600  169.2940  137.6790 C   0  0  0  0  0  3  0  0  0  0  0  0
  196.6310  173.4330  142.7810 C   0  0  0  0  0  2  0  0  0  0  0  0
  197.9410  174.0040  143.9340 S   0  0  0  0  0  0  0  0  0  0  0  0
  196.7350  174.5460  145.1760 C   0  0  0  0  0  2  0  0  0  0  0  0
  195.4240  173.7770  145.0120 C   0  0  0  0  0  2  0  0  0  0  0  0
  194.5110  175.8000  146.0080 O   0  0  0  0  0  1  0  0  0  0  0  0
  194.1970  174.6580  145.2700 C   0  0  2  0  0  3  0  0  0  0  0  0
  192.9790  173.8880  145.8380 C   0  0  1  0  0  3  0  0  0  0  0  0
  191.7970  174.3360  145.2300 O   0  0  0  0  0  0  0  0  0  0  0  0
  190.9710  174.8200  146.2470 C   0  0  1  0  0  3  0  0  0  0  0  0
  190.9880  176.3350  146.1830 C   0  0  0  0  0  2  0  0  0  0  0  0
  189.7800  175.5730  145.6640 C   0  0  2  0  0  3  0  0  0  0  0  0
  187.5490  176.4090  146.5620 C   0  0  0  0  0  0  0  0  0  0  0  0
  186.7890  176.4930  147.5650 O   0  0  0  0  0  0  0  0  0  0  0  0
  188.7220  175.5960  146.6650 N   0  0  0  0  0  2  0  0  0  0  0  0
  187.2630  177.1290  145.3550 N   0  0  0  0  0  0  0  0  0  0  0  0
  186.2870  177.9750  145.2720 C   0  0  0  0  0  3  0  0  0  0  0  0
  185.3460  180.0020  144.2190 C   0  0  0  0  0  1  0  0  0  0  0  0
  186.0150  178.6680  143.9810 C   0  0  0  0  0  2  0  0  0  0  0  0
  193.0970  172.3740  145.6580 C   0  0  0  0  0  2  0  0  0  0  0  0
  193.0590  170.1660  144.1880 C   0  0  0  0  0  1  0  0  0  0  0  0
  192.4560  171.8770  144.0330 S   0  0  0  0  0  0  0  0  0  0  0  0
  1  6  1  0  0  0  0
  1 47  1  1  0  0  0
  2  4  2  0  0  0  0
  3  6  1  0  0  0  0
  4  1  1  0  0  0  0
  5  4  1  0  0  0  0
  5  3  1  0  0  0  0
  5 29  1  1  0  0  0
  7  9  2  0  0  0  0
  8  9  1  0  0  0  0
  9  1  1  0  0  0  0
 10  7  1  0  0  0  0
 11 10  1  0  0  0  0
 12 11  2  0  0  0  0
 13 12  1  0  0  0  0
 14 13  2  0  0  0  0
 14 16  1  0  0  0  0
 15 11  1  0  0  0  0
 16 15  2  0  0  0  0
 17 16  1  0  0  0  0
 17 18  1  0  0  0  0
 19 18  1  0  0  0  0
 20 19  1  0  0  0  0
 20 21  1  0  0  0  0
 22 23  1  0  0  0  0
 22 24  1  0  0  0  0
 23 25  1  1  0  0  0
 23 28  1  0  0  0  0
 24 21  1  6  0  0  0
 24 27  1  0  0  0  0
 28 26  1  6  0  0  0
 28 27  1  0  0  0  0
 30 29  1  0  0  0  0
 32 35  1  1  0  0  0
 32 33  1  0  0  0  0
 32 34  1  0  0  0  0
 33 30  1  6  0  0  0
 33 34  1  0  0  0  0
 34 31  1  6  0  0  0
 35 36  1  6  0  0  0
 38 39  1  0  0  0  0
 38 45  1  0  0  0  0
 39 40  1  0  0  0  0
 40 43  1  0  0  0  0
 40 37  2  0  0  0  0
 41 44  2  0  0  0  0
 43 35  1  0  0  0  0
 44 37  1  0  0  0  0
 45 42  2  0  0  0  0
 45 43  1  0  0  0  0
 46 39  2  0  0  0  0
 46 41  1  0  0  0  0
 47 48  1  0  0  0  0
 48 49  1  0  0  0  0
 50 49  1  0  0  0  0
 50 52  1  0  0  0  0
 52 53  1  0  0  0  0
 52 51  1  1  0  0  0
 53 65  1  6  0  0  0
 54 53  1  0  0  0  0
 55 54  1  6  0  0  0
 56 55  1  0  0  0  0
 57 56  1  0  0  0  0
 57 55  1  0  0  0  0
 57 60  1  1  0  0  0
 58 60  1  0  0  0  0
 58 59  2  0  0  0  0
 61 58  1  0  0  0  0
 62 61  2  0  0  0  0
 64 63  1  0  0  0  0
 64 62  1  0  0  0  0
 67 66  1  0  0  0  0
 67 65  1  0  0  0  0
M  END
>  <MODEL>
3

>  <REMARK>
 VINA RESULT:      -5.4      2.843      8.718
  Name = 
  27 active torsions:
  status: ('A' for Active; 'I' for Inactive)
    1  A    between atoms: N_1  and  C_20
    2  A    between atoms: C_2  and  C_42
    3  A    between atoms: C_2  and  S_61
    4  A    between atoms: O_3  and  C_19
    5  A    between atoms: O_3  and  C_42
    6  A    between atoms: C_6  and  C_22
    7  A    between atoms: C_6  and  C_60
    8  A    between atoms: C_7  and  O_48
    9  A    between atoms: O_11  and  C_37
   10  A    between atoms: O_11  and  C_67
   11  A    between atoms: C_14  and  O_48
   12  A    between atoms: C_15  and  S_21
   13  A    between atoms: C_15  and  C_50
   14  A    between atoms: C_17  and  C_67
   15  A    between atoms: S_21  and  C_22
   16  A    between atoms: N_26  and  C_49
   17  A    between atoms: N_26  and  C_55
   18  A    between atoms: N_28  and  C_53
   19  A    between atoms: O_32  and  C_63
   20  A    between atoms: O_32  and  C_64
   21  A    between atoms: N_35  and  C_47
   22  A    between atoms: C_37  and  C_63
   23  A    between atoms: C_39  and  C_47
   24  A    between atoms: C_40  and  C_42
   25  A    between atoms: C_40  and  C_50
   26  A    between atoms: C_45  and  C_66
   27  A    between atoms: C_49  and  C_54
                            x       y       z     vdW  Elec       q    Type
                         _______ _______ _______ _____ _____    ______ ____

>  <TORSDO>
F 27

$$$$
=
 OpenBabel11042416583D

 67 73  0  0  1  0  0  0  0  0999 V2000
  190.0790  172.0630  141.4310 C   0  0  2  0  0  0  0  0  0  0  0  0
  187.6800  172.2710  141.1230 O   0  0  0  0  0  0  0  0  0  0  0  0
  190.5960  174.1590  140.6630 C   0  0  0  0  0  2  0  0  0  0  0  0
  188.8060  172.7600  141.0520 C   0  0  0  0  0  0  0  0  0  0  0  0
  189.0880  174.0880  140.5050 C   0  0  1  0  0  3  0  0  0  0  0  0
  191.0550  173.0870  141.4670 O   0  0  0  0  0  0  0  0  0  0  0  0
  189.9560  171.0080  139.1960 C   0  0  0  0  0  3  0  0  0  0  0  0
  191.4070  169.9080  140.8330 C   0  0  0  0  0  1  0  0  0  0  0  0
  190.4900  171.0150  140.4140 C   0  0  0  0  0  0  0  0  0  0  0  0
  190.2570  170.0300  138.2450 O   0  0  0  0  0  0  0  0  0  0  0  0
  190.7960  170.3690  137.0040 C   0  0  0  0  0  0  0  0  0  0  0  0
  189.9850  170.7930  135.9390 C   0  0  0  0  0  3  0  0  0  0  0  0
  190.5460  171.1170  134.7020 C   0  0  0  0  0  3  0  0  0  0  0  0
  191.9200  171.0180  134.5170 C   0  0  0  0  0  3  0  0  0  0  0  0
  192.1770  170.2890  136.8150 C   0  0  0  0  0  3  0  0  0  0  0  0
  192.7440  170.5930  135.5700 C   0  0  0  0  0  0  0  0  0  0  0  0
  194.1340  170.4880  135.4070 O   0  0  0  0  0  0  0  0  0  0  0  0
  194.8820  169.4060  135.9510 C   0  0  0  0  0  2  0  0  0  0  0  0
  196.3750  169.7150  135.9270 C   0  0  0  0  0  2  0  0  0  0  0  0
  196.6130  171.0870  135.7670 O   0  0  0  0  0  0  0  0  0  0  0  0
  197.0960  171.4970  137.0170 C   0  0  0  0  0  2  0  0  0  0  0  0
  196.5980  173.7780  136.1680 C   0  0  0  0  0  2  0  0  0  0  0  0
  196.3260  175.0130  137.0050 C   0  0  2  0  0  3  0  0  0  0  0  0
  197.5940  172.9300  136.9410 C   0  0  1  0  0  3  0  0  0  0  0  0
  196.4890  176.1670  136.2280 O   0  0  0  0  0  1  0  0  0  0  0  0
  196.7380  175.4950  139.3010 O   0  0  0  0  0  1  0  0  0  0  0  0
  197.7080  173.5500  138.3240 C   0  0  0  0  0  2  0  0  0  0  0  0
  197.3310  175.0100  138.1380 C   0  0  1  0  0  3  0  0  0  0  0  0
  188.4170  175.1790  141.3290 C   0  0  0  0  0  2  0  0  0  0  0  0
  187.5470  175.9760  140.4780 N   0  0  0  0  0  2  0  0  0  0  0  0
  185.4330  177.3730  139.8880 O   0  0  0  0  0  1  0  0  0  0  0  0
  186.4790  177.5120  142.0260 C   0  0  2  0  0  3  0  0  0  0  0  0
  187.5870  177.3360  140.9880 C   0  0  2  0  0  3  0  0  0  0  0  0
  186.3330  178.1270  140.6450 C   0  0  1  0  0  3  0  0  0  0  0  0
  186.8150  178.6270  143.0150 C   0  0  1  0  0  3  0  0  0  0  0  0
  185.6530  179.5810  143.1570 C   0  0  0  0  0  1  0  0  0  0  0  0
  185.1560  178.4510  145.7360 C   0  0  0  0  0  3  0  0  0  0  0  0
  188.6800  177.3810  146.1520 C   0  0  0  0  0  2  0  0  0  0  0  0
  187.2780  177.6600  146.5950 C   0  0  0  0  0  0  0  0  0  0  0  0
  186.4970  178.1030  145.5460 C   0  0  0  0  0  0  0  0  0  0  0  0
  185.3860  177.8370  148.0770 C   0  0  0  0  0  3  0  0  0  0  0  0
  189.5150  177.7170  143.8870 O   0  0  0  0  0  0  0  0  0  0  0  0
  187.2290  178.1210  144.3290 N   0  0  0  0  0  0  0  0  0  0  0  0
  184.6000  178.3090  147.0130 C   0  0  0  0  0  3  0  0  0  0  0  0
  188.5460  177.7090  144.6870 C   0  0  0  0  0  0  0  0  0  0  0  0
  186.7400  177.5130  147.8730 C   0  0  0  0  0  3  0  0  0  0  0  0
  190.0190  171.4430  142.8390 C   0  0  0  0  0  2  0  0  0  0  0  0
  190.1690  172.6600  144.2060 S   0  0  0  0  0  0  0  0  0  0  0  0
  191.9790  172.6940  144.0950 C   0  0  0  0  0  2  0  0  0  0  0  0
  192.5510  171.2970  144.3310 C   0  0  0  0  0  2  0  0  0  0  0  0
  194.0440  172.5480  145.7870 O   0  0  0  0  0  1  0  0  0  0  0  0
  193.8560  171.3290  145.1340 C   0  0  2  0  0  3  0  0  0  0  0  0
  195.1000  170.8770  144.3300 C   0  0  1  0  0  3  0  0  0  0  0  0
  195.1090  171.4880  143.0680 O   0  0  0  0  0  0  0  0  0  0  0  0
  196.0260  172.5400  143.1280 C   0  0  1  0  0  3  0  0  0  0  0  0
  196.5070  172.8250  141.7190 C   0  0  0  0  0  2  0  0  0  0  0  0
  195.5030  173.7580  142.3740 C   0  0  2  0  0  3  0  0  0  0  0  0
  195.5640  175.9360  143.6900 C   0  0  0  0  0  0  0  0  0  0  0  0
  196.1960  177.0050  143.9190 O   0  0  0  0  0  0  0  0  0  0  0  0
  196.1910  174.9380  142.8800 N   0  0  0  0  0  2  0  0  0  0  0  0
  194.2410  175.7350  144.2050 N   0  0  0  0  0  0  0  0  0  0  0  0
  193.6750  176.5830  145.0020 C   0  0  0  0  0  3  0  0  0  0  0  0
  192.3810  175.4030  146.7440 C   0  0  0  0  0  1  0  0  0  0  0  0
  192.3110  176.3040  145.5340 C   0  0  0  0  0  2  0  0  0  0  0  0
  196.4150  171.1850  145.0490 C   0  0  0  0  0  2  0  0  0  0  0  0
  196.0200  168.5840  144.7010 C   0  0  0  0  0  1  0  0  0  0  0  0
  197.2530  169.6440  145.5220 S   0  0  0  0  0  0  0  0  0  0  0  0
  1  6  1  0  0  0  0
  1 47  1  1  0  0  0
  3  6  1  0  0  0  0
  4  2  2  0  0  0  0
  4  1  1  0  0  0  0
  5  3  1  0  0  0  0
  5  4  1  0  0  0  0
  5 29  1  1  0  0  0
  7  9  2  0  0  0  0
  9  8  1  0  0  0  0
  9  1  1  0  0  0  0
 10  7  1  0  0  0  0
 11 10  1  0  0  0  0
 12 11  2  0  0  0  0
 13 12  1  0  0  0  0
 14 13  2  0  0  0  0
 14 16  1  0  0  0  0
 15 11  1  0  0  0  0
 16 15  2  0  0  0  0
 17 16  1  0  0  0  0
 17 18  1  0  0  0  0
 19 18  1  0  0  0  0
 20 19  1  0  0  0  0
 20 21  1  0  0  0  0
 22 24  1  0  0  0  0
 22 23  1  0  0  0  0
 23 25  1  6  0  0  0
 23 28  1  0  0  0  0
 24 21  1  1  0  0  0
 24 27  1  0  0  0  0
 28 27  1  0  0  0  0
 28 26  1  1  0  0  0
 30 29  1  0  0  0  0
 32 35  1  1  0  0  0
 33 30  1  6  0  0  0
 33 32  1  0  0  0  0
 34 31  1  6  0  0  0
 34 33  1  0  0  0  0
 34 32  1  0  0  0  0
 35 36  1  1  0  0  0
 35 43  1  0  0  0  0
 37 44  1  0  0  0  0
 38 39  1  0  0  0  0
 39 46  2  0  0  0  0
 40 37  2  0  0  0  0
 40 39  1  0  0  0  0
 42 45  2  0  0  0  0
 43 45  1  0  0  0  0
 43 40  1  0  0  0  0
 44 41  2  0  0  0  0
 45 38  1  0  0  0  0
 46 41  1  0  0  0  0
 47 48  1  0  0  0  0
 49 48  1  0  0  0  0
 49 50  1  0  0  0  0
 50 52  1  0  0  0  0
 52 51  1  6  0  0  0
 53 65  1  1  0  0  0
 53 52  1  0  0  0  0
 54 53  1  0  0  0  0
 55 54  1  6  0  0  0
 56 57  1  0  0  0  0
 56 55  1  0  0  0  0
 57 60  1  1  0  0  0
 57 55  1  0  0  0  0
 58 59  2  0  0  0  0
 58 61  1  0  0  0  0
 60 58  1  0  0  0  0
 61 62  2  0  0  0  0
 62 64  1  0  0  0  0
 64 63  1  0  0  0  0
 65 67  1  0  0  0  0
 66 67  1  0  0  0  0
M  END
>  <MODEL>
4

>  <REMARK>
 VINA RESULT:      -5.3      2.403      9.143
  Name = 
  27 active torsions:
  status: ('A' for Active; 'I' for Inactive)
    1  A    between atoms: N_1  and  C_20
    2  A    between atoms: C_2  and  C_42
    3  A    between atoms: C_2  and  S_61
    4  A    between atoms: O_3  and  C_19
    5  A    between atoms: O_3  and  C_42
    6  A    between atoms: C_6  and  C_22
    7  A    between atoms: C_6  and  C_60
    8  A    between atoms: C_7  and  O_48
    9  A    between atoms: O_11  and  C_37
   10  A    between atoms: O_11  and  C_67
   11  A    between atoms: C_14  and  O_48
   12  A    between atoms: C_15  and  S_21
   13  A    between atoms: C_15  and  C_50
   14  A    between atoms: C_17  and  C_67
   15  A    between atoms: S_21  and  C_22
   16  A    between atoms: N_26  and  C_49
   17  A    between atoms: N_26  and  C_55
   18  A    between atoms: N_28  and  C_53
   19  A    between atoms: O_32  and  C_63
   20  A    between atoms: O_32  and  C_64
   21  A    between atoms: N_35  and  C_47
   22  A    between atoms: C_37  and  C_63
   23  A    between atoms: C_39  and  C_47
   24  A    between atoms: C_40  and  C_42
   25  A    between atoms: C_40  and  C_50
   26  A    between atoms: C_45  and  C_66
   27  A    between atoms: C_49  and  C_54
                            x       y       z     vdW  Elec       q    Type
                         _______ _______ _______ _____ _____    ______ ____

>  <TORSDO>
F 27

$$$$
=
 OpenBabel11042416583D

 67 73  0  0  1  0  0  0  0  0999 V2000
  188.7820  174.3030  142.1540 C   0  0  2  0  0  0  0  0  0  0  0  0
  191.0070  175.0960  141.5970 O   0  0  0  0  0  0  0  0  0  0  0  0
  188.5480  172.9550  140.3150 C   0  0  0  0  0  2  0  0  0  0  0  0
  190.0330  174.3940  141.3320 C   0  0  0  0  0  0  0  0  0  0  0  0
  189.9130  173.5890  140.1160 C   0  0  1  0  0  3  0  0  0  0  0  0
  188.0920  173.1800  141.6370 O   0  0  0  0  0  0  0  0  0  0  0  0
  186.7110  175.5840  142.5920 C   0  0  0  0  0  3  0  0  0  0  0  0
  188.3490  176.6490  141.1160 C   0  0  0  0  0  1  0  0  0  0  0  0
  187.9080  175.5350  142.0150 C   0  0  0  0  0  0  0  0  0  0  0  0
  185.8450  176.6710  142.4450 O   0  0  0  0  0  0  0  0  0  0  0  0
  185.3370  177.3480  143.5540 C   0  0  0  0  0  0  0  0  0  0  0  0
  184.4270  178.4080  143.4170 C   0  0  0  0  0  3  0  0  0  0  0  0
  183.9390  179.0780  144.5410 C   0  0  0  0  0  3  0  0  0  0  0  0
  184.3570  178.6950  145.8100 C   0  0  0  0  0  3  0  0  0  0  0  0
  185.7370  176.9580  144.8340 C   0  0  0  0  0  3  0  0  0  0  0  0
  185.2680  177.6390  145.9640 C   0  0  0  0  0  0  0  0  0  0  0  0
  185.7020  177.2350  147.2360 O   0  0  0  0  0  0  0  0  0  0  0  0
  187.0620  177.3390  147.6420 C   0  0  0  0  0  2  0  0  0  0  0  0
  187.8530  176.1120  147.2000 C   0  0  0  0  0  2  0  0  0  0  0  0
  188.9010  176.4590  146.3380 O   0  0  0  0  0  0  0  0  0  0  0  0
  190.0580  176.1620  147.0700 C   0  0  0  0  0  2  0  0  0  0  0  0
  191.4780  176.5130  145.0620 C   0  0  0  0  0  2  0  0  0  0  0  0
  192.9940  176.5830  145.0290 C   0  0  2  0  0  3  0  0  0  0  0  0
  191.1050  175.5370  146.1630 C   0  0  1  0  0  3  0  0  0  0  0  0
  193.4570  176.3820  143.7230 O   0  0  0  0  0  1  0  0  0  0  0  0
  194.6460  175.9110  146.6080 O   0  0  0  0  0  1  0  0  0  0  0  0
  192.3840  175.2320  146.9250 C   0  0  0  0  0  2  0  0  0  0  0  0
  193.5070  175.4810  145.9330 C   0  0  1  0  0  3  0  0  0  0  0  0
  190.9920  172.5140  140.0560 C   0  0  0  0  0  2  0  0  0  0  0  0
  190.4670  171.3250  139.4040 N   0  0  0  0  0  2  0  0  0  0  0  0
  189.9520  169.0650  138.2200 O   0  0  0  0  0  1  0  0  0  0  0  0
  190.4650  171.0430  136.9920 C   0  0  2  0  0  3  0  0  0  0  0  0
  191.3200  171.0590  138.2580 C   0  0  2  0  0  3  0  0  0  0  0  0
  190.9890  169.7420  137.5730 C   0  0  1  0  0  3  0  0  0  0  0  0
  191.2940  171.3850  135.7550 C   0  0  1  0  0  3  0  0  0  0  0  0
  190.6830  170.7700  134.5180 C   0  0  0  0  0  1  0  0  0  0  0  0
  193.9570  173.0220  135.1100 C   0  0  0  0  0  3  0  0  0  0  0  0
  191.0310  175.2310  135.6530 C   0  0  0  0  0  2  0  0  0  0  0  0
  192.4620  174.9120  135.3520 C   0  0  0  0  0  0  0  0  0  0  0  0
  192.6830  173.5490  135.3440 C   0  0  0  0  0  0  0  0  0  0  0  0
  194.7840  175.2910  134.8330 C   0  0  0  0  0  3  0  0  0  0  0  0
  189.3080  173.5740  136.1330 O   0  0  0  0  0  0  0  0  0  0  0  0
  191.4800  172.8290  135.5730 N   0  0  0  0  0  0  0  0  0  0  0  0
  195.0110  173.9050  134.8480 C   0  0  0  0  0  3  0  0  0  0  0  0
  190.4870  173.8310  135.7810 C   0  0  0  0  0  0  0  0  0  0  0  0
  193.5000  175.8050  135.0920 C   0  0  0  0  0  3  0  0  0  0  0  0
  189.0660  174.0170  143.6390 C   0  0  0  0  0  2  0  0  0  0  0  0
  189.7080  172.3290  143.9730 S   0  0  0  0  0  0  0  0  0  0  0  0
  191.4360  172.8730  143.8810 C   0  0  0  0  0  2  0  0  0  0  0  0
  192.3330  171.9280  144.6810 C   0  0  0  0  0  2  0  0  0  0  0  0
  192.8970  169.5750  144.4340 O   0  0  0  0  0  1  0  0  0  0  0  0
  192.9390  170.8230  143.8100 C   0  0  2  0  0  3  0  0  0  0  0  0
  194.3370  171.1660  143.2410 C   0  0  1  0  0  3  0  0  0  0  0  0
  194.2280  171.5820  141.9060 O   0  0  0  0  0  0  0  0  0  0  0  0
  195.0010  170.7080  141.1390 C   0  0  1  0  0  3  0  0  0  0  0  0
  194.0600  169.8140  140.3560 C   0  0  0  0  0  2  0  0  0  0  0  0
  194.7770  170.9520  139.6510 C   0  0  2  0  0  3  0  0  0  0  0  0
  196.6850  171.1910  137.9820 C   0  0  0  0  0  0  0  0  0  0  0  0
  197.5420  170.5910  137.2760 O   0  0  0  0  0  0  0  0  0  0  0  0
  195.9270  170.4280  138.9250 N   0  0  0  0  0  2  0  0  0  0  0  0
  196.4560  172.5990  137.8270 N   0  0  0  0  0  0  0  0  0  0  0  0
  195.7870  173.2880  138.6930 C   0  0  0  0  0  3  0  0  0  0  0  0
  194.1000  175.0930  138.7010 C   0  0  0  0  0  1  0  0  0  0  0  0
  195.5500  174.7410  138.4620 C   0  0  0  0  0  2  0  0  0  0  0  0
  195.0590  172.2450  144.0490 C   0  0  0  0  0  2  0  0  0  0  0  0
  196.6360  170.1460  144.4300 C   0  0  0  0  0  1  0  0  0  0  0  0
  195.9570  171.5000  145.4410 S   0  0  0  0  0  0  0  0  0  0  0  0
  1 47  1  1  0  0  0
  3  6  1  0  0  0  0
  4  2  2  0  0  0  0
  4  1  1  0  0  0  0
  5 29  1  1  0  0  0
  5  3  1  0  0  0  0
  5  4  1  0  0  0  0
  6  1  1  0  0  0  0
  8  9  1  0  0  0  0
  9  1  1  0  0  0  0
  9  7  2  0  0  0  0
 10  7  1  0  0  0  0
 10 11  1  0  0  0  0
 11 15  1  0  0  0  0
 12 11  2  0  0  0  0
 12 13  1  0  0  0  0
 13 14  2  0  0  0  0
 14 16  1  0  0  0  0
 15 16  2  0  0  0  0
 16 17  1  0  0  0  0
 17 18  1  0  0  0  0
 19 18  1  0  0  0  0
 20 21  1  0  0  0  0
 20 19  1  0  0  0  0
 22 24  1  0  0  0  0
 23 25  1  6  0  0  0
 23 22  1  0  0  0  0
 23 28  1  0  0  0  0
 24 27  1  0  0  0  0
 24 21  1  1  0  0  0
 28 26  1  1  0  0  0
 28 27  1  0  0  0  0
 30 29  1  0  0  0  0
 32 35  1  6  0  0  0
 32 34  1  0  0  0  0
 32 33  1  0  0  0  0
 33 30  1  1  0  0  0
 34 31  1  1  0  0  0
 34 33  1  0  0  0  0
 35 36  1  6  0  0  0
 37 40  1  0  0  0  0
 38 45  1  0  0  0  0
 39 38  1  0  0  0  0
 40 39  2  0  0  0  0
 40 43  1  0  0  0  0
 41 44  1  0  0  0  0
 41 46  2  0  0  0  0
 43 35  1  0  0  0  0
 43 45  1  0  0  0  0
 44 37  2  0  0  0  0
 45 42  2  0  0  0  0
 46 39  1  0  0  0  0
 47 48  1  0  0  0  0
 49 48  1  0  0  0  0
 49 50  1  0  0  0  0
 52 51  1  1  0  0  0
 52 50  1  0  0  0  0
 53 52  1  0  0  0  0
 53 65  1  1  0  0  0
 54 53  1  0  0  0  0
 55 54  1  1  0  0  0
 56 55  1  0  0  0  0
 57 60  1  6  0  0  0
 57 56  1  0  0  0  0
 57 55  1  0  0  0  0
 58 60  1  0  0  0  0
 59 58  2  0  0  0  0
 61 58  1  0  0  0  0
 61 62  2  0  0  0  0
 64 62  1  0  0  0  0
 64 63  1  0  0  0  0
 65 67  1  0  0  0  0
 66 67  1  0  0  0  0
M  END
>  <MODEL>
5

>  <REMARK>
 VINA RESULT:      -5.2      2.063      3.251
  Name = 
  27 active torsions:
  status: ('A' for Active; 'I' for Inactive)
    1  A    between atoms: N_1  and  C_20
    2  A    between atoms: C_2  and  C_42
    3  A    between atoms: C_2  and  S_61
    4  A    between atoms: O_3  and  C_19
    5  A    between atoms: O_3  and  C_42
    6  A    between atoms: C_6  and  C_22
    7  A    between atoms: C_6  and  C_60
    8  A    between atoms: C_7  and  O_48
    9  A    between atoms: O_11  and  C_37
   10  A    between atoms: O_11  and  C_67
   11  A    between atoms: C_14  and  O_48
   12  A    between atoms: C_15  and  S_21
   13  A    between atoms: C_15  and  C_50
   14  A    between atoms: C_17  and  C_67
   15  A    between atoms: S_21  and  C_22
   16  A    between atoms: N_26  and  C_49
   17  A    between atoms: N_26  and  C_55
   18  A    between atoms: N_28  and  C_53
   19  A    between atoms: O_32  and  C_63
   20  A    between atoms: O_32  and  C_64
   21  A    between atoms: N_35  and  C_47
   22  A    between atoms: C_37  and  C_63
   23  A    between atoms: C_39  and  C_47
   24  A    between atoms: C_40  and  C_42
   25  A    between atoms: C_40  and  C_50
   26  A    between atoms: C_45  and  C_66
   27  A    between atoms: C_49  and  C_54
                            x       y       z     vdW  Elec       q    Type
                         _______ _______ _______ _____ _____    ______ ____

>  <TORSDO>
F 27

$$$$
=
 OpenBabel11042416583D

 67 73  0  0  1  0  0  0  0  0999 V2000
  196.0020  171.6660  141.9250 C   0  0  2  0  0  0  0  0  0  0  0  0
  195.0820  172.3360  139.7820 O   0  0  0  0  0  0  0  0  0  0  0  0
  197.3420  170.0030  141.0940 C   0  0  0  0  0  2  0  0  0  0  0  0
  195.8340  171.6160  140.4350 C   0  0  0  0  0  0  0  0  0  0  0  0
  196.6320  170.5320  139.8610 C   0  0  1  0  0  3  0  0  0  0  0  0
  197.1560  170.8870  142.1840 O   0  0  0  0  0  0  0  0  0  0  0  0
  193.6070  171.0700  142.1110 C   0  0  0  0  0  3  0  0  0  0  0  0
  194.9980  170.5860  144.0680 C   0  0  0  0  0  1  0  0  0  0  0  0
  194.8180  171.0670  142.6610 C   0  0  0  0  0  0  0  0  0  0  0  0
  192.4760  170.5850  142.7730 O   0  0  0  0  0  0  0  0  0  0  0  0
  191.3940  171.4170  143.0620 C   0  0  0  0  0  0  0  0  0  0  0  0
  190.7610  171.3950  144.3150 C   0  0  0  0  0  3  0  0  0  0  0  0
  189.6740  172.2290  144.5790 C   0  0  0  0  0  3  0  0  0  0  0  0
  189.2080  173.0910  143.5930 C   0  0  0  0  0  3  0  0  0  0  0  0
  190.9300  172.2990  142.0830 C   0  0  0  0  0  3  0  0  0  0  0  0
  189.8270  173.1240  142.3350 C   0  0  0  0  0  0  0  0  0  0  0  0
  189.3740  173.9870  141.3250 O   0  0  0  0  0  0  0  0  0  0  0  0
  189.1870  175.3810  141.5460 C   0  0  0  0  0  2  0  0  0  0  0  0
  187.7980  175.8190  141.0940 C   0  0  0  0  0  2  0  0  0  0  0  0
  187.0270  176.2750  142.1710 O   0  0  0  0  0  0  0  0  0  0  0  0
  187.1450  177.6700  142.1090 C   0  0  0  0  0  2  0  0  0  0  0  0
  185.3660  178.7840  143.4370 C   0  0  0  0  0  2  0  0  0  0  0  0
  184.6910  178.2380  144.6810 C   0  0  2  0  0  3  0  0  0  0  0  0
  186.7990  178.2840  143.4550 C   0  0  1  0  0  3  0  0  0  0  0  0
  184.0560  179.2720  145.3790 O   0  0  0  0  0  1  0  0  0  0  0  0
  185.2990  176.4810  146.1710 O   0  0  0  0  0  1  0  0  0  0  0  0
  186.8850  177.2550  144.5700 C   0  0  0  0  0  2  0  0  0  0  0  0
  185.7780  177.6270  145.5410 C   0  0  1  0  0  3  0  0  0  0  0  0
  197.6450  171.0650  138.8550 C   0  0  0  0  0  2  0  0  0  0  0  0
  197.2390  170.6990  137.5070 N   0  0  0  0  0  2  0  0  0  0  0  0
  196.9230  170.4950  134.9320 O   0  0  0  0  0  1  0  0  0  0  0  0
  195.3140  171.5780  136.3180 C   0  0  2  0  0  3  0  0  0  0  0  0
  196.6940  171.8970  136.8890 C   0  0  2  0  0  3  0  0  0  0  0  0
  196.5030  171.7470  135.3880 C   0  0  1  0  0  3  0  0  0  0  0  0
  194.4480  172.8340  136.2220 C   0  0  1  0  0  3  0  0  0  0  0  0
  194.1270  173.1510  134.7800 C   0  0  0  0  0  1  0  0  0  0  0  0
  192.1390  170.6320  136.1340 C   0  0  0  0  0  3  0  0  0  0  0  0
  191.3680  173.4030  138.4710 C   0  0  0  0  0  2  0  0  0  0  0  0
  191.1180  172.1120  137.7570 C   0  0  0  0  0  0  0  0  0  0  0  0
  192.1690  171.7870  136.9230 C   0  0  0  0  0  0  0  0  0  0  0  0
  189.9700  170.1000  137.0940 C   0  0  0  0  0  3  0  0  0  0  0  0
  193.3430  174.8000  138.1680 O   0  0  0  0  0  0  0  0  0  0  0  0
  193.2170  172.7410  137.0140 N   0  0  0  0  0  0  0  0  0  0  0  0
  191.0310  169.7820  136.2300 C   0  0  0  0  0  3  0  0  0  0  0  0
  192.7350  173.7270  137.9250 C   0  0  0  0  0  0  0  0  0  0  0  0
  190.0070  171.2770  137.8640 C   0  0  0  0  0  3  0  0  0  0  0  0
  196.2880  173.0870  142.4430 C   0  0  0  0  0  2  0  0  0  0  0  0
  197.1730  174.1620  141.2470 S   0  0  0  0  0  0  0  0  0  0  0  0
  195.6850  175.1350  140.8860 C   0  0  0  0  0  2  0  0  0  0  0  0
  195.8620  176.5740  141.3710 C   0  0  0  0  0  2  0  0  0  0  0  0
  196.2510  176.8180  143.7600 O   0  0  0  0  0  1  0  0  0  0  0  0
  195.2700  176.7950  142.7670 C   0  0  2  0  0  3  0  0  0  0  0  0
  194.0900  175.8520  143.1060 C   0  0  1  0  0  3  0  0  0  0  0  0
  194.0640  175.5850  144.4830 O   0  0  0  0  0  0  0  0  0  0  0  0
  192.9280  174.8100  144.7290 C   0  0  1  0  0  3  0  0  0  0  0  0
  193.3410  173.6280  145.5820 C   0  0  0  0  0  2  0  0  0  0  0  0
  192.5980  174.7900  146.2170 C   0  0  2  0  0  3  0  0  0  0  0  0
  190.3100  175.0910  147.2910 C   0  0  0  0  0  0  0  0  0  0  0  0
  189.1640  174.5940  147.4730 O   0  0  0  0  0  0  0  0  0  0  0  0
  191.1910  174.4450  146.3680 N   0  0  0  0  0  2  0  0  0  0  0  0
  190.7310  176.2590  148.0100 N   0  0  0  0  0  0  0  0  0  0  0  0
  190.0670  177.3680  147.9730 C   0  0  0  0  0  3  0  0  0  0  0  0
  191.5810  178.1530  149.7600 C   0  0  0  0  0  1  0  0  0  0  0  0
  190.5720  178.5600  148.7120 C   0  0  0  0  0  2  0  0  0  0  0  0
  192.7350  176.4170  142.6760 C   0  0  0  0  0  2  0  0  0  0  0  0
  190.7010  177.3570  144.0970 C   0  0  0  0  0  1  0  0  0  0  0  0
  192.3570  177.9320  143.6050 S   0  0  0  0  0  0  0  0  0  0  0  0
  1  6  1  0  0  0  0
  1 47  1  1  0  0  0
  1  9  1  0  0  0  0
  2  4  2  0  0  0  0
  3  6  1  0  0  0  0
  4  1  1  0  0  0  0
  5 29  1  6  0  0  0
  5  4  1  0  0  0  0
  5  3  1  0  0  0  0
  7  9  2  0  0  0  0
  7 10  1  0  0  0  0
  9  8  1  0  0  0  0
 10 11  1  0  0  0  0
 11 12  1  0  0  0  0
 12 13  2  0  0  0  0
 14 13  1  0  0  0  0
 15 16  1  0  0  0  0
 15 11  2  0  0  0  0
 16 14  2  0  0  0  0
 17 18  1  0  0  0  0
 17 16  1  0  0  0  0
 19 18  1  0  0  0  0
 19 20  1  0  0  0  0
 21 20  1  0  0  0  0
 22 24  1  0  0  0  0
 22 23  1  0  0  0  0
 23 25  1  1  0  0  0
 23 28  1  0  0  0  0
 24 21  1  6  0  0  0
 24 27  1  0  0  0  0
 27 28  1  0  0  0  0
 28 26  1  6  0  0  0
 30 29  1  0  0  0  0
 32 35  1  6  0  0  0
 32 33  1  0  0  0  0
 33 30  1  1  0  0  0
 34 31  1  1  0  0  0
 34 32  1  0  0  0  0
 34 33  1  0  0  0  0
 35 36  1  6  0  0  0
 35 43  1  0  0  0  0
 37 44  2  0  0  0  0
 37 40  1  0  0  0  0
 39 46  1  0  0  0  0
 39 38  1  0  0  0  0
 40 43  1  0  0  0  0
 40 39  2  0  0  0  0
 41 46  2  0  0  0  0
 43 45  1  0  0  0  0
 44 41  1  0  0  0  0
 45 42  2  0  0  0  0
 45 38  1  0  0  0  0
 48 47  1  0  0  0  0
 49 48  1  0  0  0  0
 49 50  1  0  0  0  0
 50 52  1  0  0  0  0
 52 53  1  0  0  0  0
 52 51  1  1  0  0  0
 53 65  1  1  0  0  0
 53 54  1  0  0  0  0
 55 54  1  1  0  0  0
 55 56  1  0  0  0  0
 55 57  1  0  0  0  0
 56 57  1  0  0  0  0
 57 60  1  6  0  0  0
 58 59  2  0  0  0  0
 58 61  1  0  0  0  0
 60 58  1  0  0  0  0
 62 61  2  0  0  0  0
 62 64  1  0  0  0  0
 64 63  1  0  0  0  0
 65 67  1  0  0  0  0
 67 66  1  0  0  0  0
M  END
>  <MODEL>
6

>  <REMARK>
 VINA RESULT:      -5.0      2.591      6.333
  Name = 
  27 active torsions:
  status: ('A' for Active; 'I' for Inactive)
    1  A    between atoms: N_1  and  C_20
    2  A    between atoms: C_2  and  C_42
    3  A    between atoms: C_2  and  S_61
    4  A    between atoms: O_3  and  C_19
    5  A    between atoms: O_3  and  C_42
    6  A    between atoms: C_6  and  C_22
    7  A    between atoms: C_6  and  C_60
    8  A    between atoms: C_7  and  O_48
    9  A    between atoms: O_11  and  C_37
   10  A    between atoms: O_11  and  C_67
   11  A    between atoms: C_14  and  O_48
   12  A    between atoms: C_15  and  S_21
   13  A    between atoms: C_15  and  C_50
   14  A    between atoms: C_17  and  C_67
   15  A    between atoms: S_21  and  C_22
   16  A    between atoms: N_26  and  C_49
   17  A    between atoms: N_26  and  C_55
   18  A    between atoms: N_28  and  C_53
   19  A    between atoms: O_32  and  C_63
   20  A    between atoms: O_32  and  C_64
   21  A    between atoms: N_35  and  C_47
   22  A    between atoms: C_37  and  C_63
   23  A    between atoms: C_39  and  C_47
   24  A    between atoms: C_40  and  C_42
   25  A    between atoms: C_40  and  C_50
   26  A    between atoms: C_45  and  C_66
   27  A    between atoms: C_49  and  C_54
                            x       y       z     vdW  Elec       q    Type
                         _______ _______ _______ _____ _____    ______ ____

>  <TORSDO>
F 27

$$$$
=
 OpenBabel11042416583D

 67 73  0  0  1  0  0  0  0  0999 V2000
  195.4700  174.4760  141.6140 C   0  0  2  0  0  0  0  0  0  0  0  0
  193.3790  174.8680  140.4470 O   0  0  0  0  0  0  0  0  0  0  0  0
  195.2440  176.2150  143.0890 C   0  0  0  0  0  2  0  0  0  0  0  0
  194.1720  175.1720  141.3360 C   0  0  0  0  0  0  0  0  0  0  0  0
  194.0040  176.3260  142.2200 C   0  0  1  0  0  3  0  0  0  0  0  0
  195.8810  174.9680  142.8760 O   0  0  0  0  0  0  0  0  0  0  0  0
  196.2040  175.3810  139.4310 C   0  0  0  0  0  3  0  0  0  0  0  0
  197.9400  174.3410  140.8100 C   0  0  0  0  0  1  0  0  0  0  0  0
  196.5330  174.7990  140.5810 C   0  0  0  0  0  0  0  0  0  0  0  0
  197.1360  175.6450  138.4240 O   0  0  0  0  0  0  0  0  0  0  0  0
  196.9580  175.1620  137.1270 C   0  0  0  0  0  0  0  0  0  0  0  0
  196.4660  175.9800  136.0980 C   0  0  0  0  0  3  0  0  0  0  0  0
  196.2860  175.4730  134.8100 C   0  0  0  0  0  3  0  0  0  0  0  0
  196.5920  174.1440  134.5400 C   0  0  0  0  0  3  0  0  0  0  0  0
  197.2800  173.8340  136.8430 C   0  0  0  0  0  3  0  0  0  0  0  0
  197.0820  173.3130  135.5580 C   0  0  0  0  0  0  0  0  0  0  0  0
  197.4000  171.9690  135.3080 O   0  0  0  0  0  0  0  0  0  0  0  0
  196.5650  170.8990  135.7380 C   0  0  0  0  0  2  0  0  0  0  0  0
  195.5860  170.5010  134.6390 C   0  0  0  0  0  2  0  0  0  0  0  0
  194.2620  170.7730  135.0070 O   0  0  0  0  0  0  0  0  0  0  0  0
  193.7820  169.5470  135.4850 C   0  0  0  0  0  2  0  0  0  0  0  0
  191.7420  169.1640  136.8490 C   0  0  0  0  0  2  0  0  0  0  0  0
  190.7000  170.2010  137.2260 C   0  0  2  0  0  3  0  0  0  0  0  0
  192.2620  169.5400  135.4730 C   0  0  1  0  0  3  0  0  0  0  0  0
  189.5180  169.5710  137.6350 O   0  0  0  0  0  1  0  0  0  0  0  0
  190.2240  172.3630  136.3440 O   0  0  0  0  0  1  0  0  0  0  0  0
  191.7070  170.9200  135.1620 C   0  0  0  0  0  2  0  0  0  0  0  0
  190.4370  171.0340  135.9880 C   0  0  1  0  0  3  0  0  0  0  0  0
  192.7480  176.1920  143.0720 C   0  0  0  0  0  2  0  0  0  0  0  0
  191.6990  177.0480  142.5410 N   0  0  0  0  0  2  0  0  0  0  0  0
  190.3310  178.2920  144.3720 O   0  0  0  0  0  1  0  0  0  0  0  0
  189.2900  177.3410  142.4500 C   0  0  2  0  0  3  0  0  0  0  0  0
  190.4310  176.4100  142.8560 C   0  0  2  0  0  3  0  0  0  0  0  0
  189.6430  177.1650  143.9160 C   0  0  1  0  0  3  0  0  0  0  0  0
  188.0080  176.5590  142.1680 C   0  0  1  0  0  3  0  0  0  0  0  0
  187.9570  175.3000  143.0010 C   0  0  0  0  0  1  0  0  0  0  0  0
  186.4340  177.2150  144.8660 C   0  0  0  0  0  3  0  0  0  0  0  0
  184.7240  178.5560  141.8640 C   0  0  0  0  0  2  0  0  0  0  0  0
  184.9090  178.2960  143.3270 C   0  0  0  0  0  0  0  0  0  0  0  0
  186.0720  177.5930  143.5690 C   0  0  0  0  0  0  0  0  0  0  0  0
  184.4370  178.3280  145.6890 C   0  0  0  0  0  3  0  0  0  0  0  0
  186.2380  177.7920  140.1130 O   0  0  0  0  0  0  0  0  0  0  0  0
  186.7940  177.3580  142.3690 N   0  0  0  0  0  0  0  0  0  0  0  0
  185.6090  177.5930  145.9310 C   0  0  0  0  0  3  0  0  0  0  0  0
  185.9820  177.9140  141.3370 C   0  0  0  0  0  0  0  0  0  0  0  0
  184.0760  178.6810  144.3760 C   0  0  0  0  0  3  0  0  0  0  0  0
  195.3090  172.9510  141.7520 C   0  0  0  0  0  2  0  0  0  0  0  0
  194.7960  172.3950  143.4250 S   0  0  0  0  0  0  0  0  0  0  0  0
  193.8840  170.9710  142.7690 C   0  0  0  0  0  2  0  0  0  0  0  0
  193.9990  170.9240  141.2450 C   0  0  0  0  0  2  0  0  0  0  0  0
  192.6720  171.9340  139.4750 O   0  0  0  0  0  1  0  0  0  0  0  0
  192.6380  171.0490  140.5540 C   0  0  2  0  0  3  0  0  0  0  0  0
  191.4630  171.3250  141.5240 C   0  0  1  0  0  3  0  0  0  0  0  0
  191.6380  172.5640  142.1560 O   0  0  0  0  0  0  0  0  0  0  0  0
  190.6450  172.6710  143.1320 C   0  0  1  0  0  3  0  0  0  0  0  0
  191.0310  171.7790  144.2950 C   0  0  0  0  0  2  0  0  0  0  0  0
  191.2050  173.2840  144.4100 C   0  0  2  0  0  3  0  0  0  0  0  0
  190.2580  174.5680  146.3940 C   0  0  0  0  0  0  0  0  0  0  0  0
  189.2270  174.8500  147.0640 O   0  0  0  0  0  0  0  0  0  0  0  0
  190.0960  173.8460  145.1700 N   0  0  0  0  0  2  0  0  0  0  0  0
  191.5640  174.9380  146.8580 N   0  0  0  0  0  0  0  0  0  0  0  0
  192.0180  176.1450  146.7510 C   0  0  0  0  0  3  0  0  0  0  0  0
  194.1430  177.2670  146.1800 C   0  0  0  0  0  1  0  0  0  0  0  0
  193.3960  176.4630  147.2190 C   0  0  0  0  0  2  0  0  0  0  0  0
  190.1010  171.3010  140.8280 C   0  0  0  0  0  2  0  0  0  0  0  0
  188.0500  172.8700  140.2180 C   0  0  0  0  0  1  0  0  0  0  0  0
  189.8410  172.8360  139.8910 S   0  0  0  0  0  0  0  0  0  0  0  0
  1 47  1  1  0  0  0
  1  6  1  0  0  0  0
  2  4  2  0  0  0  0
  4  1  1  0  0  0  0
  4  5  1  0  0  0  0
  5 29  1  1  0  0  0
  5  3  1  0  0  0  0
  6  3  1  0  0  0  0
  7  9  2  0  0  0  0
  9  8  1  0  0  0  0
  9  1  1  0  0  0  0
 10  7  1  0  0  0  0
 11 10  1  0  0  0  0
 12 11  2  0  0  0  0
 13 12  1  0  0  0  0
 14 13  2  0  0  0  0
 14 16  1  0  0  0  0
 15 11  1  0  0  0  0
 16 15  2  0  0  0  0
 17 16  1  0  0  0  0
 17 18  1  0  0  0  0
 19 20  1  0  0  0  0
 19 18  1  0  0  0  0
 20 21  1  0  0  0  0
 22 23  1  0  0  0  0
 23 25  1  6  0  0  0
 24 21  1  1  0  0  0
 24 22  1  0  0  0  0
 27 24  1  0  0  0  0
 27 28  1  0  0  0  0
 28 26  1  1  0  0  0
 28 23  1  0  0  0  0
 30 29  1  0  0  0  0
 32 35  1  1  0  0  0
 32 33  1  0  0  0  0
 32 34  1  0  0  0  0
 33 30  1  6  0  0  0
 33 34  1  0  0  0  0
 34 31  1  6  0  0  0
 35 43  1  0  0  0  0
 35 36  1  1  0  0  0
 37 44  1  0  0  0  0
 38 39  1  0  0  0  0
 39 40  1  0  0  0  0
 39 46  2  0  0  0  0
 40 37  2  0  0  0  0
 41 44  2  0  0  0  0
 42 45  2  0  0  0  0
 43 40  1  0  0  0  0
 45 38  1  0  0  0  0
 45 43  1  0  0  0  0
 46 41  1  0  0  0  0
 47 48  1  0  0  0  0
 49 48  1  0  0  0  0
 50 49  1  0  0  0  0
 52 51  1  6  0  0  0
 52 50  1  0  0  0  0
 52 53  1  0  0  0  0
 53 65  1  6  0  0  0
 53 54  1  0  0  0  0
 55 54  1  6  0  0  0
 55 56  1  0  0  0  0
 55 57  1  0  0  0  0
 56 57  1  0  0  0  0
 57 60  1  1  0  0  0
 58 61  1  0  0  0  0
 58 59  2  0  0  0  0
 60 58  1  0  0  0  0
 62 61  2  0  0  0  0
 62 64  1  0  0  0  0
 63 64  1  0  0  0  0
 67 66  1  0  0  0  0
 67 65  1  0  0  0  0
M  END
>  <MODEL>
7

>  <REMARK>
 VINA RESULT:      -4.9      2.883      9.874
  Name = 
  27 active torsions:
  status: ('A' for Active; 'I' for Inactive)
    1  A    between atoms: N_1  and  C_20
    2  A    between atoms: C_2  and  C_42
    3  A    between atoms: C_2  and  S_61
    4  A    between atoms: O_3  and  C_19
    5  A    between atoms: O_3  and  C_42
    6  A    between atoms: C_6  and  C_22
    7  A    between atoms: C_6  and  C_60
    8  A    between atoms: C_7  and  O_48
    9  A    between atoms: O_11  and  C_37
   10  A    between atoms: O_11  and  C_67
   11  A    between atoms: C_14  and  O_48
   12  A    between atoms: C_15  and  S_21
   13  A    between atoms: C_15  and  C_50
   14  A    between atoms: C_17  and  C_67
   15  A    between atoms: S_21  and  C_22
   16  A    between atoms: N_26  and  C_49
   17  A    between atoms: N_26  and  C_55
   18  A    between atoms: N_28  and  C_53
   19  A    between atoms: O_32  and  C_63
   20  A    between atoms: O_32  and  C_64
   21  A    between atoms: N_35  and  C_47
   22  A    between atoms: C_37  and  C_63
   23  A    between atoms: C_39  and  C_47
   24  A    between atoms: C_40  and  C_42
   25  A    between atoms: C_40  and  C_50
   26  A    between atoms: C_45  and  C_66
   27  A    between atoms: C_49  and  C_54
                            x       y       z     vdW  Elec       q    Type
                         _______ _______ _______ _____ _____    ______ ____

>  <TORSDO>
F 27

$$$$
=
 OpenBabel11042416583D

 67 73  0  0  1  0  0  0  0  0999 V2000
  188.8280  173.9470  141.3440 C   0  0  2  0  0  0  0  0  0  0  0  0
  191.0660  174.7990  140.9520 O   0  0  0  0  0  0  0  0  0  0  0  0
  188.7670  172.5900  139.4990 C   0  0  0  0  0  2  0  0  0  0  0  0
  190.1340  174.0700  140.6180 C   0  0  0  0  0  0  0  0  0  0  0  0
  190.1260  173.2600  139.4000 C   0  0  1  0  0  3  0  0  0  0  0  0
  188.2090  172.8050  140.7830 O   0  0  0  0  0  0  0  0  0  0  0  0
  187.2030  175.6370  142.1380 C   0  0  0  0  0  3  0  0  0  0  0  0
  187.7810  175.7250  139.7600 C   0  0  0  0  0  1  0  0  0  0  0  0
  187.9340  175.1550  141.1370 C   0  0  0  0  0  0  0  0  0  0  0  0
  186.3210  176.7090  141.9820 O   0  0  0  0  0  0  0  0  0  0  0  0
  186.0570  177.5880  143.0320 C   0  0  0  0  0  0  0  0  0  0  0  0
  185.6940  178.9250  142.8000 C   0  0  0  0  0  3  0  0  0  0  0  0
  185.4450  179.7900  143.8670 C   0  0  0  0  0  3  0  0  0  0  0  0
  185.5580  179.3300  145.1730 C   0  0  0  0  0  3  0  0  0  0  0  0
  186.1510  177.1290  144.3480 C   0  0  0  0  0  3  0  0  0  0  0  0
  185.9220  177.9980  145.4220 C   0  0  0  0  0  0  0  0  0  0  0  0
  186.0400  177.5110  146.7330 O   0  0  0  0  0  0  0  0  0  0  0  0
  187.3030  177.3410  147.3690 C   0  0  0  0  0  2  0  0  0  0  0  0
  187.8280  175.9260  147.1580 C   0  0  0  0  0  2  0  0  0  0  0  0
  188.8410  175.8910  146.1910 O   0  0  0  0  0  0  0  0  0  0  0  0
  189.9690  176.3860  146.8590 C   0  0  0  0  0  2  0  0  0  0  0  0
  191.7700  176.2160  145.1580 C   0  0  0  0  0  2  0  0  0  0  0  0
  191.6510  176.5410  143.6810 C   0  0  2  0  0  3  0  0  0  0  0  0
  190.8460  177.1680  145.8960 C   0  0  1  0  0  3  0  0  0  0  0  0
  192.9220  176.7220  143.1220 O   0  0  0  0  0  1  0  0  0  0  0  0
  190.0240  177.7780  142.4560 O   0  0  0  0  0  1  0  0  0  0  0  0
  190.0130  177.8710  144.8380 C   0  0  0  0  0  2  0  0  0  0  0  0
  190.8540  177.8250  143.5730 C   0  0  1  0  0  3  0  0  0  0  0  0
  191.2350  172.2150  139.4240 C   0  0  0  0  0  2  0  0  0  0  0  0
  190.6830  170.9040  139.1210 N   0  0  0  0  0  2  0  0  0  0  0  0
  189.6920  168.6840  138.1930 O   0  0  0  0  0  1  0  0  0  0  0  0
  190.2820  170.4960  136.7610 C   0  0  2  0  0  3  0  0  0  0  0  0
  191.3110  170.4540  137.8900 C   0  0  2  0  0  3  0  0  0  0  0  0
  190.7030  169.1650  137.3580 C   0  0  1  0  0  3  0  0  0  0  0  0
  190.9570  170.6460  135.3980 C   0  0  1  0  0  3  0  0  0  0  0  0
  190.1660  171.5800  134.5130 C   0  0  0  0  0  1  0  0  0  0  0  0
  192.1270  173.5320  136.0950 C   0  0  0  0  0  3  0  0  0  0  0  0
  194.7820  171.0960  135.2280 C   0  0  0  0  0  2  0  0  0  0  0  0
  194.2330  172.4270  135.6370 C   0  0  0  0  0  0  0  0  0  0  0  0
  192.8570  172.3900  135.7490 C   0  0  0  0  0  0  0  0  0  0  0  0
  194.2220  174.7520  136.2710 C   0  0  0  0  0  3  0  0  0  0  0  0
  193.4340  169.1210  134.7550 O   0  0  0  0  0  0  0  0  0  0  0  0
  192.3520  171.0880  135.4960 N   0  0  0  0  0  0  0  0  0  0  0  0
  192.8210  174.7180  136.3620 C   0  0  0  0  0  3  0  0  0  0  0  0
  193.4990  170.3090  135.1610 C   0  0  0  0  0  0  0  0  0  0  0  0
  194.9400  173.5990  135.9010 C   0  0  0  0  0  3  0  0  0  0  0  0
  189.0090  173.6710  142.8480 C   0  0  0  0  0  2  0  0  0  0  0  0
  189.3710  171.9180  143.2560 S   0  0  0  0  0  0  0  0  0  0  0  0
  191.1570  172.2180  143.3540 C   0  0  0  0  0  2  0  0  0  0  0  0
  191.8200  171.1830  144.2630 C   0  0  0  0  0  2  0  0  0  0  0  0
  193.0050  169.0600  144.2000 O   0  0  0  0  0  1  0  0  0  0  0  0
  192.7380  170.2310  143.4890 C   0  0  2  0  0  3  0  0  0  0  0  0
  194.0160  170.9040  142.9330 C   0  0  1  0  0  3  0  0  0  0  0  0
  193.7450  171.5150  141.7000 O   0  0  0  0  0  0  0  0  0  0  0  0
  194.9040  171.4150  140.9280 C   0  0  1  0  0  3  0  0  0  0  0  0
  194.5510  170.6960  139.6410 C   0  0  0  0  0  2  0  0  0  0  0  0
  194.7600  172.2000  139.6290 C   0  0  2  0  0  3  0  0  0  0  0  0
  196.7930  173.7180  139.4160 C   0  0  0  0  0  0  0  0  0  0  0  0
  197.8590  173.9590  138.7860 O   0  0  0  0  0  0  0  0  0  0  0  0
  196.0940  172.5030  139.1290 N   0  0  0  0  0  2  0  0  0  0  0  0
  196.2760  174.6490  140.3780 N   0  0  0  0  0  0  0  0  0  0  0  0
  196.6630  175.8830  140.4190 C   0  0  0  0  0  3  0  0  0  0  0  0
  196.5330  176.3430  142.8430 C   0  0  0  0  0  1  0  0  0  0  0  0
  196.1180  176.7960  141.4630 C   0  0  0  0  0  2  0  0  0  0  0  0
  194.6060  171.9410  143.8900 C   0  0  0  0  0  2  0  0  0  0  0  0
  195.7210  170.5540  145.8590 C   0  0  0  0  0  1  0  0  0  0  0  0
  196.2870  171.4620  144.3850 S   0  0  0  0  0  0  0  0  0  0  0  0
  1 47  1  1  0  0  0
  3  6  1  0  0  0  0
  4  2  2  0  0  0  0
  4  1  1  0  0  0  0
  5 29  1  1  0  0  0
  5  3  1  0  0  0  0
  5  4  1  0  0  0  0
  6  1  1  0  0  0  0
  8  9  1  0  0  0  0
  9  1  1  0  0  0  0
  9  7  2  0  0  0  0
 10  7  1  0  0  0  0
 10 11  1  0  0  0  0
 11 15  1  0  0  0  0
 12 11  2  0  0  0  0
 12 13  1  0  0  0  0
 13 14  2  0  0  0  0
 14 16  1  0  0  0  0
 15 16  2  0  0  0  0
 16 17  1  0  0  0  0
 17 18  1  0  0  0  0
 19 18  1  0  0  0  0
 20 21  1  0  0  0  0
 20 19  1  0  0  0  0
 22 24  1  0  0  0  0
 23 25  1  1  0  0  0
 23 22  1  0  0  0  0
 24 21  1  1  0  0  0
 27 24  1  0  0  0  0
 28 26  1  6  0  0  0
 28 23  1  0  0  0  0
 28 27  1  0  0  0  0
 30 29  1  0  0  0  0
 32 35  1  6  0  0  0
 32 34  1  0  0  0  0
 32 33  1  0  0  0  0
 33 30  1  1  0  0  0
 34 33  1  0  0  0  0
 34 31  1  1  0  0  0
 35 36  1  6  0  0  0
 35 43  1  0  0  0  0
 37 44  1  0  0  0  0
 38 39  1  0  0  0  0
 39 40  1  0  0  0  0
 39 46  2  0  0  0  0
 40 37  2  0  0  0  0
 41 44  2  0  0  0  0
 42 45  2  0  0  0  0
 43 40  1  0  0  0  0
 45 38  1  0  0  0  0
 45 43  1  0  0  0  0
 46 41  1  0  0  0  0
 47 48  1  0  0  0  0
 48 49  1  0  0  0  0
 49 50  1  0  0  0  0
 52 51  1  1  0  0  0
 52 50  1  0  0  0  0
 53 52  1  0  0  0  0
 53 65  1  1  0  0  0
 54 53  1  0  0  0  0
 55 54  1  1  0  0  0
 56 55  1  0  0  0  0
 57 60  1  6  0  0  0
 57 56  1  0  0  0  0
 57 55  1  0  0  0  0
 58 61  1  0  0  0  0
 59 58  2  0  0  0  0
 60 58  1  0  0  0  0
 61 62  2  0  0  0  0
 62 64  1  0  0  0  0
 64 63  1  0  0  0  0
 65 67  1  0  0  0  0
 67 66  1  0  0  0  0
M  END
>  <MODEL>
8

>  <REMARK>
 VINA RESULT:      -4.9      1.799      2.926
  Name = 
  27 active torsions:
  status: ('A' for Active; 'I' for Inactive)
    1  A    between atoms: N_1  and  C_20
    2  A    between atoms: C_2  and  C_42
    3  A    between atoms: C_2  and  S_61
    4  A    between atoms: O_3  and  C_19
    5  A    between atoms: O_3  and  C_42
    6  A    between atoms: C_6  and  C_22
    7  A    between atoms: C_6  and  C_60
    8  A    between atoms: C_7  and  O_48
    9  A    between atoms: O_11  and  C_37
   10  A    between atoms: O_11  and  C_67
   11  A    between atoms: C_14  and  O_48
   12  A    between atoms: C_15  and  S_21
   13  A    between atoms: C_15  and  C_50
   14  A    between atoms: C_17  and  C_67
   15  A    between atoms: S_21  and  C_22
   16  A    between atoms: N_26  and  C_49
   17  A    between atoms: N_26  and  C_55
   18  A    between atoms: N_28  and  C_53
   19  A    between atoms: O_32  and  C_63
   20  A    between atoms: O_32  and  C_64
   21  A    between atoms: N_35  and  C_47
   22  A    between atoms: C_37  and  C_63
   23  A    between atoms: C_39  and  C_47
   24  A    between atoms: C_40  and  C_42
   25  A    between atoms: C_40  and  C_50
   26  A    between atoms: C_45  and  C_66
   27  A    between atoms: C_49  and  C_54
                            x       y       z     vdW  Elec       q    Type
                         _______ _______ _______ _____ _____    ______ ____

>  <TORSDO>
F 27

$$$$
=
 OpenBabel11042416583D

 67 73  0  0  1  0  0  0  0  0999 V2000
  195.0630  174.0010  142.7670 C   0  0  2  0  0  0  0  0  0  0  0  0
  192.6910  173.6180  142.4290 O   0  0  0  0  0  0  0  0  0  0  0  0
  195.0030  176.2470  142.3190 C   0  0  0  0  0  2  0  0  0  0  0  0
  193.6480  174.3890  142.4580 C   0  0  0  0  0  0  0  0  0  0  0  0
  193.5650  175.8090  142.1130 C   0  0  1  0  0  3  0  0  0  0  0  0
  195.7370  175.2290  142.9740 O   0  0  0  0  0  0  0  0  0  0  0  0
  195.0110  172.8760  140.5640 C   0  0  0  0  0  3  0  0  0  0  0  0
  197.1530  172.8360  141.7480 C   0  0  0  0  0  1  0  0  0  0  0  0
  195.7220  173.2550  141.6220 C   0  0  0  0  0  0  0  0  0  0  0  0
  195.5570  172.1350  139.5120 O   0  0  0  0  0  0  0  0  0  0  0  0
  195.8180  172.7210  138.2730 C   0  0  0  0  0  0  0  0  0  0  0  0
  196.9300  172.3480  137.5010 C   0  0  0  0  0  3  0  0  0  0  0  0
  197.1770  172.9550  136.2690 C   0  0  0  0  0  3  0  0  0  0  0  0
  196.3170  173.9410  135.7970 C   0  0  0  0  0  3  0  0  0  0  0  0
  194.9500  173.7000  137.7840 C   0  0  0  0  0  3  0  0  0  0  0  0
  195.2040  174.3270  136.5580 C   0  0  0  0  0  0  0  0  0  0  0  0
  194.3220  175.3180  136.1010 O   0  0  0  0  0  0  0  0  0  0  0  0
  193.1000  175.6150  136.7700 C   0  0  0  0  0  2  0  0  0  0  0  0
  191.9090  175.0780  135.9830 C   0  0  0  0  0  2  0  0  0  0  0  0
  192.3010  174.0980  135.0620 O   0  0  0  0  0  0  0  0  0  0  0  0
  191.2180  173.2100  135.0270 C   0  0  0  0  0  2  0  0  0  0  0  0
  192.8770  171.5410  135.8230 C   0  0  0  0  0  2  0  0  0  0  0  0
  192.5770  170.2540  136.5680 C   0  0  2  0  0  3  0  0  0  0  0  0
  191.7170  171.7830  134.8730 C   0  0  1  0  0  3  0  0  0  0  0  0
  193.6750  169.3880  136.4970 O   0  0  0  0  0  1  0  0  0  0  0  0
  190.5610  169.0160  136.8450 O   0  0  0  0  0  1  0  0  0  0  0  0
  190.6380  170.7780  135.2430 C   0  0  0  0  0  2  0  0  0  0  0  0
  191.3780  169.6210  135.8930 C   0  0  1  0  0  3  0  0  0  0  0  0
  192.6410  176.5560  143.0680 C   0  0  0  0  0  2  0  0  0  0  0  0
  191.5100  177.1010  142.3340 N   0  0  0  0  0  2  0  0  0  0  0  0
  189.7180  178.4720  143.6310 O   0  0  0  0  0  1  0  0  0  0  0  0
  189.1210  176.8620  141.9770 C   0  0  2  0  0  3  0  0  0  0  0  0
  190.3440  176.3220  142.7160 C   0  0  2  0  0  3  0  0  0  0  0  0
  189.3030  177.1490  143.4570 C   0  0  1  0  0  3  0  0  0  0  0  0
  188.0430  175.7900  141.8250 C   0  0  1  0  0  3  0  0  0  0  0  0
  186.7130  176.2950  142.3310 C   0  0  0  0  0  1  0  0  0  0  0  0
  189.3310  173.2040  140.4670 C   0  0  0  0  0  3  0  0  0  0  0  0
  187.4340  175.2780  138.0520 C   0  0  0  0  0  2  0  0  0  0  0  0
  188.2670  174.1150  138.4920 C   0  0  0  0  0  0  0  0  0  0  0  0
  188.5420  174.1760  139.8430 C   0  0  0  0  0  0  0  0  0  0  0  0
  189.5160  172.0600  138.3300 C   0  0  0  0  0  3  0  0  0  0  0  0
  186.7000  177.0920  139.5060 O   0  0  0  0  0  0  0  0  0  0  0  0
  187.9160  175.2970  140.4490 N   0  0  0  0  0  0  0  0  0  0  0  0
  189.8130  172.1370  139.7010 C   0  0  0  0  0  3  0  0  0  0  0  0
  187.2660  175.9770  139.3770 C   0  0  0  0  0  0  0  0  0  0  0  0
  188.7400  173.0590  137.7140 C   0  0  0  0  0  3  0  0  0  0  0  0
  195.1860  173.1910  144.0700 C   0  0  0  0  0  2  0  0  0  0  0  0
  196.5920  173.6910  145.1400 S   0  0  0  0  0  0  0  0  0  0  0  0
  195.5820  174.8890  146.0560 C   0  0  0  0  0  2  0  0  0  0  0  0
  194.1220  174.4400  146.0840 C   0  0  0  0  0  2  0  0  0  0  0  0
  193.5230  176.4010  147.3910 O   0  0  0  0  0  1  0  0  0  0  0  0
  193.1560  175.6100  146.3020 C   0  0  2  0  0  3  0  0  0  0  0  0
  191.6640  175.1970  146.3310 C   0  0  1  0  0  3  0  0  0  0  0  0
  190.8530  176.2920  145.9990 O   0  0  0  0  0  0  0  0  0  0  0  0
  189.9240  176.4420  147.0310 C   0  0  1  0  0  3  0  0  0  0  0  0
  189.5620  177.9100  147.1280 C   0  0  0  0  0  2  0  0  0  0  0  0
  188.5880  176.9360  146.4890 C   0  0  2  0  0  3  0  0  0  0  0  0
  186.2910  177.2610  147.5390 C   0  0  0  0  0  0  0  0  0  0  0  0
  185.5410  177.0020  148.5210 O   0  0  0  0  0  0  0  0  0  0  0  0
  187.5490  176.5860  147.4490 N   0  0  0  0  0  2  0  0  0  0  0  0
  185.9060  178.2250  146.5490 N   0  0  0  0  0  0  0  0  0  0  0  0
  184.8910  178.0450  145.7680 C   0  0  0  0  0  3  0  0  0  0  0  0
  185.7980  179.4890  143.9820 C   0  0  0  0  0  1  0  0  0  0  0  0
  184.5590  179.0660  144.7350 C   0  0  0  0  0  2  0  0  0  0  0  0
  191.3520  174.0330  145.3900 C   0  0  0  0  0  2  0  0  0  0  0  0
  189.5200  172.6120  144.0990 C   0  0  0  0  0  1  0  0  0  0  0  0
  189.7100  173.3460  145.7550 S   0  0  0  0  0  0  0  0  0  0  0  0
  1  6  1  0  0  0  0
  1 47  1  1  0  0  0
  2  4  2  0  0  0  0
  3  6  1  0  0  0  0
  4  1  1  0  0  0  0
  5  3  1  0  0  0  0
  5  4  1  0  0  0  0
  5 29  1  1  0  0  0
  7  9  2  0  0  0  0
  9  8  1  0  0  0  0
  9  1  1  0  0  0  0
 10  7  1  0  0  0  0
 11 10  1  0  0  0  0
 12 11  2  0  0  0  0
 13 12  1  0  0  0  0
 14 13  2  0  0  0  0
 14 16  1  0  0  0  0
 15 11  1  0  0  0  0
 16 15  2  0  0  0  0
 17 16  1  0  0  0  0
 17 18  1  0  0  0  0
 19 18  1  0  0  0  0
 20 19  1  0  0  0  0
 21 20  1  0  0  0  0
 22 23  1  0  0  0  0
 23 25  1  6  0  0  0
 24 21  1  1  0  0  0
 24 27  1  0  0  0  0
 24 22  1  0  0  0  0
 27 28  1  0  0  0  0
 28 23  1  0  0  0  0
 28 26  1  1  0  0  0
 30 29  1  0  0  0  0
 32 35  1  1  0  0  0
 32 33  1  0  0  0  0
 32 34  1  0  0  0  0
 33 30  1  6  0  0  0
 33 34  1  0  0  0  0
 34 31  1  6  0  0  0
 35 36  1  6  0  0  0
 38 39  1  0  0  0  0
 38 45  1  0  0  0  0
 39 40  2  0  0  0  0
 40 43  1  0  0  0  0
 40 37  1  0  0  0  0
 41 44  1  0  0  0  0
 43 35  1  0  0  0  0
 44 37  2  0  0  0  0
 45 42  2  0  0  0  0
 45 43  1  0  0  0  0
 46 41  2  0  0  0  0
 46 39  1  0  0  0  0
 47 48  1  0  0  0  0
 48 49  1  0  0  0  0
 49 50  1  0  0  0  0
 50 52  1  0  0  0  0
 52 53  1  0  0  0  0
 52 51  1  1  0  0  0
 53 65  1  6  0  0  0
 54 53  1  0  0  0  0
 55 54  1  6  0  0  0
 55 56  1  0  0  0  0
 57 55  1  0  0  0  0
 57 56  1  0  0  0  0
 57 60  1  1  0  0  0
 58 59  2  0  0  0  0
 60 58  1  0  0  0  0
 61 58  1  0  0  0  0
 62 61  2  0  0  0  0
 63 64  1  0  0  0  0
 64 62  1  0  0  0  0
 65 67  1  0  0  0  0
 66 67  1  0  0  0  0
M  END
>  <MODEL>
9

>  <REMARK>
 VINA RESULT:      -4.8      2.875      9.253
  Name = 
  27 active torsions:
  status: ('A' for Active; 'I' for Inactive)
    1  A    between atoms: N_1  and  C_20
    2  A    between atoms: C_2  and  C_42
    3  A    between atoms: C_2  and  S_61
    4  A    between atoms: O_3  and  C_19
    5  A    between atoms: O_3  and  C_42
    6  A    between atoms: C_6  and  C_22
    7  A    between atoms: C_6  and  C_60
    8  A    between atoms: C_7  and  O_48
    9  A    between atoms: O_11  and  C_37
   10  A    between atoms: O_11  and  C_67
   11  A    between atoms: C_14  and  O_48
   12  A    between atoms: C_15  and  S_21
   13  A    between atoms: C_15  and  C_50
   14  A    between atoms: C_17  and  C_67
   15  A    between atoms: S_21  and  C_22
   16  A    between atoms: N_26  and  C_49
   17  A    between atoms: N_26  and  C_55
   18  A    between atoms: N_28  and  C_53
   19  A    between atoms: O_32  and  C_63
   20  A    between atoms: O_32  and  C_64
   21  A    between atoms: N_35  and  C_47
   22  A    between atoms: C_37  and  C_63
   23  A    between atoms: C_39  and  C_47
   24  A    between atoms: C_40  and  C_42
   25  A    between atoms: C_40  and  C_50
   26  A    between atoms: C_45  and  C_66
   27  A    between atoms: C_49  and  C_54
                            x       y       z     vdW  Elec       q    Type
                         _______ _______ _______ _____ _____    ______ ____

>  <TORSDO>
F 27

$$$$
