=
 OpenBabel11042414023D

 31 35  0  0  1  0  0  0  0  0999 V2000
  188.8130  173.6410  140.1580 C   0  0  0  0  0  0  0  0  0  0  0  0
  190.2820  174.9200  142.1900 C   0  0  0  0  0  0  0  0  0  0  0  0
  190.6560  173.6710  141.6770 C   0  0  0  0  0  0  0  0  0  0  0  0
  188.0690  173.0000  139.1270 N   0  0  0  0  0  1  0  0  0  0  0  0
  189.9500  173.0560  140.6980 C   0  0  0  0  0  0  0  0  0  0  0  0
  189.1140  175.5080  141.6280 C   0  0  0  0  0  0  0  0  0  0  0  0
  191.6100  171.8450  141.1820 C   0  0  0  0  0  3  0  0  0  0  0  0
  191.7230  172.9240  142.0000 N   0  0  0  0  0  2  0  0  0  0  0  0
  190.5270  171.8930  140.3630 N   0  0  0  0  0  0  0  0  0  0  0  0
  188.4220  174.8550  140.6400 N   0  0  0  0  0  0  0  0  0  0  0  0
  189.9290  175.1430  146.7710 C   0  0  0  0  0  0  0  0  0  0  0  0
  191.0760  175.5780  143.2500 C   0  0  0  0  0  0  0  0  0  0  0  0
  191.9290  176.4720  146.5180 N   0  0  0  0  0  0  0  0  0  0  0  0
  190.8580  175.5430  144.6080 C   0  0  0  0  0  0  0  0  0  0  0  0
  188.9030  174.5370  147.6560 C   0  0  0  0  0  1  0  0  0  0  0  0
  191.8520  176.2830  145.1770 C   0  0  0  0  0  0  0  0  0  0  0  0
  190.9800  175.9080  147.3240 C   0  0  0  0  0  3  0  0  0  0  0  0
  192.2210  176.3540  143.0700 C   0  0  0  0  0  3  0  0  0  0  0  0
  192.6970  176.7910  144.2640 N   0  0  0  0  0  0  0  0  0  0  0  0
  189.8590  174.9560  145.3800 C   0  0  0  0  0  2  0  0  0  0  0  0
  188.4800  177.0850  142.2030 S   0  0  0  0  0  0  0  0  0  0  0  0
  187.0720  177.0390  141.0430 C   0  0  0  0  0  2  0  0  0  0  0  0
  185.0840  178.3530  140.7460 O   0  0  0  0  0  1  0  0  0  0  0  0
  185.7920  177.5810  141.6690 C   0  0  2  0  0  3  0  0  0  0  0  0
  186.1000  178.3950  142.9190 C   0  0  0  0  0  2  0  0  0  0  0  0
  184.7100  179.2100  144.6110 C   0  0  0  0  0  2  0  0  0  0  0  0
  185.2400  177.9820  144.0160 N   0  0  0  0  0  0  0  0  0  0  0  0
  183.8080  178.8710  145.7090 N   0  0  0  0  0  2  0  0  0  0  0  0
  184.5610  178.1300  146.7170 C   0  0  0  0  0  2  0  0  0  0  0  0
  185.2260  176.9130  146.0810 C   0  0  0  0  0  2  0  0  0  0  0  0
  186.0660  177.3620  144.9730 N   0  0  0  0  0  2  0  0  0  0  0  0
  1 10  2  0  0  0  0
  1  5  1  0  0  0  0
  2 12  1  0  0  0  0
  3  8  1  0  0  0  0
  3  2  1  0  0  0  0
  4  1  1  0  0  0  0
  5  3  2  0  0  0  0
  6  2  2  0  0  0  0
  6 21  1  0  0  0  0
  7  8  1  0  0  0  0
  9  5  1  0  0  0  0
  9  7  2  0  0  0  0
 10  6  1  0  0  0  0
 11 17  2  0  0  0  0
 11 15  1  0  0  0  0
 12 14  2  0  0  0  0
 13 17  1  0  0  0  0
 14 16  1  0  0  0  0
 14 20  1  0  0  0  0
 16 13  2  0  0  0  0
 18 12  1  0  0  0  0
 18 19  2  0  0  0  0
 19 16  1  0  0  0  0
 20 11  1  0  0  0  0
 22 24  1  0  0  0  0
 22 21  1  0  0  0  0
 24 23  1  6  0  0  0
 24 25  1  0  0  0  0
 25 27  1  0  0  0  0
 26 28  1  0  0  0  0
 27 26  1  0  0  0  0
 27 31  1  0  0  0  0
 28 29  1  0  0  0  0
 30 29  1  0  0  0  0
 31 30  1  0  0  0  0
M  END
>  <MODEL>
1

>  <REMARK>
 VINA RESULT:      -7.2      0.000      0.000
  Name = 
  6 active torsions:
  status: ('A' for Active; 'I' for Inactive)
    1  A    between atoms: C_3  and  N_9
    2  A    between atoms: C_3  and  C_19
    3  A    between atoms: C_4  and  C_5
    4  A    between atoms: C_8  and  C_19
    5  A    between atoms: C_8  and  S_31
    6  A    between atoms: C_21  and  S_31
                            x       y       z     vdW  Elec       q    Type
                         _______ _______ _______ _____ _____    ______ ____

>  <TORSDO>
F 6

$$$$
=
 OpenBabel11042414023D

 31 35  0  0  1  0  0  0  0  0999 V2000
  188.9060  174.1510  141.2100 C   0  0  0  0  0  0  0  0  0  0  0  0
  189.8640  175.1520  143.6610 C   0  0  0  0  0  0  0  0  0  0  0  0
  189.7180  173.7790  143.4260 C   0  0  0  0  0  0  0  0  0  0  0  0
  188.4240  173.6500  139.9680 N   0  0  0  0  0  1  0  0  0  0  0  0
  189.2590  173.2960  142.2460 C   0  0  0  0  0  0  0  0  0  0  0  0
  189.4990  176.0170  142.5910 C   0  0  0  0  0  0  0  0  0  0  0  0
  189.7140  171.6610  143.5010 C   0  0  0  0  0  3  0  0  0  0  0  0
  190.0220  172.7580  144.2420 N   0  0  0  0  0  2  0  0  0  0  0  0
  189.2400  171.9570  142.2620 N   0  0  0  0  0  0  0  0  0  0  0  0
  189.0340  175.4940  141.4120 N   0  0  0  0  0  0  0  0  0  0  0  0
  194.0550  176.2190  145.2260 C   0  0  0  0  0  0  0  0  0  0  0  0
  190.3810  175.6540  144.9520 C   0  0  0  0  0  0  0  0  0  0  0  0
  192.8020  176.7540  147.2190 N   0  0  0  0  0  0  0  0  0  0  0  0
  191.6840  175.9510  145.2780 C   0  0  0  0  0  0  0  0  0  0  0  0
  195.3600  176.1380  144.5220 C   0  0  0  0  0  1  0  0  0  0  0  0
  191.6680  176.3890  146.5690 C   0  0  0  0  0  0  0  0  0  0  0  0
  193.9980  176.6770  146.5610 C   0  0  0  0  0  3  0  0  0  0  0  0
  189.6300  175.9400  146.0930 C   0  0  0  0  0  3  0  0  0  0  0  0
  190.4300  176.3920  147.0920 N   0  0  0  0  0  0  0  0  0  0  0  0
  192.8740  175.8410  144.5650 C   0  0  0  0  0  2  0  0  0  0  0  0
  189.5880  177.8020  142.7470 S   0  0  0  0  0  0  0  0  0  0  0  0
  188.0150  178.0450  141.8550 C   0  0  0  0  0  2  0  0  0  0  0  0
  185.9610  176.8360  142.1530 O   0  0  0  0  0  1  0  0  0  0  0  0
  186.8040  177.7800  142.7420 C   0  0  2  0  0  3  0  0  0  0  0  0
  186.0430  179.0680  143.0250 C   0  0  0  0  0  2  0  0  0  0  0  0
  186.5780  178.2290  145.1380 C   0  0  0  0  0  2  0  0  0  0  0  0
  185.6830  179.1450  144.4310 N   0  0  0  0  0  0  0  0  0  0  0  0
  186.2930  178.2750  146.5710 N   0  0  0  0  0  2  0  0  0  0  0  0
  184.9090  177.8600  146.7820 C   0  0  0  0  0  2  0  0  0  0  0  0
  183.9710  178.7280  145.9490 C   0  0  0  0  0  2  0  0  0  0  0  0
  184.3720  178.6410  144.5470 N   0  0  0  0  0  2  0  0  0  0  0  0
  1 10  2  0  0  0  0
  1  5  1  0  0  0  0
  2 12  1  0  0  0  0
  3  2  1  0  0  0  0
  3  8  1  0  0  0  0
  4  1  1  0  0  0  0
  5  9  1  0  0  0  0
  5  3  2  0  0  0  0
  6 21  1  0  0  0  0
  6  2  2  0  0  0  0
  7  8  1  0  0  0  0
  9  7  2  0  0  0  0
 10  6  1  0  0  0  0
 11 17  2  0  0  0  0
 12 14  2  0  0  0  0
 12 18  1  0  0  0  0
 14 16  1  0  0  0  0
 15 11  1  0  0  0  0
 16 19  1  0  0  0  0
 16 13  2  0  0  0  0
 17 13  1  0  0  0  0
 18 19  2  0  0  0  0
 20 11  1  0  0  0  0
 20 14  1  0  0  0  0
 22 24  1  0  0  0  0
 22 21  1  0  0  0  0
 24 23  1  6  0  0  0
 24 25  1  0  0  0  0
 25 27  1  0  0  0  0
 26 28  1  0  0  0  0
 27 31  1  0  0  0  0
 27 26  1  0  0  0  0
 28 29  1  0  0  0  0
 30 29  1  0  0  0  0
 31 30  1  0  0  0  0
M  END
>  <MODEL>
2

>  <REMARK>
 VINA RESULT:      -7.2      1.702      2.574
  Name = 
  6 active torsions:
  status: ('A' for Active; 'I' for Inactive)
    1  A    between atoms: C_3  and  N_9
    2  A    between atoms: C_3  and  C_19
    3  A    between atoms: C_4  and  C_5
    4  A    between atoms: C_8  and  C_19
    5  A    between atoms: C_8  and  S_31
    6  A    between atoms: C_21  and  S_31
                            x       y       z     vdW  Elec       q    Type
                         _______ _______ _______ _____ _____    ______ ____

>  <TORSDO>
F 6

$$$$
=
 OpenBabel11042414023D

 31 35  0  0  1  0  0  0  0  0999 V2000
  185.4020  178.3600  145.1870 C   0  0  0  0  0  0  0  0  0  0  0  0
  187.9670  177.6940  144.2360 C   0  0  0  0  0  0  0  0  0  0  0  0
  186.9050  177.9820  143.3680 C   0  0  0  0  0  0  0  0  0  0  0  0
  184.1080  178.7000  145.6730 N   0  0  0  0  0  1  0  0  0  0  0  0
  185.6710  178.3050  143.8260 C   0  0  0  0  0  0  0  0  0  0  0  0
  187.6780  177.7540  145.6280 C   0  0  0  0  0  0  0  0  0  0  0  0
  185.6400  178.3870  141.7160 C   0  0  0  0  0  3  0  0  0  0  0  0
  186.9150  178.0330  142.0280 N   0  0  0  0  0  0  0  0  0  0  0  0
  184.8440  178.5640  142.8030 N   0  0  0  0  0  0  0  0  0  0  0  0
  186.4160  178.0800  146.0550 N   0  0  0  0  0  2  0  0  0  0  0  0
  189.7710  173.9660  142.2340 C   0  0  0  0  0  0  0  0  0  0  0  0
  189.3080  177.3570  143.7130 C   0  0  0  0  0  0  0  0  0  0  0  0
  191.7390  175.3630  142.1890 N   0  0  0  0  0  0  0  0  0  0  0  0
  189.7070  176.1850  143.1120 C   0  0  0  0  0  0  0  0  0  0  0  0
  189.1180  172.6700  141.9220 C   0  0  0  0  0  1  0  0  0  0  0  0
  191.0210  176.3460  142.7880 C   0  0  0  0  0  0  0  0  0  0  0  0
  191.1290  174.1740  141.9050 C   0  0  0  0  0  3  0  0  0  0  0  0
  190.4330  178.1830  143.7160 C   0  0  0  0  0  3  0  0  0  0  0  0
  191.4910  177.5530  143.1450 N   0  0  0  0  0  0  0  0  0  0  0  0
  189.0380  174.9920  142.8560 C   0  0  0  0  0  2  0  0  0  0  0  0
  188.9170  177.3720  146.8680 S   0  0  0  0  0  0  0  0  0  0  0  0
  188.5850  175.5800  146.7710 C   0  0  0  0  0  2  0  0  0  0  0  0
  189.5330  173.4280  146.2840 O   0  0  0  0  0  1  0  0  0  0  0  0
  189.7820  174.8010  146.2380 C   0  0  2  0  0  3  0  0  0  0  0  0
  191.0440  175.1390  147.0200 C   0  0  0  0  0  2  0  0  0  0  0  0
  192.8730  174.3320  145.8110 C   0  0  0  0  0  2  0  0  0  0  0  0
  192.1080  175.5420  146.1150 N   0  0  0  0  0  0  0  0  0  0  0  0
  193.9490  174.6560  144.8770 N   0  0  0  0  0  2  0  0  0  0  0  0
  194.8280  175.6410  145.5040 C   0  0  0  0  0  2  0  0  0  0  0  0
  194.0190  176.8570  145.9420 C   0  0  0  0  0  2  0  0  0  0  0  0
  192.9500  176.4140  146.8350 N   0  0  0  0  0  2  0  0  0  0  0  0
  1  4  1  0  0  0  0
  1 10  1  0  0  0  0
  2  6  2  0  0  0  0
  3  5  1  0  0  0  0
  3  2  1  0  0  0  0
  5  1  2  0  0  0  0
  6 10  1  0  0  0  0
  6 21  1  0  0  0  0
  7  8  1  0  0  0  0
  7  9  2  0  0  0  0
  8  3  2  0  0  0  0
  9  5  1  0  0  0  0
 11 20  1  0  0  0  0
 12 18  1  0  0  0  0
 12  2  1  0  0  0  0
 13 16  2  0  0  0  0
 14 12  2  0  0  0  0
 15 11  1  0  0  0  0
 16 14  1  0  0  0  0
 16 19  1  0  0  0  0
 17 13  1  0  0  0  0
 17 11  2  0  0  0  0
 19 18  2  0  0  0  0
 20 14  1  0  0  0  0
 22 21  1  0  0  0  0
 24 23  1  1  0  0  0
 24 22  1  0  0  0  0
 24 25  1  0  0  0  0
 26 27  1  0  0  0  0
 27 31  1  0  0  0  0
 27 25  1  0  0  0  0
 28 29  1  0  0  0  0
 28 26  1  0  0  0  0
 29 30  1  0  0  0  0
 30 31  1  0  0  0  0
M  END
>  <MODEL>
3

>  <REMARK>
 VINA RESULT:      -7.2      2.634      6.778
  Name = 
  6 active torsions:
  status: ('A' for Active; 'I' for Inactive)
    1  A    between atoms: C_3  and  N_9
    2  A    between atoms: C_3  and  C_19
    3  A    between atoms: C_4  and  C_5
    4  A    between atoms: C_8  and  C_19
    5  A    between atoms: C_8  and  S_31
    6  A    between atoms: C_21  and  S_31
                            x       y       z     vdW  Elec       q    Type
                         _______ _______ _______ _____ _____    ______ ____

>  <TORSDO>
F 6

$$$$
=
 OpenBabel11042414023D

 31 35  0  0  1  0  0  0  0  0999 V2000
  191.0420  173.5350  142.4000 C   0  0  0  0  0  0  0  0  0  0  0  0
  189.2990  175.7440  142.5040 C   0  0  0  0  0  0  0  0  0  0  0  0
  188.8460  174.4540  142.1980 C   0  0  0  0  0  0  0  0  0  0  0  0
  191.9260  172.4210  142.3530 N   0  0  0  0  0  1  0  0  0  0  0  0
  189.6830  173.3900  142.1500 C   0  0  0  0  0  0  0  0  0  0  0  0
  190.6930  175.8790  142.7580 C   0  0  0  0  0  0  0  0  0  0  0  0
  187.7240  172.7120  141.7550 C   0  0  0  0  0  3  0  0  0  0  0  0
  187.5900  174.0490  141.9570 N   0  0  0  0  0  0  0  0  0  0  0  0
  189.0040  172.2700  141.8680 N   0  0  0  0  0  0  0  0  0  0  0  0
  191.5120  174.7800  142.6970 N   0  0  0  0  0  2  0  0  0  0  0  0
  186.4640  177.3850  145.7320 C   0  0  0  0  0  0  0  0  0  0  0  0
  188.3630  176.8870  142.5630 C   0  0  0  0  0  0  0  0  0  0  0  0
  186.0090  179.0210  144.0170 N   0  0  0  0  0  0  0  0  0  0  0  0
  187.5760  177.2750  143.6230 C   0  0  0  0  0  0  0  0  0  0  0  0
  186.2120  176.8660  147.1000 C   0  0  0  0  0  1  0  0  0  0  0  0
  186.8970  178.3840  143.2130 C   0  0  0  0  0  0  0  0  0  0  0  0
  185.7860  178.5360  145.2750 C   0  0  0  0  0  3  0  0  0  0  0  0
  188.1110  177.8090  141.5460 C   0  0  0  0  0  3  0  0  0  0  0  0
  187.2010  178.7320  141.9510 N   0  0  0  0  0  0  0  0  0  0  0  0
  187.3790  176.7320  144.8890 C   0  0  0  0  0  2  0  0  0  0  0  0
  191.4380  177.4690  143.1230 S   0  0  0  0  0  0  0  0  0  0  0  0
  192.9940  176.7060  143.6950 C   0  0  0  0  0  2  0  0  0  0  0  0
  194.6360  177.3570  145.3220 O   0  0  0  0  0  1  0  0  0  0  0  0
  193.2900  177.0270  145.1550 C   0  0  2  0  0  3  0  0  0  0  0  0
  192.9130  175.8600  146.0580 C   0  0  0  0  0  2  0  0  0  0  0  0
  191.0630  176.0860  147.4660 C   0  0  0  0  0  2  0  0  0  0  0  0
  191.4680  175.7080  146.1120 N   0  0  0  0  0  0  0  0  0  0  0  0
  189.6100  175.9860  147.5880 N   0  0  0  0  0  2  0  0  0  0  0  0
  189.2170  174.6020  147.3330 C   0  0  0  0  0  2  0  0  0  0  0  0
  189.7440  174.1530  145.9730 C   0  0  0  0  0  2  0  0  0  0  0  0
  191.1930  174.3350  145.9480 N   0  0  0  0  0  2  0  0  0  0  0  0
  1 10  1  0  0  0  0
  2 12  1  0  0  0  0
  2  6  2  0  0  0  0
  3  2  1  0  0  0  0
  4  1  1  0  0  0  0
  5  3  1  0  0  0  0
  5  1  2  0  0  0  0
  6 21  1  0  0  0  0
  7  9  2  0  0  0  0
  7  8  1  0  0  0  0
  8  3  2  0  0  0  0
  9  5  1  0  0  0  0
 10  6  1  0  0  0  0
 11 15  1  0  0  0  0
 12 14  2  0  0  0  0
 13 17  1  0  0  0  0
 14 20  1  0  0  0  0
 16 14  1  0  0  0  0
 16 13  2  0  0  0  0
 17 11  2  0  0  0  0
 18 19  2  0  0  0  0
 18 12  1  0  0  0  0
 19 16  1  0  0  0  0
 20 11  1  0  0  0  0
 21 22  1  0  0  0  0
 22 24  1  0  0  0  0
 24 23  1  6  0  0  0
 24 25  1  0  0  0  0
 25 27  1  0  0  0  0
 26 28  1  0  0  0  0
 27 26  1  0  0  0  0
 29 28  1  0  0  0  0
 30 29  1  0  0  0  0
 31 30  1  0  0  0  0
 31 27  1  0  0  0  0
M  END
>  <MODEL>
4

>  <REMARK>
 VINA RESULT:      -7.1      2.533      5.366
  Name = 
  6 active torsions:
  status: ('A' for Active; 'I' for Inactive)
    1  A    between atoms: C_3  and  N_9
    2  A    between atoms: C_3  and  C_19
    3  A    between atoms: C_4  and  C_5
    4  A    between atoms: C_8  and  C_19
    5  A    between atoms: C_8  and  S_31
    6  A    between atoms: C_21  and  S_31
                            x       y       z     vdW  Elec       q    Type
                         _______ _______ _______ _____ _____    ______ ____

>  <TORSDO>
F 6

$$$$
=
 OpenBabel11042414023D

 31 35  0  0  1  0  0  0  0  0999 V2000
  191.0740  173.5490  142.5570 C   0  0  0  0  0  0  0  0  0  0  0  0
  189.2800  175.7150  142.6720 C   0  0  0  0  0  0  0  0  0  0  0  0
  188.8640  174.4250  142.3180 C   0  0  0  0  0  0  0  0  0  0  0  0
  191.9850  172.4560  142.5040 N   0  0  0  0  0  1  0  0  0  0  0  0
  189.7270  173.3820  142.2650 C   0  0  0  0  0  0  0  0  0  0  0  0
  190.6620  175.8730  142.9700 C   0  0  0  0  0  0  0  0  0  0  0  0
  187.7960  172.6710  141.7960 C   0  0  0  0  0  3  0  0  0  0  0  0
  187.6250  173.9990  142.0300 N   0  0  0  0  0  0  0  0  0  0  0  0
  189.0820  172.2550  141.9330 N   0  0  0  0  0  0  0  0  0  0  0  0
  191.5080  174.7950  142.9010 N   0  0  0  0  0  2  0  0  0  0  0  0
  186.5240  177.3710  145.9610 C   0  0  0  0  0  0  0  0  0  0  0  0
  188.3160  176.8350  142.7370 C   0  0  0  0  0  0  0  0  0  0  0  0
  185.9630  178.9480  144.2210 N   0  0  0  0  0  0  0  0  0  0  0  0
  187.5600  177.2320  143.8150 C   0  0  0  0  0  0  0  0  0  0  0  0
  186.3370  176.8840  147.3510 C   0  0  0  0  0  1  0  0  0  0  0  0
  186.8360  178.3110  143.4020 C   0  0  0  0  0  0  0  0  0  0  0  0
  185.7990  178.4920  145.5000 C   0  0  0  0  0  3  0  0  0  0  0  0
  188.0020  177.7220  141.7060 C   0  0  0  0  0  3  0  0  0  0  0  0
  187.0840  178.6320  142.1200 N   0  0  0  0  0  0  0  0  0  0  0  0
  187.4240  176.7190  145.1010 C   0  0  0  0  0  2  0  0  0  0  0  0
  191.3600  177.4690  143.3990 S   0  0  0  0  0  0  0  0  0  0  0  0
  191.0830  177.2060  145.1840 C   0  0  0  0  0  2  0  0  0  0  0  0
  192.1660  176.5480  147.2240 O   0  0  0  0  0  1  0  0  0  0  0  0
  192.2200  176.4270  145.8340 C   0  0  2  0  0  3  0  0  0  0  0  0
  193.5710  176.8980  145.3130 C   0  0  0  0  0  2  0  0  0  0  0  0
  195.1490  175.3360  146.0410 C   0  0  0  0  0  2  0  0  0  0  0  0
  194.3700  175.7630  144.8780 N   0  0  0  0  0  0  0  0  0  0  0  0
  195.9590  174.1730  145.6860 N   0  0  0  0  0  2  0  0  0  0  0  0
  196.8670  174.5510  144.6060 C   0  0  0  0  0  2  0  0  0  0  0  0
  196.0740  175.1190  143.4330 C   0  0  0  0  0  2  0  0  0  0  0  0
  195.2720  176.2440  143.9080 N   0  0  0  0  0  2  0  0  0  0  0  0
  1 10  1  0  0  0  0
  2 12  1  0  0  0  0
  2  6  2  0  0  0  0
  3  2  1  0  0  0  0
  4  1  1  0  0  0  0
  5  3  1  0  0  0  0
  5  1  2  0  0  0  0
  6 21  1  0  0  0  0
  7  9  2  0  0  0  0
  7  8  1  0  0  0  0
  8  3  2  0  0  0  0
  9  5  1  0  0  0  0
 10  6  1  0  0  0  0
 11 15  1  0  0  0  0
 12 14  2  0  0  0  0
 13 17  1  0  0  0  0
 14 20  1  0  0  0  0
 16 14  1  0  0  0  0
 16 13  2  0  0  0  0
 17 11  2  0  0  0  0
 18 19  2  0  0  0  0
 18 12  1  0  0  0  0
 19 16  1  0  0  0  0
 20 11  1  0  0  0  0
 21 22  1  0  0  0  0
 22 24  1  0  0  0  0
 24 23  1  1  0  0  0
 25 24  1  0  0  0  0
 27 25  1  0  0  0  0
 27 26  1  0  0  0  0
 28 26  1  0  0  0  0
 29 28  1  0  0  0  0
 30 31  1  0  0  0  0
 30 29  1  0  0  0  0
 31 27  1  0  0  0  0
M  END
>  <MODEL>
5

>  <REMARK>
 VINA RESULT:      -7.0      2.858      6.658
  Name = 
  6 active torsions:
  status: ('A' for Active; 'I' for Inactive)
    1  A    between atoms: C_3  and  N_9
    2  A    between atoms: C_3  and  C_19
    3  A    between atoms: C_4  and  C_5
    4  A    between atoms: C_8  and  C_19
    5  A    between atoms: C_8  and  S_31
    6  A    between atoms: C_21  and  S_31
                            x       y       z     vdW  Elec       q    Type
                         _______ _______ _______ _____ _____    ______ ____

>  <TORSDO>
F 6

$$$$
=
 OpenBabel11042414023D

 31 35  0  0  1  0  0  0  0  0999 V2000
  185.3370  178.3750  144.4130 C   0  0  0  0  0  0  0  0  0  0  0  0
  188.0580  177.6520  144.4680 C   0  0  0  0  0  0  0  0  0  0  0  0
  187.3350  177.9130  145.6400 C   0  0  0  0  0  0  0  0  0  0  0  0
  183.9610  178.7360  144.3810 N   0  0  0  0  0  1  0  0  0  0  0  0
  186.0250  178.2590  145.6140 C   0  0  0  0  0  0  0  0  0  0  0  0
  187.3410  177.7740  143.2450 C   0  0  0  0  0  0  0  0  0  0  0  0
  186.6460  178.1570  147.6290 C   0  0  0  0  0  3  0  0  0  0  0  0
  187.7550  177.8350  146.9110 N   0  0  0  0  0  2  0  0  0  0  0  0
  185.5590  178.4250  146.8590 N   0  0  0  0  0  0  0  0  0  0  0  0
  186.0160  178.1300  143.2560 N   0  0  0  0  0  0  0  0  0  0  0  0
  190.2580  173.6340  144.8790 C   0  0  0  0  0  0  0  0  0  0  0  0
  189.4830  177.2630  144.5230 C   0  0  0  0  0  0  0  0  0  0  0  0
  192.1940  175.0690  144.7420 N   0  0  0  0  0  0  0  0  0  0  0  0
  190.0050  175.9950  144.6320 C   0  0  0  0  0  0  0  0  0  0  0  0
  189.6870  172.2700  145.0130 C   0  0  0  0  0  1  0  0  0  0  0  0
  191.3610  176.1350  144.6310 C   0  0  0  0  0  0  0  0  0  0  0  0
  191.6580  173.8180  144.8640 C   0  0  0  0  0  3  0  0  0  0  0  0
  190.5820  178.1210  144.4570 C   0  0  0  0  0  3  0  0  0  0  0  0
  191.7420  177.4190  144.5260 N   0  0  0  0  0  0  0  0  0  0  0  0
  189.4060  174.7460  144.7650 C   0  0  0  0  0  2  0  0  0  0  0  0
  188.1320  177.5130  141.6560 S   0  0  0  0  0  0  0  0  0  0  0  0
  187.5390  175.7910  141.5460 C   0  0  0  0  0  2  0  0  0  0  0  0
  188.0810  174.8300  139.4130 O   0  0  0  0  0  1  0  0  0  0  0  0
  188.4870  174.9050  140.7470 C   0  0  2  0  0  3  0  0  0  0  0  0
  188.5750  173.5120  141.3550 C   0  0  0  0  0  2  0  0  0  0  0  0
  190.8180  174.1650  141.3120 C   0  0  0  0  0  2  0  0  0  0  0  0
  189.9320  173.0010  141.2560 N   0  0  0  0  0  0  0  0  0  0  0  0
  192.2090  173.7240  141.2470 N   0  0  0  0  0  2  0  0  0  0  0  0
  192.4150  173.0190  139.9840 C   0  0  0  0  0  2  0  0  0  0  0  0
  191.4100  171.8780  139.8540 C   0  0  0  0  0  2  0  0  0  0  0  0
  190.0600  172.4240  139.9760 N   0  0  0  0  0  2  0  0  0  0  0  0
  1  5  1  0  0  0  0
  2 12  1  0  0  0  0
  2  3  1  0  0  0  0
  3  8  1  0  0  0  0
  4  1  1  0  0  0  0
  5  3  2  0  0  0  0
  5  9  1  0  0  0  0
  6 10  1  0  0  0  0
  6  2  2  0  0  0  0
  8  7  1  0  0  0  0
  9  7  2  0  0  0  0
 10  1  2  0  0  0  0
 11 15  1  0  0  0  0
 12 14  2  0  0  0  0
 13 17  1  0  0  0  0
 14 20  1  0  0  0  0
 16 14  1  0  0  0  0
 16 13  2  0  0  0  0
 17 11  2  0  0  0  0
 18 12  1  0  0  0  0
 18 19  2  0  0  0  0
 19 16  1  0  0  0  0
 20 11  1  0  0  0  0
 21  6  1  0  0  0  0
 22 21  1  0  0  0  0
 24 23  1  6  0  0  0
 24 25  1  0  0  0  0
 24 22  1  0  0  0  0
 27 26  1  0  0  0  0
 27 25  1  0  0  0  0
 28 26  1  0  0  0  0
 29 28  1  0  0  0  0
 30 31  1  0  0  0  0
 30 29  1  0  0  0  0
 31 27  1  0  0  0  0
M  END
>  <MODEL>
6

>  <REMARK>
 VINA RESULT:      -6.9      1.861      6.338
  Name = 
  6 active torsions:
  status: ('A' for Active; 'I' for Inactive)
    1  A    between atoms: C_3  and  N_9
    2  A    between atoms: C_3  and  C_19
    3  A    between atoms: C_4  and  C_5
    4  A    between atoms: C_8  and  C_19
    5  A    between atoms: C_8  and  S_31
    6  A    between atoms: C_21  and  S_31
                            x       y       z     vdW  Elec       q    Type
                         _______ _______ _______ _____ _____    ______ ____

>  <TORSDO>
F 6

$$$$
=
 OpenBabel11042414023D

 31 35  0  0  1  0  0  0  0  0999 V2000
  194.0470  176.8510  145.7670 C   0  0  0  0  0  0  0  0  0  0  0  0
  192.2540  174.9390  144.7410 C   0  0  0  0  0  0  0  0  0  0  0  0
  193.4280  175.2940  144.0640 C   0  0  0  0  0  0  0  0  0  0  0  0
  194.9530  177.8150  146.2920 N   0  0  0  0  0  1  0  0  0  0  0  0
  194.2920  176.2130  144.5590 C   0  0  0  0  0  0  0  0  0  0  0  0
  192.0150  175.6000  145.9780 C   0  0  0  0  0  0  0  0  0  0  0  0
  195.0760  175.4720  142.7430 C   0  0  0  0  0  3  0  0  0  0  0  0
  193.9050  174.8010  142.9120 N   0  0  0  0  0  0  0  0  0  0  0  0
  195.3470  176.3520  143.7430 N   0  0  0  0  0  0  0  0  0  0  0  0
  192.9100  176.5280  146.4470 N   0  0  0  0  0  2  0  0  0  0  0  0
  188.4510  175.1450  142.1620 C   0  0  0  0  0  0  0  0  0  0  0  0
  191.3320  173.9230  144.1880 C   0  0  0  0  0  0  0  0  0  0  0  0
  188.5820  172.7440  142.3830 N   0  0  0  0  0  0  0  0  0  0  0  0
  190.2220  174.1340  143.4030 C   0  0  0  0  0  0  0  0  0  0  0  0
  187.7540  176.3410  141.6260 C   0  0  0  0  0  1  0  0  0  0  0  0
  189.7040  172.9030  143.1300 C   0  0  0  0  0  0  0  0  0  0  0  0
  187.9490  173.8520  141.8930 C   0  0  0  0  0  3  0  0  0  0  0  0
  191.4270  172.5400  144.3470 C   0  0  0  0  0  3  0  0  0  0  0  0
  190.4170  171.9120  143.6930 N   0  0  0  0  0  0  0  0  0  0  0  0
  189.6120  175.2960  142.9390 C   0  0  0  0  0  2  0  0  0  0  0  0
  190.5370  175.2880  146.9470 S   0  0  0  0  0  0  0  0  0  0  0  0
  189.7870  176.8840  146.4760 C   0  0  0  0  0  2  0  0  0  0  0  0
  187.8480  175.6900  147.2380 O   0  0  0  0  0  1  0  0  0  0  0  0
  188.2730  176.8830  146.6500 C   0  0  2  0  0  3  0  0  0  0  0  0
  187.5710  177.0980  145.3170 C   0  0  0  0  0  2  0  0  0  0  0  0
  185.3130  177.4180  145.8240 C   0  0  0  0  0  2  0  0  0  0  0  0
  186.5420  178.1170  145.4460 N   0  0  0  0  0  0  0  0  0  0  0  0
  184.2340  178.3870  146.0010 N   0  0  0  0  0  2  0  0  0  0  0  0
  184.0240  179.0860  144.7360 C   0  0  0  0  0  2  0  0  0  0  0  0
  185.3320  179.7140  144.2640 C   0  0  0  0  0  2  0  0  0  0  0  0
  186.3460  178.6670  144.1630 N   0  0  0  0  0  2  0  0  0  0  0  0
  1  4  1  0  0  0  0
  1 10  1  0  0  0  0
  2  6  2  0  0  0  0
  3  5  1  0  0  0  0
  3  2  1  0  0  0  0
  5  1  2  0  0  0  0
  6 10  1  0  0  0  0
  6 21  1  0  0  0  0
  7  8  1  0  0  0  0
  7  9  2  0  0  0  0
  8  3  2  0  0  0  0
  9  5  1  0  0  0  0
 11 20  1  0  0  0  0
 12 18  1  0  0  0  0
 12  2  1  0  0  0  0
 13 16  2  0  0  0  0
 14 12  2  0  0  0  0
 15 11  1  0  0  0  0
 16 14  1  0  0  0  0
 16 19  1  0  0  0  0
 17 11  2  0  0  0  0
 17 13  1  0  0  0  0
 19 18  2  0  0  0  0
 20 14  1  0  0  0  0
 22 24  1  0  0  0  0
 22 21  1  0  0  0  0
 24 23  1  6  0  0  0
 25 27  1  0  0  0  0
 25 24  1  0  0  0  0
 26 28  1  0  0  0  0
 27 26  1  0  0  0  0
 29 28  1  0  0  0  0
 30 29  1  0  0  0  0
 31 30  1  0  0  0  0
 31 27  1  0  0  0  0
M  END
>  <MODEL>
7

>  <REMARK>
 VINA RESULT:      -6.9      2.529      5.263
  Name = 
  6 active torsions:
  status: ('A' for Active; 'I' for Inactive)
    1  A    between atoms: C_3  and  N_9
    2  A    between atoms: C_3  and  C_19
    3  A    between atoms: C_4  and  C_5
    4  A    between atoms: C_8  and  C_19
    5  A    between atoms: C_8  and  S_31
    6  A    between atoms: C_21  and  S_31
                            x       y       z     vdW  Elec       q    Type
                         _______ _______ _______ _____ _____    ______ ____

>  <TORSDO>
F 6

$$$$
=
 OpenBabel11042414023D

 31 35  0  0  1  0  0  0  0  0999 V2000
  191.5950  174.5330  141.6250 C   0  0  0  0  0  0  0  0  0  0  0  0
  189.9900  175.2390  143.8280 C   0  0  0  0  0  0  0  0  0  0  0  0
  189.4940  174.4780  142.7610 C   0  0  0  0  0  0  0  0  0  0  0  0
  192.4110  174.1750  140.5150 N   0  0  0  0  0  1  0  0  0  0  0  0
  190.2660  174.1360  141.7020 C   0  0  0  0  0  0  0  0  0  0  0  0
  191.3530  175.6390  143.7360 C   0  0  0  0  0  0  0  0  0  0  0  0
  188.3510  173.2900  141.4290 C   0  0  0  0  0  3  0  0  0  0  0  0
  188.2710  173.9460  142.6160 N   0  0  0  0  0  0  0  0  0  0  0  0
  189.5700  173.3850  140.8370 N   0  0  0  0  0  0  0  0  0  0  0  0
  192.1040  175.2790  142.6470 N   0  0  0  0  0  2  0  0  0  0  0  0
  186.5970  178.2760  144.4770 C   0  0  0  0  0  0  0  0  0  0  0  0
  189.1310  175.5880  144.9800 C   0  0  0  0  0  0  0  0  0  0  0  0
  186.6040  177.2970  146.6830 N   0  0  0  0  0  0  0  0  0  0  0  0
  188.1250  176.5250  145.0240 C   0  0  0  0  0  0  0  0  0  0  0  0
  186.0280  179.2550  143.5170 C   0  0  0  0  0  1  0  0  0  0  0  0
  187.6130  176.4800  146.2870 C   0  0  0  0  0  0  0  0  0  0  0  0
  186.0860  178.1940  145.7910 C   0  0  0  0  0  3  0  0  0  0  0  0
  189.1700  175.0120  146.2500 C   0  0  0  0  0  3  0  0  0  0  0  0
  188.2320  175.5690  147.0570 N   0  0  0  0  0  0  0  0  0  0  0  0
  187.6440  177.4270  144.0800 C   0  0  0  0  0  2  0  0  0  0  0  0
  192.1270  176.6520  144.9980 S   0  0  0  0  0  0  0  0  0  0  0  0
  193.0780  175.2450  145.6660 C   0  0  0  0  0  2  0  0  0  0  0  0
  194.5130  177.0740  146.2680 O   0  0  0  0  0  1  0  0  0  0  0  0
  194.4100  175.6810  146.2630 C   0  0  2  0  0  3  0  0  0  0  0  0
  195.5770  175.0650  145.5020 C   0  0  0  0  0  2  0  0  0  0  0  0
  195.6920  174.0960  143.3790 C   0  0  0  0  0  2  0  0  0  0  0  0
  195.4670  175.3600  144.0830 N   0  0  0  0  0  0  0  0  0  0  0  0
  195.5670  174.3100  141.9390 N   0  0  0  0  0  2  0  0  0  0  0  0
  196.5770  175.2810  141.5250 C   0  0  0  0  0  2  0  0  0  0  0  0
  196.4350  176.5620  142.3420 C   0  0  0  0  0  2  0  0  0  0  0  0
  196.5310  176.2260  143.7610 N   0  0  0  0  0  2  0  0  0  0  0  0
  1  5  2  0  0  0  0
  1 10  1  0  0  0  0
  2 12  1  0  0  0  0
  3  2  1  0  0  0  0
  4  1  1  0  0  0  0
  5  3  1  0  0  0  0
  6  2  2  0  0  0  0
  6 21  1  0  0  0  0
  7  8  1  0  0  0  0
  8  3  2  0  0  0  0
  9  7  2  0  0  0  0
  9  5  1  0  0  0  0
 10  6  1  0  0  0  0
 11 17  2  0  0  0  0
 12 14  2  0  0  0  0
 12 18  1  0  0  0  0
 14 16  1  0  0  0  0
 15 11  1  0  0  0  0
 16 13  2  0  0  0  0
 16 19  1  0  0  0  0
 17 13  1  0  0  0  0
 18 19  2  0  0  0  0
 20 11  1  0  0  0  0
 20 14  1  0  0  0  0
 21 22  1  0  0  0  0
 22 24  1  0  0  0  0
 24 23  1  6  0  0  0
 25 24  1  0  0  0  0
 26 27  1  0  0  0  0
 27 25  1  0  0  0  0
 28 26  1  0  0  0  0
 29 28  1  0  0  0  0
 29 30  1  0  0  0  0
 30 31  1  0  0  0  0
 31 27  1  0  0  0  0
M  END
>  <MODEL>
8

>  <REMARK>
 VINA RESULT:      -6.8      3.277      7.193
  Name = 
  6 active torsions:
  status: ('A' for Active; 'I' for Inactive)
    1  A    between atoms: C_3  and  N_9
    2  A    between atoms: C_3  and  C_19
    3  A    between atoms: C_4  and  C_5
    4  A    between atoms: C_8  and  C_19
    5  A    between atoms: C_8  and  S_31
    6  A    between atoms: C_21  and  S_31
                            x       y       z     vdW  Elec       q    Type
                         _______ _______ _______ _____ _____    ______ ____

>  <TORSDO>
F 6

$$$$
=
 OpenBabel11042414023D

 31 35  0  0  1  0  0  0  0  0999 V2000
  191.7960  174.4080  141.6410 C   0  0  0  0  0  0  0  0  0  0  0  0
  190.2940  174.9450  143.9600 C   0  0  0  0  0  0  0  0  0  0  0  0
  190.1230  173.7670  143.2210 C   0  0  0  0  0  0  0  0  0  0  0  0
  192.5610  174.1390  140.4710 N   0  0  0  0  0  1  0  0  0  0  0  0
  190.8480  173.5070  142.1060 C   0  0  0  0  0  0  0  0  0  0  0  0
  191.2690  175.8590  143.4730 C   0  0  0  0  0  0  0  0  0  0  0  0
  189.5730  171.8640  142.4690 C   0  0  0  0  0  3  0  0  0  0  0  0
  189.3080  172.7340  143.4800 N   0  0  0  0  0  0  0  0  0  0  0  0
  190.5200  172.3090  141.6030 N   0  0  0  0  0  0  0  0  0  0  0  0
  191.9810  175.5650  142.3380 N   0  0  0  0  0  2  0  0  0  0  0  0
  186.7780  177.7370  144.9610 C   0  0  0  0  0  0  0  0  0  0  0  0
  189.5010  175.2000  145.1820 C   0  0  0  0  0  0  0  0  0  0  0  0
  187.0050  176.6870  147.1230 N   0  0  0  0  0  0  0  0  0  0  0  0
  188.4460  176.0690  145.3330 C   0  0  0  0  0  0  0  0  0  0  0  0
  186.0830  178.7090  144.0810 C   0  0  0  0  0  1  0  0  0  0  0  0
  188.0300  175.9500  146.6260 C   0  0  0  0  0  0  0  0  0  0  0  0
  186.3700  177.5790  146.3040 C   0  0  0  0  0  3  0  0  0  0  0  0
  189.6670  174.5860  146.4240 C   0  0  0  0  0  3  0  0  0  0  0  0
  188.7570  175.0550  147.3160 N   0  0  0  0  0  0  0  0  0  0  0  0
  187.8430  176.9700  144.4590 C   0  0  0  0  0  2  0  0  0  0  0  0
  191.5790  177.4310  144.2810 S   0  0  0  0  0  0  0  0  0  0  0  0
  193.2600  176.9360  144.7900 C   0  0  0  0  0  2  0  0  0  0  0  0
  192.7710  176.3030  147.0540 O   0  0  0  0  0  1  0  0  0  0  0  0
  193.2410  175.8220  145.8310 C   0  0  2  0  0  3  0  0  0  0  0  0
  194.6250  175.2090  145.9970 C   0  0  0  0  0  2  0  0  0  0  0  0
  195.2220  173.9460  144.1250 C   0  0  0  0  0  2  0  0  0  0  0  0
  194.6460  173.8550  145.4670 N   0  0  0  0  0  0  0  0  0  0  0  0
  195.3020  172.6100  143.5370 N   0  0  0  0  0  2  0  0  0  0  0  0
  193.9520  172.0590  143.4490 C   0  0  0  0  0  2  0  0  0  0  0  0
  193.2910  172.0770  144.8240 C   0  0  0  0  0  2  0  0  0  0  0  0
  193.3040  173.4470  145.3330 N   0  0  0  0  0  2  0  0  0  0  0  0
  1  5  2  0  0  0  0
  1 10  1  0  0  0  0
  2 12  1  0  0  0  0
  3  8  2  0  0  0  0
  3  2  1  0  0  0  0
  4  1  1  0  0  0  0
  5  3  1  0  0  0  0
  6  2  2  0  0  0  0
  6 21  1  0  0  0  0
  7  8  1  0  0  0  0
  9  5  1  0  0  0  0
  9  7  2  0  0  0  0
 10  6  1  0  0  0  0
 11 17  2  0  0  0  0
 12 14  2  0  0  0  0
 12 18  1  0  0  0  0
 14 16  1  0  0  0  0
 15 11  1  0  0  0  0
 16 13  2  0  0  0  0
 16 19  1  0  0  0  0
 17 13  1  0  0  0  0
 18 19  2  0  0  0  0
 20 11  1  0  0  0  0
 20 14  1  0  0  0  0
 21 22  1  0  0  0  0
 22 24  1  0  0  0  0
 24 25  1  0  0  0  0
 24 23  1  1  0  0  0
 26 27  1  0  0  0  0
 27 25  1  0  0  0  0
 28 26  1  0  0  0  0
 29 28  1  0  0  0  0
 29 30  1  0  0  0  0
 30 31  1  0  0  0  0
 31 27  1  0  0  0  0
M  END
>  <MODEL>
9

>  <REMARK>
 VINA RESULT:      -6.8      3.048      6.556
  Name = 
  6 active torsions:
  status: ('A' for Active; 'I' for Inactive)
    1  A    between atoms: C_3  and  N_9
    2  A    between atoms: C_3  and  C_19
    3  A    between atoms: C_4  and  C_5
    4  A    between atoms: C_8  and  C_19
    5  A    between atoms: C_8  and  S_31
    6  A    between atoms: C_21  and  S_31
                            x       y       z     vdW  Elec       q    Type
                         _______ _______ _______ _____ _____    ______ ____

>  <TORSDO>
F 6

$$$$
