=
 OpenBabel11042417483D

 25 28  0  0  0  0  0  0  0  0999 V2000
  188.1800  174.8130  141.8550 C   0  0  0  0  0  0  0  0  0  0  0  0
  187.0820  175.1900  142.5370 N   0  0  0  0  0  0  0  0  0  0  0  0
  188.6520  176.6540  142.8810 C   0  0  0  0  0  0  0  0  0  0  0  0
  189.2190  175.7060  142.0470 C   0  0  0  0  0  3  0  0  0  0  0  0
  187.3710  176.3180  143.1640 N   0  0  0  0  0  0  0  0  0  0  0  0
  186.5180  176.8110  145.4600 C   0  0  0  0  0  3  0  0  0  0  0  0
  185.5690  177.8420  143.4010 C   0  0  0  0  0  3  0  0  0  0  0  0
  185.7810  177.2930  146.4550 C   0  0  0  0  0  2  0  0  0  0  0  0
  184.5500  178.6460  143.9970 N   0  0  0  0  0  0  0  0  0  0  0  0
  184.0520  178.4800  147.6130 F   0  0  0  0  0  0  0  0  0  0  0  0
  184.1150  178.7840  145.3480 C   0  0  0  0  0  3  0  0  0  0  0  0
  184.6310  178.1980  146.4220 C   0  0  0  0  0  0  0  0  0  0  0  0
  186.4300  177.0170  144.0040 C   0  0  0  0  0  0  0  0  0  0  0  0
  188.2640  173.6050  141.0340 C   0  0  0  0  0  3  0  0  0  0  0  0
  188.7200  173.6570  139.8270 N   0  0  0  0  0  2  0  0  0  0  0  0
  189.4140  177.7920  143.4860 C   0  0  0  0  0  2  0  0  0  0  0  0
  194.1720  176.7280  144.6090 O   0  0  0  0  0  0  0  0  0  0  0  0
  191.8380  177.2930  143.9140 C   0  0  0  0  0  3  0  0  0  0  0  0
  190.2110  176.8140  145.6650 C   0  0  0  0  0  3  0  0  0  0  0  0
  192.4880  176.3800  146.0290 C   0  0  0  0  0  0  0  0  0  0  0  0
  190.5060  177.2810  144.3640 C   0  0  0  0  0  0  0  0  0  0  0  0
  191.2100  176.3660  146.4830 N   0  0  0  0  0  0  0  0  0  0  0  0
  194.7540  176.1860  145.8050 C   0  0  0  0  0  3  0  0  0  0  0  0
  193.6360  175.9600  146.7370 N   0  0  0  0  0  0  0  0  0  0  0  0
  192.8090  176.8250  144.7930 C   0  0  0  0  0  0  0  0  0  0  0  0
  1  4  1  0  0  0  0
  1  2  2  0  0  0  0
  2  5  1  0  0  0  0
  3  5  1  0  0  0  0
  3 16  1  0  0  0  0
  4  3  2  0  0  0  0
  5 13  1  0  0  0  0
  6  8  1  0  0  0  0
  7  9  2  0  0  0  0
  7 13  1  0  0  0  0
  9 11  1  0  0  0  0
 11 12  2  0  0  0  0
 12  8  1  0  0  0  0
 12 10  1  0  0  0  0
 13  6  2  0  0  0  0
 14  1  1  0  0  0  0
 15 14  2  0  0  0  0
 16 21  1  0  0  0  0
 17 25  1  0  0  0  0
 17 23  1  0  0  0  0
 18 21  1  0  0  0  0
 18 25  2  0  0  0  0
 19 22  1  0  0  0  0
 20 22  2  0  0  0  0
 20 24  1  0  0  0  0
 21 19  2  0  0  0  0
 23 24  2  0  0  0  0
 25 20  1  0  0  0  0
M  END
>  <MODEL>
1

>  <REMARK>
 VINA RESULT:      -7.2      0.000      0.000
  Name = 
  4 active torsions:
  status: ('A' for Active; 'I' for Inactive)
    1  A    between atoms: C_1  and  C_4
    2  A    between atoms: C_7  and  C_14
    3  A    between atoms: C_7  and  C_15
    4  A    between atoms: N_19  and  C_24
                            x       y       z     vdW  Elec       q    Type
                         _______ _______ _______ _____ _____    ______ ____

>  <TORSDO>
F 4

$$$$
=
 OpenBabel11042417483D

 25 28  0  0  0  0  0  0  0  0999 V2000
  188.6110  174.0990  141.3010 C   0  0  0  0  0  0  0  0  0  0  0  0
  189.3430  173.8710  142.4070 N   0  0  0  0  0  0  0  0  0  0  0  0
  188.8200  175.9800  142.3420 C   0  0  0  0  0  0  0  0  0  0  0  0
  188.2570  175.4340  141.2020 C   0  0  0  0  0  3  0  0  0  0  0  0
  189.4700  175.0230  143.0460 N   0  0  0  0  0  0  0  0  0  0  0  0
  189.5280  174.7870  145.5320 C   0  0  0  0  0  3  0  0  0  0  0  0
  191.4680  175.5860  144.1910 C   0  0  0  0  0  3  0  0  0  0  0  0
  189.9400  174.8350  146.7940 C   0  0  0  0  0  2  0  0  0  0  0  0
  192.4040  175.8040  145.2490 N   0  0  0  0  0  0  0  0  0  0  0  0
  191.3310  175.2550  148.7000 F   0  0  0  0  0  0  0  0  0  0  0  0
  192.2810  175.6920  146.6660 C   0  0  0  0  0  3  0  0  0  0  0  0
  191.2180  175.2830  147.3500 C   0  0  0  0  0  0  0  0  0  0  0  0
  190.2040  175.1640  144.2790 C   0  0  0  0  0  0  0  0  0  0  0  0
  188.2530  173.0710  140.3240 C   0  0  0  0  0  3  0  0  0  0  0  0
  188.3220  173.3110  139.0570 N   0  0  0  0  0  2  0  0  0  0  0  0
  188.8210  177.4450  142.6490 C   0  0  0  0  0  2  0  0  0  0  0  0
  185.5040  177.7450  146.3830 O   0  0  0  0  0  0  0  0  0  0  0  0
  187.2410  177.5090  144.6010 C   0  0  0  0  0  3  0  0  0  0  0  0
  186.5920  178.6090  142.5250 C   0  0  0  0  0  3  0  0  0  0  0  0
  185.1540  178.6590  144.3780 C   0  0  0  0  0  0  0  0  0  0  0  0
  187.5260  177.8510  143.2670 C   0  0  0  0  0  0  0  0  0  0  0  0
  185.4120  179.0030  143.0920 N   0  0  0  0  0  0  0  0  0  0  0  0
  184.2180  178.3820  146.4450 C   0  0  0  0  0  3  0  0  0  0  0  0
  183.9950  178.9830  145.1190 N   0  0  0  0  0  0  0  0  0  0  0  0
  186.0250  177.9390  145.1210 C   0  0  0  0  0  0  0  0  0  0  0  0
  1  2  2  0  0  0  0
  2  5  1  0  0  0  0
  3 16  1  0  0  0  0
  3  5  1  0  0  0  0
  4  1  1  0  0  0  0
  4  3  2  0  0  0  0
  5 13  1  0  0  0  0
  6  8  1  0  0  0  0
  7 13  1  0  0  0  0
  7  9  2  0  0  0  0
  8 12  1  0  0  0  0
  9 11  1  0  0  0  0
 11 12  2  0  0  0  0
 12 10  1  0  0  0  0
 13  6  2  0  0  0  0
 14  1  1  0  0  0  0
 15 14  2  0  0  0  0
 16 21  1  0  0  0  0
 17 23  1  0  0  0  0
 18 25  2  0  0  0  0
 19 22  1  0  0  0  0
 19 21  2  0  0  0  0
 20 24  1  0  0  0  0
 20 25  1  0  0  0  0
 21 18  1  0  0  0  0
 22 20  2  0  0  0  0
 24 23  2  0  0  0  0
 25 17  1  0  0  0  0
M  END
>  <MODEL>
2

>  <REMARK>
 VINA RESULT:      -7.1      2.834      6.001
  Name = 
  4 active torsions:
  status: ('A' for Active; 'I' for Inactive)
    1  A    between atoms: C_1  and  C_4
    2  A    between atoms: C_7  and  C_14
    3  A    between atoms: C_7  and  C_15
    4  A    between atoms: N_19  and  C_24
                            x       y       z     vdW  Elec       q    Type
                         _______ _______ _______ _____ _____    ______ ____

>  <TORSDO>
F 4

$$$$
=
 OpenBabel11042417483D

 25 28  0  0  0  0  0  0  0  0999 V2000
  183.7570  178.1540  141.3380 C   0  0  0  0  0  0  0  0  0  0  0  0
  183.7640  178.0340  142.6790 N   0  0  0  0  0  0  0  0  0  0  0  0
  185.8060  178.3340  141.9960 C   0  0  0  0  0  0  0  0  0  0  0  0
  185.0370  178.3360  140.8460 C   0  0  0  0  0  3  0  0  0  0  0  0
  185.0190  178.1460  143.0830 N   0  0  0  0  0  0  0  0  0  0  0  0
  185.5980  179.3190  145.2110 C   0  0  0  0  0  3  0  0  0  0  0  0
  185.5390  176.8390  144.9910 C   0  0  0  0  0  3  0  0  0  0  0  0
  185.9760  179.5430  146.4650 C   0  0  0  0  0  2  0  0  0  0  0  0
  185.9090  176.4820  146.3250 N   0  0  0  0  0  0  0  0  0  0  0  0
  186.7240  179.1330  148.7040 F   0  0  0  0  0  0  0  0  0  0  0  0
  186.2890  177.2720  147.4500 C   0  0  0  0  0  3  0  0  0  0  0  0
  186.3320  178.5970  147.5230 C   0  0  0  0  0  0  0  0  0  0  0  0
  185.4130  178.0610  144.4670 C   0  0  0  0  0  0  0  0  0  0  0  0
  182.5520  178.0810  140.5120 C   0  0  0  0  0  3  0  0  0  0  0  0
  181.4190  178.5140  140.9560 N   0  0  0  0  0  2  0  0  0  0  0  0
  187.3020  178.3830  141.9970 C   0  0  0  0  0  2  0  0  0  0  0  0
  187.8290  173.4170  141.6960 O   0  0  0  0  0  0  0  0  0  0  0  0
  187.4600  175.8890  141.7490 C   0  0  0  0  0  3  0  0  0  0  0  0
  188.8430  176.9950  143.4240 C   0  0  0  0  0  3  0  0  0  0  0  0
  188.9710  174.6690  143.1470 C   0  0  0  0  0  0  0  0  0  0  0  0
  187.8680  177.0650  142.4030 C   0  0  0  0  0  0  0  0  0  0  0  0
  189.3820  175.7920  143.7860 N   0  0  0  0  0  0  0  0  0  0  0  0
  188.6720  172.5180  142.4330 C   0  0  0  0  0  3  0  0  0  0  0  0
  189.4220  173.3510  143.3890 N   0  0  0  0  0  0  0  0  0  0  0  0
  188.0450  174.6970  142.1610 C   0  0  0  0  0  0  0  0  0  0  0  0
  1  2  2  0  0  0  0
  2  5  1  0  0  0  0
  3 16  1  0  0  0  0
  3  5  1  0  0  0  0
  4  1  1  0  0  0  0
  4  3  2  0  0  0  0
  5 13  1  0  0  0  0
  6  8  1  0  0  0  0
  7  9  2  0  0  0  0
  8 12  1  0  0  0  0
  9 11  1  0  0  0  0
 11 12  2  0  0  0  0
 12 10  1  0  0  0  0
 13  7  1  0  0  0  0
 13  6  2  0  0  0  0
 14 15  2  0  0  0  0
 14  1  1  0  0  0  0
 16 21  1  0  0  0  0
 17 25  1  0  0  0  0
 17 23  1  0  0  0  0
 18 25  2  0  0  0  0
 18 21  1  0  0  0  0
 19 22  1  0  0  0  0
 20 24  1  0  0  0  0
 20 22  2  0  0  0  0
 21 19  2  0  0  0  0
 23 24  2  0  0  0  0
 25 20  1  0  0  0  0
M  END
>  <MODEL>
3

>  <REMARK>
 VINA RESULT:      -7.1      3.162      4.728
  Name = 
  4 active torsions:
  status: ('A' for Active; 'I' for Inactive)
    1  A    between atoms: C_1  and  C_4
    2  A    between atoms: C_7  and  C_14
    3  A    between atoms: C_7  and  C_15
    4  A    between atoms: N_19  and  C_24
                            x       y       z     vdW  Elec       q    Type
                         _______ _______ _______ _____ _____    ______ ____

>  <TORSDO>
F 4

$$$$
=
 OpenBabel11042417483D

 25 28  0  0  1  0  0  0  0  0999 V2000
  192.5320  176.5630  145.0190 C   0  0  0  0  0  0  0  0  0  0  0  0
  191.8660  176.8250  143.8790 N   0  0  0  0  0  0  0  0  0  0  0  0
  190.4830  175.9460  145.3080 C   0  0  0  0  0  0  0  0  0  0  0  0
  191.7000  175.9900  145.9640 C   0  0  0  0  0  3  0  0  0  0  0  0
  190.6100  176.4480  144.0560 N   0  0  0  0  0  0  0  0  0  0  0  0
  188.9800  177.8940  142.8340 C   0  0  0  0  0  3  0  0  0  0  0  0
  189.3250  175.4830  142.3130 C   0  0  0  0  0  3  0  0  0  0  0  0
  188.0220  178.2900  142.0020 C   0  0  0  0  0  3  0  0  0  0  0  0
  188.3790  175.3410  141.2510 N   0  0  0  0  0  0  0  0  0  0  0  0
  186.3100  178.2080  140.3280 F   0  0  0  0  0  0  0  0  0  0  0  0
  187.4400  176.2530  140.6850 C   0  0  0  0  0  3  0  0  0  0  0  0
  187.2680  177.5300  141.0060 C   0  0  0  0  0  0  0  0  0  0  0  0
  189.5980  176.5730  143.0370 C   0  0  1  0  0  3  0  0  0  0  0  0
  193.9560  176.8340  145.2210 C   0  0  0  0  0  3  0  0  0  0  0  0
  194.5240  176.5760  146.3520 N   0  0  0  0  0  2  0  0  0  0  0  0
  189.2570  175.2950  145.8700 C   0  0  0  0  0  2  0  0  0  0  0  0
  184.8140  177.5480  145.4120 O   0  0  0  0  0  0  0  0  0  0  0  0
  187.0000  176.3410  145.5260 C   0  0  0  0  0  3  0  0  0  0  0  0
  188.4730  177.2570  147.2400 C   0  0  0  0  0  3  0  0  0  0  0  0
  186.3490  178.1920  146.8960 C   0  0  0  0  0  0  0  0  0  0  0  0
  188.2300  176.3200  146.2080 C   0  0  0  0  0  0  0  0  0  0  0  0
  187.5260  178.1850  147.5700 N   0  0  0  0  0  0  0  0  0  0  0  0
  184.2450  178.6530  146.1300 C   0  0  0  0  0  3  0  0  0  0  0  0
  185.2640  179.0730  147.1080 N   0  0  0  0  0  0  0  0  0  0  0  0
  186.0770  177.3090  145.9090 C   0  0  0  0  0  0  0  0  0  0  0  0
  1 14  1  0  0  0  0
  1  4  1  0  0  0  0
  2  5  1  0  0  0  0
  2  1  2  0  0  0  0
  3 16  1  0  0  0  0
  3  4  2  0  0  0  0
  5  3  1  0  0  0  0
  6 13  1  0  0  0  0
  8  6  2  0  0  0  0
  9  7  2  0  0  0  0
 10 12  1  0  0  0  0
 11 12  2  0  0  0  0
 11  9  1  0  0  0  0
 12  8  1  0  0  0  0
 13  7  1  6  0  0  0
 13  5  1  0  0  0  0
 14 15  2  0  0  0  0
 16 21  1  0  0  0  0
 17 25  1  0  0  0  0
 17 23  1  0  0  0  0
 18 25  2  0  0  0  0
 18 21  1  0  0  0  0
 19 22  1  0  0  0  0
 20 24  1  0  0  0  0
 20 22  2  0  0  0  0
 21 19  2  0  0  0  0
 23 24  2  0  0  0  0
 25 20  1  0  0  0  0
M  END
>  <MODEL>
4

>  <REMARK>
 VINA RESULT:      -6.8      3.022      6.108
  Name = 
  4 active torsions:
  status: ('A' for Active; 'I' for Inactive)
    1  A    between atoms: C_1  and  C_4
    2  A    between atoms: C_7  and  C_14
    3  A    between atoms: C_7  and  C_15
    4  A    between atoms: N_19  and  C_24
                            x       y       z     vdW  Elec       q    Type
                         _______ _______ _______ _____ _____    ______ ____

>  <TORSDO>
F 4

$$$$
=
 OpenBabel11042417483D

 25 28  0  0  1  0  0  0  0  0999 V2000
  192.0730  176.2510  146.6000 C   0  0  0  0  0  0  0  0  0  0  0  0
  191.8850  175.5250  145.4810 N   0  0  0  0  0  0  0  0  0  0  0  0
  190.0100  175.6140  146.5780 C   0  0  0  0  0  0  0  0  0  0  0  0
  190.9100  176.3320  147.3450 C   0  0  0  0  0  3  0  0  0  0  0  0
  190.6210  175.1360  145.4680 N   0  0  0  0  0  0  0  0  0  0  0  0
  189.5970  175.0080  143.1920 C   0  0  0  0  0  3  0  0  0  0  0  0
  190.0300  173.0060  144.6090 C   0  0  0  0  0  3  0  0  0  0  0  0
  189.0230  174.5320  142.0920 C   0  0  0  0  0  3  0  0  0  0  0  0
  189.5340  171.9940  143.7310 N   0  0  0  0  0  0  0  0  0  0  0  0
  188.0400  172.9870  140.5480 F   0  0  0  0  0  0  0  0  0  0  0  0
  188.8970  172.0670  142.4570 C   0  0  0  0  0  3  0  0  0  0  0  0
  188.6610  173.1600  141.7390 C   0  0  0  0  0  0  0  0  0  0  0  0
  190.0560  174.3280  144.4150 C   0  0  1  0  0  3  0  0  0  0  0  0
  193.3490  176.8580  146.9820 C   0  0  0  0  0  3  0  0  0  0  0  0
  194.4160  176.6460  146.2860 N   0  0  0  0  0  2  0  0  0  0  0  0
  188.6120  175.3010  147.0120 C   0  0  0  0  0  2  0  0  0  0  0  0
  186.6780  178.6530  143.8410 O   0  0  0  0  0  0  0  0  0  0  0  0
  187.7440  176.9480  145.3260 C   0  0  0  0  0  3  0  0  0  0  0  0
  186.7180  176.8750  147.5360 C   0  0  0  0  0  3  0  0  0  0  0  0
  185.9280  178.3860  145.9250 C   0  0  0  0  0  0  0  0  0  0  0  0
  187.6840  176.4000  146.6200 C   0  0  0  0  0  0  0  0  0  0  0  0
  185.8500  177.8680  147.1750 N   0  0  0  0  0  0  0  0  0  0  0  0
  185.6030  179.5890  144.0080 C   0  0  0  0  0  3  0  0  0  0  0  0
  185.1130  179.4080  145.3860 N   0  0  0  0  0  0  0  0  0  0  0  0
  186.8340  177.9540  145.0190 C   0  0  0  0  0  0  0  0  0  0  0  0
  1 14  1  0  0  0  0
  1  4  1  0  0  0  0
  2  1  2  0  0  0  0
  3 16  1  0  0  0  0
  3  4  2  0  0  0  0
  5  2  1  0  0  0  0
  5  3  1  0  0  0  0
  8  6  2  0  0  0  0
  9  7  2  0  0  0  0
 10 12  1  0  0  0  0
 11  9  1  0  0  0  0
 12  8  1  0  0  0  0
 12 11  2  0  0  0  0
 13  6  1  6  0  0  0
 13  7  1  0  0  0  0
 13  5  1  0  0  0  0
 15 14  2  0  0  0  0
 17 23  1  0  0  0  0
 17 25  1  0  0  0  0
 18 21  1  0  0  0  0
 20 22  2  0  0  0  0
 21 16  1  0  0  0  0
 21 19  2  0  0  0  0
 22 19  1  0  0  0  0
 23 24  2  0  0  0  0
 24 20  1  0  0  0  0
 25 18  2  0  0  0  0
 25 20  1  0  0  0  0
M  END
>  <MODEL>
5

>  <REMARK>
 VINA RESULT:      -6.7      3.291      6.770
  Name = 
  4 active torsions:
  status: ('A' for Active; 'I' for Inactive)
    1  A    between atoms: C_1  and  C_4
    2  A    between atoms: C_7  and  C_14
    3  A    between atoms: C_7  and  C_15
    4  A    between atoms: N_19  and  C_24
                            x       y       z     vdW  Elec       q    Type
                         _______ _______ _______ _____ _____    ______ ____

>  <TORSDO>
F 4

$$$$
=
 OpenBabel11042417483D

 25 28  0  0  0  0  0  0  0  0999 V2000
  188.9590  174.2820  141.4700 C   0  0  0  0  0  0  0  0  0  0  0  0
  190.1670  174.2150  142.0620 N   0  0  0  0  0  0  0  0  0  0  0  0
  189.2790  176.1490  142.5080 C   0  0  0  0  0  0  0  0  0  0  0  0
  188.3500  175.5000  141.7120 C   0  0  0  0  0  3  0  0  0  0  0  0
  190.3620  175.3580  142.6990 N   0  0  0  0  0  0  0  0  0  0  0  0
  191.4870  175.6020  144.9160 C   0  0  0  0  0  3  0  0  0  0  0  0
  192.6700  175.9000  142.7450 C   0  0  0  0  0  3  0  0  0  0  0  0
  192.4060  175.8470  145.8440 C   0  0  0  0  0  2  0  0  0  0  0  0
  193.9750  176.2090  143.2360 N   0  0  0  0  0  0  0  0  0  0  0  0
  194.4930  176.4650  146.8450 F   0  0  0  0  0  0  0  0  0  0  0  0
  194.4760  176.3880  144.5600 C   0  0  0  0  0  3  0  0  0  0  0  0
  193.8070  176.2440  145.6980 C   0  0  0  0  0  0  0  0  0  0  0  0
  191.5600  175.6500  143.4460 C   0  0  0  0  0  0  0  0  0  0  0  0
  188.3790  173.2100  140.6610 C   0  0  0  0  0  3  0  0  0  0  0  0
  188.4320  173.2520  139.3720 N   0  0  0  0  0  2  0  0  0  0  0  0
  189.1440  177.5720  142.9530 C   0  0  0  0  0  2  0  0  0  0  0  0
  184.6010  178.9360  144.5450 O   0  0  0  0  0  0  0  0  0  0  0  0
  186.8430  178.3230  143.6250 C   0  0  0  0  0  3  0  0  0  0  0  0
  188.2320  177.1720  145.2660 C   0  0  0  0  0  3  0  0  0  0  0  0
  186.0710  177.8760  145.8450 C   0  0  0  0  0  0  0  0  0  0  0  0
  188.0580  177.7020  143.9660 C   0  0  0  0  0  0  0  0  0  0  0  0
  187.2320  177.2690  146.1930 N   0  0  0  0  0  0  0  0  0  0  0  0
  183.9620  178.7590  145.8180 C   0  0  0  0  0  3  0  0  0  0  0  0
  184.9380  178.0590  146.6710 N   0  0  0  0  0  0  0  0  0  0  0  0
  185.8650  178.3890  144.6110 C   0  0  0  0  0  0  0  0  0  0  0  0
  1  4  1  0  0  0  0
  1  2  2  0  0  0  0
  2  5  1  0  0  0  0
  3  5  1  0  0  0  0
  3 16  1  0  0  0  0
  4  3  2  0  0  0  0
  5 13  1  0  0  0  0
  6  8  1  0  0  0  0
  7  9  2  0  0  0  0
  7 13  1  0  0  0  0
  9 11  1  0  0  0  0
 11 12  2  0  0  0  0
 12  8  1  0  0  0  0
 12 10  1  0  0  0  0
 13  6  2  0  0  0  0
 14  1  1  0  0  0  0
 15 14  2  0  0  0  0
 16 21  1  0  0  0  0
 17 25  1  0  0  0  0
 17 23  1  0  0  0  0
 18 21  1  0  0  0  0
 18 25  2  0  0  0  0
 19 22  1  0  0  0  0
 20 22  2  0  0  0  0
 20 24  1  0  0  0  0
 21 19  2  0  0  0  0
 23 24  2  0  0  0  0
 25 20  1  0  0  0  0
M  END
>  <MODEL>
6

>  <REMARK>
 VINA RESULT:      -6.6      3.414      6.447
  Name = 
  4 active torsions:
  status: ('A' for Active; 'I' for Inactive)
    1  A    between atoms: C_1  and  C_4
    2  A    between atoms: C_7  and  C_14
    3  A    between atoms: C_7  and  C_15
    4  A    between atoms: N_19  and  C_24
                            x       y       z     vdW  Elec       q    Type
                         _______ _______ _______ _____ _____    ______ ____

>  <TORSDO>
F 4

$$$$
=
 OpenBabel11042417483D

 25 28  0  0  0  0  0  0  0  0999 V2000
  192.2500  176.3370  145.4120 C   0  0  0  0  0  0  0  0  0  0  0  0
  191.1420  177.1010  145.4100 N   0  0  0  0  0  0  0  0  0  0  0  0
  190.5460  175.0110  145.4250 C   0  0  0  0  0  0  0  0  0  0  0  0
  191.9290  174.9910  145.4100 C   0  0  0  0  0  3  0  0  0  0  0  0
  190.0980  176.2890  145.4200 N   0  0  0  0  0  0  0  0  0  0  0  0
  187.9080  176.4930  146.6050 C   0  0  0  0  0  3  0  0  0  0  0  0
  188.3290  177.4420  144.3410 C   0  0  0  0  0  3  0  0  0  0  0  0
  186.6360  176.7780  146.8650 C   0  0  0  0  0  2  0  0  0  0  0  0
  187.0430  178.0140  144.0910 N   0  0  0  0  0  0  0  0  0  0  0  0
  184.3930  177.5650  146.5670 F   0  0  0  0  0  0  0  0  0  0  0  0
  185.8310  177.9970  144.8430 C   0  0  0  0  0  3  0  0  0  0  0  0
  185.6370  177.4580  146.0410 C   0  0  0  0  0  0  0  0  0  0  0  0
  188.7340  176.7570  145.4150 C   0  0  0  0  0  0  0  0  0  0  0  0
  193.6140  176.8660  145.3980 C   0  0  0  0  0  3  0  0  0  0  0  0
  194.3380  176.8530  146.4670 N   0  0  0  0  0  2  0  0  0  0  0  0
  189.6950  173.7840  145.3110 C   0  0  0  0  0  2  0  0  0  0  0  0
  188.8070  174.1790  140.4030 O   0  0  0  0  0  0  0  0  0  0  0  0
  189.1850  174.1090  142.8730 C   0  0  0  0  0  3  0  0  0  0  0  0
  190.1850  172.0060  143.5970 C   0  0  0  0  0  3  0  0  0  0  0  0
  189.7080  172.3590  141.3270 C   0  0  0  0  0  0  0  0  0  0  0  0
  189.6770  173.2900  143.9050 C   0  0  0  0  0  0  0  0  0  0  0  0
  190.1920  171.5560  142.3060 N   0  0  0  0  0  0  0  0  0  0  0  0
  189.0480  173.2560  139.3300 C   0  0  0  0  0  3  0  0  0  0  0  0
  189.6430  172.0580  139.9470 N   0  0  0  0  0  0  0  0  0  0  0  0
  189.2200  173.5950  141.5820 C   0  0  0  0  0  0  0  0  0  0  0  0
  2  1  2  0  0  0  0
  2  5  1  0  0  0  0
  4  1  1  0  0  0  0
  4  3  2  0  0  0  0
  5  3  1  0  0  0  0
  6  8  1  0  0  0  0
  7 13  1  0  0  0  0
  9  7  2  0  0  0  0
  9 11  1  0  0  0  0
 11 12  2  0  0  0  0
 12 10  1  0  0  0  0
 12  8  1  0  0  0  0
 13  5  1  0  0  0  0
 13  6  2  0  0  0  0
 14  1  1  0  0  0  0
 14 15  2  0  0  0  0
 16  3  1  0  0  0  0
 17 25  1  0  0  0  0
 18 21  1  0  0  0  0
 19 21  2  0  0  0  0
 20 25  1  0  0  0  0
 20 22  2  0  0  0  0
 21 16  1  0  0  0  0
 22 19  1  0  0  0  0
 23 24  2  0  0  0  0
 23 17  1  0  0  0  0
 24 20  1  0  0  0  0
 25 18  2  0  0  0  0
M  END
>  <MODEL>
7

>  <REMARK>
 VINA RESULT:      -6.4      2.377      5.291
  Name = 
  4 active torsions:
  status: ('A' for Active; 'I' for Inactive)
    1  A    between atoms: C_1  and  C_4
    2  A    between atoms: C_7  and  C_14
    3  A    between atoms: C_7  and  C_15
    4  A    between atoms: N_19  and  C_24
                            x       y       z     vdW  Elec       q    Type
                         _______ _______ _______ _____ _____    ______ ____

>  <TORSDO>
F 4

$$$$
=
 OpenBabel11042417483D

 25 28  0  0  0  0  0  0  0  0999 V2000
  185.7310  177.8710  142.8390 C   0  0  0  0  0  0  0  0  0  0  0  0
  186.0210  176.6150  142.4510 N   0  0  0  0  0  0  0  0  0  0  0  0
  187.8690  177.7550  142.5580 C   0  0  0  0  0  0  0  0  0  0  0  0
  186.8740  178.6480  142.9140 C   0  0  0  0  0  3  0  0  0  0  0  0
  187.3310  176.5430  142.2810 N   0  0  0  0  0  0  0  0  0  0  0  0
  188.4920  174.4180  142.8960 C   0  0  0  0  0  3  0  0  0  0  0  0
  188.1040  175.1300  140.5410 C   0  0  0  0  0  3  0  0  0  0  0  0
  189.1580  173.2730  142.8030 C   0  0  0  0  0  2  0  0  0  0  0  0
  188.7130  174.0280  139.8660 N   0  0  0  0  0  0  0  0  0  0  0  0
  190.3260  171.4130  141.8450 F   0  0  0  0  0  0  0  0  0  0  0  0
  189.4180  172.8860  140.3510 C   0  0  0  0  0  3  0  0  0  0  0  0
  189.6270  172.5510  141.6200 C   0  0  0  0  0  0  0  0  0  0  0  0
  188.0060  175.3420  141.8560 C   0  0  0  0  0  0  0  0  0  0  0  0
  184.3790  178.3530  143.1260 C   0  0  0  0  0  3  0  0  0  0  0  0
  184.0980  178.8930  144.2650 N   0  0  0  0  0  2  0  0  0  0  0  0
  189.3040  178.1400  142.3700 C   0  0  0  0  0  2  0  0  0  0  0  0
  190.0780  176.8540  147.1430 O   0  0  0  0  0  0  0  0  0  0  0  0
  189.5590  177.5410  144.7970 C   0  0  0  0  0  3  0  0  0  0  0  0
  191.4770  177.2860  143.3130 C   0  0  0  0  0  3  0  0  0  0  0  0
  191.6660  176.7230  145.5830 C   0  0  0  0  0  0  0  0  0  0  0  0
  190.1280  177.6580  143.5160 C   0  0  0  0  0  0  0  0  0  0  0  0
  192.2320  176.8230  144.3550 N   0  0  0  0  0  0  0  0  0  0  0  0
  191.2500  176.3480  147.7990 C   0  0  0  0  0  3  0  0  0  0  0  0
  192.2940  176.2640  146.7630 N   0  0  0  0  0  0  0  0  0  0  0  0
  190.3770  177.0630  145.8140 C   0  0  0  0  0  0  0  0  0  0  0  0
  1  4  1  0  0  0  0
  1 14  1  0  0  0  0
  2  1  2  0  0  0  0
  3  4  2  0  0  0  0
  5  2  1  0  0  0  0
  5  3  1  0  0  0  0
  7 13  1  0  0  0  0
  8  6  1  0  0  0  0
  9 11  1  0  0  0  0
  9  7  2  0  0  0  0
 11 12  2  0  0  0  0
 12 10  1  0  0  0  0
 12  8  1  0  0  0  0
 13  5  1  0  0  0  0
 13  6  2  0  0  0  0
 14 15  2  0  0  0  0
 16  3  1  0  0  0  0
 16 21  1  0  0  0  0
 17 23  1  0  0  0  0
 18 25  2  0  0  0  0
 19 21  2  0  0  0  0
 19 22  1  0  0  0  0
 20 25  1  0  0  0  0
 20 24  1  0  0  0  0
 21 18  1  0  0  0  0
 22 20  2  0  0  0  0
 24 23  2  0  0  0  0
 25 17  1  0  0  0  0
M  END
>  <MODEL>
8

>  <REMARK>
 VINA RESULT:      -6.4      2.929      5.113
  Name = 
  4 active torsions:
  status: ('A' for Active; 'I' for Inactive)
    1  A    between atoms: C_1  and  C_4
    2  A    between atoms: C_7  and  C_14
    3  A    between atoms: C_7  and  C_15
    4  A    between atoms: N_19  and  C_24
                            x       y       z     vdW  Elec       q    Type
                         _______ _______ _______ _____ _____    ______ ____

>  <TORSDO>
F 4

$$$$
=
 OpenBabel11042417483D

 25 28  0  0  0  0  0  0  0  0999 V2000
  187.3030  177.7070  147.0020 C   0  0  0  0  0  0  0  0  0  0  0  0
  188.6360  177.5960  147.1510 N   0  0  0  0  0  0  0  0  0  0  0  0
  188.0820  176.7820  145.2130 C   0  0  0  0  0  0  0  0  0  0  0  0
  186.8910  177.1920  145.7860 C   0  0  0  0  0  3  0  0  0  0  0  0
  189.1140  177.0300  146.0540 N   0  0  0  0  0  0  0  0  0  0  0  0
  191.1720  175.8310  146.8080 C   0  0  0  0  0  3  0  0  0  0  0  0
  191.1060  177.2990  144.7970 C   0  0  0  0  0  3  0  0  0  0  0  0
  192.4310  175.4160  146.8890 C   0  0  0  0  0  2  0  0  0  0  0  0
  192.4670  177.1740  144.3790 N   0  0  0  0  0  0  0  0  0  0  0  0
  194.7670  175.1870  146.4070 F   0  0  0  0  0  0  0  0  0  0  0  0
  193.5810  176.4950  144.9550 C   0  0  0  0  0  3  0  0  0  0  0  0
  193.5830  175.7380  146.0460 C   0  0  0  0  0  0  0  0  0  0  0  0
  190.5130  176.7450  145.8590 C   0  0  0  0  0  0  0  0  0  0  0  0
  186.4080  178.2810  148.0070 C   0  0  0  0  0  3  0  0  0  0  0  0
  185.1320  178.3120  147.8150 N   0  0  0  0  0  2  0  0  0  0  0  0
  188.1680  176.0380  143.9160 C   0  0  0  0  0  2  0  0  0  0  0  0
  183.8710  177.9100  142.1670 O   0  0  0  0  0  0  0  0  0  0  0  0
  185.9460  176.9300  143.1580 C   0  0  0  0  0  3  0  0  0  0  0  0
  187.8510  177.0740  141.6430 C   0  0  0  0  0  3  0  0  0  0  0  0
  185.7610  177.9100  140.9830 C   0  0  0  0  0  0  0  0  0  0  0  0
  187.3030  176.6820  142.8860 C   0  0  0  0  0  0  0  0  0  0  0  0
  187.0680  177.6850  140.7030 N   0  0  0  0  0  0  0  0  0  0  0  0
  183.5620  178.5320  140.9100 C   0  0  0  0  0  3  0  0  0  0  0  0
  184.8140  178.5290  140.1350 N   0  0  0  0  0  0  0  0  0  0  0  0
  185.2030  177.5540  142.1620 C   0  0  0  0  0  0  0  0  0  0  0  0
  1  2  2  0  0  0  0
  1 14  1  0  0  0  0
  3  4  2  0  0  0  0
  3  5  1  0  0  0  0
  4  1  1  0  0  0  0
  5  2  1  0  0  0  0
  6  8  1  0  0  0  0
  7 13  1  0  0  0  0
  9  7  2  0  0  0  0
  9 11  1  0  0  0  0
 11 12  2  0  0  0  0
 12 10  1  0  0  0  0
 12  8  1  0  0  0  0
 13  5  1  0  0  0  0
 13  6  2  0  0  0  0
 15 14  2  0  0  0  0
 16  3  1  0  0  0  0
 19 21  2  0  0  0  0
 20 25  1  0  0  0  0
 21 18  1  0  0  0  0
 21 16  1  0  0  0  0
 22 20  2  0  0  0  0
 22 19  1  0  0  0  0
 23 17  1  0  0  0  0
 24 23  2  0  0  0  0
 24 20  1  0  0  0  0
 25 17  1  0  0  0  0
 25 18  2  0  0  0  0
M  END
>  <MODEL>
9

>  <REMARK>
 VINA RESULT:      -6.2      3.799      7.583
  Name = 
  4 active torsions:
  status: ('A' for Active; 'I' for Inactive)
    1  A    between atoms: C_1  and  C_4
    2  A    between atoms: C_7  and  C_14
    3  A    between atoms: C_7  and  C_15
    4  A    between atoms: N_19  and  C_24
                            x       y       z     vdW  Elec       q    Type
                         _______ _______ _______ _____ _____    ______ ____

>  <TORSDO>
F 4

$$$$
