=
 OpenBabel11042415113D

 27 29  0  0  1  0  0  0  0  0999 V2000
  188.9250  178.1040  141.7290 O   0  0  0  0  0  0  0  0  0  0  0  0
  189.0360  176.7420  144.7830 C   0  0  1  0  0  3  0  0  0  0  0  0
  186.9230  178.2530  144.6980 C   0  0  0  0  0  0  0  0  0  0  0  0
  187.8110  177.4620  146.7360 O   0  0  0  0  0  0  0  0  0  0  0  0
  186.9080  176.8050  141.1770 O   0  0  0  0  0  0  0  0  0  0  0  0
  187.7800  177.3100  142.2920 S   0  0  0  0  0  0  0  0  0  0  0  0
  188.4950  175.6830  143.3930 S   0  0  0  0  0  0  0  0  0  0  0  0
  185.8860  179.1870  145.2390 C   0  0  1  0  0  3  0  0  0  0  0  0
  186.8290  178.2880  143.3830 C   0  0  0  0  0  0  0  0  0  0  0  0
  187.8970  177.4640  145.4790 C   0  0  0  0  0  0  0  0  0  0  0  0
  185.2710  179.6890  144.0120 N   0  0  0  0  0  0  0  0  0  0  0  0
  185.8050  179.1750  142.9790 N   0  0  0  0  0  0  0  0  0  0  0  0
  184.8860  178.4510  146.0200 C   0  0  0  0  0  0  0  0  0  0  0  0
  184.0970  177.8710  146.6360 N   0  0  0  0  0  0  0  0  0  0  0  0
  190.0530  176.0230  145.6930 C   0  0  1  0  0  3  0  0  0  0  0  0
  190.3230  174.6450  145.0940 C   0  0  0  0  0  1  0  0  0  0  0  0
  193.5620  176.6670  145.0460 C   0  0  1  0  0  3  0  0  0  0  0  0
  192.0990  176.7000  144.6580 C   0  0  0  0  0  2  0  0  0  0  0  0
  191.3080  176.7740  145.8840 N   0  0  0  0  0  0  0  0  0  0  0  0
  193.5820  176.3380  146.5190 C   0  0  0  0  0  2  0  0  0  0  0  0
  192.1340  176.1040  146.8840 C   0  0  0  0  0  2  0  0  0  0  0  0
  194.2930  175.6300  144.2580 C   0  0  0  0  0  0  0  0  0  0  0  0
  194.5560  174.5250  144.8050 O   0  0  0  0  0  0  0  0  0  0  0  0
  196.8170  176.8170  143.4280 N   0  0  0  0  0  1  0  0  0  0  0  0
  195.8020  176.4330  142.5040 C   0  0  0  0  0  0  0  0  0  0  0  0
  194.6820  175.9040  142.9000 N   0  0  0  0  0  0  0  0  0  0  0  0
  196.0220  176.6330  141.1140 N   0  0  0  0  0  1  0  0  0  0  0  0
  1  6  2  0  0  0  0
  2 10  1  0  0  0  0
  2 15  1  1  0  0  0
  3  8  1  0  0  0  0
  3 10  1  0  0  0  0
  5  6  2  0  0  0  0
  6  9  1  0  0  0  0
  6  7  1  0  0  0  0
  7  2  1  0  0  0  0
  8 13  1  1  0  0  0
  9  3  2  0  0  0  0
 10  4  2  0  0  0  0
 11  8  1  0  0  0  0
 12  9  1  0  0  0  0
 12 11  2  0  0  0  0
 13 14  3  0  0  0  0
 15 16  1  6  0  0  0
 15 19  1  0  0  0  0
 17 22  1  6  0  0  0
 17 20  1  0  0  0  0
 18 17  1  0  0  0  0
 18 19  1  0  0  0  0
 19 21  1  0  0  0  0
 20 21  1  0  0  0  0
 22 23  2  0  0  0  0
 25 26  2  0  0  0  0
 25 24  1  0  0  0  0
 26 22  1  0  0  0  0
 27 25  1  0  0  0  0
M  END
>  <MODEL>
1

>  <REMARK>
 VINA RESULT:      -7.3      0.000      0.000
  Name = 
  5 active torsions:
  status: ('A' for Active; 'I' for Inactive)
    1  A    between atoms: C_2  and  C_6
    2  A    between atoms: C_5  and  C_9
    3  A    between atoms: C_6  and  N_19
    4  A    between atoms: N_7  and  C_9
    5  A    between atoms: C_8  and  C_17
                            x       y       z     vdW  Elec       q    Type
                         _______ _______ _______ _____ _____    ______ ____

>  <TORSDO>
F 5

$$$$
=
 OpenBabel11042415113D

 27 29  0  0  1  0  0  0  0  0999 V2000
  188.6880  178.2160  141.5730 O   0  0  0  0  0  0  0  0  0  0  0  0
  188.9440  176.7610  144.5740 C   0  0  1  0  0  3  0  0  0  0  0  0
  186.8410  178.2870  144.6450 C   0  0  0  0  0  0  0  0  0  0  0  0
  187.8270  177.4280  146.6090 O   0  0  0  0  0  0  0  0  0  0  0  0
  186.6350  176.9470  141.0860 O   0  0  0  0  0  0  0  0  0  0  0  0
  187.5670  177.4120  142.1700 S   0  0  0  0  0  0  0  0  0  0  0  0
  188.3250  175.7480  143.1830 S   0  0  0  0  0  0  0  0  0  0  0  0
  185.8410  179.2110  145.2650 C   0  0  1  0  0  3  0  0  0  0  0  0
  186.6810  178.3630  143.3380 C   0  0  0  0  0  0  0  0  0  0  0  0
  187.8490  177.4680  145.3500 C   0  0  0  0  0  0  0  0  0  0  0  0
  185.1680  179.7540  144.0880 N   0  0  0  0  0  0  0  0  0  0  0  0
  185.6440  179.2680  143.0130 N   0  0  0  0  0  0  0  0  0  0  0  0
  184.8770  178.4570  146.0750 C   0  0  0  0  0  0  0  0  0  0  0  0
  184.1170  177.8620  146.7120 N   0  0  0  0  0  0  0  0  0  0  0  0
  190.0010  176.0070  145.4090 C   0  0  1  0  0  3  0  0  0  0  0  0
  190.3860  174.7440  144.6440 C   0  0  0  0  0  1  0  0  0  0  0  0
  193.5230  176.8230  145.1300 C   0  0  1  0  0  3  0  0  0  0  0  0
  192.1090  176.7830  144.5900 C   0  0  0  0  0  2  0  0  0  0  0  0
  191.1900  176.8190  145.7270 N   0  0  0  0  0  0  0  0  0  0  0  0
  193.4040  176.4970  146.5980 C   0  0  0  0  0  2  0  0  0  0  0  0
  191.9390  176.1920  146.8110 C   0  0  0  0  0  2  0  0  0  0  0  0
  194.3820  175.8220  144.4280 C   0  0  0  0  0  0  0  0  0  0  0  0
  195.2350  176.2330  143.5960 O   0  0  0  0  0  0  0  0  0  0  0  0
  196.2580  174.1740  145.9230 N   0  0  0  0  0  1  0  0  0  0  0  0
  195.0460  173.6630  145.3730 C   0  0  0  0  0  0  0  0  0  0  0  0
  194.2240  174.4200  144.7090 N   0  0  0  0  0  0  0  0  0  0  0  0
  194.7290  172.2890  145.5580 N   0  0  0  0  0  1  0  0  0  0  0  0
  1  6  2  0  0  0  0
  2 10  1  0  0  0  0
  2 15  1  1  0  0  0
  3  8  1  0  0  0  0
  3 10  1  0  0  0  0
  5  6  2  0  0  0  0
  6  7  1  0  0  0  0
  6  9  1  0  0  0  0
  7  2  1  0  0  0  0
  8 13  1  1  0  0  0
  9  3  2  0  0  0  0
 10  4  2  0  0  0  0
 11  8  1  0  0  0  0
 12  9  1  0  0  0  0
 12 11  2  0  0  0  0
 13 14  3  0  0  0  0
 15 16  1  6  0  0  0
 15 19  1  0  0  0  0
 17 22  1  6  0  0  0
 17 20  1  0  0  0  0
 18 17  1  0  0  0  0
 18 19  1  0  0  0  0
 19 21  1  0  0  0  0
 20 21  1  0  0  0  0
 22 26  1  0  0  0  0
 23 22  2  0  0  0  0
 25 27  1  0  0  0  0
 25 24  1  0  0  0  0
 26 25  2  0  0  0  0
M  END
>  <MODEL>
2

>  <REMARK>
 VINA RESULT:      -7.0      1.392      1.742
  Name = 
  5 active torsions:
  status: ('A' for Active; 'I' for Inactive)
    1  A    between atoms: C_2  and  C_6
    2  A    between atoms: C_5  and  C_9
    3  A    between atoms: C_6  and  N_19
    4  A    between atoms: N_7  and  C_9
    5  A    between atoms: C_8  and  C_17
                            x       y       z     vdW  Elec       q    Type
                         _______ _______ _______ _____ _____    ______ ____

>  <TORSDO>
F 5

$$$$
=
 OpenBabel11042415113D

 27 29  0  0  1  0  0  0  0  0999 V2000
  189.3050  177.1440  146.8670 O   0  0  0  0  0  0  0  0  0  0  0  0
  189.9930  176.2740  143.7110 C   0  0  1  0  0  3  0  0  0  0  0  0
  192.2660  176.5080  144.9490 C   0  0  0  0  0  0  0  0  0  0  0  0
  192.1280  176.4370  142.5940 O   0  0  0  0  0  0  0  0  0  0  0  0
  190.1150  174.9690  147.6880 O   0  0  0  0  0  0  0  0  0  0  0  0
  190.1280  175.9310  146.5340 S   0  0  0  0  0  0  0  0  0  0  0  0
  189.3620  174.9780  144.8380 S   0  0  0  0  0  0  0  0  0  0  0  0
  193.7190  176.8360  145.0910 C   0  0  1  0  0  3  0  0  0  0  0  0
  191.7740  176.3850  146.1660 C   0  0  0  0  0  0  0  0  0  0  0  0
  191.5050  176.3800  143.6890 C   0  0  0  0  0  0  0  0  0  0  0  0
  193.8760  176.8600  146.5440 N   0  0  0  0  0  0  0  0  0  0  0  0
  192.7810  176.6020  147.1360 N   0  0  0  0  0  0  0  0  0  0  0  0
  194.5470  175.7630  144.5290 C   0  0  0  0  0  0  0  0  0  0  0  0
  195.1990  174.9170  144.0850 N   0  0  0  0  0  0  0  0  0  0  0  0
  189.2850  176.2380  142.3400 C   0  0  1  0  0  3  0  0  0  0  0  0
  188.3990  174.9960  142.3030 C   0  0  0  0  0  1  0  0  0  0  0  0
  186.4410  178.4400  142.7980 C   0  0  1  0  0  3  0  0  0  0  0  0
  187.7600  177.8430  143.2430 C   0  0  0  0  0  2  0  0  0  0  0  0
  188.5060  177.4550  142.0470 N   0  0  0  0  0  0  0  0  0  0  0  0
  186.2830  178.0400  141.3520 C   0  0  0  0  0  2  0  0  0  0  0  0
  187.4710  177.1520  141.0630 C   0  0  0  0  0  2  0  0  0  0  0  0
  185.3170  177.9090  143.6260 C   0  0  0  0  0  0  0  0  0  0  0  0
  184.1350  178.0800  143.2240 O   0  0  0  0  0  0  0  0  0  0  0  0
  185.0800  179.0440  146.2950 N   0  0  0  0  0  1  0  0  0  0  0  0
  185.5000  177.7020  146.0590 C   0  0  0  0  0  0  0  0  0  0  0  0
  185.5980  177.2180  144.8570 N   0  0  0  0  0  0  0  0  0  0  0  0
  185.8180  176.8720  147.1700 N   0  0  0  0  0  1  0  0  0  0  0  0
  2 15  1  6  0  0  0
  2  7  1  0  0  0  0
  3  8  1  0  0  0  0
  3  9  2  0  0  0  0
  4 10  2  0  0  0  0
  6  1  2  0  0  0  0
  6  5  2  0  0  0  0
  7  6  1  0  0  0  0
  8 13  1  6  0  0  0
  8 11  1  0  0  0  0
  9  6  1  0  0  0  0
  9 12  1  0  0  0  0
 10  2  1  0  0  0  0
 10  3  1  0  0  0  0
 11 12  2  0  0  0  0
 14 13  3  0  0  0  0
 15 16  1  1  0  0  0
 17 18  1  0  0  0  0
 17 22  1  1  0  0  0
 19 15  1  0  0  0  0
 19 18  1  0  0  0  0
 20 17  1  0  0  0  0
 21 20  1  0  0  0  0
 21 19  1  0  0  0  0
 22 26  1  0  0  0  0
 23 22  2  0  0  0  0
 25 24  1  0  0  0  0
 25 27  1  0  0  0  0
 26 25  2  0  0  0  0
M  END
>  <MODEL>
3

>  <REMARK>
 VINA RESULT:      -6.9      2.239      7.895
  Name = 
  5 active torsions:
  status: ('A' for Active; 'I' for Inactive)
    1  A    between atoms: C_2  and  C_6
    2  A    between atoms: C_5  and  C_9
    3  A    between atoms: C_6  and  N_19
    4  A    between atoms: N_7  and  C_9
    5  A    between atoms: C_8  and  C_17
                            x       y       z     vdW  Elec       q    Type
                         _______ _______ _______ _____ _____    ______ ____

>  <TORSDO>
F 5

$$$$
=
 OpenBabel11042415113D

 27 29  0  0  1  0  0  0  0  0999 V2000
  189.5470  172.2710  145.2000 O   0  0  0  0  0  0  0  0  0  0  0  0
  189.8860  175.5980  145.2880 C   0  0  1  0  0  3  0  0  0  0  0  0
  192.2750  174.5850  145.4330 C   0  0  0  0  0  0  0  0  0  0  0  0
  191.8400  176.8380  145.9800 O   0  0  0  0  0  0  0  0  0  0  0  0
  190.6240  172.1780  142.9870 O   0  0  0  0  0  0  0  0  0  0  0  0
  190.4120  173.0130  144.2190 S   0  0  0  0  0  0  0  0  0  0  0  0
  189.5110  174.8200  143.6770 S   0  0  0  0  0  0  0  0  0  0  0  0
  193.7040  174.5060  145.8700 C   0  0  1  0  0  3  0  0  0  0  0  0
  191.9570  173.4060  144.9350 C   0  0  0  0  0  0  0  0  0  0  0  0
  191.3710  175.7450  145.5640 C   0  0  0  0  0  0  0  0  0  0  0  0
  194.0460  173.1290  145.5210 N   0  0  0  0  0  0  0  0  0  0  0  0
  193.0600  172.5240  144.9940 N   0  0  0  0  0  0  0  0  0  0  0  0
  194.5340  175.4280  145.0850 C   0  0  0  0  0  0  0  0  0  0  0  0
  195.1880  176.1550  144.4660 N   0  0  0  0  0  0  0  0  0  0  0  0
  189.0120  176.8440  145.5430 C   0  0  1  0  0  3  0  0  0  0  0  0
  188.5410  177.3700  144.1900 C   0  0  0  0  0  1  0  0  0  0  0  0
  185.5030  177.0310  146.4370 C   0  0  1  0  0  3  0  0  0  0  0  0
  186.6550  176.4560  145.6400 C   0  0  0  0  0  2  0  0  0  0  0  0
  187.8710  176.5900  146.4410 N   0  0  0  0  0  0  0  0  0  0  0  0
  186.1390  177.8380  147.5420 C   0  0  0  0  0  2  0  0  0  0  0  0
  187.6240  177.7670  147.2690 C   0  0  0  0  0  2  0  0  0  0  0  0
  184.6430  177.8930  145.5720 C   0  0  0  0  0  0  0  0  0  0  0  0
  183.7400  178.5850  146.1130 O   0  0  0  0  0  0  0  0  0  0  0  0
  185.5870  180.1820  144.0440 N   0  0  0  0  0  1  0  0  0  0  0  0
  185.2760  178.9260  143.4440 C   0  0  0  0  0  0  0  0  0  0  0  0
  184.8560  177.9180  144.1490 N   0  0  0  0  0  0  0  0  0  0  0  0
  185.4320  178.7740  142.0390 N   0  0  0  0  0  1  0  0  0  0  0  0
  2 15  1  6  0  0  0
  2 10  1  0  0  0  0
  3 10  1  0  0  0  0
  3  8  1  0  0  0  0
  5  6  2  0  0  0  0
  6  9  1  0  0  0  0
  6  1  2  0  0  0  0
  7  6  1  0  0  0  0
  7  2  1  0  0  0  0
  8 13  1  6  0  0  0
  9 12  1  0  0  0  0
  9  3  2  0  0  0  0
 10  4  2  0  0  0  0
 11  8  1  0  0  0  0
 12 11  2  0  0  0  0
 14 13  3  0  0  0  0
 15 16  1  6  0  0  0
 15 19  1  0  0  0  0
 17 22  1  6  0  0  0
 17 20  1  0  0  0  0
 18 17  1  0  0  0  0
 18 19  1  0  0  0  0
 19 21  1  0  0  0  0
 21 20  1  0  0  0  0
 22 23  2  0  0  0  0
 25 24  1  0  0  0  0
 25 26  2  0  0  0  0
 26 22  1  0  0  0  0
 27 25  1  0  0  0  0
M  END
>  <MODEL>
4

>  <REMARK>
 VINA RESULT:      -6.8      2.626      7.939
  Name = 
  5 active torsions:
  status: ('A' for Active; 'I' for Inactive)
    1  A    between atoms: C_2  and  C_6
    2  A    between atoms: C_5  and  C_9
    3  A    between atoms: C_6  and  N_19
    4  A    between atoms: N_7  and  C_9
    5  A    between atoms: C_8  and  C_17
                            x       y       z     vdW  Elec       q    Type
                         _______ _______ _______ _____ _____    ______ ____

>  <TORSDO>
F 5

$$$$
=
 OpenBabel11042415113D

 27 29  0  0  1  0  0  0  0  0999 V2000
  190.5310  175.3050  141.9260 O   0  0  0  0  0  0  0  0  0  0  0  0
  189.2990  176.2060  144.9040 C   0  0  1  0  0  3  0  0  0  0  0  0
  187.7530  177.2470  143.0930 C   0  0  0  0  0  0  0  0  0  0  0  0
  187.7030  177.9650  145.3390 O   0  0  0  0  0  0  0  0  0  0  0  0
  188.5650  173.8870  141.4940 O   0  0  0  0  0  0  0  0  0  0  0  0
  189.1120  175.0150  142.3250 S   0  0  0  0  0  0  0  0  0  0  0  0
  189.0160  174.4870  144.3450 S   0  0  0  0  0  0  0  0  0  0  0  0
  186.8480  178.2770  142.4940 C   0  0  1  0  0  3  0  0  0  0  0  0
  188.1120  176.4330  142.1190 C   0  0  0  0  0  0  0  0  0  0  0  0
  188.1990  177.1680  144.4980 C   0  0  0  0  0  0  0  0  0  0  0  0
  186.8110  177.8610  141.0940 N   0  0  0  0  0  0  0  0  0  0  0  0
  187.5200  176.8250  140.8960 N   0  0  0  0  0  0  0  0  0  0  0  0
  185.5010  178.1750  143.0680 C   0  0  0  0  0  0  0  0  0  0  0  0
  184.4390  178.0950  143.5200 N   0  0  0  0  0  0  0  0  0  0  0  0
  189.7570  176.2650  146.3760 C   0  0  1  0  0  3  0  0  0  0  0  0
  189.4160  174.9260  147.0260 C   0  0  0  0  0  1  0  0  0  0  0  0
  193.2070  176.2810  145.2590 C   0  0  1  0  0  3  0  0  0  0  0  0
  191.7810  176.7890  145.2160 C   0  0  0  0  0  2  0  0  0  0  0  0
  191.1880  176.5830  146.5360 N   0  0  0  0  0  0  0  0  0  0  0  0
  193.2970  175.4370  146.5070 C   0  0  0  0  0  2  0  0  0  0  0  0
  191.8940  175.4220  147.0680 C   0  0  0  0  0  2  0  0  0  0  0  0
  193.5140  175.4710  144.0420 C   0  0  0  0  0  0  0  0  0  0  0  0
  193.1280  174.2720  143.9990 O   0  0  0  0  0  0  0  0  0  0  0  0
  196.4120  175.6170  143.8160 N   0  0  0  0  0  1  0  0  0  0  0  0
  195.5300  176.1430  142.8260 C   0  0  0  0  0  0  0  0  0  0  0  0
  194.2390  176.0650  142.9510 N   0  0  0  0  0  0  0  0  0  0  0  0
  196.0800  176.7670  141.6730 N   0  0  0  0  0  1  0  0  0  0  0  0
  1  6  2  0  0  0  0
  2 15  1  1  0  0  0
  3 10  1  0  0  0  0
  5  6  2  0  0  0  0
  6  7  1  0  0  0  0
  7  2  1  0  0  0  0
  8 13  1  1  0  0  0
  8  3  1  0  0  0  0
  9  6  1  0  0  0  0
  9  3  2  0  0  0  0
 10  2  1  0  0  0  0
 10  4  2  0  0  0  0
 11  8  1  0  0  0  0
 12 11  2  0  0  0  0
 12  9  1  0  0  0  0
 13 14  3  0  0  0  0
 15 19  1  0  0  0  0
 15 16  1  6  0  0  0
 17 22  1  6  0  0  0
 17 20  1  0  0  0  0
 18 17  1  0  0  0  0
 18 19  1  0  0  0  0
 19 21  1  0  0  0  0
 20 21  1  0  0  0  0
 23 22  2  0  0  0  0
 25 26  2  0  0  0  0
 25 24  1  0  0  0  0
 26 22  1  0  0  0  0
 27 25  1  0  0  0  0
M  END
>  <MODEL>
5

>  <REMARK>
 VINA RESULT:      -6.4      1.750      2.068
  Name = 
  5 active torsions:
  status: ('A' for Active; 'I' for Inactive)
    1  A    between atoms: C_2  and  C_6
    2  A    between atoms: C_5  and  C_9
    3  A    between atoms: C_6  and  N_19
    4  A    between atoms: N_7  and  C_9
    5  A    between atoms: C_8  and  C_17
                            x       y       z     vdW  Elec       q    Type
                         _______ _______ _______ _____ _____    ______ ____

>  <TORSDO>
F 5

$$$$
=
 OpenBabel11042415113D

 27 29  0  0  1  0  0  0  0  0999 V2000
  188.2430  178.3020  141.0750 O   0  0  0  0  0  0  0  0  0  0  0  0
  188.5460  175.8920  143.3760 C   0  0  1  0  0  3  0  0  0  0  0  0
  186.9650  177.6990  144.3700 C   0  0  0  0  0  0  0  0  0  0  0  0
  187.9670  176.0410  145.7160 O   0  0  0  0  0  0  0  0  0  0  0  0
  185.8760  177.7240  140.7210 O   0  0  0  0  0  0  0  0  0  0  0  0
  187.0500  177.5910  141.6500 S   0  0  0  0  0  0  0  0  0  0  0  0
  187.4770  175.5630  141.9290 S   0  0  0  0  0  0  0  0  0  0  0  0
  186.3550  178.5410  145.4460 C   0  0  1  0  0  3  0  0  0  0  0  0
  186.6370  178.2470  143.2160 C   0  0  0  0  0  0  0  0  0  0  0  0
  187.8100  176.5020  144.5540 C   0  0  0  0  0  0  0  0  0  0  0  0
  185.6830  179.5780  144.6660 N   0  0  0  0  0  0  0  0  0  0  0  0
  185.8450  179.4010  143.4180 N   0  0  0  0  0  0  0  0  0  0  0  0
  185.3560  177.7720  146.1970 C   0  0  0  0  0  0  0  0  0  0  0  0
  184.5670  177.1650  146.7880 N   0  0  0  0  0  0  0  0  0  0  0  0
  189.4750  174.7000  143.6880 C   0  0  1  0  0  3  0  0  0  0  0  0
  188.9380  173.4810  142.9420 C   0  0  0  0  0  1  0  0  0  0  0  0
  192.8980  175.5450  144.5370 C   0  0  1  0  0  3  0  0  0  0  0  0
  191.7230  174.5910  144.4960 C   0  0  0  0  0  2  0  0  0  0  0  0
  190.8890  174.9490  143.3500 N   0  0  0  0  0  0  0  0  0  0  0  0
  192.5210  176.6880  143.6260 C   0  0  0  0  0  2  0  0  0  0  0  0
  191.1090  176.3820  143.1820 C   0  0  0  0  0  2  0  0  0  0  0  0
  193.1360  176.0280  145.9300 C   0  0  0  0  0  0  0  0  0  0  0  0
  194.1860  175.6670  146.5250 O   0  0  0  0  0  0  0  0  0  0  0  0
  191.2650  175.2280  148.0110 N   0  0  0  0  0  1  0  0  0  0  0  0
  191.3270  176.5560  147.4940 C   0  0  0  0  0  0  0  0  0  0  0  0
  192.1720  176.8880  146.5650 N   0  0  0  0  0  0  0  0  0  0  0  0
  190.4420  177.5410  148.0130 N   0  0  0  0  0  1  0  0  0  0  0  0
  1  6  2  0  0  0  0
  2 15  1  1  0  0  0
  2 10  1  0  0  0  0
  3 10  1  0  0  0  0
  3  8  1  0  0  0  0
  5  6  2  0  0  0  0
  6  7  1  0  0  0  0
  6  9  1  0  0  0  0
  7  2  1  0  0  0  0
  8 13  1  6  0  0  0
  9 12  1  0  0  0  0
  9  3  2  0  0  0  0
 10  4  2  0  0  0  0
 11  8  1  0  0  0  0
 12 11  2  0  0  0  0
 13 14  3  0  0  0  0
 15 16  1  6  0  0  0
 17 22  1  1  0  0  0
 18 17  1  0  0  0  0
 19 15  1  0  0  0  0
 19 18  1  0  0  0  0
 20 17  1  0  0  0  0
 21 19  1  0  0  0  0
 21 20  1  0  0  0  0
 22 23  2  0  0  0  0
 22 26  1  0  0  0  0
 25 24  1  0  0  0  0
 25 27  1  0  0  0  0
 26 25  2  0  0  0  0
M  END
>  <MODEL>
6

>  <REMARK>
 VINA RESULT:      -6.4      2.194      3.230
  Name = 
  5 active torsions:
  status: ('A' for Active; 'I' for Inactive)
    1  A    between atoms: C_2  and  C_6
    2  A    between atoms: C_5  and  C_9
    3  A    between atoms: C_6  and  N_19
    4  A    between atoms: N_7  and  C_9
    5  A    between atoms: C_8  and  C_17
                            x       y       z     vdW  Elec       q    Type
                         _______ _______ _______ _____ _____    ______ ____

>  <TORSDO>
F 5

$$$$
=
 OpenBabel11042415113D

 27 29  0  0  1  0  0  0  0  0999 V2000
  194.6340  176.5790  146.4330 O   0  0  0  0  0  0  0  0  0  0  0  0
  192.4060  175.4810  144.1920 C   0  0  1  0  0  3  0  0  0  0  0  0
  194.6080  175.9710  142.9010 C   0  0  0  0  0  0  0  0  0  0  0  0
  192.5460  175.6850  141.7900 O   0  0  0  0  0  0  0  0  0  0  0  0
  195.9870  174.5420  146.1490 O   0  0  0  0  0  0  0  0  0  0  0  0
  194.9090  175.3980  145.5460 S   0  0  0  0  0  0  0  0  0  0  0  0
  193.1780  174.2510  145.3040 S   0  0  0  0  0  0  0  0  0  0  0  0
  195.4450  176.4060  141.7390 C   0  0  1  0  0  3  0  0  0  0  0  0
  195.4000  175.9250  143.9540 C   0  0  0  0  0  0  0  0  0  0  0  0
  193.1590  175.6840  142.8910 C   0  0  0  0  0  0  0  0  0  0  0  0
  196.7560  176.5680  142.3630 N   0  0  0  0  0  0  0  0  0  0  0  0
  196.7200  176.2920  143.6030 N   0  0  0  0  0  0  0  0  0  0  0  0
  195.5140  175.3440  140.7280 C   0  0  0  0  0  0  0  0  0  0  0  0
  195.5670  174.5060  139.9320 N   0  0  0  0  0  0  0  0  0  0  0  0
  190.8810  175.2790  144.0800 C   0  0  1  0  0  3  0  0  0  0  0  0
  190.4260  174.4740  145.2940 C   0  0  0  0  0  1  0  0  0  0  0  0
  188.2050  177.5380  145.0230 C   0  0  1  0  0  3  0  0  0  0  0  0
  189.5400  176.8640  145.2660 C   0  0  0  0  0  2  0  0  0  0  0  0
  190.1250  176.5400  143.9660 N   0  0  0  0  0  0  0  0  0  0  0  0
  187.8640  177.2500  143.5820 C   0  0  0  0  0  2  0  0  0  0  0  0
  188.9710  176.3450  143.0930 C   0  0  0  0  0  2  0  0  0  0  0  0
  187.1640  176.9860  145.9400 C   0  0  0  0  0  0  0  0  0  0  0  0
  187.5110  176.1560  146.8230 O   0  0  0  0  0  0  0  0  0  0  0  0
  185.9170  179.1940  147.3670 N   0  0  0  0  0  1  0  0  0  0  0  0
  185.2140  178.3850  146.4270 C   0  0  0  0  0  0  0  0  0  0  0  0
  185.7940  177.4040  145.8020 N   0  0  0  0  0  0  0  0  0  0  0  0
  183.8440  178.6610  146.1670 N   0  0  0  0  0  1  0  0  0  0  0  0
  2 15  1  6  0  0  0
  2  7  1  0  0  0  0
  3  9  2  0  0  0  0
  4 10  2  0  0  0  0
  6  5  2  0  0  0  0
  6  1  2  0  0  0  0
  7  6  1  0  0  0  0
  8 13  1  6  0  0  0
  8 11  1  0  0  0  0
  8  3  1  0  0  0  0
  9  6  1  0  0  0  0
 10  3  1  0  0  0  0
 10  2  1  0  0  0  0
 11 12  2  0  0  0  0
 12  9  1  0  0  0  0
 14 13  3  0  0  0  0
 15 16  1  1  0  0  0
 17 18  1  0  0  0  0
 17 22  1  1  0  0  0
 19 15  1  0  0  0  0
 19 18  1  0  0  0  0
 20 17  1  0  0  0  0
 21 20  1  0  0  0  0
 21 19  1  0  0  0  0
 22 23  2  0  0  0  0
 25 24  1  0  0  0  0
 26 22  1  0  0  0  0
 26 25  2  0  0  0  0
 27 25  1  0  0  0  0
M  END
>  <MODEL>
7

>  <REMARK>
 VINA RESULT:      -6.3      2.698      8.595
  Name = 
  5 active torsions:
  status: ('A' for Active; 'I' for Inactive)
    1  A    between atoms: C_2  and  C_6
    2  A    between atoms: C_5  and  C_9
    3  A    between atoms: C_6  and  N_19
    4  A    between atoms: N_7  and  C_9
    5  A    between atoms: C_8  and  C_17
                            x       y       z     vdW  Elec       q    Type
                         _______ _______ _______ _____ _____    ______ ____

>  <TORSDO>
F 5

$$$$
=
 OpenBabel11042415113D

 27 29  0  0  1  0  0  0  0  0999 V2000
  189.3540  175.4920  147.2660 O   0  0  0  0  0  0  0  0  0  0  0  0
  188.6130  175.9940  144.0420 C   0  0  1  0  0  3  0  0  0  0  0  0
  186.6260  176.9260  145.4340 C   0  0  0  0  0  0  0  0  0  0  0  0
  186.4440  176.5180  143.1180 O   0  0  0  0  0  0  0  0  0  0  0  0
  189.5710  177.9160  147.6370 O   0  0  0  0  0  0  0  0  0  0  0  0
  189.0240  176.8540  146.7240 S   0  0  0  0  0  0  0  0  0  0  0  0
  189.8470  177.0980  144.8180 S   0  0  0  0  0  0  0  0  0  0  0  0
  185.1950  177.2470  145.7320 C   0  0  1  0  0  3  0  0  0  0  0  0
  187.2950  177.0510  146.5640 C   0  0  0  0  0  0  0  0  0  0  0  0
  187.1890  176.5090  144.1340 C   0  0  0  0  0  0  0  0  0  0  0  0
  185.2500  177.5460  147.1620 N   0  0  0  0  0  0  0  0  0  0  0  0
  186.4320  177.4370  147.6160 N   0  0  0  0  0  0  0  0  0  0  0  0
  184.7730  178.4460  144.9990 C   0  0  0  0  0  0  0  0  0  0  0  0
  184.4420  179.3930  144.4220 N   0  0  0  0  0  0  0  0  0  0  0  0
  189.0760  175.4960  142.6570 C   0  0  1  0  0  3  0  0  0  0  0  0
  190.4590  176.0840  142.3880 C   0  0  0  0  0  1  0  0  0  0  0  0
  190.3500  172.1980  143.4620 C   0  0  1  0  0  3  0  0  0  0  0  0
  189.5570  173.4460  143.7890 C   0  0  0  0  0  2  0  0  0  0  0  0
  189.0900  174.0270  142.5320 N   0  0  0  0  0  0  0  0  0  0  0  0
  190.6500  172.2850  141.9860 C   0  0  0  0  0  2  0  0  0  0  0  0
  190.0980  173.6250  141.5560 C   0  0  0  0  0  2  0  0  0  0  0  0
  191.6110  172.1510  144.2620 C   0  0  0  0  0  0  0  0  0  0  0  0
  192.2890  171.0890  144.2620 O   0  0  0  0  0  0  0  0  0  0  0  0
  193.4860  174.1790  143.3450 N   0  0  0  0  0  1  0  0  0  0  0  0
  192.8620  174.2250  144.6260 C   0  0  0  0  0  0  0  0  0  0  0  0
  192.0270  173.3060  145.0120 N   0  0  0  0  0  0  0  0  0  0  0  0
  193.1600  175.3050  145.5010 N   0  0  0  0  0  1  0  0  0  0  0  0
  2 15  1  6  0  0  0
  2 10  1  0  0  0  0
  2  7  1  0  0  0  0
  3  8  1  0  0  0  0
  3  9  2  0  0  0  0
  4 10  2  0  0  0  0
  6  1  2  0  0  0  0
  6  5  2  0  0  0  0
  7  6  1  0  0  0  0
  8 13  1  6  0  0  0
  8 11  1  0  0  0  0
  9  6  1  0  0  0  0
  9 12  1  0  0  0  0
 10  3  1  0  0  0  0
 11 12  2  0  0  0  0
 14 13  3  0  0  0  0
 15 16  1  1  0  0  0
 17 18  1  0  0  0  0
 17 22  1  1  0  0  0
 19 15  1  0  0  0  0
 19 18  1  0  0  0  0
 20 17  1  0  0  0  0
 21 20  1  0  0  0  0
 21 19  1  0  0  0  0
 22 26  1  0  0  0  0
 23 22  2  0  0  0  0
 24 25  1  0  0  0  0
 25 26  2  0  0  0  0
 25 27  1  0  0  0  0
M  END
>  <MODEL>
8

>  <REMARK>
 VINA RESULT:      -6.2      2.627      4.305
  Name = 
  5 active torsions:
  status: ('A' for Active; 'I' for Inactive)
    1  A    between atoms: C_2  and  C_6
    2  A    between atoms: C_5  and  C_9
    3  A    between atoms: C_6  and  N_19
    4  A    between atoms: N_7  and  C_9
    5  A    between atoms: C_8  and  C_17
                            x       y       z     vdW  Elec       q    Type
                         _______ _______ _______ _____ _____    ______ ____

>  <TORSDO>
F 5

$$$$
=
 OpenBabel11042415113D

 27 29  0  0  1  0  0  0  0  0999 V2000
  190.1980  176.9570  146.5710 O   0  0  0  0  0  0  0  0  0  0  0  0
  191.1280  175.0630  143.9740 C   0  0  1  0  0  3  0  0  0  0  0  0
  193.2950  176.0660  145.0000 C   0  0  0  0  0  0  0  0  0  0  0  0
  193.2660  175.0920  142.8520 O   0  0  0  0  0  0  0  0  0  0  0  0
  191.2590  175.3910  148.1460 O   0  0  0  0  0  0  0  0  0  0  0  0
  191.1900  175.8370  146.7130 S   0  0  0  0  0  0  0  0  0  0  0  0
  190.6320  174.2150  145.5170 S   0  0  0  0  0  0  0  0  0  0  0  0
  194.6830  176.6250  144.9880 C   0  0  1  0  0  3  0  0  0  0  0  0
  192.7740  176.3450  146.1790 C   0  0  0  0  0  0  0  0  0  0  0  0
  192.6120  175.3660  143.8930 C   0  0  0  0  0  0  0  0  0  0  0  0
  194.7740  177.2190  146.3210 N   0  0  0  0  0  0  0  0  0  0  0  0
  193.7010  177.0520  146.9800 N   0  0  0  0  0  0  0  0  0  0  0  0
  195.6710  175.5480  144.8660 C   0  0  0  0  0  0  0  0  0  0  0  0
  196.4510  174.6980  144.7680 N   0  0  0  0  0  0  0  0  0  0  0  0
  190.4900  174.4130  142.7290 C   0  0  1  0  0  3  0  0  0  0  0  0
  189.5020  173.3530  143.2090 C   0  0  0  0  0  1  0  0  0  0  0  0
  187.9420  176.8650  141.9250 C   0  0  1  0  0  3  0  0  0  0  0  0
  189.2100  176.4300  142.6300 C   0  0  0  0  0  2  0  0  0  0  0  0
  189.8350  175.3800  141.8280 N   0  0  0  0  0  0  0  0  0  0  0  0
  187.6540  175.7870  140.9100 C   0  0  0  0  0  2  0  0  0  0  0  0
  188.7160  174.7370  141.1460 C   0  0  0  0  0  2  0  0  0  0  0  0
  186.8180  176.9970  142.9000 C   0  0  0  0  0  0  0  0  0  0  0  0
  186.1070  175.9860  143.1460 O   0  0  0  0  0  0  0  0  0  0  0  0
  184.3620  178.5430  142.6740 N   0  0  0  0  0  1  0  0  0  0  0  0
  185.4790  178.9720  143.4510 C   0  0  0  0  0  0  0  0  0  0  0  0
  186.5650  178.2630  143.5350 N   0  0  0  0  0  0  0  0  0  0  0  0
  185.4000  180.2070  144.1510 N   0  0  0  0  0  1  0  0  0  0  0  0
  1  6  2  0  0  0  0
  2 15  1  6  0  0  0
  2  7  1  0  0  0  0
  3  9  2  0  0  0  0
  4 10  2  0  0  0  0
  6  5  2  0  0  0  0
  7  6  1  0  0  0  0
  8 13  1  1  0  0  0
  8  3  1  0  0  0  0
  8 11  1  0  0  0  0
  9  6  1  0  0  0  0
  9 12  1  0  0  0  0
 10  2  1  0  0  0  0
 10  3  1  0  0  0  0
 11 12  2  0  0  0  0
 14 13  3  0  0  0  0
 15 16  1  1  0  0  0
 17 18  1  0  0  0  0
 17 22  1  1  0  0  0
 19 18  1  0  0  0  0
 19 15  1  0  0  0  0
 20 21  1  0  0  0  0
 20 17  1  0  0  0  0
 21 19  1  0  0  0  0
 22 23  2  0  0  0  0
 22 26  1  0  0  0  0
 24 25  1  0  0  0  0
 25 26  2  0  0  0  0
 25 27  1  0  0  0  0
M  END
>  <MODEL>
9

>  <REMARK>
 VINA RESULT:      -6.1      2.592      7.939
  Name = 
  5 active torsions:
  status: ('A' for Active; 'I' for Inactive)
    1  A    between atoms: C_2  and  C_6
    2  A    between atoms: C_5  and  C_9
    3  A    between atoms: C_6  and  N_19
    4  A    between atoms: N_7  and  C_9
    5  A    between atoms: C_8  and  C_17
                            x       y       z     vdW  Elec       q    Type
                         _______ _______ _______ _____ _____    ______ ____

>  <TORSDO>
F 5

$$$$
