=
 OpenBabel11042418113D

 25 28  0  0  1  0  0  0  0  0999 V2000
  189.4480  176.4460  142.8840 C   0  0  0  0  0  3  0  0  0  0  0  0
  189.7940  176.6860  144.1570 C   0  0  0  0  0  0  0  0  0  0  0  0
  188.1680  173.2380  142.0890 O   0  0  0  0  0  0  0  0  0  0  0  0
  188.2270  175.7700  142.3790 C   0  0  0  0  0  0  0  0  0  0  0  0
  188.1980  174.4670  142.2320 C   0  0  0  0  0  0  0  0  0  0  0  0
  183.9770  178.2240  143.0770 N   0  0  0  0  0  1  0  0  0  0  0  0
  186.0680  177.0180  142.7210 C   0  0  0  0  0  3  0  0  0  0  0  0
  187.0590  176.9800  140.5200 C   0  0  0  0  0  3  0  0  0  0  0  0
  186.0010  177.7620  140.0520 C   0  0  0  0  0  3  0  0  0  0  0  0
  187.1020  176.5950  141.8690 C   0  0  0  0  0  0  0  0  0  0  0  0
  185.0140  178.1530  140.9030 N   0  0  0  0  0  0  0  0  0  0  0  0
  185.0270  177.7990  142.2160 C   0  0  0  0  0  0  0  0  0  0  0  0
  188.3250  177.5250  145.8760 N   0  0  1  0  0  0  0  0  0  0  0  0
  189.4120  176.9020  146.4660 O   0  0  0  0  0  0  0  0  0  0  0  0
  188.9260  176.3290  145.3300 C   0  0  2  0  0  3  0  0  0  0  0  0
  187.1500  177.1050  146.6200 C   0  0  2  0  0  3  0  0  0  0  0  0
  186.0020  177.8280  146.1690 C   0  0  2  0  0  3  0  0  0  0  0  0
  186.7310  178.9990  148.4510 O   0  0  0  0  0  0  0  0  0  0  0  0
  186.6570  178.2720  147.4750 C   0  0  0  0  0  0  0  0  0  0  0  0
  184.7960  177.0830  146.4760 N   0  0  0  0  0  1  0  0  0  0  0  0
  191.1370  177.2850  144.4110 C   0  0  0  0  0  2  0  0  0  0  0  0
  193.3720  176.8520  144.8860 C   0  0  1  0  0  3  0  0  0  0  0  0
  194.5460  175.9850  144.4740 C   0  0  0  0  0  1  0  0  0  0  0  0
  192.1430  176.2360  144.4440 N   0  0  0  0  0  0  0  0  0  0  0  0
  192.5860  176.1620  145.7550 O   0  0  0  0  0  0  0  0  0  0  0  0
  1  2  2  0  0  0  0
  2 21  1  0  0  0  0
  3  5  2  0  0  0  0
  4  1  1  0  0  0  0
  5  4  2  0  0  0  0
  8 10  1  0  0  0  0
  9  8  2  0  0  0  0
  9 11  1  0  0  0  0
 10  4  1  0  0  0  0
 10  7  2  0  0  0  0
 11 12  2  0  0  0  0
 12  7  1  0  0  0  0
 12  6  1  0  0  0  0
 13 14  1  1  0  0  0
 13 16  1  0  0  0  0
 15  2  1  6  0  0  0
 15 13  1  0  0  0  0
 15 14  1  0  0  0  0
 16 19  1  1  0  0  0
 17 20  1  1  0  0  0
 17 16  1  0  0  0  0
 17 19  1  0  0  0  0
 19 18  2  0  0  0  0
 21 24  1  0  0  0  0
 22 23  1  6  0  0  0
 22 25  1  0  0  0  0
 24 22  1  0  0  0  0
 24 25  1  0  0  0  0
M  END
>  <MODEL>
1

>  <REMARK>
 VINA RESULT:      -6.3      0.000      0.000
  Name = 
  6 active torsions:
  status: ('A' for Active; 'I' for Inactive)
    1  A    between atoms: N_6  and  C_7
    2  A    between atoms: C_11  and  C_12
    3  A    between atoms: C_12  and  C_15
    4  A    between atoms: C_16  and  C_25
    5  A    between atoms: N_21  and  C_23
    6  A    between atoms: C_23  and  C_25
                            x       y       z     vdW  Elec       q    Type
                         _______ _______ _______ _____ _____    ______ ____

>  <TORSDO>
F 6

$$$$
=
 OpenBabel11042418113D

 25 28  0  0  1  0  0  0  0  0999 V2000
  187.5170  176.1530  144.5210 C   0  0  0  0  0  3  0  0  0  0  0  0
  188.2960  176.8820  145.3330 C   0  0  0  0  0  0  0  0  0  0  0  0
  189.6180  174.5060  142.1890 O   0  0  0  0  0  0  0  0  0  0  0  0
  187.6820  175.9140  143.0650 C   0  0  0  0  0  0  0  0  0  0  0  0
  188.6780  175.1890  142.6160 C   0  0  0  0  0  0  0  0  0  0  0  0
  183.5220  178.3830  141.9870 N   0  0  0  0  0  1  0  0  0  0  0  0
  185.5730  177.1690  142.5060 C   0  0  0  0  0  3  0  0  0  0  0  0
  187.2390  176.8610  140.7870 C   0  0  0  0  0  3  0  0  0  0  0  0
  186.4230  177.5640  139.8980 C   0  0  0  0  0  3  0  0  0  0  0  0
  186.8180  176.6530  142.1090 C   0  0  0  0  0  0  0  0  0  0  0  0
  185.2210  178.0480  140.3130 N   0  0  0  0  0  0  0  0  0  0  0  0
  184.7840  177.8650  141.5880 C   0  0  0  0  0  0  0  0  0  0  0  0
  190.6980  176.7370  145.1710 N   0  0  1  0  0  0  0  0  0  0  0  0
  190.3560  177.8350  145.9420 O   0  0  0  0  0  0  0  0  0  0  0  0
  189.5520  177.5670  144.8760 C   0  0  2  0  0  3  0  0  0  0  0  0
  191.7690  177.1660  144.2880 C   0  0  2  0  0  3  0  0  0  0  0  0
  192.4160  176.0270  143.7150 C   0  0  2  0  0  3  0  0  0  0  0  0
  194.0270  176.8520  145.6730 O   0  0  0  0  0  0  0  0  0  0  0  0
  193.1090  176.7310  144.8800 C   0  0  0  0  0  0  0  0  0  0  0  0
  193.0740  176.4010  142.4780 N   0  0  0  0  0  1  0  0  0  0  0  0
  187.8500  177.0610  146.7460 C   0  0  0  0  0  2  0  0  0  0  0  0
  185.6440  177.5050  147.3310 C   0  0  1  0  0  3  0  0  0  0  0  0
  184.4500  178.3660  146.9670 C   0  0  0  0  0  1  0  0  0  0  0  0
  186.8480  178.1110  146.8140 N   0  0  0  0  0  0  0  0  0  0  0  0
  186.4750  178.2090  148.1450 O   0  0  0  0  0  0  0  0  0  0  0  0
  1  2  2  0  0  0  0
  2 21  1  0  0  0  0
  3  5  2  0  0  0  0
  4  1  1  0  0  0  0
  5  4  2  0  0  0  0
  8 10  2  0  0  0  0
  9 11  2  0  0  0  0
  9  8  1  0  0  0  0
 10  7  1  0  0  0  0
 10  4  1  0  0  0  0
 11 12  1  0  0  0  0
 12  6  1  0  0  0  0
 12  7  2  0  0  0  0
 13 14  1  1  0  0  0
 15 13  1  0  0  0  0
 15  2  1  1  0  0  0
 15 14  1  0  0  0  0
 16 19  1  1  0  0  0
 16 13  1  0  0  0  0
 17 20  1  6  0  0  0
 17 16  1  0  0  0  0
 17 19  1  0  0  0  0
 19 18  2  0  0  0  0
 21 24  1  0  0  0  0
 22 23  1  6  0  0  0
 22 25  1  0  0  0  0
 24 22  1  0  0  0  0
 24 25  1  0  0  0  0
M  END
>  <MODEL>
2

>  <REMARK>
 VINA RESULT:      -6.1      1.237      4.853
  Name = 
  6 active torsions:
  status: ('A' for Active; 'I' for Inactive)
    1  A    between atoms: N_6  and  C_7
    2  A    between atoms: C_11  and  C_12
    3  A    between atoms: C_12  and  C_15
    4  A    between atoms: C_16  and  C_25
    5  A    between atoms: N_21  and  C_23
    6  A    between atoms: C_23  and  C_25
                            x       y       z     vdW  Elec       q    Type
                         _______ _______ _______ _____ _____    ______ ____

>  <TORSDO>
F 6

$$$$
=
 OpenBabel11042418113D

 25 28  0  0  1  0  0  0  0  0999 V2000
  188.4750  177.4750  144.8640 C   0  0  0  0  0  3  0  0  0  0  0  0
  187.5390  177.2890  143.9220 C   0  0  0  0  0  0  0  0  0  0  0  0
  188.6540  174.9340  147.3280 O   0  0  0  0  0  0  0  0  0  0  0  0
  189.4070  176.4730  145.4410 C   0  0  0  0  0  0  0  0  0  0  0  0
  189.0180  175.6810  146.4110 C   0  0  0  0  0  0  0  0  0  0  0  0
  194.2360  176.3590  146.5500 N   0  0  0  0  0  1  0  0  0  0  0  0
  191.8620  176.4170  145.9920 C   0  0  0  0  0  3  0  0  0  0  0  0
  191.1880  176.5900  143.6810 C   0  0  0  0  0  3  0  0  0  0  0  0
  192.5340  176.6050  143.3100 C   0  0  0  0  0  3  0  0  0  0  0  0
  190.8360  176.4980  145.0360 C   0  0  0  0  0  0  0  0  0  0  0  0
  193.5040  176.5280  144.2610 N   0  0  0  0  0  0  0  0  0  0  0  0
  193.1960  176.4360  145.5830 C   0  0  0  0  0  0  0  0  0  0  0  0
  188.0850  175.9180  142.0150 N   0  0  1  0  0  0  0  0  0  0  0  0
  186.7230  176.1720  142.0220 O   0  0  0  0  0  0  0  0  0  0  0  0
  187.3110  175.9730  143.2340 C   0  0  2  0  0  3  0  0  0  0  0  0
  188.2440  174.5140  141.6780 C   0  0  2  0  0  3  0  0  0  0  0  0
  189.6000  174.2500  141.3110 C   0  0  2  0  0  3  0  0  0  0  0  0
  188.2550  174.3980  139.0130 O   0  0  0  0  0  0  0  0  0  0  0  0
  188.5710  174.3900  140.1910 C   0  0  0  0  0  0  0  0  0  0  0  0
  189.9000  172.8440  141.5020 N   0  0  0  0  0  1  0  0  0  0  0  0
  186.6480  178.4390  143.5920 C   0  0  0  0  0  2  0  0  0  0  0  0
  185.1320  179.1740  145.1950 C   0  0  1  0  0  3  0  0  0  0  0  0
  184.0360  178.6950  146.1280 C   0  0  0  0  0  1  0  0  0  0  0  0
  185.3220  178.2060  144.1420 N   0  0  0  0  0  0  0  0  0  0  0  0
  184.6110  179.3800  143.9570 O   0  0  0  0  0  0  0  0  0  0  0  0
  1  4  1  0  0  0  0
  2  1  2  0  0  0  0
  4  5  2  0  0  0  0
  5  3  2  0  0  0  0
  8 10  1  0  0  0  0
  9  8  2  0  0  0  0
  9 11  1  0  0  0  0
 10  4  1  0  0  0  0
 10  7  2  0  0  0  0
 11 12  2  0  0  0  0
 12  7  1  0  0  0  0
 12  6  1  0  0  0  0
 13 14  1  6  0  0  0
 13 15  1  0  0  0  0
 14 15  1  0  0  0  0
 15  2  1  1  0  0  0
 16 19  1  6  0  0  0
 16 13  1  0  0  0  0
 17 20  1  1  0  0  0
 17 16  1  0  0  0  0
 18 19  2  0  0  0  0
 19 17  1  0  0  0  0
 21  2  1  0  0  0  0
 21 24  1  0  0  0  0
 22 23  1  1  0  0  0
 24 22  1  0  0  0  0
 25 24  1  0  0  0  0
 25 22  1  0  0  0  0
M  END
>  <MODEL>
3

>  <REMARK>
 VINA RESULT:      -6.1      2.476      7.045
  Name = 
  6 active torsions:
  status: ('A' for Active; 'I' for Inactive)
    1  A    between atoms: N_6  and  C_7
    2  A    between atoms: C_11  and  C_12
    3  A    between atoms: C_12  and  C_15
    4  A    between atoms: C_16  and  C_25
    5  A    between atoms: N_21  and  C_23
    6  A    between atoms: C_23  and  C_25
                            x       y       z     vdW  Elec       q    Type
                         _______ _______ _______ _____ _____    ______ ____

>  <TORSDO>
F 6

$$$$
=
 OpenBabel11042418113D

 25 28  0  0  1  0  0  0  0  0999 V2000
  187.3810  177.6590  144.3010 C   0  0  0  0  0  3  0  0  0  0  0  0
  187.1930  177.0830  143.1040 C   0  0  0  0  0  0  0  0  0  0  0  0
  185.9720  176.9270  147.4700 O   0  0  0  0  0  0  0  0  0  0  0  0
  187.6970  177.0010  145.5940 C   0  0  0  0  0  0  0  0  0  0  0  0
  186.8080  176.9620  146.5570 C   0  0  0  0  0  0  0  0  0  0  0  0
  192.5730  177.2400  144.7410 N   0  0  0  0  0  1  0  0  0  0  0  0
  190.1750  177.1130  145.1680 C   0  0  0  0  0  3  0  0  0  0  0  0
  189.3410  175.5480  146.8060 C   0  0  0  0  0  3  0  0  0  0  0  0
  190.6520  175.1340  147.0490 C   0  0  0  0  0  3  0  0  0  0  0  0
  189.0870  176.5470  145.8540 C   0  0  0  0  0  0  0  0  0  0  0  0
  191.6830  175.7000  146.3650 N   0  0  0  0  0  0  0  0  0  0  0  0
  191.4720  176.6720  145.4380 C   0  0  0  0  0  0  0  0  0  0  0  0
  188.6990  175.2870  142.5370 N   0  0  1  0  0  0  0  0  0  0  0  0
  187.7020  175.3680  141.5800 O   0  0  0  0  0  0  0  0  0  0  0  0
  187.3290  175.6060  142.8680 C   0  0  2  0  0  3  0  0  0  0  0  0
  188.8870  173.8760  142.8250 C   0  0  2  0  0  3  0  0  0  0  0  0
  190.0420  173.6930  143.6460 C   0  0  2  0  0  3  0  0  0  0  0  0
  190.8120  173.0430  141.1770 O   0  0  0  0  0  0  0  0  0  0  0  0
  190.1720  173.3950  142.1540 C   0  0  0  0  0  0  0  0  0  0  0  0
  189.9420  172.4410  144.3710 N   0  0  0  0  0  1  0  0  0  0  0  0
  186.7720  177.9590  141.9720 C   0  0  0  0  0  2  0  0  0  0  0  0
  184.9460  178.5620  140.6660 C   0  0  1  0  0  3  0  0  0  0  0  0
  183.4590  178.3220  140.4860 C   0  0  0  0  0  1  0  0  0  0  0  0
  185.5210  177.4720  141.4140 N   0  0  0  0  0  0  0  0  0  0  0  0
  185.6400  177.5760  140.0380 O   0  0  0  0  0  0  0  0  0  0  0  0
  1  4  1  0  0  0  0
  2  1  2  0  0  0  0
  4 10  1  0  0  0  0
  4  5  2  0  0  0  0
  5  3  2  0  0  0  0
  6 12  1  0  0  0  0
  7 12  2  0  0  0  0
  7 10  1  0  0  0  0
  8  9  1  0  0  0  0
 10  8  2  0  0  0  0
 11  9  2  0  0  0  0
 12 11  1  0  0  0  0
 13 14  1  6  0  0  0
 13 16  1  0  0  0  0
 13 15  1  0  0  0  0
 14 15  1  0  0  0  0
 15  2  1  6  0  0  0
 16 19  1  6  0  0  0
 16 17  1  0  0  0  0
 17 20  1  1  0  0  0
 18 19  2  0  0  0  0
 19 17  1  0  0  0  0
 21  2  1  0  0  0  0
 22 23  1  6  0  0  0
 22 24  1  0  0  0  0
 24 21  1  0  0  0  0
 25 22  1  0  0  0  0
 25 24  1  0  0  0  0
M  END
>  <MODEL>
4

>  <REMARK>
 VINA RESULT:      -6.0      2.432      6.995
  Name = 
  6 active torsions:
  status: ('A' for Active; 'I' for Inactive)
    1  A    between atoms: N_6  and  C_7
    2  A    between atoms: C_11  and  C_12
    3  A    between atoms: C_12  and  C_15
    4  A    between atoms: C_16  and  C_25
    5  A    between atoms: N_21  and  C_23
    6  A    between atoms: C_23  and  C_25
                            x       y       z     vdW  Elec       q    Type
                         _______ _______ _______ _____ _____    ______ ____

>  <TORSDO>
F 6

$$$$
=
 OpenBabel11042418113D

 25 28  0  0  1  0  0  0  0  0999 V2000
  187.6860  176.4150  144.2960 C   0  0  0  0  0  3  0  0  0  0  0  0
  188.2630  176.9460  145.3850 C   0  0  0  0  0  0  0  0  0  0  0  0
  188.4150  178.2290  141.3410 O   0  0  0  0  0  0  0  0  0  0  0  0
  188.2670  176.2500  142.9400 C   0  0  0  0  0  0  0  0  0  0  0  0
  188.3440  177.2690  142.1190 C   0  0  0  0  0  0  0  0  0  0  0  0
  188.2020  172.7640  139.4180 N   0  0  0  0  0  1  0  0  0  0  0  0
  188.2390  174.4720  141.1590 C   0  0  0  0  0  3  0  0  0  0  0  0
  189.2780  173.9820  143.2830 C   0  0  0  0  0  3  0  0  0  0  0  0
  189.5870  172.7030  142.8140 C   0  0  0  0  0  3  0  0  0  0  0  0
  188.5940  174.8850  142.4540 C   0  0  0  0  0  0  0  0  0  0  0  0
  189.2270  172.3330  141.5550 N   0  0  0  0  0  0  0  0  0  0  0  0
  188.5650  173.1850  140.7270 C   0  0  0  0  0  0  0  0  0  0  0  0
  190.5760  176.3420  145.6990 N   0  0  1  0  0  0  0  0  0  0  0  0
  190.2140  177.2780  146.6530 O   0  0  0  0  0  0  0  0  0  0  0  0
  189.6810  177.4400  145.4100 C   0  0  2  0  0  3  0  0  0  0  0  0
  191.8900  176.7290  145.2150 C   0  0  2  0  0  3  0  0  0  0  0  0
  192.3790  175.7510  144.2930 C   0  0  2  0  0  3  0  0  0  0  0  0
  193.6380  175.2580  146.5920 O   0  0  0  0  0  0  0  0  0  0  0  0
  192.9250  175.7240  145.7200 C   0  0  0  0  0  0  0  0  0  0  0  0
  193.3710  176.3470  143.4190 N   0  0  0  0  0  1  0  0  0  0  0  0
  187.4240  177.1030  146.6080 C   0  0  0  0  0  2  0  0  0  0  0  0
  185.1800  177.6760  146.8180 C   0  0  1  0  0  3  0  0  0  0  0  0
  184.0880  178.5220  146.1920 C   0  0  0  0  0  1  0  0  0  0  0  0
  186.4700  178.1820  146.4140 N   0  0  0  0  0  0  0  0  0  0  0  0
  185.9210  178.4460  147.6580 O   0  0  0  0  0  0  0  0  0  0  0  0
  1  2  2  0  0  0  0
  2 21  1  0  0  0  0
  3  5  2  0  0  0  0
  4  1  1  0  0  0  0
  5  4  2  0  0  0  0
  6 12  1  0  0  0  0
  7 10  1  0  0  0  0
  9  8  1  0  0  0  0
 10  4  1  0  0  0  0
 10  8  2  0  0  0  0
 11  9  2  0  0  0  0
 12  7  2  0  0  0  0
 12 11  1  0  0  0  0
 13 14  1  1  0  0  0
 15  2  1  1  0  0  0
 15 13  1  0  0  0  0
 15 14  1  0  0  0  0
 16 13  1  0  0  0  0
 16 19  1  1  0  0  0
 17 20  1  6  0  0  0
 17 16  1  0  0  0  0
 17 19  1  0  0  0  0
 19 18  2  0  0  0  0
 22 23  1  6  0  0  0
 22 25  1  0  0  0  0
 24 21  1  0  0  0  0
 24 22  1  0  0  0  0
 24 25  1  0  0  0  0
M  END
>  <MODEL>
5

>  <REMARK>
 VINA RESULT:      -6.0      2.430      5.867
  Name = 
  6 active torsions:
  status: ('A' for Active; 'I' for Inactive)
    1  A    between atoms: N_6  and  C_7
    2  A    between atoms: C_11  and  C_12
    3  A    between atoms: C_12  and  C_15
    4  A    between atoms: C_16  and  C_25
    5  A    between atoms: N_21  and  C_23
    6  A    between atoms: C_23  and  C_25
                            x       y       z     vdW  Elec       q    Type
                         _______ _______ _______ _____ _____    ______ ____

>  <TORSDO>
F 6

$$$$
=
 OpenBabel11042418113D

 25 28  0  0  1  0  0  0  0  0999 V2000
  187.2460  176.7090  142.9100 C   0  0  0  0  0  3  0  0  0  0  0  0
  188.0450  177.4070  143.7310 C   0  0  0  0  0  0  0  0  0  0  0  0
  186.6860  177.5080  139.5030 O   0  0  0  0  0  0  0  0  0  0  0  0
  187.5400  176.2290  141.5360 C   0  0  0  0  0  0  0  0  0  0  0  0
  187.1010  176.8890  140.4910 C   0  0  0  0  0  0  0  0  0  0  0  0
  189.2900  171.9680  143.3650 N   0  0  0  0  0  1  0  0  0  0  0  0
  188.4320  174.0620  142.4540 C   0  0  0  0  0  3  0  0  0  0  0  0
  188.5280  174.4500  140.0730 C   0  0  0  0  0  3  0  0  0  0  0  0
  189.1200  173.1950  139.9130 C   0  0  0  0  0  3  0  0  0  0  0  0
  188.1780  174.9000  141.3560 C   0  0  0  0  0  0  0  0  0  0  0  0
  189.3560  172.4090  140.9980 N   0  0  0  0  0  0  0  0  0  0  0  0
  189.0270  172.8150  142.2540 C   0  0  0  0  0  0  0  0  0  0  0  0
  190.3810  176.8900  144.0330 N   0  0  1  0  0  0  0  0  0  0  0  0
  190.1300  178.1680  144.5040 O   0  0  0  0  0  0  0  0  0  0  0  0
  189.4550  177.7890  143.3830 C   0  0  2  0  0  3  0  0  0  0  0  0
  191.6280  176.9560  143.2910 C   0  0  2  0  0  3  0  0  0  0  0  0
  192.1480  175.6400  143.0890 C   0  0  2  0  0  3  0  0  0  0  0  0
  193.5690  176.6690  145.0970 O   0  0  0  0  0  0  0  0  0  0  0  0
  192.7710  176.4930  144.1920 C   0  0  0  0  0  0  0  0  0  0  0  0
  193.0350  175.6290  141.9430 N   0  0  0  0  0  1  0  0  0  0  0  0
  187.4720  177.8710  145.0280 C   0  0  0  0  0  2  0  0  0  0  0  0
  185.6010  178.7440  146.0980 C   0  0  1  0  0  3  0  0  0  0  0  0
  184.0970  178.5880  146.2180 C   0  0  0  0  0  1  0  0  0  0  0  0
  186.0510  178.1340  144.8710 N   0  0  0  0  0  0  0  0  0  0  0  0
  185.8900  179.5030  145.0080 O   0  0  0  0  0  0  0  0  0  0  0  0
  1  2  2  0  0  0  0
  2 21  1  0  0  0  0
  3  5  2  0  0  0  0
  4  1  1  0  0  0  0
  5  4  2  0  0  0  0
  8 10  1  0  0  0  0
  9  8  2  0  0  0  0
  9 11  1  0  0  0  0
 10  4  1  0  0  0  0
 10  7  2  0  0  0  0
 11 12  2  0  0  0  0
 12  7  1  0  0  0  0
 12  6  1  0  0  0  0
 13 14  1  1  0  0  0
 15  2  1  1  0  0  0
 15 13  1  0  0  0  0
 15 14  1  0  0  0  0
 16 13  1  0  0  0  0
 16 19  1  1  0  0  0
 17 20  1  6  0  0  0
 17 16  1  0  0  0  0
 17 19  1  0  0  0  0
 19 18  2  0  0  0  0
 22 23  1  6  0  0  0
 24 25  1  0  0  0  0
 24 21  1  0  0  0  0
 24 22  1  0  0  0  0
 25 22  1  0  0  0  0
M  END
>  <MODEL>
6

>  <REMARK>
 VINA RESULT:      -6.0      2.582      5.900
  Name = 
  6 active torsions:
  status: ('A' for Active; 'I' for Inactive)
    1  A    between atoms: N_6  and  C_7
    2  A    between atoms: C_11  and  C_12
    3  A    between atoms: C_12  and  C_15
    4  A    between atoms: C_16  and  C_25
    5  A    between atoms: N_21  and  C_23
    6  A    between atoms: C_23  and  C_25
                            x       y       z     vdW  Elec       q    Type
                         _______ _______ _______ _____ _____    ______ ____

>  <TORSDO>
F 6

$$$$
=
 OpenBabel11042418113D

 25 28  0  0  1  0  0  0  0  0999 V2000
  189.1540  177.2700  144.9600 C   0  0  0  0  0  3  0  0  0  0  0  0
  190.1090  176.3440  144.7850 C   0  0  0  0  0  0  0  0  0  0  0  0
  188.8070  178.2910  141.5840 O   0  0  0  0  0  0  0  0  0  0  0  0
  188.1400  177.7360  143.9820 C   0  0  0  0  0  0  0  0  0  0  0  0
  188.4840  178.0200  142.7480 C   0  0  0  0  0  0  0  0  0  0  0  0
  184.8450  178.3610  147.6310 N   0  0  0  0  0  1  0  0  0  0  0  0
  186.4580  178.0550  145.8260 C   0  0  0  0  0  3  0  0  0  0  0  0
  185.7560  178.3690  143.5380 C   0  0  0  0  0  3  0  0  0  0  0  0
  184.4720  178.6730  143.9950 C   0  0  0  0  0  3  0  0  0  0  0  0
  186.7690  178.0530  144.4560 C   0  0  0  0  0  0  0  0  0  0  0  0
  184.2030  178.6640  145.3290 N   0  0  0  0  0  0  0  0  0  0  0  0
  185.1620  178.3630  146.2450 C   0  0  0  0  0  0  0  0  0  0  0  0
  189.3060  174.4890  143.4710 N   0  0  1  0  0  0  0  0  0  0  0  0
  190.6350  174.2770  143.7980 O   0  0  0  0  0  0  0  0  0  0  0  0
  190.2750  175.5600  143.5150 C   0  0  2  0  0  3  0  0  0  0  0  0
  189.1560  174.1120  142.0760 C   0  0  2  0  0  3  0  0  0  0  0  0
  188.0390  174.7950  141.5020 C   0  0  2  0  0  3  0  0  0  0  0  0
  187.1790  172.3220  142.0110 O   0  0  0  0  0  0  0  0  0  0  0  0
  187.8530  173.3330  141.9060 C   0  0  0  0  0  0  0  0  0  0  0  0
  188.1910  174.8710  140.0620 N   0  0  0  0  0  1  0  0  0  0  0  0
  191.0840  176.1350  145.8950 C   0  0  0  0  0  2  0  0  0  0  0  0
  193.3160  176.2530  146.5350 C   0  0  1  0  0  3  0  0  0  0  0  0
  194.5370  177.1520  146.4920 C   0  0  0  0  0  1  0  0  0  0  0  0
  192.3830  176.6620  145.5130 N   0  0  0  0  0  0  0  0  0  0  0  0
  193.2200  175.5690  145.3640 O   0  0  0  0  0  0  0  0  0  0  0  0
  2  1  2  0  0  0  0
  2 21  1  0  0  0  0
  3  5  2  0  0  0  0
  4 10  1  0  0  0  0
  4  1  1  0  0  0  0
  5  4  2  0  0  0  0
  7 12  1  0  0  0  0
  8  9  2  0  0  0  0
  8 10  1  0  0  0  0
  9 11  1  0  0  0  0
 10  7  2  0  0  0  0
 11 12  2  0  0  0  0
 12  6  1  0  0  0  0
 13 15  1  0  0  0  0
 13 14  1  1  0  0  0
 15 14  1  0  0  0  0
 15  2  1  1  0  0  0
 16 19  1  1  0  0  0
 16 13  1  0  0  0  0
 17 20  1  6  0  0  0
 17 19  1  0  0  0  0
 17 16  1  0  0  0  0
 19 18  2  0  0  0  0
 22 23  1  6  0  0  0
 24 21  1  0  0  0  0
 24 22  1  0  0  0  0
 25 24  1  0  0  0  0
 25 22  1  0  0  0  0
M  END
>  <MODEL>
7

>  <REMARK>
 VINA RESULT:      -5.9      2.583      4.391
  Name = 
  6 active torsions:
  status: ('A' for Active; 'I' for Inactive)
    1  A    between atoms: N_6  and  C_7
    2  A    between atoms: C_11  and  C_12
    3  A    between atoms: C_12  and  C_15
    4  A    between atoms: C_16  and  C_25
    5  A    between atoms: N_21  and  C_23
    6  A    between atoms: C_23  and  C_25
                            x       y       z     vdW  Elec       q    Type
                         _______ _______ _______ _____ _____    ______ ____

>  <TORSDO>
F 6

$$$$
=
 OpenBabel11042418113D

 25 28  0  0  1  0  0  0  0  0999 V2000
  187.8270  177.7640  144.6550 C   0  0  0  0  0  3  0  0  0  0  0  0
  188.3670  177.0930  145.6840 C   0  0  0  0  0  0  0  0  0  0  0  0
  190.6860  177.9550  142.5690 O   0  0  0  0  0  0  0  0  0  0  0  0
  188.2340  177.7320  143.2280 C   0  0  0  0  0  0  0  0  0  0  0  0
  189.4960  177.8450  142.8900 C   0  0  0  0  0  0  0  0  0  0  0  0
  183.5060  178.2220  141.8210 N   0  0  0  0  0  1  0  0  0  0  0  0
  185.8360  177.9780  142.5020 C   0  0  0  0  0  3  0  0  0  0  0  0
  187.5260  177.5600  140.8300 C   0  0  0  0  0  3  0  0  0  0  0  0
  186.5330  177.5890  139.8480 C   0  0  0  0  0  3  0  0  0  0  0  0
  187.1840  177.7530  142.1770 C   0  0  0  0  0  0  0  0  0  0  0  0
  185.2360  177.8070  140.1970 N   0  0  0  0  0  0  0  0  0  0  0  0
  184.8720  177.9990  141.4930 C   0  0  0  0  0  0  0  0  0  0  0  0
  188.9970  174.8720  144.9870 N   0  0  1  0  0  0  0  0  0  0  0  0
  189.2920  175.0310  146.3300 O   0  0  0  0  0  0  0  0  0  0  0  0
  189.4960  176.1150  145.5310 C   0  0  2  0  0  3  0  0  0  0  0  0
  190.1300  174.1860  144.3910 C   0  0  2  0  0  3  0  0  0  0  0  0
  190.0330  174.2280  142.9650 C   0  0  2  0  0  3  0  0  0  0  0  0
  189.2300  171.7830  143.6630 O   0  0  0  0  0  0  0  0  0  0  0  0
  189.6340  172.9330  143.6700 C   0  0  0  0  0  0  0  0  0  0  0  0
  191.3460  174.0580  142.3740 N   0  0  0  0  0  1  0  0  0  0  0  0
  187.8470  177.3850  147.0520 C   0  0  0  0  0  2  0  0  0  0  0  0
  185.5250  177.3800  147.1660 C   0  0  1  0  0  3  0  0  0  0  0  0
  184.2880  178.0490  146.5990 C   0  0  0  0  0  1  0  0  0  0  0  0
  186.6700  178.2330  146.9590 N   0  0  0  0  0  0  0  0  0  0  0  0
  186.0220  178.1370  148.1790 O   0  0  0  0  0  0  0  0  0  0  0  0
  1  2  2  0  0  0  0
  2 21  1  0  0  0  0
  3  5  2  0  0  0  0
  4  1  1  0  0  0  0
  5  4  2  0  0  0  0
  8 10  2  0  0  0  0
  9 11  2  0  0  0  0
  9  8  1  0  0  0  0
 10  7  1  0  0  0  0
 10  4  1  0  0  0  0
 11 12  1  0  0  0  0
 12  6  1  0  0  0  0
 12  7  2  0  0  0  0
 13 15  1  0  0  0  0
 13 14  1  1  0  0  0
 15  2  1  1  0  0  0
 15 14  1  0  0  0  0
 16 19  1  1  0  0  0
 16 13  1  0  0  0  0
 17 20  1  6  0  0  0
 17 19  1  0  0  0  0
 17 16  1  0  0  0  0
 18 19  2  0  0  0  0
 22 23  1  6  0  0  0
 22 25  1  0  0  0  0
 24 21  1  0  0  0  0
 24 22  1  0  0  0  0
 24 25  1  0  0  0  0
M  END
>  <MODEL>
8

>  <REMARK>
 VINA RESULT:      -5.8      2.100      5.034
  Name = 
  6 active torsions:
  status: ('A' for Active; 'I' for Inactive)
    1  A    between atoms: N_6  and  C_7
    2  A    between atoms: C_11  and  C_12
    3  A    between atoms: C_12  and  C_15
    4  A    between atoms: C_16  and  C_25
    5  A    between atoms: N_21  and  C_23
    6  A    between atoms: C_23  and  C_25
                            x       y       z     vdW  Elec       q    Type
                         _______ _______ _______ _____ _____    ______ ____

>  <TORSDO>
F 6

$$$$
=
 OpenBabel11042418113D

 25 28  0  0  1  0  0  0  0  0999 V2000
  188.1840  177.9150  142.9240 C   0  0  0  0  0  3  0  0  0  0  0  0
  188.9410  176.8180  142.7720 C   0  0  0  0  0  0  0  0  0  0  0  0
  185.5200  178.3140  140.6220 O   0  0  0  0  0  0  0  0  0  0  0  0
  186.7050  178.0230  142.8590 C   0  0  0  0  0  0  0  0  0  0  0  0
  186.0970  178.1710  141.7070 C   0  0  0  0  0  0  0  0  0  0  0  0
  186.0350  176.9740  147.6570 N   0  0  0  0  0  1  0  0  0  0  0  0
  186.3550  177.4960  145.2960 C   0  0  0  0  0  3  0  0  0  0  0  0
  184.7690  178.9260  144.1700 C   0  0  0  0  0  3  0  0  0  0  0  0
  184.0540  179.0400  145.3640 C   0  0  0  0  0  3  0  0  0  0  0  0
  185.9330  178.1450  144.1230 C   0  0  0  0  0  0  0  0  0  0  0  0
  184.4880  178.3970  146.4820 N   0  0  0  0  0  0  0  0  0  0  0  0
  185.6130  177.6330  146.4710 C   0  0  0  0  0  0  0  0  0  0  0  0
  189.1200  174.7670  141.5150 N   0  0  1  0  0  0  0  0  0  0  0  0
  187.8810  175.3410  141.2820 O   0  0  0  0  0  0  0  0  0  0  0  0
  188.3710  175.4460  142.5490 C   0  0  2  0  0  3  0  0  0  0  0  0
  188.8930  173.3440  141.6940 C   0  0  2  0  0  3  0  0  0  0  0  0
  190.1390  172.6440  141.6770 C   0  0  2  0  0  3  0  0  0  0  0  0
  189.0750  172.2640  139.2610 O   0  0  0  0  0  0  0  0  0  0  0  0
  189.2840  172.6100  140.4120 C   0  0  0  0  0  0  0  0  0  0  0  0
  190.0040  171.3770  142.3710 N   0  0  0  0  0  1  0  0  0  0  0  0
  190.4230  176.9920  142.7690 C   0  0  0  0  0  2  0  0  0  0  0  0
  192.1970  177.1520  144.2630 C   0  0  1  0  0  3  0  0  0  0  0  0
  193.0860  176.3260  145.1730 C   0  0  0  0  0  1  0  0  0  0  0  0
  190.9870  176.4190  143.9800 N   0  0  0  0  0  0  0  0  0  0  0  0
  191.0380  177.4440  144.9100 O   0  0  0  0  0  0  0  0  0  0  0  0
  2  1  2  0  0  0  0
  3  5  2  0  0  0  0
  4  1  1  0  0  0  0
  4 10  1  0  0  0  0
  5  4  2  0  0  0  0
  7 12  1  0  0  0  0
  8  9  2  0  0  0  0
  9 11  1  0  0  0  0
 10  8  1  0  0  0  0
 10  7  2  0  0  0  0
 12 11  2  0  0  0  0
 12  6  1  0  0  0  0
 13 14  1  6  0  0  0
 13 16  1  0  0  0  0
 13 15  1  0  0  0  0
 14 15  1  0  0  0  0
 15  2  1  6  0  0  0
 16 19  1  6  0  0  0
 17 16  1  0  0  0  0
 17 20  1  1  0  0  0
 18 19  2  0  0  0  0
 19 17  1  0  0  0  0
 21  2  1  0  0  0  0
 21 24  1  0  0  0  0
 22 25  1  0  0  0  0
 22 23  1  1  0  0  0
 24 22  1  0  0  0  0
 24 25  1  0  0  0  0
M  END
>  <MODEL>
9

>  <REMARK>
 VINA RESULT:      -5.8      2.502      5.307
  Name = 
  6 active torsions:
  status: ('A' for Active; 'I' for Inactive)
    1  A    between atoms: N_6  and  C_7
    2  A    between atoms: C_11  and  C_12
    3  A    between atoms: C_12  and  C_15
    4  A    between atoms: C_16  and  C_25
    5  A    between atoms: N_21  and  C_23
    6  A    between atoms: C_23  and  C_25
                            x       y       z     vdW  Elec       q    Type
                         _______ _______ _______ _____ _____    ______ ____

>  <TORSDO>
F 6

$$$$
