=
 OpenBabel11042415463D

 54 62  0  0  1  0  0  0  0  0999 V2000
  194.9280  177.5700  145.5570 N   0  0  0  0  0  1  0  0  0  0  0  0
  192.6610  176.3410  145.4330 C   0  0  0  0  0  3  0  0  0  0  0  0
  192.3670  172.2150  144.3010 C   0  0  0  0  0  0  0  0  0  0  0  0
  193.9080  170.4780  143.7420 C   0  0  2  0  0  3  0  0  0  0  0  0
  196.1100  174.9710  144.6470 C   0  0  0  0  0  1  0  0  0  0  0  0
  192.5140  170.8550  143.9470 N   0  0  0  0  0  2  0  0  0  0  0  0
  193.5760  172.9490  144.3370 N   0  0  0  0  0  0  0  0  0  0  0  0
  193.5580  174.3220  144.7330 C   0  0  0  0  0  0  0  0  0  0  0  0
  194.6620  175.2510  144.8760 C   0  0  0  0  0  0  0  0  0  0  0  0
  192.4210  174.9140  145.0440 C   0  0  0  0  0  0  0  0  0  0  0  0
  191.1630  174.1930  144.9990 N   0  0  0  0  0  0  0  0  0  0  0  0
  194.1530  176.4080  145.2770 C   0  0  2  0  0  3  0  0  0  0  0  0
  191.1890  172.7950  144.6050 C   0  0  0  0  0  0  0  0  0  0  0  0
  194.9740  171.9850  143.8760 S   0  0  0  0  0  0  0  0  0  0  0  0
  189.9290  171.9870  144.5560 C   0  0  0  0  0  1  0  0  0  0  0  0
  189.8980  174.7820  145.3530 C   0  0  0  0  0  3  0  0  0  0  0  0
  189.4990  174.9890  146.6040 C   0  0  0  0  0  3  0  0  0  0  0  0
  188.1660  175.5910  146.8830 C   0  0  0  0  0  2  0  0  0  0  0  0
  188.1780  177.0740  146.5380 C   0  0  0  0  0  2  0  0  0  0  0  0
  188.1390  177.8050  144.0690 C   0  0  1  0  0  0  0  0  0  0  0  0
  187.3580  178.6990  144.8380 O   0  0  0  0  0  0  0  0  0  0  0  0
  187.3810  177.3540  145.2680 C   0  0  2  0  0  0  0  0  0  0  0  0
  185.5600  177.9360  140.3870 C   0  0  0  0  0  2  0  0  0  0  0  0
  185.4860  178.0850  141.7880 O   0  0  0  0  0  0  0  0  0  0  0  0
  186.8400  177.2400  139.8800 C   0  0  1  0  0  3  0  0  0  0  0  0
  187.5730  177.6460  142.7320 N   0  0  0  0  0  0  0  0  0  0  0  0
  187.3530  176.1650  140.7910 C   0  0  0  0  0  3  0  0  0  0  0  0
  186.6040  176.6920  138.5570 N   0  0  0  0  0  1  0  0  0  0  0  0
  186.6780  178.6830  142.2230 C   0  0  0  0  0  2  0  0  0  0  0  0
  187.7150  176.3800  142.0620 C   0  0  0  0  0  3  0  0  0  0  0  0
  189.4980  178.1490  144.1590 O   0  0  0  0  0  0  0  0  0  0  0  0
  190.0690  177.8140  142.9270 C   0  0  0  0  0  1  0  0  0  0  0  0
  186.2020  176.6360  144.9980 O   0  0  0  0  0  0  0  0  0  0  0  0
  185.1230  177.4990  145.2370 C   0  0  0  0  0  2  0  0  0  0  0  0
  184.6120  178.4740  147.4360 C   0  0  0  0  0  2  0  0  0  0  0  0
  184.6880  177.3910  146.6630 C   0  0  0  0  0  3  0  0  0  0  0  0
  194.0620  169.8370  142.3750 C   0  0  0  0  0  2  0  0  0  0  0  0
  194.5060  170.8270  141.4130 N   0  0  0  0  0  2  0  0  0  0  0  0
  193.7080  170.6340  140.2140 C   0  0  0  0  0  2  0  0  0  0  0  0
  193.3390  171.9820  139.6240 C   0  0  0  0  0  2  0  0  0  0  0  0
  193.0000  172.9730  140.7230 C   0  0  1  0  0  3  0  0  0  0  0  0
  194.4780  174.9120  141.1970 C   0  0  1  0  0  0  0  0  0  0  0  0
  193.3940  174.3750  140.2890 C   0  0  1  0  0  3  0  0  0  0  0  0
  194.8270  174.3860  139.8000 C   0  0  2  0  0  3  0  0  0  0  0  0
  196.0650  176.7130  141.3590 C   0  0  0  0  0  2  0  0  0  0  0  0
  196.8010  175.4930  140.8310 C   0  0  0  0  0  2  0  0  0  0  0  0
  194.5960  176.4200  141.1490 C   0  0  0  0  0  2  0  0  0  0  0  0
  195.8400  174.3180  140.9250 C   0  0  1  0  0  3  0  0  0  0  0  0
  191.5730  172.9310  140.9950 N   0  0  0  0  0  2  0  0  0  0  0  0
  190.9190  173.0110  139.7590 N   0  0  0  0  0  2  0  0  0  0  0  0
  189.7690  172.1170  139.8280 C   0  0  2  0  0  3  0  0  0  0  0  0
  188.5710  172.6400  139.0320 C   0  0  1  0  0  3  0  0  0  0  0  0
  188.6220  172.8090  140.5350 C   0  0  0  0  0  2  0  0  0  0  0  0
  188.8450  173.9190  138.3890 N   0  0  0  0  0  1  0  0  0  0  0  0
  3  7  1  0  0  0  0
  3 13  2  0  0  0  0
  4 37  1  6  0  0  0
  4 14  1  0  0  0  0
  4  6  1  0  0  0  0
  5  9  1  0  0  0  0
  6  3  1  0  0  0  0
  7  8  1  0  0  0  0
  8  9  2  0  0  0  0
  8 10  1  0  0  0  0
  9 12  1  0  0  0  0
 10  2  2  0  0  0  0
 11 10  1  0  0  0  0
 11 16  1  0  0  0  0
 12  2  1  0  0  0  0
 12  1  1  1  0  0  0
 13 11  1  0  0  0  0
 14  7  1  0  0  0  0
 15 13  1  0  0  0  0
 16 17  2  0  0  0  0
 17 18  1  0  0  0  0
 19 18  1  0  0  0  0
 20 31  1  1  0  0  0
 20 21  1  0  0  0  0
 20 22  1  0  0  0  0
 21 22  1  0  0  0  0
 22 19  1  1  0  0  0
 23 24  1  0  0  0  0
 24 29  1  0  0  0  0
 25 28  1  6  0  0  0
 25 23  1  0  0  0  0
 25 27  1  0  0  0  0
 26 20  1  0  0  0  0
 27 30  2  0  0  0  0
 29 26  1  0  0  0  0
 30 26  1  0  0  0  0
 32 31  1  0  0  0  0
 33 34  1  0  0  0  0
 33 22  1  0  0  0  0
 34 36  1  0  0  0  0
 36 35  2  0  0  0  0
 38 37  1  0  0  0  0
 39 38  1  0  0  0  0
 40 39  1  0  0  0  0
 41 40  1  6  0  0  0
 41 49  1  0  0  0  0
 42 47  1  1  0  0  0
 43 41  1  1  0  0  0
 43 42  1  0  0  0  0
 44 43  1  0  0  0  0
 44 48  1  0  0  0  0
 44 42  1  0  0  0  0
 46 48  1  0  0  0  0
 46 45  1  0  0  0  0
 47 45  1  0  0  0  0
 48 42  1  0  0  0  0
 50 51  1  0  0  0  0
 50 49  1  0  0  0  0
 51 53  1  0  0  0  0
 52 51  1  0  0  0  0
 52 53  1  0  0  0  0
 54 52  1  0  0  0  0
M  END
>  <MODEL>
1

>  <REMARK>
 VINA RESULT:      -6.8      0.000      0.000
  Name = 
  18 active torsions:
  status: ('A' for Active; 'I' for Inactive)
    1  A    between atoms: C_3  and  N_17
    2  A    between atoms: C_3  and  O_33
    3  A    between atoms: C_5  and  O_36
    4  A    between atoms: C_5  and  C_47
    5  A    between atoms: C_7  and  C_46
    6  A    between atoms: C_7  and  C_48
    7  A    between atoms: C_9  and  C_48
    8  A    between atoms: C_10  and  N_32
    9  A    between atoms: C_12  and  C_22
   10  A    between atoms: C_12  and  N_26
   11  A    between atoms: C_15  and  N_40
   12  A    between atoms: C_16  and  C_25
   13  A    between atoms: C_16  and  C_44
   14  A    between atoms: N_26  and  C_46
   15  A    between atoms: N_32  and  N_38
   16  A    between atoms: O_36  and  C_45
   17  A    between atoms: N_38  and  C_48
   18  A    between atoms: C_44  and  C_45
                            x       y       z     vdW  Elec       q    Type
                         _______ _______ _______ _____ _____    ______ ____

>  <TORSDO>
F 18

$$$$
=
 OpenBabel11042415463D

 54 62  0  0  1  0  0  0  0  0999 V2000
  196.5440  174.8990  145.3760 N   0  0  0  0  0  1  0  0  0  0  0  0
  193.9820  174.6260  145.5360 C   0  0  0  0  0  3  0  0  0  0  0  0
  191.8780  171.5810  143.3720 C   0  0  0  0  0  0  0  0  0  0  0  0
  192.4820  169.7840  141.9190 C   0  0  2  0  0  3  0  0  0  0  0  0
  196.4230  172.6080  143.4490 C   0  0  0  0  0  1  0  0  0  0  0  0
  191.4060  170.4900  142.6070 N   0  0  0  0  0  2  0  0  0  0  0  0
  193.2710  171.8070  143.2820 N   0  0  0  0  0  0  0  0  0  0  0  0
  193.8700  172.8500  144.0520 C   0  0  0  0  0  0  0  0  0  0  0  0
  195.2640  173.2380  144.1470 C   0  0  0  0  0  0  0  0  0  0  0  0
  193.1300  173.6180  144.8290 C   0  0  0  0  0  0  0  0  0  0  0  0
  191.6960  173.4230  144.9280 N   0  0  0  0  0  0  0  0  0  0  0  0
  195.3330  174.2540  144.9960 C   0  0  2  0  0  3  0  0  0  0  0  0
  191.0950  172.3540  144.1500 C   0  0  0  0  0  0  0  0  0  0  0  0
  194.0740  170.6890  142.1850 S   0  0  0  0  0  0  0  0  0  0  0  0
  189.6230  172.0860  144.2210 C   0  0  0  0  0  1  0  0  0  0  0  0
  190.8450  174.2130  145.7800 C   0  0  0  0  0  3  0  0  0  0  0  0
  191.2480  175.3000  146.4300 C   0  0  0  0  0  3  0  0  0  0  0  0
  190.3050  176.0520  147.3040 C   0  0  0  0  0  2  0  0  0  0  0  0
  189.9610  177.3940  146.6730 C   0  0  0  0  0  2  0  0  0  0  0  0
  187.5030  177.5320  145.9170 C   0  0  1  0  0  0  0  0  0  0  0  0
  187.9730  176.2070  145.7560 O   0  0  0  0  0  0  0  0  0  0  0  0
  188.9200  177.2380  145.5680 C   0  0  2  0  0  0  0  0  0  0  0  0
  184.0500  179.1460  143.5310 C   0  0  0  0  0  2  0  0  0  0  0  0
  184.4410  178.8850  144.8610 O   0  0  0  0  0  0  0  0  0  0  0  0
  184.9040  178.4420  142.4570 C   0  0  1  0  0  3  0  0  0  0  0  0
  186.5390  177.8650  144.8720 N   0  0  0  0  0  0  0  0  0  0  0  0
  185.3850  177.0790  142.8570 C   0  0  0  0  0  3  0  0  0  0  0  0
  184.1510  178.3530  141.2190 N   0  0  0  0  0  1  0  0  0  0  0  0
  185.8180  179.1330  144.9630 C   0  0  0  0  0  2  0  0  0  0  0  0
  186.1550  176.8490  143.9280 C   0  0  0  0  0  3  0  0  0  0  0  0
  187.1150  177.7500  147.2490 O   0  0  0  0  0  0  0  0  0  0  0  0
  186.2920  176.6740  147.5980 C   0  0  0  0  0  1  0  0  0  0  0  0
  189.2700  177.4700  144.2260 O   0  0  0  0  0  0  0  0  0  0  0  0
  190.4450  178.2350  144.2270 C   0  0  0  0  0  2  0  0  0  0  0  0
  191.7940  176.5600  143.0350 C   0  0  0  0  0  2  0  0  0  0  0  0
  191.3330  177.8080  143.1030 C   0  0  0  0  0  3  0  0  0  0  0  0
  192.1600  169.6970  140.4380 C   0  0  0  0  0  2  0  0  0  0  0  0
  190.8490  170.2630  140.1840 N   0  0  0  0  0  2  0  0  0  0  0  0
  190.2440  169.4650  139.1320 C   0  0  0  0  0  2  0  0  0  0  0  0
  189.7470  170.3720  138.0220 C   0  0  0  0  0  2  0  0  0  0  0  0
  189.7530  171.8210  138.4740 C   0  0  1  0  0  3  0  0  0  0  0  0
  191.6150  173.3490  137.8640 C   0  0  1  0  0  0  0  0  0  0  0  0
  190.3380  172.6970  137.3790 C   0  0  1  0  0  3  0  0  0  0  0  0
  191.6700  172.1410  136.9210 C   0  0  2  0  0  3  0  0  0  0  0  0
  193.5150  174.5810  137.0530 C   0  0  0  0  0  2  0  0  0  0  0  0
  193.9350  173.1290  137.2030 C   0  0  0  0  0  2  0  0  0  0  0  0
  192.0020  174.5660  137.0530 C   0  0  0  0  0  2  0  0  0  0  0  0
  192.7940  172.4050  137.9020 C   0  0  1  0  0  3  0  0  0  0  0  0
  188.3950  172.2480  138.7640 N   0  0  0  0  0  2  0  0  0  0  0  0
  188.4800  173.5170  139.3490 N   0  0  0  0  0  2  0  0  0  0  0  0
  188.7100  173.3150  140.7740 C   0  0  2  0  0  3  0  0  0  0  0  0
  188.4050  174.5660  141.6010 C   0  0  1  0  0  3  0  0  0  0  0  0
  189.8330  174.2140  141.2460 C   0  0  0  0  0  2  0  0  0  0  0  0
  187.9590  175.6830  140.7770 N   0  0  0  0  0  1  0  0  0  0  0  0
  3 13  2  0  0  0  0
  4 37  1  6  0  0  0
  4 14  1  0  0  0  0
  4  6  1  0  0  0  0
  5  9  1  0  0  0  0
  6  3  1  0  0  0  0
  7  3  1  0  0  0  0
  7  8  1  0  0  0  0
  8  9  2  0  0  0  0
  8 10  1  0  0  0  0
  9 12  1  0  0  0  0
 10 11  1  0  0  0  0
 10  2  2  0  0  0  0
 11 16  1  0  0  0  0
 12  1  1  1  0  0  0
 12  2  1  0  0  0  0
 13 15  1  0  0  0  0
 13 11  1  0  0  0  0
 14  7  1  0  0  0  0
 16 17  2  0  0  0  0
 17 18  1  0  0  0  0
 19 18  1  0  0  0  0
 20 31  1  1  0  0  0
 21 20  1  0  0  0  0
 22 21  1  0  0  0  0
 22 20  1  0  0  0  0
 22 19  1  1  0  0  0
 23 24  1  0  0  0  0
 24 29  1  0  0  0  0
 25 28  1  6  0  0  0
 25 27  1  0  0  0  0
 25 23  1  0  0  0  0
 26 29  1  0  0  0  0
 26 20  1  0  0  0  0
 27 30  2  0  0  0  0
 30 26  1  0  0  0  0
 31 32  1  0  0  0  0
 33 34  1  0  0  0  0
 33 22  1  0  0  0  0
 35 36  2  0  0  0  0
 36 34  1  0  0  0  0
 38 37  1  0  0  0  0
 39 38  1  0  0  0  0
 40 39  1  0  0  0  0
 41 40  1  6  0  0  0
 41 49  1  0  0  0  0
 42 47  1  6  0  0  0
 42 48  1  0  0  0  0
 43 42  1  0  0  0  0
 43 41  1  1  0  0  0
 44 43  1  0  0  0  0
 44 42  1  0  0  0  0
 44 48  1  0  0  0  0
 45 46  1  0  0  0  0
 46 48  1  0  0  0  0
 47 45  1  0  0  0  0
 49 50  1  0  0  0  0
 50 51  1  0  0  0  0
 51 53  1  0  0  0  0
 51 52  1  0  0  0  0
 53 52  1  0  0  0  0
 54 52  1  0  0  0  0
M  END
>  <MODEL>
2

>  <REMARK>
 VINA RESULT:      -6.0      2.206      3.558
  Name = 
  18 active torsions:
  status: ('A' for Active; 'I' for Inactive)
    1  A    between atoms: C_3  and  N_17
    2  A    between atoms: C_3  and  O_33
    3  A    between atoms: C_5  and  O_36
    4  A    between atoms: C_5  and  C_47
    5  A    between atoms: C_7  and  C_46
    6  A    between atoms: C_7  and  C_48
    7  A    between atoms: C_9  and  C_48
    8  A    between atoms: C_10  and  N_32
    9  A    between atoms: C_12  and  C_22
   10  A    between atoms: C_12  and  N_26
   11  A    between atoms: C_15  and  N_40
   12  A    between atoms: C_16  and  C_25
   13  A    between atoms: C_16  and  C_44
   14  A    between atoms: N_26  and  C_46
   15  A    between atoms: N_32  and  N_38
   16  A    between atoms: O_36  and  C_45
   17  A    between atoms: N_38  and  C_48
   18  A    between atoms: C_44  and  C_45
                            x       y       z     vdW  Elec       q    Type
                         _______ _______ _______ _____ _____    ______ ____

>  <TORSDO>
F 18

$$$$
=
 OpenBabel11042415463D

 54 62  0  0  1  0  0  0  0  0999 V2000
  194.4390  169.0150  143.2990 N   0  0  0  0  0  1  0  0  0  0  0  0
  192.4040  170.5790  143.5740 C   0  0  0  0  0  3  0  0  0  0  0  0
  189.8990  171.6580  140.2650 C   0  0  0  0  0  0  0  0  0  0  0  0
  189.7910  171.1010  137.9450 C   0  0  2  0  0  3  0  0  0  0  0  0
  193.6990  168.9640  140.3960 C   0  0  0  0  0  1  0  0  0  0  0  0
  189.1970  171.8420  139.0520 N   0  0  0  0  0  2  0  0  0  0  0  0
  191.0530  170.8470  140.1620 N   0  0  0  0  0  0  0  0  0  0  0  0
  191.8150  170.5480  141.3330 C   0  0  0  0  0  0  0  0  0  0  0  0
  192.9980  169.7200  141.4740 C   0  0  0  0  0  0  0  0  0  0  0  0
  191.4610  171.0400  142.5050 C   0  0  0  0  0  0  0  0  0  0  0  0
  190.2940  171.8900  142.6400 N   0  0  0  0  0  0  0  0  0  0  0  0
  193.3380  169.7360  142.7550 C   0  0  2  0  0  3  0  0  0  0  0  0
  189.5180  172.1820  141.4470 C   0  0  0  0  0  0  0  0  0  0  0  0
  191.3600  170.3030  138.5160 S   0  0  0  0  0  0  0  0  0  0  0  0
  188.2900  173.0370  141.5190 C   0  0  0  0  0  1  0  0  0  0  0  0
  189.8480  172.4310  143.8970 C   0  0  0  0  0  3  0  0  0  0  0  0
  190.1630  173.6450  144.3380 C   0  0  0  0  0  3  0  0  0  0  0  0
  189.6700  174.1230  145.6590 C   0  0  0  0  0  2  0  0  0  0  0  0
  189.8800  175.6250  145.7860 C   0  0  0  0  0  2  0  0  0  0  0  0
  188.9660  176.9570  143.7800 C   0  0  1  0  0  0  0  0  0  0  0  0
  188.9660  177.7780  144.9320 O   0  0  0  0  0  0  0  0  0  0  0  0
  188.7360  176.4010  145.1420 C   0  0  2  0  0  0  0  0  0  0  0  0
  186.1880  177.6160  140.3060 C   0  0  0  0  0  2  0  0  0  0  0  0
  187.5600  177.4850  140.6080 O   0  0  0  0  0  0  0  0  0  0  0  0
  185.2850  177.9070  141.5220 C   0  0  1  0  0  3  0  0  0  0  0  0
  187.8360  177.2850  142.9150 N   0  0  0  0  0  0  0  0  0  0  0  0
  185.9240  178.7780  142.5620 C   0  0  0  0  0  3  0  0  0  0  0  0
  184.0440  178.5100  141.0710 N   0  0  0  0  0  1  0  0  0  0  0  0
  187.6860  176.5600  141.6550 C   0  0  0  0  0  2  0  0  0  0  0  0
  187.0540  178.4570  143.2060 C   0  0  0  0  0  3  0  0  0  0  0  0
  190.2440  176.9390  143.1970 O   0  0  0  0  0  0  0  0  0  0  0  0
  190.7590  178.2310  143.3440 C   0  0  0  0  0  1  0  0  0  0  0  0
  187.4010  176.0730  145.4390 O   0  0  0  0  0  0  0  0  0  0  0  0
  187.1050  176.6230  146.6950 C   0  0  0  0  0  2  0  0  0  0  0  0
  184.9090  177.5810  146.1390 C   0  0  0  0  0  2  0  0  0  0  0  0
  185.6240  176.7270  146.8710 C   0  0  0  0  0  3  0  0  0  0  0  0
  190.0650  172.0500  136.7930 C   0  0  0  0  0  2  0  0  0  0  0  0
  191.4490  172.4840  136.8300 N   0  0  0  0  0  2  0  0  0  0  0  0
  191.4350  173.9360  136.8190 C   0  0  0  0  0  2  0  0  0  0  0  0
  192.6290  174.4640  137.5920 C   0  0  0  0  0  2  0  0  0  0  0  0
  192.9710  173.5380  138.7450 C   0  0  1  0  0  3  0  0  0  0  0  0
  194.9500  172.0380  138.7930 C   0  0  1  0  0  0  0  0  0  0  0  0
  194.4800  173.4700  138.9170 C   0  0  1  0  0  3  0  0  0  0  0  0
  195.1320  173.0180  137.6280 C   0  0  2  0  0  3  0  0  0  0  0  0
  196.9620  170.7420  138.5470 C   0  0  0  0  0  2  0  0  0  0  0  0
  196.3360  170.8900  137.1710 C   0  0  0  0  0  2  0  0  0  0  0  0
  196.3170  171.8100  139.4020 C   0  0  0  0  0  2  0  0  0  0  0  0
  194.9720  171.5340  137.3690 C   0  0  1  0  0  3  0  0  0  0  0  0
  192.3650  174.0360  139.9680 N   0  0  0  0  0  2  0  0  0  0  0  0
  193.4100  174.3430  140.8490 N   0  0  0  0  0  2  0  0  0  0  0  0
  192.8220  175.0520  141.9780 C   0  0  2  0  0  3  0  0  0  0  0  0
  193.7990  176.0350  142.6270 C   0  0  1  0  0  3  0  0  0  0  0  0
  193.5500  174.6800  143.2530 C   0  0  0  0  0  2  0  0  0  0  0  0
  195.1020  176.0370  141.9740 N   0  0  0  0  0  1  0  0  0  0  0  0
  3 13  2  0  0  0  0
  4 37  1  6  0  0  0
  4 14  1  0  0  0  0
  4  6  1  0  0  0  0
  5  9  1  0  0  0  0
  6  3  1  0  0  0  0
  7  3  1  0  0  0  0
  7  8  1  0  0  0  0
  8  9  2  0  0  0  0
  8 10  1  0  0  0  0
  9 12  1  0  0  0  0
 10 11  1  0  0  0  0
 10  2  2  0  0  0  0
 11 16  1  0  0  0  0
 12  1  1  1  0  0  0
 12  2  1  0  0  0  0
 13 15  1  0  0  0  0
 13 11  1  0  0  0  0
 14  7  1  0  0  0  0
 16 17  2  0  0  0  0
 17 18  1  0  0  0  0
 18 19  1  0  0  0  0
 20 31  1  6  0  0  0
 20 21  1  0  0  0  0
 20 22  1  0  0  0  0
 21 22  1  0  0  0  0
 22 33  1  0  0  0  0
 22 19  1  1  0  0  0
 23 24  1  0  0  0  0
 23 25  1  0  0  0  0
 24 29  1  0  0  0  0
 25 28  1  6  0  0  0
 25 27  1  0  0  0  0
 26 30  1  0  0  0  0
 26 20  1  0  0  0  0
 27 30  2  0  0  0  0
 29 26  1  0  0  0  0
 31 32  1  0  0  0  0
 33 34  1  0  0  0  0
 34 36  1  0  0  0  0
 35 36  2  0  0  0  0
 37 38  1  0  0  0  0
 39 38  1  0  0  0  0
 39 40  1  0  0  0  0
 41 40  1  6  0  0  0
 41 49  1  0  0  0  0
 42 43  1  0  0  0  0
 42 47  1  1  0  0  0
 43 41  1  6  0  0  0
 44 42  1  0  0  0  0
 44 43  1  0  0  0  0
 45 47  1  0  0  0  0
 46 48  1  0  0  0  0
 46 45  1  0  0  0  0
 48 44  1  0  0  0  0
 48 42  1  0  0  0  0
 49 50  1  0  0  0  0
 50 51  1  0  0  0  0
 51 52  1  0  0  0  0
 51 53  1  0  0  0  0
 52 53  1  0  0  0  0
 54 52  1  0  0  0  0
M  END
>  <MODEL>
3

>  <REMARK>
 VINA RESULT:      -5.8      2.235      4.522
  Name = 
  18 active torsions:
  status: ('A' for Active; 'I' for Inactive)
    1  A    between atoms: C_3  and  N_17
    2  A    between atoms: C_3  and  O_33
    3  A    between atoms: C_5  and  O_36
    4  A    between atoms: C_5  and  C_47
    5  A    between atoms: C_7  and  C_46
    6  A    between atoms: C_7  and  C_48
    7  A    between atoms: C_9  and  C_48
    8  A    between atoms: C_10  and  N_32
    9  A    between atoms: C_12  and  C_22
   10  A    between atoms: C_12  and  N_26
   11  A    between atoms: C_15  and  N_40
   12  A    between atoms: C_16  and  C_25
   13  A    between atoms: C_16  and  C_44
   14  A    between atoms: N_26  and  C_46
   15  A    between atoms: N_32  and  N_38
   16  A    between atoms: O_36  and  C_45
   17  A    between atoms: N_38  and  C_48
   18  A    between atoms: C_44  and  C_45
                            x       y       z     vdW  Elec       q    Type
                         _______ _______ _______ _____ _____    ______ ____

>  <TORSDO>
F 18

$$$$
=
 OpenBabel11042415463D

 54 62  0  0  1  0  0  0  0  0999 V2000
  183.7790  178.3660  143.0830 N   0  0  0  0  0  1  0  0  0  0  0  0
  185.8120  177.0920  142.1300 C   0  0  0  0  0  3  0  0  0  0  0  0
  189.0910  175.8600  144.6030 C   0  0  0  0  0  0  0  0  0  0  0  0
  189.6170  175.9690  146.9300 C   0  0  2  0  0  3  0  0  0  0  0  0
  185.2200  178.2100  145.7050 C   0  0  0  0  0  1  0  0  0  0  0  0
  190.0290  175.5210  145.6050 N   0  0  0  0  0  2  0  0  0  0  0  0
  187.9780  176.6020  145.0630 N   0  0  0  0  0  0  0  0  0  0  0  0
  186.9390  176.9580  144.1510 C   0  0  0  0  0  0  0  0  0  0  0  0
  185.7030  177.6760  144.3990 C   0  0  0  0  0  0  0  0  0  0  0  0
  187.0200  176.6180  142.8780 C   0  0  0  0  0  0  0  0  0  0  0  0
  188.1570  175.8720  142.3730 N   0  0  0  0  0  0  0  0  0  0  0  0
  185.0560  177.7540  143.2450 C   0  0  2  0  0  3  0  0  0  0  0  0
  189.2060  175.5060  143.3080 C   0  0  0  0  0  0  0  0  0  0  0  0
  188.0650  176.9670  146.7830 S   0  0  0  0  0  0  0  0  0  0  0  0
  190.3980  174.7190  142.8560 C   0  0  0  0  0  1  0  0  0  0  0  0
  188.2830  175.4520  141.0010 C   0  0  0  0  0  3  0  0  0  0  0  0
  188.1940  174.1880  140.5990 C   0  0  0  0  0  3  0  0  0  0  0  0
  188.3520  173.8380  139.1610 C   0  0  0  0  0  2  0  0  0  0  0  0
  188.7400  172.3730  139.0160 C   0  0  0  0  0  2  0  0  0  0  0  0
  191.1310  172.6110  138.0890 C   0  0  1  0  0  0  0  0  0  0  0  0
  190.8530  171.2460  138.3330 O   0  0  0  0  0  0  0  0  0  0  0  0
  190.2420  172.1770  139.2010 C   0  0  2  0  0  0  0  0  0  0  0  0
  195.3950  172.5940  139.5170 C   0  0  0  0  0  2  0  0  0  0  0  0
  194.1160  172.1160  139.8690 O   0  0  0  0  0  0  0  0  0  0  0  0
  195.3960  173.7190  138.4620 C   0  0  1  0  0  3  0  0  0  0  0  0
  192.5400  172.9020  138.3400 N   0  0  0  0  0  0  0  0  0  0  0  0
  194.2330  174.6600  138.5720 C   0  0  0  0  0  3  0  0  0  0  0  0
  196.6390  174.4630  138.5450 N   0  0  0  0  0  1  0  0  0  0  0  0
  193.4320  171.7980  138.6860 C   0  0  0  0  0  2  0  0  0  0  0  0
  192.9550  174.2740  138.4740 C   0  0  0  0  0  3  0  0  0  0  0  0
  190.6010  173.0000  136.8470 O   0  0  0  0  0  0  0  0  0  0  0  0
  190.9580  171.9970  135.9390 C   0  0  0  0  0  1  0  0  0  0  0  0
  190.8120  172.2380  140.4850 O   0  0  0  0  0  0  0  0  0  0  0  0
  190.1340  171.3090  141.2880 C   0  0  0  0  0  2  0  0  0  0  0  0
  190.8750  168.9740  141.0700 C   0  0  0  0  0  2  0  0  0  0  0  0
  191.0420  170.1710  141.6300 C   0  0  0  0  0  3  0  0  0  0  0  0
  190.7270  176.7980  147.5490 C   0  0  0  0  0  2  0  0  0  0  0  0
  191.9740  176.0580  147.5160 N   0  0  0  0  0  2  0  0  0  0  0  0
  192.6790  176.4770  146.3170 C   0  0  0  0  0  2  0  0  0  0  0  0
  194.1750  176.4640  146.5740 C   0  0  0  0  0  2  0  0  0  0  0  0
  194.8180  175.2520  145.9260 C   0  0  1  0  0  3  0  0  0  0  0  0
  194.4010  173.2720  144.4840 C   0  0  1  0  0  0  0  0  0  0  0  0
  193.8050  174.5470  145.0390 C   0  0  1  0  0  3  0  0  0  0  0  0
  193.4090  173.2210  145.6520 C   0  0  2  0  0  3  0  0  0  0  0  0
  193.7730  171.2570  143.3310 C   0  0  0  0  0  2  0  0  0  0  0  0
  193.8820  170.9280  144.8100 C   0  0  0  0  0  2  0  0  0  0  0  0
  193.6750  172.7650  143.2570 C   0  0  0  0  0  2  0  0  0  0  0  0
  194.4710  172.1520  145.4950 C   0  0  1  0  0  3  0  0  0  0  0  0
  195.9550  175.6720  145.1250 N   0  0  0  0  0  2  0  0  0  0  0  0
  195.4690  176.5550  144.1530 N   0  0  0  0  0  2  0  0  0  0  0  0
  196.4810  176.6390  143.1080 C   0  0  2  0  0  3  0  0  0  0  0  0
  195.8930  176.4690  141.7050 C   0  0  1  0  0  3  0  0  0  0  0  0
  196.5870  175.3110  142.3870 C   0  0  0  0  0  2  0  0  0  0  0  0
  194.4520  176.2550  141.7290 N   0  0  0  0  0  1  0  0  0  0  0  0
  2 10  2  0  0  0  0
  2 12  1  0  0  0  0
  3  7  1  0  0  0  0
  3  6  1  0  0  0  0
  4 37  1  6  0  0  0
  6  4  1  0  0  0  0
  7 14  1  0  0  0  0
  8  9  2  0  0  0  0
  8  7  1  0  0  0  0
  9  5  1  0  0  0  0
 10  8  1  0  0  0  0
 11 10  1  0  0  0  0
 11 13  1  0  0  0  0
 12  1  1  1  0  0  0
 12  9  1  0  0  0  0
 13  3  2  0  0  0  0
 14  4  1  0  0  0  0
 15 13  1  0  0  0  0
 16 11  1  0  0  0  0
 17 16  2  0  0  0  0
 18 17  1  0  0  0  0
 19 18  1  0  0  0  0
 20 31  1  6  0  0  0
 20 21  1  0  0  0  0
 20 26  1  0  0  0  0
 20 22  1  0  0  0  0
 21 22  1  0  0  0  0
 22 19  1  6  0  0  0
 22 33  1  0  0  0  0
 23 24  1  0  0  0  0
 25 28  1  1  0  0  0
 25 27  1  0  0  0  0
 25 23  1  0  0  0  0
 26 30  1  0  0  0  0
 26 29  1  0  0  0  0
 29 24  1  0  0  0  0
 30 27  2  0  0  0  0
 32 31  1  0  0  0  0
 33 34  1  0  0  0  0
 34 36  1  0  0  0  0
 35 36  2  0  0  0  0
 38 37  1  0  0  0  0
 39 40  1  0  0  0  0
 39 38  1  0  0  0  0
 41 40  1  6  0  0  0
 42 47  1  6  0  0  0
 42 43  1  0  0  0  0
 42 48  1  0  0  0  0
 42 44  1  0  0  0  0
 43 44  1  0  0  0  0
 43 41  1  1  0  0  0
 45 46  1  0  0  0  0
 46 48  1  0  0  0  0
 47 45  1  0  0  0  0
 48 44  1  0  0  0  0
 49 41  1  0  0  0  0
 50 49  1  0  0  0  0
 51 50  1  0  0  0  0
 52 54  1  0  0  0  0
 52 53  1  0  0  0  0
 52 51  1  0  0  0  0
 53 51  1  0  0  0  0
M  END
>  <MODEL>
4

>  <REMARK>
 VINA RESULT:      -5.7      3.280      8.079
  Name = 
  18 active torsions:
  status: ('A' for Active; 'I' for Inactive)
    1  A    between atoms: C_3  and  N_17
    2  A    between atoms: C_3  and  O_33
    3  A    between atoms: C_5  and  O_36
    4  A    between atoms: C_5  and  C_47
    5  A    between atoms: C_7  and  C_46
    6  A    between atoms: C_7  and  C_48
    7  A    between atoms: C_9  and  C_48
    8  A    between atoms: C_10  and  N_32
    9  A    between atoms: C_12  and  C_22
   10  A    between atoms: C_12  and  N_26
   11  A    between atoms: C_15  and  N_40
   12  A    between atoms: C_16  and  C_25
   13  A    between atoms: C_16  and  C_44
   14  A    between atoms: N_26  and  C_46
   15  A    between atoms: N_32  and  N_38
   16  A    between atoms: O_36  and  C_45
   17  A    between atoms: N_38  and  C_48
   18  A    between atoms: C_44  and  C_45
                            x       y       z     vdW  Elec       q    Type
                         _______ _______ _______ _____ _____    ______ ____

>  <TORSDO>
F 18

$$$$
=
 OpenBabel11042415463D

 54 62  0  0  1  0  0  0  0  0999 V2000
  194.1670  176.1250  146.3940 N   0  0  0  0  0  1  0  0  0  0  0  0
  193.1490  173.9370  145.4750 C   0  0  0  0  0  3  0  0  0  0  0  0
  189.8420  173.9350  142.7460 C   0  0  0  0  0  0  0  0  0  0  0  0
  188.5390  175.5980  141.6320 C   0  0  2  0  0  3  0  0  0  0  0  0
  192.0510  177.5000  144.7780 C   0  0  0  0  0  1  0  0  0  0  0  0
  188.7890  174.1750  141.8340 N   0  0  0  0  0  2  0  0  0  0  0  0
  190.4050  175.0990  143.3180 N   0  0  0  0  0  0  0  0  0  0  0  0
  191.5100  174.9840  144.2160 C   0  0  0  0  0  0  0  0  0  0  0  0
  192.2620  176.0270  144.8870 C   0  0  0  0  0  0  0  0  0  0  0  0
  191.9950  173.7980  144.5320 C   0  0  0  0  0  0  0  0  0  0  0  0
  191.4270  172.5850  143.9760 N   0  0  0  0  0  0  0  0  0  0  0  0
  193.2010  175.4320  145.6090 C   0  0  2  0  0  3  0  0  0  0  0  0
  190.3100  172.7100  143.0560 C   0  0  0  0  0  0  0  0  0  0  0  0
  189.6090  176.5750  142.7820 S   0  0  0  0  0  0  0  0  0  0  0  0
  189.6900  171.4980  142.4310 C   0  0  0  0  0  1  0  0  0  0  0  0
  191.9340  171.2680  144.2640 C   0  0  0  0  0  3  0  0  0  0  0  0
  192.8230  170.6310  143.5090 C   0  0  0  0  0  3  0  0  0  0  0  0
  193.2830  169.2620  143.8730 C   0  0  0  0  0  2  0  0  0  0  0  0
  194.6550  168.9930  143.2700 C   0  0  0  0  0  2  0  0  0  0  0  0
  195.7850  171.1560  142.4470 C   0  0  1  0  0  0  0  0  0  0  0  0
  196.7740  170.1840  142.7290 O   0  0  0  0  0  0  0  0  0  0  0  0
  195.6130  170.1520  143.5320 C   0  0  2  0  0  0  0  0  0  0  0  0
  197.9400  174.7260  144.1300 C   0  0  0  0  0  2  0  0  0  0  0  0
  197.5970  173.3960  144.4520 O   0  0  0  0  0  0  0  0  0  0  0  0
  197.1380  175.3340  142.9610 C   0  0  1  0  0  3  0  0  0  0  0  0
  196.2790  172.4960  142.7510 N   0  0  0  0  0  0  0  0  0  0  0  0
  195.7120  174.8770  142.8960 C   0  0  0  0  0  3  0  0  0  0  0  0
  197.1870  176.7830  143.0410 N   0  0  0  0  0  1  0  0  0  0  0  0
  197.6370  172.6410  143.2700 C   0  0  0  0  0  2  0  0  0  0  0  0
  195.3490  173.5950  142.7610 C   0  0  0  0  0  3  0  0  0  0  0  0
  195.2460  170.9400  141.1670 O   0  0  0  0  0  0  0  0  0  0  0  0
  196.2930  171.1400  140.2620 C   0  0  0  0  0  1  0  0  0  0  0  0
  195.7930  170.6410  144.8380 O   0  0  0  0  0  0  0  0  0  0  0  0
  196.5520  169.6930  145.5380 C   0  0  0  0  0  2  0  0  0  0  0  0
  194.8760  168.8750  147.1410 C   0  0  0  0  0  2  0  0  0  0  0  0
  196.0150  169.5310  146.9240 C   0  0  0  0  0  3  0  0  0  0  0  0
  187.0730  175.8920  141.8890 C   0  0  0  0  0  2  0  0  0  0  0  0
  186.5900  176.8680  140.9320 N   0  0  0  0  0  2  0  0  0  0  0  0
  186.8760  178.1790  141.4860 C   0  0  0  0  0  2  0  0  0  0  0  0
  185.5790  178.8730  141.8560 C   0  0  0  0  0  2  0  0  0  0  0  0
  185.0110  178.2960  143.1390 C   0  0  1  0  0  3  0  0  0  0  0  0
  185.2930  178.2100  145.6060 C   0  0  1  0  0  0  0  0  0  0  0  0
  185.7140  178.9150  144.3360 C   0  0  1  0  0  3  0  0  0  0  0  0
  186.6540  177.9100  144.9670 C   0  0  2  0  0  3  0  0  0  0  0  0
  185.8880  178.0210  147.9290 C   0  0  0  0  0  2  0  0  0  0  0  0
  186.4840  176.8290  147.2000 C   0  0  0  0  0  2  0  0  0  0  0  0
  185.5550  179.0290  146.8520 C   0  0  0  0  0  2  0  0  0  0  0  0
  185.9350  176.8540  145.7820 C   0  0  1  0  0  3  0  0  0  0  0  0
  183.5870  178.5780  143.2140 N   0  0  0  0  0  2  0  0  0  0  0  0
  183.0980  178.5610  141.9010 N   0  0  0  0  0  2  0  0  0  0  0  0
  181.6420  178.5740  141.9890 C   0  0  2  0  0  3  0  0  0  0  0  0
  180.9750  177.9500  140.7610 C   0  0  1  0  0  3  0  0  0  0  0  0
  181.0700  179.4540  140.8970 C   0  0  0  0  0  2  0  0  0  0  0  0
  181.9440  177.4880  139.7760 N   0  0  0  0  0  1  0  0  0  0  0  0
  2 12  1  0  0  0  0
  3 13  2  0  0  0  0
  3  7  1  0  0  0  0
  4  6  1  0  0  0  0
  4 37  1  1  0  0  0
  4 14  1  0  0  0  0
  5  9  1  0  0  0  0
  6  3  1  0  0  0  0
  7  8  1  0  0  0  0
  8 10  1  0  0  0  0
  8  9  2  0  0  0  0
  9 12  1  0  0  0  0
 10  2  2  0  0  0  0
 11 16  1  0  0  0  0
 11 10  1  0  0  0  0
 12  1  1  6  0  0  0
 13 11  1  0  0  0  0
 14  7  1  0  0  0  0
 15 13  1  0  0  0  0
 17 18  1  0  0  0  0
 17 16  2  0  0  0  0
 19 18  1  0  0  0  0
 20 31  1  6  0  0  0
 20 21  1  0  0  0  0
 20 26  1  0  0  0  0
 20 22  1  0  0  0  0
 21 22  1  0  0  0  0
 22 19  1  6  0  0  0
 22 33  1  0  0  0  0
 23 24  1  0  0  0  0
 25 28  1  1  0  0  0
 25 23  1  0  0  0  0
 26 30  1  0  0  0  0
 26 29  1  0  0  0  0
 27 25  1  0  0  0  0
 29 24  1  0  0  0  0
 30 27  2  0  0  0  0
 32 31  1  0  0  0  0
 33 34  1  0  0  0  0
 34 36  1  0  0  0  0
 36 35  2  0  0  0  0
 38 39  1  0  0  0  0
 38 37  1  0  0  0  0
 39 40  1  0  0  0  0
 41 40  1  6  0  0  0
 41 49  1  0  0  0  0
 42 48  1  0  0  0  0
 42 47  1  1  0  0  0
 43 41  1  6  0  0  0
 43 44  1  0  0  0  0
 43 42  1  0  0  0  0
 44 42  1  0  0  0  0
 44 48  1  0  0  0  0
 46 45  1  0  0  0  0
 47 45  1  0  0  0  0
 48 46  1  0  0  0  0
 50 51  1  0  0  0  0
 50 49  1  0  0  0  0
 52 53  1  0  0  0  0
 52 51  1  0  0  0  0
 53 51  1  0  0  0  0
 54 52  1  0  0  0  0
M  END
>  <MODEL>
5

>  <REMARK>
 VINA RESULT:      -5.6      3.798      9.325
  Name = 
  18 active torsions:
  status: ('A' for Active; 'I' for Inactive)
    1  A    between atoms: C_3  and  N_17
    2  A    between atoms: C_3  and  O_33
    3  A    between atoms: C_5  and  O_36
    4  A    between atoms: C_5  and  C_47
    5  A    between atoms: C_7  and  C_46
    6  A    between atoms: C_7  and  C_48
    7  A    between atoms: C_9  and  C_48
    8  A    between atoms: C_10  and  N_32
    9  A    between atoms: C_12  and  C_22
   10  A    between atoms: C_12  and  N_26
   11  A    between atoms: C_15  and  N_40
   12  A    between atoms: C_16  and  C_25
   13  A    between atoms: C_16  and  C_44
   14  A    between atoms: N_26  and  C_46
   15  A    between atoms: N_32  and  N_38
   16  A    between atoms: O_36  and  C_45
   17  A    between atoms: N_38  and  C_48
   18  A    between atoms: C_44  and  C_45
                            x       y       z     vdW  Elec       q    Type
                         _______ _______ _______ _____ _____    ______ ____

>  <TORSDO>
F 18

$$$$
=
 OpenBabel11042415463D

 54 62  0  0  1  0  0  0  0  0999 V2000
  185.3160  178.4250  147.9360 N   0  0  0  0  0  1  0  0  0  0  0  0
  187.4820  177.4670  146.9090 C   0  0  0  0  0  3  0  0  0  0  0  0
  188.0920  177.2540  142.6700 C   0  0  0  0  0  0  0  0  0  0  0  0
  186.8690  177.9160  140.7280 C   0  0  2  0  0  3  0  0  0  0  0  0
  184.4260  178.7990  145.1000 C   0  0  0  0  0  1  0  0  0  0  0  0
  188.0900  177.3200  141.2590 N   0  0  0  0  0  2  0  0  0  0  0  0
  186.9070  177.7230  143.2840 N   0  0  0  0  0  0  0  0  0  0  0  0
  186.8120  177.7530  144.7090 C   0  0  0  0  0  0  0  0  0  0  0  0
  185.7250  178.2180  145.5490 C   0  0  0  0  0  0  0  0  0  0  0  0
  187.8140  177.3270  145.4560 C   0  0  0  0  0  0  0  0  0  0  0  0
  189.0340  176.8230  144.8550 N   0  0  0  0  0  0  0  0  0  0  0  0
  186.1050  178.0560  146.8090 C   0  0  2  0  0  3  0  0  0  0  0  0
  189.1270  176.8050  143.4060 C   0  0  0  0  0  0  0  0  0  0  0  0
  185.6890  178.2300  142.1190 S   0  0  0  0  0  0  0  0  0  0  0  0
  190.3670  176.3160  142.7220 C   0  0  0  0  0  1  0  0  0  0  0  0
  190.1670  176.3720  145.6210 C   0  0  0  0  0  3  0  0  0  0  0  0
  191.3510  176.9770  145.6250 C   0  0  0  0  0  3  0  0  0  0  0  0
  192.4760  176.4340  146.4360 C   0  0  0  0  0  2  0  0  0  0  0  0
  192.4240  174.9130  146.4530 C   0  0  0  0  0  2  0  0  0  0  0  0
  192.7290  173.5120  144.3130 C   0  0  1  0  0  0  0  0  0  0  0  0
  193.4330  172.9050  145.3790 O   0  0  0  0  0  0  0  0  0  0  0  0
  193.3530  174.3150  145.4010 C   0  0  2  0  0  0  0  0  0  0  0  0
  195.7400  172.5830  141.1050 C   0  0  0  0  0  2  0  0  0  0  0  0
  195.6580  172.9220  142.4710 O   0  0  0  0  0  0  0  0  0  0  0  0
  194.4540  172.8520  140.2960 C   0  0  1  0  0  3  0  0  0  0  0  0
  193.4320  173.3070  143.0490 N   0  0  0  0  0  0  0  0  0  0  0  0
  193.7000  174.0710  140.7360 C   0  0  0  0  0  3  0  0  0  0  0  0
  194.7810  172.9600  138.8850 N   0  0  0  0  0  1  0  0  0  0  0  0
  194.5070  172.3190  142.9990 C   0  0  0  0  0  2  0  0  0  0  0  0
  193.2140  174.2360  141.9730 C   0  0  0  0  0  3  0  0  0  0  0  0
  191.3710  173.1550  144.3640 O   0  0  0  0  0  0  0  0  0  0  0  0
  191.3030  171.8190  143.9570 C   0  0  0  0  0  1  0  0  0  0  0  0
  194.5470  174.9720  145.0540 O   0  0  0  0  0  0  0  0  0  0  0  0
  195.4310  174.8300  146.1330 C   0  0  0  0  0  2  0  0  0  0  0  0
  196.8310  172.8140  145.9850 C   0  0  0  0  0  2  0  0  0  0  0  0
  196.6610  174.1030  145.6940 C   0  0  0  0  0  3  0  0  0  0  0  0
  186.2520  176.9770  139.7090 C   0  0  0  0  0  2  0  0  0  0  0  0
  186.9680  177.0730  138.4520 N   0  0  0  0  0  2  0  0  0  0  0  0
  186.6940  175.8500  137.7170 C   0  0  0  0  0  2  0  0  0  0  0  0
  187.8600  175.5320  136.8000 C   0  0  0  0  0  2  0  0  0  0  0  0
  188.4500  174.1750  137.1360 C   0  0  1  0  0  3  0  0  0  0  0  0
  190.3590  172.6770  136.6030 C   0  0  1  0  0  0  0  0  0  0  0  0
  189.4670  173.7820  136.0780 C   0  0  1  0  0  3  0  0  0  0  0  0
  189.2230  172.3590  135.6230 C   0  0  2  0  0  3  0  0  0  0  0  0
  191.9940  171.0780  135.8590 C   0  0  0  0  0  2  0  0  0  0  0  0
  190.6610  170.3590  135.9700 C   0  0  0  0  0  2  0  0  0  0  0  0
  191.6580  172.5530  135.8360 C   0  0  0  0  0  2  0  0  0  0  0  0
  189.6870  171.3250  136.6290 C   0  0  1  0  0  3  0  0  0  0  0  0
  189.0980  174.2330  138.4360 N   0  0  0  0  0  2  0  0  0  0  0  0
  188.1860  173.7280  139.3710 N   0  0  0  0  0  2  0  0  0  0  0  0
  188.8390  172.6120  140.0450 C   0  0  2  0  0  3  0  0  0  0  0  0
  188.6060  172.6220  141.5580 C   0  0  1  0  0  3  0  0  0  0  0  0
  189.9090  173.1330  140.9810 C   0  0  0  0  0  2  0  0  0  0  0  0
  187.7890  173.7500  141.9870 N   0  0  0  0  0  1  0  0  0  0  0  0
  3  7  1  0  0  0  0
  3 13  2  0  0  0  0
  4 37  1  6  0  0  0
  4  6  1  0  0  0  0
  4 14  1  0  0  0  0
  5  9  1  0  0  0  0
  6  3  1  0  0  0  0
  7  8  1  0  0  0  0
  8 10  1  0  0  0  0
  8  9  2  0  0  0  0
  9 12  1  0  0  0  0
 10  2  2  0  0  0  0
 11 10  1  0  0  0  0
 11 16  1  0  0  0  0
 12  2  1  0  0  0  0
 12  1  1  6  0  0  0
 13 11  1  0  0  0  0
 14  7  1  0  0  0  0
 15 13  1  0  0  0  0
 16 17  2  0  0  0  0
 17 18  1  0  0  0  0
 18 19  1  0  0  0  0
 20 31  1  6  0  0  0
 20 21  1  0  0  0  0
 20 22  1  0  0  0  0
 21 22  1  0  0  0  0
 22 19  1  1  0  0  0
 23 24  1  0  0  0  0
 24 29  1  0  0  0  0
 25 28  1  6  0  0  0
 25 27  1  0  0  0  0
 25 23  1  0  0  0  0
 26 20  1  0  0  0  0
 27 30  2  0  0  0  0
 29 26  1  0  0  0  0
 30 26  1  0  0  0  0
 32 31  1  0  0  0  0
 33 22  1  0  0  0  0
 33 34  1  0  0  0  0
 36 35  2  0  0  0  0
 36 34  1  0  0  0  0
 38 37  1  0  0  0  0
 39 38  1  0  0  0  0
 40 39  1  0  0  0  0
 41 40  1  6  0  0  0
 41 49  1  0  0  0  0
 42 47  1  6  0  0  0
 42 48  1  0  0  0  0
 43 42  1  0  0  0  0
 43 41  1  1  0  0  0
 44 43  1  0  0  0  0
 44 42  1  0  0  0  0
 44 48  1  0  0  0  0
 45 46  1  0  0  0  0
 46 48  1  0  0  0  0
 47 45  1  0  0  0  0
 49 50  1  0  0  0  0
 50 51  1  0  0  0  0
 51 53  1  0  0  0  0
 51 52  1  0  0  0  0
 52 54  1  0  0  0  0
 53 52  1  0  0  0  0
M  END
>  <MODEL>
6

>  <REMARK>
 VINA RESULT:      -5.6      3.196      7.833
  Name = 
  18 active torsions:
  status: ('A' for Active; 'I' for Inactive)
    1  A    between atoms: C_3  and  N_17
    2  A    between atoms: C_3  and  O_33
    3  A    between atoms: C_5  and  O_36
    4  A    between atoms: C_5  and  C_47
    5  A    between atoms: C_7  and  C_46
    6  A    between atoms: C_7  and  C_48
    7  A    between atoms: C_9  and  C_48
    8  A    between atoms: C_10  and  N_32
    9  A    between atoms: C_12  and  C_22
   10  A    between atoms: C_12  and  N_26
   11  A    between atoms: C_15  and  N_40
   12  A    between atoms: C_16  and  C_25
   13  A    between atoms: C_16  and  C_44
   14  A    between atoms: N_26  and  C_46
   15  A    between atoms: N_32  and  N_38
   16  A    between atoms: O_36  and  C_45
   17  A    between atoms: N_38  and  C_48
   18  A    between atoms: C_44  and  C_45
                            x       y       z     vdW  Elec       q    Type
                         _______ _______ _______ _____ _____    ______ ____

>  <TORSDO>
F 18

$$$$
=
 OpenBabel11042415463D

 54 62  0  0  1  0  0  0  0  0999 V2000
  184.6900  178.5190  143.0480 N   0  0  0  0  0  1  0  0  0  0  0  0
  186.2670  176.5770  142.4110 C   0  0  0  0  0  3  0  0  0  0  0  0
  189.4210  175.2620  145.0010 C   0  0  0  0  0  0  0  0  0  0  0  0
  190.2020  175.8440  147.1820 C   0  0  2  0  0  3  0  0  0  0  0  0
  186.3260  178.7030  145.5510 C   0  0  0  0  0  1  0  0  0  0  0  0
  190.3580  174.9760  146.0200 N   0  0  0  0  0  2  0  0  0  0  0  0
  188.5620  176.3510  145.2770 N   0  0  0  0  0  0  0  0  0  0  0  0
  187.5400  176.7020  144.3430 C   0  0  0  0  0  0  0  0  0  0  0  0
  186.5340  177.7430  144.4280 C   0  0  0  0  0  0  0  0  0  0  0  0
  187.4060  176.0310  143.2150 C   0  0  0  0  0  0  0  0  0  0  0  0
  188.2840  174.9210  142.8940 N   0  0  0  0  0  0  0  0  0  0  0  0
  185.8030  177.6740  143.3250 C   0  0  2  0  0  3  0  0  0  0  0  0
  189.3150  174.5640  143.8530 C   0  0  0  0  0  0  0  0  0  0  0  0
  188.9120  177.1210  146.8210 S   0  0  0  0  0  0  0  0  0  0  0  0
  190.2420  173.4170  143.5930 C   0  0  0  0  0  1  0  0  0  0  0  0
  188.1650  174.1380  141.6910 C   0  0  0  0  0  3  0  0  0  0  0  0
  188.6230  174.5250  140.5050 C   0  0  0  0  0  3  0  0  0  0  0  0
  188.4450  173.6580  139.3060 C   0  0  0  0  0  2  0  0  0  0  0  0
  189.2550  172.3780  139.4600 C   0  0  0  0  0  2  0  0  0  0  0  0
  191.8190  172.4890  139.2460 C   0  0  1  0  0  0  0  0  0  0  0  0
  191.2410  173.5950  138.5790 O   0  0  0  0  0  0  0  0  0  0  0  0
  190.4950  172.3960  138.5720 C   0  0  2  0  0  0  0  0  0  0  0  0
  195.5640  170.3650  137.9500 C   0  0  0  0  0  2  0  0  0  0  0  0
  194.7500  170.5640  139.0840 O   0  0  0  0  0  0  0  0  0  0  0  0
  195.3290  171.3680  136.8020 C   0  0  1  0  0  3  0  0  0  0  0  0
  193.0310  172.0510  138.5590 N   0  0  0  0  0  0  0  0  0  0  0  0
  194.9890  172.7540  137.2630 C   0  0  0  0  0  3  0  0  0  0  0  0
  196.5010  171.4090  135.9450 N   0  0  0  0  0  1  0  0  0  0  0  0
  193.4180  170.6440  138.6510 C   0  0  0  0  0  2  0  0  0  0  0  0
  193.9240  173.0430  138.0220 C   0  0  0  0  0  3  0  0  0  0  0  0
  191.9140  172.7490  140.6230 O   0  0  0  0  0  0  0  0  0  0  0  0
  192.3280  174.0790  140.7430 C   0  0  0  0  0  1  0  0  0  0  0  0
  190.4940  171.7180  137.3400 O   0  0  0  0  0  0  0  0  0  0  0  0
  189.3450  172.1190  136.6430 C   0  0  0  0  0  2  0  0  0  0  0  0
  189.4560  174.1830  135.3100 C   0  0  0  0  0  2  0  0  0  0  0  0
  189.7310  172.8840  135.4170 C   0  0  0  0  0  3  0  0  0  0  0  0
  191.5310  176.5050  147.4990 C   0  0  0  0  0  2  0  0  0  0  0  0
  192.3050  176.6650  146.2840 N   0  0  0  0  0  2  0  0  0  0  0  0
  193.6840  176.3580  146.6200 C   0  0  0  0  0  2  0  0  0  0  0  0
  194.6010  176.8350  145.5100 C   0  0  0  0  0  2  0  0  0  0  0  0
  195.4000  175.6770  144.9410 C   0  0  1  0  0  3  0  0  0  0  0  0
  195.6060  173.2030  145.0260 C   0  0  1  0  0  0  0  0  0  0  0  0
  195.1820  174.4370  145.7920 C   0  0  1  0  0  3  0  0  0  0  0  0
  196.5100  173.7880  146.1180 C   0  0  2  0  0  3  0  0  0  0  0  0
  196.0500  170.8610  145.3460 C   0  0  0  0  0  2  0  0  0  0  0  0
  197.3830  171.5890  145.3500 C   0  0  0  0  0  2  0  0  0  0  0  0
  195.0050  171.9290  145.5790 C   0  0  0  0  0  2  0  0  0  0  0  0
  197.1040  173.0300  144.9490 C   0  0  1  0  0  3  0  0  0  0  0  0
  194.9730  175.4120  143.5770 N   0  0  0  0  0  2  0  0  0  0  0  0
  195.5970  176.3640  142.7610 N   0  0  0  0  0  2  0  0  0  0  0  0
  196.8400  175.7690  142.2860 C   0  0  2  0  0  3  0  0  0  0  0  0
  196.8550  175.5770  140.7670 C   0  0  1  0  0  3  0  0  0  0  0  0
  196.5600  174.4080  141.6830 C   0  0  0  0  0  2  0  0  0  0  0  0
  195.6200  176.0250  140.1370 N   0  0  0  0  0  1  0  0  0  0  0  0
  2 10  2  0  0  0  0
  2 12  1  0  0  0  0
  3  7  1  0  0  0  0
  3  6  1  0  0  0  0
  4 37  1  6  0  0  0
  6  4  1  0  0  0  0
  7 14  1  0  0  0  0
  8  9  2  0  0  0  0
  8  7  1  0  0  0  0
  9  5  1  0  0  0  0
 10  8  1  0  0  0  0
 11 10  1  0  0  0  0
 11 13  1  0  0  0  0
 12  1  1  1  0  0  0
 12  9  1  0  0  0  0
 13  3  2  0  0  0  0
 14  4  1  0  0  0  0
 15 13  1  0  0  0  0
 16 11  1  0  0  0  0
 17 16  2  0  0  0  0
 18 19  1  0  0  0  0
 18 17  1  0  0  0  0
 20 31  1  1  0  0  0
 21 20  1  0  0  0  0
 22 21  1  0  0  0  0
 22 20  1  0  0  0  0
 22 19  1  1  0  0  0
 23 24  1  0  0  0  0
 25 28  1  1  0  0  0
 25 27  1  0  0  0  0
 25 23  1  0  0  0  0
 26 29  1  0  0  0  0
 26 20  1  0  0  0  0
 27 30  2  0  0  0  0
 29 24  1  0  0  0  0
 30 26  1  0  0  0  0
 31 32  1  0  0  0  0
 33 22  1  0  0  0  0
 34 33  1  0  0  0  0
 35 36  2  0  0  0  0
 36 34  1  0  0  0  0
 38 39  1  0  0  0  0
 38 37  1  0  0  0  0
 40 39  1  0  0  0  0
 41 40  1  1  0  0  0
 42 47  1  1  0  0  0
 42 43  1  0  0  0  0
 42 44  1  0  0  0  0
 43 41  1  6  0  0  0
 43 44  1  0  0  0  0
 45 46  1  0  0  0  0
 45 47  1  0  0  0  0
 48 42  1  0  0  0  0
 48 46  1  0  0  0  0
 48 44  1  0  0  0  0
 49 41  1  0  0  0  0
 50 49  1  0  0  0  0
 51 50  1  0  0  0  0
 52 53  1  0  0  0  0
 52 51  1  0  0  0  0
 53 51  1  0  0  0  0
 54 52  1  0  0  0  0
M  END
>  <MODEL>
7

>  <REMARK>
 VINA RESULT:      -5.5      3.483      8.148
  Name = 
  18 active torsions:
  status: ('A' for Active; 'I' for Inactive)
    1  A    between atoms: C_3  and  N_17
    2  A    between atoms: C_3  and  O_33
    3  A    between atoms: C_5  and  O_36
    4  A    between atoms: C_5  and  C_47
    5  A    between atoms: C_7  and  C_46
    6  A    between atoms: C_7  and  C_48
    7  A    between atoms: C_9  and  C_48
    8  A    between atoms: C_10  and  N_32
    9  A    between atoms: C_12  and  C_22
   10  A    between atoms: C_12  and  N_26
   11  A    between atoms: C_15  and  N_40
   12  A    between atoms: C_16  and  C_25
   13  A    between atoms: C_16  and  C_44
   14  A    between atoms: N_26  and  C_46
   15  A    between atoms: N_32  and  N_38
   16  A    between atoms: O_36  and  C_45
   17  A    between atoms: N_38  and  C_48
   18  A    between atoms: C_44  and  C_45
                            x       y       z     vdW  Elec       q    Type
                         _______ _______ _______ _____ _____    ______ ____

>  <TORSDO>
F 18

$$$$
=
 OpenBabel11042415463D

 54 62  0  0  1  0  0  0  0  0999 V2000
  196.5750  177.1690  143.8800 N   0  0  0  0  0  1  0  0  0  0  0  0
  194.1840  176.2830  144.2770 C   0  0  0  0  0  3  0  0  0  0  0  0
  193.2600  172.0970  144.1780 C   0  0  0  0  0  0  0  0  0  0  0  0
  194.5000  170.0750  143.8860 C   0  0  2  0  0  3  0  0  0  0  0  0
  197.3130  174.2920  143.4870 C   0  0  0  0  0  1  0  0  0  0  0  0
  193.1980  170.6850  144.1380 N   0  0  0  0  0  2  0  0  0  0  0  0
  194.5410  172.6390  143.9180 N   0  0  0  0  0  0  0  0  0  0  0  0
  194.7370  174.0520  143.9810 C   0  0  0  0  0  0  0  0  0  0  0  0
  195.9520  174.8210  143.7900 C   0  0  0  0  0  0  0  0  0  0  0  0
  193.7280  174.8560  144.2590 C   0  0  1  0  0  3  0  0  0  0  0  0
  192.4000  174.3320  144.5120 N   0  0  0  0  0  0  0  0  0  0  0  0
  195.6390  176.0980  143.9590 C   0  0  0  0  0  0  0  0  0  0  0  0
  192.2090  172.8930  144.4550 C   0  0  0  0  0  0  0  0  0  0  0  0
  195.7430  171.4050  143.5550 S   0  0  0  0  0  0  0  0  0  0  0  0
  190.8680  172.2840  144.7260 C   0  0  0  0  0  1  0  0  0  0  0  0
  191.2710  175.1600  144.8460 C   0  0  0  0  0  3  0  0  0  0  0  0
  191.1980  175.9140  145.9390 C   0  0  0  0  0  3  0  0  0  0  0  0
  189.9850  176.7310  146.2160 C   0  0  0  0  0  2  0  0  0  0  0  0
  188.7290  175.9170  145.9360 C   0  0  0  0  0  2  0  0  0  0  0  0
  187.7790  177.0050  143.8040 C   0  0  1  0  0  0  0  0  0  0  0  0
  188.0840  178.0100  144.7500 O   0  0  0  0  0  0  0  0  0  0  0  0
  187.6540  176.7690  145.2680 C   0  0  2  0  0  0  0  0  0  0  0  0
  184.8650  177.9260  140.5040 C   0  0  0  0  0  2  0  0  0  0  0  0
  186.2500  177.8150  140.7490 O   0  0  0  0  0  0  0  0  0  0  0  0
  183.9940  178.0530  141.7710 C   0  0  1  0  0  3  0  0  0  0  0  0
  186.6100  177.3810  143.0120 N   0  0  0  0  0  0  0  0  0  0  0  0
  184.6380  178.8310  142.8800 C   0  0  0  0  0  3  0  0  0  0  0  0
  182.7190  178.6540  141.4260 N   0  0  0  0  0  1  0  0  0  0  0  0
  186.4420  176.7890  141.6870 C   0  0  0  0  0  2  0  0  0  0  0  0
  185.7990  178.4860  143.4510 C   0  0  0  0  0  3  0  0  0  0  0  0
  188.9390  176.6280  143.1050 O   0  0  0  0  0  0  0  0  0  0  0  0
  189.5410  177.8150  142.6770 C   0  0  0  0  0  1  0  0  0  0  0  0
  186.3390  176.7700  145.7660 O   0  0  0  0  0  0  0  0  0  0  0  0
  186.4230  176.7630  147.1660 C   0  0  0  0  0  2  0  0  0  0  0  0
  185.5090  179.0380  146.9810 C   0  0  0  0  0  2  0  0  0  0  0  0
  185.7130  177.9530  147.7270 C   0  0  0  0  0  3  0  0  0  0  0  0
  194.3950  169.1370  142.6990 C   0  0  0  0  0  2  0  0  0  0  0  0
  193.3980  169.6280  141.7680 N   0  0  0  0  0  2  0  0  0  0  0  0
  194.1180  170.2540  140.6730 C   0  0  0  0  0  2  0  0  0  0  0  0
  193.1800  170.4680  139.5000 C   0  0  0  0  0  2  0  0  0  0  0  0
  191.7680  170.7390  139.9870 C   0  0  1  0  0  3  0  0  0  0  0  0
  189.9480  172.4220  139.8330 C   0  0  1  0  0  0  0  0  0  0  0  0
  191.4460  172.2160  139.8280 C   0  0  1  0  0  3  0  0  0  0  0  0
  190.7790  172.7420  141.0810 C   0  0  2  0  0  3  0  0  0  0  0  0
  188.2970  174.1660  139.9900 C   0  0  0  0  0  2  0  0  0  0  0  0
  188.4400  173.5380  141.3670 C   0  0  0  0  0  2  0  0  0  0  0  0
  189.5310  173.7440  139.2240 C   0  0  0  0  0  2  0  0  0  0  0  0
  189.3310  172.3150  141.2080 C   0  0  1  0  0  3  0  0  0  0  0  0
  190.8240  169.9500  139.2130 N   0  0  0  0  0  2  0  0  0  0  0  0
  191.5610  169.2810  138.2270 N   0  0  0  0  0  2  0  0  0  0  0  0
  190.6520  169.0240  137.1170 C   0  0  2  0  0  3  0  0  0  0  0  0
  191.1390  169.6450  135.8050 C   0  0  1  0  0  3  0  0  0  0  0  0
  190.0650  170.3290  136.6220 C   0  0  0  0  0  2  0  0  0  0  0  0
  192.3990  170.3600  135.9610 N   0  0  0  0  0  1  0  0  0  0  0  0
  1 12  1  0  0  0  0
  3 13  2  0  0  0  0
  4 37  1  6  0  0  0
  4  6  1  0  0  0  0
  5  9  1  0  0  0  0
  6  3  1  0  0  0  0
  7  8  1  0  0  0  0
  7  3  1  0  0  0  0
  8 10  1  0  0  0  0
  9 12  1  0  0  0  0
  9  8  2  0  0  0  0
 10  2  1  1  0  0  0
 10 11  1  0  0  0  0
 11 16  1  0  0  0  0
 12  2  2  0  0  0  0
 13 11  1  0  0  0  0
 13 15  1  0  0  0  0
 14  4  1  0  0  0  0
 14  7  1  0  0  0  0
 16 17  2  0  0  0  0
 17 18  1  0  0  0  0
 19 18  1  0  0  0  0
 20 31  1  6  0  0  0
 20 21  1  0  0  0  0
 20 22  1  0  0  0  0
 21 22  1  0  0  0  0
 22 33  1  0  0  0  0
 22 19  1  1  0  0  0
 23 24  1  0  0  0  0
 23 25  1  0  0  0  0
 24 29  1  0  0  0  0
 25 28  1  6  0  0  0
 25 27  1  0  0  0  0
 26 30  1  0  0  0  0
 26 20  1  0  0  0  0
 27 30  2  0  0  0  0
 29 26  1  0  0  0  0
 32 31  1  0  0  0  0
 33 34  1  0  0  0  0
 34 36  1  0  0  0  0
 35 36  2  0  0  0  0
 38 37  1  0  0  0  0
 39 38  1  0  0  0  0
 40 39  1  0  0  0  0
 41 40  1  6  0  0  0
 42 47  1  6  0  0  0
 42 44  1  0  0  0  0
 42 48  1  0  0  0  0
 43 42  1  0  0  0  0
 43 41  1  1  0  0  0
 43 44  1  0  0  0  0
 44 48  1  0  0  0  0
 45 46  1  0  0  0  0
 47 45  1  0  0  0  0
 48 46  1  0  0  0  0
 49 41  1  0  0  0  0
 50 49  1  0  0  0  0
 51 50  1  0  0  0  0
 52 54  1  0  0  0  0
 52 53  1  0  0  0  0
 52 51  1  0  0  0  0
 53 51  1  0  0  0  0
M  END
>  <MODEL>
8

>  <REMARK>
 VINA RESULT:      -5.5      1.990      3.228
  Name = 
  18 active torsions:
  status: ('A' for Active; 'I' for Inactive)
    1  A    between atoms: C_3  and  N_17
    2  A    between atoms: C_3  and  O_33
    3  A    between atoms: C_5  and  O_36
    4  A    between atoms: C_5  and  C_47
    5  A    between atoms: C_7  and  C_46
    6  A    between atoms: C_7  and  C_48
    7  A    between atoms: C_9  and  C_48
    8  A    between atoms: C_10  and  N_32
    9  A    between atoms: C_12  and  C_22
   10  A    between atoms: C_12  and  N_26
   11  A    between atoms: C_15  and  N_40
   12  A    between atoms: C_16  and  C_25
   13  A    between atoms: C_16  and  C_44
   14  A    between atoms: N_26  and  C_46
   15  A    between atoms: N_32  and  N_38
   16  A    between atoms: O_36  and  C_45
   17  A    between atoms: N_38  and  C_48
   18  A    between atoms: C_44  and  C_45
                            x       y       z     vdW  Elec       q    Type
                         _______ _______ _______ _____ _____    ______ ____

>  <TORSDO>
F 18

$$$$
=
 OpenBabel11042415463D

 54 62  0  0  1  0  0  0  0  0999 V2000
  196.8770  177.1770  143.4720 N   0  0  0  0  0  1  0  0  0  0  0  0
  194.5360  176.2180  143.9830 C   0  0  0  0  0  3  0  0  0  0  0  0
  193.7550  172.0010  143.9950 C   0  0  0  0  0  0  0  0  0  0  0  0
  195.0510  170.0180  143.6890 C   0  0  2  0  0  3  0  0  0  0  0  0
  197.6980  174.3190  143.1000 C   0  0  0  0  0  1  0  0  0  0  0  0
  193.7400  170.5880  143.9830 N   0  0  0  0  0  2  0  0  0  0  0  0
  195.0040  172.5810  143.6740 N   0  0  0  0  0  0  0  0  0  0  0  0
  195.1540  174.0020  143.7040 C   0  0  0  0  0  0  0  0  0  0  0  0
  196.3320  174.8080  143.4490 C   0  0  0  0  0  0  0  0  0  0  0  0
  194.1300  174.7760  144.0080 C   0  0  1  0  0  3  0  0  0  0  0  0
  192.8320  174.2120  144.3250 N   0  0  0  0  0  0  0  0  0  0  0  0
  195.9830  176.0770  143.6080 C   0  0  0  0  0  0  0  0  0  0  0  0
  192.6890  172.7660  144.3010 C   0  0  0  0  0  0  0  0  0  0  0  0
  196.2330  171.3830  143.2840 S   0  0  0  0  0  0  0  0  0  0  0  0
  191.3810  172.1180  144.6370 C   0  0  0  0  0  1  0  0  0  0  0  0
  191.6890  175.0080  144.6900 C   0  0  0  0  0  3  0  0  0  0  0  0
  191.5620  175.6380  145.8530 C   0  0  0  0  0  3  0  0  0  0  0  0
  190.3380  176.4300  146.1560 C   0  0  0  0  0  2  0  0  0  0  0  0
  189.0940  175.6300  145.7970 C   0  0  0  0  0  2  0  0  0  0  0  0
  188.2990  176.8850  143.6930 C   0  0  1  0  0  0  0  0  0  0  0  0
  188.4750  177.8050  144.7540 O   0  0  0  0  0  0  0  0  0  0  0  0
  188.0500  176.5070  145.1110 C   0  0  2  0  0  0  0  0  0  0  0  0
  185.6340  177.9340  140.2260 C   0  0  0  0  0  2  0  0  0  0  0  0
  186.9970  177.7990  140.5640 O   0  0  0  0  0  0  0  0  0  0  0  0
  184.6770  178.0360  141.4310 C   0  0  1  0  0  3  0  0  0  0  0  0
  187.1920  177.2980  142.8330 N   0  0  0  0  0  0  0  0  0  0  0  0
  185.2490  178.7750  142.6040 C   0  0  0  0  0  3  0  0  0  0  0  0
  183.4360  178.6620  141.0140 N   0  0  0  0  0  1  0  0  0  0  0  0
  187.1120  176.7460  141.4830 C   0  0  0  0  0  2  0  0  0  0  0  0
  186.3630  178.4000  143.2450 C   0  0  0  0  0  3  0  0  0  0  0  0
  189.5310  176.6150  143.0760 O   0  0  0  0  0  0  0  0  0  0  0  0
  190.1240  177.8560  142.8260 C   0  0  0  0  0  1  0  0  0  0  0  0
  186.6960  176.4180  145.4810 O   0  0  0  0  0  0  0  0  0  0  0  0
  186.5910  176.8860  146.7990 C   0  0  0  0  0  2  0  0  0  0  0  0
  184.9610  178.6810  147.2090 C   0  0  0  0  0  2  0  0  0  0  0  0
  185.2040  177.3800  147.0570 C   0  0  0  0  0  3  0  0  0  0  0  0
  194.9310  169.0540  142.5240 C   0  0  0  0  0  2  0  0  0  0  0  0
  193.5860  169.0970  141.9830 N   0  0  0  0  0  2  0  0  0  0  0  0
  193.7020  169.5310  140.6020 C   0  0  0  0  0  2  0  0  0  0  0  0
  192.3270  169.5780  139.9630 C   0  0  0  0  0  2  0  0  0  0  0  0
  191.9750  170.9970  139.5550 C   0  0  1  0  0  3  0  0  0  0  0  0
  190.7990  171.9610  137.5920 C   0  0  1  0  0  0  0  0  0  0  0  0
  190.6870  170.9940  138.7500 C   0  0  1  0  0  3  0  0  0  0  0  0
  190.9420  170.4520  137.3590 C   0  0  2  0  0  3  0  0  0  0  0  0
  189.6820  172.5790  135.5530 C   0  0  0  0  0  2  0  0  0  0  0  0
  190.8360  171.6610  135.1880 C   0  0  0  0  0  2  0  0  0  0  0  0
  189.4530  172.3730  137.0340 C   0  0  0  0  0  2  0  0  0  0  0  0
  191.6480  171.4420  136.4560 C   0  0  1  0  0  3  0  0  0  0  0  0
  191.8040  171.8180  140.7420 N   0  0  0  0  0  2  0  0  0  0  0  0
  190.4320  171.8570  141.0190 N   0  0  0  0  0  2  0  0  0  0  0  0
  190.0760  173.2570  141.2120 C   0  0  2  0  0  3  0  0  0  0  0  0
  188.9200  173.4370  142.1990 C   0  0  1  0  0  3  0  0  0  0  0  0
  188.6690  173.5020  140.7080 C   0  0  0  0  0  2  0  0  0  0  0  0
  188.4300  172.1680  142.7200 N   0  0  0  0  0  1  0  0  0  0  0  0
  1 12  1  0  0  0  0
  3 13  2  0  0  0  0
  4 37  1  6  0  0  0
  4  6  1  0  0  0  0
  5  9  1  0  0  0  0
  6  3  1  0  0  0  0
  7  8  1  0  0  0  0
  7  3  1  0  0  0  0
  8 10  1  0  0  0  0
  9 12  1  0  0  0  0
  9  8  2  0  0  0  0
 10  2  1  1  0  0  0
 10 11  1  0  0  0  0
 11 16  1  0  0  0  0
 12  2  2  0  0  0  0
 13 11  1  0  0  0  0
 13 15  1  0  0  0  0
 14  7  1  0  0  0  0
 14  4  1  0  0  0  0
 16 17  2  0  0  0  0
 17 18  1  0  0  0  0
 19 18  1  0  0  0  0
 20 31  1  6  0  0  0
 20 21  1  0  0  0  0
 20 22  1  0  0  0  0
 21 22  1  0  0  0  0
 22 33  1  0  0  0  0
 22 19  1  1  0  0  0
 23 24  1  0  0  0  0
 23 25  1  0  0  0  0
 24 29  1  0  0  0  0
 25 28  1  6  0  0  0
 25 27  1  0  0  0  0
 26 30  1  0  0  0  0
 26 20  1  0  0  0  0
 27 30  2  0  0  0  0
 29 26  1  0  0  0  0
 32 31  1  0  0  0  0
 33 34  1  0  0  0  0
 34 36  1  0  0  0  0
 36 35  2  0  0  0  0
 38 37  1  0  0  0  0
 39 38  1  0  0  0  0
 40 39  1  0  0  0  0
 41 40  1  1  0  0  0
 41 49  1  0  0  0  0
 42 47  1  6  0  0  0
 42 43  1  0  0  0  0
 43 41  1  1  0  0  0
 44 42  1  0  0  0  0
 44 43  1  0  0  0  0
 45 47  1  0  0  0  0
 46 45  1  0  0  0  0
 46 48  1  0  0  0  0
 48 44  1  0  0  0  0
 48 42  1  0  0  0  0
 49 50  1  0  0  0  0
 50 51  1  0  0  0  0
 51 52  1  0  0  0  0
 52 54  1  0  0  0  0
 53 51  1  0  0  0  0
 53 52  1  0  0  0  0
M  END
>  <MODEL>
9

>  <REMARK>
 VINA RESULT:      -5.4      1.889      3.277
  Name = 
  18 active torsions:
  status: ('A' for Active; 'I' for Inactive)
    1  A    between atoms: C_3  and  N_17
    2  A    between atoms: C_3  and  O_33
    3  A    between atoms: C_5  and  O_36
    4  A    between atoms: C_5  and  C_47
    5  A    between atoms: C_7  and  C_46
    6  A    between atoms: C_7  and  C_48
    7  A    between atoms: C_9  and  C_48
    8  A    between atoms: C_10  and  N_32
    9  A    between atoms: C_12  and  C_22
   10  A    between atoms: C_12  and  N_26
   11  A    between atoms: C_15  and  N_40
   12  A    between atoms: C_16  and  C_25
   13  A    between atoms: C_16  and  C_44
   14  A    between atoms: N_26  and  C_46
   15  A    between atoms: N_32  and  N_38
   16  A    between atoms: O_36  and  C_45
   17  A    between atoms: N_38  and  C_48
   18  A    between atoms: C_44  and  C_45
                            x       y       z     vdW  Elec       q    Type
                         _______ _______ _______ _____ _____    ______ ____

>  <TORSDO>
F 18

$$$$
