=
 OpenBabel11042417403D

 54 58  0  0  1  0  0  0  0  0999 V2000
  190.8410  173.7080  141.5350 C   0  0  1  0  0  3  0  0  0  0  0  0
  191.0670  174.2700  142.9090 C   0  0  0  0  0  0  0  0  0  0  0  0
  190.9390  176.9240  147.1820 N   0  0  0  0  0  2  0  0  0  0  0  0
  191.5990  175.2730  145.4860 C   0  0  0  0  0  0  0  0  0  0  0  0
  193.4720  176.6550  144.5560 C   0  0  0  0  0  3  0  0  0  0  0  0
  192.3730  175.6880  144.3800 C   0  0  0  0  0  0  0  0  0  0  0  0
  193.3490  176.4140  147.0340 C   0  0  0  0  0  2  0  0  0  0  0  0
  192.0980  175.1920  143.1040 C   0  0  0  0  0  3  0  0  0  0  0  0
  190.5740  174.3210  145.2900 C   0  0  0  0  0  0  0  0  0  0  0  0
  189.8030  173.8550  146.3490 O   0  0  0  0  0  1  0  0  0  0  0  0
  191.0910  175.7100  148.0030 C   0  0  0  0  0  2  0  0  0  0  0  0
  191.9280  175.8980  146.8240 C   0  0  1  0  0  0  0  0  0  0  0  0
  190.3210  173.8240  144.0080 C   0  0  0  0  0  3  0  0  0  0  0  0
  193.9010  177.0210  145.7700 C   0  0  0  0  0  3  0  0  0  0  0  0
  191.7620  172.5490  141.3090 C   0  0  0  0  0  0  0  0  0  0  0  0
  192.0900  172.2110  140.1370 O   0  0  0  0  0  0  0  0  0  0  0  0
  192.2260  171.8020  142.4330 N   0  0  0  0  0  2  0  0  0  0  0  0
  192.9850  170.2190  142.2420 S   0  0  0  0  0  0  0  0  0  0  0  0
  193.8230  171.5930  144.3910 C   0  0  0  0  0  3  0  0  0  0  0  0
  195.9580  171.8190  145.6350 C   0  0  0  0  0  0  0  0  0  0  0  0
  193.9730  170.4520  143.7140 C   0  0  0  0  0  0  0  0  0  0  0  0
  194.4660  171.8690  145.7110 C   0  0  0  0  0  2  0  0  0  0  0  0
  195.9950  169.4500  144.8330 C   0  0  0  0  0  3  0  0  0  0  0  0
  194.8540  169.3440  144.1400 C   0  0  0  0  0  3  0  0  0  0  0  0
  196.6130  170.7010  145.3180 C   0  0  0  0  0  3  0  0  0  0  0  0
  196.7440  173.0030  146.0950 C   0  0  0  0  0  2  0  0  0  0  0  0
  196.2520  174.2840  145.4370 C   0  0  0  0  0  2  0  0  0  0  0  0
  197.0720  174.5910  144.1900 C   0  0  0  0  0  2  0  0  0  0  0  0
  196.1840  174.8730  143.0260 C   0  0  0  0  0  0  0  0  0  0  0  0
  195.0710  175.6910  140.2560 C   0  0  0  0  0  3  0  0  0  0  0  0
  195.2430  173.8020  142.5830 C   0  0  0  0  0  2  0  0  0  0  0  0
  195.4380  176.4900  141.2650 C   0  0  0  0  0  3  0  0  0  0  0  0
  196.2020  176.0860  142.4620 C   0  0  0  0  0  3  0  0  0  0  0  0
  195.4780  173.4030  141.1660 C   0  0  0  0  0  3  0  0  0  0  0  0
  195.3550  174.2470  140.1400 C   0  0  0  0  0  3  0  0  0  0  0  0
  189.3670  173.3650  141.2460 C   0  0  2  0  0  3  0  0  0  0  0  0
  188.2070  174.6080  139.4720 C   0  0  0  0  0  3  0  0  0  0  0  0
  188.5880  174.5620  140.7570 C   0  0  0  0  0  0  0  0  0  0  0  0
  187.4370  175.6400  138.9520 O   0  0  0  0  0  1  0  0  0  0  0  0
  189.0850  176.6430  141.8660 O   0  0  0  0  0  1  0  0  0  0  0  0
  188.2470  175.5940  141.7020 N   0  0  0  0  0  0  0  0  0  0  0  0
  186.9840  175.6140  142.4310 C   0  0  0  0  0  2  0  0  0  0  0  0
  186.7550  176.9760  143.0690 C   0  0  0  0  0  2  0  0  0  0  0  0
  185.4260  177.5630  142.6280 C   0  0  2  0  0  3  0  0  0  0  0  0
  185.4860  177.9390  141.1570 C   0  0  0  0  0  1  0  0  0  0  0  0
  185.1430  178.6990  143.3860 O   0  0  0  0  0  0  0  0  0  0  0  0
  185.9810  178.5950  144.5030 C   0  0  0  0  0  2  0  0  0  0  0  0
  185.2230  178.9880  145.7630 C   0  0  1  0  0  3  0  0  0  0  0  0
  183.8480  178.8520  145.5670 O   0  0  0  0  0  1  0  0  0  0  0  0
  185.6860  178.1630  146.9660 C   0  0  0  0  0  2  0  0  0  0  0  0
  187.1720  177.8230  146.9180 C   0  0  0  0  0  2  0  0  0  0  0  0
  187.3700  176.3230  146.8470 C   0  0  0  0  0  1  0  0  0  0  0  0
  187.4130  172.3000  142.1260 O   0  0  0  0  0  1  0  0  0  0  0  0
  188.6890  172.7470  142.4650 C   0  0  0  0  0  2  0  0  0  0  0  0
  1 15  1  1  0  0  0
  1  2  1  0  0  0  0
  2  8  2  0  0  0  0
  2 13  1  0  0  0  0
  3 11  1  0  0  0  0
  4 12  1  0  0  0  0
  5 14  2  0  0  0  0
  6  5  1  0  0  0  0
  6  4  2  0  0  0  0
  8  6  1  0  0  0  0
  9  4  1  0  0  0  0
  9 10  1  0  0  0  0
 12  7  1  1  0  0  0
 12  3  1  0  0  0  0
 12 11  1  0  0  0  0
 13  9  2  0  0  0  0
 14  7  1  0  0  0  0
 15 17  1  0  0  0  0
 16 15  2  0  0  0  0
 18 17  1  0  0  0  0
 18 21  1  0  0  0  0
 19 22  1  0  0  0  0
 20 22  1  0  0  0  0
 20 26  1  0  0  0  0
 21 24  1  0  0  0  0
 21 19  2  0  0  0  0
 23 25  1  0  0  0  0
 24 23  2  0  0  0  0
 25 20  2  0  0  0  0
 27 26  1  0  0  0  0
 28 27  1  0  0  0  0
 29 28  1  0  0  0  0
 30 32  2  0  0  0  0
 31 29  1  0  0  0  0
 32 33  1  0  0  0  0
 33 29  2  0  0  0  0
 34 31  1  0  0  0  0
 35 30  1  0  0  0  0
 35 34  2  0  0  0  0
 36  1  1  0  0  0  0
 36 54  1  1  0  0  0
 37 38  2  0  0  0  0
 38 36  1  0  0  0  0
 38 41  1  0  0  0  0
 39 37  1  0  0  0  0
 41 40  1  0  0  0  0
 41 42  1  0  0  0  0
 42 43  1  0  0  0  0
 44 45  1  6  0  0  0
 44 43  1  0  0  0  0
 44 46  1  0  0  0  0
 46 47  1  0  0  0  0
 47 48  1  0  0  0  0
 48 49  1  6  0  0  0
 48 50  1  0  0  0  0
 51 50  1  0  0  0  0
 52 51  1  0  0  0  0
 53 54  1  0  0  0  0
M  END
>  <MODEL>
1

>  <REMARK>
 VINA RESULT:      -6.8      0.000      0.000
  Name = 
  20 active torsions:
  status: ('A' for Active; 'I' for Inactive)
    1  A    between atoms: C_1  and  C_24
    2  A    between atoms: C_2  and  C_35
    3  A    between atoms: C_3  and  C_11
    4  A    between atoms: C_3  and  C_38
    5  A    between atoms: C_8  and  C_53
    6  A    between atoms: C_9  and  N_33
    7  A    between atoms: C_9  and  C_43
    8  A    between atoms: C_11  and  C_12
    9  A    between atoms: C_13  and  S_29
   10  A    between atoms: C_15  and  C_43
   11  A    between atoms: C_15  and  O_50
   12  A    between atoms: C_17  and  N_33
   13  A    between atoms: C_17  and  C_34
   14  A    between atoms: C_19  and  C_24
   15  A    between atoms: C_23  and  C_35
   16  A    between atoms: C_23  and  C_53
   17  A    between atoms: C_24  and  C_34
   18  A    between atoms: S_29  and  N_51
   19  A    between atoms: C_34  and  C_52
   20  A    between atoms: C_38  and  O_50
                            x       y       z     vdW  Elec       q    Type
                         _______ _______ _______ _____ _____    ______ ____

>  <TORSDO>
F 20

$$$$
=
 OpenBabel11042417403D

 54 58  0  0  1  0  0  0  0  0999 V2000
  191.1650  174.6810  143.8730 C   0  0  1  0  0  3  0  0  0  0  0  0
  192.3590  173.8280  144.1930 C   0  0  0  0  0  0  0  0  0  0  0  0
  195.6660  170.6120  146.2030 N   0  0  0  0  0  2  0  0  0  0  0  0
  194.6650  172.3030  144.7270 C   0  0  0  0  0  0  0  0  0  0  0  0
  195.6770  174.2600  145.9230 C   0  0  0  0  0  3  0  0  0  0  0  0
  194.5700  173.6400  145.1710 C   0  0  0  0  0  0  0  0  0  0  0  0
  197.1870  172.3600  145.3550 C   0  0  0  0  0  2  0  0  0  0  0  0
  193.4200  174.3880  144.9090 C   0  0  0  0  0  3  0  0  0  0  0  0
  193.6010  171.7480  143.9820 C   0  0  0  0  0  0  0  0  0  0  0  0
  193.6560  170.4470  143.4950 O   0  0  0  0  0  1  0  0  0  0  0  0
  196.0670  170.1130  144.8760 C   0  0  0  0  0  2  0  0  0  0  0  0
  195.9210  171.5470  145.0990 C   0  0  1  0  0  0  0  0  0  0  0  0
  192.4620  172.5150  143.7160 C   0  0  0  0  0  3  0  0  0  0  0  0
  196.8680  173.6620  146.0420 C   0  0  0  0  0  3  0  0  0  0  0  0
  190.7580  174.4610  142.4490 C   0  0  0  0  0  0  0  0  0  0  0  0
  191.3400  175.0800  141.5140 O   0  0  0  0  0  0  0  0  0  0  0  0
  189.6730  173.5790  142.1650 N   0  0  0  0  0  2  0  0  0  0  0  0
  188.8880  173.5560  140.5840 S   0  0  0  0  0  0  0  0  0  0  0  0
  190.6980  171.5930  140.8640 C   0  0  0  0  0  3  0  0  0  0  0  0
  192.7110  170.8400  139.6230 C   0  0  0  0  0  0  0  0  0  0  0  0
  190.0340  172.3290  139.9690 C   0  0  0  0  0  0  0  0  0  0  0  0
  191.5740  170.4370  140.5060 C   0  0  0  0  0  2  0  0  0  0  0  0
  191.2080  171.7180  137.8260 C   0  0  0  0  0  3  0  0  0  0  0  0
  190.1370  172.1480  138.5060 C   0  0  0  0  0  3  0  0  0  0  0  0
  192.5140  171.3340  138.3990 C   0  0  0  0  0  3  0  0  0  0  0  0
  194.1050  170.5190  140.0500 C   0  0  0  0  0  2  0  0  0  0  0  0
  195.0270  171.7180  139.8780 C   0  0  0  0  0  2  0  0  0  0  0  0
  195.7700  172.0090  141.1740 C   0  0  0  0  0  2  0  0  0  0  0  0
  195.9650  173.4760  141.3580 C   0  0  0  0  0  0  0  0  0  0  0  0
  195.9050  176.3790  142.4300 C   0  0  0  0  0  3  0  0  0  0  0  0
  197.3530  174.0180  141.2710 C   0  0  0  0  0  2  0  0  0  0  0  0
  194.9360  175.7190  141.7850 C   0  0  0  0  0  3  0  0  0  0  0  0
  194.8980  174.2670  141.5210 C   0  0  0  0  0  3  0  0  0  0  0  0
  197.7610  174.7140  142.5250 C   0  0  0  0  0  3  0  0  0  0  0  0
  197.1310  175.7890  143.0020 C   0  0  0  0  0  3  0  0  0  0  0  0
  189.9980  174.5010  144.8630 C   0  0  2  0  0  3  0  0  0  0  0  0
  190.5670  175.8140  146.8600 C   0  0  0  0  0  3  0  0  0  0  0  0
  189.8150  175.7040  145.7550 C   0  0  0  0  0  0  0  0  0  0  0  0
  190.5080  176.9140  147.7050 O   0  0  0  0  0  1  0  0  0  0  0  0
  189.3030  177.8300  144.7430 O   0  0  0  0  0  1  0  0  0  0  0  0
  188.8640  176.7130  145.3640 N   0  0  0  0  0  0  0  0  0  0  0  0
  187.4240  176.5450  145.5220 C   0  0  0  0  0  2  0  0  0  0  0  0
  186.8790  177.5310  146.5450 C   0  0  0  0  0  2  0  0  0  0  0  0
  185.6570  178.2530  146.0020 C   0  0  2  0  0  3  0  0  0  0  0  0
  184.6270  178.4320  147.1030 C   0  0  0  0  0  1  0  0  0  0  0  0
  185.1010  177.5080  144.9620 O   0  0  0  0  0  0  0  0  0  0  0  0
  184.5480  178.4630  144.1000 C   0  0  0  0  0  2  0  0  0  0  0  0
  184.5270  177.9300  142.6740 C   0  0  1  0  0  3  0  0  0  0  0  0
  183.2620  178.1010  142.1090 O   0  0  0  0  0  1  0  0  0  0  0  0
  185.6020  178.6030  141.8170 C   0  0  0  0  0  2  0  0  0  0  0  0
  187.0160  178.1880  142.2040 C   0  0  0  0  0  2  0  0  0  0  0  0
  187.2560  176.7330  141.8530 C   0  0  0  0  0  1  0  0  0  0  0  0
  189.4080  172.2000  145.1540 O   0  0  0  0  0  1  0  0  0  0  0  0
  190.1670  173.2350  145.6980 C   0  0  0  0  0  2  0  0  0  0  0  0
  1 15  1  6  0  0  0
  1  2  1  0  0  0  0
  1 36  1  0  0  0  0
  2  8  1  0  0  0  0
  4 12  1  0  0  0  0
  4  6  1  0  0  0  0
  5 14  2  0  0  0  0
  6  5  1  0  0  0  0
  7 14  1  0  0  0  0
  8  6  2  0  0  0  0
  9  4  2  0  0  0  0
 10  9  1  0  0  0  0
 11  3  1  0  0  0  0
 12 11  1  6  0  0  0
 12  7  1  0  0  0  0
 12  3  1  0  0  0  0
 13  9  1  0  0  0  0
 13  2  2  0  0  0  0
 16 15  2  0  0  0  0
 17 15  1  0  0  0  0
 18 17  1  0  0  0  0
 20 26  1  0  0  0  0
 20 22  1  0  0  0  0
 21 18  1  0  0  0  0
 21 19  2  0  0  0  0
 22 19  1  0  0  0  0
 23 25  1  0  0  0  0
 23 24  2  0  0  0  0
 24 21  1  0  0  0  0
 25 20  2  0  0  0  0
 27 26  1  0  0  0  0
 27 28  1  0  0  0  0
 28 29  1  0  0  0  0
 29 33  2  0  0  0  0
 30 35  1  0  0  0  0
 31 29  1  0  0  0  0
 31 34  1  0  0  0  0
 32 30  2  0  0  0  0
 33 32  1  0  0  0  0
 34 35  2  0  0  0  0
 36 54  1  1  0  0  0
 36 38  1  0  0  0  0
 37 39  1  0  0  0  0
 38 37  2  0  0  0  0
 40 41  1  0  0  0  0
 41 42  1  0  0  0  0
 41 38  1  0  0  0  0
 42 43  1  0  0  0  0
 44 43  1  0  0  0  0
 44 45  1  1  0  0  0
 46 44  1  0  0  0  0
 47 46  1  0  0  0  0
 48 49  1  6  0  0  0
 48 47  1  0  0  0  0
 50 51  1  0  0  0  0
 50 48  1  0  0  0  0
 52 51  1  0  0  0  0
 53 54  1  0  0  0  0
M  END
>  <MODEL>
2

>  <REMARK>
 VINA RESULT:      -6.6      2.142      4.923
  Name = 
  20 active torsions:
  status: ('A' for Active; 'I' for Inactive)
    1  A    between atoms: C_1  and  C_24
    2  A    between atoms: C_2  and  C_35
    3  A    between atoms: C_3  and  C_11
    4  A    between atoms: C_3  and  C_38
    5  A    between atoms: C_8  and  C_53
    6  A    between atoms: C_9  and  N_33
    7  A    between atoms: C_9  and  C_43
    8  A    between atoms: C_11  and  C_12
    9  A    between atoms: C_13  and  S_29
   10  A    between atoms: C_15  and  C_43
   11  A    between atoms: C_15  and  O_50
   12  A    between atoms: C_17  and  N_33
   13  A    between atoms: C_17  and  C_34
   14  A    between atoms: C_19  and  C_24
   15  A    between atoms: C_23  and  C_35
   16  A    between atoms: C_23  and  C_53
   17  A    between atoms: C_24  and  C_34
   18  A    between atoms: S_29  and  N_51
   19  A    between atoms: C_34  and  C_52
   20  A    between atoms: C_38  and  O_50
                            x       y       z     vdW  Elec       q    Type
                         _______ _______ _______ _____ _____    ______ ____

>  <TORSDO>
F 20

$$$$
=
 OpenBabel11042417403D

 54 58  0  0  1  0  0  0  0  0999 V2000
  191.0630  174.7080  143.4590 C   0  0  1  0  0  3  0  0  0  0  0  0
  192.3620  174.2160  144.0310 C   0  0  0  0  0  0  0  0  0  0  0  0
  197.1680  173.0140  144.9100 N   0  0  0  0  0  2  0  0  0  0  0  0
  194.7340  173.2190  145.1760 C   0  0  0  0  0  0  0  0  0  0  0  0
  194.2220  170.9480  144.2480 C   0  0  0  0  0  3  0  0  0  0  0  0
  193.8820  172.3710  144.4360 C   0  0  0  0  0  0  0  0  0  0  0  0
  196.0190  171.1030  145.9680 C   0  0  0  0  0  2  0  0  0  0  0  0
  192.7110  172.8740  143.8640 C   0  0  0  0  0  3  0  0  0  0  0  0
  194.3650  174.5700  145.3650 C   0  0  0  0  0  0  0  0  0  0  0  0
  195.1510  175.4410  146.1110 O   0  0  0  0  0  1  0  0  0  0  0  0
  197.0630  173.4090  146.3260 C   0  0  0  0  0  2  0  0  0  0  0  0
  196.0080  172.6080  145.7160 C   0  0  1  0  0  0  0  0  0  0  0  0
  193.1820  175.0550  144.7980 C   0  0  0  0  0  3  0  0  0  0  0  0
  195.2240  170.3690  144.9200 C   0  0  0  0  0  3  0  0  0  0  0  0
  190.9060  174.1970  142.0600 C   0  0  0  0  0  0  0  0  0  0  0  0
  191.5520  174.7230  141.1110 O   0  0  0  0  0  0  0  0  0  0  0  0
  189.9820  173.1400  141.8060 N   0  0  0  0  0  2  0  0  0  0  0  0
  189.4560  172.7450  140.1680 S   0  0  0  0  0  0  0  0  0  0  0  0
  191.3770  171.1040  141.0780 C   0  0  0  0  0  3  0  0  0  0  0  0
  193.5850  170.3250  140.2570 C   0  0  0  0  0  0  0  0  0  0  0  0
  190.7700  171.5480  139.9730 C   0  0  0  0  0  0  0  0  0  0  0  0
  192.3850  170.0020  141.0880 C   0  0  0  0  0  2  0  0  0  0  0  0
  192.2490  170.6150  138.1620 C   0  0  0  0  0  3  0  0  0  0  0  0
  191.0690  171.0620  138.6100 C   0  0  0  0  0  3  0  0  0  0  0  0
  193.5010  170.5130  138.9380 C   0  0  0  0  0  3  0  0  0  0  0  0
  194.9380  170.2620  140.8870 C   0  0  0  0  0  2  0  0  0  0  0  0
  195.8220  171.4070  140.4140 C   0  0  0  0  0  2  0  0  0  0  0  0
  196.4880  172.0910  141.6000 C   0  0  0  0  0  2  0  0  0  0  0  0
  196.3200  173.5710  141.5230 C   0  0  0  0  0  0  0  0  0  0  0  0
  195.4690  176.5040  142.0260 C   0  0  0  0  0  3  0  0  0  0  0  0
  197.5490  174.4160  141.4540 C   0  0  0  0  0  2  0  0  0  0  0  0
  194.7640  175.5320  141.4360 C   0  0  0  0  0  3  0  0  0  0  0  0
  195.0900  174.0910  141.4450 C   0  0  0  0  0  3  0  0  0  0  0  0
  197.6260  175.3830  142.5870 C   0  0  0  0  0  3  0  0  0  0  0  0
  196.7130  176.3320  142.8000 C   0  0  0  0  0  3  0  0  0  0  0  0
  189.8440  174.3980  144.3480 C   0  0  2  0  0  3  0  0  0  0  0  0
  188.8320  175.5430  146.2730 C   0  0  0  0  0  3  0  0  0  0  0  0
  189.2960  175.6340  145.0180 C   0  0  0  0  0  0  0  0  0  0  0  0
  188.3660  176.6400  146.9860 O   0  0  0  0  0  1  0  0  0  0  0  0
  190.3260  177.7610  144.5430 O   0  0  0  0  0  1  0  0  0  0  0  0
  189.3300  176.8810  144.2950 N   0  0  0  0  0  0  0  0  0  0  0  0
  188.3870  177.2030  143.2310 C   0  0  0  0  0  2  0  0  0  0  0  0
  187.3910  176.0680  143.0360 C   0  0  0  0  0  2  0  0  0  0  0  0
  185.9780  176.6070  142.8990 C   0  0  2  0  0  3  0  0  0  0  0  0
  185.9480  177.7360  141.8840 C   0  0  0  0  0  1  0  0  0  0  0  0
  185.5390  177.0800  144.1340 O   0  0  0  0  0  0  0  0  0  0  0  0
  184.7480  178.1940  143.8260 C   0  0  0  0  0  2  0  0  0  0  0  0
  184.6530  179.1180  145.0320 C   0  0  1  0  0  3  0  0  0  0  0  0
  183.4990  178.8420  145.7670 O   0  0  0  0  0  1  0  0  0  0  0  0
  185.8990  179.0080  145.9130 C   0  0  0  0  0  2  0  0  0  0  0  0
  185.5690  178.8130  147.3880 C   0  0  0  0  0  2  0  0  0  0  0  0
  186.6420  179.4370  148.2580 C   0  0  0  0  0  1  0  0  0  0  0  0
  189.5180  172.1360  145.0610 O   0  0  0  0  0  1  0  0  0  0  0  0
  190.1680  173.3260  145.3860 C   0  0  0  0  0  2  0  0  0  0  0  0
  1 15  1  6  0  0  0
  1  2  1  0  0  0  0
  1 36  1  0  0  0  0
  2 13  1  0  0  0  0
  3 12  1  0  0  0  0
  3 11  1  0  0  0  0
  4  9  1  0  0  0  0
  4 12  1  0  0  0  0
  5  6  1  0  0  0  0
  5 14  2  0  0  0  0
  6  4  2  0  0  0  0
  8  2  2  0  0  0  0
  8  6  1  0  0  0  0
  9 10  1  0  0  0  0
 12  7  1  1  0  0  0
 12 11  1  0  0  0  0
 13  9  2  0  0  0  0
 14  7  1  0  0  0  0
 16 15  2  0  0  0  0
 17 15  1  0  0  0  0
 18 17  1  0  0  0  0
 19 22  1  0  0  0  0
 20 26  1  0  0  0  0
 20 22  1  0  0  0  0
 21 18  1  0  0  0  0
 21 19  2  0  0  0  0
 23 24  2  0  0  0  0
 23 25  1  0  0  0  0
 24 21  1  0  0  0  0
 25 20  2  0  0  0  0
 27 26  1  0  0  0  0
 27 28  1  0  0  0  0
 29 28  1  0  0  0  0
 30 35  1  0  0  0  0
 31 29  1  0  0  0  0
 31 34  1  0  0  0  0
 32 33  1  0  0  0  0
 32 30  2  0  0  0  0
 33 29  2  0  0  0  0
 34 35  2  0  0  0  0
 36 38  1  0  0  0  0
 36 54  1  1  0  0  0
 37 39  1  0  0  0  0
 38 37  2  0  0  0  0
 41 40  1  0  0  0  0
 41 38  1  0  0  0  0
 42 41  1  0  0  0  0
 43 42  1  0  0  0  0
 44 45  1  6  0  0  0
 44 43  1  0  0  0  0
 44 46  1  0  0  0  0
 47 46  1  0  0  0  0
 47 48  1  0  0  0  0
 48 49  1  1  0  0  0
 48 50  1  0  0  0  0
 50 51  1  0  0  0  0
 51 52  1  0  0  0  0
 53 54  1  0  0  0  0
M  END
>  <MODEL>
3

>  <REMARK>
 VINA RESULT:      -6.5      2.214      4.318
  Name = 
  20 active torsions:
  status: ('A' for Active; 'I' for Inactive)
    1  A    between atoms: C_1  and  C_24
    2  A    between atoms: C_2  and  C_35
    3  A    between atoms: C_3  and  C_11
    4  A    between atoms: C_3  and  C_38
    5  A    between atoms: C_8  and  C_53
    6  A    between atoms: C_9  and  N_33
    7  A    between atoms: C_9  and  C_43
    8  A    between atoms: C_11  and  C_12
    9  A    between atoms: C_13  and  S_29
   10  A    between atoms: C_15  and  C_43
   11  A    between atoms: C_15  and  O_50
   12  A    between atoms: C_17  and  N_33
   13  A    between atoms: C_17  and  C_34
   14  A    between atoms: C_19  and  C_24
   15  A    between atoms: C_23  and  C_35
   16  A    between atoms: C_23  and  C_53
   17  A    between atoms: C_24  and  C_34
   18  A    between atoms: S_29  and  N_51
   19  A    between atoms: C_34  and  C_52
   20  A    between atoms: C_38  and  O_50
                            x       y       z     vdW  Elec       q    Type
                         _______ _______ _______ _____ _____    ______ ____

>  <TORSDO>
F 20

$$$$
=
 OpenBabel11042417403D

 54 58  0  0  1  0  0  0  0  0999 V2000
  190.4280  175.9470  143.0500 C   0  0  1  0  0  3  0  0  0  0  0  0
  189.1410  176.5850  143.4920 C   0  0  0  0  0  0  0  0  0  0  0  0
  185.4200  179.7510  144.6920 N   0  0  0  0  0  2  0  0  0  0  0  0
  186.7050  177.6790  144.3820 C   0  0  0  0  0  0  0  0  0  0  0  0
  187.5300  177.5810  146.7470 C   0  0  0  0  0  3  0  0  0  0  0  0
  187.7240  177.3530  145.3030 C   0  0  0  0  0  0  0  0  0  0  0  0
  185.0970  178.0000  146.4000 C   0  0  0  0  0  2  0  0  0  0  0  0
  188.9330  176.8170  144.8530 C   0  0  0  0  0  3  0  0  0  0  0  0
  186.9090  177.4190  143.0080 C   0  0  0  0  0  0  0  0  0  0  0  0
  185.9260  177.6930  142.0630 O   0  0  0  0  0  1  0  0  0  0  0  0
  184.4030  178.8650  144.0980 C   0  0  0  0  0  2  0  0  0  0  0  0
  185.4480  178.3040  144.9460 C   0  0  1  0  0  0  0  0  0  0  0  0
  188.1200  176.8690  142.5760 C   0  0  0  0  0  3  0  0  0  0  0  0
  186.3360  177.9140  147.2530 C   0  0  0  0  0  3  0  0  0  0  0  0
  191.5840  176.6650  143.6740 C   0  0  0  0  0  0  0  0  0  0  0  0
  191.8420  177.8600  143.3550 O   0  0  0  0  0  0  0  0  0  0  0  0
  192.4190  175.9670  144.5960 N   0  0  0  0  0  2  0  0  0  0  0  0
  193.9970  176.5970  145.0750 S   0  0  0  0  0  0  0  0  0  0  0  0
  195.9030  174.7910  145.6350 C   0  0  0  0  0  3  0  0  0  0  0  0
  196.2220  172.3620  145.2430 C   0  0  0  0  0  0  0  0  0  0  0  0
  194.5860  174.9620  145.4970 C   0  0  0  0  0  0  0  0  0  0  0  0
  196.5320  173.5280  146.1250 C   0  0  0  0  0  2  0  0  0  0  0  0
  193.7500  172.5870  145.5520 C   0  0  0  0  0  3  0  0  0  0  0  0
  193.5830  173.9030  145.7350 C   0  0  0  0  0  3  0  0  0  0  0  0
  194.9750  171.9170  145.0730 C   0  0  0  0  0  3  0  0  0  0  0  0
  197.3500  171.5650  144.6760 C   0  0  0  0  0  2  0  0  0  0  0  0
  197.9410  172.2390  143.4460 C   0  0  0  0  0  2  0  0  0  0  0  0
  196.9590  172.1820  142.2830 C   0  0  0  0  0  2  0  0  0  0  0  0
  196.5440  173.5530  141.8700 C   0  0  0  0  0  0  0  0  0  0  0  0
  195.2850  176.3790  141.7580 C   0  0  0  0  0  3  0  0  0  0  0  0
  197.6020  174.5000  141.4120 C   0  0  0  0  0  2  0  0  0  0  0  0
  194.6870  175.2010  141.5390 C   0  0  0  0  0  3  0  0  0  0  0  0
  195.2440  173.8700  141.8530 C   0  0  0  0  0  3  0  0  0  0  0  0
  197.6460  175.7350  142.2470 C   0  0  0  0  0  3  0  0  0  0  0  0
  196.6200  176.5810  142.3540 C   0  0  0  0  0  3  0  0  0  0  0  0
  190.4710  174.4250  143.2860 C   0  0  2  0  0  3  0  0  0  0  0  0
  189.0110  173.5610  141.5080 C   0  0  0  0  0  3  0  0  0  0  0  0
  190.2510  173.6430  142.0140 C   0  0  0  0  0  0  0  0  0  0  0  0
  188.7270  172.9140  140.3130 O   0  0  0  0  0  1  0  0  0  0  0  0
  191.8820  173.6070  140.2400 O   0  0  0  0  0  1  0  0  0  0  0  0
  191.3910  173.0440  141.3680 N   0  0  0  0  0  0  0  0  0  0  0  0
  192.1080  171.9040  141.9270 C   0  0  0  0  0  2  0  0  0  0  0  0
  191.1310  170.8570  142.4410 C   0  0  0  0  0  2  0  0  0  0  0  0
  190.9930  169.7140  141.4510 C   0  0  2  0  0  3  0  0  0  0  0  0
  192.3250  169.0030  141.2880 C   0  0  0  0  0  1  0  0  0  0  0  0
  190.5800  170.2150  140.2170 O   0  0  0  0  0  0  0  0  0  0  0  0
  191.4400  169.6180  139.2870 C   0  0  0  0  0  2  0  0  0  0  0  0
  191.9030  170.6480  138.2660 C   0  0  1  0  0  3  0  0  0  0  0  0
  193.2770  170.8660  138.3830 O   0  0  0  0  0  1  0  0  0  0  0  0
  191.5400  170.2180  136.8430 C   0  0  0  0  0  2  0  0  0  0  0  0
  191.0350  171.3710  135.9840 C   0  0  0  0  0  2  0  0  0  0  0  0
  189.5420  171.2490  135.7550 C   0  0  0  0  0  1  0  0  0  0  0  0
  190.0980  173.1770  145.2940 O   0  0  0  0  0  1  0  0  0  0  0  0
  189.4710  173.9980  144.3570 C   0  0  0  0  0  2  0  0  0  0  0  0
  1 36  1  0  0  0  0
  1  2  1  0  0  0  0
  1 15  1  1  0  0  0
  2  8  1  0  0  0  0
  3 12  1  0  0  0  0
  4 12  1  0  0  0  0
  4  6  1  0  0  0  0
  5 14  2  0  0  0  0
  6  5  1  0  0  0  0
  7 14  1  0  0  0  0
  8  6  2  0  0  0  0
  9  4  2  0  0  0  0
 10  9  1  0  0  0  0
 11  3  1  0  0  0  0
 12 11  1  6  0  0  0
 12  7  1  0  0  0  0
 13  9  1  0  0  0  0
 13  2  2  0  0  0  0
 15 17  1  0  0  0  0
 16 15  2  0  0  0  0
 17 18  1  0  0  0  0
 18 21  1  0  0  0  0
 19 22  1  0  0  0  0
 20 22  1  0  0  0  0
 21 19  2  0  0  0  0
 21 24  1  0  0  0  0
 23 24  2  0  0  0  0
 25 20  2  0  0  0  0
 25 23  1  0  0  0  0
 26 20  1  0  0  0  0
 27 26  1  0  0  0  0
 28 27  1  0  0  0  0
 29 28  1  0  0  0  0
 30 35  1  0  0  0  0
 31 29  1  0  0  0  0
 31 34  1  0  0  0  0
 32 30  2  0  0  0  0
 32 33  1  0  0  0  0
 33 29  2  0  0  0  0
 34 35  2  0  0  0  0
 36 54  1  1  0  0  0
 37 38  2  0  0  0  0
 38 36  1  0  0  0  0
 39 37  1  0  0  0  0
 40 41  1  0  0  0  0
 41 42  1  0  0  0  0
 41 38  1  0  0  0  0
 42 43  1  0  0  0  0
 44 45  1  6  0  0  0
 44 43  1  0  0  0  0
 46 44  1  0  0  0  0
 47 46  1  0  0  0  0
 48 49  1  6  0  0  0
 48 47  1  0  0  0  0
 50 48  1  0  0  0  0
 51 50  1  0  0  0  0
 52 51  1  0  0  0  0
 54 53  1  0  0  0  0
M  END
>  <MODEL>
4

>  <REMARK>
 VINA RESULT:      -6.5      2.490      6.636
  Name = 
  20 active torsions:
  status: ('A' for Active; 'I' for Inactive)
    1  A    between atoms: C_1  and  C_24
    2  A    between atoms: C_2  and  C_35
    3  A    between atoms: C_3  and  C_11
    4  A    between atoms: C_3  and  C_38
    5  A    between atoms: C_8  and  C_53
    6  A    between atoms: C_9  and  N_33
    7  A    between atoms: C_9  and  C_43
    8  A    between atoms: C_11  and  C_12
    9  A    between atoms: C_13  and  S_29
   10  A    between atoms: C_15  and  C_43
   11  A    between atoms: C_15  and  O_50
   12  A    between atoms: C_17  and  N_33
   13  A    between atoms: C_17  and  C_34
   14  A    between atoms: C_19  and  C_24
   15  A    between atoms: C_23  and  C_35
   16  A    between atoms: C_23  and  C_53
   17  A    between atoms: C_24  and  C_34
   18  A    between atoms: S_29  and  N_51
   19  A    between atoms: C_34  and  C_52
   20  A    between atoms: C_38  and  O_50
                            x       y       z     vdW  Elec       q    Type
                         _______ _______ _______ _____ _____    ______ ____

>  <TORSDO>
F 20

$$$$
=
 OpenBabel11042417403D

 54 58  0  0  1  0  0  0  0  0999 V2000
  191.9180  174.3510  143.2940 C   0  0  1  0  0  3  0  0  0  0  0  0
  192.7390  173.2420  143.8870 C   0  0  0  0  0  0  0  0  0  0  0  0
  194.7530  169.6950  146.8330 N   0  0  0  0  0  2  0  0  0  0  0  0
  194.3650  171.1890  144.9210 C   0  0  0  0  0  0  0  0  0  0  0  0
  196.0600  172.8930  145.6300 C   0  0  0  0  0  3  0  0  0  0  0  0
  194.7740  172.5370  145.0010 C   0  0  0  0  0  0  0  0  0  0  0  0
  196.7630  170.5020  145.6520 C   0  0  0  0  0  2  0  0  0  0  0  0
  193.9590  173.5510  144.4930 C   0  0  0  0  0  3  0  0  0  0  0  0
  193.1420  170.8760  144.2840 C   0  0  0  0  0  0  0  0  0  0  0  0
  192.7070  169.5630  144.1510 O   0  0  0  0  0  1  0  0  0  0  0  0
  194.8940  168.7600  145.7030 C   0  0  0  0  0  2  0  0  0  0  0  0
  195.2810  170.1570  145.5420 C   0  0  1  0  0  0  0  0  0  0  0  0
  192.3440  171.9020  143.7680 C   0  0  0  0  0  3  0  0  0  0  0  0
  196.9610  171.9620  145.9640 C   0  0  0  0  0  3  0  0  0  0  0  0
  191.5600  174.0090  141.8810 C   0  0  0  0  0  0  0  0  0  0  0  0
  192.2670  174.4280  140.9220 O   0  0  0  0  0  0  0  0  0  0  0  0
  190.3820  173.2440  141.6280 N   0  0  0  0  0  2  0  0  0  0  0  0
  189.6850  173.1250  140.0110 S   0  0  0  0  0  0  0  0  0  0  0  0
  190.7020  170.7170  140.6240 C   0  0  0  0  0  3  0  0  0  0  0  0
  192.7480  169.4470  140.0280 C   0  0  0  0  0  0  0  0  0  0  0  0
  190.6090  171.6360  139.6590 C   0  0  0  0  0  0  0  0  0  0  0  0
  191.3120  169.3670  140.4340 C   0  0  0  0  0  2  0  0  0  0  0  0
  192.2530  170.7650  137.9610 C   0  0  0  0  0  3  0  0  0  0  0  0
  191.1650  171.4680  138.3000 C   0  0  0  0  0  3  0  0  0  0  0  0
  193.1280  170.0070  138.8780 C   0  0  0  0  0  3  0  0  0  0  0  0
  193.7700  168.7270  140.8460 C   0  0  0  0  0  2  0  0  0  0  0  0
  195.1720  169.2500  140.5650 C   0  0  0  0  0  2  0  0  0  0  0  0
  195.8180  169.7560  141.8480 C   0  0  0  0  0  2  0  0  0  0  0  0
  196.0700  171.2240  141.7740 C   0  0  0  0  0  0  0  0  0  0  0  0
  197.2890  174.0140  141.2150 C   0  0  0  0  0  3  0  0  0  0  0  0
  194.9750  172.1010  141.2640 C   0  0  0  0  0  2  0  0  0  0  0  0
  197.6490  173.1310  142.1540 C   0  0  0  0  0  3  0  0  0  0  0  0
  197.2280  171.7170  142.2270 C   0  0  0  0  0  3  0  0  0  0  0  0
  195.3930  172.8740  140.0600 C   0  0  0  0  0  3  0  0  0  0  0  0
  196.3980  173.7520  140.0680 C   0  0  0  0  0  3  0  0  0  0  0  0
  190.6910  174.7310  144.1460 C   0  0  2  0  0  3  0  0  0  0  0  0
  191.1810  177.1370  144.0550 C   0  0  0  0  0  3  0  0  0  0  0  0
  190.2670  176.1630  143.9290 C   0  0  0  0  0  0  0  0  0  0  0  0
  190.8930  178.4740  143.8160 O   0  0  0  0  0  1  0  0  0  0  0  0
  188.3470  175.7300  142.5390 O   0  0  0  0  0  1  0  0  0  0  0  0
  188.9010  176.4270  143.5560 N   0  0  0  0  0  0  0  0  0  0  0  0
  188.0470  177.3530  144.2900 C   0  0  0  0  0  2  0  0  0  0  0  0
  187.5750  176.7280  145.5950 C   0  0  0  0  0  2  0  0  0  0  0  0
  186.3810  177.4810  146.1550 C   0  0  2  0  0  3  0  0  0  0  0  0
  186.1030  177.0310  147.5780 C   0  0  0  0  0  1  0  0  0  0  0  0
  185.2610  177.2330  145.3620 O   0  0  0  0  0  0  0  0  0  0  0  0
  184.4560  178.3670  145.5220 C   0  0  0  0  0  2  0  0  0  0  0  0
  184.3570  179.1290  144.2090 C   0  0  1  0  0  3  0  0  0  0  0  0
  185.3150  180.1440  144.1600 O   0  0  0  0  0  1  0  0  0  0  0  0
  184.5010  178.1870  143.0110 C   0  0  0  0  0  2  0  0  0  0  0  0
  185.4510  178.7210  141.9450 C   0  0  0  0  0  2  0  0  0  0  0  0
  185.8580  177.6130  140.9950 C   0  0  0  0  0  1  0  0  0  0  0  0
  189.7450  174.1000  146.2520 O   0  0  0  0  0  1  0  0  0  0  0  0
  190.9380  174.4630  145.6280 C   0  0  0  0  0  2  0  0  0  0  0  0
  1 15  1  6  0  0  0
  1  2  1  0  0  0  0
  1 36  1  0  0  0  0
  2  8  1  0  0  0  0
  4  6  1  0  0  0  0
  4 12  1  0  0  0  0
  5 14  2  0  0  0  0
  6  5  1  0  0  0  0
  7 14  1  0  0  0  0
  8  6  2  0  0  0  0
  9  4  2  0  0  0  0
 10  9  1  0  0  0  0
 11  3  1  0  0  0  0
 12  7  1  6  0  0  0
 12 11  1  0  0  0  0
 12  3  1  0  0  0  0
 13  2  2  0  0  0  0
 13  9  1  0  0  0  0
 16 15  2  0  0  0  0
 17 15  1  0  0  0  0
 18 17  1  0  0  0  0
 20 22  1  0  0  0  0
 20 26  1  0  0  0  0
 21 18  1  0  0  0  0
 21 19  2  0  0  0  0
 22 19  1  0  0  0  0
 23 24  2  0  0  0  0
 23 25  1  0  0  0  0
 24 21  1  0  0  0  0
 25 20  2  0  0  0  0
 27 26  1  0  0  0  0
 27 28  1  0  0  0  0
 29 28  1  0  0  0  0
 29 33  2  0  0  0  0
 30 32  2  0  0  0  0
 31 29  1  0  0  0  0
 32 33  1  0  0  0  0
 34 35  2  0  0  0  0
 34 31  1  0  0  0  0
 35 30  1  0  0  0  0
 36 54  1  1  0  0  0
 38 37  2  0  0  0  0
 38 36  1  0  0  0  0
 39 37  1  0  0  0  0
 40 41  1  0  0  0  0
 41 38  1  0  0  0  0
 41 42  1  0  0  0  0
 42 43  1  0  0  0  0
 43 44  1  0  0  0  0
 44 45  1  1  0  0  0
 46 47  1  0  0  0  0
 46 44  1  0  0  0  0
 48 49  1  1  0  0  0
 48 47  1  0  0  0  0
 50 48  1  0  0  0  0
 51 50  1  0  0  0  0
 52 51  1  0  0  0  0
 54 53  1  0  0  0  0
M  END
>  <MODEL>
5

>  <REMARK>
 VINA RESULT:      -6.4      2.315      4.889
  Name = 
  20 active torsions:
  status: ('A' for Active; 'I' for Inactive)
    1  A    between atoms: C_1  and  C_24
    2  A    between atoms: C_2  and  C_35
    3  A    between atoms: C_3  and  C_11
    4  A    between atoms: C_3  and  C_38
    5  A    between atoms: C_8  and  C_53
    6  A    between atoms: C_9  and  N_33
    7  A    between atoms: C_9  and  C_43
    8  A    between atoms: C_11  and  C_12
    9  A    between atoms: C_13  and  S_29
   10  A    between atoms: C_15  and  C_43
   11  A    between atoms: C_15  and  O_50
   12  A    between atoms: C_17  and  N_33
   13  A    between atoms: C_17  and  C_34
   14  A    between atoms: C_19  and  C_24
   15  A    between atoms: C_23  and  C_35
   16  A    between atoms: C_23  and  C_53
   17  A    between atoms: C_24  and  C_34
   18  A    between atoms: S_29  and  N_51
   19  A    between atoms: C_34  and  C_52
   20  A    between atoms: C_38  and  O_50
                            x       y       z     vdW  Elec       q    Type
                         _______ _______ _______ _____ _____    ______ ____

>  <TORSDO>
F 20

$$$$
=
 OpenBabel11042417403D

 54 58  0  0  1  0  0  0  0  0999 V2000
  194.1750  172.6950  143.6720 C   0  0  1  0  0  3  0  0  0  0  0  0
  193.2510  173.7670  144.1770 C   0  0  0  0  0  0  0  0  0  0  0  0
  189.2960  176.5400  145.5850 N   0  0  0  0  0  2  0  0  0  0  0  0
  191.6070  175.8560  145.1040 C   0  0  0  0  0  0  0  0  0  0  0  0
  191.6770  176.9130  142.8330 C   0  0  0  0  0  3  0  0  0  0  0  0
  192.0590  175.8380  143.7670 C   0  0  0  0  0  0  0  0  0  0  0  0
  190.7950  178.2940  144.7110 C   0  0  0  0  0  2  0  0  0  0  0  0
  192.8690  174.7950  143.3120 C   0  0  0  0  0  3  0  0  0  0  0  0
  192.0170  174.8280  145.9830 C   0  0  0  0  0  0  0  0  0  0  0  0
  191.6250  174.8140  147.3170 O   0  0  0  0  0  1  0  0  0  0  0  0
  189.9990  177.0290  146.7850 C   0  0  0  0  0  2  0  0  0  0  0  0
  190.6910  176.9930  145.5010 C   0  0  1  0  0  0  0  0  0  0  0  0
  192.8390  173.7980  145.5160 C   0  0  0  0  0  3  0  0  0  0  0  0
  191.0640  178.0260  143.2530 C   0  0  0  0  0  3  0  0  0  0  0  0
  193.6670  172.1690  142.3660 C   0  0  0  0  0  0  0  0  0  0  0  0
  193.9800  172.7370  141.2820 O   0  0  0  0  0  0  0  0  0  0  0  0
  192.7850  171.0470  142.3650 N   0  0  0  0  0  2  0  0  0  0  0  0
  191.8480  170.6070  140.9350 S   0  0  0  0  0  0  0  0  0  0  0  0
  189.8040  172.2900  140.4900 C   0  0  0  0  0  3  0  0  0  0  0  0
  188.7750  174.1970  141.7000 C   0  0  0  0  0  0  0  0  0  0  0  0
  190.4810  171.6430  141.4420 C   0  0  0  0  0  0  0  0  0  0  0  0
  188.5550  173.0710  140.7410 C   0  0  0  0  0  2  0  0  0  0  0  0
  189.5520  172.6870  143.5370 C   0  0  0  0  0  3  0  0  0  0  0  0
  190.1300  171.6750  142.8770 C   0  0  0  0  0  3  0  0  0  0  0  0
  189.1420  173.9860  142.9650 C   0  0  0  0  0  3  0  0  0  0  0  0
  188.4050  175.5830  141.2830 C   0  0  0  0  0  2  0  0  0  0  0  0
  187.8170  176.3720  142.4440 C   0  0  0  0  0  2  0  0  0  0  0  0
  186.3470  176.6780  142.1900 C   0  0  0  0  0  2  0  0  0  0  0  0
  185.6960  177.2150  143.4190 C   0  0  0  0  0  0  0  0  0  0  0  0
  185.1380  178.3030  146.2630 C   0  0  0  0  0  3  0  0  0  0  0  0
  184.8010  178.4010  143.2810 C   0  0  0  0  0  2  0  0  0  0  0  0
  185.3550  177.0350  145.8940 C   0  0  0  0  0  3  0  0  0  0  0  0
  185.8720  176.5840  144.5860 C   0  0  0  0  0  3  0  0  0  0  0  0
  185.2670  179.5520  144.1070 C   0  0  0  0  0  3  0  0  0  0  0  0
  185.3690  179.5030  145.4360 C   0  0  0  0  0  3  0  0  0  0  0  0
  195.6500  173.1380  143.6050 C   0  0  2  0  0  3  0  0  0  0  0  0
  196.5070  170.8400  143.7520 C   0  0  0  0  0  3  0  0  0  0  0  0
  196.5580  172.0290  143.1330 C   0  0  0  0  0  0  0  0  0  0  0  0
  197.2620  169.7470  143.3470 O   0  0  0  0  0  1  0  0  0  0  0  0
  197.7210  171.2600  141.1680 O   0  0  0  0  0  1  0  0  0  0  0  0
  197.4200  172.2770  142.0060 N   0  0  0  0  0  0  0  0  0  0  0  0
  197.9140  173.6060  141.6670 C   0  0  0  0  0  2  0  0  0  0  0  0
  197.5320  173.9710  140.2390 C   0  0  0  0  0  2  0  0  0  0  0  0
  197.1880  175.4470  140.1330 C   0  0  2  0  0  3  0  0  0  0  0  0
  196.2980  175.8590  141.2920 C   0  0  0  0  0  1  0  0  0  0  0  0
  196.5240  175.6840  138.9300 O   0  0  0  0  0  0  0  0  0  0  0  0
  195.2090  175.2640  139.1630 C   0  0  0  0  0  2  0  0  0  0  0  0
  194.5600  174.8280  137.8580 C   0  0  1  0  0  3  0  0  0  0  0  0
  193.1710  174.7850  137.9940 O   0  0  0  0  0  1  0  0  0  0  0  0
  194.9650  175.7480  136.7040 C   0  0  0  0  0  2  0  0  0  0  0  0
  193.9080  175.8310  135.6090 C   0  0  0  0  0  2  0  0  0  0  0  0
  193.2920  177.2150  135.5720 C   0  0  0  0  0  1  0  0  0  0  0  0
  196.1550  175.0820  144.9060 O   0  0  0  0  0  1  0  0  0  0  0  0
  196.1280  173.6890  144.9450 C   0  0  0  0  0  2  0  0  0  0  0  0
  1 15  1  6  0  0  0
  1  2  1  0  0  0  0
  2 13  1  0  0  0  0
  3 11  1  0  0  0  0
  4 12  1  0  0  0  0
  4  9  1  0  0  0  0
  5 14  2  0  0  0  0
  5  6  1  0  0  0  0
  6  4  2  0  0  0  0
  8  6  1  0  0  0  0
  8  2  2  0  0  0  0
  9 10  1  0  0  0  0
 12  7  1  6  0  0  0
 12  3  1  0  0  0  0
 12 11  1  0  0  0  0
 13  9  2  0  0  0  0
 14  7  1  0  0  0  0
 16 15  2  0  0  0  0
 17 15  1  0  0  0  0
 18 21  1  0  0  0  0
 18 17  1  0  0  0  0
 19 22  1  0  0  0  0
 19 21  2  0  0  0  0
 20 25  2  0  0  0  0
 21 24  1  0  0  0  0
 22 20  1  0  0  0  0
 24 23  2  0  0  0  0
 25 23  1  0  0  0  0
 26 20  1  0  0  0  0
 26 27  1  0  0  0  0
 28 27  1  0  0  0  0
 28 29  1  0  0  0  0
 29 33  2  0  0  0  0
 31 29  1  0  0  0  0
 31 34  1  0  0  0  0
 32 30  2  0  0  0  0
 33 32  1  0  0  0  0
 34 35  2  0  0  0  0
 35 30  1  0  0  0  0
 36  1  1  0  0  0  0
 36 54  1  1  0  0  0
 38 36  1  0  0  0  0
 38 37  2  0  0  0  0
 39 37  1  0  0  0  0
 40 41  1  0  0  0  0
 41 38  1  0  0  0  0
 42 41  1  0  0  0  0
 43 42  1  0  0  0  0
 44 43  1  0  0  0  0
 44 45  1  1  0  0  0
 46 47  1  0  0  0  0
 46 44  1  0  0  0  0
 48 49  1  1  0  0  0
 48 47  1  0  0  0  0
 50 48  1  0  0  0  0
 51 50  1  0  0  0  0
 52 51  1  0  0  0  0
 53 54  1  0  0  0  0
M  END
>  <MODEL>
6

>  <REMARK>
 VINA RESULT:      -6.2      2.782      8.698
  Name = 
  20 active torsions:
  status: ('A' for Active; 'I' for Inactive)
    1  A    between atoms: C_1  and  C_24
    2  A    between atoms: C_2  and  C_35
    3  A    between atoms: C_3  and  C_11
    4  A    between atoms: C_3  and  C_38
    5  A    between atoms: C_8  and  C_53
    6  A    between atoms: C_9  and  N_33
    7  A    between atoms: C_9  and  C_43
    8  A    between atoms: C_11  and  C_12
    9  A    between atoms: C_13  and  S_29
   10  A    between atoms: C_15  and  C_43
   11  A    between atoms: C_15  and  O_50
   12  A    between atoms: C_17  and  N_33
   13  A    between atoms: C_17  and  C_34
   14  A    between atoms: C_19  and  C_24
   15  A    between atoms: C_23  and  C_35
   16  A    between atoms: C_23  and  C_53
   17  A    between atoms: C_24  and  C_34
   18  A    between atoms: S_29  and  N_51
   19  A    between atoms: C_34  and  C_52
   20  A    between atoms: C_38  and  O_50
                            x       y       z     vdW  Elec       q    Type
                         _______ _______ _______ _____ _____    ______ ____

>  <TORSDO>
F 20

$$$$
=
 OpenBabel11042417403D

 54 58  0  0  1  0  0  0  0  0999 V2000
  192.5130  172.9170  140.5180 C   0  0  1  0  0  3  0  0  0  0  0  0
  193.2040  172.0460  139.5090 C   0  0  0  0  0  0  0  0  0  0  0  0
  196.3890  169.0850  136.9780 N   0  0  0  0  0  2  0  0  0  0  0  0
  194.4290  170.4600  137.5300 C   0  0  0  0  0  0  0  0  0  0  0  0
  195.2950  172.5300  136.4130 C   0  0  0  0  0  3  0  0  0  0  0  0
  194.5370  171.8670  137.4910 C   0  0  0  0  0  0  0  0  0  0  0  0
  195.4190  170.3980  135.1280 C   0  0  0  0  0  2  0  0  0  0  0  0
  193.9330  172.6470  138.4800 C   0  0  0  0  0  3  0  0  0  0  0  0
  193.6690  169.8560  138.5580 C   0  0  0  0  0  0  0  0  0  0  0  0
  193.5050  168.4770  138.6260 O   0  0  0  0  0  1  0  0  0  0  0  0
  195.2900  168.2350  136.4840 C   0  0  0  0  0  2  0  0  0  0  0  0
  195.1560  169.6870  136.4520 C   0  0  1  0  0  0  0  0  0  0  0  0
  193.0590  170.6520  139.5320 C   0  0  0  0  0  3  0  0  0  0  0  0
  195.7340  171.8550  135.3440 C   0  0  0  0  0  3  0  0  0  0  0  0
  193.3920  174.0800  140.8620 C   0  0  0  0  0  0  0  0  0  0  0  0
  193.4490  175.0870  140.1020 O   0  0  0  0  0  0  0  0  0  0  0  0
  194.2020  174.0150  142.0360 N   0  0  0  0  0  2  0  0  0  0  0  0
  195.5290  175.1470  142.3080 S   0  0  0  0  0  0  0  0  0  0  0  0
  194.5900  174.3200  144.6840 C   0  0  0  0  0  3  0  0  0  0  0  0
  193.2500  175.3250  146.5140 C   0  0  0  0  0  0  0  0  0  0  0  0
  195.0570  175.3790  144.0160 C   0  0  0  0  0  0  0  0  0  0  0  0
  194.2950  174.3220  146.1480 C   0  0  0  0  0  2  0  0  0  0  0  0
  194.5700  177.2550  145.6240 C   0  0  0  0  0  3  0  0  0  0  0  0
  195.2690  176.7110  144.6200 C   0  0  0  0  0  3  0  0  0  0  0  0
  193.4370  176.6350  146.3410 C   0  0  0  0  0  3  0  0  0  0  0  0
  192.0350  174.8670  147.2520 C   0  0  0  0  0  2  0  0  0  0  0  0
  191.1650  176.0430  147.6700 C   0  0  0  0  0  2  0  0  0  0  0  0
  189.8040  175.9670  146.9900 C   0  0  0  0  0  2  0  0  0  0  0  0
  189.9000  176.3850  145.5610 C   0  0  0  0  0  0  0  0  0  0  0  0
  190.7590  177.6920  142.8900 C   0  0  0  0  0  3  0  0  0  0  0  0
  189.8880  175.3210  144.5140 C   0  0  0  0  0  2  0  0  0  0  0  0
  190.0850  178.2520  143.9020 C   0  0  0  0  0  3  0  0  0  0  0  0
  189.9210  177.6880  145.2570 C   0  0  0  0  0  3  0  0  0  0  0  0
  191.1200  175.3510  143.6750 C   0  0  0  0  0  3  0  0  0  0  0  0
  191.4680  176.3980  142.9250 C   0  0  0  0  0  3  0  0  0  0  0  0
  191.0960  173.3460  140.0920 C   0  0  2  0  0  3  0  0  0  0  0  0
  190.3880  172.1320  142.1080 C   0  0  0  0  0  3  0  0  0  0  0  0
  190.0540  172.9750  141.1200 C   0  0  0  0  0  0  0  0  0  0  0  0
  189.5120  171.7840  143.1280 O   0  0  0  0  0  1  0  0  0  0  0  0
  187.6530  172.7810  141.0560 O   0  0  0  0  0  1  0  0  0  0  0  0
  188.7470  173.5740  141.0220 N   0  0  0  0  0  0  0  0  0  0  0  0
  188.5400  175.0170  140.9840 C   0  0  0  0  0  2  0  0  0  0  0  0
  187.5880  175.4510  142.0890 C   0  0  0  0  0  2  0  0  0  0  0  0
  186.7020  176.5920  141.6220 C   0  0  2  0  0  3  0  0  0  0  0  0
  187.5470  177.8160  141.3160 C   0  0  0  0  0  1  0  0  0  0  0  0
  185.7790  176.9030  142.6190 O   0  0  0  0  0  0  0  0  0  0  0  0
  186.4980  176.7900  143.8150 C   0  0  0  0  0  2  0  0  0  0  0  0
  186.0330  177.8460  144.8070 C   0  0  1  0  0  3  0  0  0  0  0  0
  185.2200  178.7870  144.1730 O   0  0  0  0  0  1  0  0  0  0  0  0
  185.3040  177.2080  145.9920 C   0  0  0  0  0  2  0  0  0  0  0  0
  185.3980  178.0400  147.2660 C   0  0  0  0  0  2  0  0  0  0  0  0
  186.8480  178.2750  147.6400 C   0  0  0  0  0  1  0  0  0  0  0  0
  190.2340  173.7850  137.9030 O   0  0  0  0  0  1  0  0  0  0  0  0
  190.7270  172.7730  138.7260 C   0  0  0  0  0  2  0  0  0  0  0  0
  1 15  1  6  0  0  0
  2 13  1  0  0  0  0
  2  1  1  0  0  0  0
  4  9  1  0  0  0  0
  5  6  1  0  0  0  0
  6  4  2  0  0  0  0
  6  8  1  0  0  0  0
  7 14  1  0  0  0  0
  8  2  2  0  0  0  0
  9 10  1  0  0  0  0
  9 13  2  0  0  0  0
 11  3  1  0  0  0  0
 12  7  1  6  0  0  0
 12 11  1  0  0  0  0
 12  3  1  0  0  0  0
 12  4  1  0  0  0  0
 14  5  2  0  0  0  0
 15 17  1  0  0  0  0
 16 15  2  0  0  0  0
 17 18  1  0  0  0  0
 18 21  1  0  0  0  0
 19 22  1  0  0  0  0
 20 26  1  0  0  0  0
 21 24  1  0  0  0  0
 21 19  2  0  0  0  0
 22 20  1  0  0  0  0
 23 25  1  0  0  0  0
 24 23  2  0  0  0  0
 25 20  2  0  0  0  0
 26 27  1  0  0  0  0
 28 27  1  0  0  0  0
 29 28  1  0  0  0  0
 30 35  1  0  0  0  0
 30 32  2  0  0  0  0
 31 29  1  0  0  0  0
 32 33  1  0  0  0  0
 33 29  2  0  0  0  0
 34 31  1  0  0  0  0
 35 34  2  0  0  0  0
 36 54  1  6  0  0  0
 36  1  1  0  0  0  0
 36 38  1  0  0  0  0
 37 39  1  0  0  0  0
 38 37  2  0  0  0  0
 41 40  1  0  0  0  0
 41 38  1  0  0  0  0
 42 41  1  0  0  0  0
 42 43  1  0  0  0  0
 44 45  1  1  0  0  0
 44 43  1  0  0  0  0
 44 46  1  0  0  0  0
 46 47  1  0  0  0  0
 47 48  1  0  0  0  0
 48 49  1  6  0  0  0
 48 50  1  0  0  0  0
 50 51  1  0  0  0  0
 51 52  1  0  0  0  0
 53 54  1  0  0  0  0
M  END
>  <MODEL>
7

>  <REMARK>
 VINA RESULT:      -6.2      2.990      6.431
  Name = 
  20 active torsions:
  status: ('A' for Active; 'I' for Inactive)
    1  A    between atoms: C_1  and  C_24
    2  A    between atoms: C_2  and  C_35
    3  A    between atoms: C_3  and  C_11
    4  A    between atoms: C_3  and  C_38
    5  A    between atoms: C_8  and  C_53
    6  A    between atoms: C_9  and  N_33
    7  A    between atoms: C_9  and  C_43
    8  A    between atoms: C_11  and  C_12
    9  A    between atoms: C_13  and  S_29
   10  A    between atoms: C_15  and  C_43
   11  A    between atoms: C_15  and  O_50
   12  A    between atoms: C_17  and  N_33
   13  A    between atoms: C_17  and  C_34
   14  A    between atoms: C_19  and  C_24
   15  A    between atoms: C_23  and  C_35
   16  A    between atoms: C_23  and  C_53
   17  A    between atoms: C_24  and  C_34
   18  A    between atoms: S_29  and  N_51
   19  A    between atoms: C_34  and  C_52
   20  A    between atoms: C_38  and  O_50
                            x       y       z     vdW  Elec       q    Type
                         _______ _______ _______ _____ _____    ______ ____

>  <TORSDO>
F 20

$$$$
=
 OpenBabel11042417403D

 54 58  0  0  1  0  0  0  0  0999 V2000
  192.0050  173.2680  141.2330 C   0  0  1  0  0  3  0  0  0  0  0  0
  191.9920  173.8880  142.6010 C   0  0  0  0  0  0  0  0  0  0  0  0
  191.0200  176.6060  146.7220 N   0  0  0  0  0  2  0  0  0  0  0  0
  192.0830  175.0160  145.1790 C   0  0  0  0  0  0  0  0  0  0  0  0
  193.8580  176.6120  144.4140 C   0  0  0  0  0  3  0  0  0  0  0  0
  192.9210  175.5030  144.1530 C   0  0  0  0  0  0  0  0  0  0  0  0
  193.4760  176.4180  146.8690 C   0  0  0  0  0  2  0  0  0  0  0  0
  192.8660  174.9440  142.8740 C   0  0  0  0  0  3  0  0  0  0  0  0
  191.2200  173.9310  144.9060 C   0  0  0  0  0  0  0  0  0  0  0  0
  190.3960  173.3940  145.8890 O   0  0  0  0  0  1  0  0  0  0  0  0
  191.2300  175.4430  147.6030 C   0  0  0  0  0  2  0  0  0  0  0  0
  192.1690  175.7120  146.5200 C   0  0  1  0  0  0  0  0  0  0  0  0
  191.1860  173.3740  143.6250 C   0  0  0  0  0  3  0  0  0  0  0  0
  194.0900  177.0610  145.6530 C   0  0  0  0  0  3  0  0  0  0  0  0
  192.0900  171.7780  141.3590 C   0  0  0  0  0  0  0  0  0  0  0  0
  191.0640  171.0610  141.1890 O   0  0  0  0  0  0  0  0  0  0  0  0
  193.3360  171.1820  141.7190 N   0  0  0  0  0  2  0  0  0  0  0  0
  193.4360  169.5040  142.2580 S   0  0  0  0  0  0  0  0  0  0  0  0
  194.0400  171.2500  144.2070 C   0  0  0  0  0  3  0  0  0  0  0  0
  195.9610  171.6160  145.7340 C   0  0  0  0  0  0  0  0  0  0  0  0
  194.1940  169.9860  143.8040 C   0  0  0  0  0  0  0  0  0  0  0  0
  194.4870  171.7610  145.5380 C   0  0  0  0  0  2  0  0  0  0  0  0
  195.9140  169.1330  145.4340 C   0  0  0  0  0  3  0  0  0  0  0  0
  194.8930  168.9460  144.5880 C   0  0  0  0  0  3  0  0  0  0  0  0
  196.5560  170.4220  145.7630 C   0  0  0  0  0  3  0  0  0  0  0  0
  196.7660  172.8250  146.0810 C   0  0  0  0  0  2  0  0  0  0  0  0
  197.5250  173.3510  144.8710 C   0  0  0  0  0  2  0  0  0  0  0  0
  196.9790  174.7090  144.4490 C   0  0  0  0  0  2  0  0  0  0  0  0
  196.7300  174.7490  142.9800 C   0  0  0  0  0  0  0  0  0  0  0  0
  195.4350  174.6030  140.1720 C   0  0  0  0  0  3  0  0  0  0  0  0
  197.1430  175.9700  142.2280 C   0  0  0  0  0  2  0  0  0  0  0  0
  195.8470  173.5900  140.9420 C   0  0  0  0  0  3  0  0  0  0  0  0
  196.2150  173.6740  142.3700 C   0  0  0  0  0  3  0  0  0  0  0  0
  195.9910  176.6170  141.5370 C   0  0  0  0  0  3  0  0  0  0  0  0
  195.2700  176.0080  140.5940 C   0  0  0  0  0  3  0  0  0  0  0  0
  190.8360  173.7260  140.3400 C   0  0  2  0  0  3  0  0  0  0  0  0
  188.9900  172.6580  141.5620 C   0  0  0  0  0  3  0  0  0  0  0  0
  189.5320  173.7940  141.0970 C   0  0  0  0  0  0  0  0  0  0  0  0
  187.8260  172.6330  142.3180 O   0  0  0  0  0  1  0  0  0  0  0  0
  187.9420  175.5090  140.5140 O   0  0  0  0  0  1  0  0  0  0  0  0
  188.9360  175.0850  141.3280 N   0  0  0  0  0  0  0  0  0  0  0  0
  189.2890  175.9270  142.4640 C   0  0  0  0  0  2  0  0  0  0  0  0
  188.5830  177.2720  142.3740 C   0  0  0  0  0  2  0  0  0  0  0  0
  187.7550  177.5330  143.6210 C   0  0  2  0  0  3  0  0  0  0  0  0
  188.6680  177.7630  144.8120 C   0  0  0  0  0  1  0  0  0  0  0  0
  186.9330  176.4350  143.8710 O   0  0  0  0  0  0  0  0  0  0  0  0
  185.6740  176.8190  143.3960 C   0  0  0  0  0  2  0  0  0  0  0  0
  185.4260  178.2900  143.7000 C   0  0  1  0  0  3  0  0  0  0  0  0
  185.0300  178.9670  142.5460 O   0  0  0  0  0  1  0  0  0  0  0  0
  184.3880  178.4560  144.8130 C   0  0  0  0  0  2  0  0  0  0  0  0
  184.7850  177.7540  146.1060 C   0  0  0  0  0  2  0  0  0  0  0  0
  185.6420  178.6640  146.9620 C   0  0  0  0  0  1  0  0  0  0  0  0
  191.5250  173.2990  138.0890 O   0  0  0  0  0  1  0  0  0  0  0  0
  190.6930  172.8370  139.1080 C   0  0  0  0  0  2  0  0  0  0  0  0
  1 15  1  1  0  0  0
  1  2  1  0  0  0  0
  2  8  2  0  0  0  0
  2 13  1  0  0  0  0
  3 11  1  0  0  0  0
  4 12  1  0  0  0  0
  5 14  2  0  0  0  0
  6  5  1  0  0  0  0
  6  4  2  0  0  0  0
  8  6  1  0  0  0  0
  9  4  1  0  0  0  0
  9 10  1  0  0  0  0
 12  3  1  0  0  0  0
 12  7  1  1  0  0  0
 12 11  1  0  0  0  0
 13  9  2  0  0  0  0
 14  7  1  0  0  0  0
 15 17  1  0  0  0  0
 16 15  2  0  0  0  0
 17 18  1  0  0  0  0
 18 21  1  0  0  0  0
 19 22  1  0  0  0  0
 20 25  2  0  0  0  0
 20 26  1  0  0  0  0
 21 19  2  0  0  0  0
 21 24  1  0  0  0  0
 22 20  1  0  0  0  0
 23 25  1  0  0  0  0
 24 23  2  0  0  0  0
 27 26  1  0  0  0  0
 28 27  1  0  0  0  0
 29 28  1  0  0  0  0
 30 35  1  0  0  0  0
 30 32  2  0  0  0  0
 31 29  1  0  0  0  0
 32 33  1  0  0  0  0
 33 29  2  0  0  0  0
 34 31  1  0  0  0  0
 35 34  2  0  0  0  0
 36 54  1  6  0  0  0
 36 38  1  0  0  0  0
 36  1  1  0  0  0  0
 37 39  1  0  0  0  0
 38 41  1  0  0  0  0
 38 37  2  0  0  0  0
 40 41  1  0  0  0  0
 41 42  1  0  0  0  0
 43 42  1  0  0  0  0
 43 44  1  0  0  0  0
 44 46  1  0  0  0  0
 44 45  1  1  0  0  0
 47 48  1  0  0  0  0
 47 46  1  0  0  0  0
 48 49  1  6  0  0  0
 48 50  1  0  0  0  0
 50 51  1  0  0  0  0
 51 52  1  0  0  0  0
 53 54  1  0  0  0  0
M  END
>  <MODEL>
8

>  <REMARK>
 VINA RESULT:      -6.0      1.183      2.090
  Name = 
  20 active torsions:
  status: ('A' for Active; 'I' for Inactive)
    1  A    between atoms: C_1  and  C_24
    2  A    between atoms: C_2  and  C_35
    3  A    between atoms: C_3  and  C_11
    4  A    between atoms: C_3  and  C_38
    5  A    between atoms: C_8  and  C_53
    6  A    between atoms: C_9  and  N_33
    7  A    between atoms: C_9  and  C_43
    8  A    between atoms: C_11  and  C_12
    9  A    between atoms: C_13  and  S_29
   10  A    between atoms: C_15  and  C_43
   11  A    between atoms: C_15  and  O_50
   12  A    between atoms: C_17  and  N_33
   13  A    between atoms: C_17  and  C_34
   14  A    between atoms: C_19  and  C_24
   15  A    between atoms: C_23  and  C_35
   16  A    between atoms: C_23  and  C_53
   17  A    between atoms: C_24  and  C_34
   18  A    between atoms: S_29  and  N_51
   19  A    between atoms: C_34  and  C_52
   20  A    between atoms: C_38  and  O_50
                            x       y       z     vdW  Elec       q    Type
                         _______ _______ _______ _____ _____    ______ ____

>  <TORSDO>
F 20

$$$$
=
 OpenBabel11042417403D

 54 58  0  0  1  0  0  0  0  0999 V2000
  192.6070  175.0290  144.1880 C   0  0  1  0  0  3  0  0  0  0  0  0
  193.4680  173.8400  144.5080 C   0  0  0  0  0  0  0  0  0  0  0  0
  196.7140  169.9970  144.4230 N   0  0  0  0  0  2  0  0  0  0  0  0
  195.0070  171.5860  145.1980 C   0  0  0  0  0  0  0  0  0  0  0  0
  193.0650  170.0980  144.6560 C   0  0  0  0  0  3  0  0  0  0  0  0
  193.6740  171.4380  144.7610 C   0  0  0  0  0  0  0  0  0  0  0  0
  194.9670  169.0850  145.9080 C   0  0  0  0  0  2  0  0  0  0  0  0
  192.9180  172.5600  144.4120 C   0  0  0  0  0  3  0  0  0  0  0  0
  195.5520  172.8840  145.3190 C   0  0  0  0  0  0  0  0  0  0  0  0
  196.8500  173.0890  145.7740 O   0  0  0  0  0  1  0  0  0  0  0  0
  197.2050  170.3120  145.7770 C   0  0  0  0  0  2  0  0  0  0  0  0
  195.7720  170.3170  145.5050 C   0  0  1  0  0  0  0  0  0  0  0  0
  194.7780  173.9980  144.9790 C   0  0  0  0  0  3  0  0  0  0  0  0
  193.6690  169.0100  145.1480 C   0  0  0  0  0  3  0  0  0  0  0  0
  191.9320  174.8180  142.8690 C   0  0  0  0  0  0  0  0  0  0  0  0
  192.3240  175.4420  141.8420 O   0  0  0  0  0  0  0  0  0  0  0  0
  190.8090  173.9400  142.7950 N   0  0  0  0  0  2  0  0  0  0  0  0
  189.7340  173.9300  141.3950 S   0  0  0  0  0  0  0  0  0  0  0  0
  190.7630  171.5030  141.9080 C   0  0  0  0  0  3  0  0  0  0  0  0
  192.0960  169.8350  140.6450 C   0  0  0  0  0  0  0  0  0  0  0  0
  190.2330  172.2710  140.9520 C   0  0  0  0  0  0  0  0  0  0  0  0
  191.0910  170.0570  141.7290 C   0  0  0  0  0  2  0  0  0  0  0  0
  190.6670  170.8960  138.8870 C   0  0  0  0  0  3  0  0  0  0  0  0
  189.9720  171.8140  139.5710 C   0  0  0  0  0  3  0  0  0  0  0  0
  191.8440  170.1470  139.3720 C   0  0  0  0  0  3  0  0  0  0  0  0
  193.3470  169.0840  140.9640 C   0  0  0  0  0  2  0  0  0  0  0  0
  194.3600  169.9710  141.6730 C   0  0  0  0  0  2  0  0  0  0  0  0
  195.2190  170.7150  140.6600 C   0  0  0  0  0  2  0  0  0  0  0  0
  195.1620  172.1860  140.8930 C   0  0  0  0  0  0  0  0  0  0  0  0
  195.8220  175.2070  141.0490 C   0  0  0  0  0  3  0  0  0  0  0  0
  193.9760  172.9350  140.3810 C   0  0  0  0  0  2  0  0  0  0  0  0
  196.2440  174.2280  141.8580 C   0  0  0  0  0  3  0  0  0  0  0  0
  196.1270  172.7780  141.6070 C   0  0  0  0  0  3  0  0  0  0  0  0
  194.3640  174.0050  139.4190 C   0  0  0  0  0  3  0  0  0  0  0  0
  195.1510  175.0310  139.7460 C   0  0  0  0  0  3  0  0  0  0  0  0
  191.6190  175.3920  145.3140 C   0  0  2  0  0  3  0  0  0  0  0  0
  191.5940  177.6050  144.2470 C   0  0  0  0  0  3  0  0  0  0  0  0
  191.0370  176.7730  145.1390 C   0  0  0  0  0  0  0  0  0  0  0  0
  191.0880  178.8700  143.9780 O   0  0  0  0  0  1  0  0  0  0  0  0
  190.0340  177.5780  147.1770 O   0  0  0  0  0  1  0  0  0  0  0  0
  189.8740  177.1330  145.9100 N   0  0  0  0  0  0  0  0  0  0  0  0
  188.5250  177.1290  145.3560 C   0  0  0  0  0  2  0  0  0  0  0  0
  187.4890  177.1780  146.4690 C   0  0  0  0  0  2  0  0  0  0  0  0
  186.1290  177.5800  145.9240 C   0  0  2  0  0  3  0  0  0  0  0  0
  185.0410  177.2100  146.9160 C   0  0  0  0  0  1  0  0  0  0  0  0
  185.9000  176.9240  144.7160 O   0  0  0  0  0  0  0  0  0  0  0  0
  184.8250  177.6110  144.1380 C   0  0  0  0  0  2  0  0  0  0  0  0
  185.2430  178.2050  142.8010 C   0  0  1  0  0  3  0  0  0  0  0  0
  185.9070  179.4180  142.9920 O   0  0  0  0  0  1  0  0  0  0  0  0
  186.1120  177.2270  142.0080 C   0  0  0  0  0  2  0  0  0  0  0  0
  187.2200  177.9180  141.2210 C   0  0  0  0  0  2  0  0  0  0  0  0
  188.5760  177.5820  141.8090 C   0  0  0  0  0  1  0  0  0  0  0  0
  193.0840  176.3550  146.9430 O   0  0  0  0  0  1  0  0  0  0  0  0
  192.2660  175.2540  146.6890 C   0  0  0  0  0  2  0  0  0  0  0  0
  1 15  1  6  0  0  0
  1  2  1  0  0  0  0
  1 36  1  0  0  0  0
  2 13  1  0  0  0  0
  3 12  1  0  0  0  0
  3 11  1  0  0  0  0
  4  9  1  0  0  0  0
  4 12  1  0  0  0  0
  5  6  1  0  0  0  0
  5 14  2  0  0  0  0
  6  4  2  0  0  0  0
  8  2  2  0  0  0  0
  8  6  1  0  0  0  0
  9 10  1  0  0  0  0
 12 11  1  1  0  0  0
 12  7  1  0  0  0  0
 13  9  2  0  0  0  0
 14  7  1  0  0  0  0
 16 15  2  0  0  0  0
 17 15  1  0  0  0  0
 18 17  1  0  0  0  0
 20 26  1  0  0  0  0
 20 22  1  0  0  0  0
 21 18  1  0  0  0  0
 21 19  2  0  0  0  0
 22 19  1  0  0  0  0
 23 25  1  0  0  0  0
 23 24  2  0  0  0  0
 24 21  1  0  0  0  0
 25 20  2  0  0  0  0
 26 27  1  0  0  0  0
 28 29  1  0  0  0  0
 28 27  1  0  0  0  0
 29 33  2  0  0  0  0
 30 32  2  0  0  0  0
 31 29  1  0  0  0  0
 33 32  1  0  0  0  0
 34 35  2  0  0  0  0
 34 31  1  0  0  0  0
 35 30  1  0  0  0  0
 36 54  1  1  0  0  0
 37 38  2  0  0  0  0
 38 36  1  0  0  0  0
 38 41  1  0  0  0  0
 39 37  1  0  0  0  0
 41 40  1  0  0  0  0
 42 41  1  0  0  0  0
 42 43  1  0  0  0  0
 44 43  1  0  0  0  0
 44 45  1  1  0  0  0
 46 44  1  0  0  0  0
 47 46  1  0  0  0  0
 48 49  1  1  0  0  0
 48 47  1  0  0  0  0
 50 48  1  0  0  0  0
 51 52  1  0  0  0  0
 51 50  1  0  0  0  0
 54 53  1  0  0  0  0
M  END
>  <MODEL>
9

>  <REMARK>
 VINA RESULT:      -6.0      2.363      5.357
  Name = 
  20 active torsions:
  status: ('A' for Active; 'I' for Inactive)
    1  A    between atoms: C_1  and  C_24
    2  A    between atoms: C_2  and  C_35
    3  A    between atoms: C_3  and  C_11
    4  A    between atoms: C_3  and  C_38
    5  A    between atoms: C_8  and  C_53
    6  A    between atoms: C_9  and  N_33
    7  A    between atoms: C_9  and  C_43
    8  A    between atoms: C_11  and  C_12
    9  A    between atoms: C_13  and  S_29
   10  A    between atoms: C_15  and  C_43
   11  A    between atoms: C_15  and  O_50
   12  A    between atoms: C_17  and  N_33
   13  A    between atoms: C_17  and  C_34
   14  A    between atoms: C_19  and  C_24
   15  A    between atoms: C_23  and  C_35
   16  A    between atoms: C_23  and  C_53
   17  A    between atoms: C_24  and  C_34
   18  A    between atoms: S_29  and  N_51
   19  A    between atoms: C_34  and  C_52
   20  A    between atoms: C_38  and  O_50
                            x       y       z     vdW  Elec       q    Type
                         _______ _______ _______ _____ _____    ______ ____

>  <TORSDO>
F 20

$$$$
