=
 OpenBabel11042419343D

 32 36  0  0  1  0  0  0  0  0999 V2000
  192.6520  175.5120  145.6280 C   0  0  0  0  0  0  0  0  0  0  0  0
  190.4900  176.5400  145.1420 C   0  0  0  0  0  0  0  0  0  0  0  0
  191.5780  175.7430  144.7550 C   0  0  0  0  0  3  0  0  0  0  0  0
  192.6180  176.0770  146.9100 C   0  0  0  0  0  3  0  0  0  0  0  0
  190.4800  177.1020  146.4270 C   0  0  0  0  0  3  0  0  0  0  0  0
  191.5390  176.8710  147.3080 C   0  0  0  0  0  0  0  0  0  0  0  0
  188.1470  177.1700  144.6010 C   0  0  0  0  0  3  0  0  0  0  0  0
  187.4220  177.2780  143.4400 C   0  0  0  0  0  0  0  0  0  0  0  0
  186.1310  177.6170  143.0720 C   0  0  0  0  0  0  0  0  0  0  0  0
  185.0630  177.9940  143.8810 C   0  0  0  0  0  3  0  0  0  0  0  0
  188.2210  176.9600  142.4070 C   0  0  0  0  0  0  0  0  0  0  0  0
  187.4260  177.0600  140.9200 S   0  0  0  0  0  0  0  0  0  0  0  0
  184.8000  177.8290  141.0870 N   0  0  0  0  0  0  0  0  0  0  0  0
  189.4680  176.6410  142.8790 C   0  0  0  0  0  3  0  0  0  0  0  0
  183.8430  178.2900  143.2520 C   0  0  0  0  0  3  0  0  0  0  0  0
  183.7300  178.2030  141.8490 C   0  0  0  0  0  0  0  0  0  0  0  0
  189.4010  176.7760  144.2330 N   0  0  0  0  0  0  0  0  0  0  0  0
  185.9810  177.5410  141.6890 C   0  0  0  0  0  0  0  0  0  0  0  0
  182.4780  178.5080  141.2170 C   0  0  0  0  0  0  0  0  0  0  0  0
  181.4690  178.7530  140.7070 N   0  0  0  0  0  0  0  0  0  0  0  0
  195.6340  174.1510  143.7430 O   0  0  0  0  0  0  0  0  0  0  0  0
  196.8490  174.8560  143.7990 C   0  0  2  0  0  3  0  0  0  0  0  0
  196.5410  176.3280  143.5820 C   0  0  0  0  0  2  0  0  0  0  0  0
  194.7230  175.0460  144.2070 N   0  0  0  0  0  0  0  0  0  0  0  0
  193.9370  173.5330  145.7890 O   0  0  0  0  0  0  0  0  0  0  0  0
  193.7920  174.6540  145.2290 C   0  0  0  0  0  0  0  0  0  0  0  0
  195.1100  176.4280  144.0200 C   0  0  0  0  0  2  0  0  0  0  0  0
  197.9410  175.2610  141.6940 O   0  0  0  0  0  1  0  0  0  0  0  0
  197.3700  173.0070  142.2070 C   0  0  0  0  0  1  0  0  0  0  0  0
  197.8280  174.3490  142.7450 C   0  0  2  0  0  3  0  0  0  0  0  0
  191.5010  177.9310  149.7260 C   0  0  0  0  0  3  0  0  0  0  0  0
  191.5180  177.4470  148.6220 C   0  0  0  0  0  0  0  0  0  0  0  0
  1  4  1  0  0  0  0
  2  5  2  0  0  0  0
  3  2  1  0  0  0  0
  3  1  2  0  0  0  0
  4  6  2  0  0  0  0
  5  6  1  0  0  0  0
  6 32  1  0  0  0  0
  8  7  2  0  0  0  0
  9  8  1  0  0  0  0
  9 10  1  0  0  0  0
 11 14  2  0  0  0  0
 11  8  1  0  0  0  0
 12 18  1  0  0  0  0
 12 11  1  0  0  0  0
 13 18  1  0  0  0  0
 13 16  2  0  0  0  0
 14 17  1  0  0  0  0
 15 10  2  0  0  0  0
 16 15  1  0  0  0  0
 17  7  1  0  0  0  0
 17  2  1  0  0  0  0
 18  9  2  0  0  0  0
 19 16  1  0  0  0  0
 20 19  3  0  0  0  0
 21 22  1  0  0  0  0
 21 24  1  0  0  0  0
 22 30  1  6  0  0  0
 23 22  1  0  0  0  0
 23 27  1  0  0  0  0
 24 26  1  0  0  0  0
 26  1  1  0  0  0  0
 26 25  2  0  0  0  0
 27 24  1  0  0  0  0
 28 30  1  0  0  0  0
 30 29  1  6  0  0  0
 32 31  3  0  0  0  0
M  END
>  <MODEL>
1

>  <REMARK>
 VINA RESULT:      -7.4      0.000      0.000
  Name = 
  5 active torsions:
  status: ('A' for Active; 'I' for Inactive)
    1  A    between atoms: C_2  and  C_29
    2  A    between atoms: C_10  and  C_11
    3  A    between atoms: C_17  and  N_31
    4  A    between atoms: C_22  and  C_30
    5  A    between atoms: C_27  and  C_28
                            x       y       z     vdW  Elec       q    Type
                         _______ _______ _______ _____ _____    ______ ____

>  <TORSDO>
F 5

$$$$
=
 OpenBabel11042419343D

 32 36  0  0  1  0  0  0  0  0999 V2000
  193.1040  176.2810  145.8920 C   0  0  0  0  0  0  0  0  0  0  0  0
  190.7710  176.8640  145.4640 C   0  0  0  0  0  0  0  0  0  0  0  0
  192.0050  176.3610  145.0250 C   0  0  0  0  0  3  0  0  0  0  0  0
  192.9510  176.6960  147.2220 C   0  0  0  0  0  3  0  0  0  0  0  0
  190.6430  177.2820  146.7970 C   0  0  0  0  0  3  0  0  0  0  0  0
  191.7270  177.1970  147.6730 C   0  0  0  0  0  0  0  0  0  0  0  0
  188.4410  177.4910  144.8680 C   0  0  0  0  0  3  0  0  0  0  0  0
  187.6720  177.3730  143.7370 C   0  0  0  0  0  0  0  0  0  0  0  0
  186.3840  177.6950  143.3420 C   0  0  0  0  0  0  0  0  0  0  0  0
  185.3740  178.3100  144.0750 C   0  0  0  0  0  3  0  0  0  0  0  0
  188.4070  176.7790  142.7800 C   0  0  0  0  0  0  0  0  0  0  0  0
  187.5520  176.5830  141.3370 S   0  0  0  0  0  0  0  0  0  0  0  0
  184.9780  177.5250  141.4050 N   0  0  0  0  0  0  0  0  0  0  0  0
  189.6560  176.5040  143.2730 C   0  0  0  0  0  3  0  0  0  0  0  0
  184.1440  178.5250  143.4340 C   0  0  0  0  0  3  0  0  0  0  0  0
  183.9630  178.1260  142.0930 C   0  0  0  0  0  0  0  0  0  0  0  0
  189.6560  176.9500  144.5610 N   0  0  0  0  0  0  0  0  0  0  0  0
  186.1690  177.3130  142.0190 C   0  0  0  0  0  0  0  0  0  0  0  0
  182.7010  178.3510  141.4480 C   0  0  0  0  0  0  0  0  0  0  0  0
  181.6840  178.5330  140.9260 N   0  0  0  0  0  0  0  0  0  0  0  0
  196.0630  173.9710  145.4380 O   0  0  0  0  0  0  0  0  0  0  0  0
  195.8870  172.7800  144.7120 C   0  0  2  0  0  3  0  0  0  0  0  0
  194.6040  172.1280  145.1970 C   0  0  0  0  0  2  0  0  0  0  0  0
  194.7940  174.3740  145.7050 N   0  0  0  0  0  0  0  0  0  0  0  0
  195.1990  176.4820  144.8110 O   0  0  0  0  0  0  0  0  0  0  0  0
  194.4020  175.7300  145.4360 C   0  0  0  0  0  0  0  0  0  0  0  0
  193.8300  173.2950  145.7350 C   0  0  0  0  0  2  0  0  0  0  0  0
  197.4090  171.2170  143.6960 O   0  0  0  0  0  1  0  0  0  0  0  0
  196.7510  170.7910  145.9440 C   0  0  0  0  0  1  0  0  0  0  0  0
  197.0740  171.8410  144.9000 C   0  0  2  0  0  3  0  0  0  0  0  0
  191.4640  177.9800  150.1810 C   0  0  0  0  0  3  0  0  0  0  0  0
  191.5840  177.6230  149.0360 C   0  0  0  0  0  0  0  0  0  0  0  0
  1  4  1  0  0  0  0
  2  5  2  0  0  0  0
  3  2  1  0  0  0  0
  3  1  2  0  0  0  0
  4  6  2  0  0  0  0
  5  6  1  0  0  0  0
  6 32  1  0  0  0  0
  8  7  2  0  0  0  0
  9  8  1  0  0  0  0
  9 10  1  0  0  0  0
 11 14  2  0  0  0  0
 11  8  1  0  0  0  0
 12 18  1  0  0  0  0
 12 11  1  0  0  0  0
 13 18  1  0  0  0  0
 13 16  2  0  0  0  0
 14 17  1  0  0  0  0
 15 10  2  0  0  0  0
 16 15  1  0  0  0  0
 17  7  1  0  0  0  0
 17  2  1  0  0  0  0
 18  9  2  0  0  0  0
 19 16  1  0  0  0  0
 20 19  3  0  0  0  0
 21 24  1  0  0  0  0
 22 30  1  1  0  0  0
 22 23  1  0  0  0  0
 22 21  1  0  0  0  0
 23 27  1  0  0  0  0
 24 27  1  0  0  0  0
 25 26  2  0  0  0  0
 26 24  1  0  0  0  0
 26  1  1  0  0  0  0
 28 30  1  0  0  0  0
 30 29  1  1  0  0  0
 32 31  3  0  0  0  0
M  END
>  <MODEL>
2

>  <REMARK>
 VINA RESULT:      -7.4      1.533      1.941
  Name = 
  5 active torsions:
  status: ('A' for Active; 'I' for Inactive)
    1  A    between atoms: C_2  and  C_29
    2  A    between atoms: C_10  and  C_11
    3  A    between atoms: C_17  and  N_31
    4  A    between atoms: C_22  and  C_30
    5  A    between atoms: C_27  and  C_28
                            x       y       z     vdW  Elec       q    Type
                         _______ _______ _______ _____ _____    ______ ____

>  <TORSDO>
F 5

$$$$
=
 OpenBabel11042419343D

 32 36  0  0  1  0  0  0  0  0999 V2000
  191.3120  175.9260  145.9330 C   0  0  0  0  0  0  0  0  0  0  0  0
  189.1820  177.0950  146.1820 C   0  0  0  0  0  0  0  0  0  0  0  0
  190.0420  176.2650  145.4460 C   0  0  0  0  0  3  0  0  0  0  0  0
  191.7120  176.4150  147.1840 C   0  0  0  0  0  3  0  0  0  0  0  0
  189.6060  177.5800  147.4280 C   0  0  0  0  0  3  0  0  0  0  0  0
  190.8650  177.2410  147.9280 C   0  0  0  0  0  0  0  0  0  0  0  0
  187.5120  177.3380  144.3570 C   0  0  0  0  0  3  0  0  0  0  0  0
  186.2100  177.7680  144.2940 C   0  0  0  0  0  0  0  0  0  0  0  0
  185.2350  177.9280  143.3250 C   0  0  0  0  0  0  0  0  0  0  0  0
  185.3080  177.6640  141.9610 C   0  0  0  0  0  3  0  0  0  0  0  0
  185.8160  178.1190  145.5310 C   0  0  0  0  0  0  0  0  0  0  0  0
  184.2190  178.6670  145.5710 S   0  0  0  0  0  0  0  0  0  0  0  0
  182.9590  178.6660  143.1360 N   0  0  0  0  0  0  0  0  0  0  0  0
  186.8510  177.9230  146.4090 C   0  0  0  0  0  3  0  0  0  0  0  0
  184.1640  177.9160  141.1860 C   0  0  0  0  0  3  0  0  0  0  0  0
  182.9940  178.4180  141.7930 C   0  0  0  0  0  0  0  0  0  0  0  0
  187.8870  177.4430  145.6650 N   0  0  0  0  0  0  0  0  0  0  0  0
  184.0610  178.4250  143.8890 C   0  0  0  0  0  0  0  0  0  0  0  0
  181.8310  178.6720  140.9920 C   0  0  0  0  0  0  0  0  0  0  0  0
  180.8920  178.8760  140.3460 N   0  0  0  0  0  0  0  0  0  0  0  0
  193.9690  174.7050  143.5360 O   0  0  0  0  0  0  0  0  0  0  0  0
  195.3190  174.9630  143.8330 C   0  0  2  0  0  3  0  0  0  0  0  0
  195.4290  176.4160  144.2630 C   0  0  0  0  0  2  0  0  0  0  0  0
  193.2930  175.5400  144.3670 N   0  0  0  0  0  0  0  0  0  0  0  0
  192.0120  173.7880  145.2020 O   0  0  0  0  0  0  0  0  0  0  0  0
  192.2130  175.0320  145.1680 C   0  0  0  0  0  0  0  0  0  0  0  0
  194.0450  176.7130  144.7590 C   0  0  0  0  0  2  0  0  0  0  0  0
  197.0660  173.6150  142.8750 O   0  0  0  0  0  1  0  0  0  0  0  0
  197.0240  175.9210  142.2840 C   0  0  0  0  0  1  0  0  0  0  0  0
  196.2090  174.6890  142.6250 C   0  0  2  0  0  3  0  0  0  0  0  0
  191.6440  178.1570  150.2790 C   0  0  0  0  0  3  0  0  0  0  0  0
  191.2880  177.7390  149.2060 C   0  0  0  0  0  0  0  0  0  0  0  0
  1  4  1  0  0  0  0
  2  5  2  0  0  0  0
  3  1  2  0  0  0  0
  3  2  1  0  0  0  0
  4  6  2  0  0  0  0
  5  6  1  0  0  0  0
  6 32  1  0  0  0  0
  7 17  1  0  0  0  0
  8  7  2  0  0  0  0
  8 11  1  0  0  0  0
  9 18  1  0  0  0  0
  9  8  1  0  0  0  0
 10  9  2  0  0  0  0
 11 12  1  0  0  0  0
 11 14  2  0  0  0  0
 13 18  2  0  0  0  0
 15 16  2  0  0  0  0
 15 10  1  0  0  0  0
 16 13  1  0  0  0  0
 17  2  1  0  0  0  0
 17 14  1  0  0  0  0
 18 12  1  0  0  0  0
 19 16  1  0  0  0  0
 20 19  3  0  0  0  0
 21 22  1  0  0  0  0
 21 24  1  0  0  0  0
 22 30  1  6  0  0  0
 22 23  1  0  0  0  0
 23 27  1  0  0  0  0
 24 27  1  0  0  0  0
 24 26  1  0  0  0  0
 26 25  2  0  0  0  0
 26  1  1  0  0  0  0
 30 29  1  1  0  0  0
 30 28  1  0  0  0  0
 32 31  3  0  0  0  0
M  END
>  <MODEL>
3

>  <REMARK>
 VINA RESULT:      -7.4      1.745      2.207
  Name = 
  5 active torsions:
  status: ('A' for Active; 'I' for Inactive)
    1  A    between atoms: C_2  and  C_29
    2  A    between atoms: C_10  and  C_11
    3  A    between atoms: C_17  and  N_31
    4  A    between atoms: C_22  and  C_30
    5  A    between atoms: C_27  and  C_28
                            x       y       z     vdW  Elec       q    Type
                         _______ _______ _______ _____ _____    ______ ____

>  <TORSDO>
F 5

$$$$
=
 OpenBabel11042419343D

 32 36  0  0  1  0  0  0  0  0999 V2000
  195.2200  173.7760  144.8490 C   0  0  0  0  0  0  0  0  0  0  0  0
  193.1860  175.1110  144.6390 C   0  0  0  0  0  0  0  0  0  0  0  0
  193.9260  174.1050  145.2780 C   0  0  0  0  0  3  0  0  0  0  0  0
  195.7800  174.4810  143.7750 C   0  0  0  0  0  3  0  0  0  0  0  0
  193.7620  175.7990  143.5600 C   0  0  0  0  0  3  0  0  0  0  0  0
  195.0540  175.4870  143.1310 C   0  0  0  0  0  0  0  0  0  0  0  0
  191.0110  176.3010  144.4570 C   0  0  0  0  0  3  0  0  0  0  0  0
  189.8570  176.3180  145.2010 C   0  0  0  0  0  0  0  0  0  0  0  0
  188.6260  176.9500  145.1580 C   0  0  0  0  0  0  0  0  0  0  0  0
  188.1470  177.8660  144.2280 C   0  0  0  0  0  3  0  0  0  0  0  0
  190.0080  175.4810  146.2420 C   0  0  0  0  0  0  0  0  0  0  0  0
  188.6400  175.4240  147.2300 S   0  0  0  0  0  0  0  0  0  0  0  0
  186.5790  177.0330  146.4060 N   0  0  0  0  0  0  0  0  0  0  0  0
  191.2550  174.9130  146.1900 C   0  0  0  0  0  3  0  0  0  0  0  0
  186.8470  178.3640  144.4140 C   0  0  0  0  0  3  0  0  0  0  0  0
  186.0740  177.9340  145.5120 C   0  0  0  0  0  0  0  0  0  0  0  0
  191.8570  175.4320  145.0830 N   0  0  0  0  0  0  0  0  0  0  0  0
  187.8340  176.5490  146.2320 C   0  0  0  0  0  0  0  0  0  0  0  0
  184.7470  178.4490  145.6930 C   0  0  0  0  0  0  0  0  0  0  0  0
  183.6770  178.8650  145.8390 N   0  0  0  0  0  0  0  0  0  0  0  0
  196.1600  170.5740  146.6270 O   0  0  0  0  0  0  0  0  0  0  0  0
  196.1560  169.3700  145.9010 C   0  0  2  0  0  3  0  0  0  0  0  0
  194.8750  169.3260  145.0860 C   0  0  0  0  0  2  0  0  0  0  0  0
  195.4690  171.4310  145.8310 N   0  0  0  0  0  0  0  0  0  0  0  0
  197.1920  172.9910  145.8950 O   0  0  0  0  0  0  0  0  0  0  0  0
  196.0120  172.7290  145.5360 C   0  0  0  0  0  0  0  0  0  0  0  0
  194.5310  170.7790  144.9430 C   0  0  0  0  0  2  0  0  0  0  0  0
  195.1860  168.1660  147.7440 O   0  0  0  0  0  1  0  0  0  0  0  0
  197.5610  168.1780  147.5820 C   0  0  0  0  0  1  0  0  0  0  0  0
  196.2440  168.1660  146.8320 C   0  0  2  0  0  3  0  0  0  0  0  0
  196.1250  176.7970  141.1040 C   0  0  0  0  0  3  0  0  0  0  0  0
  195.6360  176.1990  142.0290 C   0  0  0  0  0  0  0  0  0  0  0  0
  1  3  1  0  0  0  0
  1 26  1  0  0  0  0
  2 17  1  0  0  0  0
  2  3  2  0  0  0  0
  4  1  2  0  0  0  0
  5  2  1  0  0  0  0
  6  5  2  0  0  0  0
  6  4  1  0  0  0  0
  7 17  1  0  0  0  0
  7  8  2  0  0  0  0
  8 11  1  0  0  0  0
  9  8  1  0  0  0  0
  9 18  1  0  0  0  0
 10 15  1  0  0  0  0
 10  9  2  0  0  0  0
 11 12  1  0  0  0  0
 14 11  2  0  0  0  0
 15 16  2  0  0  0  0
 16 19  1  0  0  0  0
 16 13  1  0  0  0  0
 17 14  1  0  0  0  0
 18 13  2  0  0  0  0
 18 12  1  0  0  0  0
 19 20  3  0  0  0  0
 22 21  1  0  0  0  0
 22 30  1  1  0  0  0
 23 22  1  0  0  0  0
 24 21  1  0  0  0  0
 26 24  1  0  0  0  0
 26 25  2  0  0  0  0
 27 23  1  0  0  0  0
 27 24  1  0  0  0  0
 30 29  1  1  0  0  0
 30 28  1  0  0  0  0
 31 32  3  0  0  0  0
 32  6  1  0  0  0  0
M  END
>  <MODEL>
4

>  <REMARK>
 VINA RESULT:      -7.0      3.455      5.356
  Name = 
  5 active torsions:
  status: ('A' for Active; 'I' for Inactive)
    1  A    between atoms: C_2  and  C_29
    2  A    between atoms: C_10  and  C_11
    3  A    between atoms: C_17  and  N_31
    4  A    between atoms: C_22  and  C_30
    5  A    between atoms: C_27  and  C_28
                            x       y       z     vdW  Elec       q    Type
                         _______ _______ _______ _____ _____    ______ ____

>  <TORSDO>
F 5

$$$$
=
 OpenBabel11042419343D

 32 36  0  0  1  0  0  0  0  0999 V2000
  191.1410  176.0230  145.5110 C   0  0  0  0  0  0  0  0  0  0  0  0
  189.0160  177.1610  145.8990 C   0  0  0  0  0  0  0  0  0  0  0  0
  189.8590  176.3940  145.0820 C   0  0  0  0  0  3  0  0  0  0  0  0
  191.5710  176.4160  146.7860 C   0  0  0  0  0  3  0  0  0  0  0  0
  189.4680  177.5510  147.1680 C   0  0  0  0  0  3  0  0  0  0  0  0
  190.7400  177.1790  147.6110 C   0  0  0  0  0  0  0  0  0  0  0  0
  187.2750  177.4610  144.1500 C   0  0  0  0  0  3  0  0  0  0  0  0
  185.9810  177.9190  144.1470 C   0  0  0  0  0  0  0  0  0  0  0  0
  184.9690  178.1110  143.2220 C   0  0  0  0  0  0  0  0  0  0  0  0
  184.9790  177.8610  141.8530 C   0  0  0  0  0  3  0  0  0  0  0  0
  185.6470  178.2640  145.4040 C   0  0  0  0  0  0  0  0  0  0  0  0
  184.0660  178.8450  145.5170 S   0  0  0  0  0  0  0  0  0  0  0  0
  182.7050  178.8990  143.1380 N   0  0  0  0  0  0  0  0  0  0  0  0
  186.7140  178.0360  146.2340 C   0  0  0  0  0  3  0  0  0  0  0  0
  183.8090  178.1460  141.1310 C   0  0  0  0  0  3  0  0  0  0  0  0
  182.6770  178.6660  141.7920 C   0  0  0  0  0  0  0  0  0  0  0  0
  187.7070  177.5420  145.4420 N   0  0  0  0  0  0  0  0  0  0  0  0
  183.8320  178.6260  143.8410 C   0  0  0  0  0  0  0  0  0  0  0  0
  181.4870  178.9530  141.0440 C   0  0  0  0  0  0  0  0  0  0  0  0
  180.5260  179.1850  140.4420 N   0  0  0  0  0  0  0  0  0  0  0  0
  192.8500  173.0320  143.9510 O   0  0  0  0  0  0  0  0  0  0  0  0
  192.1050  172.1900  143.1070 C   0  0  2  0  0  3  0  0  0  0  0  0
  190.7740  171.9160  143.7850 C   0  0  0  0  0  2  0  0  0  0  0  0
  191.9020  173.7640  144.5930 N   0  0  0  0  0  0  0  0  0  0  0  0
  192.9290  175.7590  143.9850 O   0  0  0  0  0  0  0  0  0  0  0  0
  192.0250  175.1940  144.6580 C   0  0  0  0  0  0  0  0  0  0  0  0
  190.6170  173.1050  144.6860 C   0  0  0  0  0  2  0  0  0  0  0  0
  191.9540  169.8250  142.6910 O   0  0  0  0  0  1  0  0  0  0  0  0
  193.8170  170.5900  143.9600 C   0  0  0  0  0  1  0  0  0  0  0  0
  192.8490  170.8880  142.8330 C   0  0  2  0  0  3  0  0  0  0  0  0
  191.5730  177.9150  150.0060 C   0  0  0  0  0  3  0  0  0  0  0  0
  191.1930  177.5790  148.9130 C   0  0  0  0  0  0  0  0  0  0  0  0
  1  4  1  0  0  0  0
  2  5  2  0  0  0  0
  3  1  2  0  0  0  0
  3  2  1  0  0  0  0
  4  6  2  0  0  0  0
  5  6  1  0  0  0  0
  6 32  1  0  0  0  0
  7 17  1  0  0  0  0
  8  7  2  0  0  0  0
  8 11  1  0  0  0  0
  9 18  1  0  0  0  0
  9  8  1  0  0  0  0
 10  9  2  0  0  0  0
 11 12  1  0  0  0  0
 11 14  2  0  0  0  0
 13 18  2  0  0  0  0
 15 16  2  0  0  0  0
 15 10  1  0  0  0  0
 16 13  1  0  0  0  0
 17  2  1  0  0  0  0
 17 14  1  0  0  0  0
 18 12  1  0  0  0  0
 19 16  1  0  0  0  0
 20 19  3  0  0  0  0
 21 24  1  0  0  0  0
 22 30  1  1  0  0  0
 22 23  1  0  0  0  0
 22 21  1  0  0  0  0
 23 27  1  0  0  0  0
 24 26  1  0  0  0  0
 24 27  1  0  0  0  0
 25 26  2  0  0  0  0
 26  1  1  0  0  0  0
 28 30  1  0  0  0  0
 30 29  1  1  0  0  0
 32 31  3  0  0  0  0
M  END
>  <MODEL>
5

>  <REMARK>
 VINA RESULT:      -6.9      2.750      3.540
  Name = 
  5 active torsions:
  status: ('A' for Active; 'I' for Inactive)
    1  A    between atoms: C_2  and  C_29
    2  A    between atoms: C_10  and  C_11
    3  A    between atoms: C_17  and  N_31
    4  A    between atoms: C_22  and  C_30
    5  A    between atoms: C_27  and  C_28
                            x       y       z     vdW  Elec       q    Type
                         _______ _______ _______ _____ _____    ______ ____

>  <TORSDO>
F 5

$$$$
=
 OpenBabel11042419343D

 32 36  0  0  1  0  0  0  0  0999 V2000
  195.3850  175.0220  143.1770 C   0  0  0  0  0  0  0  0  0  0  0  0
  193.4950  174.6880  144.6870 C   0  0  0  0  0  0  0  0  0  0  0  0
  194.0920  175.3540  143.6060 C   0  0  0  0  0  3  0  0  0  0  0  0
  196.0760  173.9950  143.8330 C   0  0  0  0  0  3  0  0  0  0  0  0
  194.2080  173.6680  145.3350 C   0  0  0  0  0  3  0  0  0  0  0  0
  195.4920  173.3220  144.9100 C   0  0  0  0  0  0  0  0  0  0  0  0
  191.3470  175.9200  144.4790 C   0  0  0  0  0  3  0  0  0  0  0  0
  190.1930  175.9760  145.2190 C   0  0  0  0  0  0  0  0  0  0  0  0
  188.9750  176.6320  145.1630 C   0  0  0  0  0  0  0  0  0  0  0  0
  188.5170  177.5410  144.2140 C   0  0  0  0  0  3  0  0  0  0  0  0
  190.3240  175.1550  146.2770 C   0  0  0  0  0  0  0  0  0  0  0  0
  188.9530  175.1460  147.2630 S   0  0  0  0  0  0  0  0  0  0  0  0
  186.9280  176.7820  146.4040 N   0  0  0  0  0  0  0  0  0  0  0  0
  191.5580  174.5600  146.2380 C   0  0  0  0  0  3  0  0  0  0  0  0
  187.2280  178.0690  144.3880 C   0  0  0  0  0  3  0  0  0  0  0  0
  186.4440  177.6770  145.4920 C   0  0  0  0  0  0  0  0  0  0  0  0
  192.1730  175.0450  145.1230 N   0  0  0  0  0  0  0  0  0  0  0  0
  188.1720  176.2690  146.2420 C   0  0  0  0  0  0  0  0  0  0  0  0
  185.1270  178.2230  145.6610 C   0  0  0  0  0  0  0  0  0  0  0  0
  184.0660  178.6640  145.7960 N   0  0  0  0  0  0  0  0  0  0  0  0
  197.2100  175.6380  139.9230 O   0  0  0  0  0  0  0  0  0  0  0  0
  196.5790  175.2880  138.7160 C   0  0  2  0  0  3  0  0  0  0  0  0
  195.9820  173.9020  138.8910 C   0  0  0  0  0  2  0  0  0  0  0  0
  196.4760  174.9940  140.8670 N   0  0  0  0  0  0  0  0  0  0  0  0
  196.1570  176.9620  142.0640 O   0  0  0  0  0  0  0  0  0  0  0  0
  196.0090  175.7100  142.0220 C   0  0  0  0  0  0  0  0  0  0  0  0
  195.7960  173.8150  140.3770 C   0  0  0  0  0  2  0  0  0  0  0  0
  197.0550  176.0410  136.4800 O   0  0  0  0  0  1  0  0  0  0  0  0
  197.8740  173.8940  137.1030 C   0  0  0  0  0  1  0  0  0  0  0  0
  197.5660  175.3080  137.5540 C   0  0  2  0  0  3  0  0  0  0  0  0
  196.8160  171.3950  146.1380 C   0  0  0  0  0  3  0  0  0  0  0  0
  196.2120  172.2750  145.5770 C   0  0  0  0  0  0  0  0  0  0  0  0
  1  3  2  0  0  0  0
  1  4  1  0  0  0  0
  2 17  1  0  0  0  0
  2  5  2  0  0  0  0
  3  2  1  0  0  0  0
  4  6  2  0  0  0  0
  6  5  1  0  0  0  0
  6 32  1  0  0  0  0
  7 17  1  0  0  0  0
  7  8  2  0  0  0  0
  8 11  1  0  0  0  0
  9  8  1  0  0  0  0
  9 18  1  0  0  0  0
 10 15  1  0  0  0  0
 10  9  2  0  0  0  0
 11 12  1  0  0  0  0
 14 11  2  0  0  0  0
 15 16  2  0  0  0  0
 16 19  1  0  0  0  0
 16 13  1  0  0  0  0
 17 14  1  0  0  0  0
 18 13  2  0  0  0  0
 18 12  1  0  0  0  0
 19 20  3  0  0  0  0
 21 24  1  0  0  0  0
 22 30  1  6  0  0  0
 22 23  1  0  0  0  0
 22 21  1  0  0  0  0
 23 27  1  0  0  0  0
 24 26  1  0  0  0  0
 26 25  2  0  0  0  0
 26  1  1  0  0  0  0
 27 24  1  0  0  0  0
 28 30  1  0  0  0  0
 30 29  1  6  0  0  0
 32 31  3  0  0  0  0
M  END
>  <MODEL>
6

>  <REMARK>
 VINA RESULT:      -6.9      3.094      5.019
  Name = 
  5 active torsions:
  status: ('A' for Active; 'I' for Inactive)
    1  A    between atoms: C_2  and  C_29
    2  A    between atoms: C_10  and  C_11
    3  A    between atoms: C_17  and  N_31
    4  A    between atoms: C_22  and  C_30
    5  A    between atoms: C_27  and  C_28
                            x       y       z     vdW  Elec       q    Type
                         _______ _______ _______ _____ _____    ______ ____

>  <TORSDO>
F 5

$$$$
=
 OpenBabel11042419343D

 32 36  0  0  1  0  0  0  0  0999 V2000
  184.9000  178.0250  142.6540 C   0  0  0  0  0  0  0  0  0  0  0  0
  187.0500  177.3140  143.5690 C   0  0  0  0  0  0  0  0  0  0  0  0
  186.2000  177.5310  142.4740 C   0  0  0  0  0  3  0  0  0  0  0  0
  184.4590  178.3200  143.9510 C   0  0  0  0  0  3  0  0  0  0  0  0
  186.5860  177.6090  144.8600 C   0  0  0  0  0  3  0  0  0  0  0  0
  185.2960  178.1100  145.0500 C   0  0  0  0  0  0  0  0  0  0  0  0
  189.4880  177.2190  144.0440 C   0  0  0  0  0  3  0  0  0  0  0  0
  190.5360  176.4770  143.5560 C   0  0  0  0  0  0  0  0  0  0  0  0
  191.9000  176.3750  143.7720 C   0  0  0  0  0  0  0  0  0  0  0  0
  192.6990  177.0880  144.6590 C   0  0  0  0  0  3  0  0  0  0  0  0
  190.0640  175.6360  142.6190 C   0  0  0  0  0  0  0  0  0  0  0  0
  191.2760  174.6700  141.9480 S   0  0  0  0  0  0  0  0  0  0  0  0
  193.7800  175.1190  142.9700 N   0  0  0  0  0  0  0  0  0  0  0  0
  188.7120  175.8190  142.4850 C   0  0  0  0  0  3  0  0  0  0  0  0
  194.0710  176.7910  144.6830 C   0  0  0  0  0  3  0  0  0  0  0  0
  194.5960  175.7990  143.8290 C   0  0  0  0  0  0  0  0  0  0  0  0
  188.3770  176.7990  143.3710 N   0  0  0  0  0  0  0  0  0  0  0  0
  192.4540  175.4020  142.9420 C   0  0  0  0  0  0  0  0  0  0  0  0
  196.0000  175.5020  143.8620 C   0  0  0  0  0  0  0  0  0  0  0  0
  197.1320  175.2630  143.8880 N   0  0  0  0  0  0  0  0  0  0  0  0
  181.7990  178.3320  140.5130 O   0  0  0  0  0  0  0  0  0  0  0  0
  180.8910  179.3710  140.7810 C   0  0  2  0  0  3  0  0  0  0  0  0
  180.6680  179.4160  142.2830 C   0  0  0  0  0  2  0  0  0  0  0  0
  182.5770  178.2910  141.6250 N   0  0  0  0  0  0  0  0  0  0  0  0
  184.5200  178.4550  140.3590 O   0  0  0  0  0  0  0  0  0  0  0  0
  184.0080  178.2740  141.4970 C   0  0  0  0  0  0  0  0  0  0  0  0
  181.9250  178.7940  142.8150 C   0  0  0  0  0  2  0  0  0  0  0  0
  178.8580  180.3490  139.9440 O   0  0  0  0  0  1  0  0  0  0  0  0
  178.7330  178.1200  140.7710 C   0  0  0  0  0  1  0  0  0  0  0  0
  179.5730  179.1530  140.0460 C   0  0  2  0  0  3  0  0  0  0  0  0
  184.4410  178.6660  147.4860 C   0  0  0  0  0  3  0  0  0  0  0  0
  184.8320  178.4120  146.3740 C   0  0  0  0  0  0  0  0  0  0  0  0
  1  4  1  0  0  0  0
  2  5  2  0  0  0  0
  3  1  2  0  0  0  0
  3  2  1  0  0  0  0
  4  6  2  0  0  0  0
  5  6  1  0  0  0  0
  6 32  1  0  0  0  0
  8  9  1  0  0  0  0
  8  7  2  0  0  0  0
  9 10  1  0  0  0  0
 10 15  2  0  0  0  0
 11  8  1  0  0  0  0
 12 11  1  0  0  0  0
 12 18  1  0  0  0  0
 13 16  2  0  0  0  0
 14 11  2  0  0  0  0
 14 17  1  0  0  0  0
 16 19  1  0  0  0  0
 16 15  1  0  0  0  0
 17  2  1  0  0  0  0
 17  7  1  0  0  0  0
 18 13  1  0  0  0  0
 18  9  2  0  0  0  0
 19 20  3  0  0  0  0
 21 22  1  0  0  0  0
 21 24  1  0  0  0  0
 22 30  1  6  0  0  0
 22 23  1  0  0  0  0
 23 27  1  0  0  0  0
 24 27  1  0  0  0  0
 25 26  2  0  0  0  0
 26 24  1  0  0  0  0
 26  1  1  0  0  0  0
 28 30  1  0  0  0  0
 30 29  1  1  0  0  0
 32 31  3  0  0  0  0
M  END
>  <MODEL>
7

>  <REMARK>
 VINA RESULT:      -6.8      4.887     10.993
  Name = 
  5 active torsions:
  status: ('A' for Active; 'I' for Inactive)
    1  A    between atoms: C_2  and  C_29
    2  A    between atoms: C_10  and  C_11
    3  A    between atoms: C_17  and  N_31
    4  A    between atoms: C_22  and  C_30
    5  A    between atoms: C_27  and  C_28
                            x       y       z     vdW  Elec       q    Type
                         _______ _______ _______ _____ _____    ______ ____

>  <TORSDO>
F 5

$$$$
=
 OpenBabel11042419343D

 32 36  0  0  1  0  0  0  0  0999 V2000
  189.9560  175.1930  145.8030 C   0  0  0  0  0  0  0  0  0  0  0  0
  191.1740  174.0150  144.0440 C   0  0  0  0  0  0  0  0  0  0  0  0
  189.9850  174.2760  144.7430 C   0  0  0  0  0  3  0  0  0  0  0  0
  191.1350  175.8670  146.1510 C   0  0  0  0  0  3  0  0  0  0  0  0
  192.3440  174.6940  144.4140 C   0  0  0  0  0  3  0  0  0  0  0  0
  192.3250  175.6170  145.4620 C   0  0  0  0  0  0  0  0  0  0  0  0
  191.2610  173.3880  141.6400 C   0  0  0  0  0  3  0  0  0  0  0  0
  191.2520  172.1990  140.9540 C   0  0  0  0  0  0  0  0  0  0  0  0
  191.2960  171.7830  139.6340 C   0  0  0  0  0  0  0  0  0  0  0  0
  191.3730  172.5540  138.4780 C   0  0  0  0  0  3  0  0  0  0  0  0
  191.1780  171.1930  141.8430 C   0  0  0  0  0  0  0  0  0  0  0  0
  191.1590  169.6760  141.1030 S   0  0  0  0  0  0  0  0  0  0  0  0
  191.2830  169.7470  138.3660 N   0  0  0  0  0  0  0  0  0  0  0  0
  191.1390  171.7120  143.1120 C   0  0  0  0  0  3  0  0  0  0  0  0
  191.4050  171.8800  137.2470 C   0  0  0  0  0  3  0  0  0  0  0  0
  191.3590  170.4710  137.2090 C   0  0  0  0  0  0  0  0  0  0  0  0
  191.1900  173.0660  142.9650 N   0  0  0  0  0  0  0  0  0  0  0  0
  191.2520  170.3930  139.5580 C   0  0  0  0  0  0  0  0  0  0  0  0
  191.3920  169.7910  135.9460 C   0  0  0  0  0  0  0  0  0  0  0  0
  191.4190  169.2440  134.9270 N   0  0  0  0  0  0  0  0  0  0  0  0
  186.7280  176.8490  146.8660 O   0  0  0  0  0  0  0  0  0  0  0  0
  185.6130  176.7710  146.0110 C   0  0  2  0  0  3  0  0  0  0  0  0
  186.0880  177.0840  144.6030 C   0  0  0  0  0  2  0  0  0  0  0  0
  187.7670  176.4810  146.0720 N   0  0  0  0  0  0  0  0  0  0  0  0
  188.4470  174.8600  147.5940 O   0  0  0  0  0  0  0  0  0  0  0  0
  188.6980  175.4860  146.5290 C   0  0  0  0  0  0  0  0  0  0  0  0
  187.5430  176.7240  144.6630 C   0  0  0  0  0  2  0  0  0  0  0  0
  184.0570  178.4820  145.3500 O   0  0  0  0  0  1  0  0  0  0  0  0
  185.0500  178.6890  147.5040 C   0  0  0  0  0  1  0  0  0  0  0  0
  184.5220  177.7450  146.4410 C   0  0  2  0  0  3  0  0  0  0  0  0
  194.5360  176.8920  146.1400 C   0  0  0  0  0  3  0  0  0  0  0  0
  193.5270  176.3100  145.8300 C   0  0  0  0  0  0  0  0  0  0  0  0
  1  4  1  0  0  0  0
  1 26  1  0  0  0  0
  2  5  2  0  0  0  0
  2  3  1  0  0  0  0
  3  1  2  0  0  0  0
  5  6  1  0  0  0  0
  6 32  1  0  0  0  0
  6  4  2  0  0  0  0
  7 17  1  0  0  0  0
  8  7  2  0  0  0  0
  8 11  1  0  0  0  0
  9  8  1  0  0  0  0
 10  9  2  0  0  0  0
 11 14  2  0  0  0  0
 12 11  1  0  0  0  0
 13 18  2  0  0  0  0
 15 10  1  0  0  0  0
 16 15  2  0  0  0  0
 16 13  1  0  0  0  0
 17 14  1  0  0  0  0
 17  2  1  0  0  0  0
 18  9  1  0  0  0  0
 18 12  1  0  0  0  0
 19 16  1  0  0  0  0
 20 19  3  0  0  0  0
 22 30  1  1  0  0  0
 22 21  1  0  0  0  0
 23 27  1  0  0  0  0
 23 22  1  0  0  0  0
 24 26  1  0  0  0  0
 24 21  1  0  0  0  0
 26 25  2  0  0  0  0
 27 24  1  0  0  0  0
 28 30  1  0  0  0  0
 30 29  1  1  0  0  0
 32 31  3  0  0  0  0
M  END
>  <MODEL>
8

>  <REMARK>
 VINA RESULT:      -6.8      5.606      8.859
  Name = 
  5 active torsions:
  status: ('A' for Active; 'I' for Inactive)
    1  A    between atoms: C_2  and  C_29
    2  A    between atoms: C_10  and  C_11
    3  A    between atoms: C_17  and  N_31
    4  A    between atoms: C_22  and  C_30
    5  A    between atoms: C_27  and  C_28
                            x       y       z     vdW  Elec       q    Type
                         _______ _______ _______ _____ _____    ______ ____

>  <TORSDO>
F 5

$$$$
=
 OpenBabel11042419343D

 32 36  0  0  1  0  0  0  0  0999 V2000
  179.3620  178.4470  140.3820 C   0  0  0  0  0  0  0  0  0  0  0  0
  181.4750  178.4420  141.6070 C   0  0  0  0  0  0  0  0  0  0  0  0
  180.7570  178.3100  140.4090 C   0  0  0  0  0  3  0  0  0  0  0  0
  178.6850  178.7370  141.5750 C   0  0  0  0  0  3  0  0  0  0  0  0
  180.7770  178.7250  142.7910 C   0  0  0  0  0  3  0  0  0  0  0  0
  179.3880  178.8730  142.7750 C   0  0  0  0  0  0  0  0  0  0  0  0
  183.6790  178.2770  142.7450 C   0  0  0  0  0  3  0  0  0  0  0  0
  184.9730  178.1130  142.3180 C   0  0  0  0  0  0  0  0  0  0  0  0
  186.2310  178.0150  142.8890 C   0  0  0  0  0  0  0  0  0  0  0  0
  186.5850  178.0620  144.2340 C   0  0  0  0  0  3  0  0  0  0  0  0
  184.9730  178.0290  140.9760 C   0  0  0  0  0  0  0  0  0  0  0  0
  186.5240  177.8250  140.3400 S   0  0  0  0  0  0  0  0  0  0  0  0
  188.5170  177.7310  142.2200 N   0  0  0  0  0  0  0  0  0  0  0  0
  183.6860  178.1380  140.5150 C   0  0  0  0  0  3  0  0  0  0  0  0
  187.9460  177.9380  144.5540 C   0  0  0  0  0  3  0  0  0  0  0  0
  188.9020  177.7720  143.5300 C   0  0  0  0  0  0  0  0  0  0  0  0
  182.9040  178.2900  141.6210 N   0  0  0  0  0  0  0  0  0  0  0  0
  187.2040  177.8510  141.9050 C   0  0  0  0  0  0  0  0  0  0  0  0
  190.2910  177.6460  143.8680 C   0  0  0  0  0  0  0  0  0  0  0  0
  191.4110  177.5440  144.1400 N   0  0  0  0  0  0  0  0  0  0  0  0
  178.3040  177.3500  136.9220 O   0  0  0  0  0  0  0  0  0  0  0  0
  177.7940  176.0510  136.7490 C   0  0  2  0  0  3  0  0  0  0  0  0
  178.7030  175.0940  137.5000 C   0  0  0  0  0  2  0  0  0  0  0  0
  178.8900  177.3050  138.1460 N   0  0  0  0  0  0  0  0  0  0  0  0
  177.6960  179.1660  138.8650 O   0  0  0  0  0  0  0  0  0  0  0  0
  178.6050  178.3280  139.1140 C   0  0  0  0  0  0  0  0  0  0  0  0
  179.3170  175.9810  138.5430 C   0  0  0  0  0  2  0  0  0  0  0  0
  177.6910  174.2930  135.1100 O   0  0  0  0  0  1  0  0  0  0  0  0
  178.9140  176.2520  134.5290 C   0  0  0  0  0  1  0  0  0  0  0  0
  177.7230  175.6800  135.2720 C   0  0  2  0  0  3  0  0  0  0  0  0
  178.0920  179.4130  145.0110 C   0  0  0  0  0  3  0  0  0  0  0  0
  178.6840  179.1670  143.9900 C   0  0  0  0  0  0  0  0  0  0  0  0
  1  3  2  0  0  0  0
  1  4  1  0  0  0  0
  2 17  1  0  0  0  0
  2  5  2  0  0  0  0
  3  2  1  0  0  0  0
  4  6  2  0  0  0  0
  6  5  1  0  0  0  0
  6 32  1  0  0  0  0
  8  7  2  0  0  0  0
  8  9  1  0  0  0  0
  9 10  1  0  0  0  0
 10 15  2  0  0  0  0
 11  8  1  0  0  0  0
 12 11  1  0  0  0  0
 12 18  1  0  0  0  0
 13 16  2  0  0  0  0
 14 11  2  0  0  0  0
 14 17  1  0  0  0  0
 16 19  1  0  0  0  0
 16 15  1  0  0  0  0
 17  7  1  0  0  0  0
 18 13  1  0  0  0  0
 18  9  2  0  0  0  0
 19 20  3  0  0  0  0
 21 24  1  0  0  0  0
 22 30  1  6  0  0  0
 22 21  1  0  0  0  0
 22 23  1  0  0  0  0
 23 27  1  0  0  0  0
 24 27  1  0  0  0  0
 24 26  1  0  0  0  0
 25 26  2  0  0  0  0
 26  1  1  0  0  0  0
 28 30  1  0  0  0  0
 30 29  1  6  0  0  0
 32 31  3  0  0  0  0
M  END
>  <MODEL>
9

>  <REMARK>
 VINA RESULT:      -6.5      6.969     12.989
  Name = 
  5 active torsions:
  status: ('A' for Active; 'I' for Inactive)
    1  A    between atoms: C_2  and  C_29
    2  A    between atoms: C_10  and  C_11
    3  A    between atoms: C_17  and  N_31
    4  A    between atoms: C_22  and  C_30
    5  A    between atoms: C_27  and  C_28
                            x       y       z     vdW  Elec       q    Type
                         _______ _______ _______ _____ _____    ______ ____

>  <TORSDO>
F 5

$$$$
