=
 OpenBabel11042419063D

 43 46  0  0  1  0  0  0  0  0999 V2000
  190.7890  174.5800  145.5430 C   0  0  2  0  0  3  0  0  0  0  0  0
  189.3350  174.5210  145.9820 C   0  0  0  0  0  2  0  0  0  0  0  0
  191.2500  175.9630  145.6860 N   0  0  0  0  0  0  0  0  0  0  0  0
  189.2140  175.6950  146.9150 C   0  0  1  0  0  3  0  0  0  0  0  0
  190.1690  176.7100  146.3350 C   0  0  0  0  0  2  0  0  0  0  0  0
  189.5440  173.5540  142.0380 C   0  0  2  0  0  0  0  0  0  0  0  0
  189.6870  171.9560  144.0380 C   0  0  0  0  0  1  0  0  0  0  0  0
  189.6910  173.4110  143.5700 C   0  0  1  0  0  3  0  0  0  0  0  0
  190.6280  173.3540  139.9040 C   0  0  0  0  0  2  0  0  0  0  0  0
  191.4930  175.2520  143.1790 C   0  0  0  0  0  2  0  0  0  0  0  0
  190.9210  173.5550  141.3720 C   0  0  2  0  0  0  0  0  0  0  0  0
  191.6750  172.4690  141.7990 F   0  0  0  0  0  0  0  0  0  0  0  0
  188.7670  174.8470  141.7660 C   0  0  0  0  0  1  0  0  0  0  0  0
  191.6920  174.8330  141.7020 C   0  0  0  0  0  2  0  0  0  0  0  0
  189.4050  172.4350  139.8870 C   0  0  2  0  0  3  0  0  0  0  0  0
  190.9670  174.1180  144.0940 C   0  0  1  0  0  3  0  0  0  0  0  0
  188.4650  172.9370  138.9810 O   0  0  0  0  0  1  0  0  0  0  0  0
  188.8110  172.4370  141.3050 C   0  0  0  0  0  2  0  0  0  0  0  0
  187.8490  176.2250  146.9380 C   0  0  0  0  0  0  0  0  0  0  0  0
  186.7320  176.6700  146.9100 C   0  0  0  0  0  0  0  0  0  0  0  0
  185.3720  177.2110  146.8200 C   0  0  0  0  0  2  0  0  0  0  0  0
  185.1430  179.5160  146.3070 O   0  0  0  0  0  0  0  0  0  0  0  0
  185.3420  178.3570  145.8610 C   0  0  0  0  0  0  0  0  0  0  0  0
  185.5360  178.1550  144.4110 C   0  0  0  0  0  0  0  0  0  0  0  0
  186.9760  178.1660  142.3570 C   0  0  0  0  0  0  0  0  0  0  0  0
  185.7480  177.9580  141.5810 C   0  0  0  0  0  0  0  0  0  0  0  0
  184.5820  177.8750  142.2090 C   0  0  0  0  0  3  0  0  0  0  0  0
  188.0830  178.3200  141.7630 O   0  0  0  0  0  0  0  0  0  0  0  0
  185.7860  177.8500  140.0960 C   0  0  0  0  0  1  0  0  0  0  0  0
  184.4990  178.0060  143.6330 N   0  0  0  0  0  0  0  0  0  0  0  0
  186.9410  178.1460  143.8570 C   0  0  0  0  0  2  0  0  0  0  0  0
  192.6910  174.7780  147.1210 O   0  0  0  0  0  1  0  0  0  0  0  0
  192.5000  175.9970  146.4670 C   0  0  1  0  0  3  0  0  0  0  0  0
  193.6960  177.3850  144.9680 O   0  0  0  0  0  0  0  0  0  0  0  0
  193.7290  176.3890  145.6750 C   0  0  0  0  0  0  0  0  0  0  0  0
  194.9840  175.5650  145.7220 C   0  0  0  0  0  2  0  0  0  0  0  0
  195.9610  175.2580  143.4210 C   0  0  0  0  0  0  0  0  0  0  0  0
  196.6540  176.5780  143.4980 C   0  0  0  0  0  1  0  0  0  0  0  0
  195.1520  174.7770  144.5050 N   0  0  0  0  0  0  0  0  0  0  0  0
  196.0950  174.5650  142.3760 O   0  0  0  0  0  0  0  0  0  0  0  0
  194.4910  173.4800  144.4120 C   0  0  0  0  0  2  0  0  0  0  0  0
  194.9280  172.5930  145.5710 C   0  0  0  0  0  2  0  0  0  0  0  0
  196.3280  172.0780  145.3060 C   0  0  0  0  0  1  0  0  0  0  0  0
  1  3  1  0  0  0  0
  1  2  1  6  0  0  0
  2  4  1  0  0  0  0
  3  5  1  0  0  0  0
  3 33  1  0  0  0  0
  4 19  1  6  0  0  0
  5  4  1  0  0  0  0
  6 13  1  6  0  0  0
  6  8  1  0  0  0  0
  8  7  1  6  0  0  0
  8 16  1  0  0  0  0
  9 11  1  0  0  0  0
 11 14  1  0  0  0  0
 11 12  1  1  0  0  0
 11  6  1  0  0  0  0
 14 10  1  0  0  0  0
 15 17  1  6  0  0  0
 15  9  1  0  0  0  0
 15 18  1  0  0  0  0
 16 10  1  6  0  0  0
 16  1  1  0  0  0  0
 18  6  1  0  0  0  0
 20 19  3  0  0  0  0
 21 20  1  0  0  0  0
 23 22  2  0  0  0  0
 23 21  1  0  0  0  0
 24 23  1  0  0  0  0
 25 31  1  0  0  0  0
 26 27  2  0  0  0  0
 26 25  1  0  0  0  0
 27 30  1  0  0  0  0
 28 25  2  0  0  0  0
 29 26  1  0  0  0  0
 30 24  2  0  0  0  0
 31 24  1  0  0  0  0
 33 32  1  6  0  0  0
 34 35  2  0  0  0  0
 35 36  1  0  0  0  0
 35 33  1  0  0  0  0
 37 38  1  0  0  0  0
 37 39  1  0  0  0  0
 39 36  1  0  0  0  0
 40 37  2  0  0  0  0
 41 39  1  0  0  0  0
 41 42  1  0  0  0  0
 43 42  1  0  0  0  0
M  END
>  <MODEL>
1

>  <REMARK>
 VINA RESULT:      -8.0      0.000      0.000
  Name = 
  11 active torsions:
  status: ('A' for Active; 'I' for Inactive)
    1  A    between atoms: C_1  and  C_38
    2  A    between atoms: C_4  and  C_33
    3  A    between atoms: C_5  and  C_35
    4  A    between atoms: C_5  and  C_38
    5  A    between atoms: C_9  and  C_30
    6  A    between atoms: N_20  and  C_37
    7  A    between atoms: C_22  and  C_37
    8  A    between atoms: C_22  and  C_40
    9  A    between atoms: C_24  and  N_27
   10  A    between atoms: C_24  and  C_29
   11  A    between atoms: N_27  and  C_40
                            x       y       z     vdW  Elec       q    Type
                         _______ _______ _______ _____ _____    ______ ____

>  <TORSDO>
F 11

$$$$
=
 OpenBabel11042419063D

 43 46  0  0  1  0  0  0  0  0999 V2000
  190.8940  174.1400  145.2270 C   0  0  2  0  0  3  0  0  0  0  0  0
  189.4700  174.1720  145.7570 C   0  0  0  0  0  2  0  0  0  0  0  0
  191.4900  175.4600  145.4460 N   0  0  0  0  0  0  0  0  0  0  0  0
  189.5150  175.2700  146.7850 C   0  0  1  0  0  3  0  0  0  0  0  0
  190.5250  176.2420  146.2230 C   0  0  0  0  0  2  0  0  0  0  0  0
  189.3760  173.6720  141.7110 C   0  0  2  0  0  0  0  0  0  0  0  0
  189.2900  171.8990  143.5620 C   0  0  0  0  0  1  0  0  0  0  0  0
  189.5420  173.3680  143.2170 C   0  0  1  0  0  3  0  0  0  0  0  0
  190.3400  173.4770  139.5200 C   0  0  0  0  0  2  0  0  0  0  0  0
  191.6350  174.8870  142.8980 C   0  0  0  0  0  2  0  0  0  0  0  0
  190.7100  173.4890  140.9840 C   0  0  2  0  0  0  0  0  0  0  0  0
  191.2690  172.2530  141.2840 F   0  0  0  0  0  0  0  0  0  0  0  0
  188.8380  175.1010  141.5840 C   0  0  0  0  0  1  0  0  0  0  0  0
  191.7090  174.5740  141.3830 C   0  0  0  0  0  2  0  0  0  0  0  0
  188.9710  172.7950  139.4830 C   0  0  2  0  0  3  0  0  0  0  0  0
  190.9410  173.7870  143.7380 C   0  0  1  0  0  3  0  0  0  0  0  0
  188.1110  173.5350  138.6670 O   0  0  0  0  0  1  0  0  0  0  0  0
  188.4320  172.7740  140.9230 C   0  0  0  0  0  2  0  0  0  0  0  0
  188.2100  175.9150  146.9410 C   0  0  0  0  0  0  0  0  0  0  0  0
  187.1260  176.4300  147.0250 C   0  0  0  0  0  0  0  0  0  0  0  0
  185.7890  177.0300  147.0810 C   0  0  0  0  0  2  0  0  0  0  0  0
  185.7960  179.3840  146.7820 O   0  0  0  0  0  0  0  0  0  0  0  0
  185.7450  178.2560  146.2270 C   0  0  0  0  0  0  0  0  0  0  0  0
  185.6410  178.1690  144.7570 C   0  0  0  0  0  0  0  0  0  0  0  0
  186.6540  178.2700  142.4650 C   0  0  0  0  0  0  0  0  0  0  0  0
  185.2880  178.2040  141.9340 C   0  0  0  0  0  0  0  0  0  0  0  0
  184.2620  178.1370  142.7740 C   0  0  0  0  0  3  0  0  0  0  0  0
  187.6350  178.4080  141.6760 O   0  0  0  0  0  0  0  0  0  0  0  0
  185.0310  178.2220  140.4670 C   0  0  0  0  0  1  0  0  0  0  0  0
  184.4650  178.1500  144.1910 N   0  0  0  0  0  0  0  0  0  0  0  0
  186.9080  178.1230  143.9360 C   0  0  0  0  0  2  0  0  0  0  0  0
  193.1640  173.9750  146.1760 O   0  0  0  0  0  1  0  0  0  0  0  0
  192.7820  175.3180  146.1420 C   0  0  1  0  0  3  0  0  0  0  0  0
  193.6150  177.2370  145.0330 O   0  0  0  0  0  0  0  0  0  0  0  0
  193.8930  176.1870  145.5920 C   0  0  0  0  0  0  0  0  0  0  0  0
  195.3340  175.7740  145.6990 C   0  0  0  0  0  2  0  0  0  0  0  0
  196.5000  173.7390  144.7790 C   0  0  0  0  0  0  0  0  0  0  0  0
  196.9140  173.3120  146.1490 C   0  0  0  0  0  1  0  0  0  0  0  0
  195.7340  174.9360  144.5730 N   0  0  0  0  0  0  0  0  0  0  0  0
  196.8380  173.0270  143.7960 O   0  0  0  0  0  0  0  0  0  0  0  0
  195.3310  175.3300  143.2280 C   0  0  0  0  0  2  0  0  0  0  0  0
  196.2590  176.4190  142.7070 C   0  0  0  0  0  2  0  0  0  0  0  0
  195.9300  176.7060  141.2560 C   0  0  0  0  0  1  0  0  0  0  0  0
  1  3  1  0  0  0  0
  1  2  1  6  0  0  0
  2  4  1  0  0  0  0
  3 33  1  0  0  0  0
  3  5  1  0  0  0  0
  4 19  1  6  0  0  0
  5  4  1  0  0  0  0
  6 13  1  6  0  0  0
  6  8  1  0  0  0  0
  8  7  1  6  0  0  0
  8 16  1  0  0  0  0
  9 11  1  0  0  0  0
 11 12  1  1  0  0  0
 11 14  1  0  0  0  0
 11  6  1  0  0  0  0
 14 10  1  0  0  0  0
 15 17  1  6  0  0  0
 15  9  1  0  0  0  0
 15 18  1  0  0  0  0
 16 10  1  6  0  0  0
 16  1  1  0  0  0  0
 18  6  1  0  0  0  0
 19 20  3  0  0  0  0
 20 21  1  0  0  0  0
 23 22  2  0  0  0  0
 23 21  1  0  0  0  0
 24 23  1  0  0  0  0
 25 31  1  0  0  0  0
 26 25  1  0  0  0  0
 26 27  2  0  0  0  0
 27 30  1  0  0  0  0
 28 25  2  0  0  0  0
 29 26  1  0  0  0  0
 30 24  2  0  0  0  0
 31 24  1  0  0  0  0
 33 32  1  6  0  0  0
 34 35  2  0  0  0  0
 35 36  1  0  0  0  0
 35 33  1  0  0  0  0
 37 38  1  0  0  0  0
 39 37  1  0  0  0  0
 39 36  1  0  0  0  0
 40 37  2  0  0  0  0
 41 39  1  0  0  0  0
 42 41  1  0  0  0  0
 43 42  1  0  0  0  0
M  END
>  <MODEL>
2

>  <REMARK>
 VINA RESULT:      -8.0      0.836      1.584
  Name = 
  11 active torsions:
  status: ('A' for Active; 'I' for Inactive)
    1  A    between atoms: C_1  and  C_38
    2  A    between atoms: C_4  and  C_33
    3  A    between atoms: C_5  and  C_35
    4  A    between atoms: C_5  and  C_38
    5  A    between atoms: C_9  and  C_30
    6  A    between atoms: N_20  and  C_37
    7  A    between atoms: C_22  and  C_37
    8  A    between atoms: C_22  and  C_40
    9  A    between atoms: C_24  and  N_27
   10  A    between atoms: C_24  and  C_29
   11  A    between atoms: N_27  and  C_40
                            x       y       z     vdW  Elec       q    Type
                         _______ _______ _______ _____ _____    ______ ____

>  <TORSDO>
F 11

$$$$
=
 OpenBabel11042419063D

 43 46  0  0  1  0  0  0  0  0999 V2000
  188.6740  174.1830  142.8950 C   0  0  2  0  0  3  0  0  0  0  0  0
  188.7910  172.9040  142.0830 C   0  0  0  0  0  2  0  0  0  0  0  0
  188.6650  175.3130  141.9630 N   0  0  0  0  0  0  0  0  0  0  0  0
  188.2310  173.2990  140.7440 C   0  0  1  0  0  3  0  0  0  0  0  0
  188.6220  174.7510  140.6100 C   0  0  0  0  0  2  0  0  0  0  0  0
  191.8580  175.8470  144.3020 C   0  0  2  0  0  0  0  0  0  0  0  0
  191.8580  174.1050  142.4210 C   0  0  0  0  0  1  0  0  0  0  0  0
  191.0250  175.0860  143.2460 C   0  0  1  0  0  3  0  0  0  0  0  0
  192.9700  175.7280  146.4280 C   0  0  0  0  0  2  0  0  0  0  0  0
  189.3620  174.9170  145.2450 C   0  0  0  0  0  2  0  0  0  0  0  0
  191.8730  175.0730  145.6220 C   0  0  2  0  0  0  0  0  0  0  0  0
  192.2410  173.7500  145.4140 F   0  0  0  0  0  0  0  0  0  0  0  0
  191.2480  177.2440  144.4550 C   0  0  0  0  0  1  0  0  0  0  0  0
  190.4960  175.0880  146.2850 C   0  0  0  0  0  2  0  0  0  0  0  0
  194.0130  176.1310  145.3840 C   0  0  2  0  0  3  0  0  0  0  0  0
  189.8300  174.3360  143.8870 C   0  0  1  0  0  3  0  0  0  0  0  0
  194.4220  177.4460  145.6270 O   0  0  0  0  0  1  0  0  0  0  0  0
  193.3390  176.0440  144.0050 C   0  0  0  0  0  2  0  0  0  0  0  0
  188.8150  172.5060  139.6610 C   0  0  0  0  0  0  0  0  0  0  0  0
  189.3330  171.8440  138.8000 C   0  0  0  0  0  0  0  0  0  0  0  0
  190.0000  171.0190  137.7880 C   0  0  0  0  0  2  0  0  0  0  0  0
  189.3700  171.2980  135.5170 O   0  0  0  0  0  0  0  0  0  0  0  0
  190.0400  171.7460  136.4830 C   0  0  0  0  0  0  0  0  0  0  0  0
  190.8490  172.9700  136.3060 C   0  0  0  0  0  0  0  0  0  0  0  0
  192.7030  174.5080  137.0040 C   0  0  0  0  0  0  0  0  0  0  0  0
  192.1940  175.4590  136.0090 C   0  0  0  0  0  0  0  0  0  0  0  0
  191.1270  175.1420  135.2860 C   0  0  0  0  0  3  0  0  0  0  0  0
  193.6740  174.8290  137.7500 O   0  0  0  0  0  0  0  0  0  0  0  0
  192.8480  176.7810  135.8050 C   0  0  0  0  0  1  0  0  0  0  0  0
  190.4510  173.8940  135.4740 N   0  0  0  0  0  0  0  0  0  0  0  0
  192.1160  173.1310  137.1110 C   0  0  0  0  0  2  0  0  0  0  0  0
  186.6000  175.5250  143.0730 O   0  0  0  0  0  1  0  0  0  0  0  0
  187.5080  176.1840  142.2420 C   0  0  1  0  0  3  0  0  0  0  0  0
  188.4290  178.3590  142.0790 O   0  0  0  0  0  0  0  0  0  0  0  0
  187.8650  177.5470  142.7960 C   0  0  0  0  0  0  0  0  0  0  0  0
  187.5600  177.9150  144.2210 C   0  0  0  0  0  2  0  0  0  0  0  0
  185.4180  177.8230  145.5420 C   0  0  0  0  0  0  0  0  0  0  0  0
  186.0610  176.9840  146.5970 C   0  0  0  0  0  1  0  0  0  0  0  0
  186.1550  178.2680  144.3920 N   0  0  0  0  0  0  0  0  0  0  0  0
  184.2040  178.1370  145.6740 O   0  0  0  0  0  0  0  0  0  0  0  0
  185.5100  179.0940  143.3790 C   0  0  0  0  0  2  0  0  0  0  0  0
  184.4210  178.2960  142.6750 C   0  0  0  0  0  2  0  0  0  0  0  0
  184.6600  178.3330  141.1790 C   0  0  0  0  0  1  0  0  0  0  0  0
  1  2  1  6  0  0  0
  1 16  1  0  0  0  0
  3 33  1  0  0  0  0
  3  1  1  0  0  0  0
  4 19  1  6  0  0  0
  4  2  1  0  0  0  0
  5  4  1  0  0  0  0
  5  3  1  0  0  0  0
  6 13  1  1  0  0  0
  6 11  1  0  0  0  0
  8  7  1  1  0  0  0
  8 16  1  0  0  0  0
  8  6  1  0  0  0  0
 10 14  1  0  0  0  0
 11 12  1  6  0  0  0
 11 14  1  0  0  0  0
 11  9  1  0  0  0  0
 15 17  1  1  0  0  0
 15  9  1  0  0  0  0
 16 10  1  1  0  0  0
 18  6  1  0  0  0  0
 18 15  1  0  0  0  0
 20 19  3  0  0  0  0
 21 20  1  0  0  0  0
 22 23  2  0  0  0  0
 23 21  1  0  0  0  0
 24 23  1  0  0  0  0
 24 31  1  0  0  0  0
 25 31  1  0  0  0  0
 25 28  2  0  0  0  0
 26 25  1  0  0  0  0
 27 30  1  0  0  0  0
 27 26  2  0  0  0  0
 29 26  1  0  0  0  0
 30 24  2  0  0  0  0
 33 35  1  0  0  0  0
 33 32  1  1  0  0  0
 34 35  2  0  0  0  0
 35 36  1  0  0  0  0
 36 39  1  0  0  0  0
 37 40  2  0  0  0  0
 37 38  1  0  0  0  0
 39 37  1  0  0  0  0
 41 39  1  0  0  0  0
 42 41  1  0  0  0  0
 43 42  1  0  0  0  0
M  END
>  <MODEL>
3

>  <REMARK>
 VINA RESULT:      -6.8      2.944      8.481
  Name = 
  11 active torsions:
  status: ('A' for Active; 'I' for Inactive)
    1  A    between atoms: C_1  and  C_38
    2  A    between atoms: C_4  and  C_33
    3  A    between atoms: C_5  and  C_35
    4  A    between atoms: C_5  and  C_38
    5  A    between atoms: C_9  and  C_30
    6  A    between atoms: N_20  and  C_37
    7  A    between atoms: C_22  and  C_37
    8  A    between atoms: C_22  and  C_40
    9  A    between atoms: C_24  and  N_27
   10  A    between atoms: C_24  and  C_29
   11  A    between atoms: N_27  and  C_40
                            x       y       z     vdW  Elec       q    Type
                         _______ _______ _______ _____ _____    ______ ____

>  <TORSDO>
F 11

$$$$
=
 OpenBabel11042419063D

 43 46  0  0  1  0  0  0  0  0999 V2000
  188.9830  174.6660  142.8460 C   0  0  2  0  0  3  0  0  0  0  0  0
  189.4660  173.2990  142.3880 C   0  0  0  0  0  2  0  0  0  0  0  0
  188.6200  175.4400  141.6560 N   0  0  0  0  0  0  0  0  0  0  0  0
  188.7930  173.1300  141.0540 C   0  0  1  0  0  3  0  0  0  0  0  0
  188.7280  174.5360  140.5080 C   0  0  0  0  0  2  0  0  0  0  0  0
  192.3300  174.9720  144.7390 C   0  0  2  0  0  0  0  0  0  0  0  0
  190.1590  174.1010  145.7890 C   0  0  0  0  0  1  0  0  0  0  0  0
  190.9030  174.4300  144.4940 C   0  0  1  0  0  3  0  0  0  0  0  0
  193.6590  176.8490  145.4310 C   0  0  0  0  0  2  0  0  0  0  0  0
  190.8810  176.3750  142.7600 C   0  0  0  0  0  2  0  0  0  0  0  0
  192.3040  176.4960  144.8670 C   0  0  2  0  0  0  0  0  0  0  0  0
  191.3480  176.8960  145.7920 F   0  0  0  0  0  0  0  0  0  0  0  0
  193.2100  174.5020  143.5750 C   0  0  0  0  0  1  0  0  0  0  0  0
  191.9770  177.1560  143.5270 C   0  0  0  0  0  2  0  0  0  0  0  0
  193.9960  175.6790  146.3580 C   0  0  2  0  0  3  0  0  0  0  0  0
  190.0540  175.4110  143.6460 C   0  0  1  0  0  3  0  0  0  0  0  0
  195.3120  175.2700  146.1210 O   0  0  0  0  0  1  0  0  0  0  0  0
  193.0270  174.5340  146.0210 C   0  0  0  0  0  2  0  0  0  0  0  0
  189.5720  172.2670  140.1640 C   0  0  0  0  0  0  0  0  0  0  0  0
  190.1810  171.5210  139.4430 C   0  0  0  0  0  0  0  0  0  0  0  0
  190.8820  170.5770  138.5660 C   0  0  0  0  0  2  0  0  0  0  0  0
  192.0630  171.0380  136.5610 O   0  0  0  0  0  0  0  0  0  0  0  0
  191.9370  171.2920  137.7870 C   0  0  0  0  0  0  0  0  0  0  0  0
  192.8320  172.2800  138.4240 C   0  0  0  0  0  0  0  0  0  0  0  0
  194.4620  172.9500  140.2080 C   0  0  0  0  0  0  0  0  0  0  0  0
  194.3470  174.3220  139.6990 C   0  0  0  0  0  0  0  0  0  0  0  0
  193.5430  174.5750  138.6730 C   0  0  0  0  0  3  0  0  0  0  0  0
  195.1680  172.7110  141.2310 O   0  0  0  0  0  0  0  0  0  0  0  0
  195.1090  175.4400  140.3220 C   0  0  0  0  0  1  0  0  0  0  0  0
  192.7690  173.5330  138.0670 N   0  0  0  0  0  0  0  0  0  0  0  0
  193.7900  171.8140  139.4930 C   0  0  0  0  0  2  0  0  0  0  0  0
  186.5540  175.2580  142.7690 O   0  0  0  0  0  1  0  0  0  0  0  0
  187.2600  175.9880  141.8090 C   0  0  1  0  0  3  0  0  0  0  0  0
  188.1490  178.1810  141.7880 O   0  0  0  0  0  0  0  0  0  0  0  0
  187.2070  177.4720  142.1050 C   0  0  0  0  0  0  0  0  0  0  0  0
  186.0270  178.0880  142.8020 C   0  0  0  0  0  2  0  0  0  0  0  0
  185.3520  179.0060  145.0480 C   0  0  0  0  0  0  0  0  0  0  0  0
  184.0150  179.4130  144.5200 C   0  0  0  0  0  1  0  0  0  0  0  0
  186.3210  178.3650  144.2040 N   0  0  0  0  0  0  0  0  0  0  0  0
  185.6210  179.2390  146.2570 O   0  0  0  0  0  0  0  0  0  0  0  0
  187.6170  177.9680  144.7420 C   0  0  0  0  0  2  0  0  0  0  0  0
  187.4530  176.7490  145.6400 C   0  0  0  0  0  2  0  0  0  0  0  0
  188.3040  176.9240  146.8820 C   0  0  0  0  0  1  0  0  0  0  0  0
  1  2  1  6  0  0  0
  1 16  1  0  0  0  0
  3 33  1  0  0  0  0
  3  1  1  0  0  0  0
  4 19  1  6  0  0  0
  4  2  1  0  0  0  0
  5  4  1  0  0  0  0
  5  3  1  0  0  0  0
  6 13  1  6  0  0  0
  6 11  1  0  0  0  0
  6 18  1  0  0  0  0
  8  6  1  0  0  0  0
  8  7  1  1  0  0  0
  9 15  1  0  0  0  0
 10 14  1  0  0  0  0
 11  9  1  0  0  0  0
 11 12  1  1  0  0  0
 14 11  1  0  0  0  0
 15 17  1  6  0  0  0
 16 10  1  6  0  0  0
 16  8  1  0  0  0  0
 18 15  1  0  0  0  0
 20 19  3  0  0  0  0
 21 20  1  0  0  0  0
 22 23  2  0  0  0  0
 23 24  1  0  0  0  0
 23 21  1  0  0  0  0
 24 31  1  0  0  0  0
 25 28  2  0  0  0  0
 26 25  1  0  0  0  0
 26 29  1  0  0  0  0
 27 26  2  0  0  0  0
 30 24  2  0  0  0  0
 30 27  1  0  0  0  0
 31 25  1  0  0  0  0
 33 35  1  0  0  0  0
 33 32  1  1  0  0  0
 34 35  2  0  0  0  0
 35 36  1  0  0  0  0
 36 39  1  0  0  0  0
 37 40  2  0  0  0  0
 38 37  1  0  0  0  0
 39 41  1  0  0  0  0
 39 37  1  0  0  0  0
 41 42  1  0  0  0  0
 42 43  1  0  0  0  0
M  END
>  <MODEL>
4

>  <REMARK>
 VINA RESULT:      -6.8      2.587      8.453
  Name = 
  11 active torsions:
  status: ('A' for Active; 'I' for Inactive)
    1  A    between atoms: C_1  and  C_38
    2  A    between atoms: C_4  and  C_33
    3  A    between atoms: C_5  and  C_35
    4  A    between atoms: C_5  and  C_38
    5  A    between atoms: C_9  and  C_30
    6  A    between atoms: N_20  and  C_37
    7  A    between atoms: C_22  and  C_37
    8  A    between atoms: C_22  and  C_40
    9  A    between atoms: C_24  and  N_27
   10  A    between atoms: C_24  and  C_29
   11  A    between atoms: N_27  and  C_40
                            x       y       z     vdW  Elec       q    Type
                         _______ _______ _______ _____ _____    ______ ____

>  <TORSDO>
F 11

$$$$
=
 OpenBabel11042419063D

 43 46  0  0  1  0  0  0  0  0999 V2000
  191.5710  172.8470  144.1670 C   0  0  2  0  0  3  0  0  0  0  0  0
  190.1830  173.0950  144.7330 C   0  0  0  0  0  2  0  0  0  0  0  0
  192.4660  173.8800  144.6940 N   0  0  0  0  0  0  0  0  0  0  0  0
  190.4630  173.8510  146.0030 C   0  0  1  0  0  3  0  0  0  0  0  0
  191.6990  174.6540  145.6730 C   0  0  0  0  0  2  0  0  0  0  0  0
  189.9260  173.0050  140.6810 C   0  0  2  0  0  0  0  0  0  0  0  0
  190.2380  170.8450  142.0270 C   0  0  0  0  0  1  0  0  0  0  0  0
  190.2330  172.3730  142.0580 C   0  0  1  0  0  3  0  0  0  0  0  0
  190.7670  173.5170  138.4900 C   0  0  0  0  0  2  0  0  0  0  0  0
  192.0350  174.2560  142.0850 C   0  0  0  0  0  2  0  0  0  0  0  0
  191.2220  173.2320  139.9020 C   0  0  2  0  0  0  0  0  0  0  0  0
  191.9870  172.0730  139.8680 F   0  0  0  0  0  0  0  0  0  0  0  0
  189.1610  174.3100  140.9300 C   0  0  0  0  0  1  0  0  0  0  0  0
  192.0610  174.3400  140.5390 C   0  0  0  0  0  2  0  0  0  0  0  0
  189.5230  172.6430  138.3140 C   0  0  2  0  0  3  0  0  0  0  0  0
  191.5780  172.8820  142.6370 C   0  0  1  0  0  3  0  0  0  0  0  0
  188.5060  173.4040  137.7290 O   0  0  0  0  0  1  0  0  0  0  0  0
  189.0870  172.1800  139.7130 C   0  0  0  0  0  2  0  0  0  0  0  0
  189.3530  174.7360  146.3590 C   0  0  0  0  0  0  0  0  0  0  0  0
  188.4190  175.4260  146.6740 C   0  0  0  0  0  0  0  0  0  0  0  0
  187.2640  176.2270  147.0940 C   0  0  0  0  0  2  0  0  0  0  0  0
  187.0090  178.5620  146.7540 O   0  0  0  0  0  0  0  0  0  0  0  0
  187.1340  177.4310  146.2170 C   0  0  0  0  0  0  0  0  0  0  0  0
  187.1460  177.3180  144.7440 C   0  0  0  0  0  0  0  0  0  0  0  0
  188.1570  177.8150  142.5030 C   0  0  0  0  0  0  0  0  0  0  0  0
  186.9500  177.2300  141.9080 C   0  0  0  0  0  0  0  0  0  0  0  0
  185.9870  176.7690  142.6970 C   0  0  0  0  0  3  0  0  0  0  0  0
  189.0470  178.3240  141.7620 O   0  0  0  0  0  0  0  0  0  0  0  0
  186.7800  177.1560  140.4300 C   0  0  0  0  0  1  0  0  0  0  0  0
  186.0980  176.8510  144.1230 N   0  0  0  0  0  0  0  0  0  0  0  0
  188.3720  177.7680  143.9880 C   0  0  0  0  0  2  0  0  0  0  0  0
  193.4970  171.8670  145.3470 O   0  0  0  0  0  1  0  0  0  0  0  0
  193.6610  173.2530  145.2900 C   0  0  1  0  0  3  0  0  0  0  0  0
  195.2750  173.0840  143.5670 O   0  0  0  0  0  0  0  0  0  0  0  0
  194.9670  173.6220  144.6200 C   0  0  0  0  0  0  0  0  0  0  0  0
  195.9060  174.6200  145.2350 C   0  0  0  0  0  2  0  0  0  0  0  0
  194.8200  176.8690  145.5610 C   0  0  0  0  0  0  0  0  0  0  0  0
  194.2470  176.4440  146.8730 C   0  0  0  0  0  1  0  0  0  0  0  0
  195.6220  175.9750  144.7750 N   0  0  0  0  0  0  0  0  0  0  0  0
  194.5850  178.0360  145.1480 O   0  0  0  0  0  0  0  0  0  0  0  0
  196.1800  176.4140  143.5010 C   0  0  0  0  0  2  0  0  0  0  0  0
  195.1290  176.2930  142.4050 C   0  0  0  0  0  2  0  0  0  0  0  0
  195.8180  176.1370  141.0650 C   0  0  0  0  0  1  0  0  0  0  0  0
  1  3  1  0  0  0  0
  1  2  1  1  0  0  0
  2  4  1  0  0  0  0
  3 33  1  0  0  0  0
  3  5  1  0  0  0  0
  4 19  1  6  0  0  0
  5  4  1  0  0  0  0
  6 13  1  1  0  0  0
  6  8  1  0  0  0  0
  8  7  1  6  0  0  0
  8 16  1  0  0  0  0
  9 11  1  0  0  0  0
 11 12  1  1  0  0  0
 11 14  1  0  0  0  0
 11  6  1  0  0  0  0
 14 10  1  0  0  0  0
 15 17  1  1  0  0  0
 15  9  1  0  0  0  0
 15 18  1  0  0  0  0
 16 10  1  1  0  0  0
 16  1  1  0  0  0  0
 18  6  1  0  0  0  0
 19 20  3  0  0  0  0
 20 21  1  0  0  0  0
 23 22  2  0  0  0  0
 23 21  1  0  0  0  0
 24 23  1  0  0  0  0
 25 31  1  0  0  0  0
 26 25  1  0  0  0  0
 26 27  2  0  0  0  0
 27 30  1  0  0  0  0
 28 25  2  0  0  0  0
 29 26  1  0  0  0  0
 30 24  2  0  0  0  0
 31 24  1  0  0  0  0
 33 32  1  6  0  0  0
 34 35  2  0  0  0  0
 35 36  1  0  0  0  0
 35 33  1  0  0  0  0
 37 38  1  0  0  0  0
 39 36  1  0  0  0  0
 39 37  1  0  0  0  0
 40 37  2  0  0  0  0
 41 39  1  0  0  0  0
 42 41  1  0  0  0  0
 43 42  1  0  0  0  0
M  END
>  <MODEL>
5

>  <REMARK>
 VINA RESULT:      -6.8      1.531      2.577
  Name = 
  11 active torsions:
  status: ('A' for Active; 'I' for Inactive)
    1  A    between atoms: C_1  and  C_38
    2  A    between atoms: C_4  and  C_33
    3  A    between atoms: C_5  and  C_35
    4  A    between atoms: C_5  and  C_38
    5  A    between atoms: C_9  and  C_30
    6  A    between atoms: N_20  and  C_37
    7  A    between atoms: C_22  and  C_37
    8  A    between atoms: C_22  and  C_40
    9  A    between atoms: C_24  and  N_27
   10  A    between atoms: C_24  and  C_29
   11  A    between atoms: N_27  and  C_40
                            x       y       z     vdW  Elec       q    Type
                         _______ _______ _______ _____ _____    ______ ____

>  <TORSDO>
F 11

$$$$
=
 OpenBabel11042419063D

 43 46  0  0  1  0  0  0  0  0999 V2000
  189.1210  174.5660  142.8550 C   0  0  2  0  0  3  0  0  0  0  0  0
  189.6150  173.1830  142.4620 C   0  0  0  0  0  2  0  0  0  0  0  0
  188.7960  175.2970  141.6280 N   0  0  0  0  0  0  0  0  0  0  0  0
  188.9820  172.9670  141.1140 C   0  0  1  0  0  3  0  0  0  0  0  0
  188.9370  174.3530  140.5160 C   0  0  0  0  0  2  0  0  0  0  0  0
  192.4120  174.9380  144.8330 C   0  0  2  0  0  0  0  0  0  0  0  0
  190.2100  174.1030  145.8490 C   0  0  0  0  0  1  0  0  0  0  0  0
  190.9920  174.3880  144.5660 C   0  0  1  0  0  3  0  0  0  0  0  0
  193.7210  176.8380  145.4990 C   0  0  0  0  0  2  0  0  0  0  0  0
  191.0220  176.2720  142.7660 C   0  0  0  0  0  2  0  0  0  0  0  0
  192.3830  176.4660  144.9070 C   0  0  2  0  0  0  0  0  0  0  0  0
  191.4010  176.8980  145.7900 F   0  0  0  0  0  0  0  0  0  0  0  0
  193.3250  174.4280  143.7120 C   0  0  0  0  0  1  0  0  0  0  0  0
  192.0960  177.0790  143.5370 C   0  0  0  0  0  2  0  0  0  0  0  0
  194.0300  175.7010  146.4750 C   0  0  2  0  0  3  0  0  0  0  0  0
  190.1680  175.3380  143.6600 C   0  0  1  0  0  3  0  0  0  0  0  0
  195.3520  175.2840  146.2910 O   0  0  0  0  0  1  0  0  0  0  0  0
  193.0700  174.5450  146.1500 C   0  0  0  0  0  2  0  0  0  0  0  0
  189.7860  172.0720  140.2800 C   0  0  0  0  0  0  0  0  0  0  0  0
  190.4440  171.3690  139.5580 C   0  0  0  0  0  0  0  0  0  0  0  0
  191.2500  170.5540  138.6430 C   0  0  0  0  0  2  0  0  0  0  0  0
  191.9580  168.3170  139.0000 O   0  0  0  0  0  0  0  0  0  0  0  0
  191.9890  169.5060  139.4110 C   0  0  0  0  0  0  0  0  0  0  0  0
  192.7470  169.8360  140.6350 C   0  0  0  0  0  0  0  0  0  0  0  0
  193.0390  169.7940  143.1260 C   0  0  0  0  0  0  0  0  0  0  0  0
  194.1660  170.7160  142.9380 C   0  0  0  0  0  0  0  0  0  0  0  0
  194.4870  171.1170  141.7150 C   0  0  0  0  0  3  0  0  0  0  0  0
  192.6780  169.4630  144.2930 O   0  0  0  0  0  0  0  0  0  0  0  0
  194.9490  171.2190  144.1010 C   0  0  0  0  0  1  0  0  0  0  0  0
  193.7380  170.6820  140.5740 N   0  0  0  0  0  0  0  0  0  0  0  0
  192.3400  169.1950  141.9400 C   0  0  0  0  0  2  0  0  0  0  0  0
  186.6910  175.1470  142.6720 O   0  0  0  0  0  1  0  0  0  0  0  0
  187.4320  175.8510  141.7200 C   0  0  1  0  0  3  0  0  0  0  0  0
  188.3200  178.0450  141.6570 O   0  0  0  0  0  0  0  0  0  0  0  0
  187.3730  177.3420  141.9770 C   0  0  0  0  0  0  0  0  0  0  0  0
  186.1820  177.9740  142.6390 C   0  0  0  0  0  2  0  0  0  0  0  0
  185.4940  179.0090  144.8300 C   0  0  0  0  0  0  0  0  0  0  0  0
  184.1720  179.4150  144.2650 C   0  0  0  0  0  1  0  0  0  0  0  0
  186.4620  178.3120  144.0310 N   0  0  0  0  0  0  0  0  0  0  0  0
  185.7510  179.2930  146.0300 O   0  0  0  0  0  0  0  0  0  0  0  0
  187.7420  177.9160  144.6060 C   0  0  0  0  0  2  0  0  0  0  0  0
  187.5410  176.7520  145.5670 C   0  0  0  0  0  2  0  0  0  0  0  0
  188.2560  177.0490  146.8700 C   0  0  0  0  0  1  0  0  0  0  0  0
  1  2  1  6  0  0  0
  1 16  1  0  0  0  0
  3 33  1  0  0  0  0
  3  1  1  0  0  0  0
  4 19  1  6  0  0  0
  4  2  1  0  0  0  0
  5  4  1  0  0  0  0
  5  3  1  0  0  0  0
  6 13  1  6  0  0  0
  6 11  1  0  0  0  0
  6 18  1  0  0  0  0
  8  6  1  0  0  0  0
  8  7  1  1  0  0  0
  9 15  1  0  0  0  0
 10 14  1  0  0  0  0
 11  9  1  0  0  0  0
 11 12  1  1  0  0  0
 14 11  1  0  0  0  0
 15 17  1  6  0  0  0
 16 10  1  6  0  0  0
 16  8  1  0  0  0  0
 18 15  1  0  0  0  0
 20 19  3  0  0  0  0
 21 23  1  0  0  0  0
 21 20  1  0  0  0  0
 22 23  2  0  0  0  0
 23 24  1  0  0  0  0
 24 31  1  0  0  0  0
 25 28  2  0  0  0  0
 26 25  1  0  0  0  0
 26 29  1  0  0  0  0
 27 26  2  0  0  0  0
 30 24  2  0  0  0  0
 30 27  1  0  0  0  0
 31 25  1  0  0  0  0
 33 35  1  0  0  0  0
 33 32  1  1  0  0  0
 34 35  2  0  0  0  0
 35 36  1  0  0  0  0
 36 39  1  0  0  0  0
 37 40  2  0  0  0  0
 38 37  1  0  0  0  0
 39 41  1  0  0  0  0
 39 37  1  0  0  0  0
 41 42  1  0  0  0  0
 42 43  1  0  0  0  0
M  END
>  <MODEL>
6

>  <REMARK>
 VINA RESULT:      -6.8      2.781      8.758
  Name = 
  11 active torsions:
  status: ('A' for Active; 'I' for Inactive)
    1  A    between atoms: C_1  and  C_38
    2  A    between atoms: C_4  and  C_33
    3  A    between atoms: C_5  and  C_35
    4  A    between atoms: C_5  and  C_38
    5  A    between atoms: C_9  and  C_30
    6  A    between atoms: N_20  and  C_37
    7  A    between atoms: C_22  and  C_37
    8  A    between atoms: C_22  and  C_40
    9  A    between atoms: C_24  and  N_27
   10  A    between atoms: C_24  and  C_29
   11  A    between atoms: N_27  and  C_40
                            x       y       z     vdW  Elec       q    Type
                         _______ _______ _______ _____ _____    ______ ____

>  <TORSDO>
F 11

$$$$
=
 OpenBabel11042419063D

 43 46  0  0  1  0  0  0  0  0999 V2000
  190.8270  172.4860  144.0500 C   0  0  2  0  0  3  0  0  0  0  0  0
  189.6230  173.1140  144.7330 C   0  0  0  0  0  2  0  0  0  0  0  0
  191.9270  173.4510  144.0910 N   0  0  0  0  0  0  0  0  0  0  0  0
  190.2470  174.1260  145.6560 C   0  0  1  0  0  3  0  0  0  0  0  0
  191.4750  174.5820  144.9060 C   0  0  0  0  0  2  0  0  0  0  0  0
  191.3300  172.6500  140.2280 C   0  0  2  0  0  0  0  0  0  0  0  0
  189.8950  174.3040  141.5610 C   0  0  0  0  0  1  0  0  0  0  0  0
  190.9700  173.2180  141.6190 C   0  0  1  0  0  3  0  0  0  0  0  0
  190.6480  171.2240  138.4200 C   0  0  0  0  0  2  0  0  0  0  0  0
  191.0510  170.6900  142.2440 C   0  0  0  0  0  2  0  0  0  0  0  0
  190.4350  171.4540  139.8970 C   0  0  2  0  0  0  0  0  0  0  0  0
  189.0960  171.7750  140.0810 F   0  0  0  0  0  0  0  0  0  0  0  0
  192.8150  172.2740  140.2510 C   0  0  0  0  0  1  0  0  0  0  0  0
  190.7650  170.2550  140.7860 C   0  0  0  0  0  2  0  0  0  0  0  0
  190.8550  172.6270  137.8460 C   0  0  2  0  0  3  0  0  0  0  0  0
  190.5240  172.1030  142.5990 C   0  0  1  0  0  3  0  0  0  0  0  0
  191.9590  172.6150  136.9890 O   0  0  0  0  0  1  0  0  0  0  0  0
  191.1270  173.5690  139.0300 C   0  0  0  0  0  2  0  0  0  0  0  0
  189.3460  175.2530  145.9060 C   0  0  0  0  0  0  0  0  0  0  0  0
  188.6090  176.1900  146.0640 C   0  0  0  0  0  0  0  0  0  0  0  0
  187.7060  177.3380  146.2020 C   0  0  0  0  0  2  0  0  0  0  0  0
  185.5700  176.3970  146.6300 O   0  0  0  0  0  0  0  0  0  0  0  0
  186.3230  176.9500  145.7880 C   0  0  0  0  0  0  0  0  0  0  0  0
  185.8290  177.2000  144.4180 C   0  0  0  0  0  0  0  0  0  0  0  0
  186.1150  177.1500  141.9270 C   0  0  0  0  0  0  0  0  0  0  0  0
  184.8750  177.9290  141.8390 C   0  0  0  0  0  0  0  0  0  0  0  0
  184.2400  178.2770  142.9510 C   0  0  0  0  0  3  0  0  0  0  0  0
  186.7670  176.8750  140.8780 O   0  0  0  0  0  0  0  0  0  0  0  0
  184.3220  178.3470  140.5210 C   0  0  0  0  0  1  0  0  0  0  0  0
  184.7570  177.9220  144.2390 N   0  0  0  0  0  0  0  0  0  0  0  0
  186.5930  176.6260  143.2500 C   0  0  0  0  0  2  0  0  0  0  0  0
  193.0400  171.4240  144.5290 O   0  0  0  0  0  1  0  0  0  0  0  0
  193.1350  172.8120  144.6460 C   0  0  1  0  0  3  0  0  0  0  0  0
  194.7220  173.0660  142.9080 O   0  0  0  0  0  0  0  0  0  0  0  0
  194.4390  173.3200  144.0680 C   0  0  0  0  0  0  0  0  0  0  0  0
  195.4060  174.1120  144.9010 C   0  0  0  0  0  2  0  0  0  0  0  0
  196.8000  175.8110  143.6700 C   0  0  0  0  0  0  0  0  0  0  0  0
  197.9000  174.8200  143.4730 C   0  0  0  0  0  1  0  0  0  0  0  0
  195.5950  175.4570  144.3660 N   0  0  0  0  0  0  0  0  0  0  0  0
  196.9480  176.9770  143.2150 O   0  0  0  0  0  0  0  0  0  0  0  0
  194.5290  176.4370  144.5390 C   0  0  0  0  0  2  0  0  0  0  0  0
  194.7260  177.1910  145.8480 C   0  0  0  0  0  2  0  0  0  0  0  0
  193.6440  176.7840  146.8280 C   0  0  0  0  0  1  0  0  0  0  0  0
  1  3  1  0  0  0  0
  1  2  1  6  0  0  0
  2  4  1  0  0  0  0
  3 33  1  0  0  0  0
  3  5  1  0  0  0  0
  4 19  1  6  0  0  0
  5  4  1  0  0  0  0
  6 13  1  1  0  0  0
  6  8  1  0  0  0  0
  8  7  1  6  0  0  0
  8 16  1  0  0  0  0
  9 11  1  0  0  0  0
 11 12  1  1  0  0  0
 11  6  1  0  0  0  0
 11 14  1  0  0  0  0
 14 10  1  0  0  0  0
 15 17  1  6  0  0  0
 15  9  1  0  0  0  0
 15 18  1  0  0  0  0
 16 10  1  6  0  0  0
 16  1  1  0  0  0  0
 18  6  1  0  0  0  0
 19 20  3  0  0  0  0
 20 21  1  0  0  0  0
 23 21  1  0  0  0  0
 23 22  2  0  0  0  0
 24 23  1  0  0  0  0
 25 31  1  0  0  0  0
 26 25  1  0  0  0  0
 26 27  2  0  0  0  0
 27 30  1  0  0  0  0
 28 25  2  0  0  0  0
 29 26  1  0  0  0  0
 30 24  2  0  0  0  0
 31 24  1  0  0  0  0
 33 32  1  6  0  0  0
 34 35  2  0  0  0  0
 35 33  1  0  0  0  0
 35 36  1  0  0  0  0
 37 39  1  0  0  0  0
 38 37  1  0  0  0  0
 39 41  1  0  0  0  0
 39 36  1  0  0  0  0
 40 37  2  0  0  0  0
 41 42  1  0  0  0  0
 42 43  1  0  0  0  0
M  END
>  <MODEL>
7

>  <REMARK>
 VINA RESULT:      -6.8      1.874      2.977
  Name = 
  11 active torsions:
  status: ('A' for Active; 'I' for Inactive)
    1  A    between atoms: C_1  and  C_38
    2  A    between atoms: C_4  and  C_33
    3  A    between atoms: C_5  and  C_35
    4  A    between atoms: C_5  and  C_38
    5  A    between atoms: C_9  and  C_30
    6  A    between atoms: N_20  and  C_37
    7  A    between atoms: C_22  and  C_37
    8  A    between atoms: C_22  and  C_40
    9  A    between atoms: C_24  and  N_27
   10  A    between atoms: C_24  and  C_29
   11  A    between atoms: N_27  and  C_40
                            x       y       z     vdW  Elec       q    Type
                         _______ _______ _______ _____ _____    ______ ____

>  <TORSDO>
F 11

$$$$
=
 OpenBabel11042419063D

 43 46  0  0  1  0  0  0  0  0999 V2000
  188.8750  174.1410  142.9440 C   0  0  2  0  0  3  0  0  0  0  0  0
  189.0110  172.8180  142.2080 C   0  0  0  0  0  2  0  0  0  0  0  0
  188.8980  175.2170  141.9500 N   0  0  0  0  0  0  0  0  0  0  0  0
  188.4930  173.1390  140.8330 C   0  0  1  0  0  3  0  0  0  0  0  0
  188.8940  174.5800  140.6290 C   0  0  0  0  0  2  0  0  0  0  0  0
  192.0210  175.8740  144.3510 C   0  0  2  0  0  0  0  0  0  0  0  0
  192.0710  174.0300  142.5710 C   0  0  0  0  0  1  0  0  0  0  0  0
  191.2170  175.0570  143.3140 C   0  0  1  0  0  3  0  0  0  0  0  0
  193.0680  175.8730  146.5130 C   0  0  0  0  0  2  0  0  0  0  0  0
  189.4940  175.0040  145.2690 C   0  0  0  0  0  2  0  0  0  0  0  0
  191.9940  175.1760  145.7120 C   0  0  2  0  0  0  0  0  0  0  0  0
  192.3630  173.8420  145.5890 F   0  0  0  0  0  0  0  0  0  0  0  0
  191.4110  177.2800  144.4080 C   0  0  0  0  0  1  0  0  0  0  0  0
  190.5970  175.2300  146.3320 C   0  0  0  0  0  2  0  0  0  0  0  0
  194.1440  176.2150  145.4800 C   0  0  2  0  0  3  0  0  0  0  0  0
  190.0000  174.3470  143.9600 C   0  0  1  0  0  3  0  0  0  0  0  0
  194.5500  177.5410  145.6620 O   0  0  0  0  0  1  0  0  0  0  0  0
  193.5110  176.0510  144.0890 C   0  0  0  0  0  2  0  0  0  0  0  0
  189.1060  172.2850  139.8140 C   0  0  0  0  0  0  0  0  0  0  0  0
  189.6450  171.6160  138.9710 C   0  0  0  0  0  0  0  0  0  0  0  0
  190.3450  170.8350  137.9460 C   0  0  0  0  0  2  0  0  0  0  0  0
  191.6930  171.7410  136.2170 O   0  0  0  0  0  0  0  0  0  0  0  0
  191.5380  171.5910  137.4560 C   0  0  0  0  0  0  0  0  0  0  0  0
  192.5310  172.1570  138.3920 C   0  0  0  0  0  0  0  0  0  0  0  0
  193.8870  174.0740  139.2740 C   0  0  0  0  0  0  0  0  0  0  0  0
  194.6150  173.0930  140.0870 C   0  0  0  0  0  0  0  0  0  0  0  0
  194.2930  171.8080  140.0070 C   0  0  0  0  0  3  0  0  0  0  0  0
  194.2340  175.2910  139.2870 O   0  0  0  0  0  0  0  0  0  0  0  0
  195.7200  173.5140  140.9920 C   0  0  0  0  0  1  0  0  0  0  0  0
  193.2580  171.3590  139.1240 N   0  0  0  0  0  0  0  0  0  0  0  0
  192.6940  173.6560  138.4640 C   0  0  0  0  0  2  0  0  0  0  0  0
  186.7890  175.4840  142.9600 O   0  0  0  0  0  1  0  0  0  0  0  0
  187.7370  176.1050  142.1440 C   0  0  1  0  0  3  0  0  0  0  0  0
  188.6180  178.2900  141.9150 O   0  0  0  0  0  0  0  0  0  0  0  0
  188.0790  177.4860  142.6600 C   0  0  0  0  0  0  0  0  0  0  0  0
  187.7900  177.8830  144.0800 C   0  0  0  0  0  2  0  0  0  0  0  0
  185.6590  177.7310  145.4140 C   0  0  0  0  0  0  0  0  0  0  0  0
  186.3240  176.8850  146.4500 C   0  0  0  0  0  1  0  0  0  0  0  0
  186.3800  178.2080  144.2680 N   0  0  0  0  0  0  0  0  0  0  0  0
  184.4410  178.0200  145.5610 O   0  0  0  0  0  0  0  0  0  0  0  0
  185.7130  179.0400  143.2730 C   0  0  0  0  0  2  0  0  0  0  0  0
  184.6380  178.2330  142.5580 C   0  0  0  0  0  2  0  0  0  0  0  0
  184.8800  178.2910  141.0630 C   0  0  0  0  0  1  0  0  0  0  0  0
  1  2  1  6  0  0  0
  1 16  1  0  0  0  0
  3 33  1  0  0  0  0
  3  1  1  0  0  0  0
  4 19  1  6  0  0  0
  4  2  1  0  0  0  0
  5  4  1  0  0  0  0
  5  3  1  0  0  0  0
  6 13  1  1  0  0  0
  6 11  1  0  0  0  0
  8  7  1  1  0  0  0
  8 16  1  0  0  0  0
  8  6  1  0  0  0  0
 10 14  1  0  0  0  0
 11 12  1  6  0  0  0
 11 14  1  0  0  0  0
 11  9  1  0  0  0  0
 15 17  1  1  0  0  0
 15  9  1  0  0  0  0
 16 10  1  1  0  0  0
 18  6  1  0  0  0  0
 18 15  1  0  0  0  0
 20 19  3  0  0  0  0
 21 20  1  0  0  0  0
 22 23  2  0  0  0  0
 23 21  1  0  0  0  0
 23 24  1  0  0  0  0
 24 31  1  0  0  0  0
 24 30  2  0  0  0  0
 25 28  2  0  0  0  0
 25 26  1  0  0  0  0
 26 29  1  0  0  0  0
 27 26  2  0  0  0  0
 30 27  1  0  0  0  0
 31 25  1  0  0  0  0
 33 35  1  0  0  0  0
 33 32  1  1  0  0  0
 34 35  2  0  0  0  0
 35 36  1  0  0  0  0
 36 39  1  0  0  0  0
 37 40  2  0  0  0  0
 37 38  1  0  0  0  0
 39 37  1  0  0  0  0
 41 39  1  0  0  0  0
 42 41  1  0  0  0  0
 43 42  1  0  0  0  0
M  END
>  <MODEL>
8

>  <REMARK>
 VINA RESULT:      -6.8      2.404      8.599
  Name = 
  11 active torsions:
  status: ('A' for Active; 'I' for Inactive)
    1  A    between atoms: C_1  and  C_38
    2  A    between atoms: C_4  and  C_33
    3  A    between atoms: C_5  and  C_35
    4  A    between atoms: C_5  and  C_38
    5  A    between atoms: C_9  and  C_30
    6  A    between atoms: N_20  and  C_37
    7  A    between atoms: C_22  and  C_37
    8  A    between atoms: C_22  and  C_40
    9  A    between atoms: C_24  and  N_27
   10  A    between atoms: C_24  and  C_29
   11  A    between atoms: N_27  and  C_40
                            x       y       z     vdW  Elec       q    Type
                         _______ _______ _______ _____ _____    ______ ____

>  <TORSDO>
F 11

$$$$
=
 OpenBabel11042419063D

 43 46  0  0  1  0  0  0  0  0999 V2000
  189.9250  175.0880  143.3270 C   0  0  2  0  0  3  0  0  0  0  0  0
  189.8780  174.0820  142.1890 C   0  0  0  0  0  2  0  0  0  0  0  0
  189.1070  176.2420  142.9460 N   0  0  0  0  0  0  0  0  0  0  0  0
  188.5820  174.4100  141.4990 C   0  0  1  0  0  3  0  0  0  0  0  0
  188.4500  175.9020  141.6810 C   0  0  0  0  0  2  0  0  0  0  0  0
  193.5140  174.6220  144.6640 C   0  0  2  0  0  0  0  0  0  0  0  0
  191.5090  175.2700  146.1240 C   0  0  0  0  0  1  0  0  0  0  0  0
  191.9750  174.7070  144.7810 C   0  0  1  0  0  3  0  0  0  0  0  0
  195.5590  175.8380  144.3360 C   0  0  0  0  0  2  0  0  0  0  0  0
  192.2280  175.6160  142.3520 C   0  0  0  0  0  2  0  0  0  0  0  0
  194.0730  175.9190  144.0780 C   0  0  2  0  0  0  0  0  0  0  0  0
  193.5890  177.0220  144.7710 F   0  0  0  0  0  0  0  0  0  0  0  0
  193.8450  173.4030  143.7960 C   0  0  0  0  0  1  0  0  0  0  0  0
  193.6860  176.0720  142.6070 C   0  0  0  0  0  2  0  0  0  0  0  0
  195.6690  175.1050  145.6740 C   0  0  2  0  0  3  0  0  0  0  0  0
  191.3560  175.5400  143.6300 C   0  0  1  0  0  3  0  0  0  0  0  0
  196.6440  174.1080  145.5740 O   0  0  0  0  0  1  0  0  0  0  0  0
  194.3000  174.4660  145.9600 C   0  0  0  0  0  2  0  0  0  0  0  0
  188.6280  174.0660  140.0770 C   0  0  0  0  0  0  0  0  0  0  0  0
  188.7070  173.8070  138.9040 C   0  0  0  0  0  0  0  0  0  0  0  0
  188.8560  173.5110  137.4760 C   0  0  0  0  0  2  0  0  0  0  0  0
  189.8880  171.6300  136.4620 O   0  0  0  0  0  0  0  0  0  0  0  0
  190.0140  172.5900  137.2650 C   0  0  0  0  0  0  0  0  0  0  0  0
  191.2940  172.7820  137.9780 C   0  0  0  0  0  0  0  0  0  0  0  0
  192.9000  172.2090  139.8170 C   0  0  0  0  0  0  0  0  0  0  0  0
  193.6770  173.3850  139.4090 C   0  0  0  0  0  0  0  0  0  0  0  0
  193.2500  174.1330  138.4000 C   0  0  0  0  0  3  0  0  0  0  0  0
  193.2580  171.5300  140.8240 O   0  0  0  0  0  0  0  0  0  0  0  0
  194.9320  173.7610  140.1170 C   0  0  0  0  0  1  0  0  0  0  0  0
  192.0310  173.8250  137.7140 N   0  0  0  0  0  0  0  0  0  0  0  0
  191.7090  171.7680  139.0170 C   0  0  0  0  0  2  0  0  0  0  0  0
  188.6540  177.5240  144.8680 O   0  0  0  0  0  1  0  0  0  0  0  0
  188.1380  176.5450  144.0150 C   0  0  1  0  0  3  0  0  0  0  0  0
  185.8730  176.0790  143.5100 O   0  0  0  0  0  0  0  0  0  0  0  0
  186.7560  176.9220  143.5250 C   0  0  0  0  0  0  0  0  0  0  0  0
  186.4530  178.3090  143.0350 C   0  0  0  0  0  2  0  0  0  0  0  0
  184.8130  178.2210  141.1250 C   0  0  0  0  0  0  0  0  0  0  0  0
  185.9050  177.9210  140.1520 C   0  0  0  0  0  1  0  0  0  0  0  0
  185.0910  178.4090  142.5210 N   0  0  0  0  0  0  0  0  0  0  0  0
  183.6300  178.3110  140.6980 O   0  0  0  0  0  0  0  0  0  0  0  0
  184.0070  178.6910  143.4560 C   0  0  0  0  0  2  0  0  0  0  0  0
  184.5540  179.4210  144.6760 C   0  0  0  0  0  2  0  0  0  0  0  0
  184.1530  178.6700  145.9300 C   0  0  0  0  0  1  0  0  0  0  0  0
  1  2  1  6  0  0  0
  1 16  1  0  0  0  0
  3  1  1  0  0  0  0
  3 33  1  0  0  0  0
  4 19  1  6  0  0  0
  4  5  1  0  0  0  0
  4  2  1  0  0  0  0
  5  3  1  0  0  0  0
  6 13  1  6  0  0  0
  6  8  1  0  0  0  0
  6 18  1  0  0  0  0
  8  7  1  1  0  0  0
  9 15  1  0  0  0  0
 10 14  1  0  0  0  0
 11  9  1  0  0  0  0
 11  6  1  0  0  0  0
 11 12  1  1  0  0  0
 14 11  1  0  0  0  0
 15 17  1  6  0  0  0
 15 18  1  0  0  0  0
 16 10  1  6  0  0  0
 16  8  1  0  0  0  0
 20 19  3  0  0  0  0
 21 20  1  0  0  0  0
 22 23  2  0  0  0  0
 23 21  1  0  0  0  0
 23 24  1  0  0  0  0
 24 31  1  0  0  0  0
 25 28  2  0  0  0  0
 26 25  1  0  0  0  0
 26 29  1  0  0  0  0
 27 26  2  0  0  0  0
 30 24  2  0  0  0  0
 30 27  1  0  0  0  0
 31 25  1  0  0  0  0
 33 32  1  6  0  0  0
 34 35  2  0  0  0  0
 35 33  1  0  0  0  0
 36 35  1  0  0  0  0
 37 39  1  0  0  0  0
 38 37  1  0  0  0  0
 39 36  1  0  0  0  0
 39 41  1  0  0  0  0
 40 37  2  0  0  0  0
 41 42  1  0  0  0  0
 42 43  1  0  0  0  0
M  END
>  <MODEL>
9

>  <REMARK>
 VINA RESULT:      -6.7      2.633      8.537
  Name = 
  11 active torsions:
  status: ('A' for Active; 'I' for Inactive)
    1  A    between atoms: C_1  and  C_38
    2  A    between atoms: C_4  and  C_33
    3  A    between atoms: C_5  and  C_35
    4  A    between atoms: C_5  and  C_38
    5  A    between atoms: C_9  and  C_30
    6  A    between atoms: N_20  and  C_37
    7  A    between atoms: C_22  and  C_37
    8  A    between atoms: C_22  and  C_40
    9  A    between atoms: C_24  and  N_27
   10  A    between atoms: C_24  and  C_29
   11  A    between atoms: N_27  and  C_40
                            x       y       z     vdW  Elec       q    Type
                         _______ _______ _______ _____ _____    ______ ____

>  <TORSDO>
F 11

$$$$
