=
 OpenBabel11042414003D

 36 39  0  0  1  0  0  0  0  0999 V2000
  189.8330  176.0710  144.4050 C   0  0  2  0  0  3  0  0  0  0  0  0
  188.1110  176.2630  146.1600 C   0  0  2  0  0  3  0  0  0  0  0  0
  189.3190  176.8200  146.6190 O   0  0  0  0  0  0  0  0  0  0  0  0
  189.0130  177.0290  145.2630 C   0  0  1  0  0  3  0  0  0  0  0  0
  186.9620  177.0870  146.6680 C   0  0  0  0  0  0  0  0  0  0  0  0
  187.1260  177.9620  147.5080 O   0  0  0  0  0  0  0  0  0  0  0  0
  185.6070  176.8690  146.0820 C   0  0  0  0  0  2  0  0  0  0  0  0
  184.8910  178.2020  145.9080 C   0  0  0  0  0  2  0  0  0  0  0  0
  183.7950  178.9880  143.8870 N   0  0  0  0  0  2  0  0  0  0  0  0
  182.7450  178.2730  141.9210 O   0  0  0  0  0  0  0  0  0  0  0  0
  185.8580  177.8030  143.6070 C   0  0  0  0  0  2  0  0  0  0  0  0
  183.7590  178.2810  142.6670 C   0  0  0  0  0  0  0  0  0  0  0  0
  185.0880  178.7820  144.5110 C   0  0  2  0  0  0  0  0  0  0  0  0
  185.6830  178.1470  141.1540 C   0  0  0  0  0  1  0  0  0  0  0  0
  185.7680  179.9990  144.5800 O   0  0  0  0  0  1  0  0  0  0  0  0
  185.0030  177.5450  142.3680 C   0  0  1  0  0  3  0  0  0  0  0  0
  191.0030  176.7640  143.6950 C   0  0  1  0  0  3  0  0  0  0  0  0
  190.8780  178.2830  143.6810 C   0  0  0  0  0  1  0  0  0  0  0  0
  194.4810  175.6490  144.2870 C   0  0  1  0  0  3  0  0  0  0  0  0
  193.9680  175.9220  145.6510 C   0  0  0  0  0  0  0  0  0  0  0  0
  194.6290  175.7870  146.7140 O   0  0  0  0  0  0  0  0  0  0  0  0
  192.3250  176.3160  144.2360 C   0  0  0  0  0  0  0  0  0  0  0  0
  193.3140  175.9580  143.4750 N   0  0  0  0  0  0  0  0  0  0  0  0
  192.6190  176.3500  145.6280 N   0  0  0  0  0  2  0  0  0  0  0  0
  195.6040  176.6120  143.9490 C   0  0  0  0  0  1  0  0  0  0  0  0
  188.9690  175.4160  143.4310 N   0  0  0  0  0  2  0  0  0  0  0  0
  191.1260  172.2690  144.3590 C   0  0  2  0  0  3  0  0  0  0  0  0
  190.5560  173.6870  142.1310 S   0  0  0  0  0  0  0  0  0  0  0  0
  190.8690  172.0740  142.8790 C   0  0  0  0  0  2  0  0  0  0  0  0
  189.9860  173.5250  145.0350 S   0  0  0  0  0  0  0  0  0  0  0  0
  189.3170  174.0040  143.4140 C   0  0  1  0  0  3  0  0  0  0  0  0
  192.5010  172.6960  144.5630 N   0  0  0  0  0  2  0  0  0  0  0  0
  193.3520  171.5340  144.3650 C   0  0  0  0  0  2  0  0  0  0  0  0
  194.5210  170.4160  146.1140 O   0  0  0  0  0  1  0  0  0  0  0  0
  195.1520  172.5870  145.7300 O   0  0  0  0  0  0  0  0  0  0  0  0
  194.3800  171.4690  145.4400 C   0  0  0  0  0  0  0  0  0  0  0  0
  1 26  1  6  0  0  0
  2  3  1  0  0  0  0
  2  5  1  1  0  0  0
  4  1  1  6  0  0  0
  4  2  1  0  0  0  0
  4  3  1  0  0  0  0
  5  6  2  0  0  0  0
  7  5  1  0  0  0  0
  8  7  1  0  0  0  0
  9 13  1  0  0  0  0
 10 12  2  0  0  0  0
 11 13  1  0  0  0  0
 12  9  1  0  0  0  0
 13 15  1  1  0  0  0
 13  8  1  0  0  0  0
 16 14  1  6  0  0  0
 16 12  1  0  0  0  0
 16 11  1  0  0  0  0
 17 18  1  1  0  0  0
 17 22  1  0  0  0  0
 17  1  1  0  0  0  0
 19 25  1  6  0  0  0
 19 20  1  0  0  0  0
 20 21  2  0  0  0  0
 22 24  1  0  0  0  0
 23 22  2  0  0  0  0
 23 19  1  0  0  0  0
 24 20  1  0  0  0  0
 27 32  1  6  0  0  0
 27 30  1  0  0  0  0
 28 29  1  0  0  0  0
 28 31  1  0  0  0  0
 29 27  1  0  0  0  0
 31 26  1  1  0  0  0
 31 30  1  0  0  0  0
 33 32  1  0  0  0  0
 33 36  1  0  0  0  0
 36 35  2  0  0  0  0
 36 34  1  0  0  0  0
M  END
>  <MODEL>
1

>  <REMARK>
 VINA RESULT:      -6.9      0.000      0.000
  Name = 
  12 active torsions:
  status: ('A' for Active; 'I' for Inactive)
    1  A    between atoms: C_1  and  C_12
    2  A    between atoms: C_1  and  N_17
    3  A    between atoms: C_1  and  C_21
    4  A    between atoms: C_5  and  C_9
    5  A    between atoms: C_5  and  C_29
    6  A    between atoms: C_6  and  N_16
    7  A    between atoms: C_12  and  C_15
    8  A    between atoms: N_16  and  C_35
    9  A    between atoms: N_17  and  C_28
   10  A    between atoms: C_23  and  C_35
   11  A    between atoms: C_24  and  C_26
   12  A    between atoms: C_26  and  C_29
                            x       y       z     vdW  Elec       q    Type
                         _______ _______ _______ _____ _____    ______ ____

>  <TORSDO>
F 12

$$$$
=
 OpenBabel11042414003D

 36 39  0  0  1  0  0  0  0  0999 V2000
  189.9270  175.7580  145.1060 C   0  0  2  0  0  3  0  0  0  0  0  0
  188.1690  176.3770  146.7210 C   0  0  2  0  0  3  0  0  0  0  0  0
  189.2720  177.2380  146.8700 O   0  0  0  0  0  0  0  0  0  0  0  0
  188.9590  176.8480  145.5550 C   0  0  1  0  0  3  0  0  0  0  0  0
  186.9010  177.1590  146.9160 C   0  0  0  0  0  0  0  0  0  0  0  0
  186.8510  178.1120  147.6820 O   0  0  0  0  0  0  0  0  0  0  0  0
  185.7020  176.7970  146.1060 C   0  0  0  0  0  2  0  0  0  0  0  0
  184.8380  178.0290  145.8670 C   0  0  0  0  0  2  0  0  0  0  0  0
  183.8500  178.8620  143.8100 N   0  0  0  0  0  2  0  0  0  0  0  0
  182.9430  178.1960  141.7580 O   0  0  0  0  0  0  0  0  0  0  0  0
  185.9570  177.7380  143.6190 C   0  0  0  0  0  2  0  0  0  0  0  0
  183.9080  178.2000  142.5660 C   0  0  0  0  0  0  0  0  0  0  0  0
  185.1070  178.6650  144.5070 C   0  0  2  0  0  0  0  0  0  0  0  0
  185.9260  178.1680  141.1740 C   0  0  0  0  0  1  0  0  0  0  0  0
  185.7490  179.8940  144.6610 O   0  0  0  0  0  1  0  0  0  0  0  0
  185.1870  177.5050  142.3210 C   0  0  1  0  0  3  0  0  0  0  0  0
  191.0960  176.3090  144.2780 C   0  0  1  0  0  3  0  0  0  0  0  0
  191.0650  177.8260  144.1350 C   0  0  0  0  0  1  0  0  0  0  0  0
  193.9320  174.5710  145.8990 C   0  0  1  0  0  3  0  0  0  0  0  0
  194.5920  175.5230  144.9740 C   0  0  0  0  0  0  0  0  0  0  0  0
  195.8360  175.6450  144.8290 O   0  0  0  0  0  0  0  0  0  0  0  0
  192.4160  175.8210  144.7870 C   0  0  0  0  0  0  0  0  0  0  0  0
  192.5270  174.8690  145.6620 N   0  0  0  0  0  0  0  0  0  0  0  0
  193.6490  176.3060  144.2660 N   0  0  0  0  0  2  0  0  0  0  0  0
  194.2260  173.1430  145.4760 C   0  0  0  0  0  1  0  0  0  0  0  0
  189.2100  174.7400  144.3510 N   0  0  0  0  0  2  0  0  0  0  0  0
  189.2560  174.1390  140.4700 C   0  0  2  0  0  3  0  0  0  0  0  0
  190.2590  172.9310  142.6690 S   0  0  0  0  0  0  0  0  0  0  0  0
  190.4890  173.3940  140.9390 C   0  0  0  0  0  2  0  0  0  0  0  0
  188.6680  175.2680  141.7790 S   0  0  0  0  0  0  0  0  0  0  0  0
  189.8270  174.6520  143.0370 C   0  0  1  0  0  3  0  0  0  0  0  0
  188.2080  173.1870  140.1380 N   0  0  0  0  0  2  0  0  0  0  0  0
  188.5910  172.5310  138.8980 C   0  0  0  0  0  2  0  0  0  0  0  0
  189.3050  173.3740  136.7880 O   0  0  0  0  0  0  0  0  0  0  0  0
  187.6520  174.5760  137.8270 O   0  0  0  0  0  1  0  0  0  0  0  0
  188.5310  173.5020  137.7720 C   0  0  0  0  0  0  0  0  0  0  0  0
  1 26  1  6  0  0  0
  2  3  1  0  0  0  0
  2  5  1  6  0  0  0
  4  1  1  1  0  0  0
  4  2  1  0  0  0  0
  4  3  1  0  0  0  0
  5  6  2  0  0  0  0
  7  5  1  0  0  0  0
  8  7  1  0  0  0  0
  9 13  1  0  0  0  0
 10 12  2  0  0  0  0
 11 13  1  0  0  0  0
 12  9  1  0  0  0  0
 13 15  1  1  0  0  0
 13  8  1  0  0  0  0
 16 14  1  6  0  0  0
 16 12  1  0  0  0  0
 16 11  1  0  0  0  0
 17 18  1  1  0  0  0
 17 22  1  0  0  0  0
 17  1  1  0  0  0  0
 19 25  1  6  0  0  0
 20 19  1  0  0  0  0
 21 20  2  0  0  0  0
 22 23  2  0  0  0  0
 23 19  1  0  0  0  0
 24 22  1  0  0  0  0
 24 20  1  0  0  0  0
 27 32  1  1  0  0  0
 27 29  1  0  0  0  0
 27 30  1  0  0  0  0
 28 31  1  0  0  0  0
 29 28  1  0  0  0  0
 30 31  1  0  0  0  0
 31 26  1  1  0  0  0
 33 32  1  0  0  0  0
 34 36  2  0  0  0  0
 36 35  1  0  0  0  0
 36 33  1  0  0  0  0
M  END
>  <MODEL>
2

>  <REMARK>
 VINA RESULT:      -6.8      2.680      3.801
  Name = 
  12 active torsions:
  status: ('A' for Active; 'I' for Inactive)
    1  A    between atoms: C_1  and  C_12
    2  A    between atoms: C_1  and  N_17
    3  A    between atoms: C_1  and  C_21
    4  A    between atoms: C_5  and  C_9
    5  A    between atoms: C_5  and  C_29
    6  A    between atoms: C_6  and  N_16
    7  A    between atoms: C_12  and  C_15
    8  A    between atoms: N_16  and  C_35
    9  A    between atoms: N_17  and  C_28
   10  A    between atoms: C_23  and  C_35
   11  A    between atoms: C_24  and  C_26
   12  A    between atoms: C_26  and  C_29
                            x       y       z     vdW  Elec       q    Type
                         _______ _______ _______ _____ _____    ______ ____

>  <TORSDO>
F 12

$$$$
=
 OpenBabel11042414003D

 36 39  0  0  1  0  0  0  0  0999 V2000
  189.9680  175.6230  145.0090 C   0  0  2  0  0  3  0  0  0  0  0  0
  192.1730  176.6990  145.2580 C   0  0  2  0  0  3  0  0  0  0  0  0
  191.3910  176.9510  146.4020 O   0  0  0  0  0  0  0  0  0  0  0  0
  191.2570  175.6760  145.8230 C   0  0  1  0  0  3  0  0  0  0  0  0
  193.6020  176.4890  145.6730 C   0  0  0  0  0  0  0  0  0  0  0  0
  193.9800  176.7410  146.8090 O   0  0  0  0  0  0  0  0  0  0  0  0
  194.5560  175.9020  144.6880 C   0  0  0  0  0  2  0  0  0  0  0  0
  195.6900  175.1920  145.4160 C   0  0  0  0  0  2  0  0  0  0  0  0
  194.8730  172.9610  144.9070 N   0  0  0  0  0  2  0  0  0  0  0  0
  194.4640  170.8530  145.8370 O   0  0  0  0  0  0  0  0  0  0  0  0
  197.1800  173.1520  145.5260 C   0  0  0  0  0  2  0  0  0  0  0  0
  195.2680  171.7880  145.5830 C   0  0  0  0  0  0  0  0  0  0  0  0
  196.0200  173.8420  144.7860 C   0  0  2  0  0  0  0  0  0  0  0  0
  197.4340  170.7030  145.2050 C   0  0  0  0  0  1  0  0  0  0  0  0
  196.3440  173.9990  143.4380 O   0  0  0  0  0  1  0  0  0  0  0  0
  196.6900  171.7770  145.9770 C   0  0  1  0  0  3  0  0  0  0  0  0
  188.7540  175.2020  145.8490 C   0  0  1  0  0  3  0  0  0  0  0  0
  189.1330  174.4010  147.0880 C   0  0  0  0  0  1  0  0  0  0  0  0
  186.1440  177.8130  146.1000 C   0  0  1  0  0  3  0  0  0  0  0  0
  186.9990  178.0620  147.2850 C   0  0  0  0  0  0  0  0  0  0  0  0
  186.8090  178.9700  148.1360 O   0  0  0  0  0  0  0  0  0  0  0  0
  187.8770  176.3690  146.1820 C   0  0  0  0  0  0  0  0  0  0  0  0
  186.8260  176.6830  145.4870 N   0  0  0  0  0  0  0  0  0  0  0  0
  188.0840  177.1560  147.3490 N   0  0  0  0  0  2  0  0  0  0  0  0
  184.7540  177.3890  146.5380 C   0  0  0  0  0  1  0  0  0  0  0  0
  190.1350  174.7220  143.8770 N   0  0  0  0  0  2  0  0  0  0  0  0
  188.4090  177.6490  141.9070 C   0  0  2  0  0  3  0  0  0  0  0  0
  187.9560  175.0210  142.3400 S   0  0  0  0  0  0  0  0  0  0  0  0
  187.8920  176.4160  141.1950 C   0  0  0  0  0  2  0  0  0  0  0  0
  189.8500  177.2190  142.9440 S   0  0  0  0  0  0  0  0  0  0  0  0
  189.6870  175.4260  142.6860 C   0  0  1  0  0  3  0  0  0  0  0  0
  187.3570  178.2080  142.7410 N   0  0  0  0  0  2  0  0  0  0  0  0
  186.1850  178.3900  141.8990 C   0  0  0  0  0  2  0  0  0  0  0  0
  183.9390  178.0180  142.5970 O   0  0  0  0  0  0  0  0  0  0  0  0
  185.0360  179.7280  143.6600 O   0  0  0  0  0  1  0  0  0  0  0  0
  184.9950  178.6850  142.7430 C   0  0  0  0  0  0  0  0  0  0  0  0
  1 26  1  6  0  0  0
  1 17  1  0  0  0  0
  2  5  1  1  0  0  0
  2  4  1  0  0  0  0
  2  3  1  0  0  0  0
  4  1  1  6  0  0  0
  4  3  1  0  0  0  0
  5  6  2  0  0  0  0
  7  8  1  0  0  0  0
  7  5  1  0  0  0  0
  9 12  1  0  0  0  0
 11 16  1  0  0  0  0
 12 10  2  0  0  0  0
 12 16  1  0  0  0  0
 13 15  1  6  0  0  0
 13  9  1  0  0  0  0
 13  8  1  0  0  0  0
 13 11  1  0  0  0  0
 16 14  1  6  0  0  0
 17 22  1  0  0  0  0
 17 18  1  1  0  0  0
 19 25  1  1  0  0  0
 19 20  1  0  0  0  0
 20 24  1  0  0  0  0
 20 21  2  0  0  0  0
 22 24  1  0  0  0  0
 23 19  1  0  0  0  0
 23 22  2  0  0  0  0
 27 32  1  1  0  0  0
 27 30  1  0  0  0  0
 28 31  1  0  0  0  0
 29 27  1  0  0  0  0
 29 28  1  0  0  0  0
 31 30  1  0  0  0  0
 31 26  1  1  0  0  0
 33 32  1  0  0  0  0
 33 36  1  0  0  0  0
 34 36  2  0  0  0  0
 36 35  1  0  0  0  0
M  END
>  <MODEL>
3

>  <REMARK>
 VINA RESULT:      -6.7      2.138      9.048
  Name = 
  12 active torsions:
  status: ('A' for Active; 'I' for Inactive)
    1  A    between atoms: C_1  and  C_12
    2  A    between atoms: C_1  and  N_17
    3  A    between atoms: C_1  and  C_21
    4  A    between atoms: C_5  and  C_9
    5  A    between atoms: C_5  and  C_29
    6  A    between atoms: C_6  and  N_16
    7  A    between atoms: C_12  and  C_15
    8  A    between atoms: N_16  and  C_35
    9  A    between atoms: N_17  and  C_28
   10  A    between atoms: C_23  and  C_35
   11  A    between atoms: C_24  and  C_26
   12  A    between atoms: C_26  and  C_29
                            x       y       z     vdW  Elec       q    Type
                         _______ _______ _______ _____ _____    ______ ____

>  <TORSDO>
F 12

$$$$
=
 OpenBabel11042414003D

 36 39  0  0  1  0  0  0  0  0999 V2000
  192.2920  174.4220  144.7920 C   0  0  2  0  0  3  0  0  0  0  0  0
  190.7220  175.4730  146.3780 C   0  0  2  0  0  3  0  0  0  0  0  0
  192.0430  175.8170  146.7210 O   0  0  0  0  0  0  0  0  0  0  0  0
  191.7570  175.7380  145.3470 C   0  0  1  0  0  3  0  0  0  0  0  0
  189.8250  176.6540  146.6170 C   0  0  0  0  0  0  0  0  0  0  0  0
  190.0910  177.4960  147.4630 O   0  0  0  0  0  0  0  0  0  0  0  0
  188.6200  176.8270  145.7540 C   0  0  0  0  0  2  0  0  0  0  0  0
  187.3680  176.4030  146.5110 C   0  0  0  0  0  2  0  0  0  0  0  0
  185.7300  176.5140  144.7200 N   0  0  0  0  0  2  0  0  0  0  0  0
  185.3780  177.2940  142.5420 O   0  0  0  0  0  0  0  0  0  0  0  0
  186.3880  178.5930  145.7130 C   0  0  0  0  0  2  0  0  0  0  0  0
  185.6770  177.5290  143.7420 C   0  0  0  0  0  0  0  0  0  0  0  0
  186.1170  177.1030  145.9880 C   0  0  2  0  0  0  0  0  0  0  0  0
  184.8060  179.7730  144.2060 C   0  0  0  0  0  1  0  0  0  0  0  0
  185.0680  176.9710  146.9000 O   0  0  0  0  0  1  0  0  0  0  0  0
  186.0220  178.8690  144.2550 C   0  0  1  0  0  3  0  0  0  0  0  0
  193.6760  174.0630  145.3510 C   0  0  1  0  0  3  0  0  0  0  0  0
  193.8550  172.5670  145.5850 C   0  0  0  0  0  1  0  0  0  0  0  0
  196.3470  174.8100  142.9020 C   0  0  1  0  0  3  0  0  0  0  0  0
  196.1630  176.0960  143.6170 C   0  0  0  0  0  0  0  0  0  0  0  0
  196.8030  177.1530  143.3810 O   0  0  0  0  0  0  0  0  0  0  0  0
  194.7780  174.6360  144.5160 C   0  0  0  0  0  0  0  0  0  0  0  0
  195.3790  173.9630  143.5830 N   0  0  0  0  0  0  0  0  0  0  0  0
  195.1740  175.9980  144.6250 N   0  0  0  0  0  2  0  0  0  0  0  0
  195.9530  174.9610  141.4450 C   0  0  0  0  0  1  0  0  0  0  0  0
  192.3350  174.4790  143.3370 N   0  0  0  0  0  2  0  0  0  0  0  0
  190.0220  172.1530  141.1780 C   0  0  2  0  0  3  0  0  0  0  0  0
  190.4160  172.6630  143.8020 S   0  0  0  0  0  0  0  0  0  0  0  0
  190.0500  171.4470  142.5180 C   0  0  0  0  0  2  0  0  0  0  0  0
  191.3660  173.3870  141.0890 S   0  0  0  0  0  0  0  0  0  0  0  0
  191.8480  173.2050  142.8330 C   0  0  1  0  0  3  0  0  0  0  0  0
  188.7390  172.8140  141.0020 N   0  0  0  0  0  2  0  0  0  0  0  0
  189.0050  174.1630  140.5290 C   0  0  0  0  0  2  0  0  0  0  0  0
  187.8330  176.2270  140.7260 O   0  0  0  0  0  0  0  0  0  0  0  0
  187.7430  174.8570  142.5620 O   0  0  0  0  0  1  0  0  0  0  0  0
  188.1510  175.1350  141.2650 C   0  0  0  0  0  0  0  0  0  0  0  0
  1 26  1  6  0  0  0
  1 17  1  0  0  0  0
  2  5  1  6  0  0  0
  2  3  1  0  0  0  0
  4  1  1  1  0  0  0
  4  2  1  0  0  0  0
  4  3  1  0  0  0  0
  5  6  2  0  0  0  0
  7  8  1  0  0  0  0
  7  5  1  0  0  0  0
  9 13  1  0  0  0  0
 10 12  2  0  0  0  0
 11 13  1  0  0  0  0
 12 16  1  0  0  0  0
 12  9  1  0  0  0  0
 13  8  1  0  0  0  0
 13 15  1  1  0  0  0
 16 14  1  1  0  0  0
 16 11  1  0  0  0  0
 17 18  1  6  0  0  0
 19 25  1  6  0  0  0
 19 23  1  0  0  0  0
 19 20  1  0  0  0  0
 20 24  1  0  0  0  0
 21 20  2  0  0  0  0
 22 24  1  0  0  0  0
 22 17  1  0  0  0  0
 23 22  2  0  0  0  0
 27 32  1  1  0  0  0
 27 29  1  0  0  0  0
 29 28  1  0  0  0  0
 30 27  1  0  0  0  0
 30 31  1  0  0  0  0
 31 26  1  1  0  0  0
 31 28  1  0  0  0  0
 33 32  1  0  0  0  0
 33 36  1  0  0  0  0
 34 36  2  0  0  0  0
 36 35  1  0  0  0  0
M  END
>  <MODEL>
4

>  <REMARK>
 VINA RESULT:      -6.7      2.365      4.208
  Name = 
  12 active torsions:
  status: ('A' for Active; 'I' for Inactive)
    1  A    between atoms: C_1  and  C_12
    2  A    between atoms: C_1  and  N_17
    3  A    between atoms: C_1  and  C_21
    4  A    between atoms: C_5  and  C_9
    5  A    between atoms: C_5  and  C_29
    6  A    between atoms: C_6  and  N_16
    7  A    between atoms: C_12  and  C_15
    8  A    between atoms: N_16  and  C_35
    9  A    between atoms: N_17  and  C_28
   10  A    between atoms: C_23  and  C_35
   11  A    between atoms: C_24  and  C_26
   12  A    between atoms: C_26  and  C_29
                            x       y       z     vdW  Elec       q    Type
                         _______ _______ _______ _____ _____    ______ ____

>  <TORSDO>
F 12

$$$$
=
 OpenBabel11042414003D

 36 39  0  0  1  0  0  0  0  0999 V2000
  189.9400  176.1140  145.5090 C   0  0  2  0  0  3  0  0  0  0  0  0
  187.9670  176.6440  146.8900 C   0  0  2  0  0  3  0  0  0  0  0  0
  189.0420  177.4710  147.2640 O   0  0  0  0  0  0  0  0  0  0  0  0
  188.9240  177.1850  145.8920 C   0  0  1  0  0  3  0  0  0  0  0  0
  186.6890  177.4340  146.9550 C   0  0  0  0  0  0  0  0  0  0  0  0
  186.5190  178.3020  147.8000 O   0  0  0  0  0  0  0  0  0  0  0  0
  185.6400  177.1880  145.9230 C   0  0  0  0  0  2  0  0  0  0  0  0
  184.8480  178.4640  145.6670 C   0  0  0  0  0  2  0  0  0  0  0  0
  183.7610  178.9930  143.5600 N   0  0  0  0  0  2  0  0  0  0  0  0
  182.8940  178.0450  141.6040 O   0  0  0  0  0  0  0  0  0  0  0  0
  185.9610  178.0530  143.4340 C   0  0  0  0  0  2  0  0  0  0  0  0
  183.8650  178.2180  142.3860 C   0  0  0  0  0  0  0  0  0  0  0  0
  185.0400  178.9820  144.2450 C   0  0  2  0  0  0  0  0  0  0  0  0
  185.8580  178.2320  140.9600 C   0  0  0  0  0  1  0  0  0  0  0  0
  185.5660  180.2750  144.2630 O   0  0  0  0  0  1  0  0  0  0  0  0
  185.1990  177.6220  142.1820 C   0  0  1  0  0  3  0  0  0  0  0  0
  191.3340  176.3830  146.0930 C   0  0  1  0  0  3  0  0  0  0  0  0
  191.5170  175.8060  147.4920 C   0  0  0  0  0  1  0  0  0  0  0  0
  194.1650  176.0670  143.7320 C   0  0  1  0  0  3  0  0  0  0  0  0
  193.8780  174.6650  144.1190 C   0  0  0  0  0  0  0  0  0  0  0  0
  194.5040  173.6560  143.7010 O   0  0  0  0  0  0  0  0  0  0  0  0
  192.4200  175.9490  145.1600 C   0  0  0  0  0  0  0  0  0  0  0  0
  193.1520  176.7860  144.4910 N   0  0  0  0  0  0  0  0  0  0  0  0
  192.7910  174.5820  145.0210 N   0  0  0  0  0  2  0  0  0  0  0  0
  195.5450  176.4710  144.2190 C   0  0  0  0  0  1  0  0  0  0  0  0
  190.0150  176.0000  144.0580 N   0  0  0  0  0  2  0  0  0  0  0  0
  188.7600  172.6650  142.4070 C   0  0  2  0  0  3  0  0  0  0  0  0
  188.5530  175.3140  141.9150 S   0  0  0  0  0  0  0  0  0  0  0  0
  187.7690  173.6880  141.8910 C   0  0  0  0  0  2  0  0  0  0  0  0
  189.6920  173.3490  143.8210 S   0  0  0  0  0  0  0  0  0  0  0  0
  189.0150  175.0280  143.6430 C   0  0  1  0  0  3  0  0  0  0  0  0
  189.6830  172.3010  141.3430 N   0  0  0  0  0  2  0  0  0  0  0  0
  190.8860  171.7760  141.9700 C   0  0  0  0  0  2  0  0  0  0  0  0
  193.1850  171.5400  141.3960 O   0  0  0  0  0  1  0  0  0  0  0  0
  191.9370  172.8370  139.9760 O   0  0  0  0  0  0  0  0  0  0  0  0
  192.0640  172.0270  141.0970 C   0  0  0  0  0  0  0  0  0  0  0  0
  1 26  1  6  0  0  0
  1 17  1  0  0  0  0
  2  5  1  6  0  0  0
  2  3  1  0  0  0  0
  4  1  1  1  0  0  0
  4  2  1  0  0  0  0
  4  3  1  0  0  0  0
  5  6  2  0  0  0  0
  7  5  1  0  0  0  0
  8  7  1  0  0  0  0
  9 13  1  0  0  0  0
 10 12  2  0  0  0  0
 11 13  1  0  0  0  0
 12  9  1  0  0  0  0
 13 15  1  1  0  0  0
 13  8  1  0  0  0  0
 16 14  1  6  0  0  0
 16 12  1  0  0  0  0
 16 11  1  0  0  0  0
 17 18  1  1  0  0  0
 19 20  1  0  0  0  0
 19 25  1  1  0  0  0
 19 23  1  0  0  0  0
 20 24  1  0  0  0  0
 21 20  2  0  0  0  0
 22 17  1  0  0  0  0
 23 22  2  0  0  0  0
 24 22  1  0  0  0  0
 27 32  1  6  0  0  0
 27 30  1  0  0  0  0
 28 31  1  0  0  0  0
 29 28  1  0  0  0  0
 29 27  1  0  0  0  0
 31 30  1  0  0  0  0
 31 26  1  6  0  0  0
 32 33  1  0  0  0  0
 35 36  2  0  0  0  0
 36 34  1  0  0  0  0
 36 33  1  0  0  0  0
M  END
>  <MODEL>
5

>  <REMARK>
 VINA RESULT:      -6.6      1.970      2.442
  Name = 
  12 active torsions:
  status: ('A' for Active; 'I' for Inactive)
    1  A    between atoms: C_1  and  C_12
    2  A    between atoms: C_1  and  N_17
    3  A    between atoms: C_1  and  C_21
    4  A    between atoms: C_5  and  C_9
    5  A    between atoms: C_5  and  C_29
    6  A    between atoms: C_6  and  N_16
    7  A    between atoms: C_12  and  C_15
    8  A    between atoms: N_16  and  C_35
    9  A    between atoms: N_17  and  C_28
   10  A    between atoms: C_23  and  C_35
   11  A    between atoms: C_24  and  C_26
   12  A    between atoms: C_26  and  C_29
                            x       y       z     vdW  Elec       q    Type
                         _______ _______ _______ _____ _____    ______ ____

>  <TORSDO>
F 12

$$$$
=
 OpenBabel11042414003D

 36 39  0  0  1  0  0  0  0  0999 V2000
  189.0330  174.9450  142.0540 C   0  0  2  0  0  3  0  0  0  0  0  0
  188.0030  177.0710  141.3480 C   0  0  2  0  0  3  0  0  0  0  0  0
  187.4430  176.0080  140.6160 O   0  0  0  0  0  0  0  0  0  0  0  0
  187.7390  175.7470  141.9650 C   0  0  1  0  0  3  0  0  0  0  0  0
  186.9310  178.0790  141.6550 C   0  0  0  0  0  0  0  0  0  0  0  0
  185.8760  178.0970  141.0360 O   0  0  0  0  0  0  0  0  0  0  0  0
  187.1430  179.0300  142.7850 C   0  0  0  0  0  2  0  0  0  0  0  0
  185.8080  179.3870  143.4270 C   0  0  0  0  0  2  0  0  0  0  0  0
  184.9720  179.2020  145.7000 N   0  0  0  0  0  2  0  0  0  0  0  0
  185.5810  179.4210  147.9490 O   0  0  0  0  0  0  0  0  0  0  0  0
  186.6780  177.6520  145.0470 C   0  0  0  0  0  2  0  0  0  0  0  0
  185.7640  178.8880  146.8240 C   0  0  0  0  0  0  0  0  0  0  0  0
  185.4450  178.4350  144.5630 C   0  0  2  0  0  0  0  0  0  0  0  0
  186.5500  176.6140  147.2990 C   0  0  0  0  0  1  0  0  0  0  0  0
  184.4480  177.5480  144.1550 O   0  0  0  0  0  1  0  0  0  0  0  0
  186.8270  177.9020  146.5460 C   0  0  1  0  0  3  0  0  0  0  0  0
  188.8490  173.4750  141.6510 C   0  0  1  0  0  3  0  0  0  0  0  0
  187.4590  172.9380  141.9730 C   0  0  0  0  0  1  0  0  0  0  0  0
  189.0120  172.9520  137.9910 C   0  0  1  0  0  3  0  0  0  0  0  0
  190.4350  173.0780  138.3870 C   0  0  0  0  0  0  0  0  0  0  0  0
  191.4140  173.0160  137.5990 O   0  0  0  0  0  0  0  0  0  0  0  0
  189.2230  173.2400  140.2210 C   0  0  0  0  0  0  0  0  0  0  0  0
  188.3440  173.0890  139.2770 N   0  0  0  0  0  0  0  0  0  0  0  0
  190.5760  173.2670  139.7830 N   0  0  0  0  0  2  0  0  0  0  0  0
  188.6170  174.1080  137.0900 C   0  0  0  0  0  1  0  0  0  0  0  0
  189.5790  175.0330  143.4020 N   0  0  0  0  0  2  0  0  0  0  0  0
  193.2330  175.5470  144.7460 C   0  0  2  0  0  3  0  0  0  0  0  0
  191.5030  176.8880  143.1630 S   0  0  0  0  0  0  0  0  0  0  0  0
  193.2100  176.4090  143.5000 C   0  0  0  0  0  2  0  0  0  0  0  0
  191.8110  174.4010  144.7440 S   0  0  0  0  0  0  0  0  0  0  0  0
  191.0240  175.1460  143.2840 C   0  0  1  0  0  3  0  0  0  0  0  0
  193.1750  176.3950  145.9270 N   0  0  0  0  0  2  0  0  0  0  0  0
  192.3020  175.7430  146.8890 C   0  0  0  0  0  2  0  0  0  0  0  0
  191.5270  177.1470  148.6500 O   0  0  0  0  0  1  0  0  0  0  0  0
  190.2690  177.1760  146.7330 O   0  0  0  0  0  0  0  0  0  0  0  0
  191.3590  176.7370  147.4730 C   0  0  0  0  0  0  0  0  0  0  0  0
  1 26  1  1  0  0  0
  2  5  1  1  0  0  0
  2  4  1  0  0  0  0
  3  2  1  0  0  0  0
  3  4  1  0  0  0  0
  4  1  1  6  0  0  0
  5  7  1  0  0  0  0
  6  5  2  0  0  0  0
  7  8  1  0  0  0  0
  8 13  1  0  0  0  0
  9 12  1  0  0  0  0
 11 16  1  0  0  0  0
 12 10  2  0  0  0  0
 13 15  1  6  0  0  0
 13 11  1  0  0  0  0
 13  9  1  0  0  0  0
 16 12  1  0  0  0  0
 16 14  1  1  0  0  0
 17 18  1  6  0  0  0
 17  1  1  0  0  0  0
 19 25  1  6  0  0  0
 19 20  1  0  0  0  0
 19 23  1  0  0  0  0
 20 24  1  0  0  0  0
 21 20  2  0  0  0  0
 22 17  1  0  0  0  0
 23 22  2  0  0  0  0
 24 22  1  0  0  0  0
 27 32  1  1  0  0  0
 28 31  1  0  0  0  0
 28 29  1  0  0  0  0
 29 27  1  0  0  0  0
 30 27  1  0  0  0  0
 31 26  1  1  0  0  0
 31 30  1  0  0  0  0
 32 33  1  0  0  0  0
 33 36  1  0  0  0  0
 35 36  2  0  0  0  0
 36 34  1  0  0  0  0
M  END
>  <MODEL>
6

>  <REMARK>
 VINA RESULT:      -6.4      3.210      5.593
  Name = 
  12 active torsions:
  status: ('A' for Active; 'I' for Inactive)
    1  A    between atoms: C_1  and  C_12
    2  A    between atoms: C_1  and  N_17
    3  A    between atoms: C_1  and  C_21
    4  A    between atoms: C_5  and  C_9
    5  A    between atoms: C_5  and  C_29
    6  A    between atoms: C_6  and  N_16
    7  A    between atoms: C_12  and  C_15
    8  A    between atoms: N_16  and  C_35
    9  A    between atoms: N_17  and  C_28
   10  A    between atoms: C_23  and  C_35
   11  A    between atoms: C_24  and  C_26
   12  A    between atoms: C_26  and  C_29
                            x       y       z     vdW  Elec       q    Type
                         _______ _______ _______ _____ _____    ______ ____

>  <TORSDO>
F 12

$$$$
=
 OpenBabel11042414003D

 36 39  0  0  1  0  0  0  0  0999 V2000
  191.8460  174.0460  144.8500 C   0  0  2  0  0  3  0  0  0  0  0  0
  190.6640  175.3290  146.5930 C   0  0  2  0  0  3  0  0  0  0  0  0
  192.0510  175.3790  146.8260 O   0  0  0  0  0  0  0  0  0  0  0  0
  191.6440  175.4190  145.4810 C   0  0  1  0  0  3  0  0  0  0  0  0
  190.0550  176.6580  146.9400 C   0  0  0  0  0  0  0  0  0  0  0  0
  190.4680  177.3230  147.8800 O   0  0  0  0  0  0  0  0  0  0  0  0
  188.9680  177.1980  146.0730 C   0  0  0  0  0  2  0  0  0  0  0  0
  187.6630  177.2750  146.8550 C   0  0  0  0  0  2  0  0  0  0  0  0
  186.8570  177.1150  144.5690 N   0  0  0  0  0  2  0  0  0  0  0  0
  186.7310  178.2690  142.5370 O   0  0  0  0  0  0  0  0  0  0  0  0
  185.8430  178.7830  145.9590 C   0  0  0  0  0  2  0  0  0  0  0  0
  186.4850  178.2160  143.7710 C   0  0  0  0  0  0  0  0  0  0  0  0
  186.4480  177.3680  145.9380 C   0  0  2  0  0  0  0  0  0  0  0  0
  184.3650  179.4120  144.0650 C   0  0  0  0  0  1  0  0  0  0  0  0
  185.4820  176.4330  146.3130 O   0  0  0  0  0  1  0  0  0  0  0  0
  185.8070  179.2930  144.5190 C   0  0  1  0  0  3  0  0  0  0  0  0
  193.2720  173.5110  145.0370 C   0  0  1  0  0  3  0  0  0  0  0  0
  193.4000  172.0260  144.7190 C   0  0  0  0  0  1  0  0  0  0  0  0
  195.5460  175.1020  142.5900 C   0  0  1  0  0  3  0  0  0  0  0  0
  195.6600  175.9720  143.7850 C   0  0  0  0  0  0  0  0  0  0  0  0
  196.3820  177.0000  143.8660 O   0  0  0  0  0  0  0  0  0  0  0  0
  194.2760  174.3330  144.2900 C   0  0  0  0  0  0  0  0  0  0  0  0
  194.6100  174.0920  143.0600 N   0  0  0  0  0  0  0  0  0  0  0  0
  194.8600  175.5020  144.8540 N   0  0  0  0  0  2  0  0  0  0  0  0
  194.9250  175.8740  141.4400 C   0  0  0  0  0  1  0  0  0  0  0  0
  191.5090  174.0990  143.4330 N   0  0  0  0  0  2  0  0  0  0  0  0
  188.1490  173.0300  141.7030 C   0  0  2  0  0  3  0  0  0  0  0  0
  189.4010  175.3410  142.3310 S   0  0  0  0  0  0  0  0  0  0  0  0
  187.8460  174.4350  142.1840 C   0  0  0  0  0  2  0  0  0  0  0  0
  189.6500  172.3940  142.5260 S   0  0  0  0  0  0  0  0  0  0  0  0
  190.0640  173.9760  143.3210 C   0  0  1  0  0  3  0  0  0  0  0  0
  188.3480  173.0410  140.2620 N   0  0  0  0  0  2  0  0  0  0  0  0
  189.6390  172.4260  139.9970 C   0  0  0  0  0  2  0  0  0  0  0  0
  191.6230  173.5160  139.2560 O   0  0  0  0  0  1  0  0  0  0  0  0
  189.7800  173.7980  137.9220 O   0  0  0  0  0  0  0  0  0  0  0  0
  190.4100  173.2610  139.0370 C   0  0  0  0  0  0  0  0  0  0  0  0
  1 26  1  6  0  0  0
  1 17  1  0  0  0  0
  2  3  1  0  0  0  0
  2  5  1  1  0  0  0
  4  1  1  6  0  0  0
  4  2  1  0  0  0  0
  4  3  1  0  0  0  0
  5  6  2  0  0  0  0
  7  8  1  0  0  0  0
  7  5  1  0  0  0  0
  9 13  1  0  0  0  0
 10 12  2  0  0  0  0
 12 16  1  0  0  0  0
 12  9  1  0  0  0  0
 13 11  1  0  0  0  0
 13 15  1  1  0  0  0
 13  8  1  0  0  0  0
 16 14  1  6  0  0  0
 16 11  1  0  0  0  0
 17 18  1  6  0  0  0
 19 25  1  6  0  0  0
 19 23  1  0  0  0  0
 19 20  1  0  0  0  0
 20 21  2  0  0  0  0
 20 24  1  0  0  0  0
 22 24  1  0  0  0  0
 22 17  1  0  0  0  0
 23 22  2  0  0  0  0
 27 32  1  6  0  0  0
 27 29  1  0  0  0  0
 27 30  1  0  0  0  0
 28 31  1  0  0  0  0
 29 28  1  0  0  0  0
 30 31  1  0  0  0  0
 31 26  1  6  0  0  0
 33 32  1  0  0  0  0
 35 36  2  0  0  0  0
 36 34  1  0  0  0  0
 36 33  1  0  0  0  0
M  END
>  <MODEL>
7

>  <REMARK>
 VINA RESULT:      -6.4      2.887      4.137
  Name = 
  12 active torsions:
  status: ('A' for Active; 'I' for Inactive)
    1  A    between atoms: C_1  and  C_12
    2  A    between atoms: C_1  and  N_17
    3  A    between atoms: C_1  and  C_21
    4  A    between atoms: C_5  and  C_9
    5  A    between atoms: C_5  and  C_29
    6  A    between atoms: C_6  and  N_16
    7  A    between atoms: C_12  and  C_15
    8  A    between atoms: N_16  and  C_35
    9  A    between atoms: N_17  and  C_28
   10  A    between atoms: C_23  and  C_35
   11  A    between atoms: C_24  and  C_26
   12  A    between atoms: C_26  and  C_29
                            x       y       z     vdW  Elec       q    Type
                         _______ _______ _______ _____ _____    ______ ____

>  <TORSDO>
F 12

$$$$
=
 OpenBabel11042414003D

 36 39  0  0  1  0  0  0  0  0999 V2000
  193.0290  174.5460  144.5590 C   0  0  2  0  0  3  0  0  0  0  0  0
  191.5970  175.3000  146.4200 C   0  0  2  0  0  3  0  0  0  0  0  0
  192.9340  175.2200  146.8540 O   0  0  0  0  0  0  0  0  0  0  0  0
  192.7320  175.6760  145.5390 C   0  0  1  0  0  3  0  0  0  0  0  0
  190.9410  176.4910  147.0600 C   0  0  0  0  0  0  0  0  0  0  0  0
  191.2470  176.8600  148.1850 O   0  0  0  0  0  0  0  0  0  0  0  0
  189.9420  177.2700  146.2710 C   0  0  0  0  0  2  0  0  0  0  0  0
  188.8660  177.8290  147.1930 C   0  0  0  0  0  2  0  0  0  0  0  0
  187.3080  177.8370  145.3300 N   0  0  0  0  0  2  0  0  0  0  0  0
  185.8520  179.2000  144.1050 O   0  0  0  0  0  0  0  0  0  0  0  0
  186.3930  178.2510  147.5050 C   0  0  0  0  0  2  0  0  0  0  0  0
  186.2060  178.7100  145.2090 C   0  0  0  0  0  0  0  0  0  0  0  0
  187.4610  177.4650  146.7240 C   0  0  2  0  0  0  0  0  0  0  0  0
  184.1350  178.4160  146.4870 C   0  0  0  0  0  1  0  0  0  0  0  0
  187.2400  176.0940  146.8640 O   0  0  0  0  0  1  0  0  0  0  0  0
  185.5340  179.0020  146.4900 C   0  0  1  0  0  3  0  0  0  0  0  0
  194.5330  174.3240  144.3490 C   0  0  1  0  0  3  0  0  0  0  0  0
  195.3820  175.5020  144.8140 C   0  0  0  0  0  1  0  0  0  0  0  0
  194.9130  170.9920  145.9120 C   0  0  1  0  0  3  0  0  0  0  0  0
  196.2910  171.3320  145.4820 C   0  0  0  0  0  0  0  0  0  0  0  0
  197.3010  170.5990  145.6440 O   0  0  0  0  0  0  0  0  0  0  0  0
  194.9930  173.0310  144.9470 C   0  0  0  0  0  0  0  0  0  0  0  0
  194.1810  172.1770  145.4900 N   0  0  0  0  0  0  0  0  0  0  0  0
  196.3490  172.6060  144.8690 N   0  0  0  0  0  2  0  0  0  0  0  0
  194.4090  169.7840  145.1420 C   0  0  0  0  0  1  0  0  0  0  0  0
  192.3760  174.8120  143.2840 N   0  0  0  0  0  2  0  0  0  0  0  0
  189.5990  172.6740  141.5110 C   0  0  2  0  0  3  0  0  0  0  0  0
  190.4440  173.1100  144.0400 S   0  0  0  0  0  0  0  0  0  0  0  0
  189.7980  171.9430  142.8230 C   0  0  0  0  0  2  0  0  0  0  0  0
  190.9870  173.8240  141.2150 S   0  0  0  0  0  0  0  0  0  0  0  0
  191.7320  173.5800  142.8560 C   0  0  1  0  0  3  0  0  0  0  0  0
  188.3490  173.4170  141.5510 N   0  0  0  0  0  2  0  0  0  0  0  0
  188.5830  174.6980  140.9030 C   0  0  0  0  0  2  0  0  0  0  0  0
  187.2850  176.6860  140.7160 O   0  0  0  0  0  0  0  0  0  0  0  0
  187.1720  175.6160  142.7410 O   0  0  0  0  0  1  0  0  0  0  0  0
  187.6350  175.7150  141.4350 C   0  0  0  0  0  0  0  0  0  0  0  0
  1 26  1  6  0  0  0
  2  3  1  0  0  0  0
  2  5  1  1  0  0  0
  4  1  1  6  0  0  0
  4  2  1  0  0  0  0
  4  3  1  0  0  0  0
  5  6  2  0  0  0  0
  7  5  1  0  0  0  0
  7  8  1  0  0  0  0
  9 13  1  0  0  0  0
 10 12  2  0  0  0  0
 12  9  1  0  0  0  0
 12 16  1  0  0  0  0
 13 15  1  1  0  0  0
 13  8  1  0  0  0  0
 13 11  1  0  0  0  0
 16 14  1  6  0  0  0
 16 11  1  0  0  0  0
 17  1  1  0  0  0  0
 17 18  1  1  0  0  0
 17 22  1  0  0  0  0
 19 25  1  6  0  0  0
 20 21  2  0  0  0  0
 20 19  1  0  0  0  0
 22 23  2  0  0  0  0
 23 19  1  0  0  0  0
 24 22  1  0  0  0  0
 24 20  1  0  0  0  0
 27 32  1  1  0  0  0
 27 29  1  0  0  0  0
 29 28  1  0  0  0  0
 30 27  1  0  0  0  0
 30 31  1  0  0  0  0
 31 26  1  1  0  0  0
 31 28  1  0  0  0  0
 33 36  1  0  0  0  0
 33 32  1  0  0  0  0
 34 36  2  0  0  0  0
 36 35  1  0  0  0  0
M  END
>  <MODEL>
8

>  <REMARK>
 VINA RESULT:      -6.4      2.244      5.073
  Name = 
  12 active torsions:
  status: ('A' for Active; 'I' for Inactive)
    1  A    between atoms: C_1  and  C_12
    2  A    between atoms: C_1  and  N_17
    3  A    between atoms: C_1  and  C_21
    4  A    between atoms: C_5  and  C_9
    5  A    between atoms: C_5  and  C_29
    6  A    between atoms: C_6  and  N_16
    7  A    between atoms: C_12  and  C_15
    8  A    between atoms: N_16  and  C_35
    9  A    between atoms: N_17  and  C_28
   10  A    between atoms: C_23  and  C_35
   11  A    between atoms: C_24  and  C_26
   12  A    between atoms: C_26  and  C_29
                            x       y       z     vdW  Elec       q    Type
                         _______ _______ _______ _____ _____    ______ ____

>  <TORSDO>
F 12

$$$$
=
 OpenBabel11042414003D

 36 39  0  0  1  0  0  0  0  0999 V2000
  190.8990  173.6770  143.8290 C   0  0  2  0  0  3  0  0  0  0  0  0
  190.1860  175.7600  144.9410 C   0  0  2  0  0  3  0  0  0  0  0  0
  189.1760  175.3210  144.0660 O   0  0  0  0  0  0  0  0  0  0  0  0
  189.8760  174.3190  144.7610 C   0  0  1  0  0  3  0  0  0  0  0  0
  189.5540  176.3390  146.1760 C   0  0  0  0  0  0  0  0  0  0  0  0
  190.1770  177.0800  146.9240 O   0  0  0  0  0  0  0  0  0  0  0  0
  188.1170  176.0490  146.4500 C   0  0  0  0  0  2  0  0  0  0  0  0
  187.3590  177.3460  146.7030 C   0  0  0  0  0  2  0  0  0  0  0  0
  186.0810  176.6120  144.7710 N   0  0  0  0  0  2  0  0  0  0  0  0
  185.6730  177.0580  142.5100 O   0  0  0  0  0  0  0  0  0  0  0  0
  185.5850  178.7930  145.6310 C   0  0  0  0  0  2  0  0  0  0  0  0
  185.6850  177.4490  143.7070 C   0  0  0  0  0  0  0  0  0  0  0  0
  185.9990  177.3610  146.0120 C   0  0  2  0  0  0  0  0  0  0  0  0
  183.8310  179.0420  143.8910 C   0  0  0  0  0  1  0  0  0  0  0  0
  185.0280  176.7880  146.8340 O   0  0  0  0  0  1  0  0  0  0  0  0
  185.3110  178.8130  144.1280 C   0  0  1  0  0  3  0  0  0  0  0  0
  190.2910  172.5770  142.9490 C   0  0  1  0  0  3  0  0  0  0  0  0
  189.0340  171.9580  143.5500 C   0  0  0  0  0  1  0  0  0  0  0  0
  190.4250  173.4050  139.3460 C   0  0  1  0  0  3  0  0  0  0  0  0
  189.0520  173.8000  139.7410 C   0  0  0  0  0  0  0  0  0  0  0  0
  188.1890  174.2910  138.9680 O   0  0  0  0  0  0  0  0  0  0  0  0
  190.0680  173.0470  141.5460 C   0  0  0  0  0  0  0  0  0  0  0  0
  190.9600  172.9250  140.6110 N   0  0  0  0  0  0  0  0  0  0  0  0
  188.8170  173.5710  141.1180 N   0  0  0  0  0  2  0  0  0  0  0  0
  190.3730  172.2600  138.3510 C   0  0  0  0  0  1  0  0  0  0  0  0
  192.0100  173.1450  144.6070 N   0  0  0  0  0  2  0  0  0  0  0  0
  195.7190  174.1970  143.8570 C   0  0  2  0  0  3  0  0  0  0  0  0
  193.2560  174.8770  142.9800 S   0  0  0  0  0  0  0  0  0  0  0  0
  194.9950  174.5940  142.5870 C   0  0  0  0  0  2  0  0  0  0  0  0
  194.6790  173.0690  144.8470 S   0  0  0  0  0  0  0  0  0  0  0  0
  193.2100  173.2590  143.7930 C   0  0  1  0  0  3  0  0  0  0  0  0
  196.0270  175.3870  144.6340 N   0  0  0  0  0  2  0  0  0  0  0  0
  195.3170  175.2770  145.8990 C   0  0  0  0  0  2  0  0  0  0  0  0
  194.9300  177.6180  145.6990 O   0  0  0  0  0  0  0  0  0  0  0  0
  193.3670  176.4550  146.9070 O   0  0  0  0  0  1  0  0  0  0  0  0
  194.5260  176.5130  146.1450 C   0  0  0  0  0  0  0  0  0  0  0  0
  1 26  1  1  0  0  0
  2  5  1  1  0  0  0
  3  4  1  0  0  0  0
  3  2  1  0  0  0  0
  4  1  1  6  0  0  0
  4  2  1  0  0  0  0
  5  7  1  0  0  0  0
  5  6  2  0  0  0  0
  7  8  1  0  0  0  0
  9 13  1  0  0  0  0
 10 12  2  0  0  0  0
 11 13  1  0  0  0  0
 12 16  1  0  0  0  0
 12  9  1  0  0  0  0
 13  8  1  0  0  0  0
 13 15  1  1  0  0  0
 16 14  1  1  0  0  0
 16 11  1  0  0  0  0
 17 18  1  1  0  0  0
 17  1  1  0  0  0  0
 19 25  1  6  0  0  0
 19 20  1  0  0  0  0
 19 23  1  0  0  0  0
 20 24  1  0  0  0  0
 21 20  2  0  0  0  0
 22 17  1  0  0  0  0
 23 22  2  0  0  0  0
 24 22  1  0  0  0  0
 27 32  1  1  0  0  0
 27 30  1  0  0  0  0
 28 31  1  0  0  0  0
 29 28  1  0  0  0  0
 29 27  1  0  0  0  0
 31 26  1  1  0  0  0
 31 30  1  0  0  0  0
 32 33  1  0  0  0  0
 33 36  1  0  0  0  0
 34 36  2  0  0  0  0
 36 35  1  0  0  0  0
M  END
>  <MODEL>
9

>  <REMARK>
 VINA RESULT:      -6.3      2.628      4.784
  Name = 
  12 active torsions:
  status: ('A' for Active; 'I' for Inactive)
    1  A    between atoms: C_1  and  C_12
    2  A    between atoms: C_1  and  N_17
    3  A    between atoms: C_1  and  C_21
    4  A    between atoms: C_5  and  C_9
    5  A    between atoms: C_5  and  C_29
    6  A    between atoms: C_6  and  N_16
    7  A    between atoms: C_12  and  C_15
    8  A    between atoms: N_16  and  C_35
    9  A    between atoms: N_17  and  C_28
   10  A    between atoms: C_23  and  C_35
   11  A    between atoms: C_24  and  C_26
   12  A    between atoms: C_26  and  C_29
                            x       y       z     vdW  Elec       q    Type
                         _______ _______ _______ _____ _____    ______ ____

>  <TORSDO>
F 12

$$$$
