=
 OpenBabel11042417213D

 26 27  0  0  1  0  0  0  0  0999 V2000
  189.2350  177.0110  143.6170 C   0  0  0  0  0  0  0  0  0  0  0  0
  188.8390  174.8300  142.6850 N   0  0  0  0  0  0  0  0  0  0  0  0
  189.8330  177.8020  144.6020 C   0  0  0  0  0  3  0  0  0  0  0  0
  190.1770  175.0200  144.6720 C   0  0  0  0  0  0  0  0  0  0  0  0
  190.3330  173.6270  144.6730 C   0  0  0  0  0  3  0  0  0  0  0  0
  190.5920  177.2160  145.6150 C   0  0  0  0  0  3  0  0  0  0  0  0
  189.4070  175.6150  143.6440 C   0  0  0  0  0  0  0  0  0  0  0  0
  190.7680  175.8260  145.6650 C   0  0  0  0  0  0  0  0  0  0  0  0
  189.7390  172.8530  143.6770 C   0  0  0  0  0  3  0  0  0  0  0  0
  188.9870  173.4790  142.6810 C   0  0  0  0  0  0  0  0  0  0  0  0
  188.3480  172.6670  141.6150 C   0  0  0  0  0  1  0  0  0  0  0  0
  190.9580  175.3560  147.9920 O   0  0  0  0  0  1  0  0  0  0  0  0
  191.6010  175.2220  146.7600 C   0  0  2  0  0  3  0  0  0  0  0  0
  192.9710  175.8760  146.8100 C   0  0  0  0  0  2  0  0  0  0  0  0
  193.8830  175.1210  146.0670 O   0  0  0  0  0  0  0  0  0  0  0  0
  193.5760  176.3620  143.6010 O   0  0  0  0  0  0  0  0  0  0  0  0
  194.7550  177.5590  145.6110 O   0  0  0  0  0  1  0  0  0  0  0  0
  194.5720  176.2070  144.9600 P   0  0  0  0  0  0  0  0  0  0  0  0
  196.0800  175.6160  144.4770 O   0  0  0  0  0  1  0  0  0  0  0  0
  188.4440  177.6750  142.5380 C   0  0  0  0  0  2  0  0  0  0  0  0
  187.1370  178.1450  143.0750 C   0  0  0  0  0  3  0  0  0  0  0  0
  186.2330  177.2650  143.4750 C   0  0  0  0  0  3  0  0  0  0  0  0
  184.9800  177.7160  143.9900 N   0  0  0  0  0  2  0  0  0  0  0  0
  184.7130  177.8660  145.3880 C   0  0  0  0  0  0  0  0  0  0  0  0
  183.9760  178.8680  145.8530 C   0  0  0  0  0  2  0  0  0  0  0  0
  185.2740  176.8760  146.3440 C   0  0  0  0  0  1  0  0  0  0  0  0
  1  7  2  0  0  0  0
  1  3  1  0  0  0  0
  2  7  1  0  0  0  0
  3  6  2  0  0  0  0
  4  5  1  0  0  0  0
  4  8  2  0  0  0  0
  6  8  1  0  0  0  0
  7  4  1  0  0  0  0
  8 13  1  0  0  0  0
  9  5  2  0  0  0  0
 10  2  2  0  0  0  0
 10  9  1  0  0  0  0
 11 10  1  0  0  0  0
 13 14  1  0  0  0  0
 13 12  1  1  0  0  0
 15 14  1  0  0  0  0
 16 18  2  0  0  0  0
 18 17  1  0  0  0  0
 18 15  1  0  0  0  0
 19 18  1  0  0  0  0
 20 21  1  0  0  0  0
 20  1  1  0  0  0  0
 21 22  2  0  0  0  0
 22 23  1  0  0  0  0
 23 24  1  0  0  0  0
 24 25  2  0  0  0  0
 24 26  1  0  0  0  0
M  END
>  <MODEL>
1

>  <REMARK>
 VINA RESULT:      -6.2      0.000      0.000
  Name = 
  8 active torsions:
  status: ('A' for Active; 'I' for Inactive)
    1  A    between atoms: C_1  and  C_13
    2  A    between atoms: N_4  and  C_7
    3  A    between atoms: N_4  and  C_17
    4  A    between atoms: C_8  and  C_13
    5  A    between atoms: O_9  and  C_11
    6  A    between atoms: O_9  and  P_23
    7  A    between atoms: C_11  and  C_20
    8  A    between atoms: C_19  and  C_20
                            x       y       z     vdW  Elec       q    Type
                         _______ _______ _______ _____ _____    ______ ____

>  <TORSDO>
F 8

$$$$
=
 OpenBabel11042417213D

 26 27  0  0  1  0  0  0  0  0999 V2000
  190.3130  174.8640  146.6950 C   0  0  0  0  0  0  0  0  0  0  0  0
  189.7610  173.4540  144.8280 N   0  0  0  0  0  0  0  0  0  0  0  0
  191.2630  175.6280  147.3800 C   0  0  0  0  0  3  0  0  0  0  0  0
  192.0050  174.2890  145.0300 C   0  0  0  0  0  0  0  0  0  0  0  0
  192.3400  173.6120  143.8490 C   0  0  0  0  0  3  0  0  0  0  0  0
  192.5710  175.7220  146.9040 C   0  0  0  0  0  3  0  0  0  0  0  0
  190.6770  174.1940  145.5130 C   0  0  0  0  0  0  0  0  0  0  0  0
  192.9570  175.0540  145.7330 C   0  0  0  0  0  0  0  0  0  0  0  0
  191.3770  172.8640  143.1720 C   0  0  0  0  0  3  0  0  0  0  0  0
  190.0800  172.7950  143.6820 C   0  0  0  0  0  0  0  0  0  0  0  0
  189.0460  172.0010  142.9710 C   0  0  0  0  0  1  0  0  0  0  0  0
  195.2670  175.1490  146.3050 O   0  0  0  0  0  1  0  0  0  0  0  0
  194.3690  175.1830  145.2360 C   0  0  2  0  0  3  0  0  0  0  0  0
  194.5400  176.4690  144.4470 C   0  0  0  0  0  2  0  0  0  0  0  0
  194.5330  176.1900  143.0780 O   0  0  0  0  0  0  0  0  0  0  0  0
  196.3000  176.7240  141.0030 O   0  0  0  0  0  0  0  0  0  0  0  0
  196.9520  177.1290  143.5070 O   0  0  0  0  0  1  0  0  0  0  0  0
  196.1630  176.2050  142.6070 P   0  0  0  0  0  0  0  0  0  0  0  0
  196.7880  174.6390  142.7370 O   0  0  0  0  0  1  0  0  0  0  0  0
  188.9180  174.8010  147.2250 C   0  0  0  0  0  2  0  0  0  0  0  0
  188.2440  176.1170  147.0530 C   0  0  0  0  0  3  0  0  0  0  0  0
  187.7310  176.4490  145.8780 C   0  0  0  0  0  3  0  0  0  0  0  0
  187.0860  177.7110  145.7130 N   0  0  0  0  0  2  0  0  0  0  0  0
  185.9030  178.0880  146.4260 C   0  0  0  0  0  0  0  0  0  0  0  0
  184.7310  177.5130  146.1830 C   0  0  0  0  0  2  0  0  0  0  0  0
  185.9880  179.1470  147.4650 C   0  0  0  0  0  1  0  0  0  0  0  0
  1 20  1  0  0  0  0
  1  3  1  0  0  0  0
  2  7  1  0  0  0  0
  4  7  1  0  0  0  0
  4  8  2  0  0  0  0
  5  4  1  0  0  0  0
  6  3  2  0  0  0  0
  7  1  2  0  0  0  0
  8  6  1  0  0  0  0
  9 10  1  0  0  0  0
  9  5  2  0  0  0  0
 10  2  2  0  0  0  0
 11 10  1  0  0  0  0
 13  8  1  0  0  0  0
 13 12  1  1  0  0  0
 14 13  1  0  0  0  0
 15 14  1  0  0  0  0
 16 18  2  0  0  0  0
 18 19  1  0  0  0  0
 18 15  1  0  0  0  0
 18 17  1  0  0  0  0
 21 20  1  0  0  0  0
 22 21  2  0  0  0  0
 23 22  1  0  0  0  0
 23 24  1  0  0  0  0
 24 26  1  0  0  0  0
 25 24  2  0  0  0  0
M  END
>  <MODEL>
2

>  <REMARK>
 VINA RESULT:      -6.0      2.276      3.043
  Name = 
  8 active torsions:
  status: ('A' for Active; 'I' for Inactive)
    1  A    between atoms: C_1  and  C_13
    2  A    between atoms: N_4  and  C_7
    3  A    between atoms: N_4  and  C_17
    4  A    between atoms: C_8  and  C_13
    5  A    between atoms: O_9  and  C_11
    6  A    between atoms: O_9  and  P_23
    7  A    between atoms: C_11  and  C_20
    8  A    between atoms: C_19  and  C_20
                            x       y       z     vdW  Elec       q    Type
                         _______ _______ _______ _____ _____    ______ ____

>  <TORSDO>
F 8

$$$$
=
 OpenBabel11042417213D

 26 27  0  0  1  0  0  0  0  0999 V2000
  188.2870  177.9130  143.7070 C   0  0  0  0  0  0  0  0  0  0  0  0
  186.2600  178.0700  144.9910 N   0  0  0  0  0  0  0  0  0  0  0  0
  189.6360  177.5560  143.6370 C   0  0  0  0  0  3  0  0  0  0  0  0
  188.2410  177.2090  146.0440 C   0  0  0  0  0  0  0  0  0  0  0  0
  187.5110  177.0430  147.2300 C   0  0  0  0  0  3  0  0  0  0  0  0
  190.2880  177.0360  144.7550 C   0  0  0  0  0  3  0  0  0  0  0  0
  187.5800  177.7370  144.9100 C   0  0  0  0  0  0  0  0  0  0  0  0
  189.6040  176.8610  145.9670 C   0  0  0  0  0  0  0  0  0  0  0  0
  186.1620  177.3940  147.2790 C   0  0  0  0  0  3  0  0  0  0  0  0
  185.5480  177.9120  146.1380 C   0  0  0  0  0  0  0  0  0  0  0  0
  184.1120  178.2900  146.1770 C   0  0  0  0  0  1  0  0  0  0  0  0
  190.8330  177.3080  147.9570 O   0  0  0  0  0  1  0  0  0  0  0  0
  190.3270  176.2860  147.1510 C   0  0  2  0  0  3  0  0  0  0  0  0
  191.4510  175.3710  146.6970 C   0  0  0  0  0  2  0  0  0  0  0  0
  192.6780  175.8730  147.1380 O   0  0  0  0  0  0  0  0  0  0  0  0
  195.2380  175.1050  146.3810 O   0  0  0  0  0  1  0  0  0  0  0  0
  193.1620  174.6940  144.8380 O   0  0  0  0  0  0  0  0  0  0  0  0
  193.7430  175.6750  145.8330 P   0  0  0  0  0  0  0  0  0  0  0  0
  193.9650  177.1680  145.0720 O   0  0  0  0  0  1  0  0  0  0  0  0
  187.6180  178.4510  142.4840 C   0  0  0  0  0  2  0  0  0  0  0  0
  187.9130  177.5810  141.3130 C   0  0  0  0  0  3  0  0  0  0  0  0
  187.5220  176.3170  141.3130 C   0  0  0  0  0  3  0  0  0  0  0  0
  187.8060  175.4820  140.1910 N   0  0  0  0  0  2  0  0  0  0  0  0
  188.6160  174.3040  140.2730 C   0  0  0  0  0  0  0  0  0  0  0  0
  188.5350  173.3390  139.3650 C   0  0  0  0  0  2  0  0  0  0  0  0
  189.5710  174.1580  141.4020 C   0  0  0  0  0  1  0  0  0  0  0  0
  1  7  1  0  0  0  0
  2 10  1  0  0  0  0
  3  1  2  0  0  0  0
  3  6  1  0  0  0  0
  4  5  2  0  0  0  0
  5  9  1  0  0  0  0
  6  8  2  0  0  0  0
  7  2  2  0  0  0  0
  7  4  1  0  0  0  0
  8  4  1  0  0  0  0
  8 13  1  0  0  0  0
 10 11  1  0  0  0  0
 10  9  2  0  0  0  0
 13 12  1  6  0  0  0
 14 15  1  0  0  0  0
 14 13  1  0  0  0  0
 17 18  2  0  0  0  0
 18 16  1  0  0  0  0
 18 15  1  0  0  0  0
 19 18  1  0  0  0  0
 20  1  1  0  0  0  0
 21 20  1  0  0  0  0
 22 21  2  0  0  0  0
 23 24  1  0  0  0  0
 23 22  1  0  0  0  0
 24 26  1  0  0  0  0
 25 24  2  0  0  0  0
M  END
>  <MODEL>
3

>  <REMARK>
 VINA RESULT:      -6.0      1.657      4.461
  Name = 
  8 active torsions:
  status: ('A' for Active; 'I' for Inactive)
    1  A    between atoms: C_1  and  C_13
    2  A    between atoms: N_4  and  C_7
    3  A    between atoms: N_4  and  C_17
    4  A    between atoms: C_8  and  C_13
    5  A    between atoms: O_9  and  C_11
    6  A    between atoms: O_9  and  P_23
    7  A    between atoms: C_11  and  C_20
    8  A    between atoms: C_19  and  C_20
                            x       y       z     vdW  Elec       q    Type
                         _______ _______ _______ _____ _____    ______ ____

>  <TORSDO>
F 8

$$$$
=
 OpenBabel11042417213D

 26 27  0  0  1  0  0  0  0  0999 V2000
  189.8120  175.8900  145.4790 C   0  0  0  0  0  0  0  0  0  0  0  0
  189.7990  173.7860  144.3160 N   0  0  0  0  0  0  0  0  0  0  0  0
  189.4720  177.2460  145.5060 C   0  0  0  0  0  3  0  0  0  0  0  0
  188.8230  175.7070  143.2530 C   0  0  0  0  0  0  0  0  0  0  0  0
  188.5090  174.9070  142.1460 C   0  0  0  0  0  3  0  0  0  0  0  0
  188.8210  177.8330  144.4210 C   0  0  0  0  0  3  0  0  0  0  0  0
  189.4850  175.1120  144.3540 C   0  0  0  0  0  0  0  0  0  0  0  0
  188.4940  177.0770  143.2860 C   0  0  0  0  0  0  0  0  0  0  0  0
  188.8450  173.5540  142.1400 C   0  0  0  0  0  3  0  0  0  0  0  0
  189.4970  173.0060  143.2450 C   0  0  0  0  0  0  0  0  0  0  0  0
  189.8610  171.5650  143.2510 C   0  0  0  0  0  1  0  0  0  0  0  0
  188.6620  178.5320  141.4080 O   0  0  0  0  0  1  0  0  0  0  0  0
  187.7810  177.7320  142.1380 C   0  0  2  0  0  3  0  0  0  0  0  0
  186.6120  178.5620  142.6400 C   0  0  0  0  0  2  0  0  0  0  0  0
  185.6020  177.7210  143.1120 O   0  0  0  0  0  0  0  0  0  0  0  0
  184.7620  177.5630  145.7550 O   0  0  0  0  0  1  0  0  0  0  0  0
  185.6940  179.7870  144.7350 O   0  0  0  0  0  1  0  0  0  0  0  0
  184.8770  178.5610  144.3950 P   0  0  0  0  0  0  0  0  0  0  0  0
  183.3240  179.0430  143.9300 O   0  0  0  0  0  0  0  0  0  0  0  0
  190.4940  175.2920  146.6660 C   0  0  0  0  0  2  0  0  0  0  0  0
  191.8780  175.8250  146.7840 C   0  0  0  0  0  3  0  0  0  0  0  0
  192.9060  175.0880  146.3940 C   0  0  0  0  0  3  0  0  0  0  0  0
  194.2340  175.5990  146.5080 N   0  0  0  0  0  2  0  0  0  0  0  0
  195.2800  175.2800  145.5840 C   0  0  0  0  0  0  0  0  0  0  0  0
  196.0700  174.2270  145.7620 C   0  0  0  0  0  2  0  0  0  0  0  0
  195.4880  176.1480  144.3950 C   0  0  0  0  0  1  0  0  0  0  0  0
  1  3  1  0  0  0  0
  1 20  1  0  0  0  0
  2  7  1  0  0  0  0
  4  8  2  0  0  0  0
  4  7  1  0  0  0  0
  5  4  1  0  0  0  0
  6  3  2  0  0  0  0
  7  1  2  0  0  0  0
  8  6  1  0  0  0  0
  9  5  2  0  0  0  0
  9 10  1  0  0  0  0
 10 11  1  0  0  0  0
 10  2  2  0  0  0  0
 13 12  1  1  0  0  0
 13 14  1  0  0  0  0
 13  8  1  0  0  0  0
 14 15  1  0  0  0  0
 15 18  1  0  0  0  0
 18 17  1  0  0  0  0
 18 16  1  0  0  0  0
 19 18  2  0  0  0  0
 20 21  1  0  0  0  0
 22 23  1  0  0  0  0
 22 21  2  0  0  0  0
 24 25  2  0  0  0  0
 24 23  1  0  0  0  0
 26 24  1  0  0  0  0
M  END
>  <MODEL>
4

>  <REMARK>
 VINA RESULT:      -5.9      4.305      7.257
  Name = 
  8 active torsions:
  status: ('A' for Active; 'I' for Inactive)
    1  A    between atoms: C_1  and  C_13
    2  A    between atoms: N_4  and  C_7
    3  A    between atoms: N_4  and  C_17
    4  A    between atoms: C_8  and  C_13
    5  A    between atoms: O_9  and  C_11
    6  A    between atoms: O_9  and  P_23
    7  A    between atoms: C_11  and  C_20
    8  A    between atoms: C_19  and  C_20
                            x       y       z     vdW  Elec       q    Type
                         _______ _______ _______ _____ _____    ______ ____

>  <TORSDO>
F 8

$$$$
=
 OpenBabel11042417213D

 26 27  0  0  1  0  0  0  0  0999 V2000
  190.4820  176.6450  142.7700 C   0  0  0  0  0  0  0  0  0  0  0  0
  190.2530  174.2560  142.6270 N   0  0  0  0  0  0  0  0  0  0  0  0
  189.9070  177.9130  142.6470 C   0  0  0  0  0  3  0  0  0  0  0  0
  188.3610  175.6390  142.1000 C   0  0  0  0  0  0  0  0  0  0  0  0
  187.6150  174.4810  141.8400 C   0  0  0  0  0  3  0  0  0  0  0  0
  188.5770  178.0500  142.2510 C   0  0  0  0  0  3  0  0  0  0  0  0
  189.7110  175.5000  142.5020 C   0  0  0  0  0  0  0  0  0  0  0  0
  187.7930  176.9220  141.9700 C   0  0  0  0  0  0  0  0  0  0  0  0
  188.2010  173.2230  141.9780 C   0  0  0  0  0  3  0  0  0  0  0  0
  189.5350  173.1290  142.3760 C   0  0  0  0  0  0  0  0  0  0  0  0
  190.1710  171.7960  142.5260 C   0  0  0  0  0  1  0  0  0  0  0  0
  186.2800  177.4770  140.2160 O   0  0  0  0  0  1  0  0  0  0  0  0
  186.3590  177.0980  141.5580 C   0  0  2  0  0  3  0  0  0  0  0  0
  185.6760  178.1330  142.4360 C   0  0  0  0  0  2  0  0  0  0  0  0
  185.1460  177.5140  143.5710 O   0  0  0  0  0  0  0  0  0  0  0  0
  183.9880  178.6200  145.8410 O   0  0  0  0  0  1  0  0  0  0  0  0
  186.5790  178.2950  145.6330 O   0  0  0  0  0  1  0  0  0  0  0  0
  185.3440  178.6350  144.8290 P   0  0  0  0  0  0  0  0  0  0  0  0
  185.5220  180.1800  144.1660 O   0  0  0  0  0  0  0  0  0  0  0  0
  191.9050  176.5360  143.2130 C   0  0  0  0  0  2  0  0  0  0  0  0
  191.9870  176.6150  144.6980 C   0  0  0  0  0  3  0  0  0  0  0  0
  192.3820  175.5610  145.3950 C   0  0  0  0  0  3  0  0  0  0  0  0
  192.4600  175.6360  146.8180 N   0  0  0  0  0  2  0  0  0  0  0  0
  191.3370  175.9450  147.6500 C   0  0  0  0  0  0  0  0  0  0  0  0
  190.2270  175.2160  147.6210 C   0  0  0  0  0  2  0  0  0  0  0  0
  191.4140  177.1100  148.5700 C   0  0  0  0  0  1  0  0  0  0  0  0
  1 20  1  0  0  0  0
  3  1  1  0  0  0  0
  4  7  1  0  0  0  0
  5  9  2  0  0  0  0
  5  4  1  0  0  0  0
  6  3  2  0  0  0  0
  7  2  1  0  0  0  0
  7  1  2  0  0  0  0
  8  4  2  0  0  0  0
  8  6  1  0  0  0  0
  9 10  1  0  0  0  0
 10 11  1  0  0  0  0
 10  2  2  0  0  0  0
 13 12  1  6  0  0  0
 13  8  1  0  0  0  0
 13 14  1  0  0  0  0
 14 15  1  0  0  0  0
 15 18  1  0  0  0  0
 18 17  1  0  0  0  0
 18 16  1  0  0  0  0
 19 18  2  0  0  0  0
 20 21  1  0  0  0  0
 21 22  2  0  0  0  0
 22 23  1  0  0  0  0
 23 24  1  0  0  0  0
 24 26  1  0  0  0  0
 25 24  2  0  0  0  0
M  END
>  <MODEL>
5

>  <REMARK>
 VINA RESULT:      -5.9      4.528      6.494
  Name = 
  8 active torsions:
  status: ('A' for Active; 'I' for Inactive)
    1  A    between atoms: C_1  and  C_13
    2  A    between atoms: N_4  and  C_7
    3  A    between atoms: N_4  and  C_17
    4  A    between atoms: C_8  and  C_13
    5  A    between atoms: O_9  and  C_11
    6  A    between atoms: O_9  and  P_23
    7  A    between atoms: C_11  and  C_20
    8  A    between atoms: C_19  and  C_20
                            x       y       z     vdW  Elec       q    Type
                         _______ _______ _______ _____ _____    ______ ____

>  <TORSDO>
F 8

$$$$
=
 OpenBabel11042417213D

 26 27  0  0  1  0  0  0  0  0999 V2000
  187.8440  177.4200  143.4330 C   0  0  0  0  0  0  0  0  0  0  0  0
  188.4180  175.7130  141.8410 N   0  0  0  0  0  0  0  0  0  0  0  0
  187.8630  177.8830  144.7520 C   0  0  0  0  0  3  0  0  0  0  0  0
  189.0010  175.3920  144.1500 C   0  0  0  0  0  0  0  0  0  0  0  0
  189.5660  174.1550  143.8130 C   0  0  0  0  0  3  0  0  0  0  0  0
  188.4370  177.1140  145.7640 C   0  0  0  0  0  3  0  0  0  0  0  0
  188.4180  176.1740  143.1240 C   0  0  0  0  0  0  0  0  0  0  0  0
  189.0060  175.8640  145.4780 C   0  0  0  0  0  0  0  0  0  0  0  0
  189.5490  173.7120  142.4900 C   0  0  0  0  0  3  0  0  0  0  0  0
  188.9640  174.5130  141.5080 C   0  0  0  0  0  0  0  0  0  0  0  0
  188.9390  174.0540  140.0960 C   0  0  0  0  0  1  0  0  0  0  0  0
  188.6870  174.7850  147.5770 O   0  0  0  0  0  1  0  0  0  0  0  0
  189.6290  175.0620  146.5840 C   0  0  2  0  0  3  0  0  0  0  0  0
  190.8140  175.8040  147.1780 C   0  0  0  0  0  2  0  0  0  0  0  0
  191.9230  174.9550  147.2380 O   0  0  0  0  0  0  0  0  0  0  0  0
  194.4930  175.7850  146.5890 O   0  0  0  0  0  1  0  0  0  0  0  0
  193.0330  174.3880  144.9230 O   0  0  0  0  0  0  0  0  0  0  0  0
  192.9470  175.4620  145.9840 P   0  0  0  0  0  0  0  0  0  0  0  0
  192.3170  176.8720  145.2950 O   0  0  0  0  0  1  0  0  0  0  0  0
  187.2360  178.2800  142.3740 C   0  0  0  0  0  2  0  0  0  0  0  0
  185.8360  178.6290  142.7390 C   0  0  0  0  0  3  0  0  0  0  0  0
  184.8260  177.9660  142.1970 C   0  0  0  0  0  3  0  0  0  0  0  0
  183.4830  178.3020  142.5470 N   0  0  0  0  0  2  0  0  0  0  0  0
  182.4100  178.3360  141.6000 C   0  0  0  0  0  0  0  0  0  0  0  0
  181.2110  178.8060  141.9230 C   0  0  0  0  0  2  0  0  0  0  0  0
  182.6430  177.8330  140.2210 C   0  0  0  0  0  1  0  0  0  0  0  0
  1  3  1  0  0  0  0
  2  7  1  0  0  0  0
  3  6  2  0  0  0  0
  4  8  2  0  0  0  0
  5  4  1  0  0  0  0
  7  1  2  0  0  0  0
  7  4  1  0  0  0  0
  8  6  1  0  0  0  0
  8 13  1  0  0  0  0
  9  5  2  0  0  0  0
 10  2  2  0  0  0  0
 10  9  1  0  0  0  0
 11 10  1  0  0  0  0
 13 14  1  0  0  0  0
 13 12  1  1  0  0  0
 14 15  1  0  0  0  0
 17 18  2  0  0  0  0
 18 16  1  0  0  0  0
 18 15  1  0  0  0  0
 19 18  1  0  0  0  0
 20 21  1  0  0  0  0
 20  1  1  0  0  0  0
 22 23  1  0  0  0  0
 22 21  2  0  0  0  0
 24 25  2  0  0  0  0
 24 23  1  0  0  0  0
 26 24  1  0  0  0  0
M  END
>  <MODEL>
6

>  <REMARK>
 VINA RESULT:      -5.9      2.193      2.735
  Name = 
  8 active torsions:
  status: ('A' for Active; 'I' for Inactive)
    1  A    between atoms: C_1  and  C_13
    2  A    between atoms: N_4  and  C_7
    3  A    between atoms: N_4  and  C_17
    4  A    between atoms: C_8  and  C_13
    5  A    between atoms: O_9  and  C_11
    6  A    between atoms: O_9  and  P_23
    7  A    between atoms: C_11  and  C_20
    8  A    between atoms: C_19  and  C_20
                            x       y       z     vdW  Elec       q    Type
                         _______ _______ _______ _____ _____    ______ ____

>  <TORSDO>
F 8

$$$$
=
 OpenBabel11042417213D

 26 27  0  0  1  0  0  0  0  0999 V2000
  189.2840  177.2480  142.8070 C   0  0  0  0  0  0  0  0  0  0  0  0
  188.7380  174.9360  142.4380 N   0  0  0  0  0  0  0  0  0  0  0  0
  190.0930  178.2030  143.4280 C   0  0  0  0  0  3  0  0  0  0  0  0
  190.5500  175.4800  143.9190 C   0  0  0  0  0  0  0  0  0  0  0  0
  190.7540  174.1110  144.1370 C   0  0  0  0  0  3  0  0  0  0  0  0
  191.1170  177.8090  144.2910 C   0  0  0  0  0  3  0  0  0  0  0  0
  189.5110  175.8800  143.0450 C   0  0  0  0  0  0  0  0  0  0  0  0
  191.3540  176.4520  144.5490 C   0  0  0  0  0  0  0  0  0  0  0  0
  189.9450  173.1700  143.5000 C   0  0  0  0  0  3  0  0  0  0  0  0
  188.9310  173.6060  142.6460 C   0  0  0  0  0  0  0  0  0  0  0  0
  188.0620  172.6150  141.9610 C   0  0  0  0  0  1  0  0  0  0  0  0
  192.1300  176.3280  146.7970 O   0  0  0  0  0  1  0  0  0  0  0  0
  192.4710  176.0550  145.4710 C   0  0  2  0  0  3  0  0  0  0  0  0
  193.7520  176.7810  145.0990 C   0  0  0  0  0  2  0  0  0  0  0  0
  194.8530  176.0980  145.6220 O   0  0  0  0  0  0  0  0  0  0  0  0
  194.8140  174.8070  143.1630 O   0  0  0  0  0  0  0  0  0  0  0  0
  196.3760  176.8590  143.6180 O   0  0  0  0  0  1  0  0  0  0  0  0
  195.7790  175.6360  144.2780 P   0  0  0  0  0  0  0  0  0  0  0  0
  197.0280  174.6200  144.7920 O   0  0  0  0  0  1  0  0  0  0  0  0
  188.2090  177.7070  141.8760 C   0  0  0  0  0  2  0  0  0  0  0  0
  187.0560  178.2420  142.6510 C   0  0  0  0  0  3  0  0  0  0  0  0
  186.0920  177.4280  143.0500 C   0  0  0  0  0  3  0  0  0  0  0  0
  184.9860  177.9430  143.7920 N   0  0  0  0  0  2  0  0  0  0  0  0
  184.8940  177.8660  145.2190 C   0  0  0  0  0  0  0  0  0  0  0  0
  184.1190  178.6920  145.9120 C   0  0  0  0  0  2  0  0  0  0  0  0
  185.6850  176.8370  145.9430 C   0  0  0  0  0  1  0  0  0  0  0  0
  1  7  2  0  0  0  0
  1  3  1  0  0  0  0
  2 10  2  0  0  0  0
  2  7  1  0  0  0  0
  3  6  2  0  0  0  0
  4  5  1  0  0  0  0
  4  8  2  0  0  0  0
  6  8  1  0  0  0  0
  7  4  1  0  0  0  0
  8 13  1  0  0  0  0
  9  5  2  0  0  0  0
 10  9  1  0  0  0  0
 11 10  1  0  0  0  0
 13 12  1  1  0  0  0
 14 13  1  0  0  0  0
 14 15  1  0  0  0  0
 16 18  2  0  0  0  0
 17 18  1  0  0  0  0
 18 19  1  0  0  0  0
 18 15  1  0  0  0  0
 20 21  1  0  0  0  0
 20  1  1  0  0  0  0
 21 22  2  0  0  0  0
 22 23  1  0  0  0  0
 23 24  1  0  0  0  0
 24 25  2  0  0  0  0
 24 26  1  0  0  0  0
M  END
>  <MODEL>
7

>  <REMARK>
 VINA RESULT:      -5.9      1.125      1.232
  Name = 
  8 active torsions:
  status: ('A' for Active; 'I' for Inactive)
    1  A    between atoms: C_1  and  C_13
    2  A    between atoms: N_4  and  C_7
    3  A    between atoms: N_4  and  C_17
    4  A    between atoms: C_8  and  C_13
    5  A    between atoms: O_9  and  C_11
    6  A    between atoms: O_9  and  P_23
    7  A    between atoms: C_11  and  C_20
    8  A    between atoms: C_19  and  C_20
                            x       y       z     vdW  Elec       q    Type
                         _______ _______ _______ _____ _____    ______ ____

>  <TORSDO>
F 8

$$$$
=
 OpenBabel11042417213D

 26 27  0  0  1  0  0  0  0  0999 V2000
  189.8850  173.6270  144.7080 C   0  0  0  0  0  0  0  0  0  0  0  0
  189.1620  174.1590  142.4780 N   0  0  0  0  0  0  0  0  0  0  0  0
  189.9140  173.9510  146.0670 C   0  0  0  0  0  3  0  0  0  0  0  0
  188.5670  175.6370  144.2760 C   0  0  0  0  0  0  0  0  0  0  0  0
  187.8990  176.4540  143.3540 C   0  0  0  0  0  3  0  0  0  0  0  0
  189.2830  175.1060  146.5320 C   0  0  0  0  0  3  0  0  0  0  0  0
  189.2080  174.4660  143.8050 C   0  0  0  0  0  0  0  0  0  0  0  0
  188.6100  175.9600  145.6470 C   0  0  0  0  0  0  0  0  0  0  0  0
  187.8710  176.1110  142.0030 C   0  0  0  0  0  3  0  0  0  0  0  0
  188.5150  174.9470  141.5790 C   0  0  0  0  0  0  0  0  0  0  0  0
  188.4930  174.5700  140.1430 C   0  0  0  0  0  1  0  0  0  0  0  0
  188.7430  177.8370  147.1080 O   0  0  0  0  0  1  0  0  0  0  0  0
  187.9280  177.1900  146.1760 C   0  0  2  0  0  3  0  0  0  0  0  0
  186.5940  176.8290  146.8070 C   0  0  0  0  0  2  0  0  0  0  0  0
  185.5670  177.0040  145.8760 O   0  0  0  0  0  0  0  0  0  0  0  0
  185.9020  179.5180  144.7440 O   0  0  0  0  0  0  0  0  0  0  0  0
  183.6420  178.7940  145.8520 O   0  0  0  0  0  1  0  0  0  0  0  0
  185.1410  178.6420  145.9750 P   0  0  0  0  0  0  0  0  0  0  0  0
  185.6370  179.2500  147.4730 O   0  0  0  0  0  1  0  0  0  0  0  0
  190.5570  172.3740  144.2500 C   0  0  0  0  0  2  0  0  0  0  0  0
  191.9920  172.3880  144.6460 C   0  0  0  0  0  3  0  0  0  0  0  0
  192.8070  173.3050  144.1490 C   0  0  0  0  0  3  0  0  0  0  0  0
  194.1830  173.3170  144.5290 N   0  0  0  0  0  0  0  0  0  0  0  0
  194.7400  174.2800  145.4310 C   0  0  0  0  0  0  0  0  0  0  0  0
  193.9740  175.1480  146.0830 C   0  0  0  0  0  1  0  0  0  0  0  0
  196.2100  174.3080  145.6440 C   0  0  0  0  0  1  0  0  0  0  0  0
  1  3  1  0  0  0  0
  2  7  1  0  0  0  0
  3  6  2  0  0  0  0
  4  8  2  0  0  0  0
  5  4  1  0  0  0  0
  7  4  1  0  0  0  0
  7  1  2  0  0  0  0
  8 13  1  0  0  0  0
  8  6  1  0  0  0  0
  9  5  2  0  0  0  0
 10  9  1  0  0  0  0
 10  2  2  0  0  0  0
 11 10  1  0  0  0  0
 13 14  1  0  0  0  0
 13 12  1  1  0  0  0
 15 18  1  0  0  0  0
 15 14  1  0  0  0  0
 16 18  2  0  0  0  0
 17 18  1  0  0  0  0
 18 19  1  0  0  0  0
 20 21  1  0  0  0  0
 20  1  1  0  0  0  0
 22 23  1  0  0  0  0
 22 21  2  0  0  0  0
 23 24  2  0  0  0  0
 24 26  1  0  0  0  0
 24 25  1  0  0  0  0
M  END
>  <MODEL>
8

>  <REMARK>
 VINA RESULT:      -5.8      4.008      6.982
  Name = 
  8 active torsions:
  status: ('A' for Active; 'I' for Inactive)
    1  A    between atoms: C_1  and  C_13
    2  A    between atoms: N_4  and  C_7
    3  A    between atoms: N_4  and  C_17
    4  A    between atoms: C_8  and  C_13
    5  A    between atoms: O_9  and  C_11
    6  A    between atoms: O_9  and  P_23
    7  A    between atoms: C_11  and  C_20
    8  A    between atoms: C_19  and  C_20
                            x       y       z     vdW  Elec       q    Type
                         _______ _______ _______ _____ _____    ______ ____

>  <TORSDO>
F 8

$$$$
=
 OpenBabel11042417213D

 26 27  0  0  1  0  0  0  0  0999 V2000
  190.5140  176.7190  143.8380 C   0  0  0  0  0  0  0  0  0  0  0  0
  189.7090  175.6430  145.8310 N   0  0  0  0  0  0  0  0  0  0  0  0
  191.5820  177.2640  143.1180 C   0  0  0  0  0  3  0  0  0  0  0  0
  192.0370  176.2170  145.6790 C   0  0  0  0  0  0  0  0  0  0  0  0
  192.2300  175.6790  146.9600 C   0  0  0  0  0  3  0  0  0  0  0  0
  192.8640  177.2930  143.6680 C   0  0  0  0  0  3  0  0  0  0  0  0
  190.7370  176.1880  145.1210 C   0  0  0  0  0  0  0  0  0  0  0  0
  193.1050  176.7770  144.9500 C   0  0  0  0  0  0  0  0  0  0  0  0
  191.1560  175.1290  147.6590 C   0  0  0  0  0  3  0  0  0  0  0  0
  189.8900  175.1210  147.0730 C   0  0  0  0  0  0  0  0  0  0  0  0
  188.7370  174.5390  147.8070 C   0  0  0  0  0  1  0  0  0  0  0  0
  194.9720  178.1200  145.5670 O   0  0  0  0  0  1  0  0  0  0  0  0
  194.4970  176.8090  145.5130 C   0  0  2  0  0  3  0  0  0  0  0  0
  195.4290  175.9470  144.6780 C   0  0  0  0  0  2  0  0  0  0  0  0
  196.3000  176.7610  143.9490 O   0  0  0  0  0  0  0  0  0  0  0  0
  195.9010  177.0640  141.2170 O   0  0  0  0  0  0  0  0  0  0  0  0
  197.8910  175.6550  142.1720 O   0  0  0  0  0  1  0  0  0  0  0  0
  196.4460  176.0200  142.4300 P   0  0  0  0  0  0  0  0  0  0  0  0
  195.5090  174.6130  142.4120 O   0  0  0  0  0  1  0  0  0  0  0  0
  189.1590  176.6900  143.2090 C   0  0  0  0  0  2  0  0  0  0  0  0
  188.3400  177.8290  143.7060 C   0  0  0  0  0  3  0  0  0  0  0  0
  187.0870  177.6270  144.0830 C   0  0  0  0  0  3  0  0  0  0  0  0
  186.3010  178.7200  144.5590 N   0  0  0  0  0  2  0  0  0  0  0  0
  185.5450  178.6730  145.7730 C   0  0  0  0  0  0  0  0  0  0  0  0
  186.1320  178.5210  146.9540 C   0  0  0  0  0  2  0  0  0  0  0  0
  184.0650  178.7980  145.7120 C   0  0  0  0  0  1  0  0  0  0  0  0
  1  7  1  0  0  0  0
  2 10  1  0  0  0  0
  3  6  1  0  0  0  0
  3  1  2  0  0  0  0
  4  5  2  0  0  0  0
  5  9  1  0  0  0  0
  6  8  2  0  0  0  0
  7  4  1  0  0  0  0
  7  2  2  0  0  0  0
  8 13  1  0  0  0  0
  8  4  1  0  0  0  0
 10  9  2  0  0  0  0
 10 11  1  0  0  0  0
 13 12  1  6  0  0  0
 14 13  1  0  0  0  0
 15 14  1  0  0  0  0
 16 18  2  0  0  0  0
 17 18  1  0  0  0  0
 18 15  1  0  0  0  0
 19 18  1  0  0  0  0
 20 21  1  0  0  0  0
 20  1  1  0  0  0  0
 21 22  2  0  0  0  0
 22 23  1  0  0  0  0
 23 24  1  0  0  0  0
 24 25  2  0  0  0  0
 26 24  1  0  0  0  0
M  END
>  <MODEL>
9

>  <REMARK>
 VINA RESULT:      -5.7      2.345      3.310
  Name = 
  8 active torsions:
  status: ('A' for Active; 'I' for Inactive)
    1  A    between atoms: C_1  and  C_13
    2  A    between atoms: N_4  and  C_7
    3  A    between atoms: N_4  and  C_17
    4  A    between atoms: C_8  and  C_13
    5  A    between atoms: O_9  and  C_11
    6  A    between atoms: O_9  and  P_23
    7  A    between atoms: C_11  and  C_20
    8  A    between atoms: C_19  and  C_20
                            x       y       z     vdW  Elec       q    Type
                         _______ _______ _______ _____ _____    ______ ____

>  <TORSDO>
F 8

$$$$
