=
 OpenBabel11042414283D

 52 60  0  0  1  0  0  0  0  0999 V2000
  195.0470  172.3880  142.1510 C   0  0  0  0  0  2  0  0  0  0  0  0
  193.6830  169.1770  143.6770 C   0  0  0  0  0  0  0  0  0  0  0  0
  193.8010  170.2960  142.8420 C   0  0  0  0  0  0  0  0  0  0  0  0
  192.8550  170.5300  141.7910 N   0  0  0  0  0  2  0  0  0  0  0  0
  192.6080  168.2570  143.5070 N   0  0  0  0  0  1  0  0  0  0  0  0
  194.5960  168.9670  144.6630 N   0  0  0  0  0  0  0  0  0  0  0  0
  194.3260  172.2120  140.8110 C   0  0  1  0  0  3  0  0  0  0  0  0
  195.6320  169.8240  144.8740 C   0  0  0  0  0  0  0  0  0  0  0  0
  192.8660  171.7700  141.0130 C   0  0  2  0  0  3  0  0  0  0  0  0
  195.7950  170.9440  144.0550 C   0  0  0  0  0  3  0  0  0  0  0  0
  194.8860  171.1750  143.0220 C   0  0  0  0  0  0  0  0  0  0  0  0
  190.9690  172.2160  142.5200 N   0  0  0  0  0  2  0  0  0  0  0  0
  192.0160  172.8390  141.7180 C   0  0  2  0  0  3  0  0  0  0  0  0
  189.9720  172.7560  141.6050 C   0  0  1  0  0  3  0  0  0  0  0  0
  190.0440  174.2700  141.5660 C   0  0  1  0  0  3  0  0  0  0  0  0
  191.0170  173.4430  140.7610 C   0  0  1  0  0  3  0  0  0  0  0  0
  187.1640  176.1490  140.3260 O   0  0  0  0  0  0  0  0  0  0  0  0
  188.2120  176.3880  142.4030 N   0  0  0  0  0  2  0  0  0  0  0  0
  188.0860  175.7900  141.1070 C   0  0  0  0  0  0  0  0  0  0  0  0
  189.0050  174.7820  140.6870 N   0  0  0  0  0  2  0  0  0  0  0  0
  187.2100  177.2730  142.9850 C   0  0  1  0  0  0  0  0  0  0  0  0
  184.3830  178.4560  140.9770 C   0  0  0  0  0  1  0  0  0  0  0  0
  186.6410  178.2460  141.9770 C   0  0  1  0  0  3  0  0  0  0  0  0
  185.7810  177.1070  142.5080 C   0  0  2  0  0  3  0  0  0  0  0  0
  185.1700  178.4750  142.2710 C   0  0  2  0  0  3  0  0  0  0  0  0
  187.0140  178.0910  146.7500 C   0  0  0  0  0  3  0  0  0  0  0  0
  186.0770  177.4870  147.4790 C   0  0  0  0  0  2  0  0  0  0  0  0
  185.2960  176.6060  146.6670 N   0  0  0  0  0  0  0  0  0  0  0  0
  186.7950  177.5510  145.4200 C   0  0  0  0  0  0  0  0  0  0  0  0
  185.7110  176.6410  145.4690 N   0  0  0  0  0  0  0  0  0  0  0  0
  187.4870  177.8700  144.3290 C   0  0  0  0  0  2  0  0  0  0  0  0
  193.3290  174.4770  137.7830 O   0  0  0  0  0  0  0  0  0  0  0  0
  194.4270  173.4270  140.0190 N   0  0  0  0  0  0  0  0  0  0  0  0
  193.9970  174.2970  138.8340 C   0  0  0  0  0  0  0  0  0  0  0  0
  194.8630  174.7380  139.8270 C   0  0  1  0  0  3  0  0  0  0  0  0
  194.1510  175.6460  140.8110 C   0  0  0  0  0  2  0  0  0  0  0  0
  195.1040  176.1170  141.8990 C   0  0  0  0  0  2  0  0  0  0  0  0
  194.2480  175.3260  146.1520 C   0  0  0  0  0  2  0  0  0  0  0  0
  192.4570  175.5900  144.3600 C   0  0  0  0  0  2  0  0  0  0  0  0
  193.4350  176.4260  143.5270 C   0  0  0  0  0  2  0  0  0  0  0  0
  195.6480  176.0590  144.1720 C   0  0  0  0  0  2  0  0  0  0  0  0
  194.6340  175.6630  143.1990 N   0  0  0  0  0  0  0  0  0  0  0  0
  193.1300  174.6460  145.3650 C   0  0  2  0  0  3  0  0  0  0  0  0
  195.5800  175.1750  145.4170 C   0  0  0  0  0  2  0  0  0  0  0  0
  192.1290  174.1190  146.2770 N   0  0  0  0  0  2  0  0  0  0  0  0
  190.8360  174.6460  145.8520 C   0  0  1  0  0  3  0  0  0  0  0  0
  189.9200  173.5090  145.4280 C   0  0  0  0  0  1  0  0  0  0  0  0
  188.8020  174.9840  147.3310 C   0  0  0  0  0  1  0  0  0  0  0  0
  191.0050  175.5030  148.0850 O   0  0  0  0  0  1  0  0  0  0  0  0
  190.1880  175.4880  146.9530 C   0  0  1  0  0  3  0  0  0  0  0  0
  196.5740  169.5640  145.9240 C   0  0  0  0  0  0  0  0  0  0  0  0
  197.3350  169.3580  146.7720 N   0  0  0  0  0  0  0  0  0  0  0  0
  1 11  1  0  0  0  0
  2  6  1  0  0  0  0
  3 11  1  0  0  0  0
  3  2  2  0  0  0  0
  4  3  1  0  0  0  0
  5  2  1  0  0  0  0
  6  8  2  0  0  0  0
  7 33  1  1  0  0  0
  7  9  1  0  0  0  0
  7  1  1  0  0  0  0
  8 51  1  0  0  0  0
  9 13  1  0  0  0  0
  9  4  1  1  0  0  0
 10  8  1  0  0  0  0
 11 10  2  0  0  0  0
 13 12  1  1  0  0  0
 14 12  1  1  0  0  0
 15 20  1  6  0  0  0
 15 14  1  0  0  0  0
 16 15  1  0  0  0  0
 16 14  1  0  0  0  0
 16 13  1  0  0  0  0
 17 19  2  0  0  0  0
 18 21  1  0  0  0  0
 19 18  1  0  0  0  0
 20 19  1  0  0  0  0
 21 31  1  0  0  0  0
 22 25  1  0  0  0  0
 23 25  1  0  0  0  0
 23 24  1  0  0  0  0
 23 21  1  0  0  0  0
 24 21  1  0  0  0  0
 25 24  1  0  0  0  0
 26 27  1  0  0  0  0
 28 27  1  0  0  0  0
 29 30  1  0  0  0  0
 29 26  2  0  0  0  0
 30 28  2  0  0  0  0
 31 29  1  0  0  0  0
 32 34  2  0  0  0  0
 34 35  1  0  0  0  0
 34 33  1  0  0  0  0
 35 33  1  0  0  0  0
 35 36  1  0  0  0  0
 36 37  1  0  0  0  0
 37 42  1  0  0  0  0
 39 43  1  0  0  0  0
 40 39  1  0  0  0  0
 41 44  1  0  0  0  0
 42 40  1  0  0  0  0
 42 41  1  0  0  0  0
 43 38  1  0  0  0  0
 43 45  1  0  0  0  0
 44 38  1  0  0  0  0
 46 45  1  0  0  0  0
 46 50  1  0  0  0  0
 47 46  1  0  0  0  0
 50 48  1  0  0  0  0
 50 49  1  0  0  0  0
 51 52  3  0  0  0  0
M  END
>  <MODEL>
1

>  <REMARK>
 VINA RESULT:      -7.3      0.000      0.000
  Name = 
  12 active torsions:
  status: ('A' for Active; 'I' for Inactive)
    1  A    between atoms: C_2  and  N_19
    2  A    between atoms: C_2  and  C_52
    3  A    between atoms: N_6  and  C_29
    4  A    between atoms: N_9  and  C_13
    5  A    between atoms: N_9  and  C_43
    6  A    between atoms: C_10  and  C_30
    7  A    between atoms: C_12  and  C_32
    8  A    between atoms: C_13  and  C_41
    9  A    between atoms: C_26  and  C_33
   10  A    between atoms: C_26  and  N_37
   11  A    between atoms: C_33  and  CA_44
   12  A    between atoms: C_42  and  N_47
                            x       y       z     vdW  Elec       q    Type
                         _______ _______ _______ _____ _____    ______ ____

>  <TORSDO>
F 12

$$$$
=
 OpenBabel11042414283D

 52 60  0  0  1  0  0  0  0  0999 V2000
  193.6770  171.3760  143.1680 C   0  0  0  0  0  2  0  0  0  0  0  0
  196.6020  173.0990  144.8920 C   0  0  0  0  0  0  0  0  0  0  0  0
  195.4590  172.9090  144.1030 C   0  0  0  0  0  0  0  0  0  0  0  0
  194.8410  174.0140  143.4310 N   0  0  0  0  0  2  0  0  0  0  0  0
  197.1810  174.3930  145.0290 N   0  0  0  0  0  1  0  0  0  0  0  0
  197.1690  172.0390  145.5300 N   0  0  0  0  0  0  0  0  0  0  0  0
  192.8630  172.6590  142.9770 C   0  0  1  0  0  3  0  0  0  0  0  0
  196.6610  170.7810  145.4190 C   0  0  0  0  0  0  0  0  0  0  0  0
  193.7470  173.8150  142.4790 C   0  0  2  0  0  3  0  0  0  0  0  0
  195.5150  170.5520  144.6540 C   0  0  0  0  0  3  0  0  0  0  0  0
  194.8990  171.6220  144.0060 C   0  0  0  0  0  0  0  0  0  0  0  0
  195.6070  174.2230  140.9140 N   0  0  0  0  0  2  0  0  0  0  0  0
  194.3160  173.5630  141.0730 C   0  0  2  0  0  3  0  0  0  0  0  0
  195.0020  175.1340  139.9520 C   0  0  1  0  0  3  0  0  0  0  0  0
  194.4360  174.3690  138.7710 C   0  0  1  0  0  3  0  0  0  0  0  0
  193.6550  174.4650  140.0590 C   0  0  1  0  0  3  0  0  0  0  0  0
  192.3770  175.8010  136.1130 O   0  0  0  0  0  0  0  0  0  0  0  0
  192.1000  173.7190  137.1410 N   0  0  0  0  0  2  0  0  0  0  0  0
  192.7690  174.9750  136.9800 C   0  0  0  0  0  0  0  0  0  0  0  0
  193.8870  175.3050  137.8040 N   0  0  0  0  0  2  0  0  0  0  0  0
  191.0850  173.2220  136.2200 C   0  0  1  0  0  0  0  0  0  0  0  0
  191.5330  170.0110  134.5130 C   0  0  0  0  0  1  0  0  0  0  0  0
  191.6760  172.4190  135.0830 C   0  0  1  0  0  3  0  0  0  0  0  0
  190.8690  171.7230  136.1710 C   0  0  2  0  0  3  0  0  0  0  0  0
  190.7370  171.2820  134.7260 C   0  0  2  0  0  3  0  0  0  0  0  0
  187.9190  175.4250  136.2990 C   0  0  0  0  0  3  0  0  0  0  0  0
  187.2130  175.4750  137.4270 C   0  0  0  0  0  2  0  0  0  0  0  0
  187.8120  174.6560  138.4340 N   0  0  0  0  0  0  0  0  0  0  0  0
  189.0100  174.5290  136.6330 C   0  0  0  0  0  0  0  0  0  0  0  0
  188.8590  174.1040  137.9760 N   0  0  0  0  0  0  0  0  0  0  0  0
  189.9850  174.1500  135.8090 C   0  0  0  0  0  2  0  0  0  0  0  0
  190.0880  170.3720  141.4390 O   0  0  0  0  0  0  0  0  0  0  0  0
  191.7320  172.4150  142.0980 N   0  0  0  0  0  0  0  0  0  0  0  0
  190.6430  171.4970  141.5320 C   0  0  0  0  0  0  0  0  0  0  0  0
  190.7180  172.8550  141.2460 C   0  0  1  0  0  3  0  0  0  0  0  0
  189.7000  173.6410  142.0520 C   0  0  0  0  0  2  0  0  0  0  0  0
  189.9290  175.1370  141.8980 C   0  0  0  0  0  2  0  0  0  0  0  0
  189.6980  177.4510  145.6450 C   0  0  0  0  0  2  0  0  0  0  0  0
  187.9720  177.5820  143.7760 C   0  0  0  0  0  2  0  0  0  0  0  0
  189.0410  177.1300  142.7760 C   0  0  0  0  0  2  0  0  0  0  0  0
  190.8260  176.0700  143.8440 C   0  0  0  0  0  2  0  0  0  0  0  0
  189.5760  175.8200  143.1330 N   0  0  0  0  0  0  0  0  0  0  0  0
  188.2540  177.1790  145.2290 C   0  0  2  0  0  3  0  0  0  0  0  0
  190.5730  176.2340  145.3430 C   0  0  0  0  0  2  0  0  0  0  0  0
  187.3410  177.8850  146.1130 N   0  0  0  0  0  2  0  0  0  0  0  0
  186.0110  177.7980  145.5190 C   0  0  1  0  0  3  0  0  0  0  0  0
  185.2040  176.7020  146.1970 C   0  0  0  0  0  1  0  0  0  0  0  0
  185.3750  179.9260  144.2920 C   0  0  0  0  0  1  0  0  0  0  0  0
  183.9370  178.9330  145.9150 O   0  0  0  0  0  1  0  0  0  0  0  0
  185.2790  179.1390  145.5910 C   0  0  1  0  0  3  0  0  0  0  0  0
  197.2890  169.6920  146.1100 C   0  0  0  0  0  0  0  0  0  0  0  0
  197.7950  168.8110  146.6650 N   0  0  0  0  0  0  0  0  0  0  0  0
  1 11  1  0  0  0  0
  2  5  1  0  0  0  0
  2  6  1  0  0  0  0
  3  2  2  0  0  0  0
  4  3  1  0  0  0  0
  7 33  1  6  0  0  0
  7  1  1  0  0  0  0
  8  6  2  0  0  0  0
  8 51  1  0  0  0  0
  9  7  1  0  0  0  0
  9  4  1  1  0  0  0
 10  8  1  0  0  0  0
 11  3  1  0  0  0  0
 11 10  2  0  0  0  0
 13 12  1  1  0  0  0
 13  9  1  0  0  0  0
 14 16  1  0  0  0  0
 14 12  1  1  0  0  0
 15 20  1  6  0  0  0
 15 14  1  0  0  0  0
 15 16  1  0  0  0  0
 16 13  1  0  0  0  0
 17 19  2  0  0  0  0
 19 18  1  0  0  0  0
 19 20  1  0  0  0  0
 21 18  1  0  0  0  0
 22 25  1  0  0  0  0
 23 24  1  0  0  0  0
 23 21  1  0  0  0  0
 24 21  1  0  0  0  0
 25 23  1  0  0  0  0
 25 24  1  0  0  0  0
 26 29  2  0  0  0  0
 26 27  1  0  0  0  0
 27 28  1  0  0  0  0
 29 30  1  0  0  0  0
 30 28  2  0  0  0  0
 31 21  1  0  0  0  0
 31 29  1  0  0  0  0
 32 34  2  0  0  0  0
 34 33  1  0  0  0  0
 35 34  1  0  0  0  0
 35 36  1  0  0  0  0
 35 33  1  0  0  0  0
 37 36  1  0  0  0  0
 37 42  1  0  0  0  0
 39 43  1  0  0  0  0
 40 42  1  0  0  0  0
 40 39  1  0  0  0  0
 41 44  1  0  0  0  0
 42 41  1  0  0  0  0
 43 38  1  0  0  0  0
 43 45  1  0  0  0  0
 44 38  1  0  0  0  0
 46 50  1  0  0  0  0
 46 45  1  0  0  0  0
 46 47  1  0  0  0  0
 48 50  1  0  0  0  0
 50 49  1  0  0  0  0
 51 52  3  0  0  0  0
M  END
>  <MODEL>
2

>  <REMARK>
 VINA RESULT:      -7.2      2.981      6.435
  Name = 
  12 active torsions:
  status: ('A' for Active; 'I' for Inactive)
    1  A    between atoms: C_2  and  N_19
    2  A    between atoms: C_2  and  C_52
    3  A    between atoms: N_6  and  C_29
    4  A    between atoms: N_9  and  C_13
    5  A    between atoms: N_9  and  C_43
    6  A    between atoms: C_10  and  C_30
    7  A    between atoms: C_12  and  C_32
    8  A    between atoms: C_13  and  C_41
    9  A    between atoms: C_26  and  C_33
   10  A    between atoms: C_26  and  N_37
   11  A    between atoms: C_33  and  CA_44
   12  A    between atoms: C_42  and  N_47
                            x       y       z     vdW  Elec       q    Type
                         _______ _______ _______ _____ _____    ______ ____

>  <TORSDO>
F 12

$$$$
=
 OpenBabel11042414283D

 52 60  0  0  1  0  0  0  0  0999 V2000
  194.0130  173.2410  141.8480 C   0  0  0  0  0  2  0  0  0  0  0  0
  196.6180  175.9960  142.2030 C   0  0  0  0  0  0  0  0  0  0  0  0
  195.5690  175.1210  142.5180 C   0  0  0  0  0  0  0  0  0  0  0  0
  194.9660  175.1380  143.8180 N   0  0  0  0  0  2  0  0  0  0  0  0
  197.0930  176.9330  143.1660 N   0  0  0  0  0  1  0  0  0  0  0  0
  197.1840  175.9590  140.9670 N   0  0  0  0  0  0  0  0  0  0  0  0
  193.8560  173.0140  143.3540 C   0  0  1  0  0  3  0  0  0  0  0  0
  196.7550  175.0930  140.0090 C   0  0  0  0  0  0  0  0  0  0  0  0
  193.7700  174.3480  144.1160 C   0  0  2  0  0  3  0  0  0  0  0  0
  195.7220  174.1940  140.2860 C   0  0  0  0  0  3  0  0  0  0  0  0
  195.1360  174.1940  141.5510 C   0  0  0  0  0  0  0  0  0  0  0  0
  192.8390  176.5550  143.5360 N   0  0  0  0  0  2  0  0  0  0  0  0
  192.5090  175.1520  143.7620 C   0  0  2  0  0  3  0  0  0  0  0  0
  192.1040  176.9030  144.7450 C   0  0  1  0  0  3  0  0  0  0  0  0
  190.6520  176.4790  144.6300 C   0  0  1  0  0  3  0  0  0  0  0  0
  191.7110  175.4690  145.0030 C   0  0  1  0  0  3  0  0  0  0  0  0
  188.0390  177.7740  146.8340 O   0  0  0  0  0  0  0  0  0  0  0  0
  187.8820  177.4030  144.5300 N   0  0  0  0  0  2  0  0  0  0  0  0
  188.5910  177.3730  145.7750 C   0  0  0  0  0  0  0  0  0  0  0  0
  189.9320  176.8850  145.8260 N   0  0  0  0  0  2  0  0  0  0  0  0
  186.5930  178.0620  144.3530 C   0  0  1  0  0  0  0  0  0  0  0  0
  184.1710  178.1830  147.0980 C   0  0  0  0  0  1  0  0  0  0  0  0
  185.4900  177.4040  145.1500 C   0  0  1  0  0  3  0  0  0  0  0  0
  186.0100  178.7770  145.5540 C   0  0  2  0  0  3  0  0  0  0  0  0
  184.5290  178.4650  145.6540 C   0  0  2  0  0  3  0  0  0  0  0  0
  186.1540  178.1110  140.5200 C   0  0  0  0  0  3  0  0  0  0  0  0
  186.7120  177.1330  139.8080 C   0  0  0  0  0  3  0  0  0  0  0  0
  187.3930  176.2120  140.6630 N   0  0  0  0  0  0  0  0  0  0  0  0
  186.5130  177.7710  141.8850 C   0  0  0  0  0  0  0  0  0  0  0  0
  187.2790  176.5800  141.8730 N   0  0  0  0  0  0  0  0  0  0  0  0
  186.1920  178.4710  142.9700 C   0  0  0  0  0  3  0  0  0  0  0  0
  190.2860  172.3280  144.7940 O   0  0  0  0  0  0  0  0  0  0  0  0
  192.7150  172.1550  143.6200 N   0  0  0  0  0  0  0  0  0  0  0  0
  191.3070  171.9270  144.1760 C   0  0  0  0  0  0  0  0  0  0  0  0
  191.9990  170.9700  143.4440 C   0  0  1  0  0  3  0  0  0  0  0  0
  191.4950  170.9040  142.0150 C   0  0  0  0  0  2  0  0  0  0  0  0
  190.1270  171.5590  141.8940 C   0  0  0  0  0  2  0  0  0  0  0  0
  189.0610  173.9450  138.3430 C   0  0  0  0  0  2  0  0  0  0  0  0
  191.4250  173.7410  139.2690 C   0  0  0  0  0  2  0  0  0  0  0  0
  190.8410  173.4220  140.6490 C   0  0  0  0  0  2  0  0  0  0  0  0
  188.6300  172.6890  140.5000 C   0  0  0  0  0  2  0  0  0  0  0  0
  190.0090  172.2240  140.6060 N   0  0  0  0  0  0  0  0  0  0  0  0
  190.4810  173.4390  138.0980 C   0  0  2  0  0  3  0  0  0  0  0  0
  188.2280  172.8670  139.0360 C   0  0  0  0  0  2  0  0  0  0  0  0
  191.0170  174.0280  136.8810 N   0  0  0  0  0  2  0  0  0  0  0  0
  191.4170  172.9290  136.0090 C   0  0  1  0  0  3  0  0  0  0  0  0
  192.9000  172.6420  136.1750 C   0  0  0  0  0  1  0  0  0  0  0  0
  189.4350  171.5160  135.2900 C   0  0  0  0  0  1  0  0  0  0  0  0
  191.3990  170.5420  136.2300 O   0  0  0  0  0  1  0  0  0  0  0  0
  190.5840  171.6730  136.2760 C   0  0  1  0  0  3  0  0  0  0  0  0
  197.3820  175.0860  138.7180 C   0  0  0  0  0  0  0  0  0  0  0  0
  197.8900  175.0830  137.6770 N   0  0  0  0  0  0  0  0  0  0  0  0
  2  3  1  0  0  0  0
  2  5  1  0  0  0  0
  3  4  1  0  0  0  0
  6  2  2  0  0  0  0
  7  1  1  6  0  0  0
  7 33  1  0  0  0  0
  7  9  1  0  0  0  0
  8 10  2  0  0  0  0
  8  6  1  0  0  0  0
  9  4  1  6  0  0  0
 10 11  1  0  0  0  0
 11  1  1  0  0  0  0
 11  3  2  0  0  0  0
 13 12  1  1  0  0  0
 13  9  1  0  0  0  0
 13 16  1  0  0  0  0
 14 12  1  6  0  0  0
 14 16  1  0  0  0  0
 15 14  1  0  0  0  0
 15 16  1  0  0  0  0
 15 20  1  1  0  0  0
 18 19  1  0  0  0  0
 19 20  1  0  0  0  0
 19 17  2  0  0  0  0
 21 18  1  0  0  0  0
 21 23  1  0  0  0  0
 21 24  1  0  0  0  0
 23 24  1  0  0  0  0
 23 25  1  0  0  0  0
 24 25  1  0  0  0  0
 25 22  1  0  0  0  0
 26 29  1  0  0  0  0
 27 26  2  0  0  0  0
 27 28  1  0  0  0  0
 28 30  2  0  0  0  0
 29 31  2  0  0  0  0
 30 29  1  0  0  0  0
 31 21  1  0  0  0  0
 33 34  1  0  0  0  0
 34 32  2  0  0  0  0
 35 33  1  0  0  0  0
 35 34  1  0  0  0  0
 36 35  1  0  0  0  0
 37 36  1  0  0  0  0
 38 44  1  0  0  0  0
 39 40  1  0  0  0  0
 41 42  1  0  0  0  0
 42 40  1  0  0  0  0
 42 37  1  0  0  0  0
 43 38  1  0  0  0  0
 43 39  1  0  0  0  0
 44 41  1  0  0  0  0
 45 43  1  0  0  0  0
 46 47  1  0  0  0  0
 46 50  1  0  0  0  0
 46 45  1  0  0  0  0
 48 50  1  0  0  0  0
 49 50  1  0  0  0  0
 51  8  1  0  0  0  0
 52 51  3  0  0  0  0
M  END
>  <MODEL>
3

>  <REMARK>
 VINA RESULT:      -7.2      2.660      6.850
  Name = 
  12 active torsions:
  status: ('A' for Active; 'I' for Inactive)
    1  A    between atoms: C_2  and  N_19
    2  A    between atoms: C_2  and  C_52
    3  A    between atoms: N_6  and  C_29
    4  A    between atoms: N_9  and  C_13
    5  A    between atoms: N_9  and  C_43
    6  A    between atoms: C_10  and  C_30
    7  A    between atoms: C_12  and  C_32
    8  A    between atoms: C_13  and  C_41
    9  A    between atoms: C_26  and  C_33
   10  A    between atoms: C_26  and  N_37
   11  A    between atoms: C_33  and  CA_44
   12  A    between atoms: C_42  and  N_47
                            x       y       z     vdW  Elec       q    Type
                         _______ _______ _______ _____ _____    ______ ____

>  <TORSDO>
F 12

$$$$
=
 OpenBabel11042414283D

 52 60  0  0  1  0  0  0  0  0999 V2000
  195.5830  171.9700  141.8160 C   0  0  0  0  0  2  0  0  0  0  0  0
  195.5810  173.6940  138.4210 C   0  0  0  0  0  0  0  0  0  0  0  0
  195.5500  173.5120  139.8100 C   0  0  0  0  0  0  0  0  0  0  0  0
  195.4880  174.6380  140.6960 N   0  0  0  0  0  2  0  0  0  0  0  0
  195.5360  175.0030  137.8600 N   0  0  0  0  0  1  0  0  0  0  0  0
  195.6500  172.6130  137.5970 N   0  0  0  0  0  0  0  0  0  0  0  0
  196.0470  173.2060  142.5910 C   0  0  1  0  0  3  0  0  0  0  0  0
  195.6810  171.3430  138.0840 C   0  0  0  0  0  0  0  0  0  0  0  0
  195.2940  174.4690  142.1360 C   0  0  2  0  0  3  0  0  0  0  0  0
  195.6660  171.1190  139.4630 C   0  0  0  0  0  3  0  0  0  0  0  0
  195.6180  172.2070  140.3330 C   0  0  0  0  0  0  0  0  0  0  0  0
  193.0120  175.0370  141.3980 N   0  0  0  0  0  2  0  0  0  0  0  0
  193.7920  174.4100  142.4600 C   0  0  2  0  0  3  0  0  0  0  0  0
  192.6510  176.1060  142.3200 C   0  0  1  0  0  3  0  0  0  0  0  0
  191.9120  175.5500  143.5220 C   0  0  1  0  0  3  0  0  0  0  0  0
  193.4190  175.4800  143.4570 C   0  0  1  0  0  3  0  0  0  0  0  0
  189.9600  178.2290  145.0630 O   0  0  0  0  0  0  0  0  0  0  0  0
  189.2370  176.7220  143.4270 N   0  0  0  0  0  2  0  0  0  0  0  0
  190.2240  177.2410  144.3260 C   0  0  0  0  0  0  0  0  0  0  0  0
  191.5180  176.6430  144.3970 N   0  0  0  0  0  2  0  0  0  0  0  0
  187.9690  177.3880  143.1480 C   0  0  1  0  0  0  0  0  0  0  0  0
  186.5230  177.3050  139.7830 C   0  0  0  0  0  1  0  0  0  0  0  0
  187.9010  177.9410  141.7430 C   0  0  1  0  0  3  0  0  0  0  0  0
  187.0550  176.7370  142.1320 C   0  0  2  0  0  3  0  0  0  0  0  0
  186.4860  177.8010  141.2140 C   0  0  2  0  0  3  0  0  0  0  0  0
  185.9390  178.7120  146.1500 C   0  0  0  0  0  3  0  0  0  0  0  0
  185.1280  177.8690  146.7850 C   0  0  0  0  0  2  0  0  0  0  0  0
  185.1850  176.5700  146.1900 N   0  0  0  0  0  0  0  0  0  0  0  0
  186.5250  177.8860  145.1100 C   0  0  0  0  0  0  0  0  0  0  0  0
  185.9980  176.5770  145.2150 N   0  0  0  0  0  0  0  0  0  0  0  0
  187.4010  178.2950  144.1950 C   0  0  0  0  0  2  0  0  0  0  0  0
  196.2820  174.3610  146.3200 O   0  0  0  0  0  0  0  0  0  0  0  0
  195.9280  172.9810  144.0210 N   0  0  0  0  0  0  0  0  0  0  0  0
  196.0100  173.4730  145.4700 C   0  0  0  0  0  0  0  0  0  0  0  0
  195.5180  172.2220  145.1180 C   0  0  1  0  0  3  0  0  0  0  0  0
  194.0020  172.1980  145.1640 C   0  0  0  0  0  2  0  0  0  0  0  0
  193.4660  170.8920  144.5980 C   0  0  0  0  0  2  0  0  0  0  0  0
  190.5790  170.8610  141.2650 C   0  0  0  0  0  2  0  0  0  0  0  0
  190.4670  172.4700  143.2360 C   0  0  0  0  0  2  0  0  0  0  0  0
  191.2400  171.4580  144.0880 C   0  0  0  0  0  2  0  0  0  0  0  0
  192.3930  169.9210  142.7620 C   0  0  0  0  0  2  0  0  0  0  0  0
  192.5460  171.1680  143.5040 N   0  0  0  0  0  0  0  0  0  0  0  0
  190.6740  172.3140  141.7240 C   0  0  2  0  0  3  0  0  0  0  0  0
  191.9540  170.1960  141.3240 C   0  0  0  0  0  2  0  0  0  0  0  0
  189.6970  173.1250  141.0160 N   0  0  0  0  0  2  0  0  0  0  0  0
  189.6960  172.6840  139.6260 C   0  0  1  0  0  3  0  0  0  0  0  0
  188.2740  172.6440  139.0890 C   0  0  0  0  0  1  0  0  0  0  0  0
  191.9420  172.9540  138.4750 C   0  0  0  0  0  1  0  0  0  0  0  0
  189.9390  173.8600  137.5510 O   0  0  0  0  0  1  0  0  0  0  0  0
  190.5820  173.5780  138.7570 C   0  0  1  0  0  3  0  0  0  0  0  0
  195.7550  170.2310  137.1800 C   0  0  0  0  0  0  0  0  0  0  0  0
  195.8160  169.3370  136.4480 N   0  0  0  0  0  0  0  0  0  0  0  0
  2  3  1  0  0  0  0
  3 11  2  0  0  0  0
  3  4  1  0  0  0  0
  5  2  1  0  0  0  0
  6  8  1  0  0  0  0
  6  2  2  0  0  0  0
  7  1  1  6  0  0  0
  7 33  1  0  0  0  0
  8 10  2  0  0  0  0
  9  4  1  6  0  0  0
  9 13  1  0  0  0  0
  9  7  1  0  0  0  0
 10 11  1  0  0  0  0
 11  1  1  0  0  0  0
 13 12  1  6  0  0  0
 13 16  1  0  0  0  0
 14 12  1  6  0  0  0
 14 16  1  0  0  0  0
 14 15  1  0  0  0  0
 15 20  1  1  0  0  0
 16 15  1  0  0  0  0
 18 19  1  0  0  0  0
 19 20  1  0  0  0  0
 19 17  2  0  0  0  0
 21 18  1  0  0  0  0
 21 31  1  0  0  0  0
 22 25  1  0  0  0  0
 23 24  1  0  0  0  0
 23 21  1  0  0  0  0
 24 21  1  0  0  0  0
 25 23  1  0  0  0  0
 25 24  1  0  0  0  0
 26 27  1  0  0  0  0
 28 27  1  0  0  0  0
 29 30  1  0  0  0  0
 29 26  2  0  0  0  0
 30 28  2  0  0  0  0
 31 29  1  0  0  0  0
 33 35  1  0  0  0  0
 33 34  1  0  0  0  0
 34 32  2  0  0  0  0
 35 36  1  0  0  0  0
 35 34  1  0  0  0  0
 37 36  1  0  0  0  0
 38 44  1  0  0  0  0
 38 43  1  0  0  0  0
 39 40  1  0  0  0  0
 41 42  1  0  0  0  0
 42 40  1  0  0  0  0
 42 37  1  0  0  0  0
 43 39  1  0  0  0  0
 44 41  1  0  0  0  0
 45 43  1  0  0  0  0
 46 45  1  0  0  0  0
 47 46  1  0  0  0  0
 48 50  1  0  0  0  0
 49 50  1  0  0  0  0
 50 46  1  0  0  0  0
 51  8  1  0  0  0  0
 52 51  3  0  0  0  0
M  END
>  <MODEL>
4

>  <REMARK>
 VINA RESULT:      -7.1      2.337      5.558
  Name = 
  12 active torsions:
  status: ('A' for Active; 'I' for Inactive)
    1  A    between atoms: C_2  and  N_19
    2  A    between atoms: C_2  and  C_52
    3  A    between atoms: N_6  and  C_29
    4  A    between atoms: N_9  and  C_13
    5  A    between atoms: N_9  and  C_43
    6  A    between atoms: C_10  and  C_30
    7  A    between atoms: C_12  and  C_32
    8  A    between atoms: C_13  and  C_41
    9  A    between atoms: C_26  and  C_33
   10  A    between atoms: C_26  and  N_37
   11  A    between atoms: C_33  and  CA_44
   12  A    between atoms: C_42  and  N_47
                            x       y       z     vdW  Elec       q    Type
                         _______ _______ _______ _____ _____    ______ ____

>  <TORSDO>
F 12

$$$$
=
 OpenBabel11042414283D

 52 60  0  0  1  0  0  0  0  0999 V2000
  193.5530  171.7830  143.4920 C   0  0  0  0  0  2  0  0  0  0  0  0
  196.7930  173.0360  145.0530 C   0  0  0  0  0  0  0  0  0  0  0  0
  195.6060  173.0180  144.3080 C   0  0  0  0  0  0  0  0  0  0  0  0
  195.1610  174.1880  143.6100 N   0  0  0  0  0  2  0  0  0  0  0  0
  197.5900  174.2140  145.1180 N   0  0  0  0  0  1  0  0  0  0  0  0
  197.1930  171.9170  145.7170 N   0  0  0  0  0  0  0  0  0  0  0  0
  192.9650  173.1790  143.2730 C   0  0  1  0  0  3  0  0  0  0  0  0
  196.4730  170.7630  145.6740 C   0  0  0  0  0  0  0  0  0  0  0  0
  194.0150  174.1470  142.7000 C   0  0  2  0  0  3  0  0  0  0  0  0
  195.2770  170.7070  144.9550 C   0  0  0  0  0  3  0  0  0  0  0  0
  194.8300  171.8440  144.2820 C   0  0  0  0  0  0  0  0  0  0  0  0
  195.8470  174.1980  141.0520 N   0  0  0  0  0  2  0  0  0  0  0  0
  194.4790  173.7490  141.2900 C   0  0  2  0  0  3  0  0  0  0  0  0
  195.3450  175.1480  140.0670 C   0  0  1  0  0  3  0  0  0  0  0  0
  194.6210  174.4260  138.9480 C   0  0  1  0  0  3  0  0  0  0  0  0
  193.9180  174.6960  140.2560 C   0  0  1  0  0  3  0  0  0  0  0  0
  192.7310  176.0040  136.2460 O   0  0  0  0  0  0  0  0  0  0  0  0
  192.2280  173.9930  137.3280 N   0  0  0  0  0  2  0  0  0  0  0  0
  193.0310  175.1640  137.1360 C   0  0  0  0  0  0  0  0  0  0  0  0
  194.1780  175.3910  137.9550 N   0  0  0  0  0  2  0  0  0  0  0  0
  191.1650  173.5850  136.4160 C   0  0  1  0  0  0  0  0  0  0  0  0
  188.5010  175.9270  135.4990 C   0  0  0  0  0  1  0  0  0  0  0  0
  189.8440  174.2480  136.7320 C   0  0  1  0  0  3  0  0  0  0  0  0
  190.6150  174.6410  135.4800 C   0  0  2  0  0  3  0  0  0  0  0  0
  189.1020  174.5380  135.4410 C   0  0  2  0  0  3  0  0  0  0  0  0
  190.4990  169.7910  136.6260 C   0  0  0  0  0  3  0  0  0  0  0  0
  190.0610  169.2900  137.7800 C   0  0  0  0  0  2  0  0  0  0  0  0
  189.9170  170.3240  138.7570 N   0  0  0  0  0  0  0  0  0  0  0  0
  190.6290  171.2090  136.9110 C   0  0  0  0  0  0  0  0  0  0  0  0
  190.2470  171.4420  138.2540 N   0  0  0  0  0  0  0  0  0  0  0  0
  191.0560  172.1360  136.0570 C   0  0  0  0  0  2  0  0  0  0  0  0
  189.8230  171.3240  141.8640 O   0  0  0  0  0  0  0  0  0  0  0  0
  191.7770  173.1030  142.4400 N   0  0  0  0  0  0  0  0  0  0  0  0
  190.5430  172.3550  141.9250 C   0  0  0  0  0  0  0  0  0  0  0  0
  190.8070  173.6850  141.6220 C   0  0  1  0  0  3  0  0  0  0  0  0
  189.9500  174.6180  142.4580 C   0  0  0  0  0  2  0  0  0  0  0  0
  189.7870  174.0790  143.8710 C   0  0  0  0  0  2  0  0  0  0  0  0
  188.2900  176.9150  146.8980 C   0  0  0  0  0  2  0  0  0  0  0  0
  188.2820  177.3660  144.3910 C   0  0  0  0  0  2  0  0  0  0  0  0
  189.4420  176.3790  144.2250 C   0  0  0  0  0  2  0  0  0  0  0  0
  189.6020  174.9230  146.0420 C   0  0  0  0  0  2  0  0  0  0  0  0
  189.0710  175.0470  144.6890 N   0  0  0  0  0  0  0  0  0  0  0  0
  187.4370  177.1420  145.6520 C   0  0  2  0  0  3  0  0  0  0  0  0
  188.5880  175.4250  147.0710 C   0  0  0  0  0  2  0  0  0  0  0  0
  186.5570  178.2810  145.8520 N   0  0  0  0  0  2  0  0  0  0  0  0
  185.2090  177.8550  145.4910 C   0  0  1  0  0  3  0  0  0  0  0  0
  184.2420  178.1560  146.6250 C   0  0  0  0  0  1  0  0  0  0  0  0
  185.4870  179.8090  143.8960 C   0  0  0  0  0  1  0  0  0  0  0  0
  184.9130  177.6270  143.1230 O   0  0  0  0  0  1  0  0  0  0  0  0
  184.7460  178.5120  144.1890 C   0  0  1  0  0  3  0  0  0  0  0  0
  196.9310  169.6070  146.3910 C   0  0  0  0  0  0  0  0  0  0  0  0
  197.2990  168.6730  146.9660 N   0  0  0  0  0  0  0  0  0  0  0  0
  1 11  1  0  0  0  0
  2  5  1  0  0  0  0
  2  6  1  0  0  0  0
  3  2  2  0  0  0  0
  4  3  1  0  0  0  0
  7 33  1  6  0  0  0
  7  1  1  0  0  0  0
  8  6  2  0  0  0  0
  8 51  1  0  0  0  0
  9  7  1  0  0  0  0
  9  4  1  1  0  0  0
 10  8  1  0  0  0  0
 11  3  1  0  0  0  0
 11 10  2  0  0  0  0
 13 12  1  1  0  0  0
 13  9  1  0  0  0  0
 14 16  1  0  0  0  0
 14 12  1  1  0  0  0
 15 20  1  6  0  0  0
 15 14  1  0  0  0  0
 15 16  1  0  0  0  0
 16 13  1  0  0  0  0
 17 19  2  0  0  0  0
 19 18  1  0  0  0  0
 19 20  1  0  0  0  0
 21 23  1  0  0  0  0
 21 18  1  0  0  0  0
 24 21  1  0  0  0  0
 24 23  1  0  0  0  0
 25 24  1  0  0  0  0
 25 22  1  0  0  0  0
 25 23  1  0  0  0  0
 26 29  2  0  0  0  0
 26 27  1  0  0  0  0
 27 28  1  0  0  0  0
 29 30  1  0  0  0  0
 30 28  2  0  0  0  0
 31 21  1  0  0  0  0
 31 29  1  0  0  0  0
 32 34  2  0  0  0  0
 34 33  1  0  0  0  0
 35 34  1  0  0  0  0
 35 33  1  0  0  0  0
 35 36  1  0  0  0  0
 36 37  1  0  0  0  0
 37 42  1  0  0  0  0
 38 44  1  0  0  0  0
 39 43  1  0  0  0  0
 40 39  1  0  0  0  0
 40 42  1  0  0  0  0
 41 44  1  0  0  0  0
 42 41  1  0  0  0  0
 43 45  1  0  0  0  0
 43 38  1  0  0  0  0
 46 45  1  0  0  0  0
 46 47  1  0  0  0  0
 48 50  1  0  0  0  0
 49 50  1  0  0  0  0
 50 46  1  0  0  0  0
 51 52  3  0  0  0  0
M  END
>  <MODEL>
5

>  <REMARK>
 VINA RESULT:      -7.0      2.888      6.672
  Name = 
  12 active torsions:
  status: ('A' for Active; 'I' for Inactive)
    1  A    between atoms: C_2  and  N_19
    2  A    between atoms: C_2  and  C_52
    3  A    between atoms: N_6  and  C_29
    4  A    between atoms: N_9  and  C_13
    5  A    between atoms: N_9  and  C_43
    6  A    between atoms: C_10  and  C_30
    7  A    between atoms: C_12  and  C_32
    8  A    between atoms: C_13  and  C_41
    9  A    between atoms: C_26  and  C_33
   10  A    between atoms: C_26  and  N_37
   11  A    between atoms: C_33  and  CA_44
   12  A    between atoms: C_42  and  N_47
                            x       y       z     vdW  Elec       q    Type
                         _______ _______ _______ _____ _____    ______ ____

>  <TORSDO>
F 12

$$$$
=
 OpenBabel11042414283D

 52 60  0  0  1  0  0  0  0  0999 V2000
  193.2290  173.8600  141.2290 C   0  0  0  0  0  2  0  0  0  0  0  0
  196.5370  175.4270  142.2810 C   0  0  0  0  0  0  0  0  0  0  0  0
  195.2450  174.8880  142.3620 C   0  0  0  0  0  0  0  0  0  0  0  0
  194.5840  174.7550  143.6260 N   0  0  0  0  0  2  0  0  0  0  0  0
  197.2120  175.8690  143.4550 N   0  0  0  0  0  1  0  0  0  0  0  0
  197.1510  175.5360  141.0720 N   0  0  0  0  0  0  0  0  0  0  0  0
  192.8980  173.3070  142.6180 C   0  0  1  0  0  3  0  0  0  0  0  0
  196.5420  175.1400  139.9210 C   0  0  0  0  0  0  0  0  0  0  0  0
  193.1820  174.3460  143.7180 C   0  0  2  0  0  3  0  0  0  0  0  0
  195.2610  174.5840  139.9590 C   0  0  0  0  0  3  0  0  0  0  0  0
  194.6140  174.4400  141.1860 C   0  0  0  0  0  0  0  0  0  0  0  0
  192.9700  176.7770  144.0650 N   0  0  0  0  0  2  0  0  0  0  0  0
  192.2680  175.5780  143.6170 C   0  0  2  0  0  3  0  0  0  0  0  0
  192.0820  176.8440  145.2180 C   0  0  1  0  0  3  0  0  0  0  0  0
  190.6380  176.9800  144.7750 C   0  0  1  0  0  3  0  0  0  0  0  0
  191.3070  175.6260  144.7800 C   0  0  1  0  0  3  0  0  0  0  0  0
  187.7310  177.6310  146.8930 O   0  0  0  0  0  0  0  0  0  0  0  0
  187.8110  177.6860  144.5560 N   0  0  0  0  0  2  0  0  0  0  0  0
  188.4090  177.4800  145.8410 C   0  0  0  0  0  0  0  0  0  0  0  0
  189.7810  177.0980  145.9430 N   0  0  0  0  0  2  0  0  0  0  0  0
  186.4850  178.2630  144.3670 C   0  0  1  0  0  0  0  0  0  0  0  0
  184.0540  178.2790  147.1080 C   0  0  0  0  0  1  0  0  0  0  0  0
  185.4220  177.5520  145.1730 C   0  0  1  0  0  3  0  0  0  0  0  0
  185.8580  178.9590  145.5570 C   0  0  2  0  0  3  0  0  0  0  0  0
  184.3980  178.5600  145.6600 C   0  0  2  0  0  3  0  0  0  0  0  0
  186.0510  178.2290  140.5340 C   0  0  0  0  0  3  0  0  0  0  0  0
  186.6660  177.2750  139.8370 C   0  0  0  0  0  3  0  0  0  0  0  0
  187.3990  176.4090  140.7070 N   0  0  0  0  0  0  0  0  0  0  0  0
  186.4260  177.9310  141.9040 C   0  0  0  0  0  0  0  0  0  0  0  0
  187.2610  176.7870  141.9110 N   0  0  0  0  0  0  0  0  0  0  0  0
  186.0630  178.6280  142.9780 C   0  0  0  0  0  3  0  0  0  0  0  0
  189.0250  173.8470  142.6150 O   0  0  0  0  0  0  0  0  0  0  0  0
  191.5280  172.8260  142.6590 N   0  0  0  0  0  0  0  0  0  0  0  0
  190.0170  173.0720  142.6330 C   0  0  0  0  0  0  0  0  0  0  0  0
  190.5810  171.8020  142.5990 C   0  0  1  0  0  3  0  0  0  0  0  0
  190.5580  171.2300  141.1950 C   0  0  0  0  0  2  0  0  0  0  0  0
  189.9450  172.2220  140.2180 C   0  0  0  0  0  2  0  0  0  0  0  0
  191.0650  171.5660  136.0040 C   0  0  0  0  0  2  0  0  0  0  0  0
  191.7760  173.5940  137.3710 C   0  0  0  0  0  2  0  0  0  0  0  0
  190.5530  173.3970  138.2730 C   0  0  0  0  0  2  0  0  0  0  0  0
  189.7090  171.2260  138.1170 C   0  0  0  0  0  2  0  0  0  0  0  0
  190.5770  172.0870  138.9140 N   0  0  0  0  0  0  0  0  0  0  0  0
  192.2290  172.3270  136.6340 C   0  0  2  0  0  3  0  0  0  0  0  0
  190.4990  170.5500  136.9950 C   0  0  0  0  0  2  0  0  0  0  0  0
  193.2010  172.6840  135.6130 N   0  0  0  0  0  2  0  0  0  0  0  0
  194.2290  173.4930  136.2590 C   0  0  1  0  0  3  0  0  0  0  0  0
  195.3580  172.6050  136.7590 C   0  0  0  0  0  1  0  0  0  0  0  0
  194.6490  175.9710  135.9120 C   0  0  0  0  0  1  0  0  0  0  0  0
  196.0920  174.3100  134.9920 O   0  0  0  0  0  1  0  0  0  0  0  0
  194.7610  174.5750  135.3170 C   0  0  1  0  0  3  0  0  0  0  0  0
  197.2280  175.2710  138.6670 C   0  0  0  0  0  0  0  0  0  0  0  0
  197.7780  175.3800  137.6550 N   0  0  0  0  0  0  0  0  0  0  0  0
  2  3  1  0  0  0  0
  2  5  1  0  0  0  0
  3  4  1  0  0  0  0
  6  2  2  0  0  0  0
  7  1  1  6  0  0  0
  7 33  1  0  0  0  0
  7  9  1  0  0  0  0
  8 10  2  0  0  0  0
  8  6  1  0  0  0  0
  9  4  1  6  0  0  0
 10 11  1  0  0  0  0
 11  1  1  0  0  0  0
 11  3  2  0  0  0  0
 13  9  1  0  0  0  0
 13 12  1  1  0  0  0
 13 16  1  0  0  0  0
 14 12  1  6  0  0  0
 15 16  1  0  0  0  0
 15 14  1  0  0  0  0
 15 20  1  1  0  0  0
 16 14  1  0  0  0  0
 18 19  1  0  0  0  0
 19 20  1  0  0  0  0
 19 17  2  0  0  0  0
 21 18  1  0  0  0  0
 21 23  1  0  0  0  0
 21 24  1  0  0  0  0
 23 24  1  0  0  0  0
 23 25  1  0  0  0  0
 24 25  1  0  0  0  0
 25 22  1  0  0  0  0
 26 29  1  0  0  0  0
 27 26  2  0  0  0  0
 27 28  1  0  0  0  0
 28 30  2  0  0  0  0
 29 30  1  0  0  0  0
 29 31  2  0  0  0  0
 31 21  1  0  0  0  0
 32 34  2  0  0  0  0
 34 33  1  0  0  0  0
 35 34  1  0  0  0  0
 35 33  1  0  0  0  0
 36 35  1  0  0  0  0
 37 36  1  0  0  0  0
 38 43  1  0  0  0  0
 38 44  1  0  0  0  0
 39 40  1  0  0  0  0
 40 42  1  0  0  0  0
 41 42  1  0  0  0  0
 42 37  1  0  0  0  0
 43 39  1  0  0  0  0
 44 41  1  0  0  0  0
 45 46  1  0  0  0  0
 45 43  1  0  0  0  0
 46 47  1  0  0  0  0
 49 50  1  0  0  0  0
 50 48  1  0  0  0  0
 50 46  1  0  0  0  0
 51  8  1  0  0  0  0
 52 51  3  0  0  0  0
M  END
>  <MODEL>
6

>  <REMARK>
 VINA RESULT:      -7.0      2.857      7.151
  Name = 
  12 active torsions:
  status: ('A' for Active; 'I' for Inactive)
    1  A    between atoms: C_2  and  N_19
    2  A    between atoms: C_2  and  C_52
    3  A    between atoms: N_6  and  C_29
    4  A    between atoms: N_9  and  C_13
    5  A    between atoms: N_9  and  C_43
    6  A    between atoms: C_10  and  C_30
    7  A    between atoms: C_12  and  C_32
    8  A    between atoms: C_13  and  C_41
    9  A    between atoms: C_26  and  C_33
   10  A    between atoms: C_26  and  N_37
   11  A    between atoms: C_33  and  CA_44
   12  A    between atoms: C_42  and  N_47
                            x       y       z     vdW  Elec       q    Type
                         _______ _______ _______ _____ _____    ______ ____

>  <TORSDO>
F 12

$$$$
=
 OpenBabel11042414283D

 52 60  0  0  1  0  0  0  0  0999 V2000
  193.1640  171.1150  142.9220 C   0  0  0  0  0  2  0  0  0  0  0  0
  196.8110  171.2260  144.0090 C   0  0  0  0  0  0  0  0  0  0  0  0
  195.4340  171.4830  143.9780 C   0  0  0  0  0  0  0  0  0  0  0  0
  194.8240  172.3330  144.9570 N   0  0  0  0  0  2  0  0  0  0  0  0
  197.6370  171.8200  145.0070 N   0  0  0  0  0  1  0  0  0  0  0  0
  197.3700  170.4080  143.0770 N   0  0  0  0  0  0  0  0  0  0  0  0
  192.6100  171.5680  144.2760 C   0  0  1  0  0  3  0  0  0  0  0  0
  196.6260  169.8280  142.0950 C   0  0  0  0  0  0  0  0  0  0  0  0
  193.4230  172.7410  144.8510 C   0  0  2  0  0  3  0  0  0  0  0  0
  195.2470  170.0460  142.0370 C   0  0  0  0  0  3  0  0  0  0  0  0
  194.6430  170.8630  142.9920 C   0  0  0  0  0  0  0  0  0  0  0  0
  194.4760  174.8700  144.1920 N   0  0  0  0  0  2  0  0  0  0  0  0
  193.3110  174.0140  143.9950 C   0  0  2  0  0  3  0  0  0  0  0  0
  193.6220  175.8500  144.8510 C   0  0  1  0  0  3  0  0  0  0  0  0
  192.5300  176.3260  143.9130 C   0  0  1  0  0  3  0  0  0  0  0  0
  192.3840  175.0130  144.6440 C   0  0  1  0  0  3  0  0  0  0  0  0
  189.6600  178.2880  145.0410 O   0  0  0  0  0  0  0  0  0  0  0  0
  189.6100  176.2960  143.8170 N   0  0  0  0  0  2  0  0  0  0  0  0
  190.3020  177.3480  144.5010 C   0  0  0  0  0  0  0  0  0  0  0  0
  191.7280  177.3390  144.5780 N   0  0  0  0  0  2  0  0  0  0  0  0
  188.1820  176.3290  143.5220 C   0  0  1  0  0  0  0  0  0  0  0  0
  186.9900  177.3460  140.2100 C   0  0  0  0  0  1  0  0  0  0  0  0
  187.8170  177.4240  142.5450 C   0  0  1  0  0  3  0  0  0  0  0  0
  187.7580  175.9650  142.1140 C   0  0  2  0  0  3  0  0  0  0  0  0
  186.6980  176.9420  141.6400 C   0  0  2  0  0  3  0  0  0  0  0  0
  185.5320  177.0900  146.2200 C   0  0  0  0  0  3  0  0  0  0  0  0
  185.0730  178.3360  146.3200 C   0  0  0  0  0  2  0  0  0  0  0  0
  185.6910  179.1810  145.3470 N   0  0  0  0  0  0  0  0  0  0  0  0
  186.4820  177.1760  145.1260 C   0  0  0  0  0  0  0  0  0  0  0  0
  186.5110  178.5090  144.6500 N   0  0  0  0  0  0  0  0  0  0  0  0
  187.2200  176.1720  144.6580 C   0  0  0  0  0  2  0  0  0  0  0  0
  189.3220  173.2750  145.5290 O   0  0  0  0  0  0  0  0  0  0  0  0
  191.1950  171.8830  144.1650 N   0  0  0  0  0  0  0  0  0  0  0  0
  189.9310  172.5830  144.6730 C   0  0  0  0  0  0  0  0  0  0  0  0
  189.9930  171.9130  143.4560 C   0  0  1  0  0  3  0  0  0  0  0  0
  190.1230  172.8870  142.3010 C   0  0  0  0  0  2  0  0  0  0  0  0
  190.1530  172.1480  140.9720 C   0  0  0  0  0  2  0  0  0  0  0  0
  192.6180  174.1670  137.9240 C   0  0  0  0  0  2  0  0  0  0  0  0
  193.0800  174.2620  140.4270 C   0  0  0  0  0  2  0  0  0  0  0  0
  191.5980  173.9830  140.6970 C   0  0  0  0  0  2  0  0  0  0  0  0
  190.5510  173.0260  138.8430 C   0  0  0  0  0  2  0  0  0  0  0  0
  191.1880  172.7080  140.1170 N   0  0  0  0  0  0  0  0  0  0  0  0
  193.5730  173.7890  139.0540 C   0  0  2  0  0  3  0  0  0  0  0  0
  191.5830  173.0620  137.7150 C   0  0  0  0  0  2  0  0  0  0  0  0
  194.8920  174.3430  138.7970 N   0  0  0  0  0  2  0  0  0  0  0  0
  195.5950  174.3980  140.0740 C   0  0  1  0  0  3  0  0  0  0  0  0
  196.4460  173.1510  140.2590 C   0  0  0  0  0  1  0  0  0  0  0  0
  196.0500  176.5280  141.3760 C   0  0  0  0  0  1  0  0  0  0  0  0
  197.7970  175.3200  140.2900 O   0  0  0  0  0  1  0  0  0  0  0  0
  196.4480  175.6630  140.1880 C   0  0  1  0  0  3  0  0  0  0  0  0
  197.2550  168.9700  141.1320 C   0  0  0  0  0  0  0  0  0  0  0  0
  197.7660  168.2770  140.3580 N   0  0  0  0  0  0  0  0  0  0  0  0
  1 11  1  0  0  0  0
  2  5  1  0  0  0  0
  3  2  1  0  0  0  0
  3  4  1  0  0  0  0
  6  2  2  0  0  0  0
  7  1  1  6  0  0  0
  7  9  1  0  0  0  0
  8  6  1  0  0  0  0
  9  4  1  6  0  0  0
 10  8  2  0  0  0  0
 10 11  1  0  0  0  0
 11  3  2  0  0  0  0
 13 12  1  1  0  0  0
 13 16  1  0  0  0  0
 13  9  1  0  0  0  0
 14 12  1  6  0  0  0
 15 20  1  1  0  0  0
 15 16  1  0  0  0  0
 15 14  1  0  0  0  0
 16 14  1  0  0  0  0
 18 19  1  0  0  0  0
 19 20  1  0  0  0  0
 19 17  2  0  0  0  0
 21 18  1  0  0  0  0
 21 31  1  0  0  0  0
 22 25  1  0  0  0  0
 23 21  1  0  0  0  0
 24 23  1  0  0  0  0
 24 21  1  0  0  0  0
 25 24  1  0  0  0  0
 25 23  1  0  0  0  0
 26 27  1  0  0  0  0
 28 27  1  0  0  0  0
 29 26  2  0  0  0  0
 30 29  1  0  0  0  0
 30 28  2  0  0  0  0
 31 29  1  0  0  0  0
 33  7  1  0  0  0  0
 33 34  1  0  0  0  0
 34 32  2  0  0  0  0
 35 33  1  0  0  0  0
 35 34  1  0  0  0  0
 36 35  1  0  0  0  0
 37 36  1  0  0  0  0
 38 43  1  0  0  0  0
 39 40  1  0  0  0  0
 41 42  1  0  0  0  0
 42 40  1  0  0  0  0
 42 37  1  0  0  0  0
 43 39  1  0  0  0  0
 44 38  1  0  0  0  0
 44 41  1  0  0  0  0
 45 43  1  0  0  0  0
 45 46  1  0  0  0  0
 46 50  1  0  0  0  0
 46 47  1  0  0  0  0
 50 49  1  0  0  0  0
 50 48  1  0  0  0  0
 51  8  1  0  0  0  0
 52 51  3  0  0  0  0
M  END
>  <MODEL>
7

>  <REMARK>
 VINA RESULT:      -6.9      2.288      5.376
  Name = 
  12 active torsions:
  status: ('A' for Active; 'I' for Inactive)
    1  A    between atoms: C_2  and  N_19
    2  A    between atoms: C_2  and  C_52
    3  A    between atoms: N_6  and  C_29
    4  A    between atoms: N_9  and  C_13
    5  A    between atoms: N_9  and  C_43
    6  A    between atoms: C_10  and  C_30
    7  A    between atoms: C_12  and  C_32
    8  A    between atoms: C_13  and  C_41
    9  A    between atoms: C_26  and  C_33
   10  A    between atoms: C_26  and  N_37
   11  A    between atoms: C_33  and  CA_44
   12  A    between atoms: C_42  and  N_47
                            x       y       z     vdW  Elec       q    Type
                         _______ _______ _______ _____ _____    ______ ____

>  <TORSDO>
F 12

$$$$
=
 OpenBabel11042414283D

 52 60  0  0  1  0  0  0  0  0999 V2000
  195.5250  172.4520  142.5730 C   0  0  0  0  0  2  0  0  0  0  0  0
  196.8760  176.0080  142.4060 C   0  0  0  0  0  0  0  0  0  0  0  0
  196.3210  174.8290  142.9210 C   0  0  0  0  0  0  0  0  0  0  0  0
  195.9970  174.7180  144.3130 N   0  0  0  0  0  2  0  0  0  0  0  0
  197.1120  177.1280  143.2540 N   0  0  0  0  0  1  0  0  0  0  0  0
  197.1870  176.0900  141.0840 N   0  0  0  0  0  0  0  0  0  0  0  0
  195.7350  172.3030  144.0830 C   0  0  1  0  0  3  0  0  0  0  0  0
  196.9670  175.0530  140.2310 C   0  0  0  0  0  0  0  0  0  0  0  0
  195.2730  173.5600  144.8400 C   0  0  2  0  0  3  0  0  0  0  0  0
  196.4290  173.8540  140.7070 C   0  0  0  0  0  3  0  0  0  0  0  0
  196.1200  173.7330  142.0610 C   0  0  0  0  0  0  0  0  0  0  0  0
  193.4600  174.7430  143.6630 N   0  0  0  0  0  2  0  0  0  0  0  0
  193.7580  173.7940  144.7300 C   0  0  2  0  0  3  0  0  0  0  0  0
  193.0220  175.7050  144.6660 C   0  0  1  0  0  3  0  0  0  0  0  0
  191.8660  175.1470  145.4740 C   0  0  1  0  0  3  0  0  0  0  0  0
  193.2850  174.7470  145.8010 C   0  0  1  0  0  3  0  0  0  0  0  0
  189.7510  177.5350  147.2590 O   0  0  0  0  0  0  0  0  0  0  0  0
  189.0920  176.0580  145.5700 N   0  0  0  0  0  2  0  0  0  0  0  0
  190.0700  176.6200  146.4530 C   0  0  0  0  0  0  0  0  0  0  0  0
  191.4160  176.1460  146.4300 N   0  0  0  0  0  2  0  0  0  0  0  0
  187.7550  176.6120  145.3890 C   0  0  1  0  0  0  0  0  0  0  0  0
  185.9310  178.0360  148.2290 C   0  0  0  0  0  1  0  0  0  0  0  0
  186.8780  176.4210  146.6060 C   0  0  1  0  0  3  0  0  0  0  0  0
  187.3820  177.8100  146.2380 C   0  0  2  0  0  3  0  0  0  0  0  0
  185.9740  177.6280  146.7720 C   0  0  2  0  0  3  0  0  0  0  0  0
  186.7810  176.7870  141.6600 C   0  0  0  0  0  3  0  0  0  0  0  0
  187.4660  177.6090  140.8670 C   0  0  0  0  0  3  0  0  0  0  0  0
  188.4820  178.2920  141.6050 N   0  0  0  0  0  0  0  0  0  0  0  0
  187.4120  176.9770  142.9540 C   0  0  0  0  0  0  0  0  0  0  0  0
  188.4540  177.9260  142.8200 N   0  0  0  0  0  0  0  0  0  0  0  0
  187.0590  176.3720  144.0860 C   0  0  0  0  0  3  0  0  0  0  0  0
  194.7780  169.7660  146.9010 O   0  0  0  0  0  0  0  0  0  0  0  0
  195.0820  171.0990  144.5680 N   0  0  0  0  0  0  0  0  0  0  0  0
  194.7080  170.1370  145.7000 C   0  0  0  0  0  0  0  0  0  0  0  0
  194.2060  170.0250  144.4090 C   0  0  1  0  0  3  0  0  0  0  0  0
  192.7860  170.5520  144.3260 C   0  0  0  0  0  2  0  0  0  0  0  0
  192.0910  170.0380  143.0740 C   0  0  0  0  0  2  0  0  0  0  0  0
  190.1610  173.7800  141.7670 C   0  0  0  0  0  2  0  0  0  0  0  0
  191.9060  172.5220  140.4040 C   0  0  0  0  0  2  0  0  0  0  0  0
  192.4540  171.9100  141.6980 C   0  0  0  0  0  2  0  0  0  0  0  0
  190.8900  172.0110  143.4280 C   0  0  0  0  0  2  0  0  0  0  0  0
  191.4280  171.1370  142.3900 N   0  0  0  0  0  0  0  0  0  0  0  0
  190.4480  172.9890  140.4930 C   0  0  2  0  0  3  0  0  0  0  0  0
  189.7220  172.8380  142.8880 C   0  0  0  0  0  2  0  0  0  0  0  0
  190.1250  173.7910  139.3250 N   0  0  0  0  0  2  0  0  0  0  0  0
  189.1650  173.0320  138.5310 C   0  0  1  0  0  3  0  0  0  0  0  0
  188.1910  173.9760  137.8430 C   0  0  0  0  0  1  0  0  0  0  0  0
  189.6890  170.6550  137.8140 C   0  0  0  0  0  1  0  0  0  0  0  0
  189.3970  172.4120  136.2270 O   0  0  0  0  0  1  0  0  0  0  0  0
  189.8700  172.1360  137.5110 C   0  0  1  0  0  3  0  0  0  0  0  0
  197.3110  175.1810  138.8440 C   0  0  0  0  0  0  0  0  0  0  0  0
  197.5850  175.2860  137.7240 N   0  0  0  0  0  0  0  0  0  0  0  0
  2  3  1  0  0  0  0
  2  5  1  0  0  0  0
  3  4  1  0  0  0  0
  6  2  2  0  0  0  0
  7  1  1  6  0  0  0
  7 33  1  0  0  0  0
  7  9  1  0  0  0  0
  8 10  2  0  0  0  0
  8  6  1  0  0  0  0
  9  4  1  6  0  0  0
 10 11  1  0  0  0  0
 11  1  1  0  0  0  0
 11  3  2  0  0  0  0
 13 12  1  6  0  0  0
 13  9  1  0  0  0  0
 13 16  1  0  0  0  0
 14 12  1  6  0  0  0
 14 15  1  0  0  0  0
 14 16  1  0  0  0  0
 15 16  1  0  0  0  0
 15 20  1  1  0  0  0
 18 19  1  0  0  0  0
 19 17  2  0  0  0  0
 20 19  1  0  0  0  0
 21 18  1  0  0  0  0
 21 24  1  0  0  0  0
 21 23  1  0  0  0  0
 23 25  1  0  0  0  0
 24 23  1  0  0  0  0
 24 25  1  0  0  0  0
 25 22  1  0  0  0  0
 26 29  1  0  0  0  0
 27 28  1  0  0  0  0
 27 26  2  0  0  0  0
 28 30  2  0  0  0  0
 29 31  2  0  0  0  0
 30 29  1  0  0  0  0
 31 21  1  0  0  0  0
 33 34  1  0  0  0  0
 34 32  2  0  0  0  0
 35 33  1  0  0  0  0
 35 34  1  0  0  0  0
 36 35  1  0  0  0  0
 37 36  1  0  0  0  0
 38 44  1  0  0  0  0
 39 43  1  0  0  0  0
 39 40  1  0  0  0  0
 40 42  1  0  0  0  0
 42 37  1  0  0  0  0
 42 41  1  0  0  0  0
 43 38  1  0  0  0  0
 44 41  1  0  0  0  0
 45 43  1  0  0  0  0
 46 45  1  0  0  0  0
 47 46  1  0  0  0  0
 49 50  1  0  0  0  0
 50 48  1  0  0  0  0
 50 46  1  0  0  0  0
 51  8  1  0  0  0  0
 52 51  3  0  0  0  0
M  END
>  <MODEL>
8

>  <REMARK>
 VINA RESULT:      -6.8      2.306      6.532
  Name = 
  12 active torsions:
  status: ('A' for Active; 'I' for Inactive)
    1  A    between atoms: C_2  and  N_19
    2  A    between atoms: C_2  and  C_52
    3  A    between atoms: N_6  and  C_29
    4  A    between atoms: N_9  and  C_13
    5  A    between atoms: N_9  and  C_43
    6  A    between atoms: C_10  and  C_30
    7  A    between atoms: C_12  and  C_32
    8  A    between atoms: C_13  and  C_41
    9  A    between atoms: C_26  and  C_33
   10  A    between atoms: C_26  and  N_37
   11  A    between atoms: C_33  and  CA_44
   12  A    between atoms: C_42  and  N_47
                            x       y       z     vdW  Elec       q    Type
                         _______ _______ _______ _____ _____    ______ ____

>  <TORSDO>
F 12

$$$$
=
 OpenBabel11042414283D

 52 60  0  0  1  0  0  0  0  0999 V2000
  195.3060  172.8020  145.3200 C   0  0  0  0  0  2  0  0  0  0  0  0
  194.8680  169.1070  144.5120 C   0  0  0  0  0  0  0  0  0  0  0  0
  194.7880  170.5010  144.4010 C   0  0  0  0  0  0  0  0  0  0  0  0
  194.1530  171.1120  143.2710 N   0  0  0  0  0  2  0  0  0  0  0  0
  194.3040  168.2670  143.5090 N   0  0  0  0  0  1  0  0  0  0  0  0
  195.4830  168.5460  145.5880 N   0  0  0  0  0  0  0  0  0  0  0  0
  195.1020  173.2760  143.8780 C   0  0  1  0  0  3  0  0  0  0  0  0
  196.0250  169.3050  146.5790 C   0  0  0  0  0  0  0  0  0  0  0  0
  193.9170  172.5550  143.2120 C   0  0  2  0  0  3  0  0  0  0  0  0
  195.9790  170.7000  146.5010 C   0  0  0  0  0  3  0  0  0  0  0  0
  195.3730  171.3030  145.3990 C   0  0  0  0  0  0  0  0  0  0  0  0
  191.8650  171.6760  144.2560 N   0  0  0  0  0  2  0  0  0  0  0  0
  192.5710  172.8940  143.8740 C   0  0  2  0  0  3  0  0  0  0  0  0
  190.8590  171.9630  143.2410 C   0  0  1  0  0  3  0  0  0  0  0  0
  190.1900  173.2960  143.5110 C   0  0  1  0  0  3  0  0  0  0  0  0
  191.5380  173.2470  142.8320 C   0  0  1  0  0  3  0  0  0  0  0  0
  187.4370  174.8390  141.6670 O   0  0  0  0  0  0  0  0  0  0  0  0
  188.6180  175.7590  143.4630 N   0  0  0  0  0  2  0  0  0  0  0  0
  188.3630  174.7180  142.5140 C   0  0  0  0  0  0  0  0  0  0  0  0
  189.1580  173.5320  142.5150 N   0  0  0  0  0  2  0  0  0  0  0  0
  187.7380  176.9050  143.6600 C   0  0  1  0  0  0  0  0  0  0  0  0
  185.8340  178.2910  140.8540 C   0  0  0  0  0  1  0  0  0  0  0  0
  187.6710  177.8000  142.4430 C   0  0  1  0  0  3  0  0  0  0  0  0
  186.4690  176.9520  142.8350 C   0  0  2  0  0  3  0  0  0  0  0  0
  186.2670  178.3580  142.3030 C   0  0  2  0  0  3  0  0  0  0  0  0
  186.8850  178.2390  147.1780 C   0  0  0  0  0  3  0  0  0  0  0  0
  185.7400  177.8530  147.7390 C   0  0  0  0  0  2  0  0  0  0  0  0
  185.0260  176.9700  146.8710 N   0  0  0  0  0  0  0  0  0  0  0  0
  186.8720  177.5550  145.8980 C   0  0  0  0  0  0  0  0  0  0  0  0
  185.6820  176.7940  145.7990 N   0  0  0  0  0  0  0  0  0  0  0  0
  187.8130  177.6410  144.9610 C   0  0  0  0  0  2  0  0  0  0  0  0
  194.7670  176.7850  145.5730 O   0  0  0  0  0  0  0  0  0  0  0  0
  194.9590  174.7220  143.8360 N   0  0  0  0  0  0  0  0  0  0  0  0
  194.8520  176.0820  144.5320 C   0  0  0  0  0  0  0  0  0  0  0  0
  194.9650  175.9400  143.1550 C   0  0  1  0  0  3  0  0  0  0  0  0
  196.3770  176.2390  142.6870 C   0  0  0  0  0  2  0  0  0  0  0  0
  196.4230  176.3980  141.1750 C   0  0  0  0  0  2  0  0  0  0  0  0
  194.9370  173.2270  138.4970 C   0  0  0  0  0  2  0  0  0  0  0  0
  196.4860  172.8140  140.4760 C   0  0  0  0  0  2  0  0  0  0  0  0
  196.9830  174.2600  140.3700 C   0  0  0  0  0  2  0  0  0  0  0  0
  195.4800  175.6020  139.1910 C   0  0  0  0  0  2  0  0  0  0  0  0
  195.8850  175.2070  140.5360 N   0  0  0  0  0  0  0  0  0  0  0  0
  195.0980  172.5760  139.8690 C   0  0  2  0  0  3  0  0  0  0  0  0
  194.4110  174.6540  138.6460 C   0  0  0  0  0  2  0  0  0  0  0  0
  194.8510  171.1470  139.7740 N   0  0  0  0  0  2  0  0  0  0  0  0
  193.5860  170.9730  139.0670 C   0  0  1  0  0  3  0  0  0  0  0  0
  193.5400  169.6050  138.4040 C   0  0  0  0  0  1  0  0  0  0  0  0
  191.1740  171.7290  139.2880 C   0  0  0  0  0  1  0  0  0  0  0  0
  192.0610  169.9520  140.6100 O   0  0  0  0  0  1  0  0  0  0  0  0
  192.3930  171.1650  140.0050 C   0  0  1  0  0  3  0  0  0  0  0  0
  196.6660  168.6730  147.6960 C   0  0  0  0  0  0  0  0  0  0  0  0
  197.1860  168.1660  148.5970 N   0  0  0  0  0  0  0  0  0  0  0  0
  1 11  1  0  0  0  0
  2  6  1  0  0  0  0
  3  2  2  0  0  0  0
  3 11  1  0  0  0  0
  4  3  1  0  0  0  0
  5  2  1  0  0  0  0
  6  8  2  0  0  0  0
  7 33  1  1  0  0  0
  7  1  1  0  0  0  0
  8 51  1  0  0  0  0
  9  4  1  1  0  0  0
  9 13  1  0  0  0  0
  9  7  1  0  0  0  0
 10  8  1  0  0  0  0
 11 10  2  0  0  0  0
 13 12  1  6  0  0  0
 14 15  1  0  0  0  0
 14 12  1  1  0  0  0
 15 20  1  6  0  0  0
 16 14  1  0  0  0  0
 16 15  1  0  0  0  0
 16 13  1  0  0  0  0
 17 19  2  0  0  0  0
 18 21  1  0  0  0  0
 19 20  1  0  0  0  0
 19 18  1  0  0  0  0
 21 31  1  0  0  0  0
 22 25  1  0  0  0  0
 23 24  1  0  0  0  0
 23 21  1  0  0  0  0
 24 21  1  0  0  0  0
 25 23  1  0  0  0  0
 25 24  1  0  0  0  0
 26 27  1  0  0  0  0
 28 27  1  0  0  0  0
 29 26  2  0  0  0  0
 30 29  1  0  0  0  0
 30 28  2  0  0  0  0
 31 29  1  0  0  0  0
 33 34  1  0  0  0  0
 34 32  2  0  0  0  0
 35 33  1  0  0  0  0
 35 34  1  0  0  0  0
 36 35  1  0  0  0  0
 37 36  1  0  0  0  0
 38 44  1  0  0  0  0
 38 43  1  0  0  0  0
 40 39  1  0  0  0  0
 40 42  1  0  0  0  0
 41 42  1  0  0  0  0
 42 37  1  0  0  0  0
 43 39  1  0  0  0  0
 44 41  1  0  0  0  0
 45 43  1  0  0  0  0
 46 45  1  0  0  0  0
 46 50  1  0  0  0  0
 47 46  1  0  0  0  0
 48 50  1  0  0  0  0
 50 49  1  0  0  0  0
 51 52  3  0  0  0  0
M  END
>  <MODEL>
9

>  <REMARK>
 VINA RESULT:      -6.6      1.985      4.271
  Name = 
  12 active torsions:
  status: ('A' for Active; 'I' for Inactive)
    1  A    between atoms: C_2  and  N_19
    2  A    between atoms: C_2  and  C_52
    3  A    between atoms: N_6  and  C_29
    4  A    between atoms: N_9  and  C_13
    5  A    between atoms: N_9  and  C_43
    6  A    between atoms: C_10  and  C_30
    7  A    between atoms: C_12  and  C_32
    8  A    between atoms: C_13  and  C_41
    9  A    between atoms: C_26  and  C_33
   10  A    between atoms: C_26  and  N_37
   11  A    between atoms: C_33  and  CA_44
   12  A    between atoms: C_42  and  N_47
                            x       y       z     vdW  Elec       q    Type
                         _______ _______ _______ _____ _____    ______ ____

>  <TORSDO>
F 12

$$$$
