=
 OpenBabel11042417493D

 25 28  0  0  1  0  0  0  0  0999 V2000
  185.1910  177.1700  142.7850 N   0  0  0  0  0  0  0  0  0  0  0  0
  187.2910  176.4520  143.5190 C   0  0  1  0  0  3  0  0  0  0  0  0
  186.5710  177.2310  144.5860 C   0  0  0  0  0  0  0  0  0  0  0  0
  187.0140  177.4450  145.8400 C   0  0  0  0  0  0  0  0  0  0  0  0
  185.1850  178.9000  146.7510 N   0  0  0  0  0  0  0  0  0  0  0  0
  186.3190  176.4250  142.4370 N   0  0  0  0  0  2  0  0  0  0  0  0
  186.3260  178.2880  146.8330 C   0  0  0  0  0  3  0  0  0  0  0  0
  184.1990  178.9800  145.7170 C   0  0  0  0  0  3  0  0  0  0  0  0
  185.3090  177.6400  143.9770 C   0  0  0  0  0  0  0  0  0  0  0  0
  184.2720  178.4330  144.5470 N   0  0  0  0  0  0  0  0  0  0  0  0
  188.3550  175.6770  146.8700 N   0  0  0  0  0  0  0  0  0  0  0  0
  189.6050  177.5410  146.3020 C   0  0  0  0  0  2  0  0  0  0  0  0
  190.5370  176.5090  146.9380 C   0  0  2  0  0  3  0  0  0  0  0  0
  189.6620  175.3970  147.2630 N   0  0  0  0  0  2  0  0  0  0  0  0
  188.2830  176.8390  146.3200 C   0  0  0  0  0  0  0  0  0  0  0  0
  191.1150  177.0560  148.1670 C   0  0  0  0  0  0  0  0  0  0  0  0
  191.5720  177.4880  149.1390 N   0  0  0  0  0  0  0  0  0  0  0  0
  188.5080  177.1980  143.0630 C   0  0  0  0  0  3  0  0  0  0  0  0
  189.6760  176.6250  142.7640 C   0  0  0  0  0  3  0  0  0  0  0  0
  189.9780  175.1850  142.8510 C   0  0  0  0  0  0  0  0  0  0  0  0
  190.0830  173.0340  142.3020 N   0  0  0  0  0  0  0  0  0  0  0  0
  190.6870  173.2760  143.4880 C   0  0  0  0  0  3  0  0  0  0  0  0
  189.6450  174.2410  141.9160 C   0  0  0  0  0  0  0  0  0  0  0  0
  188.9410  174.4790  140.7020 N   0  0  0  0  0  1  0  0  0  0  0  0
  190.6420  174.5790  143.8510 N   0  0  0  0  0  2  0  0  0  0  0  0
  1  9  2  0  0  0  0
  2 18  1  6  0  0  0
  2  3  1  0  0  0  0
  3  4  2  0  0  0  0
  4 15  1  0  0  0  0
  4  7  1  0  0  0  0
  5  7  2  0  0  0  0
  6  1  1  0  0  0  0
  6  2  1  0  0  0  0
  8  5  1  0  0  0  0
  9 10  1  0  0  0  0
  9  3  1  0  0  0  0
 10  8  2  0  0  0  0
 11 14  1  0  0  0  0
 12 15  1  0  0  0  0
 12 13  1  0  0  0  0
 13 14  1  0  0  0  0
 13 16  1  1  0  0  0
 15 11  2  0  0  0  0
 16 17  3  0  0  0  0
 19 20  1  0  0  0  0
 19 18  2  0  0  0  0
 20 25  1  0  0  0  0
 21 22  2  0  0  0  0
 22 25  1  0  0  0  0
 23 21  1  0  0  0  0
 23 20  2  0  0  0  0
 24 23  1  0  0  0  0
M  END
>  <MODEL>
1

>  <REMARK>
 VINA RESULT:      -6.8      0.000      0.000
  Name = 
  4 active torsions:
  status: ('A' for Active; 'I' for Inactive)
    1  A    between atoms: C_3  and  C_6
    2  A    between atoms: C_4  and  C_16
    3  A    between atoms: C_8  and  C_12
    4  A    between atoms: C_10  and  C_22
                            x       y       z     vdW  Elec       q    Type
                         _______ _______ _______ _____ _____    ______ ____

>  <TORSDO>
F 4

$$$$
=
 OpenBabel11042417493D

 25 28  0  0  1  0  0  0  0  0999 V2000
  186.6840  178.5390  147.6140 N   0  0  0  0  0  0  0  0  0  0  0  0
  188.1690  177.2580  146.3430 C   0  0  1  0  0  3  0  0  0  0  0  0
  186.9350  177.6150  145.5570 C   0  0  0  0  0  0  0  0  0  0  0  0
  186.7130  177.3160  144.2630 C   0  0  0  0  0  0  0  0  0  0  0  0
  184.3960  178.2290  143.9550 N   0  0  0  0  0  0  0  0  0  0  0  0
  187.9390  177.9280  147.6130 N   0  0  0  0  0  2  0  0  0  0  0  0
  185.4560  177.6020  143.5470 C   0  0  0  0  0  3  0  0  0  0  0  0
  184.0590  178.8630  145.1930 C   0  0  0  0  0  3  0  0  0  0  0  0
  186.0970  178.3720  146.4810 C   0  0  0  0  0  0  0  0  0  0  0  0
  184.8010  178.9140  146.2520 N   0  0  0  0  0  0  0  0  0  0  0  0
  188.8020  177.2250  142.9930 N   0  0  0  0  0  0  0  0  0  0  0  0
  187.6440  175.2210  142.9660 C   0  0  0  0  0  2  0  0  0  0  0  0
  188.9210  175.0530  142.1440 C   0  0  2  0  0  3  0  0  0  0  0  0
  189.5610  176.3540  142.2150 N   0  0  0  0  0  2  0  0  0  0  0  0
  187.7480  176.6370  143.4410 C   0  0  0  0  0  0  0  0  0  0  0  0
  188.5780  174.7490  140.7530 C   0  0  0  0  0  0  0  0  0  0  0  0
  188.3060  174.5080  139.6540 N   0  0  0  0  0  0  0  0  0  0  0  0
  188.2260  175.7780  146.5750 C   0  0  0  0  0  3  0  0  0  0  0  0
  189.3350  175.0420  146.4760 C   0  0  0  0  0  3  0  0  0  0  0  0
  190.6710  175.5400  146.1020 C   0  0  0  0  0  0  0  0  0  0  0  0
  192.6610  176.5160  146.2700 N   0  0  0  0  0  0  0  0  0  0  0  0
  192.4670  175.9860  145.0400 C   0  0  0  0  0  3  0  0  0  0  0  0
  191.5260  176.2260  146.9220 C   0  0  2  0  0  3  0  0  0  0  0  0
  191.2740  176.5900  148.2750 N   0  0  0  0  0  1  0  0  0  0  0  0
  191.2640  175.3810  144.9050 N   0  0  0  0  0  0  0  0  0  0  0  0
  2 18  1  1  0  0  0
  2  6  1  0  0  0  0
  3  2  1  0  0  0  0
  3  9  1  0  0  0  0
  4  3  2  0  0  0  0
  5  8  1  0  0  0  0
  6  1  1  0  0  0  0
  7  5  2  0  0  0  0
  7  4  1  0  0  0  0
  8 10  2  0  0  0  0
  9  1  2  0  0  0  0
 10  9  1  0  0  0  0
 11 15  2  0  0  0  0
 12 15  1  0  0  0  0
 13 16  1  6  0  0  0
 13 14  1  0  0  0  0
 13 12  1  0  0  0  0
 14 11  1  0  0  0  0
 15  4  1  0  0  0  0
 17 16  3  0  0  0  0
 19 18  2  0  0  0  0
 20 19  1  0  0  0  0
 20 23  1  0  0  0  0
 21 23  1  0  0  0  0
 22 21  2  0  0  0  0
 23 24  1  1  0  0  0
 25 22  1  0  0  0  0
 25 20  2  0  0  0  0
M  END
>  <MODEL>
2

>  <REMARK>
 VINA RESULT:      -6.6      1.566      4.786
  Name = 
  4 active torsions:
  status: ('A' for Active; 'I' for Inactive)
    1  A    between atoms: C_3  and  C_6
    2  A    between atoms: C_4  and  C_16
    3  A    between atoms: C_8  and  C_12
    4  A    between atoms: C_10  and  C_22
                            x       y       z     vdW  Elec       q    Type
                         _______ _______ _______ _____ _____    ______ ____

>  <TORSDO>
F 4

$$$$
=
 OpenBabel11042417493D

 25 28  0  0  1  0  0  0  0  0999 V2000
  188.4900  175.9360  141.5030 N   0  0  0  0  0  0  0  0  0  0  0  0
  187.7290  176.5760  143.6180 C   0  0  1  0  0  3  0  0  0  0  0  0
  186.7910  177.0330  142.5340 C   0  0  0  0  0  0  0  0  0  0  0  0
  185.6180  177.6670  142.7230 C   0  0  0  0  0  0  0  0  0  0  0  0
  184.9090  178.0730  140.3510 N   0  0  0  0  0  0  0  0  0  0  0  0
  188.7450  175.8500  142.8730 N   0  0  0  0  0  2  0  0  0  0  0  0
  184.7650  178.1810  141.6360 C   0  0  0  0  0  3  0  0  0  0  0  0
  185.8960  177.4370  139.5340 C   0  0  0  0  0  3  0  0  0  0  0  0
  187.4090  176.6000  141.2850 C   0  0  0  0  0  0  0  0  0  0  0  0
  186.9490  176.8130  139.9540 N   0  0  0  0  0  0  0  0  0  0  0  0
  184.4790  178.9990  144.4300 N   0  0  0  0  0  0  0  0  0  0  0  0
  185.2830  176.9860  145.2450 C   0  0  0  0  0  2  0  0  0  0  0  0
  184.5990  177.7330  146.3900 C   0  0  2  0  0  3  0  0  0  0  0  0
  184.1450  178.9710  145.7820 N   0  0  0  0  0  2  0  0  0  0  0  0
  185.0900  177.9180  144.0890 C   0  0  0  0  0  0  0  0  0  0  0  0
  185.5760  178.0300  147.4400 C   0  0  0  0  0  0  0  0  0  0  0  0
  186.3470  178.2630  148.2710 N   0  0  0  0  0  0  0  0  0  0  0  0
  188.3650  177.7580  144.2870 C   0  0  0  0  0  3  0  0  0  0  0  0
  189.0570  177.6970  145.4270 C   0  0  0  0  0  3  0  0  0  0  0  0
  189.2930  176.4840  146.2300 C   0  0  0  0  0  0  0  0  0  0  0  0
  190.3710  174.8550  147.2900 N   0  0  0  0  0  0  0  0  0  0  0  0
  189.0310  174.7450  147.4390 C   0  0  0  0  0  3  0  0  0  0  0  0
  190.5170  175.9500  146.5310 C   0  0  0  0  0  0  0  0  0  0  0  0
  191.7780  176.4650  146.1150 N   0  0  0  0  0  1  0  0  0  0  0  0
  188.3440  175.7240  146.8050 N   0  0  0  0  0  2  0  0  0  0  0  0
  1  6  1  0  0  0  0
  2 18  1  6  0  0  0
  3  4  2  0  0  0  0
  3  2  1  0  0  0  0
  4 15  1  0  0  0  0
  5  7  2  0  0  0  0
  6  2  1  0  0  0  0
  7  4  1  0  0  0  0
  8 10  2  0  0  0  0
  8  5  1  0  0  0  0
  9  1  2  0  0  0  0
  9  3  1  0  0  0  0
 10  9  1  0  0  0  0
 11 14  1  0  0  0  0
 12 13  1  0  0  0  0
 13 16  1  1  0  0  0
 14 13  1  0  0  0  0
 15 11  2  0  0  0  0
 15 12  1  0  0  0  0
 16 17  3  0  0  0  0
 18 19  2  0  0  0  0
 19 20  1  0  0  0  0
 20 23  2  0  0  0  0
 20 25  1  0  0  0  0
 21 22  2  0  0  0  0
 23 21  1  0  0  0  0
 24 23  1  0  0  0  0
 25 22  1  0  0  0  0
M  END
>  <MODEL>
3

>  <REMARK>
 VINA RESULT:      -6.6      2.020      4.737
  Name = 
  4 active torsions:
  status: ('A' for Active; 'I' for Inactive)
    1  A    between atoms: C_3  and  C_6
    2  A    between atoms: C_4  and  C_16
    3  A    between atoms: C_8  and  C_12
    4  A    between atoms: C_10  and  C_22
                            x       y       z     vdW  Elec       q    Type
                         _______ _______ _______ _____ _____    ______ ____

>  <TORSDO>
F 4

$$$$
=
 OpenBabel11042417493D

 25 28  0  0  1  0  0  0  0  0999 V2000
  186.7470  178.2440  146.9390 N   0  0  0  0  0  0  0  0  0  0  0  0
  188.4750  176.9170  146.0930 C   0  0  1  0  0  3  0  0  0  0  0  0
  187.3900  177.1290  145.0710 C   0  0  0  0  0  0  0  0  0  0  0  0
  187.4110  176.6880  143.7980 C   0  0  0  0  0  0  0  0  0  0  0  0
  185.1580  177.4460  142.9950 N   0  0  0  0  0  0  0  0  0  0  0  0
  188.0020  177.7010  147.2220 N   0  0  0  0  0  2  0  0  0  0  0  0
  186.2940  176.8340  142.8480 C   0  0  0  0  0  3  0  0  0  0  0  0
  184.5870  178.1840  144.0780 C   0  0  0  0  0  3  0  0  0  0  0  0
  186.3770  177.9320  145.7470 C   0  0  0  0  0  0  0  0  0  0  0  0
  185.1250  178.3810  145.2380 N   0  0  0  0  0  0  0  0  0  0  0  0
  189.6920  176.5760  142.9200 N   0  0  0  0  0  0  0  0  0  0  0  0
  188.6280  174.5200  142.9290 C   0  0  0  0  0  2  0  0  0  0  0  0
  190.0340  174.3340  142.3600 C   0  0  2  0  0  3  0  0  0  0  0  0
  190.6060  175.6680  142.3890 N   0  0  0  0  0  2  0  0  0  0  0  0
  188.5970  175.9820  143.2480 C   0  0  0  0  0  0  0  0  0  0  0  0
  189.9500  173.8640  140.9760 C   0  0  0  0  0  0  0  0  0  0  0  0
  189.8840  173.4930  139.8810 N   0  0  0  0  0  0  0  0  0  0  0  0
  188.5380  175.4740  146.4920 C   0  0  0  0  0  3  0  0  0  0  0  0
  189.6690  174.7780  146.6310 C   0  0  0  0  0  3  0  0  0  0  0  0
  191.0310  175.2900  146.3940 C   0  0  0  0  0  0  0  0  0  0  0  0
  192.9220  176.4170  146.6970 N   0  0  0  0  0  0  0  0  0  0  0  0
  192.9690  175.6540  145.5800 C   0  0  0  0  0  3  0  0  0  0  0  0
  191.7010  176.1750  147.1950 C   0  0  2  0  0  3  0  0  0  0  0  0
  191.2000  176.7670  148.3880 N   0  0  0  0  0  1  0  0  0  0  0  0
  191.8310  174.9520  145.3680 N   0  0  0  0  0  0  0  0  0  0  0  0
  1  6  1  0  0  0  0
  2 18  1  1  0  0  0
  2  6  1  0  0  0  0
  3  9  1  0  0  0  0
  3  2  1  0  0  0  0
  4  3  2  0  0  0  0
  5  8  1  0  0  0  0
  7  5  2  0  0  0  0
  7  4  1  0  0  0  0
  8 10  2  0  0  0  0
  9  1  2  0  0  0  0
 10  9  1  0  0  0  0
 11 15  2  0  0  0  0
 12 15  1  0  0  0  0
 13 16  1  6  0  0  0
 13 14  1  0  0  0  0
 13 12  1  0  0  0  0
 14 11  1  0  0  0  0
 15  4  1  0  0  0  0
 17 16  3  0  0  0  0
 18 19  2  0  0  0  0
 20 19  1  0  0  0  0
 20 23  1  0  0  0  0
 21 23  1  0  0  0  0
 22 21  2  0  0  0  0
 23 24  1  1  0  0  0
 25 22  1  0  0  0  0
 25 20  2  0  0  0  0
M  END
>  <MODEL>
4

>  <REMARK>
 VINA RESULT:      -6.4      1.566      4.832
  Name = 
  4 active torsions:
  status: ('A' for Active; 'I' for Inactive)
    1  A    between atoms: C_3  and  C_6
    2  A    between atoms: C_4  and  C_16
    3  A    between atoms: C_8  and  C_12
    4  A    between atoms: C_10  and  C_22
                            x       y       z     vdW  Elec       q    Type
                         _______ _______ _______ _____ _____    ______ ____

>  <TORSDO>
F 4

$$$$
=
 OpenBabel11042417493D

 25 28  0  0  1  0  0  0  0  0999 V2000
  187.0050  177.9520  147.9610 N   0  0  0  0  0  0  0  0  0  0  0  0
  188.1220  177.3040  146.0130 C   0  0  1  0  0  3  0  0  0  0  0  0
  186.7240  177.7760  145.7160 C   0  0  0  0  0  0  0  0  0  0  0  0
  186.1760  177.8940  144.4910 C   0  0  0  0  0  0  0  0  0  0  0  0
  183.8500  178.6290  145.0780 N   0  0  0  0  0  0  0  0  0  0  0  0
  188.2230  177.4990  147.4500 N   0  0  0  0  0  2  0  0  0  0  0  0
  184.7740  178.2730  144.2390 C   0  0  0  0  0  3  0  0  0  0  0  0
  183.8390  178.7890  146.4990 C   0  0  0  0  0  3  0  0  0  0  0  0
  186.1460  178.1060  147.0140 C   0  0  0  0  0  0  0  0  0  0  0  0
  184.8290  178.5650  147.3020 N   0  0  0  0  0  0  0  0  0  0  0  0
  187.8830  178.4120  142.8160 N   0  0  0  0  0  0  0  0  0  0  0  0
  186.7410  176.4500  142.3620 C   0  0  0  0  0  2  0  0  0  0  0  0
  187.7720  176.6760  141.2570 C   0  0  2  0  0  3  0  0  0  0  0  0
  188.4180  177.9220  141.6270 N   0  0  0  0  0  2  0  0  0  0  0  0
  186.9690  177.6220  143.2640 C   0  0  0  0  0  0  0  0  0  0  0  0
  187.0910  176.8380  139.9700 C   0  0  0  0  0  0  0  0  0  0  0  0
  186.5540  176.9670  138.9530 N   0  0  0  0  0  0  0  0  0  0  0  0
  188.2520  175.8420  145.7080 C   0  0  0  0  0  3  0  0  0  0  0  0
  189.3080  175.2870  145.1080 C   0  0  0  0  0  3  0  0  0  0  0  0
  190.5010  176.0060  144.6240 C   0  0  0  0  0  0  0  0  0  0  0  0
  192.4550  177.0630  144.6430 N   0  0  0  0  0  0  0  0  0  0  0  0
  191.9670  176.9400  143.3880 C   0  0  0  0  0  3  0  0  0  0  0  0
  191.5240  176.4710  145.4050 C   0  0  2  0  0  3  0  0  0  0  0  0
  191.6140  176.3550  146.8210 N   0  0  0  0  0  1  0  0  0  0  0  0
  190.7770  176.2980  143.3410 N   0  0  0  0  0  0  0  0  0  0  0  0
  2 18  1  1  0  0  0
  2  6  1  0  0  0  0
  3  2  1  0  0  0  0
  3  9  1  0  0  0  0
  4  3  2  0  0  0  0
  5  8  1  0  0  0  0
  6  1  1  0  0  0  0
  7  4  1  0  0  0  0
  7  5  2  0  0  0  0
  8 10  2  0  0  0  0
  9 10  1  0  0  0  0
  9  1  2  0  0  0  0
 11 15  2  0  0  0  0
 12 15  1  0  0  0  0
 13 16  1  6  0  0  0
 13 14  1  0  0  0  0
 13 12  1  0  0  0  0
 14 11  1  0  0  0  0
 15  4  1  0  0  0  0
 17 16  3  0  0  0  0
 19 18  2  0  0  0  0
 20 19  1  0  0  0  0
 20 23  1  0  0  0  0
 21 23  1  0  0  0  0
 22 21  2  0  0  0  0
 23 24  1  6  0  0  0
 25 22  1  0  0  0  0
 25 20  2  0  0  0  0
M  END
>  <MODEL>
5

>  <REMARK>
 VINA RESULT:      -6.3      2.077      4.870
  Name = 
  4 active torsions:
  status: ('A' for Active; 'I' for Inactive)
    1  A    between atoms: C_3  and  C_6
    2  A    between atoms: C_4  and  C_16
    3  A    between atoms: C_8  and  C_12
    4  A    between atoms: C_10  and  C_22
                            x       y       z     vdW  Elec       q    Type
                         _______ _______ _______ _____ _____    ______ ____

>  <TORSDO>
F 4

$$$$
=
 OpenBabel11042417493D

 25 28  0  0  1  0  0  0  0  0999 V2000
  184.6300  177.7900  143.4800 N   0  0  0  0  0  0  0  0  0  0  0  0
  186.8230  177.0000  143.6530 C   0  0  1  0  0  3  0  0  0  0  0  0
  186.3210  177.5280  144.9700 C   0  0  0  0  0  0  0  0  0  0  0  0
  186.9930  177.4980  146.1370 C   0  0  0  0  0  0  0  0  0  0  0  0
  185.3790  178.6890  147.6450 N   0  0  0  0  0  0  0  0  0  0  0  0
  185.6670  177.1630  142.7870 N   0  0  0  0  0  2  0  0  0  0  0  0
  186.5100  178.1050  147.3910 C   0  0  0  0  0  3  0  0  0  0  0  0
  184.2190  178.9460  146.8490 C   0  0  0  0  0  3  0  0  0  0  0  0
  184.9720  178.0140  144.7000 C   0  0  0  0  0  0  0  0  0  0  0  0
  184.0680  178.6470  145.6000 N   0  0  0  0  0  0  0  0  0  0  0  0
  189.4150  177.3770  145.8140 N   0  0  0  0  0  0  0  0  0  0  0  0
  188.5380  175.4640  146.7780 C   0  0  0  0  0  2  0  0  0  0  0  0
  190.0460  175.2770  146.6190 C   0  0  2  0  0  3  0  0  0  0  0  0
  190.4920  176.5140  146.0040 N   0  0  0  0  0  2  0  0  0  0  0  0
  188.3230  176.8450  146.2430 C   0  0  0  0  0  0  0  0  0  0  0  0
  190.3140  174.1540  145.7180 C   0  0  0  0  0  0  0  0  0  0  0  0
  190.5260  173.2670  145.0070 N   0  0  0  0  0  0  0  0  0  0  0  0
  187.9410  177.8570  143.1410 C   0  0  0  0  0  3  0  0  0  0  0  0
  188.9510  177.4110  142.3910 C   0  0  0  0  0  3  0  0  0  0  0  0
  189.1550  176.0150  141.9610 C   0  0  0  0  0  0  0  0  0  0  0  0
  190.1450  174.0530  141.6300 N   0  0  0  0  0  0  0  0  0  0  0  0
  188.8710  174.0520  141.1750 C   0  0  0  0  0  3  0  0  0  0  0  0
  190.3050  175.2910  142.1200 C   0  0  2  0  0  3  0  0  0  0  0  0
  191.5100  175.7570  142.7180 N   0  0  0  0  0  1  0  0  0  0  0  0
  188.2380  175.2340  141.3630 N   0  0  0  0  0  0  0  0  0  0  0  0
  1  9  2  0  0  0  0
  2 18  1  6  0  0  0
  2  3  1  0  0  0  0
  3  4  2  0  0  0  0
  4 15  1  0  0  0  0
  4  7  1  0  0  0  0
  6  1  1  0  0  0  0
  6  2  1  0  0  0  0
  7  5  2  0  0  0  0
  8  5  1  0  0  0  0
  9  3  1  0  0  0  0
  9 10  1  0  0  0  0
 10  8  2  0  0  0  0
 11 14  1  0  0  0  0
 11 15  2  0  0  0  0
 13 16  1  6  0  0  0
 13 12  1  0  0  0  0
 14 13  1  0  0  0  0
 15 12  1  0  0  0  0
 17 16  3  0  0  0  0
 19 18  2  0  0  0  0
 20 23  1  0  0  0  0
 20 19  1  0  0  0  0
 21 23  1  0  0  0  0
 22 25  1  0  0  0  0
 22 21  2  0  0  0  0
 23 24  1  1  0  0  0
 25 20  2  0  0  0  0
M  END
>  <MODEL>
6

>  <REMARK>
 VINA RESULT:      -6.2      1.467      2.156
  Name = 
  4 active torsions:
  status: ('A' for Active; 'I' for Inactive)
    1  A    between atoms: C_3  and  C_6
    2  A    between atoms: C_4  and  C_16
    3  A    between atoms: C_8  and  C_12
    4  A    between atoms: C_10  and  C_22
                            x       y       z     vdW  Elec       q    Type
                         _______ _______ _______ _____ _____    ______ ____

>  <TORSDO>
F 4

$$$$
=
 OpenBabel11042417493D

 25 28  0  0  1  0  0  0  0  0999 V2000
  191.5450  173.6630  142.3850 N   0  0  0  0  0  0  0  0  0  0  0  0
  190.0430  175.3120  143.0830 C   0  0  1  0  0  3  0  0  0  0  0  0
  189.6550  174.7430  141.7450 C   0  0  0  0  0  0  0  0  0  0  0  0
  188.5510  175.0640  141.0430 C   0  0  0  0  0  0  0  0  0  0  0  0
  188.8850  173.6870  138.9730 N   0  0  0  0  0  0  0  0  0  0  0  0
  191.2210  174.5320  143.4280 N   0  0  0  0  0  2  0  0  0  0  0  0
  188.2450  174.5550  139.6940 C   0  0  0  0  0  3  0  0  0  0  0  0
  190.0720  172.9210  139.2010 C   0  0  0  0  0  3  0  0  0  0  0  0
  190.6920  173.7660  141.4270 C   0  0  0  0  0  0  0  0  0  0  0  0
  190.8210  172.9690  140.2550 N   0  0  0  0  0  0  0  0  0  0  0  0
  186.7060  175.6880  142.5250 N   0  0  0  0  0  0  0  0  0  0  0  0
  187.3030  177.3830  141.0650 C   0  0  0  0  0  2  0  0  0  0  0  0
  186.1470  177.8780  141.9330 C   0  0  2  0  0  3  0  0  0  0  0  0
  185.8460  176.7490  142.7960 N   0  0  0  0  0  2  0  0  0  0  0  0
  187.5360  176.0010  141.5910 C   0  0  0  0  0  0  0  0  0  0  0  0
  184.9870  178.1760  141.0900 C   0  0  0  0  0  0  0  0  0  0  0  0
  184.0710  178.4130  140.4240 N   0  0  0  0  0  0  0  0  0  0  0  0
  190.4360  176.7520  142.9400 C   0  0  0  0  0  3  0  0  0  0  0  0
  190.0910  177.7160  143.7970 C   0  0  0  0  0  3  0  0  0  0  0  0
  189.2560  177.5430  145.0000 C   0  0  0  0  0  0  0  0  0  0  0  0
  188.6790  177.0710  147.0930 N   0  0  0  0  0  0  0  0  0  0  0  0
  187.6240  177.5190  146.3740 C   0  0  0  0  0  3  0  0  0  0  0  0
  189.6930  177.0940  146.2170 C   0  0  2  0  0  3  0  0  0  0  0  0
  191.0250  176.7040  146.5350 N   0  0  0  0  0  1  0  0  0  0  0  0
  187.9430  177.8180  145.0920 N   0  0  0  0  0  0  0  0  0  0  0  0
  1  6  1  0  0  0  0
  2 18  1  6  0  0  0
  2  6  1  0  0  0  0
  3  2  1  0  0  0  0
  4 15  1  0  0  0  0
  4  3  2  0  0  0  0
  5  8  1  0  0  0  0
  5  7  2  0  0  0  0
  7  4  1  0  0  0  0
  8 10  2  0  0  0  0
  9  3  1  0  0  0  0
  9  1  2  0  0  0  0
 10  9  1  0  0  0  0
 11 14  1  0  0  0  0
 12 15  1  0  0  0  0
 12 13  1  0  0  0  0
 13 16  1  6  0  0  0
 13 14  1  0  0  0  0
 15 11  2  0  0  0  0
 17 16  3  0  0  0  0
 18 19  2  0  0  0  0
 19 20  1  0  0  0  0
 20 25  2  0  0  0  0
 20 23  1  0  0  0  0
 22 21  2  0  0  0  0
 23 24  1  1  0  0  0
 23 21  1  0  0  0  0
 25 22  1  0  0  0  0
M  END
>  <MODEL>
7

>  <REMARK>
 VINA RESULT:      -6.1      1.890      6.742
  Name = 
  4 active torsions:
  status: ('A' for Active; 'I' for Inactive)
    1  A    between atoms: C_3  and  C_6
    2  A    between atoms: C_4  and  C_16
    3  A    between atoms: C_8  and  C_12
    4  A    between atoms: C_10  and  C_22
                            x       y       z     vdW  Elec       q    Type
                         _______ _______ _______ _____ _____    ______ ____

>  <TORSDO>
F 4

$$$$
=
 OpenBabel11042417493D

 25 28  0  0  1  0  0  0  0  0999 V2000
  185.9510  178.6280  147.4420 N   0  0  0  0  0  0  0  0  0  0  0  0
  187.7310  177.4940  146.4390 C   0  0  1  0  0  3  0  0  0  0  0  0
  186.6770  177.8670  145.4320 C   0  0  0  0  0  0  0  0  0  0  0  0
  186.7480  177.6580  144.1030 C   0  0  0  0  0  0  0  0  0  0  0  0
  184.5090  178.5150  143.3650 N   0  0  0  0  0  0  0  0  0  0  0  0
  187.2060  178.0600  147.6710 N   0  0  0  0  0  2  0  0  0  0  0  0
  185.6600  177.9540  143.1540 C   0  0  0  0  0  3  0  0  0  0  0  0
  183.8870  179.0440  144.5400 C   0  0  0  0  0  3  0  0  0  0  0  0
  185.6260  178.5260  146.2010 C   0  0  0  0  0  0  0  0  0  0  0  0
  184.3840  179.0410  145.7350 N   0  0  0  0  0  0  0  0  0  0  0  0
  188.2280  175.8150  143.4720 N   0  0  0  0  0  0  0  0  0  0  0  0
  189.0640  177.8880  142.8700 C   0  0  0  0  0  2  0  0  0  0  0  0
  190.0650  176.8180  142.4350 C   0  0  2  0  0  3  0  0  0  0  0  0
  189.4570  175.5710  142.8630 N   0  0  0  0  0  2  0  0  0  0  0  0
  187.9650  177.0750  143.4800 C   0  0  0  0  0  0  0  0  0  0  0  0
  191.3350  177.0130  143.1380 C   0  0  0  0  0  0  0  0  0  0  0  0
  192.3390  177.1660  143.6920 N   0  0  0  0  0  0  0  0  0  0  0  0
  187.8080  176.0030  146.5810 C   0  0  0  0  0  3  0  0  0  0  0  0
  188.9120  175.3350  146.9250 C   0  0  0  0  0  3  0  0  0  0  0  0
  190.2320  175.9310  147.1950 C   0  0  0  0  0  0  0  0  0  0  0  0
  192.4230  176.2940  147.0920 N   0  0  0  0  0  0  0  0  0  0  0  0
  191.8110  177.1660  147.9270 C   0  0  0  0  0  3  0  0  0  0  0  0
  191.4180  175.5290  146.6420 C   0  0  0  0  0  0  0  0  0  0  0  0
  191.5890  174.4600  145.7170 N   0  0  0  0  0  1  0  0  0  0  0  0
  190.4740  176.9720  148.0110 N   0  0  0  0  0  2  0  0  0  0  0  0
  1  6  1  0  0  0  0
  2 18  1  1  0  0  0
  2  6  1  0  0  0  0
  3  9  1  0  0  0  0
  3  2  1  0  0  0  0
  4  3  2  0  0  0  0
  5  8  1  0  0  0  0
  7  5  2  0  0  0  0
  7  4  1  0  0  0  0
  8 10  2  0  0  0  0
  9  1  2  0  0  0  0
 10  9  1  0  0  0  0
 11 15  2  0  0  0  0
 12 15  1  0  0  0  0
 13 14  1  0  0  0  0
 13 12  1  0  0  0  0
 13 16  1  1  0  0  0
 14 11  1  0  0  0  0
 15  4  1  0  0  0  0
 16 17  3  0  0  0  0
 18 19  2  0  0  0  0
 19 20  1  0  0  0  0
 20 25  1  0  0  0  0
 21 22  2  0  0  0  0
 22 25  1  0  0  0  0
 23 21  1  0  0  0  0
 23 20  2  0  0  0  0
 24 23  1  0  0  0  0
M  END
>  <MODEL>
8

>  <REMARK>
 VINA RESULT:      -6.1      1.744      4.210
  Name = 
  4 active torsions:
  status: ('A' for Active; 'I' for Inactive)
    1  A    between atoms: C_3  and  C_6
    2  A    between atoms: C_4  and  C_16
    3  A    between atoms: C_8  and  C_12
    4  A    between atoms: C_10  and  C_22
                            x       y       z     vdW  Elec       q    Type
                         _______ _______ _______ _____ _____    ______ ____

>  <TORSDO>
F 4

$$$$
=
 OpenBabel11042417493D

 25 28  0  0  1  0  0  0  0  0999 V2000
  189.6200  174.5300  146.8680 N   0  0  0  0  0  0  0  0  0  0  0  0
  188.1870  176.0350  145.7990 C   0  0  1  0  0  3  0  0  0  0  0  0
  189.0060  175.2530  144.8070 C   0  0  0  0  0  0  0  0  0  0  0  0
  188.9010  175.3290  143.4660 C   0  0  0  0  0  0  0  0  0  0  0  0
  190.7250  173.7590  142.7570 N   0  0  0  0  0  0  0  0  0  0  0  0
  188.6110  175.4730  147.0710 N   0  0  0  0  0  2  0  0  0  0  0  0
  189.7790  174.6160  142.5220 C   0  0  0  0  0  3  0  0  0  0  0  0
  191.2470  173.1970  143.9640 C   0  0  0  0  0  3  0  0  0  0  0  0
  189.8670  174.3940  145.6130 C   0  0  0  0  0  0  0  0  0  0  0  0
  190.8640  173.4790  145.1670 N   0  0  0  0  0  0  0  0  0  0  0  0
  186.6040  176.0400  143.0170 N   0  0  0  0  0  0  0  0  0  0  0  0
  188.1710  177.2420  141.8100 C   0  0  0  0  0  2  0  0  0  0  0  0
  186.7810  177.7640  141.4500 C   0  0  2  0  0  3  0  0  0  0  0  0
  185.8810  176.9460  142.2440 N   0  0  0  0  0  2  0  0  0  0  0  0
  187.8690  176.1820  142.8220 C   0  0  0  0  0  0  0  0  0  0  0  0
  186.5220  177.5410  140.0260 C   0  0  0  0  0  0  0  0  0  0  0  0
  186.3170  177.3640  138.9010 N   0  0  0  0  0  0  0  0  0  0  0  0
  188.5660  177.4850  145.7560 C   0  0  0  0  0  3  0  0  0  0  0  0
  187.6980  178.4940  145.8570 C   0  0  0  0  0  3  0  0  0  0  0  0
  186.2370  178.3640  146.0010 C   0  0  0  0  0  0  0  0  0  0  0  0
  184.0650  178.6330  145.6090 N   0  0  0  0  0  0  0  0  0  0  0  0
  184.2850  177.7960  146.6490 C   0  0  0  0  0  3  0  0  0  0  0  0
  185.2990  178.9780  145.2140 C   0  0  0  0  0  0  0  0  0  0  0  0
  185.5670  179.8570  144.1270 N   0  0  0  0  0  1  0  0  0  0  0  0
  185.6000  177.6090  146.9140 N   0  0  0  0  0  2  0  0  0  0  0  0
  1  6  1  0  0  0  0
  2 18  1  1  0  0  0
  2  6  1  0  0  0  0
  3  9  1  0  0  0  0
  3  2  1  0  0  0  0
  4  3  2  0  0  0  0
  5  8  1  0  0  0  0
  7  5  2  0  0  0  0
  7  4  1  0  0  0  0
  8 10  2  0  0  0  0
  9  1  2  0  0  0  0
 10  9  1  0  0  0  0
 12 15  1  0  0  0  0
 13 16  1  6  0  0  0
 13 12  1  0  0  0  0
 13 14  1  0  0  0  0
 14 11  1  0  0  0  0
 15 11  2  0  0  0  0
 15  4  1  0  0  0  0
 17 16  3  0  0  0  0
 18 19  2  0  0  0  0
 19 20  1  0  0  0  0
 20 25  1  0  0  0  0
 21 22  2  0  0  0  0
 22 25  1  0  0  0  0
 23 21  1  0  0  0  0
 23 20  2  0  0  0  0
 24 23  1  0  0  0  0
M  END
>  <MODEL>
9

>  <REMARK>
 VINA RESULT:      -6.0      1.691      6.704
  Name = 
  4 active torsions:
  status: ('A' for Active; 'I' for Inactive)
    1  A    between atoms: C_3  and  C_6
    2  A    between atoms: C_4  and  C_16
    3  A    between atoms: C_8  and  C_12
    4  A    between atoms: C_10  and  C_22
                            x       y       z     vdW  Elec       q    Type
                         _______ _______ _______ _____ _____    ______ ____

>  <TORSDO>
F 4

$$$$
