=
 OpenBabel11042419123D

 66 71  0  0  1  0  0  0  0  0999 V2000
  190.0630  173.6350  142.5420 C   0  0  1  0  0  3  0  0  0  0  0  0
  191.4690  173.4940  143.0650 C   0  0  0  0  0  0  0  0  0  0  0  0
  192.4180  173.9370  142.4390 O   0  0  0  0  0  0  0  0  0  0  0  0
  191.7190  172.7500  144.3390 C   0  0  0  0  0  2  0  0  0  0  0  0
  192.7920  171.7880  144.1410 N   0  0  0  0  0  2  0  0  0  0  0  0
  193.8280  172.0600  145.1340 C   0  0  0  0  0  2  0  0  0  0  0  0
  195.7540  172.8950  142.9000 N   0  0  0  0  0  0  0  0  0  0  0  0
  196.4650  172.1210  140.7650 C   0  0  0  0  0  3  0  0  0  0  0  0
  196.5950  173.1130  145.9570 C   0  0  0  0  0  2  0  0  0  0  0  0
  196.1690  170.8040  141.1470 C   0  0  0  0  0  0  0  0  0  0  0  0
  196.2830  171.6340  145.7250 C   0  0  0  0  0  2  0  0  0  0  0  0
  195.5230  171.6260  143.3230 C   0  0  0  0  0  0  0  0  0  0  0  0
  195.1340  171.3650  144.7420 C   0  0  2  0  0  3  0  0  0  0  0  0
  196.6660  175.6330  142.1380 N   0  0  0  0  0  2  0  0  0  0  0  0
  196.5780  174.5080  141.2870 N   0  0  0  0  0  2  0  0  0  0  0  0
  196.2660  173.1660  141.6750 C   0  0  0  0  0  0  0  0  0  0  0  0
  195.7180  170.5550  142.4490 C   0  0  0  0  0  3  0  0  0  0  0  0
  197.0610  175.6820  143.5210 C   0  0  0  0  0  3  0  0  0  0  0  0
  197.6340  173.6160  145.0120 C   0  0  0  0  0  3  0  0  0  0  0  0
  197.3690  174.6430  144.2520 C   0  0  0  0  0  0  0  0  0  0  0  0
  195.2860  169.5210  139.3510 F   0  0  0  0  0  0  0  0  0  0  0  0
  197.5040  169.8750  139.4410 F   0  0  0  0  0  0  0  0  0  0  0  0
  196.5230  168.4780  140.9190 F   0  0  0  0  0  0  0  0  0  0  0  0
  196.3700  169.6560  140.2000 C   0  0  0  0  0  0  0  0  0  0  0  0
  189.2880  172.3120  142.4960 C   0  0  1  0  0  3  0  0  0  0  0  0
  187.8460  172.4900  142.0540 C   0  0  0  0  0  1  0  0  0  0  0  0
  189.9970  171.2800  141.6280 C   0  0  0  0  0  2  0  0  0  0  0  0
  190.4480  171.8950  140.3840 N   0  0  0  0  0  2  0  0  0  0  0  0
  191.3690  170.9710  139.7310 C   0  0  1  0  0  3  0  0  0  0  0  0
  191.9430  171.5780  138.4400 C   0  0  2  0  0  3  0  0  0  0  0  0
  191.5390  173.1060  136.4120 C   0  0  1  0  0  3  0  0  0  0  0  0
  194.0530  175.1630  137.3980 O   0  0  0  0  0  0  0  0  0  0  0  0
  189.9860  171.3810  137.0580 O   0  0  0  0  0  1  0  0  0  0  0  0
  193.0800  173.7890  139.0380 C   0  0  0  0  0  2  0  0  0  0  0  0
  191.8530  174.5250  136.8730 C   0  0  0  0  0  2  0  0  0  0  0  0
  193.2630  172.3120  138.7190 C   0  0  0  0  0  2  0  0  0  0  0  0
  190.9030  172.3110  137.5600 C   0  0  1  0  0  3  0  0  0  0  0  0
  193.0570  174.5580  137.7560 C   0  0  0  0  0  0  0  0  0  0  0  0
  190.6650  173.1820  135.3240 O   0  0  0  0  0  1  0  0  0  0  0  0
  192.4370  170.4760  140.7050 C   0  0  0  0  0  2  0  0  0  0  0  0
  192.5300  169.0840  140.6840 O   0  0  0  0  0  1  0  0  0  0  0  0
  189.2730  174.8310  143.0920 C   0  0  0  0  0  2  0  0  0  0  0  0
  188.9770  175.7940  142.0420 N   0  0  0  0  0  2  0  0  0  0  0  0
  187.6780  176.3530  141.8570 C   0  0  0  0  0  0  0  0  0  0  0  0
  187.4760  177.1380  140.8910 O   0  0  0  0  0  0  0  0  0  0  0  0
  186.5590  176.0530  142.8070 C   0  0  0  0  0  2  0  0  0  0  0  0
  185.7010  177.2580  143.0370 C   0  0  0  0  0  0  0  0  0  0  0  0
  184.5960  177.3640  142.4380 O   0  0  0  0  0  0  0  0  0  0  0  0
  186.2330  179.4800  143.6930 O   0  0  0  0  0  0  0  0  0  0  0  0
  186.0990  178.2720  144.0340 C   0  0  0  0  0  0  0  0  0  0  0  0
  186.3430  177.8740  145.4620 C   0  0  2  0  0  3  0  0  0  0  0  0
  187.7520  177.4330  145.6930 C   0  0  0  0  0  0  0  0  0  0  0  0
  190.3710  176.4940  146.0870 C   0  0  0  0  0  0  0  0  0  0  0  0
  190.1250  177.5540  145.2030 C   0  0  0  0  0  3  0  0  0  0  0  0
  187.9970  176.3820  146.5860 C   0  0  0  0  0  3  0  0  0  0  0  0
  188.8220  178.0210  145.0050 C   0  0  0  0  0  3  0  0  0  0  0  0
  189.2980  175.9110  146.7800 C   0  0  0  0  0  3  0  0  0  0  0  0
  191.7710  175.9770  146.2510 C   0  0  1  0  0  0  0  0  0  0  0  0
  192.7330  176.2490  145.1820 C   0  0  2  0  0  3  0  0  0  0  0  0
  194.0800  175.6030  145.4210 C   0  0  0  0  0  2  0  0  0  0  0  0
  192.7990  177.0200  146.4500 N   0  0  2  0  0  0  0  0  0  0  0  0
  194.1030  176.4100  146.6990 C   0  0  0  0  0  2  0  0  0  0  0  0
  191.9540  174.8150  147.0220 O   0  0  0  0  0  1  0  0  0  0  0  0
  185.4450  176.8790  145.8700 O   0  0  0  0  0  0  0  0  0  0  0  0
  184.3780  177.5360  146.2800 O   0  0  0  0  0  0  0  0  0  0  0  0
  184.8560  178.4130  147.2590 C   0  0  0  0  0  1  0  0  0  0  0  0
  1  2  1  0  0  0  0
  1 42  1  1  0  0  0
  2  4  1  0  0  0  0
  3  2  2  0  0  0  0
  5  4  1  0  0  0  0
  5  6  1  0  0  0  0
  7 12  1  0  0  0  0
  8 10  2  0  0  0  0
  8 16  1  0  0  0  0
 10 17  1  0  0  0  0
 11  9  1  0  0  0  0
 12 13  1  0  0  0  0
 13  6  1  1  0  0  0
 13 11  1  0  0  0  0
 14 18  1  0  0  0  0
 15 16  1  0  0  0  0
 15 14  1  0  0  0  0
 16  7  2  0  0  0  0
 17 12  2  0  0  0  0
 18 20  2  0  0  0  0
 19  9  1  0  0  0  0
 20 19  2  0  0  0  0
 21 24  1  0  0  0  0
 22 24  1  0  0  0  0
 24 23  1  0  0  0  0
 24 10  1  0  0  0  0
 25 26  1  6  0  0  0
 25  1  1  0  0  0  0
 27 25  1  0  0  0  0
 28 27  1  0  0  0  0
 29 28  1  0  0  0  0
 29 40  1  1  0  0  0
 30 36  1  0  0  0  0
 30 29  1  1  0  0  0
 31 39  1  6  0  0  0
 31 35  1  0  0  0  0
 31 37  1  0  0  0  0
 32 38  2  0  0  0  0
 35 38  1  0  0  0  0
 36 34  1  0  0  0  0
 37 33  1  6  0  0  0
 37 30  1  0  0  0  0
 38 34  1  0  0  0  0
 41 40  1  0  0  0  0
 43 42  1  0  0  0  0
 44 43  1  0  0  0  0
 44 46  1  0  0  0  0
 45 44  2  0  0  0  0
 46 47  1  0  0  0  0
 47 50  1  0  0  0  0
 48 47  2  0  0  0  0
 49 50  2  0  0  0  0
 51 50  1  6  0  0  0
 51 52  1  0  0  0  0
 51 64  1  0  0  0  0
 52 55  1  0  0  0  0
 53 58  1  0  0  0  0
 53 57  1  0  0  0  0
 54 53  2  0  0  0  0
 55 57  2  0  0  0  0
 56 54  1  0  0  0  0
 56 52  2  0  0  0  0
 58 61  1  0  0  0  0
 58 63  1  1  0  0  0
 59 60  1  1  0  0  0
 59 58  1  0  0  0  0
 59 61  1  0  0  0  0
 60 62  1  0  0  0  0
 61 62  1  1  0  0  0
 64 65  1  0  0  0  0
 65 66  1  0  0  0  0
M  END
>  <MODEL>
1

>  <REMARK>
 VINA RESULT:      -6.6      0.000      0.000
  Name = 
  22 active torsions:
  status: ('A' for Active; 'I' for Inactive)
    1  A    between atoms: C_1  and  C_34
    2  A    between atoms: N_3  and  C_36
    3  A    between atoms: C_4  and  C_6
    4  A    between atoms: O_5  and  C_34
    5  A    between atoms: O_5  and  O_41
    6  A    between atoms: C_9  and  C_26
    7  A    between atoms: C_9  and  N_60
    8  A    between atoms: CA_10  and  C_14
    9  A    between atoms: CA_10  and  C_15
   10  A    between atoms: CA_10  and  N_64
   11  A    between atoms: C_11  and  C_25
   12  A    between atoms: C_11  and  N_64
   13  A    between atoms: C_13  and  C_58
   14  A    between atoms: C_17  and  C_30
   15  A    between atoms: C_17  and  C_53
   16  A    between atoms: C_21  and  C_24
   17  A    between atoms: C_21  and  C_34
   18  A    between atoms: C_24  and  C_47
   19  A    between atoms: C_25  and  C_30
   20  A    between atoms: C_30  and  C_36
   21  A    between atoms: C_31  and  C_47
   22  A    between atoms: C_53  and  N_60
                            x       y       z     vdW  Elec       q    Type
                         _______ _______ _______ _____ _____    ______ ____

>  <TORSDO>
F 22

$$$$
=
 OpenBabel11042419123D

 66 71  0  0  1  0  0  0  0  0999 V2000
  190.0230  173.4120  141.6660 C   0  0  1  0  0  3  0  0  0  0  0  0
  191.2110  174.2350  141.2410 C   0  0  0  0  0  0  0  0  0  0  0  0
  191.6320  174.1840  140.0980 O   0  0  0  0  0  0  0  0  0  0  0  0
  191.9270  175.0840  142.2450 C   0  0  0  0  0  2  0  0  0  0  0  0
  193.2790  174.5830  142.4330 N   0  0  0  0  0  2  0  0  0  0  0  0
  194.2070  175.6710  142.1320 C   0  0  0  0  0  2  0  0  0  0  0  0
  196.0620  173.2440  141.8770 N   0  0  0  0  0  0  0  0  0  0  0  0
  196.7740  171.3880  143.1850 C   0  0  0  0  0  3  0  0  0  0  0  0
  196.9380  176.1000  140.7920 C   0  0  0  0  0  2  0  0  0  0  0  0
  196.5390  172.1250  144.3550 C   0  0  0  0  0  0  0  0  0  0  0  0
  196.6850  176.2930  142.2880 C   0  0  0  0  0  2  0  0  0  0  0  0
  195.8910  174.0060  142.9870 C   0  0  0  0  0  0  0  0  0  0  0  0
  195.5350  175.4520  142.8600 C   0  0  2  0  0  3  0  0  0  0  0  0
  196.8470  171.7330  139.4250 N   0  0  0  0  0  2  0  0  0  0  0  0
  196.7940  171.2290  140.7440 N   0  0  0  0  0  2  0  0  0  0  0  0
  196.5440  171.9790  141.9370 C   0  0  0  0  0  0  0  0  0  0  0  0
  196.1190  173.4570  144.2510 C   0  0  0  0  0  3  0  0  0  0  0  0
  197.2590  173.0390  138.9810 C   0  0  0  0  0  3  0  0  0  0  0  0
  197.9400  175.0270  140.5330 C   0  0  0  0  0  3  0  0  0  0  0  0
  197.6210  174.0200  139.7660 C   0  0  0  0  0  0  0  0  0  0  0  0
  195.6400  170.8830  146.1710 F   0  0  0  0  0  0  0  0  0  0  0  0
  197.8070  170.6110  145.6410 F   0  0  0  0  0  0  0  0  0  0  0  0
  197.1150  172.5280  146.6120 F   0  0  0  0  0  0  0  0  0  0  0  0
  196.7750  171.5270  145.7120 C   0  0  0  0  0  0  0  0  0  0  0  0
  190.3870  172.2210  142.5620 C   0  0  1  0  0  3  0  0  0  0  0  0
  189.6010  172.2000  143.8610 C   0  0  0  0  0  1  0  0  0  0  0  0
  190.2390  170.8990  141.8190 C   0  0  0  0  0  2  0  0  0  0  0  0
  190.8470  170.9960  140.4960 N   0  0  0  0  0  2  0  0  0  0  0  0
  190.0680  170.1720  139.5790 C   0  0  1  0  0  3  0  0  0  0  0  0
  189.6080  170.9820  138.3570 C   0  0  2  0  0  3  0  0  0  0  0  0
  188.8810  173.2720  137.4380 C   0  0  1  0  0  3  0  0  0  0  0  0
  191.5260  173.3120  135.3100 O   0  0  0  0  0  0  0  0  0  0  0  0
  187.9250  172.3180  139.4340 O   0  0  0  0  0  1  0  0  0  0  0  0
  191.6840  171.9220  137.1980 C   0  0  0  0  0  2  0  0  0  0  0  0
  190.1620  174.0210  137.0890 C   0  0  0  0  0  2  0  0  0  0  0  0
  190.6090  170.8460  137.1990 C   0  0  0  0  0  2  0  0  0  0  0  0
  189.1050  172.4080  138.6860 C   0  0  1  0  0  3  0  0  0  0  0  0
  191.1700  173.1160  136.4600 C   0  0  0  0  0  0  0  0  0  0  0  0
  187.8720  174.2110  137.6660 O   0  0  0  0  0  1  0  0  0  0  0  0
  190.8160  168.8890  139.2190 C   0  0  0  0  0  2  0  0  0  0  0  0
  191.5730  168.4290  140.2970 O   0  0  0  0  0  1  0  0  0  0  0  0
  188.7940  174.2140  142.1210 C   0  0  0  0  0  2  0  0  0  0  0  0
  188.6050  175.3990  141.2990 N   0  0  0  0  0  2  0  0  0  0  0  0
  187.5100  176.2930  141.4810 C   0  0  0  0  0  0  0  0  0  0  0  0
  187.3730  177.2700  140.6960 O   0  0  0  0  0  0  0  0  0  0  0  0
  186.5380  176.1130  142.6080 C   0  0  0  0  0  2  0  0  0  0  0  0
  185.6940  177.3350  142.7980 C   0  0  0  0  0  0  0  0  0  0  0  0
  184.5930  177.4380  142.1900 O   0  0  0  0  0  0  0  0  0  0  0  0
  186.3650  179.5400  143.3780 O   0  0  0  0  0  0  0  0  0  0  0  0
  186.0970  178.3710  143.7710 C   0  0  0  0  0  0  0  0  0  0  0  0
  186.1870  178.0410  145.2340 C   0  0  2  0  0  3  0  0  0  0  0  0
  187.5120  177.4540  145.6000 C   0  0  0  0  0  0  0  0  0  0  0  0
  189.9570  176.2410  146.2690 C   0  0  0  0  0  0  0  0  0  0  0  0
  189.8810  177.1310  145.1880 C   0  0  0  0  0  3  0  0  0  0  0  0
  187.5880  176.5760  146.6880 C   0  0  0  0  0  3  0  0  0  0  0  0
  188.6650  177.7340  144.8530 C   0  0  0  0  0  3  0  0  0  0  0  0
  188.8020  175.9680  147.0200 C   0  0  0  0  0  3  0  0  0  0  0  0
  191.2620  175.5690  146.5850 C   0  0  1  0  0  0  0  0  0  0  0  0
  191.8190  174.6520  145.5900 C   0  0  2  0  0  3  0  0  0  0  0  0
  193.0870  173.9710  146.0580 C   0  0  0  0  0  2  0  0  0  0  0  0
  192.4030  176.0070  145.7550 N   0  0  2  0  0  0  0  0  0  0  0  0
  193.6380  175.3710  146.2070 C   0  0  0  0  0  2  0  0  0  0  0  0
  191.5700  175.3400  147.9370 O   0  0  0  0  0  1  0  0  0  0  0  0
  185.1490  177.1870  145.6250 O   0  0  0  0  0  0  0  0  0  0  0  0
  184.1540  177.9900  145.9450 O   0  0  0  0  0  0  0  0  0  0  0  0
  184.4980  178.4960  147.2030 C   0  0  0  0  0  1  0  0  0  0  0  0
  1 42  1  1  0  0  0
  1 25  1  0  0  0  0
  2  1  1  0  0  0  0
  2  4  1  0  0  0  0
  3  2  2  0  0  0  0
  4  5  1  0  0  0  0
  6  5  1  0  0  0  0
  7 16  2  0  0  0  0
  7 12  1  0  0  0  0
  8 10  2  0  0  0  0
  9 11  1  0  0  0  0
 10 24  1  0  0  0  0
 11 13  1  0  0  0  0
 12 17  2  0  0  0  0
 13  6  1  6  0  0  0
 13 12  1  0  0  0  0
 14 15  1  0  0  0  0
 15 16  1  0  0  0  0
 16  8  1  0  0  0  0
 17 10  1  0  0  0  0
 18 14  1  0  0  0  0
 18 20  2  0  0  0  0
 19  9  1  0  0  0  0
 20 19  2  0  0  0  0
 22 24  1  0  0  0  0
 24 21  1  0  0  0  0
 24 23  1  0  0  0  0
 25 26  1  1  0  0  0
 27 25  1  0  0  0  0
 28 27  1  0  0  0  0
 29 40  1  6  0  0  0
 29 28  1  0  0  0  0
 30 37  1  0  0  0  0
 30 29  1  1  0  0  0
 31 39  1  1  0  0  0
 31 37  1  0  0  0  0
 32 38  2  0  0  0  0
 34 36  1  0  0  0  0
 35 31  1  0  0  0  0
 36 30  1  0  0  0  0
 37 33  1  6  0  0  0
 38 35  1  0  0  0  0
 38 34  1  0  0  0  0
 40 41  1  0  0  0  0
 43 44  1  0  0  0  0
 43 42  1  0  0  0  0
 44 46  1  0  0  0  0
 45 44  2  0  0  0  0
 46 47  1  0  0  0  0
 47 50  1  0  0  0  0
 48 47  2  0  0  0  0
 49 50  2  0  0  0  0
 51 50  1  6  0  0  0
 51 52  1  0  0  0  0
 51 64  1  0  0  0  0
 52 55  1  0  0  0  0
 53 58  1  0  0  0  0
 53 57  1  0  0  0  0
 54 53  2  0  0  0  0
 55 57  2  0  0  0  0
 56 54  1  0  0  0  0
 56 52  2  0  0  0  0
 58 63  1  1  0  0  0
 59 61  1  0  0  0  0
 59 60  1  1  0  0  0
 59 58  1  0  0  0  0
 60 62  1  0  0  0  0
 61 62  1  1  0  0  0
 61 58  1  0  0  0  0
 64 65  1  0  0  0  0
 65 66  1  0  0  0  0
M  END
>  <MODEL>
2

>  <REMARK>
 VINA RESULT:      -6.6      2.063      2.975
  Name = 
  22 active torsions:
  status: ('A' for Active; 'I' for Inactive)
    1  A    between atoms: C_1  and  C_34
    2  A    between atoms: N_3  and  C_36
    3  A    between atoms: C_4  and  C_6
    4  A    between atoms: O_5  and  C_34
    5  A    between atoms: O_5  and  O_41
    6  A    between atoms: C_9  and  C_26
    7  A    between atoms: C_9  and  N_60
    8  A    between atoms: CA_10  and  C_14
    9  A    between atoms: CA_10  and  C_15
   10  A    between atoms: CA_10  and  N_64
   11  A    between atoms: C_11  and  C_25
   12  A    between atoms: C_11  and  N_64
   13  A    between atoms: C_13  and  C_58
   14  A    between atoms: C_17  and  C_30
   15  A    between atoms: C_17  and  C_53
   16  A    between atoms: C_21  and  C_24
   17  A    between atoms: C_21  and  C_34
   18  A    between atoms: C_24  and  C_47
   19  A    between atoms: C_25  and  C_30
   20  A    between atoms: C_30  and  C_36
   21  A    between atoms: C_31  and  C_47
   22  A    between atoms: C_53  and  N_60
                            x       y       z     vdW  Elec       q    Type
                         _______ _______ _______ _____ _____    ______ ____

>  <TORSDO>
F 22

$$$$
=
 OpenBabel11042419123D

 66 71  0  0  1  0  0  0  0  0999 V2000
  189.8670  172.7040  140.5490 C   0  0  1  0  0  3  0  0  0  0  0  0
  189.1910  172.8720  139.2140 C   0  0  0  0  0  0  0  0  0  0  0  0
  188.1770  172.2500  138.9420 O   0  0  0  0  0  0  0  0  0  0  0  0
  189.7980  173.7670  138.1790 C   0  0  0  0  0  2  0  0  0  0  0  0
  190.0870  172.9990  136.9770 N   0  0  0  0  0  2  0  0  0  0  0  0
  191.5310  173.0310  136.7600 C   0  0  0  0  0  2  0  0  0  0  0  0
  194.3980  173.3980  137.7790 N   0  0  0  0  0  0  0  0  0  0  0  0
  195.5430  173.6770  139.8470 C   0  0  0  0  0  3  0  0  0  0  0  0
  193.3670  174.9330  135.1940 C   0  0  0  0  0  2  0  0  0  0  0  0
  194.3920  174.2520  140.4040 C   0  0  0  0  0  0  0  0  0  0  0  0
  192.4470  175.3830  136.3300 C   0  0  0  0  0  2  0  0  0  0  0  0
  193.2920  174.0130  138.2680 C   0  0  0  0  0  0  0  0  0  0  0  0
  192.1310  174.2990  137.3710 C   0  0  2  0  0  3  0  0  0  0  0  0
  196.9550  172.4460  136.5680 N   0  0  0  0  0  2  0  0  0  0  0  0
  196.7130  172.6890  137.9380 N   0  0  0  0  0  2  0  0  0  0  0  0
  195.5330  173.2670  138.5080 C   0  0  0  0  0  0  0  0  0  0  0  0
  193.2650  174.4450  139.5960 C   0  0  0  0  0  3  0  0  0  0  0  0
  196.4680  173.1770  135.4280 C   0  0  0  0  0  3  0  0  0  0  0  0
  194.8020  175.1870  135.5100 C   0  0  0  0  0  3  0  0  0  0  0  0
  195.6520  174.1980  135.4820 C   0  0  0  0  0  0  0  0  0  0  0  0
  195.0300  173.8080  142.6500 F   0  0  0  0  0  0  0  0  0  0  0  0
  194.9740  175.9400  141.9420 F   0  0  0  0  0  0  0  0  0  0  0  0
  193.0490  174.8090  142.2670 F   0  0  0  0  0  0  0  0  0  0  0  0
  194.3630  174.7050  141.8350 C   0  0  0  0  0  0  0  0  0  0  0  0
  189.0580  173.2660  141.7250 C   0  0  1  0  0  3  0  0  0  0  0  0
  188.9000  172.2710  142.8600 C   0  0  0  0  0  1  0  0  0  0  0  0
  189.6500  174.5760  142.2320 C   0  0  0  0  0  2  0  0  0  0  0  0
  188.9180  175.0360  143.4080 N   0  0  0  0  0  2  0  0  0  0  0  0
  188.2080  176.2580  143.0490 C   0  0  1  0  0  3  0  0  0  0  0  0
  186.8780  176.3720  143.8120 C   0  0  2  0  0  3  0  0  0  0  0  0
  185.6370  177.3350  145.8480 C   0  0  1  0  0  3  0  0  0  0  0  0
  183.5550  179.0830  143.8140 O   0  0  0  0  0  0  0  0  0  0  0  0
  187.7360  176.1690  146.0480 O   0  0  0  0  0  1  0  0  0  0  0  0
  185.6220  178.4130  142.9200 C   0  0  0  0  0  2  0  0  0  0  0  0
  185.2000  178.7420  145.4590 C   0  0  0  0  0  2  0  0  0  0  0  0
  185.7630  176.8980  142.8950 C   0  0  0  0  0  2  0  0  0  0  0  0
  186.9970  177.0160  145.2140 C   0  0  1  0  0  3  0  0  0  0  0  0
  184.7170  178.7940  144.0460 C   0  0  0  0  0  0  0  0  0  0  0  0
  185.7180  177.2700  147.2410 O   0  0  0  0  0  1  0  0  0  0  0  0
  189.1090  177.4840  143.1980 C   0  0  0  0  0  2  0  0  0  0  0  0
  189.1150  178.2470  142.0300 O   0  0  0  0  0  1  0  0  0  0  0  0
  190.5010  171.3270  140.7980 C   0  0  0  0  0  2  0  0  0  0  0  0
  191.1780  170.8370  139.6080 N   0  0  0  0  0  2  0  0  0  0  0  0
  192.5890  170.6340  139.5560 C   0  0  0  0  0  0  0  0  0  0  0  0
  193.1190  170.2620  138.4740 O   0  0  0  0  0  0  0  0  0  0  0  0
  193.4470  170.8220  140.7700 C   0  0  0  0  0  2  0  0  0  0  0  0
  193.6520  169.5290  141.4970 C   0  0  0  0  0  0  0  0  0  0  0  0
  193.1630  168.4640  141.0300 O   0  0  0  0  0  0  0  0  0  0  0  0
  195.7620  169.4420  142.5880 O   0  0  0  0  0  0  0  0  0  0  0  0
  194.5050  169.4830  142.7020 C   0  0  0  0  0  0  0  0  0  0  0  0
  193.8830  169.4890  144.0700 C   0  0  2  0  0  3  0  0  0  0  0  0
  193.5270  170.8690  144.5220 C   0  0  0  0  0  0  0  0  0  0  0  0
  192.9540  173.5040  145.3120 C   0  0  0  0  0  0  0  0  0  0  0  0
  192.0320  172.7790  144.5420 C   0  0  0  0  0  3  0  0  0  0  0  0
  194.4440  171.5860  145.3000 C   0  0  0  0  0  3  0  0  0  0  0  0
  192.3170  171.4690  144.1470 C   0  0  0  0  0  3  0  0  0  0  0  0
  194.1620  172.8980  145.6900 C   0  0  0  0  0  3  0  0  0  0  0  0
  192.6490  174.9250  145.6870 C   0  0  1  0  0  0  0  0  0  0  0  0
  191.2620  175.2680  146.0070 C   0  0  2  0  0  3  0  0  0  0  0  0
  191.0670  176.7430  146.2820 C   0  0  0  0  0  2  0  0  0  0  0  0
  192.2590  175.1250  147.0980 N   0  0  2  0  0  0  0  0  0  0  0  0
  192.0840  176.5470  147.3830 C   0  0  0  0  0  2  0  0  0  0  0  0
  193.4700  175.9340  145.1540 O   0  0  0  0  0  1  0  0  0  0  0  0
  194.7170  168.8670  145.0070 O   0  0  0  0  0  0  0  0  0  0  0  0
  193.9020  168.1660  145.7700 O   0  0  0  0  0  0  0  0  0  0  0  0
  194.4800  168.2130  147.0430 C   0  0  0  0  0  1  0  0  0  0  0  0
  1 42  1  1  0  0  0
  1 25  1  0  0  0  0
  2  1  1  0  0  0  0
  3  2  2  0  0  0  0
  4  2  1  0  0  0  0
  5  4  1  0  0  0  0
  6  5  1  0  0  0  0
  7 12  1  0  0  0  0
  7 16  2  0  0  0  0
  8 10  2  0  0  0  0
  9 19  1  0  0  0  0
  9 11  1  0  0  0  0
 10 24  1  0  0  0  0
 11 13  1  0  0  0  0
 12 17  2  0  0  0  0
 13  6  1  6  0  0  0
 13 12  1  0  0  0  0
 14 15  1  0  0  0  0
 15 16  1  0  0  0  0
 16  8  1  0  0  0  0
 17 10  1  0  0  0  0
 18 20  2  0  0  0  0
 18 14  1  0  0  0  0
 20 19  2  0  0  0  0
 24 22  1  0  0  0  0
 24 23  1  0  0  0  0
 24 21  1  0  0  0  0
 25 27  1  0  0  0  0
 25 26  1  1  0  0  0
 27 28  1  0  0  0  0
 29 40  1  1  0  0  0
 29 28  1  0  0  0  0
 30 29  1  6  0  0  0
 30 37  1  0  0  0  0
 31 39  1  1  0  0  0
 32 38  2  0  0  0  0
 34 38  1  0  0  0  0
 35 31  1  0  0  0  0
 36 34  1  0  0  0  0
 36 30  1  0  0  0  0
 37 31  1  0  0  0  0
 37 33  1  1  0  0  0
 38 35  1  0  0  0  0
 41 40  1  0  0  0  0
 43 42  1  0  0  0  0
 44 43  1  0  0  0  0
 44 46  1  0  0  0  0
 45 44  2  0  0  0  0
 46 47  1  0  0  0  0
 47 50  1  0  0  0  0
 48 47  2  0  0  0  0
 49 50  2  0  0  0  0
 51 50  1  6  0  0  0
 51 52  1  0  0  0  0
 51 64  1  0  0  0  0
 52 55  1  0  0  0  0
 53 58  1  0  0  0  0
 53 57  1  0  0  0  0
 54 53  2  0  0  0  0
 55 57  2  0  0  0  0
 56 52  2  0  0  0  0
 56 54  1  0  0  0  0
 58 63  1  6  0  0  0
 58 59  1  0  0  0  0
 58 61  1  0  0  0  0
 59 60  1  6  0  0  0
 59 61  1  0  0  0  0
 60 62  1  0  0  0  0
 61 62  1  6  0  0  0
 64 65  1  0  0  0  0
 65 66  1  0  0  0  0
M  END
>  <MODEL>
3

>  <REMARK>
 VINA RESULT:      -6.5      2.611      8.252
  Name = 
  22 active torsions:
  status: ('A' for Active; 'I' for Inactive)
    1  A    between atoms: C_1  and  C_34
    2  A    between atoms: N_3  and  C_36
    3  A    between atoms: C_4  and  C_6
    4  A    between atoms: O_5  and  C_34
    5  A    between atoms: O_5  and  O_41
    6  A    between atoms: C_9  and  C_26
    7  A    between atoms: C_9  and  N_60
    8  A    between atoms: CA_10  and  C_14
    9  A    between atoms: CA_10  and  C_15
   10  A    between atoms: CA_10  and  N_64
   11  A    between atoms: C_11  and  C_25
   12  A    between atoms: C_11  and  N_64
   13  A    between atoms: C_13  and  C_58
   14  A    between atoms: C_17  and  C_30
   15  A    between atoms: C_17  and  C_53
   16  A    between atoms: C_21  and  C_24
   17  A    between atoms: C_21  and  C_34
   18  A    between atoms: C_24  and  C_47
   19  A    between atoms: C_25  and  C_30
   20  A    between atoms: C_30  and  C_36
   21  A    between atoms: C_31  and  C_47
   22  A    between atoms: C_53  and  N_60
                            x       y       z     vdW  Elec       q    Type
                         _______ _______ _______ _____ _____    ______ ____

>  <TORSDO>
F 22

$$$$
=
 OpenBabel11042419123D

 66 71  0  0  1  0  0  0  0  0999 V2000
  189.3000  175.4020  141.7850 C   0  0  1  0  0  3  0  0  0  0  0  0
  188.1050  174.4870  141.7380 C   0  0  0  0  0  0  0  0  0  0  0  0
  187.1740  174.6300  142.5140 O   0  0  0  0  0  0  0  0  0  0  0  0
  188.0770  173.3470  140.7690 C   0  0  0  0  0  2  0  0  0  0  0  0
  188.4180  173.8280  139.4390 N   0  0  0  0  0  2  0  0  0  0  0  0
  189.3840  172.8980  138.8590 C   0  0  0  0  0  2  0  0  0  0  0  0
  192.0290  171.8160  137.7510 N   0  0  0  0  0  0  0  0  0  0  0  0
  194.3670  172.1260  138.0730 C   0  0  0  0  0  3  0  0  0  0  0  0
  189.5970  172.4930  135.8200 C   0  0  0  0  0  2  0  0  0  0  0  0
  194.1310  173.4390  138.5040 C   0  0  0  0  0  0  0  0  0  0  0  0
  189.9330  173.8060  136.5290 C   0  0  0  0  0  2  0  0  0  0  0  0
  191.7750  173.1040  138.0970 C   0  0  0  0  0  0  0  0  0  0  0  0
  190.3900  173.6530  137.9870 C   0  0  2  0  0  3  0  0  0  0  0  0
  192.6130  169.1350  136.5760 N   0  0  0  0  0  2  0  0  0  0  0  0
  193.5330  169.9860  137.2270 N   0  0  0  0  0  2  0  0  0  0  0  0
  193.2900  171.3230  137.6770 C   0  0  0  0  0  0  0  0  0  0  0  0
  192.8230  173.9390  138.4890 C   0  0  0  0  0  3  0  0  0  0  0  0
  191.5270  169.4900  135.7020 C   0  0  0  0  0  3  0  0  0  0  0  0
  190.7820  171.9240  135.1160 C   0  0  0  0  0  3  0  0  0  0  0  0
  191.1770  170.7130  135.3960 C   0  0  0  0  0  0  0  0  0  0  0  0
  196.1370  174.5570  137.8900 F   0  0  0  0  0  0  0  0  0  0  0  0
  194.7530  175.5450  139.3600 F   0  0  0  0  0  0  0  0  0  0  0  0
  195.9530  173.7360  139.9790 F   0  0  0  0  0  0  0  0  0  0  0  0
  195.2590  174.3310  138.9350 C   0  0  0  0  0  0  0  0  0  0  0  0
  188.9690  176.8250  142.2540 C   0  0  1  0  0  3  0  0  0  0  0  0
  190.2020  177.6130  142.6610 C   0  0  0  0  0  1  0  0  0  0  0  0
  188.1640  177.5840  141.2060 C   0  0  0  0  0  2  0  0  0  0  0  0
  187.3820  178.6390  141.8410 N   0  0  0  0  0  2  0  0  0  0  0  0
  186.1910  178.0320  142.4240 C   0  0  1  0  0  3  0  0  0  0  0  0
  186.0030  178.4690  143.8860 C   0  0  2  0  0  3  0  0  0  0  0  0
  184.5010  178.4250  145.9730 C   0  0  1  0  0  3  0  0  0  0  0  0
  186.9140  176.8120  147.7350 O   0  0  0  0  0  0  0  0  0  0  0  0
  183.6650  179.0160  143.7920 O   0  0  0  0  0  1  0  0  0  0  0  0
  187.0120  176.6660  145.3910 C   0  0  0  0  0  2  0  0  0  0  0  0
  184.8230  177.1280  146.7070 C   0  0  0  0  0  2  0  0  0  0  0  0
  187.1980  178.0320  144.7470 C   0  0  0  0  0  2  0  0  0  0  0  0
  184.5900  178.2040  144.4570 C   0  0  1  0  0  3  0  0  0  0  0  0
  186.2890  176.8390  146.6880 C   0  0  0  0  0  0  0  0  0  0  0  0
  183.2130  178.8250  146.3350 O   0  0  0  0  0  1  0  0  0  0  0  0
  184.9620  178.2740  141.5480 C   0  0  0  0  0  2  0  0  0  0  0  0
  185.3160  178.3690  140.2020 O   0  0  0  0  0  1  0  0  0  0  0  0
  190.5700  174.7960  142.4010 C   0  0  0  0  0  2  0  0  0  0  0  0
  190.2440  173.7470  143.3540 N   0  0  0  0  0  2  0  0  0  0  0  0
  190.3430  173.9330  144.7640 C   0  0  0  0  0  0  0  0  0  0  0  0
  190.1010  172.9630  145.5330 O   0  0  0  0  0  0  0  0  0  0  0  0
  190.6950  175.2660  145.3500 C   0  0  0  0  0  2  0  0  0  0  0  0
  192.1050  175.2860  145.8510 C   0  0  0  0  0  0  0  0  0  0  0  0
  192.3690  174.8350  146.9990 O   0  0  0  0  0  0  0  0  0  0  0  0
  193.1620  176.8890  144.4490 O   0  0  0  0  0  0  0  0  0  0  0  0
  193.1990  175.7390  144.9680 C   0  0  0  0  0  0  0  0  0  0  0  0
  194.3660  174.8350  144.6850 C   0  0  2  0  0  3  0  0  0  0  0  0
  193.9560  173.5910  143.9650 C   0  0  0  0  0  0  0  0  0  0  0  0
  193.0790  171.2550  142.6730 C   0  0  0  0  0  0  0  0  0  0  0  0
  193.3890  172.4030  141.9280 C   0  0  0  0  0  3  0  0  0  0  0  0
  193.6590  172.4430  144.7100 C   0  0  0  0  0  3  0  0  0  0  0  0
  193.8240  173.5660  142.5700 C   0  0  0  0  0  3  0  0  0  0  0  0
  193.2190  171.2820  144.0700 C   0  0  0  0  0  3  0  0  0  0  0  0
  192.5710  170.0310  141.9680 C   0  0  1  0  0  0  0  0  0  0  0  0
  191.1420  169.7270  142.0640 C   0  0  2  0  0  3  0  0  0  0  0  0
  190.7680  168.4250  141.3900 C   0  0  0  0  0  2  0  0  0  0  0  0
  191.6940  170.3000  140.8100 N   0  0  2  0  0  0  0  0  0  0  0  0
  191.3390  169.0520  140.1380 C   0  0  0  0  0  2  0  0  0  0  0  0
  193.4620  168.9570  141.7970 O   0  0  0  0  0  1  0  0  0  0  0  0
  195.0560  174.5160  145.8620 O   0  0  0  0  0  0  0  0  0  0  0  0
  196.3310  174.6180  145.5430 O   0  0  0  0  0  0  0  0  0  0  0  0
  196.9470  173.5490  146.2030 C   0  0  0  0  0  1  0  0  0  0  0  0
  1 25  1  0  0  0  0
  1 42  1  1  0  0  0
  2  1  1  0  0  0  0
  2  3  2  0  0  0  0
  4  2  1  0  0  0  0
  5  4  1  0  0  0  0
  6  5  1  0  0  0  0
  7 12  1  0  0  0  0
  8 10  2  0  0  0  0
  9 11  1  0  0  0  0
 10 24  1  0  0  0  0
 11 13  1  0  0  0  0
 12 17  2  0  0  0  0
 13 12  1  0  0  0  0
 13  6  1  1  0  0  0
 14 15  1  0  0  0  0
 15 16  1  0  0  0  0
 16  7  2  0  0  0  0
 16  8  1  0  0  0  0
 17 10  1  0  0  0  0
 18 14  1  0  0  0  0
 19 20  2  0  0  0  0
 19  9  1  0  0  0  0
 20 18  2  0  0  0  0
 21 24  1  0  0  0  0
 24 22  1  0  0  0  0
 24 23  1  0  0  0  0
 25 26  1  6  0  0  0
 27 28  1  0  0  0  0
 27 25  1  0  0  0  0
 28 29  1  0  0  0  0
 29 40  1  6  0  0  0
 30 29  1  6  0  0  0
 30 37  1  0  0  0  0
 30 36  1  0  0  0  0
 31 39  1  6  0  0  0
 31 35  1  0  0  0  0
 34 38  1  0  0  0  0
 36 34  1  0  0  0  0
 37 33  1  6  0  0  0
 37 31  1  0  0  0  0
 38 35  1  0  0  0  0
 38 32  2  0  0  0  0
 41 40  1  0  0  0  0
 42 43  1  0  0  0  0
 43 44  1  0  0  0  0
 44 46  1  0  0  0  0
 44 45  2  0  0  0  0
 46 47  1  0  0  0  0
 47 48  2  0  0  0  0
 49 50  2  0  0  0  0
 50 47  1  0  0  0  0
 51 50  1  1  0  0  0
 51 64  1  0  0  0  0
 52 51  1  0  0  0  0
 52 55  1  0  0  0  0
 53 57  1  0  0  0  0
 54 56  1  0  0  0  0
 54 53  2  0  0  0  0
 56 52  2  0  0  0  0
 57 55  2  0  0  0  0
 58 63  1  6  0  0  0
 58 59  1  0  0  0  0
 58 53  1  0  0  0  0
 59 60  1  6  0  0  0
 61 62  1  6  0  0  0
 61 58  1  0  0  0  0
 61 59  1  0  0  0  0
 62 60  1  0  0  0  0
 65 64  1  0  0  0  0
 65 66  1  0  0  0  0
M  END
>  <MODEL>
4

>  <REMARK>
 VINA RESULT:      -6.2      2.988      8.567
  Name = 
  22 active torsions:
  status: ('A' for Active; 'I' for Inactive)
    1  A    between atoms: C_1  and  C_34
    2  A    between atoms: N_3  and  C_36
    3  A    between atoms: C_4  and  C_6
    4  A    between atoms: O_5  and  C_34
    5  A    between atoms: O_5  and  O_41
    6  A    between atoms: C_9  and  C_26
    7  A    between atoms: C_9  and  N_60
    8  A    between atoms: CA_10  and  C_14
    9  A    between atoms: CA_10  and  C_15
   10  A    between atoms: CA_10  and  N_64
   11  A    between atoms: C_11  and  C_25
   12  A    between atoms: C_11  and  N_64
   13  A    between atoms: C_13  and  C_58
   14  A    between atoms: C_17  and  C_30
   15  A    between atoms: C_17  and  C_53
   16  A    between atoms: C_21  and  C_24
   17  A    between atoms: C_21  and  C_34
   18  A    between atoms: C_24  and  C_47
   19  A    between atoms: C_25  and  C_30
   20  A    between atoms: C_30  and  C_36
   21  A    between atoms: C_31  and  C_47
   22  A    between atoms: C_53  and  N_60
                            x       y       z     vdW  Elec       q    Type
                         _______ _______ _______ _____ _____    ______ ____

>  <TORSDO>
F 22

$$$$
=
 OpenBabel11042419123D

 66 71  0  0  1  0  0  0  0  0999 V2000
  190.2280  173.9270  142.2090 C   0  0  1  0  0  3  0  0  0  0  0  0
  191.4380  174.5460  141.5580 C   0  0  0  0  0  0  0  0  0  0  0  0
  191.9630  175.5410  142.0290 O   0  0  0  0  0  0  0  0  0  0  0  0
  191.9730  173.9730  140.2830 C   0  0  0  0  0  2  0  0  0  0  0  0
  193.4200  174.1200  140.2500 N   0  0  0  0  0  2  0  0  0  0  0  0
  193.7730  174.8180  139.0160 C   0  0  0  0  0  2  0  0  0  0  0  0
  192.0710  174.8730  136.4680 N   0  0  0  0  0  0  0  0  0  0  0  0
  190.3200  173.6190  135.4560 C   0  0  0  0  0  3  0  0  0  0  0  0
  195.1940  175.4550  136.3680 C   0  0  0  0  0  2  0  0  0  0  0  0
  190.7570  172.4690  136.1280 C   0  0  0  0  0  0  0  0  0  0  0  0
  195.0610  174.0440  136.9430 C   0  0  0  0  0  2  0  0  0  0  0  0
  192.5600  173.7630  137.0780 C   0  0  0  0  0  0  0  0  0  0  0  0
  193.8390  173.8300  137.8490 C   0  0  2  0  0  3  0  0  0  0  0  0
  191.2710  177.2130  134.7970 N   0  0  0  0  0  2  0  0  0  0  0  0
  190.5680  175.9960  134.9300 N   0  0  0  0  0  2  0  0  0  0  0  0
  191.0100  174.8250  135.6260 C   0  0  0  0  0  0  0  0  0  0  0  0
  191.9060  172.5390  136.9260 C   0  0  0  0  0  3  0  0  0  0  0  0
  192.6940  177.4260  134.7500 C   0  0  0  0  0  3  0  0  0  0  0  0
  194.5180  175.5800  135.0440 C   0  0  0  0  0  3  0  0  0  0  0  0
  193.5980  176.4910  134.8750 C   0  0  0  0  0  0  0  0  0  0  0  0
  189.8270  170.5630  137.2010 F   0  0  0  0  0  0  0  0  0  0  0  0
  188.8240  171.3640  135.3570 F   0  0  0  0  0  0  0  0  0  0  0  0
  190.8080  170.3000  135.1910 F   0  0  0  0  0  0  0  0  0  0  0  0
  190.0450  171.1570  135.9710 C   0  0  0  0  0  0  0  0  0  0  0  0
  190.5620  173.0530  143.4250 C   0  0  1  0  0  3  0  0  0  0  0  0
  189.4330  172.1100  143.7990 C   0  0  0  0  0  1  0  0  0  0  0  0
  191.8630  172.2860  143.2200 C   0  0  0  0  0  2  0  0  0  0  0  0
  191.8070  171.0070  143.9190 N   0  0  0  0  0  2  0  0  0  0  0  0
  192.1200  169.9530  142.9610 C   0  0  1  0  0  3  0  0  0  0  0  0
  192.5770  170.5420  141.6170 C   0  0  2  0  0  3  0  0  0  0  0  0
  194.4840  170.7910  139.9090 C   0  0  1  0  0  3  0  0  0  0  0  0
  192.6290  169.2230  137.5370 O   0  0  0  0  0  0  0  0  0  0  0  0
  194.7940  171.2110  142.2610 O   0  0  0  0  0  1  0  0  0  0  0  0
  192.0500  168.8410  139.7820 C   0  0  0  0  0  2  0  0  0  0  0  0
  194.4250  169.5560  139.0160 C   0  0  0  0  0  2  0  0  0  0  0  0
  191.6280  170.1240  140.4830 C   0  0  0  0  0  2  0  0  0  0  0  0
  194.0950  170.4160  141.3450 C   0  0  1  0  0  3  0  0  0  0  0  0
  193.0150  169.1830  138.6930 C   0  0  0  0  0  0  0  0  0  0  0  0
  195.7840  171.2990  139.8690 O   0  0  0  0  0  1  0  0  0  0  0  0
  193.1000  168.9410  143.5530 C   0  0  0  0  0  2  0  0  0  0  0  0
  192.8770  168.7650  144.9190 O   0  0  0  0  0  1  0  0  0  0  0  0
  189.0280  174.8660  142.3950 C   0  0  0  0  0  2  0  0  0  0  0  0
  188.2700  175.0020  141.1610 N   0  0  0  0  0  2  0  0  0  0  0  0
  187.7210  176.2460  140.7300 C   0  0  0  0  0  0  0  0  0  0  0  0
  187.0250  176.2820  139.6790 O   0  0  0  0  0  0  0  0  0  0  0  0
  187.9850  177.5150  141.4820 C   0  0  0  0  0  2  0  0  0  0  0  0
  186.7860  177.9390  142.2720 C   0  0  0  0  0  0  0  0  0  0  0  0
  185.9840  178.7840  141.7870 O   0  0  0  0  0  0  0  0  0  0  0  0
  185.7300  176.2910  143.6200 O   0  0  0  0  0  0  0  0  0  0  0  0
  186.4880  177.2990  143.5690 C   0  0  0  0  0  0  0  0  0  0  0  0
  187.0890  177.8410  144.8350 C   0  0  2  0  0  3  0  0  0  0  0  0
  188.4060  177.2080  145.1520 C   0  0  0  0  0  0  0  0  0  0  0  0
  190.9130  176.1220  145.8040 C   0  0  0  0  0  0  0  0  0  0  0  0
  189.7360  175.5110  146.2620 C   0  0  0  0  0  3  0  0  0  0  0  0
  189.5790  177.8130  144.6840 C   0  0  0  0  0  3  0  0  0  0  0  0
  188.4880  176.0520  145.9390 C   0  0  0  0  0  3  0  0  0  0  0  0
  190.8270  177.2770  145.0100 C   0  0  0  0  0  3  0  0  0  0  0  0
  192.2450  175.5510  146.1990 C   0  0  1  0  0  0  0  0  0  0  0  0
  193.1460  175.1100  145.1330 C   0  0  2  0  0  3  0  0  0  0  0  0
  194.4150  174.4740  145.6580 C   0  0  0  0  0  2  0  0  0  0  0  0
  193.4090  176.3880  145.8430 N   0  0  2  0  0  0  0  0  0  0  0  0
  194.6410  175.7940  146.3580 C   0  0  0  0  0  2  0  0  0  0  0  0
  192.3380  174.9110  147.4470 O   0  0  0  0  0  1  0  0  0  0  0  0
  186.2070  177.7000  145.9140 O   0  0  0  0  0  0  0  0  0  0  0  0
  185.5510  178.8430  145.9640 O   0  0  0  0  0  0  0  0  0  0  0  0
  184.2280  178.4800  146.2370 C   0  0  0  0  0  1  0  0  0  0  0  0
  1 42  1  1  0  0  0
  1 25  1  0  0  0  0
  2  3  2  0  0  0  0
  2  1  1  0  0  0  0
  4  2  1  0  0  0  0
  5  4  1  0  0  0  0
  6  5  1  0  0  0  0
  7 12  1  0  0  0  0
  8 16  1  0  0  0  0
  8 10  2  0  0  0  0
  9 11  1  0  0  0  0
 10 17  1  0  0  0  0
 11 13  1  0  0  0  0
 12 13  1  0  0  0  0
 13  6  1  1  0  0  0
 14 15  1  0  0  0  0
 15 16  1  0  0  0  0
 16  7  2  0  0  0  0
 17 12  2  0  0  0  0
 18 14  1  0  0  0  0
 18 20  2  0  0  0  0
 19  9  1  0  0  0  0
 20 19  2  0  0  0  0
 22 24  1  0  0  0  0
 23 24  1  0  0  0  0
 24 10  1  0  0  0  0
 24 21  1  0  0  0  0
 25 26  1  6  0  0  0
 27 25  1  0  0  0  0
 27 28  1  0  0  0  0
 29 40  1  1  0  0  0
 29 28  1  0  0  0  0
 30 29  1  1  0  0  0
 31 39  1  1  0  0  0
 31 37  1  0  0  0  0
 32 38  2  0  0  0  0
 34 36  1  0  0  0  0
 35 31  1  0  0  0  0
 36 30  1  0  0  0  0
 37 30  1  0  0  0  0
 37 33  1  1  0  0  0
 38 35  1  0  0  0  0
 38 34  1  0  0  0  0
 40 41  1  0  0  0  0
 43 42  1  0  0  0  0
 44 43  1  0  0  0  0
 44 46  1  0  0  0  0
 45 44  2  0  0  0  0
 46 47  1  0  0  0  0
 47 50  1  0  0  0  0
 48 47  2  0  0  0  0
 50 49  2  0  0  0  0
 51 50  1  6  0  0  0
 51 52  1  0  0  0  0
 51 64  1  0  0  0  0
 52 56  1  0  0  0  0
 53 58  1  0  0  0  0
 53 54  1  0  0  0  0
 55 57  1  0  0  0  0
 55 52  2  0  0  0  0
 56 54  2  0  0  0  0
 57 53  2  0  0  0  0
 58 63  1  1  0  0  0
 59 60  1  1  0  0  0
 59 61  1  0  0  0  0
 59 58  1  0  0  0  0
 60 62  1  0  0  0  0
 61 58  1  0  0  0  0
 61 62  1  1  0  0  0
 64 65  1  0  0  0  0
 65 66  1  0  0  0  0
M  END
>  <MODEL>
5

>  <REMARK>
 VINA RESULT:      -6.1      2.721      5.324
  Name = 
  22 active torsions:
  status: ('A' for Active; 'I' for Inactive)
    1  A    between atoms: C_1  and  C_34
    2  A    between atoms: N_3  and  C_36
    3  A    between atoms: C_4  and  C_6
    4  A    between atoms: O_5  and  C_34
    5  A    between atoms: O_5  and  O_41
    6  A    between atoms: C_9  and  C_26
    7  A    between atoms: C_9  and  N_60
    8  A    between atoms: CA_10  and  C_14
    9  A    between atoms: CA_10  and  C_15
   10  A    between atoms: CA_10  and  N_64
   11  A    between atoms: C_11  and  C_25
   12  A    between atoms: C_11  and  N_64
   13  A    between atoms: C_13  and  C_58
   14  A    between atoms: C_17  and  C_30
   15  A    between atoms: C_17  and  C_53
   16  A    between atoms: C_21  and  C_24
   17  A    between atoms: C_21  and  C_34
   18  A    between atoms: C_24  and  C_47
   19  A    between atoms: C_25  and  C_30
   20  A    between atoms: C_30  and  C_36
   21  A    between atoms: C_31  and  C_47
   22  A    between atoms: C_53  and  N_60
                            x       y       z     vdW  Elec       q    Type
                         _______ _______ _______ _____ _____    ______ ____

>  <TORSDO>
F 22

$$$$
=
 OpenBabel11042419123D

 66 71  0  0  1  0  0  0  0  0999 V2000
  190.3250  173.4730  141.9760 C   0  0  1  0  0  3  0  0  0  0  0  0
  191.4240  174.4960  141.8610 C   0  0  0  0  0  0  0  0  0  0  0  0
  191.2620  175.6380  142.2580 O   0  0  0  0  0  0  0  0  0  0  0  0
  192.7150  174.1310  141.1980 C   0  0  0  0  0  2  0  0  0  0  0  0
  193.5130  175.3290  140.9870 N   0  0  0  0  0  2  0  0  0  0  0  0
  194.5970  174.9910  140.0680 C   0  0  0  0  0  2  0  0  0  0  0  0
  194.1470  175.6120  137.1000 N   0  0  0  0  0  0  0  0  0  0  0  0
  192.3360  175.8550  135.5750 C   0  0  0  0  0  3  0  0  0  0  0  0
  196.4660  173.6480  138.0320 C   0  0  0  0  0  2  0  0  0  0  0  0
  191.5600  174.9910  136.3620 C   0  0  0  0  0  0  0  0  0  0  0  0
  195.1680  173.0170  138.5410 C   0  0  0  0  0  2  0  0  0  0  0  0
  193.4460  174.7190  137.8450 C   0  0  0  0  0  0  0  0  0  0  0  0
  194.0980  174.0210  138.9940 C   0  0  2  0  0  3  0  0  0  0  0  0
  195.8400  177.2220  135.2440 N   0  0  0  0  0  2  0  0  0  0  0  0
  194.4460  177.0160  135.1450 N   0  0  0  0  0  2  0  0  0  0  0  0
  193.6520  176.1430  135.9560 C   0  0  0  0  0  0  0  0  0  0  0  0
  192.1330  174.3980  137.4940 C   0  0  0  0  0  3  0  0  0  0  0  0
  196.8560  176.2950  135.6670 C   0  0  0  0  0  3  0  0  0  0  0  0
  196.4300  173.8770  136.5590 C   0  0  0  0  0  3  0  0  0  0  0  0
  196.6330  175.0780  136.0900 C   0  0  0  0  0  0  0  0  0  0  0  0
  190.0990  173.5270  135.1910 F   0  0  0  0  0  0  0  0  0  0  0  0
  189.4070  174.4230  137.1320 F   0  0  0  0  0  0  0  0  0  0  0  0
  189.5820  175.7170  135.2910 F   0  0  0  0  0  0  0  0  0  0  0  0
  190.1450  174.6570  135.9870 C   0  0  0  0  0  0  0  0  0  0  0  0
  190.6870  172.2750  142.8630 C   0  0  1  0  0  3  0  0  0  0  0  0
  190.0240  172.3300  144.2270 C   0  0  0  0  0  1  0  0  0  0  0  0
  190.3830  170.9530  142.1670 C   0  0  0  0  0  2  0  0  0  0  0  0
  190.6330  171.0710  140.7340 N   0  0  0  0  0  2  0  0  0  0  0  0
  191.4700  169.9490  140.3270 C   0  0  1  0  0  3  0  0  0  0  0  0
  192.0690  170.1790  138.9300 C   0  0  2  0  0  3  0  0  0  0  0  0
  192.9520  169.1160  136.7610 C   0  0  1  0  0  3  0  0  0  0  0  0
  190.5220  170.6580  134.9600 O   0  0  0  0  0  0  0  0  0  0  0  0
  193.6850  168.4000  138.9420 O   0  0  0  0  0  1  0  0  0  0  0  0
  190.1420  170.3790  137.2620 C   0  0  0  0  0  2  0  0  0  0  0  0
  191.7340  168.8660  135.8790 C   0  0  0  0  0  2  0  0  0  0  0  0
  191.1780  171.1150  138.0990 C   0  0  0  0  0  2  0  0  0  0  0  0
  192.5840  168.8970  138.2350 C   0  0  1  0  0  3  0  0  0  0  0  0
  190.7620  169.9970  135.9560 C   0  0  0  0  0  0  0  0  0  0  0  0
  193.9640  168.2360  136.3720 O   0  0  0  0  0  1  0  0  0  0  0  0
  192.5130  169.6210  141.3960 C   0  0  0  0  0  2  0  0  0  0  0  0
  192.2610  168.3800  141.9800 O   0  0  0  0  0  1  0  0  0  0  0  0
  188.9160  174.0410  142.1990 C   0  0  0  0  0  2  0  0  0  0  0  0
  188.6260  175.1140  141.2600 N   0  0  0  0  0  2  0  0  0  0  0  0
  187.5290  176.0090  141.4310 C   0  0  0  0  0  0  0  0  0  0  0  0
  187.3000  176.8800  140.5490 O   0  0  0  0  0  0  0  0  0  0  0  0
  186.6650  175.9560  142.6550 C   0  0  0  0  0  2  0  0  0  0  0  0
  185.8450  177.2000  142.7960 C   0  0  0  0  0  0  0  0  0  0  0  0
  184.6960  177.2560  142.2770 O   0  0  0  0  0  0  0  0  0  0  0  0
  186.5810  179.4410  143.0930 O   0  0  0  0  0  0  0  0  0  0  0  0
  186.3350  178.3220  143.6220 C   0  0  0  0  0  0  0  0  0  0  0  0
  186.5400  178.1400  145.1000 C   0  0  2  0  0  3  0  0  0  0  0  0
  187.8180  177.4290  145.4100 C   0  0  0  0  0  0  0  0  0  0  0  0
  190.2620  176.1960  146.0440 C   0  0  0  0  0  0  0  0  0  0  0  0
  189.0610  175.7050  146.5780 C   0  0  0  0  0  3  0  0  0  0  0  0
  189.0130  177.9150  144.8670 C   0  0  0  0  0  3  0  0  0  0  0  0
  187.8450  176.3180  146.2650 C   0  0  0  0  0  3  0  0  0  0  0  0
  190.2300  177.3050  145.1840 C   0  0  0  0  0  3  0  0  0  0  0  0
  191.5610  175.5510  146.4290 C   0  0  1  0  0  0  0  0  0  0  0  0
  192.3630  174.9380  145.3690 C   0  0  2  0  0  3  0  0  0  0  0  0
  193.6030  174.2450  145.8920 C   0  0  0  0  0  2  0  0  0  0  0  0
  192.7690  176.2470  145.9390 N   0  0  2  0  0  0  0  0  0  0  0  0
  193.9750  175.5990  146.4510 C   0  0  0  0  0  2  0  0  0  0  0  0
  191.6710  175.0220  147.7270 O   0  0  0  0  0  1  0  0  0  0  0  0
  185.4540  177.4730  145.6820 O   0  0  0  0  0  0  0  0  0  0  0  0
  184.6970  178.4300  146.1780 O   0  0  0  0  0  0  0  0  0  0  0  0
  185.0680  178.5150  147.5240 C   0  0  0  0  0  1  0  0  0  0  0  0
  1 42  1  1  0  0  0
  1 25  1  0  0  0  0
  2  1  1  0  0  0  0
  2  3  2  0  0  0  0
  4  2  1  0  0  0  0
  5  4  1  0  0  0  0
  6  5  1  0  0  0  0
  7 12  1  0  0  0  0
  8 16  1  0  0  0  0
  8 10  2  0  0  0  0
  9 11  1  0  0  0  0
 10 17  1  0  0  0  0
 11 13  1  0  0  0  0
 12 13  1  0  0  0  0
 13  6  1  1  0  0  0
 14 18  1  0  0  0  0
 15 14  1  0  0  0  0
 15 16  1  0  0  0  0
 16  7  2  0  0  0  0
 17 12  2  0  0  0  0
 18 20  2  0  0  0  0
 19  9  1  0  0  0  0
 20 19  2  0  0  0  0
 21 24  1  0  0  0  0
 23 24  1  0  0  0  0
 24 10  1  0  0  0  0
 24 22  1  0  0  0  0
 25 26  1  1  0  0  0
 27 25  1  0  0  0  0
 28 27  1  0  0  0  0
 29 28  1  0  0  0  0
 29 40  1  1  0  0  0
 30 29  1  1  0  0  0
 31 39  1  6  0  0  0
 31 37  1  0  0  0  0
 32 38  2  0  0  0  0
 34 36  1  0  0  0  0
 35 38  1  0  0  0  0
 35 31  1  0  0  0  0
 36 30  1  0  0  0  0
 37 30  1  0  0  0  0
 37 33  1  1  0  0  0
 38 34  1  0  0  0  0
 40 41  1  0  0  0  0
 43 44  1  0  0  0  0
 43 42  1  0  0  0  0
 44 46  1  0  0  0  0
 45 44  2  0  0  0  0
 46 47  1  0  0  0  0
 47 50  1  0  0  0  0
 48 47  2  0  0  0  0
 49 50  2  0  0  0  0
 51 50  1  6  0  0  0
 51 52  1  0  0  0  0
 51 64  1  0  0  0  0
 52 56  1  0  0  0  0
 53 58  1  0  0  0  0
 53 54  1  0  0  0  0
 55 57  1  0  0  0  0
 55 52  2  0  0  0  0
 56 54  2  0  0  0  0
 57 53  2  0  0  0  0
 58 63  1  1  0  0  0
 59 60  1  1  0  0  0
 59 61  1  0  0  0  0
 59 58  1  0  0  0  0
 60 62  1  0  0  0  0
 61 58  1  0  0  0  0
 61 62  1  1  0  0  0
 64 65  1  0  0  0  0
 65 66  1  0  0  0  0
M  END
>  <MODEL>
6

>  <REMARK>
 VINA RESULT:      -5.9      2.900      4.758
  Name = 
  22 active torsions:
  status: ('A' for Active; 'I' for Inactive)
    1  A    between atoms: C_1  and  C_34
    2  A    between atoms: N_3  and  C_36
    3  A    between atoms: C_4  and  C_6
    4  A    between atoms: O_5  and  C_34
    5  A    between atoms: O_5  and  O_41
    6  A    between atoms: C_9  and  C_26
    7  A    between atoms: C_9  and  N_60
    8  A    between atoms: CA_10  and  C_14
    9  A    between atoms: CA_10  and  C_15
   10  A    between atoms: CA_10  and  N_64
   11  A    between atoms: C_11  and  C_25
   12  A    between atoms: C_11  and  N_64
   13  A    between atoms: C_13  and  C_58
   14  A    between atoms: C_17  and  C_30
   15  A    between atoms: C_17  and  C_53
   16  A    between atoms: C_21  and  C_24
   17  A    between atoms: C_21  and  C_34
   18  A    between atoms: C_24  and  C_47
   19  A    between atoms: C_25  and  C_30
   20  A    between atoms: C_30  and  C_36
   21  A    between atoms: C_31  and  C_47
   22  A    between atoms: C_53  and  N_60
                            x       y       z     vdW  Elec       q    Type
                         _______ _______ _______ _____ _____    ______ ____

>  <TORSDO>
F 22

$$$$
=
 OpenBabel11042419123D

 66 71  0  0  1  0  0  0  0  0999 V2000
  190.2100  174.1920  142.0090 C   0  0  1  0  0  3  0  0  0  0  0  0
  191.5840  174.5360  141.4940 C   0  0  0  0  0  0  0  0  0  0  0  0
  192.2740  175.3690  142.0580 O   0  0  0  0  0  0  0  0  0  0  0  0
  192.0920  173.8950  140.2400 C   0  0  0  0  0  2  0  0  0  0  0  0
  193.5450  173.9510  140.2160 N   0  0  0  0  0  2  0  0  0  0  0  0
  193.9470  174.6910  139.0230 C   0  0  0  0  0  2  0  0  0  0  0  0
  193.1930  176.0000  136.3560 N   0  0  0  0  0  0  0  0  0  0  0  0
  191.2440  176.4350  135.0610 C   0  0  0  0  0  3  0  0  0  0  0  0
  195.7420  174.1170  136.5960 C   0  0  0  0  0  2  0  0  0  0  0  0
  190.6150  175.3230  135.6390 C   0  0  0  0  0  0  0  0  0  0  0  0
  194.5510  173.2450  136.9980 C   0  0  0  0  0  2  0  0  0  0  0  0
  192.6370  174.8790  136.8810 C   0  0  0  0  0  0  0  0  0  0  0  0
  193.4420  173.9820  137.7640 C   0  0  2  0  0  3  0  0  0  0  0  0
  194.5780  178.2010  134.8900 N   0  0  0  0  0  2  0  0  0  0  0  0
  193.2030  177.8820  134.8260 N   0  0  0  0  0  2  0  0  0  0  0  0
  192.5590  176.7520  135.4240 C   0  0  0  0  0  0  0  0  0  0  0  0
  191.3310  174.5230  136.5380 C   0  0  0  0  0  3  0  0  0  0  0  0
  195.7010  177.3070  134.9920 C   0  0  0  0  0  3  0  0  0  0  0  0
  195.5600  174.7110  135.2400 C   0  0  0  0  0  3  0  0  0  0  0  0
  195.6200  176.0060  135.0920 C   0  0  0  0  0  0  0  0  0  0  0  0
  189.1820  173.7890  134.5240 F   0  0  0  0  0  0  0  0  0  0  0  0
  188.4700  174.7480  136.4270 F   0  0  0  0  0  0  0  0  0  0  0  0
  188.6270  175.9720  134.5380 F   0  0  0  0  0  0  0  0  0  0  0  0
  189.2060  174.9500  135.2760 C   0  0  0  0  0  0  0  0  0  0  0  0
  190.2250  173.2620  143.2290 C   0  0  1  0  0  3  0  0  0  0  0  0
  189.2380  172.1150  143.1070 C   0  0  0  0  0  1  0  0  0  0  0  0
  191.6280  172.7420  143.5180 C   0  0  0  0  0  2  0  0  0  0  0  0
  191.6470  171.2850  143.4480 N   0  0  0  0  0  2  0  0  0  0  0  0
  192.6030  170.8940  142.4190 C   0  0  1  0  0  3  0  0  0  0  0  0
  193.7460  170.0540  143.0110 C   0  0  2  0  0  3  0  0  0  0  0  0
  196.2830  169.7950  143.3430 C   0  0  1  0  0  3  0  0  0  0  0  0
  195.9100  169.9770  146.7120 O   0  0  0  0  0  0  0  0  0  0  0  0
  195.3010  170.2390  141.1880 O   0  0  0  0  0  1  0  0  0  0  0  0
  194.1920  170.8810  145.3890 C   0  0  0  0  0  2  0  0  0  0  0  0
  196.6420  170.6200  144.5730 C   0  0  0  0  0  2  0  0  0  0  0  0
  193.5350  169.8230  144.5150 C   0  0  0  0  0  2  0  0  0  0  0  0
  195.1610  170.4870  142.5580 C   0  0  1  0  0  3  0  0  0  0  0  0
  195.6100  170.4820  145.6440 C   0  0  0  0  0  0  0  0  0  0  0  0
  197.4280  169.6660  142.5520 O   0  0  0  0  0  1  0  0  0  0  0  0
  191.9000  170.2280  141.2360 C   0  0  0  0  0  2  0  0  0  0  0  0
  190.8350  169.4350  141.6660 O   0  0  0  0  0  1  0  0  0  0  0  0
  189.2270  175.3680  142.1000 C   0  0  0  0  0  2  0  0  0  0  0  0
  188.3530  175.4150  140.9390 N   0  0  0  0  0  2  0  0  0  0  0  0
  187.5630  176.5580  140.6190 C   0  0  0  0  0  0  0  0  0  0  0  0
  186.7820  176.5110  139.6300 O   0  0  0  0  0  0  0  0  0  0  0  0
  187.6690  177.8250  141.4130 C   0  0  0  0  0  2  0  0  0  0  0  0
  186.5560  177.9390  142.4080 C   0  0  0  0  0  0  0  0  0  0  0  0
  185.4870  178.5260  142.0870 O   0  0  0  0  0  0  0  0  0  0  0  0
  186.2410  176.1020  143.8840 O   0  0  0  0  0  0  0  0  0  0  0  0
  186.6680  177.2800  143.7250 C   0  0  0  0  0  0  0  0  0  0  0  0
  187.2950  178.0040  144.8820 C   0  0  2  0  0  3  0  0  0  0  0  0
  188.6850  177.5290  145.1600 C   0  0  0  0  0  0  0  0  0  0  0  0
  191.3310  176.7510  145.6960 C   0  0  0  0  0  0  0  0  0  0  0  0
  190.2880  176.3420  146.5400 C   0  0  0  0  0  3  0  0  0  0  0  0
  189.7220  177.9280  144.3090 C   0  0  0  0  0  3  0  0  0  0  0  0
  188.9720  176.7300  146.2760 C   0  0  0  0  0  3  0  0  0  0  0  0
  191.0390  177.5460  144.5760 C   0  0  0  0  0  3  0  0  0  0  0  0
  192.7440  176.3610  146.0220 C   0  0  1  0  0  0  0  0  0  0  0  0
  193.2650  175.1220  145.4430 C   0  0  2  0  0  3  0  0  0  0  0  0
  194.6650  174.7930  145.9150 C   0  0  0  0  0  2  0  0  0  0  0  0
  193.6860  176.4330  144.8860 N   0  0  2  0  0  0  0  0  0  0  0  0
  195.0460  176.1340  145.3310 C   0  0  0  0  0  2  0  0  0  0  0  0
  193.2720  176.7850  147.2540 O   0  0  0  0  0  1  0  0  0  0  0  0
  186.5030  177.9020  146.0320 O   0  0  0  0  0  0  0  0  0  0  0  0
  185.3870  178.5360  145.7310 O   0  0  0  0  0  0  0  0  0  0  0  0
  184.4230  177.9790  146.5770 C   0  0  0  0  0  1  0  0  0  0  0  0
  1 42  1  1  0  0  0
  1 25  1  0  0  0  0
  2  1  1  0  0  0  0
  2  3  2  0  0  0  0
  4  2  1  0  0  0  0
  5  4  1  0  0  0  0
  6  5  1  0  0  0  0
  7 12  1  0  0  0  0
  8 16  1  0  0  0  0
  8 10  2  0  0  0  0
  9 11  1  0  0  0  0
 10 17  1  0  0  0  0
 11 13  1  0  0  0  0
 12 13  1  0  0  0  0
 13  6  1  1  0  0  0
 14 18  1  0  0  0  0
 15 14  1  0  0  0  0
 15 16  1  0  0  0  0
 16  7  2  0  0  0  0
 17 12  2  0  0  0  0
 18 20  2  0  0  0  0
 19  9  1  0  0  0  0
 20 19  2  0  0  0  0
 21 24  1  0  0  0  0
 23 24  1  0  0  0  0
 24 10  1  0  0  0  0
 24 22  1  0  0  0  0
 25 26  1  6  0  0  0
 25 27  1  0  0  0  0
 28 27  1  0  0  0  0
 29 40  1  6  0  0  0
 29 28  1  0  0  0  0
 30 29  1  1  0  0  0
 30 36  1  0  0  0  0
 31 39  1  6  0  0  0
 31 35  1  0  0  0  0
 34 38  1  0  0  0  0
 35 38  1  0  0  0  0
 36 34  1  0  0  0  0
 37 33  1  6  0  0  0
 37 30  1  0  0  0  0
 37 31  1  0  0  0  0
 38 32  2  0  0  0  0
 40 41  1  0  0  0  0
 43 42  1  0  0  0  0
 44 43  1  0  0  0  0
 44 46  1  0  0  0  0
 45 44  2  0  0  0  0
 46 47  1  0  0  0  0
 47 50  1  0  0  0  0
 48 47  2  0  0  0  0
 50 49  2  0  0  0  0
 51 50  1  6  0  0  0
 51 52  1  0  0  0  0
 51 64  1  0  0  0  0
 52 56  1  0  0  0  0
 53 58  1  0  0  0  0
 53 54  1  0  0  0  0
 55 57  1  0  0  0  0
 55 52  2  0  0  0  0
 56 54  2  0  0  0  0
 57 53  2  0  0  0  0
 58 63  1  1  0  0  0
 59 60  1  1  0  0  0
 59 58  1  0  0  0  0
 61 62  1  1  0  0  0
 61 59  1  0  0  0  0
 61 58  1  0  0  0  0
 62 60  1  0  0  0  0
 65 64  1  0  0  0  0
 65 66  1  0  0  0  0
M  END
>  <MODEL>
7

>  <REMARK>
 VINA RESULT:      -5.8      3.247      6.040
  Name = 
  22 active torsions:
  status: ('A' for Active; 'I' for Inactive)
    1  A    between atoms: C_1  and  C_34
    2  A    between atoms: N_3  and  C_36
    3  A    between atoms: C_4  and  C_6
    4  A    between atoms: O_5  and  C_34
    5  A    between atoms: O_5  and  O_41
    6  A    between atoms: C_9  and  C_26
    7  A    between atoms: C_9  and  N_60
    8  A    between atoms: CA_10  and  C_14
    9  A    between atoms: CA_10  and  C_15
   10  A    between atoms: CA_10  and  N_64
   11  A    between atoms: C_11  and  C_25
   12  A    between atoms: C_11  and  N_64
   13  A    between atoms: C_13  and  C_58
   14  A    between atoms: C_17  and  C_30
   15  A    between atoms: C_17  and  C_53
   16  A    between atoms: C_21  and  C_24
   17  A    between atoms: C_21  and  C_34
   18  A    between atoms: C_24  and  C_47
   19  A    between atoms: C_25  and  C_30
   20  A    between atoms: C_30  and  C_36
   21  A    between atoms: C_31  and  C_47
   22  A    between atoms: C_53  and  N_60
                            x       y       z     vdW  Elec       q    Type
                         _______ _______ _______ _____ _____    ______ ____

>  <TORSDO>
F 22

$$$$
=
 OpenBabel11042419123D

 66 71  0  0  1  0  0  0  0  0999 V2000
  191.1800  172.7680  142.4490 C   0  0  1  0  0  3  0  0  0  0  0  0
  191.5110  173.9040  141.5170 C   0  0  0  0  0  0  0  0  0  0  0  0
  190.8780  174.0770  140.4880 O   0  0  0  0  0  0  0  0  0  0  0  0
  192.6700  174.8010  141.8190 C   0  0  0  0  0  2  0  0  0  0  0  0
  193.9130  174.1250  141.4830 N   0  0  0  0  0  2  0  0  0  0  0  0
  194.4010  174.6800  140.2230 C   0  0  0  0  0  2  0  0  0  0  0  0
  192.8570  174.3950  137.5900 N   0  0  0  0  0  0  0  0  0  0  0  0
  191.2040  172.9800  136.6270 C   0  0  0  0  0  3  0  0  0  0  0  0
  195.9650  175.0610  137.6060 C   0  0  0  0  0  2  0  0  0  0  0  0
  191.6280  171.9270  137.4510 C   0  0  0  0  0  0  0  0  0  0  0  0
  195.8320  173.7200  138.3300 C   0  0  0  0  0  2  0  0  0  0  0  0
  193.3360  173.3770  138.3500 C   0  0  0  0  0  0  0  0  0  0  0  0
  194.5630  173.5710  139.1820 C   0  0  2  0  0  3  0  0  0  0  0  0
  192.1040  176.5060  135.6200 N   0  0  0  0  0  2  0  0  0  0  0  0
  191.4240  175.2890  135.8500 N   0  0  0  0  0  2  0  0  0  0  0  0
  191.8520  174.2190  136.6990 C   0  0  0  0  0  0  0  0  0  0  0  0
  192.7230  172.1230  138.3010 C   0  0  0  0  0  3  0  0  0  0  0  0
  193.5210  176.7580  135.6320 C   0  0  0  0  0  3  0  0  0  0  0  0
  195.3680  175.0150  136.2400 C   0  0  0  0  0  3  0  0  0  0  0  0
  194.4390  175.8710  135.9150 C   0  0  0  0  0  0  0  0  0  0  0  0
  189.9140  170.5850  136.4980 F   0  0  0  0  0  0  0  0  0  0  0  0
  191.8770  169.6240  137.0200 F   0  0  0  0  0  0  0  0  0  0  0  0
  190.4620  170.2630  138.6580 F   0  0  0  0  0  0  0  0  0  0  0  0
  190.9590  170.5840  137.4030 C   0  0  0  0  0  0  0  0  0  0  0  0
  189.8800  172.9770  143.2370 C   0  0  1  0  0  3  0  0  0  0  0  0
  189.9420  172.3940  144.6380 C   0  0  0  0  0  1  0  0  0  0  0  0
  189.4840  174.4480  143.2800 C   0  0  0  0  0  2  0  0  0  0  0  0
  188.1210  174.6150  142.7880 N   0  0  0  0  0  2  0  0  0  0  0  0
  187.8290  176.0430  142.7410 C   0  0  1  0  0  3  0  0  0  0  0  0
  186.6880  176.4100  143.7030 C   0  0  2  0  0  3  0  0  0  0  0  0
  186.0090  177.5410  145.9100 C   0  0  1  0  0  3  0  0  0  0  0  0
  184.0640  179.7600  144.2310 O   0  0  0  0  0  0  0  0  0  0  0  0
  187.8140  175.9510  145.7770 O   0  0  0  0  0  1  0  0  0  0  0  0
  185.7770  178.7000  143.0220 C   0  0  0  0  0  2  0  0  0  0  0  0
  185.8290  179.0220  145.5970 C   0  0  0  0  0  2  0  0  0  0  0  0
  185.5840  177.1910  142.9730 C   0  0  0  0  0  2  0  0  0  0  0  0
  187.1550  176.9640  145.0700 C   0  0  1  0  0  3  0  0  0  0  0  0
  185.1580  179.2240  144.2770 C   0  0  0  0  0  0  0  0  0  0  0  0
  186.2860  177.4120  147.2740 O   0  0  0  0  0  1  0  0  0  0  0  0
  189.0970  176.8730  142.9470 C   0  0  0  0  0  2  0  0  0  0  0  0
  189.1390  177.9530  142.0660 O   0  0  0  0  0  1  0  0  0  0  0  0
  191.3630  171.3600  141.8630 C   0  0  0  0  0  2  0  0  0  0  0  0
  191.4920  170.3640  142.9150 N   0  0  0  0  0  2  0  0  0  0  0  0
  192.7470  169.8050  143.2940 C   0  0  0  0  0  0  0  0  0  0  0  0
  192.7810  168.9030  144.1740 O   0  0  0  0  0  0  0  0  0  0  0  0
  194.0300  170.2920  142.6900 C   0  0  0  0  0  2  0  0  0  0  0  0
  195.2140  169.8290  143.4810 C   0  0  0  0  0  0  0  0  0  0  0  0
  195.8740  168.8270  143.0930 O   0  0  0  0  0  0  0  0  0  0  0  0
  195.5540  170.1180  145.8160 O   0  0  0  0  0  0  0  0  0  0  0  0
  195.6690  170.6010  144.6550 C   0  0  0  0  0  0  0  0  0  0  0  0
  196.2760  171.9640  144.4760 C   0  0  2  0  0  3  0  0  0  0  0  0
  195.3890  173.0500  144.9940 C   0  0  0  0  0  0  0  0  0  0  0  0
  193.6710  175.0110  146.0430 C   0  0  0  0  0  0  0  0  0  0  0  0
  195.0620  175.1550  146.1550 C   0  0  0  0  0  3  0  0  0  0  0  0
  194.0010  172.9100  144.8700 C   0  0  0  0  0  3  0  0  0  0  0  0
  195.9170  174.1790  145.6340 C   0  0  0  0  0  3  0  0  0  0  0  0
  193.1450  173.8820  145.3950 C   0  0  0  0  0  3  0  0  0  0  0  0
  192.7690  176.0470  146.6480 C   0  0  1  0  0  0  0  0  0  0  0  0
  191.4220  176.1920  146.0930 C   0  0  2  0  0  3  0  0  0  0  0  0
  190.6420  177.3250  146.7250 C   0  0  0  0  0  2  0  0  0  0  0  0
  191.6160  175.5060  147.3960 N   0  0  2  0  0  0  0  0  0  0  0  0
  190.8620  176.5880  148.0260 C   0  0  0  0  0  2  0  0  0  0  0  0
  193.3680  177.1800  147.2260 O   0  0  0  0  0  1  0  0  0  0  0  0
  196.6050  172.1990  143.1350 O   0  0  0  0  0  0  0  0  0  0  0  0
  196.6580  173.5110  143.0250 O   0  0  0  0  0  0  0  0  0  0  0  0
  197.5640  173.7440  141.9850 C   0  0  0  0  0  1  0  0  0  0  0  0
  1 42  1  6  0  0  0
  1 25  1  0  0  0  0
  2  4  1  0  0  0  0
  2  1  1  0  0  0  0
  3  2  2  0  0  0  0
  5  4  1  0  0  0  0
  6  5  1  0  0  0  0
  7 12  1  0  0  0  0
  8 16  1  0  0  0  0
  8 10  2  0  0  0  0
  9 11  1  0  0  0  0
 10 17  1  0  0  0  0
 11 13  1  0  0  0  0
 12 13  1  0  0  0  0
 13  6  1  6  0  0  0
 14 18  1  0  0  0  0
 14 15  1  0  0  0  0
 15 16  1  0  0  0  0
 16  7  2  0  0  0  0
 17 12  2  0  0  0  0
 18 20  2  0  0  0  0
 19  9  1  0  0  0  0
 20 19  2  0  0  0  0
 21 24  1  0  0  0  0
 22 24  1  0  0  0  0
 24 10  1  0  0  0  0
 24 23  1  0  0  0  0
 25 27  1  0  0  0  0
 25 26  1  1  0  0  0
 28 27  1  0  0  0  0
 29 28  1  0  0  0  0
 29 40  1  1  0  0  0
 30 29  1  6  0  0  0
 30 37  1  0  0  0  0
 31 39  1  1  0  0  0
 32 38  2  0  0  0  0
 34 38  1  0  0  0  0
 35 31  1  0  0  0  0
 36 34  1  0  0  0  0
 36 30  1  0  0  0  0
 37 33  1  1  0  0  0
 37 31  1  0  0  0  0
 38 35  1  0  0  0  0
 41 40  1  0  0  0  0
 42 43  1  0  0  0  0
 43 44  1  0  0  0  0
 44 45  2  0  0  0  0
 46 44  1  0  0  0  0
 46 47  1  0  0  0  0
 47 50  1  0  0  0  0
 48 47  2  0  0  0  0
 50 49  2  0  0  0  0
 51 64  1  6  0  0  0
 51 50  1  0  0  0  0
 51 52  1  0  0  0  0
 52 56  1  0  0  0  0
 53 54  1  0  0  0  0
 53 58  1  0  0  0  0
 55 52  2  0  0  0  0
 55 57  1  0  0  0  0
 56 54  2  0  0  0  0
 57 53  2  0  0  0  0
 58 63  1  1  0  0  0
 58 61  1  0  0  0  0
 59 58  1  0  0  0  0
 59 60  1  1  0  0  0
 59 61  1  0  0  0  0
 60 62  1  0  0  0  0
 61 62  1  1  0  0  0
 65 64  1  0  0  0  0
 66 65  1  0  0  0  0
M  END
>  <MODEL>
8

>  <REMARK>
 VINA RESULT:      -5.7      2.610      8.179
  Name = 
  22 active torsions:
  status: ('A' for Active; 'I' for Inactive)
    1  A    between atoms: C_1  and  C_34
    2  A    between atoms: N_3  and  C_36
    3  A    between atoms: C_4  and  C_6
    4  A    between atoms: O_5  and  C_34
    5  A    between atoms: O_5  and  O_41
    6  A    between atoms: C_9  and  C_26
    7  A    between atoms: C_9  and  N_60
    8  A    between atoms: CA_10  and  C_14
    9  A    between atoms: CA_10  and  C_15
   10  A    between atoms: CA_10  and  N_64
   11  A    between atoms: C_11  and  C_25
   12  A    between atoms: C_11  and  N_64
   13  A    between atoms: C_13  and  C_58
   14  A    between atoms: C_17  and  C_30
   15  A    between atoms: C_17  and  C_53
   16  A    between atoms: C_21  and  C_24
   17  A    between atoms: C_21  and  C_34
   18  A    between atoms: C_24  and  C_47
   19  A    between atoms: C_25  and  C_30
   20  A    between atoms: C_30  and  C_36
   21  A    between atoms: C_31  and  C_47
   22  A    between atoms: C_53  and  N_60
                            x       y       z     vdW  Elec       q    Type
                         _______ _______ _______ _____ _____    ______ ____

>  <TORSDO>
F 22

$$$$
=
 OpenBabel11042419123D

 66 71  0  0  1  0  0  0  0  0999 V2000
  191.3900  173.2770  143.4170 C   0  0  1  0  0  3  0  0  0  0  0  0
  191.3670  173.2000  141.9130 C   0  0  0  0  0  0  0  0  0  0  0  0
  192.3820  173.3760  141.2600 O   0  0  0  0  0  0  0  0  0  0  0  0
  190.0720  172.9640  141.1990 C   0  0  0  0  0  2  0  0  0  0  0  0
  189.8770  173.9920  140.1880 N   0  0  0  0  0  2  0  0  0  0  0  0
  189.4050  173.3390  138.9700 C   0  0  0  0  0  2  0  0  0  0  0  0
  191.9590  171.9540  137.9950 N   0  0  0  0  0  0  0  0  0  0  0  0
  194.3010  172.3690  137.9090 C   0  0  0  0  0  3  0  0  0  0  0  0
  189.3010  171.9060  136.2530 C   0  0  0  0  0  2  0  0  0  0  0  0
  194.0540  173.7490  137.8870 C   0  0  0  0  0  0  0  0  0  0  0  0
  189.6510  173.3850  136.4220 C   0  0  0  0  0  2  0  0  0  0  0  0
  191.6860  173.2810  137.9040 C   0  0  0  0  0  0  0  0  0  0  0  0
  190.2720  173.7500  137.7780 C   0  0  2  0  0  3  0  0  0  0  0  0
  192.5340  169.0350  137.7530 N   0  0  0  0  0  2  0  0  0  0  0  0
  193.4800  170.0640  137.9570 N   0  0  0  0  0  2  0  0  0  0  0  0
  193.2260  171.4730  137.9450 C   0  0  0  0  0  0  0  0  0  0  0  0
  192.7310  174.2050  137.8570 C   0  0  0  0  0  3  0  0  0  0  0  0
  191.3430  169.0590  136.9450 C   0  0  0  0  0  3  0  0  0  0  0  0
  190.4260  171.1350  135.6510 C   0  0  0  0  0  3  0  0  0  0  0  0
  190.9060  170.0980  136.2820 C   0  0  0  0  0  0  0  0  0  0  0  0
  195.5610  175.0040  136.5440 F   0  0  0  0  0  0  0  0  0  0  0  0
  194.7760  175.9230  138.4390 F   0  0  0  0  0  0  0  0  0  0  0  0
  196.2730  174.2360  138.5380 F   0  0  0  0  0  0  0  0  0  0  0  0
  195.1800  174.7410  137.8470 C   0  0  0  0  0  0  0  0  0  0  0  0
  190.1690  173.9860  144.0170 C   0  0  1  0  0  3  0  0  0  0  0  0
  189.7640  173.4200  145.3670 C   0  0  0  0  0  1  0  0  0  0  0  0
  190.3860  175.4920  144.1040 C   0  0  0  0  0  2  0  0  0  0  0  0
  189.5280  176.1790  143.1460 N   0  0  0  0  0  2  0  0  0  0  0  0
  188.1540  176.0960  143.6280 C   0  0  1  0  0  3  0  0  0  0  0  0
  187.7520  177.3730  144.3830 C   0  0  2  0  0  3  0  0  0  0  0  0
  185.9750  179.1980  144.7390 C   0  0  1  0  0  3  0  0  0  0  0  0
  185.6020  178.2700  147.9830 O   0  0  0  0  0  0  0  0  0  0  0  0
  186.7610  178.5700  142.5500 O   0  0  0  0  0  1  0  0  0  0  0  0
  186.5070  176.6820  146.5070 C   0  0  0  0  0  2  0  0  0  0  0  0
  184.9780  178.6360  145.7470 C   0  0  0  0  0  2  0  0  0  0  0  0
  187.8210  177.1560  145.9030 C   0  0  0  0  0  2  0  0  0  0  0  0
  186.4890  178.0740  143.8290 C   0  0  1  0  0  3  0  0  0  0  0  0
  185.6680  177.8760  146.8320 C   0  0  0  0  0  0  0  0  0  0  0  0
  185.3300  180.1820  143.9860 O   0  0  0  0  0  1  0  0  0  0  0  0
  187.1950  175.7220  142.4980 C   0  0  0  0  0  2  0  0  0  0  0  0
  187.1290  174.3390  142.3310 O   0  0  0  0  0  1  0  0  0  0  0  0
  191.8090  171.9860  144.1360 C   0  0  0  0  0  2  0  0  0  0  0  0
  191.3290  170.8090  143.4290 N   0  0  0  0  0  2  0  0  0  0  0  0
  192.1490  169.6670  143.1940 C   0  0  0  0  0  0  0  0  0  0  0  0
  191.6880  168.7040  142.5230 O   0  0  0  0  0  0  0  0  0  0  0  0
  193.5340  169.5740  143.7590 C   0  0  0  0  0  2  0  0  0  0  0  0
  194.5520  169.3920  142.6760 C   0  0  0  0  0  0  0  0  0  0  0  0
  194.1870  169.3770  141.4690 O   0  0  0  0  0  0  0  0  0  0  0  0
  196.5220  168.2310  143.3250 O   0  0  0  0  0  0  0  0  0  0  0  0
  195.9890  169.3320  143.0120 C   0  0  0  0  0  0  0  0  0  0  0  0
  196.8270  170.5780  142.9790 C   0  0  2  0  0  3  0  0  0  0  0  0
  196.1790  171.7150  143.7020 C   0  0  0  0  0  0  0  0  0  0  0  0
  194.8570  173.8260  145.0020 C   0  0  0  0  0  0  0  0  0  0  0  0
  195.4050  172.7690  145.7440 C   0  0  0  0  0  3  0  0  0  0  0  0
  195.6440  172.7740  142.9590 C   0  0  0  0  0  3  0  0  0  0  0  0
  196.0620  171.7180  145.0980 C   0  0  0  0  0  3  0  0  0  0  0  0
  194.9820  173.8230  143.6030 C   0  0  0  0  0  3  0  0  0  0  0  0
  194.1170  174.9230  145.7110 C   0  0  1  0  0  0  0  0  0  0  0  0
  194.8320  176.1710  145.9810 C   0  0  2  0  0  3  0  0  0  0  0  0
  194.0110  177.1620  146.7760 C   0  0  0  0  0  2  0  0  0  0  0  0
  193.8310  176.1140  144.8850 N   0  0  2  0  0  0  0  0  0  0  0  0
  193.0240  177.0740  145.6350 C   0  0  0  0  0  2  0  0  0  0  0  0
  193.0830  174.5530  146.5900 O   0  0  0  0  0  1  0  0  0  0  0  0
  197.1350  170.9460  141.6630 O   0  0  0  0  0  0  0  0  0  0  0  0
  197.6650  169.8650  141.1260 O   0  0  0  0  0  0  0  0  0  0  0  0
  197.5010  170.0380  139.7470 C   0  0  0  0  0  1  0  0  0  0  0  0
  1 25  1  0  0  0  0
  1 42  1  1  0  0  0
  2  1  1  0  0  0  0
  3  2  2  0  0  0  0
  4  2  1  0  0  0  0
  5  4  1  0  0  0  0
  6  5  1  0  0  0  0
  8 16  1  0  0  0  0
  9 11  1  0  0  0  0
 10  8  2  0  0  0  0
 11 13  1  0  0  0  0
 12  7  1  0  0  0  0
 13 12  1  0  0  0  0
 13  6  1  1  0  0  0
 14 15  1  0  0  0  0
 16 15  1  0  0  0  0
 16  7  2  0  0  0  0
 17 10  1  0  0  0  0
 17 12  2  0  0  0  0
 18 14  1  0  0  0  0
 19  9  1  0  0  0  0
 19 20  2  0  0  0  0
 20 18  2  0  0  0  0
 21 24  1  0  0  0  0
 24 10  1  0  0  0  0
 24 22  1  0  0  0  0
 24 23  1  0  0  0  0
 25 27  1  0  0  0  0
 25 26  1  1  0  0  0
 28 29  1  0  0  0  0
 28 27  1  0  0  0  0
 29 40  1  6  0  0  0
 30 29  1  6  0  0  0
 30 36  1  0  0  0  0
 31 39  1  6  0  0  0
 31 35  1  0  0  0  0
 34 38  1  0  0  0  0
 35 38  1  0  0  0  0
 36 34  1  0  0  0  0
 37 33  1  6  0  0  0
 37 30  1  0  0  0  0
 37 31  1  0  0  0  0
 38 32  2  0  0  0  0
 41 40  1  0  0  0  0
 43 42  1  0  0  0  0
 44 43  1  0  0  0  0
 44 46  1  0  0  0  0
 45 44  2  0  0  0  0
 47 50  1  0  0  0  0
 47 46  1  0  0  0  0
 48 47  2  0  0  0  0
 50 49  2  0  0  0  0
 51 64  1  6  0  0  0
 51 50  1  0  0  0  0
 51 52  1  0  0  0  0
 52 56  1  0  0  0  0
 53 58  1  0  0  0  0
 53 54  1  0  0  0  0
 55 57  1  0  0  0  0
 55 52  2  0  0  0  0
 56 54  2  0  0  0  0
 57 53  2  0  0  0  0
 58 59  1  0  0  0  0
 58 63  1  1  0  0  0
 59 60  1  1  0  0  0
 61 62  1  1  0  0  0
 61 58  1  0  0  0  0
 61 59  1  0  0  0  0
 62 60  1  0  0  0  0
 65 64  1  0  0  0  0
 66 65  1  0  0  0  0
M  END
>  <MODEL>
9

>  <REMARK>
 VINA RESULT:      -5.4      2.425      8.853
  Name = 
  22 active torsions:
  status: ('A' for Active; 'I' for Inactive)
    1  A    between atoms: C_1  and  C_34
    2  A    between atoms: N_3  and  C_36
    3  A    between atoms: C_4  and  C_6
    4  A    between atoms: O_5  and  C_34
    5  A    between atoms: O_5  and  O_41
    6  A    between atoms: C_9  and  C_26
    7  A    between atoms: C_9  and  N_60
    8  A    between atoms: CA_10  and  C_14
    9  A    between atoms: CA_10  and  C_15
   10  A    between atoms: CA_10  and  N_64
   11  A    between atoms: C_11  and  C_25
   12  A    between atoms: C_11  and  N_64
   13  A    between atoms: C_13  and  C_58
   14  A    between atoms: C_17  and  C_30
   15  A    between atoms: C_17  and  C_53
   16  A    between atoms: C_21  and  C_24
   17  A    between atoms: C_21  and  C_34
   18  A    between atoms: C_24  and  C_47
   19  A    between atoms: C_25  and  C_30
   20  A    between atoms: C_30  and  C_36
   21  A    between atoms: C_31  and  C_47
   22  A    between atoms: C_53  and  N_60
                            x       y       z     vdW  Elec       q    Type
                         _______ _______ _______ _____ _____    ______ ____

>  <TORSDO>
F 22

$$$$
