=
 OpenBabel11042418273D

 28 31  0  0  1  0  0  0  0  0999 V2000
  189.9070  177.0940  143.7850 N   0  0  0  0  0  0  0  0  0  0  0  0
  184.2110  178.6240  145.2880 N   0  0  0  0  0  0  0  0  0  0  0  0
  184.2230  178.2520  146.5960 C   0  0  0  0  0  3  0  0  0  0  0  0
  185.3050  178.4790  144.4930 C   0  0  0  0  0  0  0  0  0  0  0  0
  186.4970  177.9310  145.0200 C   0  0  0  0  0  0  0  0  0  0  0  0
  191.0990  176.4820  144.3040 C   0  0  0  0  0  0  0  0  0  0  0  0
  187.5210  178.2050  142.8310 C   0  0  0  0  0  0  0  0  0  0  0  0
  187.6190  177.7900  144.1770 C   0  0  0  0  0  0  0  0  0  0  0  0
  192.1060  176.3300  143.5580 O   0  0  0  0  0  0  0  0  0  0  0  0
  185.3760  177.7070  147.1610 C   0  0  0  0  0  3  0  0  0  0  0  0
  186.5150  177.5460  146.3700 C   0  0  0  0  0  3  0  0  0  0  0  0
  189.8930  177.5750  142.3980 C   0  0  0  0  0  2  0  0  0  0  0  0
  188.5490  178.1060  141.9840 C   0  0  0  0  0  3  0  0  0  0  0  0
  186.3160  178.7350  142.3620 C   0  0  0  0  0  3  0  0  0  0  0  0
  188.7600  177.2570  144.6340 C   0  0  0  0  0  3  0  0  0  0  0  0
  185.2480  178.8600  143.1920 N   0  0  0  0  0  0  0  0  0  0  0  0
  192.3020  176.5690  146.4040 N   0  0  0  0  0  1  0  0  0  0  0  0
  191.1550  175.9940  145.7190 C   0  0  2  0  0  3  0  0  0  0  0  0
  191.2350  174.4770  145.7480 C   0  0  0  0  0  2  0  0  0  0  0  0
  189.9460  173.9080  145.3980 N   0  0  0  0  0  2  0  0  0  0  0  0
  190.2090  172.8190  144.4730 C   0  0  0  0  0  2  0  0  0  0  0  0
  188.2040  174.3320  141.6440 C   0  0  0  0  0  3  0  0  0  0  0  0
  190.0220  173.0740  140.7340 N   0  0  0  0  0  0  0  0  0  0  0  0
  188.9240  173.8560  140.5450 C   0  0  0  0  0  0  0  0  0  0  0  0
  189.7610  173.2020  143.1060 C   0  0  0  0  0  0  0  0  0  0  0  0
  188.4880  174.2020  139.1670 C   0  0  0  0  0  1  0  0  0  0  0  0
  188.6270  173.9990  142.9320 C   0  0  0  0  0  3  0  0  0  0  0  0
  190.4500  172.7380  141.9820 C   0  0  0  0  0  3  0  0  0  0  0  0
  1  6  1  0  0  0  0
  1 15  1  0  0  0  0
  2  3  1  0  0  0  0
  3 10  2  0  0  0  0
  4  5  1  0  0  0  0
  4  2  2  0  0  0  0
  5 11  2  0  0  0  0
  6 18  1  0  0  0  0
  7  8  1  0  0  0  0
  8 15  2  0  0  0  0
  8  5  1  0  0  0  0
  9  6  2  0  0  0  0
 11 10  1  0  0  0  0
 12  1  1  0  0  0  0
 13 12  1  0  0  0  0
 13  7  2  0  0  0  0
 14  7  1  0  0  0  0
 14 16  2  0  0  0  0
 16  4  1  0  0  0  0
 18 19  1  0  0  0  0
 18 17  1  6  0  0  0
 20 19  1  0  0  0  0
 21 20  1  0  0  0  0
 22 27  1  0  0  0  0
 23 28  2  0  0  0  0
 24 23  1  0  0  0  0
 24 22  2  0  0  0  0
 25 21  1  0  0  0  0
 26 24  1  0  0  0  0
 27 25  2  0  0  0  0
 28 25  1  0  0  0  0
M  END
>  <MODEL>
1

>  <REMARK>
 VINA RESULT:      -7.1      0.000      0.000
  Name = 
  5 active torsions:
  status: ('A' for Active; 'I' for Inactive)
    1  A    between atoms: C_8  and  C_11
    2  A    between atoms: C_8  and  C_25
    3  A    between atoms: C_12  and  C_13
    4  A    between atoms: C_13  and  N_18
    5  A    between atoms: N_18  and  C_25
                            x       y       z     vdW  Elec       q    Type
                         _______ _______ _______ _____ _____    ______ ____

>  <TORSDO>
F 5

$$$$
=
 OpenBabel11042418273D

 28 31  0  0  1  0  0  0  0  0999 V2000
  187.1300  176.4380  142.0070 N   0  0  0  0  0  0  0  0  0  0  0  0
  184.7830  178.7050  147.1450 N   0  0  0  0  0  0  0  0  0  0  0  0
  185.6800  178.2030  148.0350 C   0  0  0  0  0  3  0  0  0  0  0  0
  184.8910  178.4690  145.8100 C   0  0  0  0  0  0  0  0  0  0  0  0
  185.9560  177.6840  145.3130 C   0  0  0  0  0  0  0  0  0  0  0  0
  188.1780  175.5920  141.5070 C   0  0  0  0  0  0  0  0  0  0  0  0
  185.0740  178.0130  143.0700 C   0  0  0  0  0  0  0  0  0  0  0  0
  186.0470  177.4510  143.9250 C   0  0  0  0  0  0  0  0  0  0  0  0
  188.2630  175.3570  140.2700 O   0  0  0  0  0  0  0  0  0  0  0  0
  186.7480  177.4230  147.5910 C   0  0  0  0  0  3  0  0  0  0  0  0
  186.8850  177.1630  146.2270 C   0  0  0  0  0  3  0  0  0  0  0  0
  186.1950  177.0570  141.0600 C   0  0  0  0  0  2  0  0  0  0  0  0
  185.1090  177.8370  141.7460 C   0  0  0  0  0  3  0  0  0  0  0  0
  184.0400  178.7770  143.6170 C   0  0  0  0  0  3  0  0  0  0  0  0
  187.0310  176.6960  143.4160 C   0  0  0  0  0  3  0  0  0  0  0  0
  183.9700  178.9860  144.9570 N   0  0  0  0  0  0  0  0  0  0  0  0
  190.5200  175.2560  142.0210 N   0  0  0  0  0  1  0  0  0  0  0  0
  189.1610  174.9570  142.4430 C   0  0  2  0  0  3  0  0  0  0  0  0
  188.9460  173.4540  142.4900 C   0  0  0  0  0  2  0  0  0  0  0  0
  190.0900  172.8100  143.1090 N   0  0  0  0  0  2  0  0  0  0  0  0
  189.6970  172.4790  144.4680 C   0  0  0  0  0  2  0  0  0  0  0  0
  189.7460  175.0710  147.2220 C   0  0  0  0  0  3  0  0  0  0  0  0
  191.8690  175.0510  146.1240 N   0  0  0  0  0  0  0  0  0  0  0  0
  191.0480  175.5600  147.0830 C   0  0  0  0  0  0  0  0  0  0  0  0
  190.1640  173.5430  145.3980 C   0  0  0  0  0  0  0  0  0  0  0  0
  191.5360  176.6380  147.9820 C   0  0  0  0  0  1  0  0  0  0  0  0
  189.3040  174.0580  146.3710 C   0  0  0  0  0  3  0  0  0  0  0  0
  191.4570  174.0630  145.2840 C   0  0  0  0  0  3  0  0  0  0  0  0
  1 15  1  0  0  0  0
  2  3  1  0  0  0  0
  4  2  2  0  0  0  0
  5  4  1  0  0  0  0
  5 11  2  0  0  0  0
  6  1  1  0  0  0  0
  6 18  1  0  0  0  0
  7 14  1  0  0  0  0
  7  8  1  0  0  0  0
  8  5  1  0  0  0  0
  9  6  2  0  0  0  0
 10  3  2  0  0  0  0
 11 10  1  0  0  0  0
 12 13  1  0  0  0  0
 12  1  1  0  0  0  0
 13  7  2  0  0  0  0
 14 16  2  0  0  0  0
 15  8  2  0  0  0  0
 16  4  1  0  0  0  0
 18 17  1  6  0  0  0
 18 19  1  0  0  0  0
 19 20  1  0  0  0  0
 20 21  1  0  0  0  0
 21 25  1  0  0  0  0
 23 24  2  0  0  0  0
 24 22  1  0  0  0  0
 24 26  1  0  0  0  0
 25 27  1  0  0  0  0
 27 22  2  0  0  0  0
 28 25  2  0  0  0  0
 28 23  1  0  0  0  0
M  END
>  <MODEL>
2

>  <REMARK>
 VINA RESULT:      -7.0      1.988      3.915
  Name = 
  5 active torsions:
  status: ('A' for Active; 'I' for Inactive)
    1  A    between atoms: C_8  and  C_11
    2  A    between atoms: C_8  and  C_25
    3  A    between atoms: C_12  and  C_13
    4  A    between atoms: C_13  and  N_18
    5  A    between atoms: N_18  and  C_25
                            x       y       z     vdW  Elec       q    Type
                         _______ _______ _______ _____ _____    ______ ____

>  <TORSDO>
F 5

$$$$
=
 OpenBabel11042418273D

 28 31  0  0  1  0  0  0  0  0999 V2000
  188.0560  176.0270  146.0050 N   0  0  0  0  0  0  0  0  0  0  0  0
  184.7880  178.3690  141.4360 N   0  0  0  0  0  0  0  0  0  0  0  0
  185.5670  177.9850  140.3900 C   0  0  0  0  0  3  0  0  0  0  0  0
  185.1110  178.0620  142.7210 C   0  0  0  0  0  0  0  0  0  0  0  0
  186.2840  177.3230  142.9990 C   0  0  0  0  0  0  0  0  0  0  0  0
  189.2780  175.3280  146.2930 C   0  0  0  0  0  0  0  0  0  0  0  0
  185.7320  177.4520  145.3640 C   0  0  0  0  0  0  0  0  0  0  0  0
  186.6000  177.0170  144.3390 C   0  0  0  0  0  0  0  0  0  0  0  0
  189.5860  175.0630  147.4880 O   0  0  0  0  0  0  0  0  0  0  0  0
  186.7350  177.2550  140.6150 C   0  0  0  0  0  3  0  0  0  0  0  0
  187.0930  176.9240  141.9230 C   0  0  0  0  0  3  0  0  0  0  0  0
  187.1570  176.3850  147.1090 C   0  0  0  0  0  2  0  0  0  0  0  0
  185.9710  177.1870  146.6520 C   0  0  0  0  0  3  0  0  0  0  0  0
  184.5890  178.1830  145.0320 C   0  0  0  0  0  3  0  0  0  0  0  0
  187.7130  176.3360  144.6450 C   0  0  0  0  0  3  0  0  0  0  0  0
  184.3060  178.4690  143.7350 N   0  0  0  0  0  0  0  0  0  0  0  0
  189.8730  173.6080  144.6960 N   0  0  0  0  0  1  0  0  0  0  0  0
  190.2120  174.9320  145.1900 C   0  0  2  0  0  3  0  0  0  0  0  0
  191.6480  174.9550  145.6850 C   0  0  0  0  0  2  0  0  0  0  0  0
  192.1370  176.3220  145.7170 N   0  0  0  0  0  2  0  0  0  0  0  0
  193.3350  176.3160  146.5390 C   0  0  0  0  0  2  0  0  0  0  0  0
  196.4020  174.4540  145.3440 C   0  0  0  0  0  3  0  0  0  0  0  0
  195.9340  176.2480  143.8350 N   0  0  0  0  0  0  0  0  0  0  0  0
  196.7100  175.1890  144.1950 C   0  0  0  0  0  0  0  0  0  0  0  0
  194.5050  175.9020  145.7190 C   0  0  0  0  0  0  0  0  0  0  0  0
  197.8860  174.8150  143.3680 C   0  0  0  0  0  1  0  0  0  0  0  0
  195.2930  174.8170  146.1100 C   0  0  0  0  0  3  0  0  0  0  0  0
  194.8490  176.6190  144.5690 C   0  0  0  0  0  3  0  0  0  0  0  0
  1  6  1  0  0  0  0
  1 12  1  0  0  0  0
  2  4  2  0  0  0  0
  3 10  2  0  0  0  0
  3  2  1  0  0  0  0
  4  5  1  0  0  0  0
  4 16  1  0  0  0  0
  5  8  1  0  0  0  0
  6  9  2  0  0  0  0
  7 13  2  0  0  0  0
  8 15  2  0  0  0  0
  8  7  1  0  0  0  0
 10 11  1  0  0  0  0
 11  5  2  0  0  0  0
 13 12  1  0  0  0  0
 14  7  1  0  0  0  0
 15  1  1  0  0  0  0
 16 14  2  0  0  0  0
 18 17  1  1  0  0  0
 18 19  1  0  0  0  0
 18  6  1  0  0  0  0
 19 20  1  0  0  0  0
 20 21  1  0  0  0  0
 22 27  1  0  0  0  0
 23 24  1  0  0  0  0
 23 28  2  0  0  0  0
 24 22  2  0  0  0  0
 25 27  2  0  0  0  0
 25 21  1  0  0  0  0
 26 24  1  0  0  0  0
 28 25  1  0  0  0  0
M  END
>  <MODEL>
3

>  <REMARK>
 VINA RESULT:      -6.9      2.967      5.224
  Name = 
  5 active torsions:
  status: ('A' for Active; 'I' for Inactive)
    1  A    between atoms: C_8  and  C_11
    2  A    between atoms: C_8  and  C_25
    3  A    between atoms: C_12  and  C_13
    4  A    between atoms: C_13  and  N_18
    5  A    between atoms: N_18  and  C_25
                            x       y       z     vdW  Elec       q    Type
                         _______ _______ _______ _____ _____    ______ ____

>  <TORSDO>
F 5

$$$$
=
 OpenBabel11042418273D

 28 31  0  0  1  0  0  0  0  0999 V2000
  189.5770  174.3970  144.8180 N   0  0  0  0  0  0  0  0  0  0  0  0
  185.8760  179.2270  144.7040 N   0  0  0  0  0  0  0  0  0  0  0  0
  185.8510  179.4520  143.3630 C   0  0  0  0  0  3  0  0  0  0  0  0
  186.5930  178.2060  145.2450 C   0  0  0  0  0  0  0  0  0  0  0  0
  187.3390  177.3440  144.4100 C   0  0  0  0  0  0  0  0  0  0  0  0
  190.3820  173.5560  143.9760 C   0  0  0  0  0  0  0  0  0  0  0  0
  188.0440  176.1280  146.3970 C   0  0  0  0  0  0  0  0  0  0  0  0
  188.0760  176.2920  144.9940 C   0  0  0  0  0  0  0  0  0  0  0  0
  191.0640  172.6230  144.4840 O   0  0  0  0  0  0  0  0  0  0  0  0
  186.5710  178.6260  142.4990 C   0  0  0  0  0  3  0  0  0  0  0  0
  187.3160  177.5700  143.0250 C   0  0  0  0  0  3  0  0  0  0  0  0
  189.5250  174.1280  146.2600 C   0  0  0  0  0  2  0  0  0  0  0  0
  188.7130  175.1480  147.0090 C   0  0  0  0  0  3  0  0  0  0  0  0
  187.2930  177.0140  147.1730 C   0  0  0  0  0  3  0  0  0  0  0  0
  188.8110  175.4640  144.2380 C   0  0  0  0  0  3  0  0  0  0  0  0
  186.5930  178.0210  146.5900 N   0  0  0  0  0  0  0  0  0  0  0  0
  189.7560  172.7260  141.7900 N   0  0  0  0  0  1  0  0  0  0  0  0
  190.4480  173.7910  142.4980 C   0  0  2  0  0  3  0  0  0  0  0  0
  191.8950  173.8690  142.0420 C   0  0  0  0  0  2  0  0  0  0  0  0
  192.3110  175.2570  141.9550 N   0  0  0  0  0  2  0  0  0  0  0  0
  193.4770  175.3970  142.8080 C   0  0  0  0  0  2  0  0  0  0  0  0
  193.0840  175.3430  146.5700 C   0  0  0  0  0  3  0  0  0  0  0  0
  191.7490  177.1080  145.6650 N   0  0  0  0  0  0  0  0  0  0  0  0
  192.1940  176.4060  146.7440 C   0  0  0  0  0  0  0  0  0  0  0  0
  193.0500  175.7520  144.1890 C   0  0  0  0  0  0  0  0  0  0  0  0
  191.7300  176.7700  148.1080 C   0  0  0  0  0  1  0  0  0  0  0  0
  193.5110  175.0150  145.2820 C   0  0  0  0  0  3  0  0  0  0  0  0
  192.1530  176.8030  144.4020 C   0  0  0  0  0  3  0  0  0  0  0  0
  1 12  1  0  0  0  0
  2  4  2  0  0  0  0
  3  2  1  0  0  0  0
  4 16  1  0  0  0  0
  5  8  1  0  0  0  0
  5  4  1  0  0  0  0
  6  9  2  0  0  0  0
  6  1  1  0  0  0  0
  7 13  2  0  0  0  0
  7 14  1  0  0  0  0
  8  7  1  0  0  0  0
 10 11  1  0  0  0  0
 10  3  2  0  0  0  0
 11  5  2  0  0  0  0
 12 13  1  0  0  0  0
 15  1  1  0  0  0  0
 15  8  2  0  0  0  0
 16 14  2  0  0  0  0
 18 17  1  6  0  0  0
 18  6  1  0  0  0  0
 19 18  1  0  0  0  0
 20 19  1  0  0  0  0
 20 21  1  0  0  0  0
 21 25  1  0  0  0  0
 22 24  1  0  0  0  0
 23 24  2  0  0  0  0
 24 26  1  0  0  0  0
 25 28  2  0  0  0  0
 25 27  1  0  0  0  0
 27 22  2  0  0  0  0
 28 23  1  0  0  0  0
M  END
>  <MODEL>
4

>  <REMARK>
 VINA RESULT:      -6.9      1.942      4.812
  Name = 
  5 active torsions:
  status: ('A' for Active; 'I' for Inactive)
    1  A    between atoms: C_8  and  C_11
    2  A    between atoms: C_8  and  C_25
    3  A    between atoms: C_12  and  C_13
    4  A    between atoms: C_13  and  N_18
    5  A    between atoms: N_18  and  C_25
                            x       y       z     vdW  Elec       q    Type
                         _______ _______ _______ _____ _____    ______ ____

>  <TORSDO>
F 5

$$$$
=
 OpenBabel11042418273D

 28 31  0  0  1  0  0  0  0  0999 V2000
  188.5450  177.3380  145.6490 N   0  0  0  0  0  0  0  0  0  0  0  0
  184.0770  178.5150  141.6870 N   0  0  0  0  0  0  0  0  0  0  0  0
  184.7350  178.2430  140.5280 C   0  0  0  0  0  3  0  0  0  0  0  0
  184.6800  178.3880  142.8990 C   0  0  0  0  0  0  0  0  0  0  0  0
  186.0250  177.9620  142.9800 C   0  0  0  0  0  0  0  0  0  0  0  0
  189.9290  176.9620  145.7290 C   0  0  0  0  0  0  0  0  0  0  0  0
  185.8730  178.1380  145.4020 C   0  0  0  0  0  0  0  0  0  0  0  0
  186.6300  177.8380  144.2480 C   0  0  0  0  0  0  0  0  0  0  0  0
  190.4920  176.8660  146.8550 O   0  0  0  0  0  0  0  0  0  0  0  0
  186.0640  177.8200  140.5580 C   0  0  0  0  0  3  0  0  0  0  0  0
  186.7090  177.6790  141.7880 C   0  0  0  0  0  3  0  0  0  0  0  0
  187.7890  177.5610  146.8880 C   0  0  0  0  0  2  0  0  0  0  0  0
  186.3850  178.0320  146.6310 C   0  0  0  0  0  3  0  0  0  0  0  0
  184.5480  178.5590  145.2620 C   0  0  0  0  0  3  0  0  0  0  0  0
  187.9100  177.4560  144.3660 C   0  0  0  0  0  3  0  0  0  0  0  0
  183.9870  178.6740  144.0310 N   0  0  0  0  0  0  0  0  0  0  0  0
  190.6850  175.2990  144.1410 N   0  0  0  0  0  1  0  0  0  0  0  0
  190.7270  176.7100  144.4870 C   0  0  2  0  0  3  0  0  0  0  0  0
  192.1650  177.1580  144.6870 C   0  0  0  0  0  2  0  0  0  0  0  0
  193.0670  176.0470  144.4430 N   0  0  0  0  0  2  0  0  0  0  0  0
  193.9940  176.0090  145.5600 C   0  0  0  0  0  2  0  0  0  0  0  0
  196.6030  173.2810  145.8060 C   0  0  0  0  0  3  0  0  0  0  0  0
  194.4390  172.2840  145.6140 N   0  0  0  0  0  0  0  0  0  0  0  0
  195.7870  172.1480  145.7340 C   0  0  0  0  0  0  0  0  0  0  0  0
  194.6300  174.6660  145.6390 C   0  0  0  0  0  0  0  0  0  0  0  0
  196.3940  170.7930  145.7880 C   0  0  0  0  0  1  0  0  0  0  0  0
  196.0170  174.5470  145.7550 C   0  0  0  0  0  3  0  0  0  0  0  0
  193.8480  173.5090  145.5620 C   0  0  0  0  0  3  0  0  0  0  0  0
  1  6  1  0  0  0  0
  1 12  1  0  0  0  0
  2  4  2  0  0  0  0
  3 10  2  0  0  0  0
  3  2  1  0  0  0  0
  4  5  1  0  0  0  0
  4 16  1  0  0  0  0
  5  8  1  0  0  0  0
  6  9  2  0  0  0  0
  7 13  2  0  0  0  0
  8 15  2  0  0  0  0
  8  7  1  0  0  0  0
 10 11  1  0  0  0  0
 11  5  2  0  0  0  0
 13 12  1  0  0  0  0
 14  7  1  0  0  0  0
 15  1  1  0  0  0  0
 16 14  2  0  0  0  0
 18 17  1  1  0  0  0
 18 19  1  0  0  0  0
 18  6  1  0  0  0  0
 20 19  1  0  0  0  0
 20 21  1  0  0  0  0
 21 25  1  0  0  0  0
 23 24  1  0  0  0  0
 24 26  1  0  0  0  0
 24 22  2  0  0  0  0
 25 27  2  0  0  0  0
 27 22  1  0  0  0  0
 28 23  2  0  0  0  0
 28 25  1  0  0  0  0
M  END
>  <MODEL>
5

>  <REMARK>
 VINA RESULT:      -6.8      2.854      5.109
  Name = 
  5 active torsions:
  status: ('A' for Active; 'I' for Inactive)
    1  A    between atoms: C_8  and  C_11
    2  A    between atoms: C_8  and  C_25
    3  A    between atoms: C_12  and  C_13
    4  A    between atoms: C_13  and  N_18
    5  A    between atoms: N_18  and  C_25
                            x       y       z     vdW  Elec       q    Type
                         _______ _______ _______ _____ _____    ______ ____

>  <TORSDO>
F 5

$$$$
=
 OpenBabel11042418273D

 28 31  0  0  1  0  0  0  0  0999 V2000
  187.4760  176.8780  145.2080 N   0  0  0  0  0  0  0  0  0  0  0  0
  193.4440  175.7790  145.6740 N   0  0  0  0  0  0  0  0  0  0  0  0
  193.8520  176.2750  144.4750 C   0  0  0  0  0  3  0  0  0  0  0  0
  192.1370  175.8050  146.0520 C   0  0  0  0  0  0  0  0  0  0  0  0
  191.1620  176.3560  145.1920 C   0  0  0  0  0  0  0  0  0  0  0  0
  186.4750  177.3840  144.3100 C   0  0  0  0  0  0  0  0  0  0  0  0
  189.4770  175.8380  146.8680 C   0  0  0  0  0  0  0  0  0  0  0  0
  189.8130  176.3710  145.6040 C   0  0  0  0  0  0  0  0  0  0  0  0
  185.2610  177.3870  144.6550 O   0  0  0  0  0  0  0  0  0  0  0  0
  192.9240  176.8290  143.5920 C   0  0  0  0  0  3  0  0  0  0  0  0
  191.5770  176.8690  143.9530 C   0  0  0  0  0  3  0  0  0  0  0  0
  187.0730  176.4090  146.5400 C   0  0  0  0  0  2  0  0  0  0  0  0
  188.2200  175.8310  147.3200 C   0  0  0  0  0  3  0  0  0  0  0  0
  190.4830  175.3010  147.6750 C   0  0  0  0  0  3  0  0  0  0  0  0
  188.8550  176.8680  144.8090 C   0  0  0  0  0  3  0  0  0  0  0  0
  191.7740  175.2960  147.2570 N   0  0  0  0  0  0  0  0  0  0  0  0
  186.0890  179.0820  142.6270 N   0  0  0  0  0  1  0  0  0  0  0  0
  186.8510  177.8860  142.9500 C   0  0  2  0  0  3  0  0  0  0  0  0
  186.6040  176.8100  141.9060 C   0  0  0  0  0  2  0  0  0  0  0  0
  187.8550  176.1560  141.5660 N   0  0  0  0  0  2  0  0  0  0  0  0
  187.7230  174.7670  141.9710 C   0  0  0  0  0  2  0  0  0  0  0  0
  190.4720  173.0080  143.8840 C   0  0  0  0  0  3  0  0  0  0  0  0
  191.3940  173.9990  141.9130 N   0  0  0  0  0  0  0  0  0  0  0  0
  191.5640  173.2740  143.0530 C   0  0  0  0  0  0  0  0  0  0  0  0
  189.0560  174.2260  142.3500 C   0  0  0  0  0  0  0  0  0  0  0  0
  192.9130  172.7670  143.4160 C   0  0  0  0  0  1  0  0  0  0  0  0
  189.2110  173.4910  143.5280 C   0  0  0  0  0  3  0  0  0  0  0  0
  190.1740  174.4780  141.5500 C   0  0  0  0  0  3  0  0  0  0  0  0
  1 12  1  0  0  0  0
  2  4  2  0  0  0  0
  3  2  1  0  0  0  0
  4 16  1  0  0  0  0
  5  8  1  0  0  0  0
  5  4  1  0  0  0  0
  6  9  2  0  0  0  0
  6  1  1  0  0  0  0
  7 13  2  0  0  0  0
  7 14  1  0  0  0  0
  8  7  1  0  0  0  0
 10 11  1  0  0  0  0
 10  3  2  0  0  0  0
 11  5  2  0  0  0  0
 12 13  1  0  0  0  0
 15  1  1  0  0  0  0
 15  8  2  0  0  0  0
 16 14  2  0  0  0  0
 18 17  1  6  0  0  0
 18  6  1  0  0  0  0
 19 18  1  0  0  0  0
 20 19  1  0  0  0  0
 20 21  1  0  0  0  0
 21 25  1  0  0  0  0
 23 24  1  0  0  0  0
 24 26  1  0  0  0  0
 24 22  2  0  0  0  0
 25 27  2  0  0  0  0
 27 22  1  0  0  0  0
 28 23  2  0  0  0  0
 28 25  1  0  0  0  0
M  END
>  <MODEL>
6

>  <REMARK>
 VINA RESULT:      -6.6      2.224      5.756
  Name = 
  5 active torsions:
  status: ('A' for Active; 'I' for Inactive)
    1  A    between atoms: C_8  and  C_11
    2  A    between atoms: C_8  and  C_25
    3  A    between atoms: C_12  and  C_13
    4  A    between atoms: C_13  and  N_18
    5  A    between atoms: N_18  and  C_25
                            x       y       z     vdW  Elec       q    Type
                         _______ _______ _______ _____ _____    ______ ____

>  <TORSDO>
F 5

$$$$
=
 OpenBabel11042418273D

 28 31  0  0  1  0  0  0  0  0999 V2000
  192.9230  173.9190  143.8220 N   0  0  0  0  0  0  0  0  0  0  0  0
  187.3040  175.8930  142.5700 N   0  0  0  0  0  0  0  0  0  0  0  0
  187.4630  177.2100  142.8680 C   0  0  0  0  0  3  0  0  0  0  0  0
  188.3260  175.0030  142.6890 C   0  0  0  0  0  0  0  0  0  0  0  0
  189.5950  175.4380  143.1320 C   0  0  0  0  0  0  0  0  0  0  0  0
  194.1970  174.3480  144.3290 C   0  0  0  0  0  0  0  0  0  0  0  0
  190.3890  173.1490  142.9140 C   0  0  0  0  0  0  0  0  0  0  0  0
  190.6400  174.4970  143.2490 C   0  0  0  0  0  0  0  0  0  0  0  0
  195.1380  173.5150  144.4580 O   0  0  0  0  0  0  0  0  0  0  0  0
  188.6980  177.6860  143.3100 C   0  0  0  0  0  3  0  0  0  0  0  0
  189.7660  176.7960  143.4420 C   0  0  0  0  0  3  0  0  0  0  0  0
  192.7470  172.5180  143.4180 C   0  0  0  0  0  2  0  0  0  0  0  0
  191.3380  172.2120  142.9950 C   0  0  0  0  0  3  0  0  0  0  0  0
  189.1130  172.7750  142.4860 C   0  0  0  0  0  3  0  0  0  0  0  0
  191.8530  174.8660  143.6850 C   0  0  0  0  0  3  0  0  0  0  0  0
  188.1210  173.6970  142.3830 N   0  0  0  0  0  0  0  0  0  0  0  0
  195.6920  176.2490  144.2220 N   0  0  0  0  0  1  0  0  0  0  0  0
  194.4190  175.7730  144.7360 C   0  0  2  0  0  3  0  0  0  0  0  0
  194.3840  175.8980  146.2490 C   0  0  0  0  0  2  0  0  0  0  0  0
  193.1450  176.5300  146.6640 N   0  0  0  0  0  2  0  0  0  0  0  0
  192.3120  175.4830  147.2300 C   0  0  0  0  0  2  0  0  0  0  0  0
  188.5540  175.2450  146.8690 C   0  0  0  0  0  3  0  0  0  0  0  0
  189.1940  177.5470  146.9260 N   0  0  0  0  0  0  0  0  0  0  0  0
  188.2190  176.6010  146.8330 C   0  0  0  0  0  0  0  0  0  0  0  0
  190.8770  175.8610  147.1090 C   0  0  0  0  0  0  0  0  0  0  0  0
  186.7990  177.0110  146.6890 C   0  0  0  0  0  1  0  0  0  0  0  0
  189.8930  174.8760  147.0060 C   0  0  0  0  0  3  0  0  0  0  0  0
  190.5050  177.2080  147.0590 C   0  0  0  0  0  3  0  0  0  0  0  0
  1  6  1  0  0  0  0
  2  4  2  0  0  0  0
  2  3  1  0  0  0  0
  3 10  2  0  0  0  0
  4  5  1  0  0  0  0
  5  8  1  0  0  0  0
  5 11  2  0  0  0  0
  6  9  2  0  0  0  0
  6 18  1  0  0  0  0
  7 13  2  0  0  0  0
  7  8  1  0  0  0  0
  8 15  2  0  0  0  0
 10 11  1  0  0  0  0
 12  1  1  0  0  0  0
 13 12  1  0  0  0  0
 14  7  1  0  0  0  0
 15  1  1  0  0  0  0
 16 14  2  0  0  0  0
 16  4  1  0  0  0  0
 18 17  1  1  0  0  0
 18 19  1  0  0  0  0
 19 20  1  0  0  0  0
 20 21  1  0  0  0  0
 22 27  1  0  0  0  0
 23 28  2  0  0  0  0
 24 22  2  0  0  0  0
 24 23  1  0  0  0  0
 25 21  1  0  0  0  0
 26 24  1  0  0  0  0
 27 25  2  0  0  0  0
 28 25  1  0  0  0  0
M  END
>  <MODEL>
7

>  <REMARK>
 VINA RESULT:      -6.6      2.380      5.305
  Name = 
  5 active torsions:
  status: ('A' for Active; 'I' for Inactive)
    1  A    between atoms: C_8  and  C_11
    2  A    between atoms: C_8  and  C_25
    3  A    between atoms: C_12  and  C_13
    4  A    between atoms: C_13  and  N_18
    5  A    between atoms: N_18  and  C_25
                            x       y       z     vdW  Elec       q    Type
                         _______ _______ _______ _____ _____    ______ ____

>  <TORSDO>
F 5

$$$$
=
 OpenBabel11042418273D

 28 31  0  0  1  0  0  0  0  0999 V2000
  187.6620  176.2240  146.1390 N   0  0  0  0  0  0  0  0  0  0  0  0
  184.1020  178.7370  141.8900 N   0  0  0  0  0  0  0  0  0  0  0  0
  184.7410  178.2900  140.7770 C   0  0  0  0  0  3  0  0  0  0  0  0
  184.5350  178.4220  143.1400 C   0  0  0  0  0  0  0  0  0  0  0  0
  185.6790  177.6080  143.3090 C   0  0  0  0  0  0  0  0  0  0  0  0
  188.8580  175.4470  146.3120 C   0  0  0  0  0  0  0  0  0  0  0  0
  185.3850  177.7980  145.7160 C   0  0  0  0  0  0  0  0  0  0  0  0
  186.1110  177.2940  144.6140 C   0  0  0  0  0  0  0  0  0  0  0  0
  189.2700  175.1730  147.4740 O   0  0  0  0  0  0  0  0  0  0  0  0
  185.8740  177.4840  140.8930 C   0  0  0  0  0  3  0  0  0  0  0  0
  186.3430  177.1430  142.1630 C   0  0  0  0  0  3  0  0  0  0  0  0
  186.9080  176.6540  147.3230 C   0  0  0  0  0  2  0  0  0  0  0  0
  185.7370  177.5300  146.9760 C   0  0  0  0  0  3  0  0  0  0  0  0
  184.2650  178.6020  145.4900 C   0  0  0  0  0  3  0  0  0  0  0  0
  187.2020  176.5420  144.8160 C   0  0  0  0  0  3  0  0  0  0  0  0
  183.8680  178.8930  144.2240 N   0  0  0  0  0  0  0  0  0  0  0  0
  190.2160  173.6670  145.3900 N   0  0  0  0  0  1  0  0  0  0  0  0
  189.6440  174.9770  145.1260 C   0  0  2  0  0  3  0  0  0  0  0  0
  190.7440  175.9730  144.7980 C   0  0  0  0  0  2  0  0  0  0  0  0
  191.1170  175.8540  143.4000 N   0  0  0  0  0  2  0  0  0  0  0  0
  189.8860  175.9320  142.6320 C   0  0  0  0  0  2  0  0  0  0  0  0
  188.6110  173.4840  140.0450 C   0  0  0  0  0  3  0  0  0  0  0  0
  190.8570  172.9120  140.6290 N   0  0  0  0  0  0  0  0  0  0  0  0
  189.7320  172.6630  139.9030 C   0  0  0  0  0  0  0  0  0  0  0  0
  189.8270  174.8030  141.6630 C   0  0  0  0  0  0  0  0  0  0  0  0
  189.6960  171.5150  138.9610 C   0  0  0  0  0  1  0  0  0  0  0  0
  188.6610  174.5600  140.9340 C   0  0  0  0  0  3  0  0  0  0  0  0
  190.9260  173.9550  141.5010 C   0  0  0  0  0  3  0  0  0  0  0  0
  1  6  1  0  0  0  0
  1 12  1  0  0  0  0
  2  4  2  0  0  0  0
  3 10  2  0  0  0  0
  3  2  1  0  0  0  0
  4  5  1  0  0  0  0
  4 16  1  0  0  0  0
  5  8  1  0  0  0  0
  6  9  2  0  0  0  0
  7 13  2  0  0  0  0
  8 15  2  0  0  0  0
  8  7  1  0  0  0  0
 10 11  1  0  0  0  0
 11  5  2  0  0  0  0
 13 12  1  0  0  0  0
 14  7  1  0  0  0  0
 15  1  1  0  0  0  0
 16 14  2  0  0  0  0
 18 17  1  1  0  0  0
 18  6  1  0  0  0  0
 19 18  1  0  0  0  0
 20 19  1  0  0  0  0
 21 20  1  0  0  0  0
 22 27  1  0  0  0  0
 23 28  2  0  0  0  0
 24 22  2  0  0  0  0
 24 23  1  0  0  0  0
 25 21  1  0  0  0  0
 26 24  1  0  0  0  0
 27 25  2  0  0  0  0
 28 25  1  0  0  0  0
M  END
>  <MODEL>
8

>  <REMARK>
 VINA RESULT:      -6.5      1.873      3.422
  Name = 
  5 active torsions:
  status: ('A' for Active; 'I' for Inactive)
    1  A    between atoms: C_8  and  C_11
    2  A    between atoms: C_8  and  C_25
    3  A    between atoms: C_12  and  C_13
    4  A    between atoms: C_13  and  N_18
    5  A    between atoms: N_18  and  C_25
                            x       y       z     vdW  Elec       q    Type
                         _______ _______ _______ _____ _____    ______ ____

>  <TORSDO>
F 5

$$$$
=
 OpenBabel11042418273D

 28 31  0  0  1  0  0  0  0  0999 V2000
  189.1990  176.9710  144.8240 N   0  0  0  0  0  0  0  0  0  0  0  0
  195.1720  175.9800  144.2080 N   0  0  0  0  0  0  0  0  0  0  0  0
  195.2630  176.0290  142.8520 C   0  0  0  0  0  3  0  0  0  0  0  0
  193.9880  176.1580  144.8530 C   0  0  0  0  0  0  0  0  0  0  0  0
  192.8090  176.4030  144.1130 C   0  0  0  0  0  0  0  0  0  0  0  0
  187.9900  177.1600  144.0710 C   0  0  0  0  0  0  0  0  0  0  0  0
  191.5880  176.5200  146.2140 C   0  0  0  0  0  0  0  0  0  0  0  0
  191.5920  176.5840  144.8030 C   0  0  0  0  0  0  0  0  0  0  0  0
  186.8890  177.3040  144.6720 O   0  0  0  0  0  0  0  0  0  0  0  0
  194.1260  176.2680  142.0800 C   0  0  0  0  0  3  0  0  0  0  0  0
  192.8960  176.4550  142.7130 C   0  0  0  0  0  3  0  0  0  0  0  0
  189.1410  176.9920  146.2910 C   0  0  0  0  0  2  0  0  0  0  0  0
  190.4700  176.6920  146.9260 C   0  0  0  0  0  3  0  0  0  0  0  0
  192.7830  176.2710  146.8930 C   0  0  0  0  0  3  0  0  0  0  0  0
  190.4480  176.7980  144.1370 C   0  0  0  0  0  3  0  0  0  0  0  0
  193.9420  176.0980  146.2080 N   0  0  0  0  0  0  0  0  0  0  0  0
  187.2530  178.2890  142.0600 N   0  0  0  0  0  1  0  0  0  0  0  0
  188.0130  177.1610  142.5730 C   0  0  2  0  0  3  0  0  0  0  0  0
  187.4420  175.8590  142.0390 C   0  0  0  0  0  2  0  0  0  0  0  0
  188.5000  175.0640  141.4410 N   0  0  0  0  0  2  0  0  0  0  0  0
  188.3970  173.7340  142.0140 C   0  0  0  0  0  2  0  0  0  0  0  0
  190.7150  173.0590  144.9260 C   0  0  0  0  0  3  0  0  0  0  0  0
  191.9770  173.0380  142.8960 N   0  0  0  0  0  0  0  0  0  0  0  0
  191.9310  172.9180  144.2520 C   0  0  0  0  0  0  0  0  0  0  0  0
  189.6220  173.4310  142.8040 C   0  0  0  0  0  0  0  0  0  0  0  0
  193.1750  172.6390  145.0140 C   0  0  0  0  0  1  0  0  0  0  0  0
  189.5550  173.3190  144.1950 C   0  0  0  0  0  3  0  0  0  0  0  0
  190.8570  173.2930  142.1650 C   0  0  0  0  0  3  0  0  0  0  0  0
  1 12  1  0  0  0  0
  2  4  2  0  0  0  0
  3  2  1  0  0  0  0
  4 16  1  0  0  0  0
  5  8  1  0  0  0  0
  5  4  1  0  0  0  0
  6  9  2  0  0  0  0
  6  1  1  0  0  0  0
  7 14  1  0  0  0  0
  7 13  2  0  0  0  0
  8  7  1  0  0  0  0
 10 11  1  0  0  0  0
 10  3  2  0  0  0  0
 11  5  2  0  0  0  0
 12 13  1  0  0  0  0
 15  8  2  0  0  0  0
 15  1  1  0  0  0  0
 16 14  2  0  0  0  0
 18 17  1  6  0  0  0
 18  6  1  0  0  0  0
 19 18  1  0  0  0  0
 20 21  1  0  0  0  0
 20 19  1  0  0  0  0
 21 25  1  0  0  0  0
 23 24  2  0  0  0  0
 24 22  1  0  0  0  0
 24 26  1  0  0  0  0
 25 27  1  0  0  0  0
 27 22  2  0  0  0  0
 28 25  2  0  0  0  0
 28 23  1  0  0  0  0
M  END
>  <MODEL>
9

>  <REMARK>
 VINA RESULT:      -6.5      2.426      6.249
  Name = 
  5 active torsions:
  status: ('A' for Active; 'I' for Inactive)
    1  A    between atoms: C_8  and  C_11
    2  A    between atoms: C_8  and  C_25
    3  A    between atoms: C_12  and  C_13
    4  A    between atoms: C_13  and  N_18
    5  A    between atoms: N_18  and  C_25
                            x       y       z     vdW  Elec       q    Type
                         _______ _______ _______ _____ _____    ______ ____

>  <TORSDO>
F 5

$$$$
