=
 OpenBabel11042418073D

 40 41  0  0  1  0  0  0  0  0999 V2000
  191.3160  174.1580  144.3370 C   0  0  1  0  0  3  0  0  0  0  0  0
  193.9670  172.2730  142.7990 C   0  0  0  0  0  3  0  0  0  0  0  0
  192.9640  173.1680  142.7410 N   0  0  0  0  0  0  0  0  0  0  0  0
  194.0860  171.8170  144.0950 C   0  0  2  0  0  3  0  0  0  0  0  0
  193.1440  172.4450  144.8800 C   0  0  0  0  0  3  0  0  0  0  0  0
  192.4780  173.2730  143.9940 C   0  0  0  0  0  0  0  0  0  0  0  0
  195.1040  170.8410  144.5790 C   0  0  0  0  0  2  0  0  0  0  0  0
  194.3120  169.0470  145.9490 O   0  0  0  0  0  1  0  0  0  0  0  0
  194.7730  170.3650  145.9840 C   0  0  0  0  0  2  0  0  0  0  0  0
  191.3430  175.5210  146.3930 C   0  0  0  0  0  0  0  0  0  0  0  0
  189.2180  175.3860  147.4480 O   0  0  0  0  0  1  0  0  0  0  0  0
  191.3230  176.2980  147.7060 C   0  0  0  0  0  2  0  0  0  0  0  0
  190.5670  175.0890  147.6350 C   0  0  2  0  0  3  0  0  0  0  0  0
  191.7360  175.3590  145.1300 C   0  0  0  0  0  0  0  0  0  0  0  0
  192.5870  176.3210  144.5030 N   0  0  0  0  0  2  0  0  0  0  0  0
  193.5620  177.0340  145.2220 N   0  0  0  0  0  2  0  0  0  0  0  0
  195.1530  175.3400  146.0210 C   0  0  0  0  0  1  0  0  0  0  0  0
  194.8680  176.4200  144.9880 C   0  0  1  0  0  3  0  0  0  0  0  0
  197.0150  176.8600  143.1480 O   0  0  0  0  0  0  0  0  0  0  0  0
  194.9500  175.8780  143.6360 N   0  0  0  0  0  2  0  0  0  0  0  0
  196.0700  176.1120  142.7800 C   0  0  0  0  0  0  0  0  0  0  0  0
  196.1330  175.4430  141.4530 C   0  0  0  0  0  2  0  0  0  0  0  0
  195.0450  175.9950  140.5540 C   0  0  0  0  0  2  0  0  0  0  0  0
  194.1170  174.9330  140.2070 N   0  0  0  0  0  2  0  0  0  0  0  0
  194.2290  175.3550  137.9120 O   0  0  0  0  0  0  0  0  0  0  0  0
  193.7550  174.6640  138.8530 C   0  0  0  0  0  0  0  0  0  0  0  0
  192.8100  173.5590  138.5500 C   0  0  0  0  0  1  0  0  0  0  0  0
  190.5670  174.5590  143.1500 N   0  0  0  0  0  2  0  0  0  0  0  0
  189.4780  175.3320  143.5810 N   0  0  0  0  0  2  0  0  0  0  0  0
  189.2310  176.3450  142.5650 C   0  0  1  0  0  3  0  0  0  0  0  0
  188.1060  175.9010  141.6370 C   0  0  0  0  0  2  0  0  0  0  0  0
  186.9730  175.4380  142.4160 N   0  0  0  0  0  1  0  0  0  0  0  0
  188.9240  177.6900  143.2220 C   0  0  0  0  0  2  0  0  0  0  0  0
  188.7120  177.5570  144.7260 C   0  0  0  0  0  2  0  0  0  0  0  0
  186.5700  176.7500  145.8250 C   0  0  0  0  0  1  0  0  0  0  0  0
  187.2700  177.8840  145.0880 C   0  0  2  0  0  3  0  0  0  0  0  0
  186.5310  178.4320  144.0110 O   0  0  0  0  0  0  0  0  0  0  0  0
  184.1330  179.2420  145.1540 O   0  0  0  0  0  1  0  0  0  0  0  0
  184.2980  178.4430  142.7420 O   0  0  0  0  0  0  0  0  0  0  0  0
  184.8390  178.0840  144.1200 S   0  0  1  0  0  0  0  0  0  0  0  0
  1 28  1  6  0  0  0
  1 14  1  0  0  0  0
  2  4  1  0  0  0  0
  3  2  2  0  0  0  0
  3  6  1  0  0  0  0
  4  7  1  1  0  0  0
  4  5  1  0  0  0  0
  6  1  1  0  0  0  0
  6  5  2  0  0  0  0
  7  9  1  0  0  0  0
  8  9  1  0  0  0  0
 10 13  1  0  0  0  0
 10 12  1  0  0  0  0
 13 11  1  6  0  0  0
 13 12  1  0  0  0  0
 14 10  2  0  0  0  0
 15 14  1  0  0  0  0
 15 16  1  0  0  0  0
 18 16  1  0  0  0  0
 18 17  1  1  0  0  0
 20 18  1  0  0  0  0
 21 19  2  0  0  0  0
 21 20  1  0  0  0  0
 22 21  1  0  0  0  0
 23 22  1  0  0  0  0
 24 23  1  0  0  0  0
 25 26  2  0  0  0  0
 26 24  1  0  0  0  0
 27 26  1  0  0  0  0
 28 29  1  0  0  0  0
 30 31  1  1  0  0  0
 30 33  1  0  0  0  0
 30 29  1  0  0  0  0
 31 32  1  0  0  0  0
 33 34  1  0  0  0  0
 34 36  1  0  0  0  0
 36 35  1  6  0  0  0
 37 40  1  0  0  0  0
 37 36  1  0  0  0  0
 40 39  2  6  0  0  0
 40 38  1  0  0  0  0
M  END
>  <MODEL>
1

>  <REMARK>
 VINA RESULT:      -5.2      0.000      0.000
  Name = 
  20 active torsions:
  status: ('A' for Active; 'I' for Inactive)
    1  A    between atoms: N_2  and  C_22
    2  A    between atoms: C_4  and  C_27
    3  A    between atoms: C_4  and  C_33
    4  A    between atoms: C_5  and  C_14
    5  A    between atoms: C_5  and  C_28
    6  A    between atoms: C_6  and  N_18
    7  A    between atoms: C_6  and  C_37
    8  A    between atoms: C_6  and  C_40
    9  A    between atoms: C_11  and  N_12
   10  A    between atoms: C_11  and  N_34
   11  A    between atoms: C_14  and  O_20
   12  A    between atoms: C_16  and  C_21
   13  A    between atoms: C_16  and  C_28
   14  A    between atoms: C_16  and  N_30
   15  A    between atoms: N_18  and  N_30
   16  A    between atoms: S_19  and  O_20
   17  A    between atoms: C_22  and  C_26
   18  A    between atoms: C_25  and  C_26
   19  A    between atoms: N_31  and  N_34
   20  A    between atoms: N_31  and  C_37
                            x       y       z     vdW  Elec       q    Type
                         _______ _______ _______ _____ _____    ______ ____

>  <TORSDO>
F 20

$$$$
=
 OpenBabel11042418073D

 40 41  0  0  1  0  0  0  0  0999 V2000
  189.6870  174.4030  143.5520 C   0  0  1  0  0  3  0  0  0  0  0  0
  190.3390  171.0620  142.3890 C   0  0  0  0  0  3  0  0  0  0  0  0
  189.5520  172.1480  142.4840 N   0  0  0  0  0  0  0  0  0  0  0  0
  191.5180  171.3020  143.0610 C   0  0  2  0  0  3  0  0  0  0  0  0
  191.4840  172.5750  143.5860 C   0  0  0  0  0  3  0  0  0  0  0  0
  190.2470  173.0570  143.1980 C   0  0  0  0  0  0  0  0  0  0  0  0
  192.6680  170.3570  143.1590 C   0  0  0  0  0  2  0  0  0  0  0  0
  193.7660  169.3190  145.0130 O   0  0  0  0  0  1  0  0  0  0  0  0
  193.4230  170.5550  144.4630 C   0  0  0  0  0  2  0  0  0  0  0  0
  190.2620  175.0510  145.8620 C   0  0  0  0  0  0  0  0  0  0  0  0
  188.2620  175.3700  147.1040 O   0  0  0  0  0  1  0  0  0  0  0  0
  190.5610  175.3940  147.3180 C   0  0  0  0  0  2  0  0  0  0  0  0
  189.4140  174.5880  147.0440 C   0  0  2  0  0  3  0  0  0  0  0  0
  190.5360  175.1190  144.5590 C   0  0  0  0  0  0  0  0  0  0  0  0
  191.6630  175.8620  144.0900 N   0  0  0  0  0  2  0  0  0  0  0  0
  192.2160  176.9230  144.8280 N   0  0  0  0  0  2  0  0  0  0  0  0
  194.0380  176.1520  146.2850 C   0  0  0  0  0  1  0  0  0  0  0  0
  193.6610  176.7290  144.9280 C   0  0  1  0  0  3  0  0  0  0  0  0
  196.2610  176.8620  143.7410 O   0  0  0  0  0  0  0  0  0  0  0  0
  194.1440  175.8740  143.8500 N   0  0  0  0  0  2  0  0  0  0  0  0
  195.4700  175.9740  143.3240 C   0  0  0  0  0  0  0  0  0  0  0  0
  195.9280  175.0010  142.2960 C   0  0  0  0  0  2  0  0  0  0  0  0
  194.7810  174.0850  141.9190 C   0  0  0  0  0  2  0  0  0  0  0  0
  194.6060  174.0950  140.4770 N   0  0  0  0  0  2  0  0  0  0  0  0
  192.2800  174.2810  140.5930 O   0  0  0  0  0  0  0  0  0  0  0  0
  193.3150  174.2020  139.8780 C   0  0  0  0  0  0  0  0  0  0  0  0
  193.1890  174.2200  138.3980 C   0  0  0  0  0  1  0  0  0  0  0  0
  189.4770  175.2340  142.3710 N   0  0  0  0  0  2  0  0  0  0  0  0
  188.1610  175.7200  142.4270 N   0  0  0  0  0  2  0  0  0  0  0  0
  188.1200  176.9610  141.6680 C   0  0  1  0  0  3  0  0  0  0  0  0
  187.1460  176.8380  140.5020 C   0  0  0  0  0  2  0  0  0  0  0  0
  186.1420  177.8820  140.5810 N   0  0  0  0  0  1  0  0  0  0  0  0
  187.7600  178.1290  142.5850 C   0  0  0  0  0  2  0  0  0  0  0  0
  187.8460  177.7480  144.0590 C   0  0  0  0  0  2  0  0  0  0  0  0
  185.8050  179.2590  144.0620 C   0  0  0  0  0  1  0  0  0  0  0  0
  186.5750  178.1630  144.7870 C   0  0  2  0  0  3  0  0  0  0  0  0
  186.7700  178.3960  146.1700 O   0  0  0  0  0  0  0  0  0  0  0  0
  184.2550  178.6090  147.3310 O   0  0  0  0  0  1  0  0  0  0  0  0
  185.0920  176.4530  146.2660 O   0  0  0  0  0  0  0  0  0  0  0  0
  185.6030  177.5790  147.1540 S   0  0  1  0  0  0  0  0  0  0  0  0
  1 28  1  6  0  0  0
  1 14  1  0  0  0  0
  2  3  2  0  0  0  0
  2  4  1  0  0  0  0
  3  6  1  0  0  0  0
  4  7  1  6  0  0  0
  4  5  1  0  0  0  0
  6  1  1  0  0  0  0
  6  5  2  0  0  0  0
  7  9  1  0  0  0  0
  9  8  1  0  0  0  0
 10 13  1  0  0  0  0
 10 12  1  0  0  0  0
 13 11  1  6  0  0  0
 13 12  1  0  0  0  0
 14 10  2  0  0  0  0
 15 14  1  0  0  0  0
 15 16  1  0  0  0  0
 16 18  1  0  0  0  0
 18 17  1  1  0  0  0
 20 18  1  0  0  0  0
 21 19  2  0  0  0  0
 21 20  1  0  0  0  0
 22 21  1  0  0  0  0
 23 22  1  0  0  0  0
 24 23  1  0  0  0  0
 26 24  1  0  0  0  0
 26 25  2  0  0  0  0
 27 26  1  0  0  0  0
 28 29  1  0  0  0  0
 30 31  1  6  0  0  0
 30 29  1  0  0  0  0
 30 33  1  0  0  0  0
 31 32  1  0  0  0  0
 33 34  1  0  0  0  0
 34 36  1  0  0  0  0
 36 35  1  6  0  0  0
 36 37  1  0  0  0  0
 37 40  1  0  0  0  0
 40 39  2  6  0  0  0
 40 38  1  0  0  0  0
M  END
>  <MODEL>
2

>  <REMARK>
 VINA RESULT:      -5.2      1.818      2.080
  Name = 
  20 active torsions:
  status: ('A' for Active; 'I' for Inactive)
    1  A    between atoms: N_2  and  C_22
    2  A    between atoms: C_4  and  C_27
    3  A    between atoms: C_4  and  C_33
    4  A    between atoms: C_5  and  C_14
    5  A    between atoms: C_5  and  C_28
    6  A    between atoms: C_6  and  N_18
    7  A    between atoms: C_6  and  C_37
    8  A    between atoms: C_6  and  C_40
    9  A    between atoms: C_11  and  N_12
   10  A    between atoms: C_11  and  N_34
   11  A    between atoms: C_14  and  O_20
   12  A    between atoms: C_16  and  C_21
   13  A    between atoms: C_16  and  C_28
   14  A    between atoms: C_16  and  N_30
   15  A    between atoms: N_18  and  N_30
   16  A    between atoms: S_19  and  O_20
   17  A    between atoms: C_22  and  C_26
   18  A    between atoms: C_25  and  C_26
   19  A    between atoms: N_31  and  N_34
   20  A    between atoms: N_31  and  C_37
                            x       y       z     vdW  Elec       q    Type
                         _______ _______ _______ _____ _____    ______ ____

>  <TORSDO>
F 20

$$$$
=
 OpenBabel11042418073D

 40 41  0  0  1  0  0  0  0  0999 V2000
  190.5200  174.4160  143.2830 C   0  0  1  0  0  3  0  0  0  0  0  0
  187.9300  172.8380  141.3470 C   0  0  0  0  0  3  0  0  0  0  0  0
  188.4580  173.2270  142.5220 N   0  0  0  0  0  2  0  0  0  0  0  0
  188.7730  173.2240  140.3270 C   0  0  0  0  0  0  0  0  0  0  0  0
  189.8560  173.8830  140.8650 C   0  0  0  0  0  3  0  0  0  0  0  0
  189.6110  173.8600  142.2260 C   0  0  0  0  0  0  0  0  0  0  0  0
  188.5260  173.0100  138.8720 C   0  0  0  0  0  2  0  0  0  0  0  0
  188.7700  174.4200  136.9540 O   0  0  0  0  0  1  0  0  0  0  0  0
  188.1320  174.3110  138.1920 C   0  0  0  0  0  2  0  0  0  0  0  0
  190.6370  176.8460  143.6900 C   0  0  0  0  0  0  0  0  0  0  0  0
  192.9080  177.4820  143.9750 O   0  0  0  0  0  1  0  0  0  0  0  0
  190.7720  178.3530  143.8830 C   0  0  0  0  0  2  0  0  0  0  0  0
  191.7990  177.6790  143.1550 C   0  0  2  0  0  3  0  0  0  0  0  0
  189.9930  175.6920  143.8660 C   0  0  0  0  0  0  0  0  0  0  0  0
  188.7690  175.6460  144.6020 N   0  0  0  0  0  2  0  0  0  0  0  0
  188.7460  175.5380  146.0030 N   0  0  0  0  0  2  0  0  0  0  0  0
  189.4020  177.5620  147.2330 C   0  0  0  0  0  1  0  0  0  0  0  0
  188.2660  176.7970  146.5680 C   0  0  1  0  0  3  0  0  0  0  0  0
  185.6910  178.0260  146.7940 O   0  0  0  0  0  0  0  0  0  0  0  0
  187.6240  177.6130  145.5440 N   0  0  0  0  0  2  0  0  0  0  0  0
  186.3460  178.2250  145.7360 C   0  0  0  0  0  0  0  0  0  0  0  0
  185.7990  179.1280  144.6880 C   0  0  0  0  0  2  0  0  0  0  0  0
  185.0940  178.3060  143.6270 C   0  0  0  0  0  2  0  0  0  0  0  0
  185.9750  178.1260  142.4870 N   0  0  0  0  0  2  0  0  0  0  0  0
  186.2180  175.8270  142.8260 O   0  0  0  0  0  0  0  0  0  0  0  0
  186.5000  176.8450  142.1390 C   0  0  0  0  0  0  0  0  0  0  0  0
  187.3880  176.7110  140.9560 C   0  0  0  0  0  1  0  0  0  0  0  0
  190.7920  173.4410  144.3350 N   0  0  0  0  0  2  0  0  0  0  0  0
  192.0350  172.8530  144.0530 N   0  0  0  0  0  2  0  0  0  0  0  0
  193.0570  173.8710  144.2580 C   0  0  1  0  0  3  0  0  0  0  0  0
  193.5870  173.8080  145.6860 C   0  0  0  0  0  2  0  0  0  0  0  0
  193.6290  175.1410  146.2580 N   0  0  0  0  0  1  0  0  0  0  0  0
  194.1760  173.7100  143.2310 C   0  0  0  0  0  2  0  0  0  0  0  0
  194.2980  174.9260  142.3200 C   0  0  0  0  0  2  0  0  0  0  0  0
  196.0800  176.0580  143.7310 C   0  0  0  0  0  1  0  0  0  0  0  0
  195.7140  175.4840  142.3680 C   0  0  2  0  0  3  0  0  0  0  0  0
  196.0240  176.3250  141.2710 O   0  0  0  0  0  0  0  0  0  0  0  0
  197.2910  173.9440  140.6090 O   0  0  0  0  0  1  0  0  0  0  0  0
  195.8830  175.2540  138.9410 O   0  0  0  0  0  0  0  0  0  0  0  0
  196.9130  175.5040  140.0340 S   0  0  1  0  0  0  0  0  0  0  0  0
  1 14  1  1  0  0  0
  1 28  1  0  0  0  0
  2  3  1  0  0  0  0
  4  5  1  0  0  0  0
  4  2  2  0  0  0  0
  5  6  2  0  0  0  0
  6  3  1  0  0  0  0
  6  1  1  0  0  0  0
  7  4  1  0  0  0  0
  8  9  1  0  0  0  0
  9  7  1  0  0  0  0
 10 14  2  0  0  0  0
 10 12  1  0  0  0  0
 13 10  1  0  0  0  0
 13 12  1  0  0  0  0
 13 11  1  1  0  0  0
 14 15  1  0  0  0  0
 15 16  1  0  0  0  0
 16 18  1  0  0  0  0
 18 17  1  6  0  0  0
 20 21  1  0  0  0  0
 20 18  1  0  0  0  0
 21 19  2  0  0  0  0
 22 21  1  0  0  0  0
 23 22  1  0  0  0  0
 24 23  1  0  0  0  0
 26 24  1  0  0  0  0
 26 25  2  0  0  0  0
 27 26  1  0  0  0  0
 29 30  1  0  0  0  0
 29 28  1  0  0  0  0
 30 33  1  6  0  0  0
 30 31  1  0  0  0  0
 31 32  1  0  0  0  0
 34 36  1  0  0  0  0
 34 33  1  0  0  0  0
 36 35  1  1  0  0  0
 37 36  1  0  0  0  0
 40 39  2  6  0  0  0
 40 38  1  0  0  0  0
 40 37  1  0  0  0  0
M  END
>  <MODEL>
3

>  <REMARK>
 VINA RESULT:      -5.1      3.390      8.083
  Name = 
  20 active torsions:
  status: ('A' for Active; 'I' for Inactive)
    1  A    between atoms: N_2  and  C_22
    2  A    between atoms: C_4  and  C_27
    3  A    between atoms: C_4  and  C_33
    4  A    between atoms: C_5  and  C_14
    5  A    between atoms: C_5  and  C_28
    6  A    between atoms: C_6  and  N_18
    7  A    between atoms: C_6  and  C_37
    8  A    between atoms: C_6  and  C_40
    9  A    between atoms: C_11  and  N_12
   10  A    between atoms: C_11  and  N_34
   11  A    between atoms: C_14  and  O_20
   12  A    between atoms: C_16  and  C_21
   13  A    between atoms: C_16  and  C_28
   14  A    between atoms: C_16  and  N_30
   15  A    between atoms: N_18  and  N_30
   16  A    between atoms: S_19  and  O_20
   17  A    between atoms: C_22  and  C_26
   18  A    between atoms: C_25  and  C_26
   19  A    between atoms: N_31  and  N_34
   20  A    between atoms: N_31  and  C_37
                            x       y       z     vdW  Elec       q    Type
                         _______ _______ _______ _____ _____    ______ ____

>  <TORSDO>
F 20

$$$$
=
 OpenBabel11042418073D

 40 41  0  0  1  0  0  0  0  0999 V2000
  190.1400  174.5210  143.4690 C   0  0  1  0  0  3  0  0  0  0  0  0
  191.9590  172.9180  140.8100 C   0  0  0  0  0  3  0  0  0  0  0  0
  191.3800  174.0000  141.3630 N   0  0  0  0  0  0  0  0  0  0  0  0
  191.8120  171.8460  141.6640 C   0  0  2  0  0  3  0  0  0  0  0  0
  191.1360  172.2580  142.7910 C   0  0  0  0  0  3  0  0  0  0  0  0
  190.8950  173.6000  142.5550 C   0  0  0  0  0  0  0  0  0  0  0  0
  192.3470  170.4730  141.4310 C   0  0  0  0  0  2  0  0  0  0  0  0
  191.1130  168.5270  142.0720 O   0  0  0  0  0  1  0  0  0  0  0  0
  191.2270  169.5070  141.0840 C   0  0  0  0  0  2  0  0  0  0  0  0
  190.4430  174.9860  145.8730 C   0  0  0  0  0  0  0  0  0  0  0  0
  188.4450  175.9320  146.7430 O   0  0  0  0  0  1  0  0  0  0  0  0
  190.5540  175.2360  147.3730 C   0  0  0  0  0  2  0  0  0  0  0  0
  189.2870  174.8280  146.8570 C   0  0  2  0  0  3  0  0  0  0  0  0
  190.9640  174.9470  144.6460 C   0  0  0  0  0  0  0  0  0  0  0  0
  192.3330  175.2930  144.4260 N   0  0  0  0  0  2  0  0  0  0  0  0
  192.7880  176.6200  144.5070 N   0  0  0  0  0  2  0  0  0  0  0  0
  193.9760  176.6490  146.6580 C   0  0  0  0  0  1  0  0  0  0  0  0
  194.1050  176.6320  145.1410 C   0  0  1  0  0  3  0  0  0  0  0  0
  196.3400  176.7540  143.3580 O   0  0  0  0  0  0  0  0  0  0  0  0
  194.9020  175.4920  144.7030 N   0  0  0  0  0  2  0  0  0  0  0  0
  196.0280  175.6290  143.8330 C   0  0  0  0  0  0  0  0  0  0  0  0
  196.8560  174.4360  143.5100 C   0  0  0  0  0  2  0  0  0  0  0  0
  196.4120  173.8540  142.1840 C   0  0  0  0  0  2  0  0  0  0  0  0
  197.3330  174.2660  141.1390 N   0  0  0  0  0  2  0  0  0  0  0  0
  195.7890  175.6780  140.1010 O   0  0  0  0  0  0  0  0  0  0  0  0
  196.9520  175.1930  140.1240 C   0  0  0  0  0  0  0  0  0  0  0  0
  197.9350  175.5920  139.0850 C   0  0  0  0  0  1  0  0  0  0  0  0
  189.6160  175.6840  142.7580 N   0  0  0  0  0  2  0  0  0  0  0  0
  188.2260  175.5210  142.6550 N   0  0  0  0  0  2  0  0  0  0  0  0
  187.6080  176.7820  143.0410 C   0  0  1  0  0  3  0  0  0  0  0  0
  187.9010  177.8560  142.0000 C   0  0  0  0  0  2  0  0  0  0  0  0
  186.9980  177.7150  140.8730 N   0  0  0  0  0  1  0  0  0  0  0  0
  186.1060  176.5920  143.2510 C   0  0  0  0  0  2  0  0  0  0  0  0
  185.6910  176.8580  144.6940 C   0  0  0  0  0  2  0  0  0  0  0  0
  184.4220  178.6760  143.4560 C   0  0  0  0  0  1  0  0  0  0  0  0
  184.9560  178.1870  144.7960 C   0  0  2  0  0  3  0  0  0  0  0  0
  185.6620  179.1640  145.5410 O   0  0  0  0  0  0  0  0  0  0  0  0
  186.3190  180.1090  148.0680 O   0  0  0  0  0  1  0  0  0  0  0  0
  184.4710  178.4000  147.6850 O   0  0  0  0  0  0  0  0  0  0  0  0
  185.8800  178.7100  147.1960 S   0  0  1  0  0  0  0  0  0  0  0  0
  1 28  1  6  0  0  0
  1 14  1  0  0  0  0
  2  3  2  0  0  0  0
  2  4  1  0  0  0  0
  3  6  1  0  0  0  0
  4  7  1  1  0  0  0
  4  5  1  0  0  0  0
  6  5  2  0  0  0  0
  6  1  1  0  0  0  0
  9  7  1  0  0  0  0
  9  8  1  0  0  0  0
 10 13  1  0  0  0  0
 10 12  1  0  0  0  0
 13 11  1  6  0  0  0
 13 12  1  0  0  0  0
 14 10  2  0  0  0  0
 15 16  1  0  0  0  0
 15 14  1  0  0  0  0
 16 18  1  0  0  0  0
 18 17  1  1  0  0  0
 19 21  2  0  0  0  0
 20 18  1  0  0  0  0
 21 20  1  0  0  0  0
 22 21  1  0  0  0  0
 23 22  1  0  0  0  0
 24 23  1  0  0  0  0
 25 26  2  0  0  0  0
 26 24  1  0  0  0  0
 27 26  1  0  0  0  0
 29 28  1  0  0  0  0
 29 30  1  0  0  0  0
 30 31  1  6  0  0  0
 30 33  1  0  0  0  0
 32 31  1  0  0  0  0
 33 34  1  0  0  0  0
 34 36  1  0  0  0  0
 36 35  1  6  0  0  0
 36 37  1  0  0  0  0
 37 40  1  0  0  0  0
 40 39  2  1  0  0  0
 40 38  1  0  0  0  0
M  END
>  <MODEL>
4

>  <REMARK>
 VINA RESULT:      -5.1      2.291      2.852
  Name = 
  20 active torsions:
  status: ('A' for Active; 'I' for Inactive)
    1  A    between atoms: N_2  and  C_22
    2  A    between atoms: C_4  and  C_27
    3  A    between atoms: C_4  and  C_33
    4  A    between atoms: C_5  and  C_14
    5  A    between atoms: C_5  and  C_28
    6  A    between atoms: C_6  and  N_18
    7  A    between atoms: C_6  and  C_37
    8  A    between atoms: C_6  and  C_40
    9  A    between atoms: C_11  and  N_12
   10  A    between atoms: C_11  and  N_34
   11  A    between atoms: C_14  and  O_20
   12  A    between atoms: C_16  and  C_21
   13  A    between atoms: C_16  and  C_28
   14  A    between atoms: C_16  and  N_30
   15  A    between atoms: N_18  and  N_30
   16  A    between atoms: S_19  and  O_20
   17  A    between atoms: C_22  and  C_26
   18  A    between atoms: C_25  and  C_26
   19  A    between atoms: N_31  and  N_34
   20  A    between atoms: N_31  and  C_37
                            x       y       z     vdW  Elec       q    Type
                         _______ _______ _______ _____ _____    ______ ____

>  <TORSDO>
F 20

$$$$
=
 OpenBabel11042418073D

 40 41  0  0  1  0  0  0  0  0999 V2000
  193.1870  175.0470  144.6670 C   0  0  1  0  0  3  0  0  0  0  0  0
  196.1490  176.7780  143.5820 C   0  0  0  0  0  3  0  0  0  0  0  0
  195.2770  176.4110  144.5390 N   0  0  0  0  0  2  0  0  0  0  0  0
  195.7530  176.2310  142.3810 C   0  0  0  0  0  0  0  0  0  0  0  0
  194.6090  175.4890  142.5810 C   0  0  0  0  0  3  0  0  0  0  0  0
  194.3590  175.6320  143.9340 C   0  0  0  0  0  0  0  0  0  0  0  0
  196.4750  176.3740  141.0840 C   0  0  0  0  0  2  0  0  0  0  0  0
  196.3180  174.5910  139.4970 O   0  0  0  0  0  1  0  0  0  0  0  0
  197.0220  175.0350  140.6180 C   0  0  0  0  0  2  0  0  0  0  0  0
  194.4930  173.0340  145.2420 C   0  0  0  0  0  0  0  0  0  0  0  0
  196.7120  173.2860  144.4320 O   0  0  0  0  0  1  0  0  0  0  0  0
  195.3630  171.8420  145.6250 C   0  0  0  0  0  2  0  0  0  0  0  0
  195.9730  173.1320  145.6030 C   0  0  2  0  0  3  0  0  0  0  0  0
  193.3290  173.5690  144.8690 C   0  0  0  0  0  0  0  0  0  0  0  0
  192.1790  172.7440  144.6720 N   0  0  0  0  0  2  0  0  0  0  0  0
  191.6030  172.5610  143.4020 N   0  0  0  0  0  2  0  0  0  0  0  0
  189.7490  173.0410  144.9430 C   0  0  0  0  0  1  0  0  0  0  0  0
  190.1590  172.7630  143.5030 C   0  0  1  0  0  3  0  0  0  0  0  0
  188.8400  172.4270  140.9860 O   0  0  0  0  0  0  0  0  0  0  0  0
  189.7250  173.8420  142.6240 N   0  0  0  0  0  2  0  0  0  0  0  0
  189.0410  173.6030  141.3910 C   0  0  0  0  0  0  0  0  0  0  0  0
  188.5360  174.7550  140.5960 C   0  0  0  0  0  2  0  0  0  0  0  0
  188.3260  175.9480  141.5080 C   0  0  0  0  0  2  0  0  0  0  0  0
  187.3800  176.8650  140.8970 N   0  0  0  0  0  2  0  0  0  0  0  0
  185.8380  176.7040  142.6450 O   0  0  0  0  0  0  0  0  0  0  0  0
  186.1470  177.2040  141.5300 C   0  0  0  0  0  0  0  0  0  0  0  0
  185.2180  178.1570  140.8700 C   0  0  0  0  0  1  0  0  0  0  0  0
  192.9500  175.7220  145.9400 N   0  0  0  0  0  2  0  0  0  0  0  0
  191.9460  176.6790  145.7270 N   0  0  0  0  0  2  0  0  0  0  0  0
  190.7610  176.2380  146.4500 C   0  0  1  0  0  3  0  0  0  0  0  0
  191.1250  175.8500  147.8780 C   0  0  0  0  0  2  0  0  0  0  0  0
  191.3870  177.0410  148.6650 N   0  0  0  0  0  1  0  0  0  0  0  0
  189.6870  177.3240  146.4150 C   0  0  0  0  0  2  0  0  0  0  0  0
  188.2830  176.7470  146.5670 C   0  0  0  0  0  2  0  0  0  0  0  0
  186.9190  178.4070  147.9210 C   0  0  0  0  0  1  0  0  0  0  0  0
  187.2470  177.8620  146.5360 C   0  0  2  0  0  3  0  0  0  0  0  0
  186.1160  177.5570  145.7400 O   0  0  0  0  0  0  0  0  0  0  0  0
  184.1790  178.9000  144.2710 O   0  0  0  0  0  0  0  0  0  0  0  0
  183.8080  178.1720  146.6830 O   0  0  0  0  0  1  0  0  0  0  0  0
  184.8980  178.7840  145.8130 S   0  0  1  0  0  0  0  0  0  0  0  0
  1 14  1  1  0  0  0
  1 28  1  0  0  0  0
  2  3  1  0  0  0  0
  4  5  1  0  0  0  0
  4  2  2  0  0  0  0
  5  6  2  0  0  0  0
  6  3  1  0  0  0  0
  6  1  1  0  0  0  0
  7  4  1  0  0  0  0
  8  9  1  0  0  0  0
  9  7  1  0  0  0  0
 10 13  1  0  0  0  0
 10 12  1  0  0  0  0
 13 11  1  6  0  0  0
 13 12  1  0  0  0  0
 14 10  2  0  0  0  0
 15 14  1  0  0  0  0
 16 18  1  0  0  0  0
 16 15  1  0  0  0  0
 18 17  1  1  0  0  0
 19 21  2  0  0  0  0
 20 18  1  0  0  0  0
 21 20  1  0  0  0  0
 22 21  1  0  0  0  0
 22 23  1  0  0  0  0
 24 23  1  0  0  0  0
 24 26  1  0  0  0  0
 26 25  2  0  0  0  0
 27 26  1  0  0  0  0
 29 28  1  0  0  0  0
 29 30  1  0  0  0  0
 30 33  1  1  0  0  0
 30 31  1  0  0  0  0
 31 32  1  0  0  0  0
 33 34  1  0  0  0  0
 36 34  1  0  0  0  0
 36 35  1  1  0  0  0
 37 40  1  0  0  0  0
 37 36  1  0  0  0  0
 40 38  2  6  0  0  0
 40 39  1  0  0  0  0
M  END
>  <MODEL>
5

>  <REMARK>
 VINA RESULT:      -5.0      2.265      5.809
  Name = 
  20 active torsions:
  status: ('A' for Active; 'I' for Inactive)
    1  A    between atoms: N_2  and  C_22
    2  A    between atoms: C_4  and  C_27
    3  A    between atoms: C_4  and  C_33
    4  A    between atoms: C_5  and  C_14
    5  A    between atoms: C_5  and  C_28
    6  A    between atoms: C_6  and  N_18
    7  A    between atoms: C_6  and  C_37
    8  A    between atoms: C_6  and  C_40
    9  A    between atoms: C_11  and  N_12
   10  A    between atoms: C_11  and  N_34
   11  A    between atoms: C_14  and  O_20
   12  A    between atoms: C_16  and  C_21
   13  A    between atoms: C_16  and  C_28
   14  A    between atoms: C_16  and  N_30
   15  A    between atoms: N_18  and  N_30
   16  A    between atoms: S_19  and  O_20
   17  A    between atoms: C_22  and  C_26
   18  A    between atoms: C_25  and  C_26
   19  A    between atoms: N_31  and  N_34
   20  A    between atoms: N_31  and  C_37
                            x       y       z     vdW  Elec       q    Type
                         _______ _______ _______ _____ _____    ______ ____

>  <TORSDO>
F 20

$$$$
=
 OpenBabel11042418073D

 40 41  0  0  1  0  0  0  0  0999 V2000
  190.2210  174.9030  144.5460 C   0  0  1  0  0  3  0  0  0  0  0  0
  192.9050  176.3350  142.6240 C   0  0  0  0  0  3  0  0  0  0  0  0
  191.6040  176.2480  142.9580 N   0  0  0  0  0  0  0  0  0  0  0  0
  193.6240  175.4390  143.3860 C   0  0  2  0  0  3  0  0  0  0  0  0
  192.7620  174.7750  144.2310 C   0  0  0  0  0  3  0  0  0  0  0  0
  191.5250  175.3160  143.9280 C   0  0  0  0  0  0  0  0  0  0  0  0
  195.1030  175.2550  143.3400 C   0  0  0  0  0  2  0  0  0  0  0  0
  197.0210  174.7240  144.6670 O   0  0  0  0  0  1  0  0  0  0  0  0
  195.6700  175.0710  144.7370 C   0  0  0  0  0  2  0  0  0  0  0  0
  190.2720  176.4130  146.4960 C   0  0  1  0  0  3  0  0  0  0  0  0
  191.2570  175.2790  148.3370 O   0  0  0  0  0  1  0  0  0  0  0  0
  190.3860  177.3240  147.7140 C   0  0  0  0  0  2  0  0  0  0  0  0
  191.4280  176.3740  147.4930 C   0  0  2  0  0  3  0  0  0  0  0  0
  189.6380  175.9840  145.4050 C   0  0  0  0  0  0  0  0  0  0  0  0
  188.3890  176.5590  145.0150 N   0  0  0  0  0  0  0  0  0  0  0  0
  187.7130  177.4900  145.8230 N   0  0  0  0  0  2  0  0  0  0  0  0
  186.1000  177.3730  147.6730 C   0  0  0  0  0  1  0  0  0  0  0  0
  186.4510  176.9040  146.2680 C   0  0  1  0  0  3  0  0  0  0  0  0
  185.7570  179.5280  145.3590 O   0  0  0  0  0  0  0  0  0  0  0  0
  185.3760  177.2210  145.3350 N   0  0  0  0  0  2  0  0  0  0  0  0
  185.1040  178.5540  144.8970 C   0  0  0  0  0  0  0  0  0  0  0  0
  184.0590  178.7900  143.8650 C   0  0  0  0  0  2  0  0  0  0  0  0
  184.4070  178.0210  142.6060 C   0  0  0  0  0  2  0  0  0  0  0  0
  185.7360  178.3990  142.1580 N   0  0  0  0  0  2  0  0  0  0  0  0
  186.5560  176.2120  142.2040 O   0  0  0  0  0  0  0  0  0  0  0  0
  186.7690  177.4330  141.9720 C   0  0  0  0  0  0  0  0  0  0  0  0
  188.1090  177.8690  141.5000 C   0  0  0  0  0  1  0  0  0  0  0  0
  189.2570  174.4640  143.5420 N   0  0  0  0  0  2  0  0  0  0  0  0
  189.6270  173.1710  143.1420 N   0  0  0  0  0  2  0  0  0  0  0  0
  189.1770  172.9930  141.7680 C   0  0  1  0  0  3  0  0  0  0  0  0
  189.3530  174.2860  140.9810 C   0  0  0  0  0  2  0  0  0  0  0  0
  188.3690  174.3570  139.9170 N   0  0  0  0  0  1  0  0  0  0  0  0
  189.9200  171.8280  141.1160 C   0  0  0  0  0  2  0  0  0  0  0  0
  191.1950  172.2830  140.4150 C   0  0  0  0  0  2  0  0  0  0  0  0
  191.6940  173.0830  138.0570 C   0  0  0  0  0  1  0  0  0  0  0  0
  191.1200  171.9710  138.9260 C   0  0  2  0  0  3  0  0  0  0  0  0
  189.8510  171.4970  138.5140 O   0  0  0  0  0  0  0  0  0  0  0  0
  190.2580  170.4240  135.9860 O   0  0  0  0  0  0  0  0  0  0  0  0
  191.2510  169.3860  138.0880 O   0  0  0  0  0  1  0  0  0  0  0  0
  189.9500  170.0220  137.6150 S   0  0  1  0  0  0  0  0  0  0  0  0
  1 28  1  6  0  0  0
  1 14  1  0  0  0  0
  2  3  2  0  0  0  0
  2  4  1  0  0  0  0
  3  6  1  0  0  0  0
  4  7  1  1  0  0  0
  4  5  1  0  0  0  0
  6  5  2  0  0  0  0
  6  1  1  0  0  0  0
  7  9  1  0  0  0  0
  8  9  1  0  0  0  0
 10 14  1  1  0  0  0
 10 13  1  0  0  0  0
 10 12  1  0  0  0  0
 13 12  1  0  0  0  0
 13 11  1  1  0  0  0
 15 14  2  0  0  0  0
 15 16  1  0  0  0  0
 16 18  1  0  0  0  0
 18 17  1  1  0  0  0
 20 18  1  0  0  0  0
 21 20  1  0  0  0  0
 21 19  2  0  0  0  0
 22 21  1  0  0  0  0
 23 22  1  0  0  0  0
 24 23  1  0  0  0  0
 26 24  1  0  0  0  0
 26 25  2  0  0  0  0
 27 26  1  0  0  0  0
 29 28  1  0  0  0  0
 30 31  1  6  0  0  0
 30 29  1  0  0  0  0
 32 31  1  0  0  0  0
 33 30  1  0  0  0  0
 34 33  1  0  0  0  0
 36 35  1  6  0  0  0
 36 34  1  0  0  0  0
 37 36  1  0  0  0  0
 40 38  2  6  0  0  0
 40 39  1  0  0  0  0
 40 37  1  0  0  0  0
M  END
>  <MODEL>
6

>  <REMARK>
 VINA RESULT:      -4.9      3.387      7.399
  Name = 
  20 active torsions:
  status: ('A' for Active; 'I' for Inactive)
    1  A    between atoms: N_2  and  C_22
    2  A    between atoms: C_4  and  C_27
    3  A    between atoms: C_4  and  C_33
    4  A    between atoms: C_5  and  C_14
    5  A    between atoms: C_5  and  C_28
    6  A    between atoms: C_6  and  N_18
    7  A    between atoms: C_6  and  C_37
    8  A    between atoms: C_6  and  C_40
    9  A    between atoms: C_11  and  N_12
   10  A    between atoms: C_11  and  N_34
   11  A    between atoms: C_14  and  O_20
   12  A    between atoms: C_16  and  C_21
   13  A    between atoms: C_16  and  C_28
   14  A    between atoms: C_16  and  N_30
   15  A    between atoms: N_18  and  N_30
   16  A    between atoms: S_19  and  O_20
   17  A    between atoms: C_22  and  C_26
   18  A    between atoms: C_25  and  C_26
   19  A    between atoms: N_31  and  N_34
   20  A    between atoms: N_31  and  C_37
                            x       y       z     vdW  Elec       q    Type
                         _______ _______ _______ _____ _____    ______ ____

>  <TORSDO>
F 20

$$$$
=
 OpenBabel11042418073D

 40 41  0  0  1  0  0  0  0  0999 V2000
  189.9000  174.5020  143.4930 C   0  0  1  0  0  3  0  0  0  0  0  0
  190.3030  171.2090  142.0990 C   0  0  0  0  0  3  0  0  0  0  0  0
  189.5760  172.3200  142.3180 N   0  0  0  0  0  0  0  0  0  0  0  0
  191.5420  171.3620  142.6840 C   0  0  2  0  0  3  0  0  0  0  0  0
  191.6080  172.6020  143.2790 C   0  0  0  0  0  3  0  0  0  0  0  0
  190.3670  173.1560  143.0210 C   0  0  0  0  0  0  0  0  0  0  0  0
  192.6510  170.3660  142.6350 C   0  0  0  0  0  2  0  0  0  0  0  0
  193.1300  169.7690  144.9020 O   0  0  0  0  0  1  0  0  0  0  0  0
  193.5830  170.5330  143.8240 C   0  0  0  0  0  2  0  0  0  0  0  0
  190.4790  174.9840  145.8420 C   0  0  0  0  0  0  0  0  0  0  0  0
  188.4950  175.4880  147.0480 O   0  0  0  0  0  1  0  0  0  0  0  0
  190.7730  175.2300  147.3180 C   0  0  0  0  0  2  0  0  0  0  0  0
  189.5480  174.5780  146.9820 C   0  0  2  0  0  3  0  0  0  0  0  0
  190.7970  175.0700  144.5500 C   0  0  0  0  0  0  0  0  0  0  0  0
  192.0170  175.6930  144.1410 N   0  0  0  0  0  2  0  0  0  0  0  0
  192.4560  176.9070  144.6960 N   0  0  0  0  0  2  0  0  0  0  0  0
  194.0980  176.4740  146.4730 C   0  0  0  0  0  1  0  0  0  0  0  0
  193.8820  176.8010  145.0020 C   0  0  1  0  0  3  0  0  0  0  0  0
  196.4070  177.1060  143.6920 O   0  0  0  0  0  0  0  0  0  0  0  0
  194.5200  175.8030  144.1520 N   0  0  0  0  0  2  0  0  0  0  0  0
  195.8020  176.0100  143.5520 C   0  0  0  0  0  0  0  0  0  0  0  0
  196.4390  174.9080  142.7810 C   0  0  0  0  0  2  0  0  0  0  0  0
  195.7250  173.6040  143.0770 C   0  0  0  0  0  2  0  0  0  0  0  0
  196.5000  172.8310  144.0320 N   0  0  0  0  0  2  0  0  0  0  0  0
  197.0480  171.1620  142.4920 O   0  0  0  0  0  0  0  0  0  0  0  0
  197.1440  171.6120  143.6660 C   0  0  0  0  0  0  0  0  0  0  0  0
  197.9350  170.8650  144.6760 C   0  0  0  0  0  1  0  0  0  0  0  0
  189.7420  175.4430  142.3890 N   0  0  0  0  0  2  0  0  0  0  0  0
  188.3880  175.8080  142.3380 N   0  0  0  0  0  2  0  0  0  0  0  0
  188.3170  177.1470  141.7710 C   0  0  1  0  0  3  0  0  0  0  0  0
  187.2640  177.2010  140.6700 C   0  0  0  0  0  2  0  0  0  0  0  0
  185.9360  177.2120  141.2540 N   0  0  0  0  0  1  0  0  0  0  0  0
  188.0410  178.1720  142.8700 C   0  0  0  0  0  2  0  0  0  0  0  0
  187.9320  177.5220  144.2450 C   0  0  0  0  0  2  0  0  0  0  0  0
  185.9200  179.0690  144.1760 C   0  0  0  0  0  1  0  0  0  0  0  0
  186.6810  178.0090  144.9620 C   0  0  2  0  0  3  0  0  0  0  0  0
  186.9030  178.3310  146.3240 O   0  0  0  0  0  0  0  0  0  0  0  0
  184.4270  178.8760  147.4580 O   0  0  0  0  0  1  0  0  0  0  0  0
  185.0450  176.5730  146.5650 O   0  0  0  0  0  0  0  0  0  0  0  0
  185.6680  177.7100  147.3650 S   0  0  1  0  0  0  0  0  0  0  0  0
  1 28  1  6  0  0  0
  1 14  1  0  0  0  0
  2  3  2  0  0  0  0
  2  4  1  0  0  0  0
  3  6  1  0  0  0  0
  4  7  1  6  0  0  0
  4  5  1  0  0  0  0
  6  5  2  0  0  0  0
  6  1  1  0  0  0  0
  7  9  1  0  0  0  0
  9  8  1  0  0  0  0
 10 13  1  0  0  0  0
 10 12  1  0  0  0  0
 13 11  1  6  0  0  0
 13 12  1  0  0  0  0
 14 10  2  0  0  0  0
 15 14  1  0  0  0  0
 15 16  1  0  0  0  0
 16 18  1  0  0  0  0
 18 17  1  1  0  0  0
 20 18  1  0  0  0  0
 21 19  2  0  0  0  0
 21 20  1  0  0  0  0
 22 23  1  0  0  0  0
 22 21  1  0  0  0  0
 23 24  1  0  0  0  0
 25 26  2  0  0  0  0
 26 24  1  0  0  0  0
 26 27  1  0  0  0  0
 29 28  1  0  0  0  0
 30 31  1  6  0  0  0
 30 29  1  0  0  0  0
 30 33  1  0  0  0  0
 31 32  1  0  0  0  0
 33 34  1  0  0  0  0
 34 36  1  0  0  0  0
 36 35  1  6  0  0  0
 36 37  1  0  0  0  0
 37 40  1  0  0  0  0
 40 39  2  6  0  0  0
 40 38  1  0  0  0  0
M  END
>  <MODEL>
7

>  <REMARK>
 VINA RESULT:      -4.9      2.330      2.966
  Name = 
  20 active torsions:
  status: ('A' for Active; 'I' for Inactive)
    1  A    between atoms: N_2  and  C_22
    2  A    between atoms: C_4  and  C_27
    3  A    between atoms: C_4  and  C_33
    4  A    between atoms: C_5  and  C_14
    5  A    between atoms: C_5  and  C_28
    6  A    between atoms: C_6  and  N_18
    7  A    between atoms: C_6  and  C_37
    8  A    between atoms: C_6  and  C_40
    9  A    between atoms: C_11  and  N_12
   10  A    between atoms: C_11  and  N_34
   11  A    between atoms: C_14  and  O_20
   12  A    between atoms: C_16  and  C_21
   13  A    between atoms: C_16  and  C_28
   14  A    between atoms: C_16  and  N_30
   15  A    between atoms: N_18  and  N_30
   16  A    between atoms: S_19  and  O_20
   17  A    between atoms: C_22  and  C_26
   18  A    between atoms: C_25  and  C_26
   19  A    between atoms: N_31  and  N_34
   20  A    between atoms: N_31  and  C_37
                            x       y       z     vdW  Elec       q    Type
                         _______ _______ _______ _____ _____    ______ ____

>  <TORSDO>
F 20

$$$$
=
 OpenBabel11042418073D

 40 41  0  0  1  0  0  0  0  0999 V2000
  191.0160  176.2570  144.6020 C   0  0  1  0  0  3  0  0  0  0  0  0
  188.6610  176.4510  141.8880 C   0  0  0  0  0  3  0  0  0  0  0  0
  189.4160  177.0250  142.8430 N   0  0  0  0  0  2  0  0  0  0  0  0
  188.8600  175.0870  141.9200 C   0  0  0  0  0  0  0  0  0  0  0  0
  189.7700  174.7890  142.9090 C   0  0  0  0  0  3  0  0  0  0  0  0
  190.0850  176.0240  143.4480 C   0  0  0  0  0  0  0  0  0  0  0  0
  188.2310  174.0990  140.9970 C   0  0  0  0  0  2  0  0  0  0  0  0
  187.0310  172.2990  142.0180 O   0  0  0  0  0  1  0  0  0  0  0  0
  188.2950  172.6960  141.5780 C   0  0  0  0  0  2  0  0  0  0  0  0
  193.4310  176.0950  145.0780 C   0  0  1  0  0  3  0  0  0  0  0  0
  193.8990  177.2000  147.1280 O   0  0  0  0  0  1  0  0  0  0  0  0
  194.9040  175.9710  145.4520 C   0  0  0  0  0  2  0  0  0  0  0  0
  193.9440  175.9530  146.5090 C   0  0  2  0  0  3  0  0  0  0  0  0
  192.4540  176.2310  144.1810 C   0  0  0  0  0  0  0  0  0  0  0  0
  192.7540  176.3360  142.7880 N   0  0  0  0  0  0  0  0  0  0  0  0
  194.0750  176.4240  142.3150 N   0  0  0  0  0  2  0  0  0  0  0  0
  195.5790  174.4890  142.1230 C   0  0  0  0  0  1  0  0  0  0  0  0
  194.3810  175.2240  141.5380 C   0  0  1  0  0  3  0  0  0  0  0  0
  193.6010  173.6890  139.2520 O   0  0  0  0  0  0  0  0  0  0  0  0
  193.2200  174.3450  141.4640 N   0  0  0  0  0  2  0  0  0  0  0  0
  192.9060  173.5800  140.2980 C   0  0  0  0  0  0  0  0  0  0  0  0
  191.7660  172.6250  140.3300 C   0  0  0  0  0  2  0  0  0  0  0  0
  191.4960  172.1090  138.9310 C   0  0  0  0  0  2  0  0  0  0  0  0
  190.2110  172.6060  138.4690 N   0  0  0  0  0  2  0  0  0  0  0  0
  191.1490  174.2800  137.1360 O   0  0  0  0  0  0  0  0  0  0  0  0
  190.1130  173.7020  137.5600 C   0  0  0  0  0  0  0  0  0  0  0  0
  188.7750  174.1650  137.1080 C   0  0  0  0  0  1  0  0  0  0  0  0
  190.7070  177.4970  145.3080 N   0  0  0  0  0  2  0  0  0  0  0  0
  190.2620  177.1490  146.5930 N   0  0  0  0  0  2  0  0  0  0  0  0
  189.0080  176.4240  146.4390 C   0  0  1  0  0  3  0  0  0  0  0  0
  189.0370  175.1370  147.2550 C   0  0  0  0  0  2  0  0  0  0  0  0
  190.3670  174.9200  147.7940 N   0  0  0  0  0  1  0  0  0  0  0  0
  187.8310  177.3160  146.8320 C   0  0  0  0  0  2  0  0  0  0  0  0
  186.8390  177.4930  145.6870 C   0  0  0  0  0  2  0  0  0  0  0  0
  185.0070  178.4730  147.1460 C   0  0  0  0  0  1  0  0  0  0  0  0
  185.9310  178.6850  145.9530 C   0  0  2  0  0  3  0  0  0  0  0  0
  185.2880  179.1730  144.7890 O   0  0  0  0  0  0  0  0  0  0  0  0
  184.0380  177.9500  142.6320 O   0  0  0  0  0  1  0  0  0  0  0  0
  186.3380  179.0250  142.4500 O   0  0  0  0  0  0  0  0  0  0  0  0
  185.5400  178.1560  143.4130 S   0  0  1  0  0  0  0  0  0  0  0  0
  1 14  1  6  0  0  0
  1 28  1  0  0  0  0
  2  4  2  0  0  0  0
  2  3  1  0  0  0  0
  3  6  1  0  0  0  0
  4  5  1  0  0  0  0
  5  6  2  0  0  0  0
  6  1  1  0  0  0  0
  7  9  1  0  0  0  0
  7  4  1  0  0  0  0
  9  8  1  0  0  0  0
 10 14  1  1  0  0  0
 10 12  1  0  0  0  0
 10 13  1  0  0  0  0
 12 13  1  0  0  0  0
 13 11  1  1  0  0  0
 15 14  2  0  0  0  0
 16 15  1  0  0  0  0
 18 17  1  1  0  0  0
 18 16  1  0  0  0  0
 19 21  2  0  0  0  0
 20 18  1  0  0  0  0
 21 22  1  0  0  0  0
 21 20  1  0  0  0  0
 23 22  1  0  0  0  0
 24 23  1  0  0  0  0
 25 26  2  0  0  0  0
 26 24  1  0  0  0  0
 27 26  1  0  0  0  0
 28 29  1  0  0  0  0
 30 29  1  0  0  0  0
 30 33  1  1  0  0  0
 30 31  1  0  0  0  0
 31 32  1  0  0  0  0
 34 36  1  0  0  0  0
 34 33  1  0  0  0  0
 36 35  1  1  0  0  0
 37 36  1  0  0  0  0
 38 40  1  0  0  0  0
 40 39  2  6  0  0  0
 40 37  1  0  0  0  0
M  END
>  <MODEL>
8

>  <REMARK>
 VINA RESULT:      -4.9      2.767      4.575
  Name = 
  20 active torsions:
  status: ('A' for Active; 'I' for Inactive)
    1  A    between atoms: N_2  and  C_22
    2  A    between atoms: C_4  and  C_27
    3  A    between atoms: C_4  and  C_33
    4  A    between atoms: C_5  and  C_14
    5  A    between atoms: C_5  and  C_28
    6  A    between atoms: C_6  and  N_18
    7  A    between atoms: C_6  and  C_37
    8  A    between atoms: C_6  and  C_40
    9  A    between atoms: C_11  and  N_12
   10  A    between atoms: C_11  and  N_34
   11  A    between atoms: C_14  and  O_20
   12  A    between atoms: C_16  and  C_21
   13  A    between atoms: C_16  and  C_28
   14  A    between atoms: C_16  and  N_30
   15  A    between atoms: N_18  and  N_30
   16  A    between atoms: S_19  and  O_20
   17  A    between atoms: C_22  and  C_26
   18  A    between atoms: C_25  and  C_26
   19  A    between atoms: N_31  and  N_34
   20  A    between atoms: N_31  and  C_37
                            x       y       z     vdW  Elec       q    Type
                         _______ _______ _______ _____ _____    ______ ____

>  <TORSDO>
F 20

$$$$
=
 OpenBabel11042418073D

 40 41  0  0  1  0  0  0  0  0999 V2000
  190.6520  175.6670  142.6520 C   0  0  1  0  0  3  0  0  0  0  0  0
  190.4230  172.7380  140.5750 C   0  0  0  0  0  3  0  0  0  0  0  0
  191.0480  173.4830  141.5050 N   0  0  0  0  0  2  0  0  0  0  0  0
  189.2660  173.3810  140.1900 C   0  0  0  0  0  0  0  0  0  0  0  0
  189.1470  174.5550  140.9000 C   0  0  0  0  0  3  0  0  0  0  0  0
  190.2740  174.5690  141.7020 C   0  0  0  0  0  0  0  0  0  0  0  0
  188.2760  172.8630  139.2030 C   0  0  0  0  0  2  0  0  0  0  0  0
  189.0710  172.4470  136.9850 O   0  0  0  0  0  1  0  0  0  0  0  0
  188.5400  173.4330  137.8190 C   0  0  0  0  0  2  0  0  0  0  0  0
  189.8330  174.6530  144.7460 C   0  0  0  0  0  0  0  0  0  0  0  0
  189.6890  172.2980  144.4680 O   0  0  0  0  0  1  0  0  0  0  0  0
  189.3890  173.9670  146.0340 C   0  0  0  0  0  2  0  0  0  0  0  0
  190.3340  173.2870  145.2080 C   0  0  2  0  0  3  0  0  0  0  0  0
  189.7960  175.6680  143.8820 C   0  0  0  0  0  0  0  0  0  0  0  0
  188.9510  176.7960  144.1200 N   0  0  0  0  0  2  0  0  0  0  0  0
  189.0030  177.5260  145.3200 N   0  0  0  0  0  2  0  0  0  0  0  0
  187.7620  177.9320  147.4020 C   0  0  0  0  0  1  0  0  0  0  0  0
  187.6800  177.5120  145.9410 C   0  0  1  0  0  3  0  0  0  0  0  0
  184.8280  177.2720  145.9530 O   0  0  0  0  0  0  0  0  0  0  0  0
  186.7540  178.3680  145.2070 N   0  0  0  0  0  2  0  0  0  0  0  0
  185.3350  178.2110  145.2840 C   0  0  0  0  0  0  0  0  0  0  0  0
  184.4500  179.1860  144.5910 C   0  0  0  0  0  2  0  0  0  0  0  0
  184.0680  178.6440  143.2280 C   0  0  0  0  0  2  0  0  0  0  0  0
  185.2590  178.1790  142.5390 N   0  0  0  0  0  2  0  0  0  0  0  0
  184.2640  178.2400  140.4260 O   0  0  0  0  0  0  0  0  0  0  0  0
  185.2870  178.0040  141.1230 C   0  0  0  0  0  0  0  0  0  0  0  0
  186.5340  177.5370  140.4640 C   0  0  0  0  0  1  0  0  0  0  0  0
  192.0670  175.6180  143.0070 N   0  0  0  0  0  2  0  0  0  0  0  0
  192.2600  176.4920  144.0880 N   0  0  0  0  0  2  0  0  0  0  0  0
  193.4390  176.0380  144.8120 C   0  0  1  0  0  3  0  0  0  0  0  0
  193.2830  176.3140  146.3040 C   0  0  0  0  0  2  0  0  0  0  0  0
  194.3570  177.1760  146.7640 N   0  0  0  0  0  1  0  0  0  0  0  0
  193.6920  174.5570  144.5350 C   0  0  0  0  0  2  0  0  0  0  0  0
  195.1740  174.2560  144.3360 C   0  0  0  0  0  2  0  0  0  0  0  0
  196.8790  173.7820  146.1560 C   0  0  0  0  0  1  0  0  0  0  0  0
  195.6610  173.2760  145.3940 C   0  0  2  0  0  3  0  0  0  0  0  0
  195.7730  171.9460  144.9190 O   0  0  0  0  0  0  0  0  0  0  0  0
  193.8730  170.1470  143.9900 O   0  0  0  0  0  0  0  0  0  0  0  0
  195.0560  169.8540  146.2250 O   0  0  0  0  0  1  0  0  0  0  0  0
  194.4310  170.9580  145.3820 S   0  0  1  0  0  0  0  0  0  0  0  0
  1 28  1  1  0  0  0
  1 14  1  0  0  0  0
  2  3  1  0  0  0  0
  3  6  1  0  0  0  0
  4  2  2  0  0  0  0
  4  5  1  0  0  0  0
  5  6  2  0  0  0  0
  6  1  1  0  0  0  0
  7  4  1  0  0  0  0
  8  9  1  0  0  0  0
  9  7  1  0  0  0  0
 10 13  1  0  0  0  0
 10 12  1  0  0  0  0
 13 11  1  6  0  0  0
 13 12  1  0  0  0  0
 14 15  1  0  0  0  0
 14 10  2  0  0  0  0
 15 16  1  0  0  0  0
 16 18  1  0  0  0  0
 18 17  1  1  0  0  0
 20 21  1  0  0  0  0
 20 18  1  0  0  0  0
 21 19  2  0  0  0  0
 22 21  1  0  0  0  0
 23 22  1  0  0  0  0
 24 23  1  0  0  0  0
 25 26  2  0  0  0  0
 26 24  1  0  0  0  0
 27 26  1  0  0  0  0
 28 29  1  0  0  0  0
 29 30  1  0  0  0  0
 30 33  1  1  0  0  0
 30 31  1  0  0  0  0
 31 32  1  0  0  0  0
 34 33  1  0  0  0  0
 34 36  1  0  0  0  0
 36 35  1  6  0  0  0
 37 40  1  0  0  0  0
 37 36  1  0  0  0  0
 40 38  2  6  0  0  0
 40 39  1  0  0  0  0
M  END
>  <MODEL>
9

>  <REMARK>
 VINA RESULT:      -4.9      3.306      8.293
  Name = 
  20 active torsions:
  status: ('A' for Active; 'I' for Inactive)
    1  A    between atoms: N_2  and  C_22
    2  A    between atoms: C_4  and  C_27
    3  A    between atoms: C_4  and  C_33
    4  A    between atoms: C_5  and  C_14
    5  A    between atoms: C_5  and  C_28
    6  A    between atoms: C_6  and  N_18
    7  A    between atoms: C_6  and  C_37
    8  A    between atoms: C_6  and  C_40
    9  A    between atoms: C_11  and  N_12
   10  A    between atoms: C_11  and  N_34
   11  A    between atoms: C_14  and  O_20
   12  A    between atoms: C_16  and  C_21
   13  A    between atoms: C_16  and  C_28
   14  A    between atoms: C_16  and  N_30
   15  A    between atoms: N_18  and  N_30
   16  A    between atoms: S_19  and  O_20
   17  A    between atoms: C_22  and  C_26
   18  A    between atoms: C_25  and  C_26
   19  A    between atoms: N_31  and  N_34
   20  A    between atoms: N_31  and  C_37
                            x       y       z     vdW  Elec       q    Type
                         _______ _______ _______ _____ _____    ______ ____

>  <TORSDO>
F 20

$$$$
