=
 OpenBabel11042416493D

 29 32  0  0  1  0  0  0  0  0999 V2000
  190.4930  175.3120  145.4250 C   0  0  2  0  0  3  0  0  0  0  0  0
  192.4770  172.8410  144.0700 C   0  0  0  0  0  2  0  0  0  0  0  0
  190.3280  173.1010  144.9430 O   0  0  0  0  0  0  0  0  0  0  0  0
  191.8240  176.0170  145.6110 C   0  0  2  0  0  3  0  0  0  0  0  0
  191.1710  172.1590  144.3370 C   0  0  0  0  0  2  0  0  0  0  0  0
  192.8460  175.1050  144.9810 C   0  0  1  0  0  3  0  0  0  0  0  0
  192.0540  174.2720  143.9960 C   0  0  2  0  0  3  0  0  0  0  0  0
  190.6400  174.3040  144.3760 N   0  0  2  0  0  0  0  0  0  0  0  0
  184.6360  178.1300  145.8860 S   0  0  0  0  0  0  0  0  0  0  0  0
  187.0210  177.9840  144.7140 N   0  0  0  0  0  0  0  0  0  0  0  0
  189.4010  176.2700  145.0770 C   0  0  0  0  0  0  0  0  0  0  0  0
  187.0990  177.1610  145.7030 C   0  0  0  0  0  0  0  0  0  0  0  0
  188.2490  176.3370  145.9220 N   0  0  0  0  0  2  0  0  0  0  0  0
  189.4810  176.9690  144.0300 O   0  0  0  0  0  0  0  0  0  0  0  0
  185.7890  178.7400  144.6120 C   0  0  1  0  0  3  0  0  0  0  0  0
  185.9320  177.0810  146.6070 C   0  0  0  0  0  2  0  0  0  0  0  0
  185.1840  178.5790  143.2570 C   0  0  0  0  0  0  0  0  0  0  0  0
  184.6570  178.1580  140.8790 C   0  0  0  0  0  3  0  0  0  0  0  0
  183.5610  178.2220  141.7410 C   0  0  0  0  0  3  0  0  0  0  0  0
  183.8580  178.4450  143.0510 N   0  0  0  0  0  0  0  0  0  0  0  0
  186.0350  178.3920  141.8220 S   0  0  0  0  0  0  0  0  0  0  0  0
  191.3900  175.3590  148.0250 C   0  0  0  0  0  1  0  0  0  0  0  0
  192.1250  176.3020  147.0820 C   0  0  0  0  0  2  0  0  0  0  0  0
  193.8480  175.8850  144.2740 N   0  0  0  0  0  2  0  0  0  0  0  0
  195.1090  175.1660  144.3850 C   0  0  0  0  0  2  0  0  0  0  0  0
  195.4310  174.9010  145.8470 C   0  0  0  0  0  2  0  0  0  0  0  0
  195.8810  172.4770  145.6510 C   0  0  0  0  0  1  0  0  0  0  0  0
  196.4900  173.8190  145.9910 C   0  0  0  0  0  3  0  0  0  0  0  0
  197.6470  174.0920  145.0530 C   0  0  0  0  0  1  0  0  0  0  0  0
  1 11  1  6  0  0  0
  1  4  1  0  0  0  0
  2  5  1  0  0  0  0
  4 23  1  1  0  0  0
  5  3  1  0  0  0  0
  6 24  1  6  0  0  0
  6  4  1  0  0  0  0
  7  2  1  1  0  0  0
  7  8  1  0  0  0  0
  7  6  1  0  0  0  0
  8  3  1  1  0  0  0
  8  1  1  0  0  0  0
  9 16  1  0  0  0  0
 10 12  2  0  0  0  0
 11 13  1  0  0  0  0
 12 13  1  0  0  0  0
 12 16  1  0  0  0  0
 14 11  2  0  0  0  0
 15 17  1  6  0  0  0
 15 10  1  0  0  0  0
 15  9  1  0  0  0  0
 18 19  2  0  0  0  0
 18 21  1  0  0  0  0
 19 20  1  0  0  0  0
 20 17  2  0  0  0  0
 21 17  1  0  0  0  0
 23 22  1  0  0  0  0
 24 25  1  0  0  0  0
 25 26  1  0  0  0  0
 26 28  1  0  0  0  0
 27 28  1  0  0  0  0
 29 28  1  0  0  0  0
M  END
>  <MODEL>
1

>  <REMARK>
 VINA RESULT:      -6.9      0.000      0.000
  Name = 
  7 active torsions:
  status: ('A' for Active; 'I' for Inactive)
    1  A    between atoms: C_1  and  C_27
    2  A    between atoms: C_4  and  C_5
    3  A    between atoms: N_6  and  C_10
    4  A    between atoms: N_6  and  C_21
    5  A    between atoms: C_10  and  C_19
    6  A    between atoms: C_13  and  C_18
    7  A    between atoms: C_19  and  C_22
                            x       y       z     vdW  Elec       q    Type
                         _______ _______ _______ _____ _____    ______ ____

>  <TORSDO>
F 7

$$$$
=
 OpenBabel11042416493D

 29 32  0  0  1  0  0  0  0  0999 V2000
  187.9300  177.8290  142.9430 C   0  0  2  0  0  3  0  0  0  0  0  0
  185.9200  178.9270  145.5190 C   0  0  0  0  0  2  0  0  0  0  0  0
  186.1320  179.1860  143.2090 O   0  0  0  0  0  0  0  0  0  0  0  0
  188.8740  177.4810  144.0790 C   0  0  2  0  0  3  0  0  0  0  0  0
  185.3240  179.5520  144.2950 C   0  0  0  0  0  2  0  0  0  0  0  0
  188.1180  177.8180  145.3390 C   0  0  1  0  0  3  0  0  0  0  0  0
  186.6610  177.7710  144.9300 C   0  0  2  0  0  3  0  0  0  0  0  0
  186.5720  177.9210  143.4760 N   0  0  2  0  0  0  0  0  0  0  0  0
  189.6810  172.2820  140.0070 S   0  0  0  0  0  0  0  0  0  0  0  0
  188.3510  174.5860  139.9420 N   0  0  0  0  0  0  0  0  0  0  0  0
  187.9900  176.8200  141.8440 C   0  0  0  0  0  0  0  0  0  0  0  0
  188.7830  174.5000  141.1530 C   0  0  0  0  0  0  0  0  0  0  0  0
  188.6010  175.5530  142.1050 N   0  0  0  0  0  2  0  0  0  0  0  0
  187.5520  177.1040  140.6960 O   0  0  0  0  0  0  0  0  0  0  0  0
  188.6230  173.4480  139.0870 C   0  0  1  0  0  3  0  0  0  0  0  0
  189.5050  173.2650  141.5250 C   0  0  0  0  0  2  0  0  0  0  0  0
  189.3120  173.8830  137.8360 C   0  0  0  0  0  0  0  0  0  0  0  0
  190.8190  174.2730  135.9170 C   0  0  0  0  0  3  0  0  0  0  0  0
  189.4930  174.6710  135.7380 C   0  0  0  0  0  3  0  0  0  0  0  0
  188.6660  174.4450  136.7950 N   0  0  0  0  0  0  0  0  0  0  0  0
  190.9270  173.6170  137.4650 S   0  0  0  0  0  0  0  0  0  0  0  0
  191.3220  177.3750  143.4120 C   0  0  0  0  0  1  0  0  0  0  0  0
  190.2000  178.2350  143.9770 C   0  0  0  0  0  2  0  0  0  0  0  0
  188.3750  176.8180  146.3620 N   0  0  0  0  0  2  0  0  0  0  0  0
  188.6040  175.5530  145.6790 C   0  0  0  0  0  2  0  0  0  0  0  0
  189.5870  174.7040  146.4680 C   0  0  0  0  0  2  0  0  0  0  0  0
  191.3140  175.4670  148.0660 C   0  0  0  0  0  1  0  0  0  0  0  0
  190.9320  175.4000  146.6040 C   0  0  0  0  0  3  0  0  0  0  0  0
  191.9960  174.6330  145.8470 C   0  0  0  0  0  1  0  0  0  0  0  0
  1 11  1  6  0  0  0
  1  8  1  0  0  0  0
  1  4  1  0  0  0  0
  3  5  1  0  0  0  0
  4 23  1  6  0  0  0
  4  6  1  0  0  0  0
  5  2  1  0  0  0  0
  6 24  1  1  0  0  0
  7  6  1  0  0  0  0
  7  2  1  1  0  0  0
  8  3  1  1  0  0  0
  8  7  1  0  0  0  0
  9 16  1  0  0  0  0
 10 12  2  0  0  0  0
 11 13  1  0  0  0  0
 12 16  1  0  0  0  0
 12 13  1  0  0  0  0
 14 11  2  0  0  0  0
 15 17  1  6  0  0  0
 15 10  1  0  0  0  0
 15  9  1  0  0  0  0
 18 21  1  0  0  0  0
 19 18  2  0  0  0  0
 19 20  1  0  0  0  0
 20 17  2  0  0  0  0
 21 17  1  0  0  0  0
 22 23  1  0  0  0  0
 25 24  1  0  0  0  0
 25 26  1  0  0  0  0
 26 28  1  0  0  0  0
 28 27  1  0  0  0  0
 29 28  1  0  0  0  0
M  END
>  <MODEL>
2

>  <REMARK>
 VINA RESULT:      -6.8      4.314      6.745
  Name = 
  7 active torsions:
  status: ('A' for Active; 'I' for Inactive)
    1  A    between atoms: C_1  and  C_27
    2  A    between atoms: C_4  and  C_5
    3  A    between atoms: N_6  and  C_10
    4  A    between atoms: N_6  and  C_21
    5  A    between atoms: C_10  and  C_19
    6  A    between atoms: C_13  and  C_18
    7  A    between atoms: C_19  and  C_22
                            x       y       z     vdW  Elec       q    Type
                         _______ _______ _______ _____ _____    ______ ____

>  <TORSDO>
F 7

$$$$
=
 OpenBabel11042416493D

 29 32  0  0  1  0  0  0  0  0999 V2000
  191.1920  174.5500  143.1440 C   0  0  2  0  0  3  0  0  0  0  0  0
  194.4270  175.7110  143.3970 C   0  0  0  0  0  2  0  0  0  0  0  0
  192.7230  175.5600  141.8100 O   0  0  0  0  0  0  0  0  0  0  0  0
  191.5710  173.7770  144.3940 C   0  0  2  0  0  3  0  0  0  0  0  0
  194.0210  176.0560  141.9980 C   0  0  0  0  0  2  0  0  0  0  0  0
  192.9710  174.2280  144.7280 C   0  0  1  0  0  3  0  0  0  0  0  0
  193.0990  175.5850  144.0690 C   0  0  2  0  0  3  0  0  0  0  0  0
  192.0900  175.6960  143.0130 N   0  0  2  0  0  0  0  0  0  0  0  0
  186.0690  178.2990  141.6770 S   0  0  0  0  0  0  0  0  0  0  0  0
  187.0800  176.2130  142.9820 N   0  0  0  0  0  0  0  0  0  0  0  0
  189.7700  175.0060  143.1850 C   0  0  0  0  0  0  0  0  0  0  0  0
  188.0450  176.6180  142.2300 C   0  0  0  0  0  0  0  0  0  0  0  0
  189.3510  176.0370  142.2860 N   0  0  0  0  0  2  0  0  0  0  0  0
  188.9720  174.5200  144.0320 O   0  0  0  0  0  0  0  0  0  0  0  0
  185.8170  176.9070  142.8270 C   0  0  1  0  0  3  0  0  0  0  0  0
  187.7570  177.7370  141.3100 C   0  0  0  0  0  2  0  0  0  0  0  0
  185.3300  177.4140  144.1430 C   0  0  0  0  0  0  0  0  0  0  0  0
  184.1890  178.5220  146.0350 C   0  0  0  0  0  3  0  0  0  0  0  0
  184.9270  177.3820  146.3560 C   0  0  0  0  0  3  0  0  0  0  0  0
  185.5450  176.7700  145.3080 N   0  0  0  0  0  0  0  0  0  0  0  0
  184.3350  178.7460  144.3710 S   0  0  0  0  0  0  0  0  0  0  0  0
  191.7190  171.8570  142.7380 C   0  0  0  0  0  1  0  0  0  0  0  0
  191.4810  172.2650  144.1860 C   0  0  0  0  0  2  0  0  0  0  0  0
  193.1250  174.3620  146.1670 N   0  0  0  0  0  2  0  0  0  0  0  0
  192.5240  175.6320  146.5470 C   0  0  0  0  0  2  0  0  0  0  0  0
  191.6520  175.4490  147.7780 C   0  0  0  0  0  2  0  0  0  0  0  0
  190.2250  176.8400  146.3130 C   0  0  0  0  0  1  0  0  0  0  0  0
  190.2350  175.9400  147.5290 C   0  0  0  0  0  3  0  0  0  0  0  0
  189.3100  174.7650  147.2860 C   0  0  0  0  0  1  0  0  0  0  0  0
  1 11  1  1  0  0  0
  1  4  1  0  0  0  0
  3  5  1  0  0  0  0
  4 23  1  6  0  0  0
  4  6  1  0  0  0  0
  5  2  1  0  0  0  0
  6 24  1  1  0  0  0
  7  2  1  6  0  0  0
  7  6  1  0  0  0  0
  8  3  1  6  0  0  0
  8  1  1  0  0  0  0
  8  7  1  0  0  0  0
  9 15  1  0  0  0  0
 11 14  2  0  0  0  0
 12 13  1  0  0  0  0
 12 10  2  0  0  0  0
 13 11  1  0  0  0  0
 15 10  1  0  0  0  0
 15 17  1  1  0  0  0
 16  9  1  0  0  0  0
 16 12  1  0  0  0  0
 17 21  1  0  0  0  0
 17 20  2  0  0  0  0
 18 19  2  0  0  0  0
 20 19  1  0  0  0  0
 21 18  1  0  0  0  0
 22 23  1  0  0  0  0
 24 25  1  0  0  0  0
 25 26  1  0  0  0  0
 27 28  1  0  0  0  0
 28 26  1  0  0  0  0
 29 28  1  0  0  0  0
M  END
>  <MODEL>
3

>  <REMARK>
 VINA RESULT:      -6.7      2.160      4.300
  Name = 
  7 active torsions:
  status: ('A' for Active; 'I' for Inactive)
    1  A    between atoms: C_1  and  C_27
    2  A    between atoms: C_4  and  C_5
    3  A    between atoms: N_6  and  C_10
    4  A    between atoms: N_6  and  C_21
    5  A    between atoms: C_10  and  C_19
    6  A    between atoms: C_13  and  C_18
    7  A    between atoms: C_19  and  C_22
                            x       y       z     vdW  Elec       q    Type
                         _______ _______ _______ _____ _____    ______ ____

>  <TORSDO>
F 7

$$$$
=
 OpenBabel11042416493D

 29 32  0  0  1  0  0  0  0  0999 V2000
  190.4660  175.5300  145.4440 C   0  0  2  0  0  3  0  0  0  0  0  0
  192.6530  173.2770  144.0240 C   0  0  0  0  0  2  0  0  0  0  0  0
  190.4510  173.3570  144.7940 O   0  0  0  0  0  0  0  0  0  0  0  0
  191.7430  176.2890  145.7530 C   0  0  2  0  0  3  0  0  0  0  0  0
  191.3750  172.5090  144.1680 C   0  0  0  0  0  2  0  0  0  0  0  0
  192.8470  175.4810  145.1160 C   0  0  1  0  0  3  0  0  0  0  0  0
  192.1540  174.6850  144.0310 C   0  0  2  0  0  3  0  0  0  0  0  0
  190.7230  174.6140  144.3340 N   0  0  2  0  0  0  0  0  0  0  0  0
  184.5230  178.1540  145.9520 S   0  0  0  0  0  0  0  0  0  0  0  0
  186.9040  178.0900  144.7650 N   0  0  0  0  0  0  0  0  0  0  0  0
  189.3410  176.4540  145.1060 C   0  0  0  0  0  0  0  0  0  0  0  0
  187.0160  177.2670  145.7500 C   0  0  0  0  0  0  0  0  0  0  0  0
  188.1920  176.4800  145.9580 N   0  0  0  0  0  2  0  0  0  0  0  0
  189.3910  177.1590  144.0610 O   0  0  0  0  0  0  0  0  0  0  0  0
  185.6470  178.8070  144.6730 C   0  0  1  0  0  3  0  0  0  0  0  0
  185.8580  177.1450  146.6610 C   0  0  0  0  0  2  0  0  0  0  0  0
  185.0390  178.6310  143.3220 C   0  0  0  0  0  0  0  0  0  0  0  0
  184.5070  178.1820  140.9500 C   0  0  0  0  0  3  0  0  0  0  0  0
  183.4120  178.2610  141.8140 C   0  0  0  0  0  3  0  0  0  0  0  0
  183.7130  178.4990  143.1200 N   0  0  0  0  0  0  0  0  0  0  0  0
  185.8860  178.4230  141.8880 S   0  0  0  0  0  0  0  0  0  0  0  0
  191.2710  175.3950  148.0830 C   0  0  0  0  0  1  0  0  0  0  0  0
  191.9520  176.4760  147.2560 C   0  0  0  0  0  2  0  0  0  0  0  0
  193.8380  176.3630  144.5240 N   0  0  0  0  0  2  0  0  0  0  0  0
  195.1480  175.8500  144.8980 C   0  0  0  0  0  2  0  0  0  0  0  0
  196.1430  176.0930  143.7750 C   0  0  0  0  0  2  0  0  0  0  0  0
  196.1870  176.7630  141.3940 C   0  0  0  0  0  1  0  0  0  0  0  0
  195.5020  175.8790  142.4130 C   0  0  0  0  0  3  0  0  0  0  0  0
  195.6420  174.4320  141.9910 C   0  0  0  0  0  1  0  0  0  0  0  0
  1 11  1  6  0  0  0
  1  4  1  0  0  0  0
  2  5  1  0  0  0  0
  4 23  1  1  0  0  0
  5  3  1  0  0  0  0
  6 24  1  6  0  0  0
  6  4  1  0  0  0  0
  7  2  1  1  0  0  0
  7  8  1  0  0  0  0
  7  6  1  0  0  0  0
  8  3  1  1  0  0  0
  8  1  1  0  0  0  0
  9 16  1  0  0  0  0
 10 12  2  0  0  0  0
 11 13  1  0  0  0  0
 12 13  1  0  0  0  0
 12 16  1  0  0  0  0
 14 11  2  0  0  0  0
 15 17  1  6  0  0  0
 15 10  1  0  0  0  0
 15  9  1  0  0  0  0
 18 19  2  0  0  0  0
 18 21  1  0  0  0  0
 19 20  1  0  0  0  0
 20 17  2  0  0  0  0
 21 17  1  0  0  0  0
 23 22  1  0  0  0  0
 24 25  1  0  0  0  0
 26 25  1  0  0  0  0
 27 28  1  0  0  0  0
 28 26  1  0  0  0  0
 29 28  1  0  0  0  0
M  END
>  <MODEL>
4

>  <REMARK>
 VINA RESULT:      -6.6      1.050      1.629
  Name = 
  7 active torsions:
  status: ('A' for Active; 'I' for Inactive)
    1  A    between atoms: C_1  and  C_27
    2  A    between atoms: C_4  and  C_5
    3  A    between atoms: N_6  and  C_10
    4  A    between atoms: N_6  and  C_21
    5  A    between atoms: C_10  and  C_19
    6  A    between atoms: C_13  and  C_18
    7  A    between atoms: C_19  and  C_22
                            x       y       z     vdW  Elec       q    Type
                         _______ _______ _______ _____ _____    ______ ____

>  <TORSDO>
F 7

$$$$
=
 OpenBabel11042416493D

 29 32  0  0  1  0  0  0  0  0999 V2000
  191.5820  176.5360  144.1190 C   0  0  2  0  0  3  0  0  0  0  0  0
  193.7850  175.0220  146.2950 C   0  0  0  0  0  2  0  0  0  0  0  0
  193.1690  177.1670  145.6120 O   0  0  0  0  0  0  0  0  0  0  0  0
  191.5420  175.1530  143.4940 C   0  0  2  0  0  3  0  0  0  0  0  0
  194.0020  176.4880  146.5110 C   0  0  0  0  0  2  0  0  0  0  0  0
  192.4050  174.2930  144.3830 C   0  0  1  0  0  3  0  0  0  0  0  0
  192.4080  175.0100  145.7170 C   0  0  2  0  0  3  0  0  0  0  0  0
  192.0370  176.4100  145.5030 N   0  0  2  0  0  0  0  0  0  0  0  0
  185.3520  177.5790  145.7190 S   0  0  0  0  0  0  0  0  0  0  0  0
  187.4890  178.2460  144.2820 N   0  0  0  0  0  0  0  0  0  0  0  0
  190.2460  177.2040  144.0690 C   0  0  0  0  0  0  0  0  0  0  0  0
  187.9200  177.3440  145.0960 C   0  0  0  0  0  0  0  0  0  0  0  0
  189.2570  176.8380  145.0360 N   0  0  0  0  0  2  0  0  0  0  0  0
  189.9890  178.0390  143.1600 O   0  0  0  0  0  0  0  0  0  0  0  0
  186.1070  178.6500  144.4520 C   0  0  1  0  0  3  0  0  0  0  0  0
  186.9620  176.8260  146.0950 C   0  0  0  0  0  2  0  0  0  0  0  0
  185.3610  178.5240  143.1660 C   0  0  0  0  0  0  0  0  0  0  0  0
  184.5660  178.1140  140.8620 C   0  0  0  0  0  3  0  0  0  0  0  0
  183.5710  178.3000  141.8230 C   0  0  0  0  0  3  0  0  0  0  0  0
  184.0140  178.5160  143.0920 N   0  0  0  0  0  0  0  0  0  0  0  0
  186.0450  178.2300  141.6620 S   0  0  0  0  0  0  0  0  0  0  0  0
  193.4840  175.5880  141.9160 C   0  0  0  0  0  1  0  0  0  0  0  0
  192.0270  175.1630  142.0450 C   0  0  0  0  0  2  0  0  0  0  0  0
  191.8140  172.9740  144.5330 N   0  0  0  0  0  2  0  0  0  0  0  0
  190.3700  173.1540  144.5850 C   0  0  0  0  0  2  0  0  0  0  0  0
  189.6700  171.9170  144.0460 C   0  0  0  0  0  2  0  0  0  0  0  0
  188.5590  173.6310  142.6510 C   0  0  0  0  0  1  0  0  0  0  0  0
  189.0250  172.1920  142.6970 C   0  0  0  0  0  3  0  0  0  0  0  0
  190.0230  171.9570  141.5820 C   0  0  0  0  0  1  0  0  0  0  0  0
  1 11  1  1  0  0  0
  1  8  1  0  0  0  0
  2  5  1  0  0  0  0
  3  5  1  0  0  0  0
  4 23  1  6  0  0  0
  4  1  1  0  0  0  0
  4  6  1  0  0  0  0
  6 24  1  1  0  0  0
  6  7  1  0  0  0  0
  7  2  1  6  0  0  0
  8  3  1  6  0  0  0
  8  7  1  0  0  0  0
  9 16  1  0  0  0  0
 10 15  1  0  0  0  0
 10 12  2  0  0  0  0
 11 13  1  0  0  0  0
 12 16  1  0  0  0  0
 13 12  1  0  0  0  0
 14 11  2  0  0  0  0
 15 17  1  6  0  0  0
 15  9  1  0  0  0  0
 18 21  1  0  0  0  0
 18 19  2  0  0  0  0
 19 20  1  0  0  0  0
 20 17  2  0  0  0  0
 21 17  1  0  0  0  0
 22 23  1  0  0  0  0
 24 25  1  0  0  0  0
 26 25  1  0  0  0  0
 27 28  1  0  0  0  0
 28 26  1  0  0  0  0
 29 28  1  0  0  0  0
M  END
>  <MODEL>
5

>  <REMARK>
 VINA RESULT:      -6.5      1.942      3.991
  Name = 
  7 active torsions:
  status: ('A' for Active; 'I' for Inactive)
    1  A    between atoms: C_1  and  C_27
    2  A    between atoms: C_4  and  C_5
    3  A    between atoms: N_6  and  C_10
    4  A    between atoms: N_6  and  C_21
    5  A    between atoms: C_10  and  C_19
    6  A    between atoms: C_13  and  C_18
    7  A    between atoms: C_19  and  C_22
                            x       y       z     vdW  Elec       q    Type
                         _______ _______ _______ _____ _____    ______ ____

>  <TORSDO>
F 7

$$$$
=
 OpenBabel11042416493D

 29 32  0  0  1  0  0  0  0  0999 V2000
  191.9060  175.7170  143.9730 C   0  0  2  0  0  3  0  0  0  0  0  0
  194.5320  175.6640  146.2040 C   0  0  0  0  0  2  0  0  0  0  0  0
  193.2080  177.2160  145.0690 O   0  0  0  0  0  0  0  0  0  0  0  0
  192.3290  174.2810  143.7290 C   0  0  2  0  0  3  0  0  0  0  0  0
  194.2400  177.1200  146.0140 C   0  0  0  0  0  2  0  0  0  0  0  0
  193.4500  174.0280  144.7060 C   0  0  1  0  0  3  0  0  0  0  0  0
  193.2320  175.0470  145.8040 C   0  0  2  0  0  3  0  0  0  0  0  0
  192.4010  176.1350  145.2830 N   0  0  2  0  0  0  0  0  0  0  0  0
  186.2460  178.1640  141.8660 S   0  0  0  0  0  0  0  0  0  0  0  0
  187.5650  176.4830  143.4510 N   0  0  0  0  0  0  0  0  0  0  0  0
  190.4220  175.8770  143.9030 C   0  0  0  0  0  0  0  0  0  0  0  0
  188.4760  176.9900  142.6940 C   0  0  0  0  0  0  0  0  0  0  0  0
  189.8650  176.6950  142.8700 N   0  0  0  0  0  2  0  0  0  0  0  0
  189.6840  175.3350  144.7710 O   0  0  0  0  0  0  0  0  0  0  0  0
  186.2020  176.8850  143.1640 C   0  0  1  0  0  3  0  0  0  0  0  0
  188.0310  177.9190  141.6350 C   0  0  0  0  0  2  0  0  0  0  0  0
  185.5430  177.4240  144.3900 C   0  0  0  0  0  0  0  0  0  0  0  0
  184.1700  178.5900  146.0820 C   0  0  0  0  0  3  0  0  0  0  0  0
  184.8250  177.4380  146.5210 C   0  0  0  0  0  3  0  0  0  0  0  0
  185.5720  176.7950  145.5820 N   0  0  0  0  0  0  0  0  0  0  0  0
  184.5600  178.7830  144.4540 S   0  0  0  0  0  0  0  0  0  0  0  0
  193.5210  175.2220  141.6940 C   0  0  0  0  0  1  0  0  0  0  0  0
  192.7560  174.0440  142.2800 C   0  0  0  0  0  2  0  0  0  0  0  0
  193.3470  172.6850  145.2520 N   0  0  0  0  0  2  0  0  0  0  0  0
  194.7030  172.1750  145.3970 C   0  0  0  0  0  2  0  0  0  0  0  0
  195.5460  172.5870  144.2020 C   0  0  0  0  0  2  0  0  0  0  0  0
  197.2470  174.3760  144.0420 C   0  0  0  0  0  1  0  0  0  0  0  0
  196.9400  173.0170  144.6320 C   0  0  0  0  0  3  0  0  0  0  0  0
  197.0180  173.1020  146.1420 C   0  0  0  0  0  1  0  0  0  0  0  0
  1 11  1  1  0  0  0
  1  8  1  0  0  0  0
  3  5  1  0  0  0  0
  4 23  1  6  0  0  0
  4  1  1  0  0  0  0
  4  6  1  0  0  0  0
  5  2  1  0  0  0  0
  6 24  1  1  0  0  0
  6  7  1  0  0  0  0
  7  2  1  6  0  0  0
  8  3  1  6  0  0  0
  8  7  1  0  0  0  0
  9 15  1  0  0  0  0
 11 14  2  0  0  0  0
 12 13  1  0  0  0  0
 12 10  2  0  0  0  0
 13 11  1  0  0  0  0
 15 10  1  0  0  0  0
 15 17  1  1  0  0  0
 16  9  1  0  0  0  0
 16 12  1  0  0  0  0
 17 21  1  0  0  0  0
 17 20  2  0  0  0  0
 18 19  2  0  0  0  0
 20 19  1  0  0  0  0
 21 18  1  0  0  0  0
 22 23  1  0  0  0  0
 24 25  1  0  0  0  0
 26 28  1  0  0  0  0
 26 25  1  0  0  0  0
 27 28  1  0  0  0  0
 28 29  1  0  0  0  0
M  END
>  <MODEL>
6

>  <REMARK>
 VINA RESULT:      -6.5      2.004      3.640
  Name = 
  7 active torsions:
  status: ('A' for Active; 'I' for Inactive)
    1  A    between atoms: C_1  and  C_27
    2  A    between atoms: C_4  and  C_5
    3  A    between atoms: N_6  and  C_10
    4  A    between atoms: N_6  and  C_21
    5  A    between atoms: C_10  and  C_19
    6  A    between atoms: C_13  and  C_18
    7  A    between atoms: C_19  and  C_22
                            x       y       z     vdW  Elec       q    Type
                         _______ _______ _______ _____ _____    ______ ____

>  <TORSDO>
F 7

$$$$
=
 OpenBabel11042416493D

 29 32  0  0  1  0  0  0  0  0999 V2000
  188.2930  176.9510  144.2520 C   0  0  2  0  0  3  0  0  0  0  0  0
  186.9330  177.9030  147.2720 C   0  0  0  0  0  2  0  0  0  0  0  0
  186.2950  177.6840  145.0370 O   0  0  0  0  0  0  0  0  0  0  0  0
  189.6020  177.1920  144.9790 C   0  0  2  0  0  3  0  0  0  0  0  0
  185.7930  178.0080  146.3060 C   0  0  0  0  0  2  0  0  0  0  0  0
  189.2110  177.5460  146.3920 C   0  0  1  0  0  3  0  0  0  0  0  0
  187.8330  176.9430  146.5650 C   0  0  2  0  0  3  0  0  0  0  0  0
  187.2430  176.7220  145.2420 N   0  0  2  0  0  0  0  0  0  0  0  0
  190.9110  171.6200  141.5730 S   0  0  0  0  0  0  0  0  0  0  0  0
  188.9370  173.4010  141.6670 N   0  0  0  0  0  0  0  0  0  0  0  0
  188.3850  175.7920  143.3140 C   0  0  0  0  0  0  0  0  0  0  0  0
  189.6780  173.6910  142.6800 C   0  0  0  0  0  0  0  0  0  0  0  0
  189.4220  174.8260  143.5130 N   0  0  0  0  0  2  0  0  0  0  0  0
  187.5900  175.7000  142.3390 O   0  0  0  0  0  0  0  0  0  0  0  0
  189.3280  172.2300  140.9060 C   0  0  1  0  0  3  0  0  0  0  0  0
  190.8340  172.8090  142.9440 C   0  0  0  0  0  2  0  0  0  0  0  0
  189.4800  172.5690  139.4610 C   0  0  0  0  0  0  0  0  0  0  0  0
  189.4420  173.5410  137.1890 C   0  0  0  0  0  3  0  0  0  0  0  0
  190.4480  172.6030  137.4310 C   0  0  0  0  0  3  0  0  0  0  0  0
  190.4690  172.0790  138.6870 N   0  0  0  0  0  0  0  0  0  0  0  0
  188.5650  173.6970  138.6190 S   0  0  0  0  0  0  0  0  0  0  0  0
  191.5730  177.7270  143.4690 C   0  0  0  0  0  1  0  0  0  0  0  0
  190.4370  178.2870  144.3150 C   0  0  0  0  0  2  0  0  0  0  0  0
  190.1350  176.9420  147.3360 N   0  0  0  0  0  2  0  0  0  0  0  0
  190.4660  175.6180  146.8270 C   0  0  0  0  0  2  0  0  0  0  0  0
  191.8840  175.2450  147.2280 C   0  0  0  0  0  2  0  0  0  0  0  0
  193.9420  176.4140  146.5120 C   0  0  0  0  0  1  0  0  0  0  0  0
  192.8560  175.4550  146.0780 C   0  0  0  0  0  3  0  0  0  0  0  0
  193.4870  174.1370  145.6790 C   0  0  0  0  0  1  0  0  0  0  0  0
  1 11  1  6  0  0  0
  1  4  1  0  0  0  0
  1  8  1  0  0  0  0
  3  5  1  0  0  0  0
  4 23  1  6  0  0  0
  4  6  1  0  0  0  0
  5  2  1  0  0  0  0
  6  7  1  0  0  0  0
  6 24  1  1  0  0  0
  7  2  1  1  0  0  0
  8  3  1  6  0  0  0
  8  7  1  0  0  0  0
  9 16  1  0  0  0  0
 10 12  2  0  0  0  0
 11 13  1  0  0  0  0
 12 16  1  0  0  0  0
 12 13  1  0  0  0  0
 14 11  2  0  0  0  0
 15 17  1  6  0  0  0
 15  9  1  0  0  0  0
 15 10  1  0  0  0  0
 18 19  2  0  0  0  0
 18 21  1  0  0  0  0
 19 20  1  0  0  0  0
 20 17  2  0  0  0  0
 21 17  1  0  0  0  0
 22 23  1  0  0  0  0
 25 26  1  0  0  0  0
 25 24  1  0  0  0  0
 28 27  1  0  0  0  0
 28 26  1  0  0  0  0
 29 28  1  0  0  0  0
M  END
>  <MODEL>
7

>  <REMARK>
 VINA RESULT:      -6.4      3.614      6.140
  Name = 
  7 active torsions:
  status: ('A' for Active; 'I' for Inactive)
    1  A    between atoms: C_1  and  C_27
    2  A    between atoms: C_4  and  C_5
    3  A    between atoms: N_6  and  C_10
    4  A    between atoms: N_6  and  C_21
    5  A    between atoms: C_10  and  C_19
    6  A    between atoms: C_13  and  C_18
    7  A    between atoms: C_19  and  C_22
                            x       y       z     vdW  Elec       q    Type
                         _______ _______ _______ _____ _____    ______ ____

>  <TORSDO>
F 7

$$$$
=
 OpenBabel11042416493D

 29 32  0  0  1  0  0  0  0  0999 V2000
  192.1070  175.6990  145.7240 C   0  0  2  0  0  3  0  0  0  0  0  0
  189.8670  177.9190  144.3340 C   0  0  0  0  0  2  0  0  0  0  0  0
  192.1670  177.5250  144.3800 O   0  0  0  0  0  0  0  0  0  0  0  0
  190.9440  175.3960  146.6510 C   0  0  2  0  0  3  0  0  0  0  0  0
  191.1970  178.3600  143.8070 C   0  0  0  0  0  2  0  0  0  0  0  0
  189.8000  176.2330  146.1360 C   0  0  1  0  0  3  0  0  0  0  0  0
  190.1450  176.4940  144.6850 C   0  0  2  0  0  3  0  0  0  0  0  0
  191.5840  176.2960  144.4970 N   0  0  2  0  0  0  0  0  0  0  0  0
  193.1050  169.5570  143.7940 S   0  0  0  0  0  0  0  0  0  0  0  0
  194.0860  171.8690  144.6710 N   0  0  0  0  0  0  0  0  0  0  0  0
  192.8990  174.4720  145.4100 C   0  0  0  0  0  0  0  0  0  0  0  0
  192.8390  172.1120  144.4560 C   0  0  0  0  0  0  0  0  0  0  0  0
  192.2410  173.3710  144.7780 N   0  0  0  0  0  2  0  0  0  0  0  0
  194.1130  174.3980  145.7440 O   0  0  0  0  0  0  0  0  0  0  0  0
  194.5490  170.5430  144.3100 C   0  0  1  0  0  3  0  0  0  0  0  0
  192.0310  171.0190  143.8760 C   0  0  0  0  0  2  0  0  0  0  0  0
  195.2270  169.8890  145.4660 C   0  0  0  0  0  0  0  0  0  0  0  0
  196.7490  169.1060  147.2500 C   0  0  0  0  0  3  0  0  0  0  0  0
  195.3930  168.8440  147.4510 C   0  0  0  0  0  3  0  0  0  0  0  0
  194.5590  169.2860  146.4700 N   0  0  0  0  0  0  0  0  0  0  0  0
  196.8760  169.9230  145.7810 S   0  0  0  0  0  0  0  0  0  0  0  0
  191.3720  177.1940  148.3930 C   0  0  0  0  0  1  0  0  0  0  0  0
  191.2760  175.7010  148.1120 C   0  0  0  0  0  2  0  0  0  0  0  0
  188.5550  175.4890  146.2200 N   0  0  0  0  0  2  0  0  0  0  0  0
  187.5570  176.3830  146.7890 C   0  0  0  0  0  2  0  0  0  0  0  0
  186.4540  176.6460  145.7770 C   0  0  0  0  0  2  0  0  0  0  0  0
  185.9100  178.2110  147.6130 C   0  0  0  0  0  1  0  0  0  0  0  0
  185.6150  177.8500  146.1740 C   0  0  0  0  0  3  0  0  0  0  0  0
  185.9460  179.0320  145.2870 C   0  0  0  0  0  1  0  0  0  0  0  0
  1 11  1  6  0  0  0
  1  4  1  0  0  0  0
  4 23  1  1  0  0  0
  5  2  1  0  0  0  0
  5  3  1  0  0  0  0
  6 24  1  6  0  0  0
  6  4  1  0  0  0  0
  7  2  1  1  0  0  0
  7  6  1  0  0  0  0
  8  3  1  1  0  0  0
  8  7  1  0  0  0  0
  8  1  1  0  0  0  0
  9 16  1  0  0  0  0
  9 15  1  0  0  0  0
 11 14  2  0  0  0  0
 12 10  2  0  0  0  0
 12 13  1  0  0  0  0
 13 11  1  0  0  0  0
 15 10  1  0  0  0  0
 15 17  1  1  0  0  0
 16 12  1  0  0  0  0
 17 21  1  0  0  0  0
 17 20  2  0  0  0  0
 18 19  2  0  0  0  0
 20 19  1  0  0  0  0
 21 18  1  0  0  0  0
 23 22  1  0  0  0  0
 24 25  1  0  0  0  0
 26 28  1  0  0  0  0
 26 25  1  0  0  0  0
 28 27  1  0  0  0  0
 29 28  1  0  0  0  0
M  END
>  <MODEL>
8

>  <REMARK>
 VINA RESULT:      -6.4      4.183      9.217
  Name = 
  7 active torsions:
  status: ('A' for Active; 'I' for Inactive)
    1  A    between atoms: C_1  and  C_27
    2  A    between atoms: C_4  and  C_5
    3  A    between atoms: N_6  and  C_10
    4  A    between atoms: N_6  and  C_21
    5  A    between atoms: C_10  and  C_19
    6  A    between atoms: C_13  and  C_18
    7  A    between atoms: C_19  and  C_22
                            x       y       z     vdW  Elec       q    Type
                         _______ _______ _______ _____ _____    ______ ____

>  <TORSDO>
F 7

$$$$
=
 OpenBabel11042416493D

 29 32  0  0  1  0  0  0  0  0999 V2000
  188.2410  175.8800  144.9430 C   0  0  2  0  0  3  0  0  0  0  0  0
  185.9680  177.9610  146.4860 C   0  0  0  0  0  2  0  0  0  0  0  0
  187.2180  176.0470  146.9600 O   0  0  0  0  0  0  0  0  0  0  0  0
  187.6880  176.5200  143.6830 C   0  0  2  0  0  3  0  0  0  0  0  0
  186.3300  176.9630  147.5420 C   0  0  0  0  0  2  0  0  0  0  0  0
  186.7060  177.5580  144.1650 C   0  0  1  0  0  3  0  0  0  0  0  0
  187.1510  177.8720  145.5780 C   0  0  2  0  0  3  0  0  0  0  0  0
  187.9700  176.7650  146.0740 N   0  0  2  0  0  0  0  0  0  0  0  0
  194.5670  176.5370  146.3610 S   0  0  0  0  0  0  0  0  0  0  0  0
  192.6500  175.3690  144.9320 N   0  0  0  0  0  0  0  0  0  0  0  0
  189.7070  175.6120  144.8300 C   0  0  0  0  0  0  0  0  0  0  0  0
  192.0140  176.0770  145.8020 C   0  0  0  0  0  0  0  0  0  0  0  0
  190.5890  176.1930  145.7950 N   0  0  0  0  0  2  0  0  0  0  0  0
  190.1540  174.9260  143.8720 O   0  0  0  0  0  0  0  0  0  0  0  0
  194.0950  175.3580  145.0530 C   0  0  1  0  0  3  0  0  0  0  0  0
  192.8250  176.7930  146.8090 C   0  0  0  0  0  2  0  0  0  0  0  0
  194.7330  175.7470  143.7610 C   0  0  0  0  0  0  0  0  0  0  0  0
  195.3080  176.5070  141.4810 C   0  0  0  0  0  3  0  0  0  0  0  0
  196.3670  176.4580  142.3890 C   0  0  0  0  0  3  0  0  0  0  0  0
  196.0430  176.0480  143.6460 N   0  0  0  0  0  0  0  0  0  0  0  0
  193.9280  176.0130  142.3120 S   0  0  0  0  0  0  0  0  0  0  0  0
  187.8150  175.3100  141.4540 C   0  0  0  0  0  1  0  0  0  0  0  0
  187.0410  175.4950  142.7520 C   0  0  0  0  0  2  0  0  0  0  0  0
  186.7930  178.7530  143.3440 N   0  0  0  0  0  2  0  0  0  0  0  0
  185.4360  179.2450  143.1540 C   0  0  0  0  0  2  0  0  0  0  0  0
  184.5890  178.1860  142.4670 C   0  0  0  0  0  2  0  0  0  0  0  0
  185.4970  177.9150  140.1820 C   0  0  0  0  0  1  0  0  0  0  0  0
  184.3750  178.5170  140.9980 C   0  0  0  0  0  3  0  0  0  0  0  0
  183.0540  177.9510  140.5220 C   0  0  0  0  0  1  0  0  0  0  0  0
  1 11  1  6  0  0  0
  1  8  1  0  0  0  0
  2  5  1  0  0  0  0
  3  5  1  0  0  0  0
  4 23  1  6  0  0  0
  4  6  1  0  0  0  0
  4  1  1  0  0  0  0
  6 24  1  6  0  0  0
  6  7  1  0  0  0  0
  7  8  1  0  0  0  0
  7  2  1  1  0  0  0
  8  3  1  1  0  0  0
  9 16  1  0  0  0  0
 10 15  1  0  0  0  0
 10 12  2  0  0  0  0
 11 13  1  0  0  0  0
 12 16  1  0  0  0  0
 13 12  1  0  0  0  0
 14 11  2  0  0  0  0
 15 17  1  6  0  0  0
 15  9  1  0  0  0  0
 18 21  1  0  0  0  0
 18 19  2  0  0  0  0
 19 20  1  0  0  0  0
 20 17  2  0  0  0  0
 21 17  1  0  0  0  0
 22 23  1  0  0  0  0
 25 24  1  0  0  0  0
 26 25  1  0  0  0  0
 27 28  1  0  0  0  0
 28 26  1  0  0  0  0
 29 28  1  0  0  0  0
M  END
>  <MODEL>
9

>  <REMARK>
 VINA RESULT:      -6.3      3.115      8.733
  Name = 
  7 active torsions:
  status: ('A' for Active; 'I' for Inactive)
    1  A    between atoms: C_1  and  C_27
    2  A    between atoms: C_4  and  C_5
    3  A    between atoms: N_6  and  C_10
    4  A    between atoms: N_6  and  C_21
    5  A    between atoms: C_10  and  C_19
    6  A    between atoms: C_13  and  C_18
    7  A    between atoms: C_19  and  C_22
                            x       y       z     vdW  Elec       q    Type
                         _______ _______ _______ _____ _____    ______ ____

>  <TORSDO>
F 7

$$$$
