=
 OpenBabel11042413503D

 25 26  0  0  0  0  0  0  0  0999 V2000
  189.1230  175.8850  146.8800 N   0  0  0  0  0  0  0  0  0  0  0  0
  188.1880  176.5850  146.3050 C   0  0  0  0  0  0  0  0  0  0  0  0
  191.4630  176.5770  146.9080 N   0  0  0  0  0  0  0  0  0  0  0  0
  193.8290  174.6830  145.0850 N   0  0  0  0  0  0  0  0  0  0  0  0
  191.0810  174.4790  145.4420 S   0  0  0  0  0  0  0  0  0  0  0  0
  190.4840  175.7450  146.4510 C   0  0  0  0  0  0  0  0  0  0  0  0
  192.6350  176.1640  146.3820 C   0  0  0  0  0  0  0  0  0  0  0  0
  194.8240  175.4800  145.4910 N   0  0  0  0  0  0  0  0  0  0  0  0
  192.6320  175.0800  145.5870 C   0  0  0  0  0  0  0  0  0  0  0  0
  194.2050  176.6870  146.4880 S   0  0  0  0  0  0  0  0  0  0  0  0
  188.4560  177.4960  145.1470 C   0  0  0  0  0  2  0  0  0  0  0  0
  188.3720  176.7170  143.8450 C   0  0  0  0  0  2  0  0  0  0  0  0
  187.4460  178.1100  141.9120 N   0  0  0  0  0  2  0  0  0  0  0  0
  185.8180  176.5870  142.6450 O   0  0  0  0  0  0  0  0  0  0  0  0
  188.5580  177.6370  142.6830 C   0  0  0  0  0  0  0  0  0  0  0  0
  186.1010  177.6240  141.9890 C   0  0  0  0  0  0  0  0  0  0  0  0
  189.7160  178.0360  142.3970 O   0  0  0  0  0  0  0  0  0  0  0  0
  185.0280  178.3220  141.2330 C   0  0  0  0  0  2  0  0  0  0  0  0
  183.7420  178.0570  141.8510 N   0  0  0  0  0  1  0  0  0  0  0  0
  186.8120  176.5590  146.8820 C   0  0  0  0  0  2  0  0  0  0  0  0
  184.9640  178.2310  146.4180 C   0  0  0  0  0  0  0  0  0  0  0  0
  184.8990  178.5590  147.6320 O   0  0  0  0  0  0  0  0  0  0  0  0
  185.8720  177.2170  145.9840 N   0  0  0  0  0  2  0  0  0  0  0  0
  184.0560  178.8760  145.4330 C   0  0  0  0  0  2  0  0  0  0  0  0
  184.7950  179.7040  144.5870 O   0  0  0  0  0  1  0  0  0  0  0  0
  2  1  2  0  0  0  0
  2 20  1  0  0  0  0
  4  8  2  0  0  0  0
  4  9  1  0  0  0  0
  5  9  1  0  0  0  0
  5  6  1  0  0  0  0
  6  1  1  0  0  0  0
  6  3  2  0  0  0  0
  7 10  1  0  0  0  0
  7  3  1  0  0  0  0
  8 10  1  0  0  0  0
  9  7  2  0  0  0  0
 11  2  1  0  0  0  0
 12 11  1  0  0  0  0
 13 16  1  0  0  0  0
 13 15  1  0  0  0  0
 15 12  1  0  0  0  0
 16 14  2  0  0  0  0
 17 15  2  0  0  0  0
 18 19  1  0  0  0  0
 18 16  1  0  0  0  0
 21 22  2  0  0  0  0
 23 21  1  0  0  0  0
 23 20  1  0  0  0  0
 24 21  1  0  0  0  0
 25 24  1  0  0  0  0
M  END
>  <MODEL>
1

>  <REMARK>
 VINA RESULT:      -6.1      0.000      0.000
  Name = 
  8 active torsions:
  status: ('A' for Active; 'I' for Inactive)
    1  A    between atoms: C_3  and  C_7
    2  A    between atoms: C_6  and  C_20
    3  A    between atoms: C_8  and  C_19
    4  A    between atoms: C_12  and  C_17
    5  A    between atoms: C_12  and  C_20
    6  A    between atoms: C_13  and  N_14
    7  A    between atoms: C_17  and  C_23
    8  A    between atoms: C_23  and  N_25
                            x       y       z     vdW  Elec       q    Type
                         _______ _______ _______ _____ _____    ______ ____

>  <TORSDO>
F 8

$$$$
=
 OpenBabel11042413503D

 25 26  0  0  0  0  0  0  0  0999 V2000
  188.3410  175.9690  146.8960 N   0  0  0  0  0  0  0  0  0  0  0  0
  189.6130  176.1900  146.7250 C   0  0  0  0  0  0  0  0  0  0  0  0
  186.8880  176.7190  145.0840 N   0  0  0  0  0  0  0  0  0  0  0  0
  184.2120  178.9070  145.8290 N   0  0  0  0  0  0  0  0  0  0  0  0
  186.2090  177.7340  147.3640 S   0  0  0  0  0  0  0  0  0  0  0  0
  187.2530  176.7600  146.3960 C   0  0  0  0  0  0  0  0  0  0  0  0
  185.8070  177.5110  144.9300 C   0  0  0  0  0  0  0  0  0  0  0  0
  183.8220  178.9150  144.5490 N   0  0  0  0  0  0  0  0  0  0  0  0
  185.3080  178.1290  146.0140 C   0  0  0  0  0  0  0  0  0  0  0  0
  184.8510  177.9380  143.6430 S   0  0  0  0  0  0  0  0  0  0  0  0
  190.1320  177.2640  145.8200 C   0  0  0  0  0  2  0  0  0  0  0  0
  190.4480  176.6800  144.4530 C   0  0  0  0  0  2  0  0  0  0  0  0
  189.3300  177.5980  142.3450 N   0  0  0  0  0  2  0  0  0  0  0  0
  188.8460  175.3130  142.5710 O   0  0  0  0  0  0  0  0  0  0  0  0
  190.2920  177.7280  143.3990 C   0  0  0  0  0  0  0  0  0  0  0  0
  188.5810  176.4190  142.0300 C   0  0  0  0  0  0  0  0  0  0  0  0
  190.9990  178.7670  143.4600 O   0  0  0  0  0  0  0  0  0  0  0  0
  187.5070  176.4880  141.0030 C   0  0  0  0  0  2  0  0  0  0  0  0
  187.1930  177.8750  140.7160 N   0  0  0  0  0  1  0  0  0  0  0  0
  190.5950  175.2730  147.3740 C   0  0  0  0  0  2  0  0  0  0  0  0
  192.9870  175.3160  146.5350 C   0  0  0  0  0  0  0  0  0  0  0  0
  192.8140  174.2630  145.8640 O   0  0  0  0  0  0  0  0  0  0  0  0
  191.9310  175.8510  147.3350 N   0  0  0  0  0  2  0  0  0  0  0  0
  194.3160  175.9820  146.5270 C   0  0  0  0  0  2  0  0  0  0  0  0
  195.3070  175.0470  146.2290 O   0  0  0  0  0  1  0  0  0  0  0  0
  2  1  2  0  0  0  0
  2 20  1  0  0  0  0
  3  6  2  0  0  0  0
  4  9  1  0  0  0  0
  6  1  1  0  0  0  0
  6  5  1  0  0  0  0
  7  3  1  0  0  0  0
  7  9  2  0  0  0  0
  8  4  2  0  0  0  0
  9  5  1  0  0  0  0
 10  8  1  0  0  0  0
 10  7  1  0  0  0  0
 11  2  1  0  0  0  0
 12 11  1  0  0  0  0
 13 15  1  0  0  0  0
 15 17  2  0  0  0  0
 15 12  1  0  0  0  0
 16 13  1  0  0  0  0
 16 14  2  0  0  0  0
 18 16  1  0  0  0  0
 19 18  1  0  0  0  0
 21 23  1  0  0  0  0
 22 21  2  0  0  0  0
 23 20  1  0  0  0  0
 24 21  1  0  0  0  0
 25 24  1  0  0  0  0
M  END
>  <MODEL>
2

>  <REMARK>
 VINA RESULT:      -6.0      3.311      6.498
  Name = 
  8 active torsions:
  status: ('A' for Active; 'I' for Inactive)
    1  A    between atoms: C_3  and  C_7
    2  A    between atoms: C_6  and  C_20
    3  A    between atoms: C_8  and  C_19
    4  A    between atoms: C_12  and  C_17
    5  A    between atoms: C_12  and  C_20
    6  A    between atoms: C_13  and  N_14
    7  A    between atoms: C_17  and  C_23
    8  A    between atoms: C_23  and  N_25
                            x       y       z     vdW  Elec       q    Type
                         _______ _______ _______ _____ _____    ______ ____

>  <TORSDO>
F 8

$$$$
=
 OpenBabel11042413503D

 25 26  0  0  0  0  0  0  0  0999 V2000
  189.4920  176.7990  146.9940 N   0  0  0  0  0  0  0  0  0  0  0  0
  190.0930  175.6470  146.9130 C   0  0  0  0  0  0  0  0  0  0  0  0
  187.1080  177.3210  147.0060 N   0  0  0  0  0  0  0  0  0  0  0  0
  185.5850  178.4390  144.0160 N   0  0  0  0  0  0  0  0  0  0  0  0
  188.1710  177.6600  144.6720 S   0  0  0  0  0  0  0  0  0  0  0  0
  188.2830  177.1900  146.3280 C   0  0  0  0  0  0  0  0  0  0  0  0
  186.1740  177.7560  146.1350 C   0  0  0  0  0  0  0  0  0  0  0  0
  184.4040  178.5690  144.6300 N   0  0  0  0  0  0  0  0  0  0  0  0
  186.5450  177.9890  144.8640 C   0  0  0  0  0  0  0  0  0  0  0  0
  184.5600  178.1220  146.2460 S   0  0  0  0  0  0  0  0  0  0  0  0
  189.5000  174.4740  146.1970 C   0  0  0  0  0  2  0  0  0  0  0  0
  190.5240  173.8740  145.2480 C   0  0  0  0  0  2  0  0  0  0  0  0
  189.7570  174.3010  142.8480 N   0  0  0  0  0  2  0  0  0  0  0  0
  189.1420  172.1340  143.5040 O   0  0  0  0  0  0  0  0  0  0  0  0
  190.5660  174.6560  143.9760 C   0  0  0  0  0  0  0  0  0  0  0  0
  189.0070  173.0910  142.6970 C   0  0  0  0  0  0  0  0  0  0  0  0
  191.3040  175.6730  143.9070 O   0  0  0  0  0  0  0  0  0  0  0  0
  188.0930  172.9380  141.5340 C   0  0  0  0  0  2  0  0  0  0  0  0
  188.4490  173.8930  140.5020 N   0  0  0  0  0  1  0  0  0  0  0  0
  191.3770  175.4530  147.6470 C   0  0  0  0  0  2  0  0  0  0  0  0
  193.5240  176.1110  146.4700 C   0  0  0  0  0  0  0  0  0  0  0  0
  193.7840  174.9120  146.1860 O   0  0  0  0  0  0  0  0  0  0  0  0
  192.3580  176.4440  147.2250 N   0  0  0  0  0  2  0  0  0  0  0  0
  194.4620  177.1850  146.0520 C   0  0  0  0  0  2  0  0  0  0  0  0
  195.0820  176.8270  144.8550 O   0  0  0  0  0  1  0  0  0  0  0  0
  2  1  2  0  0  0  0
  2 20  1  0  0  0  0
  4  8  2  0  0  0  0
  4  9  1  0  0  0  0
  5  9  1  0  0  0  0
  5  6  1  0  0  0  0
  6  1  1  0  0  0  0
  6  3  2  0  0  0  0
  7 10  1  0  0  0  0
  7  3  1  0  0  0  0
  8 10  1  0  0  0  0
  9  7  2  0  0  0  0
 11  2  1  0  0  0  0
 12 11  1  0  0  0  0
 13 15  1  0  0  0  0
 15 12  1  0  0  0  0
 16 13  1  0  0  0  0
 16 14  2  0  0  0  0
 17 15  2  0  0  0  0
 18 16  1  0  0  0  0
 19 18  1  0  0  0  0
 21 23  1  0  0  0  0
 22 21  2  0  0  0  0
 23 20  1  0  0  0  0
 24 21  1  0  0  0  0
 25 24  1  0  0  0  0
M  END
>  <MODEL>
3

>  <REMARK>
 VINA RESULT:      -5.9      3.577      6.683
  Name = 
  8 active torsions:
  status: ('A' for Active; 'I' for Inactive)
    1  A    between atoms: C_3  and  C_7
    2  A    between atoms: C_6  and  C_20
    3  A    between atoms: C_8  and  C_19
    4  A    between atoms: C_12  and  C_17
    5  A    between atoms: C_12  and  C_20
    6  A    between atoms: C_13  and  N_14
    7  A    between atoms: C_17  and  C_23
    8  A    between atoms: C_23  and  N_25
                            x       y       z     vdW  Elec       q    Type
                         _______ _______ _______ _____ _____    ______ ____

>  <TORSDO>
F 8

$$$$
=
 OpenBabel11042413503D

 25 26  0  0  0  0  0  0  0  0999 V2000
  188.8680  175.7830  146.9070 N   0  0  0  0  0  0  0  0  0  0  0  0
  188.1080  176.5630  146.1920 C   0  0  0  0  0  0  0  0  0  0  0  0
  190.7180  174.5730  145.8730 N   0  0  0  0  0  0  0  0  0  0  0  0
  194.0320  175.5850  146.5780 N   0  0  0  0  0  0  0  0  0  0  0  0
  191.5390  176.4750  147.4230 S   0  0  0  0  0  0  0  0  0  0  0  0
  190.2690  175.5380  146.7240 C   0  0  0  0  0  0  0  0  0  0  0  0
  192.0660  174.6210  145.8650 C   0  0  0  0  0  0  0  0  0  0  0  0
  194.5250  174.6430  145.7660 N   0  0  0  0  0  0  0  0  0  0  0  0
  192.6760  175.5530  146.6180 C   0  0  0  0  0  0  0  0  0  0  0  0
  193.2560  173.7660  145.0900 S   0  0  0  0  0  0  0  0  0  0  0  0
  188.6500  177.4620  145.1250 C   0  0  0  0  0  2  0  0  0  0  0  0
  188.7890  176.6930  143.8220 C   0  0  0  0  0  2  0  0  0  0  0  0
  188.2050  177.8950  141.6430 N   0  0  0  0  0  2  0  0  0  0  0  0
  186.7210  176.1110  141.9880 O   0  0  0  0  0  0  0  0  0  0  0  0
  189.1270  177.6290  142.7070 C   0  0  0  0  0  0  0  0  0  0  0  0
  186.9930  177.1800  141.3800 C   0  0  0  0  0  0  0  0  0  0  0  0
  190.2350  178.2260  142.7230 O   0  0  0  0  0  0  0  0  0  0  0  0
  186.0650  177.6750  140.3290 C   0  0  0  0  0  2  0  0  0  0  0  0
  184.9400  178.3510  140.9480 N   0  0  0  0  0  1  0  0  0  0  0  0
  186.6540  176.6420  146.5150 C   0  0  0  0  0  2  0  0  0  0  0  0
  185.2830  178.6520  145.8010 C   0  0  0  0  0  0  0  0  0  0  0  0
  185.2220  179.0820  146.9840 O   0  0  0  0  0  0  0  0  0  0  0  0
  185.9520  177.4240  145.5060 N   0  0  0  0  0  2  0  0  0  0  0  0
  184.6150  179.4070  144.7090 C   0  0  0  0  0  2  0  0  0  0  0  0
  185.5770  179.9760  143.8760 O   0  0  0  0  0  1  0  0  0  0  0  0
  2 20  1  0  0  0  0
  2  1  2  0  0  0  0
  3  6  2  0  0  0  0
  4  9  1  0  0  0  0
  6  1  1  0  0  0  0
  6  5  1  0  0  0  0
  7  3  1  0  0  0  0
  7  9  2  0  0  0  0
  8  4  2  0  0  0  0
  9  5  1  0  0  0  0
 10  8  1  0  0  0  0
 10  7  1  0  0  0  0
 11  2  1  0  0  0  0
 12 11  1  0  0  0  0
 13 15  1  0  0  0  0
 15 17  2  0  0  0  0
 15 12  1  0  0  0  0
 16 13  1  0  0  0  0
 16 14  2  0  0  0  0
 18 19  1  0  0  0  0
 18 16  1  0  0  0  0
 21 22  2  0  0  0  0
 23 21  1  0  0  0  0
 23 20  1  0  0  0  0
 24 21  1  0  0  0  0
 25 24  1  0  0  0  0
M  END
>  <MODEL>
4

>  <REMARK>
 VINA RESULT:      -5.8      1.200      1.371
  Name = 
  8 active torsions:
  status: ('A' for Active; 'I' for Inactive)
    1  A    between atoms: C_3  and  C_7
    2  A    between atoms: C_6  and  C_20
    3  A    between atoms: C_8  and  C_19
    4  A    between atoms: C_12  and  C_17
    5  A    between atoms: C_12  and  C_20
    6  A    between atoms: C_13  and  N_14
    7  A    between atoms: C_17  and  C_23
    8  A    between atoms: C_23  and  N_25
                            x       y       z     vdW  Elec       q    Type
                         _______ _______ _______ _____ _____    ______ ____

>  <TORSDO>
F 8

$$$$
=
 OpenBabel11042413503D

 25 26  0  0  0  0  0  0  0  0999 V2000
  190.5290  175.3960  145.9640 N   0  0  0  0  0  0  0  0  0  0  0  0
  189.4900  176.1780  145.8900 C   0  0  0  0  0  0  0  0  0  0  0  0
  192.0630  175.3350  144.0660 N   0  0  0  0  0  0  0  0  0  0  0  0
  195.3290  176.6310  144.4630 N   0  0  0  0  0  0  0  0  0  0  0  0
  193.1560  176.3630  146.1730 S   0  0  0  0  0  0  0  0  0  0  0  0
  191.8190  175.6170  145.3770 C   0  0  0  0  0  0  0  0  0  0  0  0
  193.3310  175.7020  143.7920 C   0  0  0  0  0  0  0  0  0  0  0  0
  195.6250  176.3580  143.1870 N   0  0  0  0  0  0  0  0  0  0  0  0
  194.0610  176.2590  144.7740 C   0  0  0  0  0  0  0  0  0  0  0  0
  194.2910  175.6520  142.4400 S   0  0  0  0  0  0  0  0  0  0  0  0
  189.5480  177.5440  145.2790 C   0  0  0  0  0  2  0  0  0  0  0  0
  188.5190  177.6570  144.1660 C   0  0  0  0  0  2  0  0  0  0  0  0
  188.4710  177.7670  141.6130 N   0  0  0  0  0  2  0  0  0  0  0  0
  186.4280  176.9340  142.4110 O   0  0  0  0  0  0  0  0  0  0  0  0
  189.2040  177.7780  142.8440 C   0  0  0  0  0  0  0  0  0  0  0  0
  187.0880  177.4300  141.4600 C   0  0  0  0  0  0  0  0  0  0  0  0
  190.4530  177.9310  142.8130 O   0  0  0  0  0  0  0  0  0  0  0  0
  186.4330  177.6150  140.1380 C   0  0  0  0  0  2  0  0  0  0  0  0
  185.0890  178.1300  140.3250 N   0  0  0  0  0  1  0  0  0  0  0  0
  188.2150  175.7410  146.5300 C   0  0  0  0  0  2  0  0  0  0  0  0
  186.1620  177.1920  146.8570 C   0  0  0  0  0  0  0  0  0  0  0  0
  185.4990  176.5140  146.0290 O   0  0  0  0  0  0  0  0  0  0  0  0
  187.5300  176.8800  147.1260 N   0  0  0  0  0  2  0  0  0  0  0  0
  185.5270  178.3560  147.5300 C   0  0  0  0  0  2  0  0  0  0  0  0
  184.4300  178.7870  146.7840 O   0  0  0  0  0  1  0  0  0  0  0  0
  2  1  2  0  0  0  0
  2 20  1  0  0  0  0
  3  6  2  0  0  0  0
  4  9  1  0  0  0  0
  6  1  1  0  0  0  0
  6  5  1  0  0  0  0
  7  3  1  0  0  0  0
  7  9  2  0  0  0  0
  8  4  2  0  0  0  0
  9  5  1  0  0  0  0
 10  8  1  0  0  0  0
 10  7  1  0  0  0  0
 11  2  1  0  0  0  0
 12 11  1  0  0  0  0
 13 15  1  0  0  0  0
 15 12  1  0  0  0  0
 16 13  1  0  0  0  0
 16 14  2  0  0  0  0
 17 15  2  0  0  0  0
 18 19  1  0  0  0  0
 18 16  1  0  0  0  0
 20 23  1  0  0  0  0
 21 23  1  0  0  0  0
 21 24  1  0  0  0  0
 22 21  2  0  0  0  0
 25 24  1  0  0  0  0
M  END
>  <MODEL>
5

>  <REMARK>
 VINA RESULT:      -5.8      1.738      2.119
  Name = 
  8 active torsions:
  status: ('A' for Active; 'I' for Inactive)
    1  A    between atoms: C_3  and  C_7
    2  A    between atoms: C_6  and  C_20
    3  A    between atoms: C_8  and  C_19
    4  A    between atoms: C_12  and  C_17
    5  A    between atoms: C_12  and  C_20
    6  A    between atoms: C_13  and  N_14
    7  A    between atoms: C_17  and  C_23
    8  A    between atoms: C_23  and  N_25
                            x       y       z     vdW  Elec       q    Type
                         _______ _______ _______ _____ _____    ______ ____

>  <TORSDO>
F 8

$$$$
=
 OpenBabel11042413503D

 25 26  0  0  0  0  0  0  0  0999 V2000
  189.1130  178.0240  142.1030 N   0  0  0  0  0  0  0  0  0  0  0  0
  189.7230  177.3380  143.0270 C   0  0  0  0  0  0  0  0  0  0  0  0
  186.7740  178.3990  142.6890 N   0  0  0  0  0  0  0  0  0  0  0  0
  184.2860  177.8510  140.2360 N   0  0  0  0  0  0  0  0  0  0  0  0
  187.0530  177.5860  140.2480 S   0  0  0  0  0  0  0  0  0  0  0  0
  187.7140  177.9950  141.7890 C   0  0  0  0  0  0  0  0  0  0  0  0
  185.5670  178.3170  142.0920 C   0  0  0  0  0  0  0  0  0  0  0  0
  183.3230  178.2230  141.0860 N   0  0  0  0  0  0  0  0  0  0  0  0
  185.5140  177.9090  140.8120 C   0  0  0  0  0  0  0  0  0  0  0  0
  184.0100  178.6320  142.5680 S   0  0  0  0  0  0  0  0  0  0  0  0
  188.9910  176.4980  144.0270 C   0  0  0  0  0  2  0  0  0  0  0  0
  189.0700  177.1430  145.4010 C   0  0  0  0  0  2  0  0  0  0  0  0
  187.0030  176.4210  146.7210 N   0  0  0  0  0  2  0  0  0  0  0  0
  186.6310  178.5240  145.7490 O   0  0  0  0  0  0  0  0  0  0  0  0
  188.3960  176.2760  146.4140 C   0  0  0  0  0  0  0  0  0  0  0  0
  186.1560  177.4960  146.3010 C   0  0  0  0  0  0  0  0  0  0  0  0
  189.0590  175.3730  146.9860 O   0  0  0  0  0  0  0  0  0  0  0  0
  184.6960  177.4240  146.5720 C   0  0  0  0  0  2  0  0  0  0  0  0
  184.0630  178.6700  146.1800 N   0  0  0  0  0  1  0  0  0  0  0  0
  191.2030  177.4720  143.1630 C   0  0  0  0  0  2  0  0  0  0  0  0
  192.8480  175.9430  144.3390 C   0  0  0  0  0  0  0  0  0  0  0  0
  193.3230  176.9000  145.0070 O   0  0  0  0  0  0  0  0  0  0  0  0
  191.8130  176.1670  143.3800 N   0  0  0  0  0  2  0  0  0  0  0  0
  193.3980  174.5740  144.5210 C   0  0  0  0  0  2  0  0  0  0  0  0
  193.0490  174.0930  145.7830 O   0  0  0  0  0  1  0  0  0  0  0  0
  1  2  2  0  0  0  0
  2 20  1  0  0  0  0
  2 11  1  0  0  0  0
  4  9  1  0  0  0  0
  4  8  2  0  0  0  0
  5  9  1  0  0  0  0
  5  6  1  0  0  0  0
  6  1  1  0  0  0  0
  6  3  2  0  0  0  0
  7 10  1  0  0  0  0
  7  3  1  0  0  0  0
  8 10  1  0  0  0  0
  9  7  2  0  0  0  0
 11 12  1  0  0  0  0
 12 15  1  0  0  0  0
 14 16  2  0  0  0  0
 15 13  1  0  0  0  0
 15 17  2  0  0  0  0
 16 18  1  0  0  0  0
 16 13  1  0  0  0  0
 19 18  1  0  0  0  0
 20 23  1  0  0  0  0
 21 24  1  0  0  0  0
 21 22  2  0  0  0  0
 23 21  1  0  0  0  0
 24 25  1  0  0  0  0
M  END
>  <MODEL>
6

>  <REMARK>
 VINA RESULT:      -5.6      3.262      7.287
  Name = 
  8 active torsions:
  status: ('A' for Active; 'I' for Inactive)
    1  A    between atoms: C_3  and  C_7
    2  A    between atoms: C_6  and  C_20
    3  A    between atoms: C_8  and  C_19
    4  A    between atoms: C_12  and  C_17
    5  A    between atoms: C_12  and  C_20
    6  A    between atoms: C_13  and  N_14
    7  A    between atoms: C_17  and  C_23
    8  A    between atoms: C_23  and  N_25
                            x       y       z     vdW  Elec       q    Type
                         _______ _______ _______ _____ _____    ______ ____

>  <TORSDO>
F 8

$$$$
=
 OpenBabel11042413503D

 25 26  0  0  0  0  0  0  0  0999 V2000
  187.9060  175.9840  143.3360 N   0  0  0  0  0  0  0  0  0  0  0  0
  188.2610  177.2330  143.2360 C   0  0  0  0  0  0  0  0  0  0  0  0
  189.3070  173.9970  143.5550 N   0  0  0  0  0  0  0  0  0  0  0  0
  189.8950  171.9930  140.7020 N   0  0  0  0  0  0  0  0  0  0  0  0
  188.4700  174.3400  141.1310 S   0  0  0  0  0  0  0  0  0  0  0  0
  188.5810  174.8480  142.7760 C   0  0  0  0  0  0  0  0  0  0  0  0
  189.7650  173.0030  142.7670 C   0  0  0  0  0  0  0  0  0  0  0  0
  190.6310  171.1360  141.4180 N   0  0  0  0  0  0  0  0  0  0  0  0
  189.4300  173.0150  141.4650 C   0  0  0  0  0  0  0  0  0  0  0  0
  190.6970  171.6550  143.0190 S   0  0  0  0  0  0  0  0  0  0  0  0
  189.5580  177.6590  142.6220 C   0  0  0  0  0  2  0  0  0  0  0  0
  190.5320  178.0800  143.7090 C   0  0  0  0  0  2  0  0  0  0  0  0
  191.3850  176.1740  145.1820 N   0  0  0  0  0  2  0  0  0  0  0  0
  189.9290  177.5400  146.4150 O   0  0  0  0  0  0  0  0  0  0  0  0
  191.4920  176.9720  143.9970 C   0  0  0  0  0  0  0  0  0  0  0  0
  190.5410  176.4440  146.3070 C   0  0  0  0  0  0  0  0  0  0  0  0
  192.3940  176.7100  143.1600 O   0  0  0  0  0  0  0  0  0  0  0  0
  190.4280  175.4370  147.3950 C   0  0  0  0  0  2  0  0  0  0  0  0
  189.1600  174.7400  147.2880 N   0  0  0  0  0  1  0  0  0  0  0  0
  187.3910  178.2780  143.8500 C   0  0  0  0  0  2  0  0  0  0  0  0
  185.3850  177.6740  145.2780 C   0  0  0  0  0  0  0  0  0  0  0  0
  184.5820  178.0670  144.3900 O   0  0  0  0  0  0  0  0  0  0  0  0
  186.7970  177.7830  145.0840 N   0  0  0  0  0  2  0  0  0  0  0  0
  184.8580  177.1310  146.5570 C   0  0  0  0  0  2  0  0  0  0  0  0
  185.9020  176.9870  147.4710 O   0  0  0  0  0  1  0  0  0  0  0  0
  2  1  2  0  0  0  0
  2 20  1  0  0  0  0
  4  8  2  0  0  0  0
  4  9  1  0  0  0  0
  5  9  1  0  0  0  0
  5  6  1  0  0  0  0
  6  1  1  0  0  0  0
  6  3  2  0  0  0  0
  7 10  1  0  0  0  0
  7  3  1  0  0  0  0
  8 10  1  0  0  0  0
  9  7  2  0  0  0  0
 11  2  1  0  0  0  0
 11 12  1  0  0  0  0
 12 15  1  0  0  0  0
 13 16  1  0  0  0  0
 15 13  1  0  0  0  0
 16 14  2  0  0  0  0
 16 18  1  0  0  0  0
 17 15  2  0  0  0  0
 19 18  1  0  0  0  0
 20 23  1  0  0  0  0
 21 24  1  0  0  0  0
 22 21  2  0  0  0  0
 23 21  1  0  0  0  0
 24 25  1  0  0  0  0
M  END
>  <MODEL>
7

>  <REMARK>
 VINA RESULT:      -5.6      3.109      5.011
  Name = 
  8 active torsions:
  status: ('A' for Active; 'I' for Inactive)
    1  A    between atoms: C_3  and  C_7
    2  A    between atoms: C_6  and  C_20
    3  A    between atoms: C_8  and  C_19
    4  A    between atoms: C_12  and  C_17
    5  A    between atoms: C_12  and  C_20
    6  A    between atoms: C_13  and  N_14
    7  A    between atoms: C_17  and  C_23
    8  A    between atoms: C_23  and  N_25
                            x       y       z     vdW  Elec       q    Type
                         _______ _______ _______ _____ _____    ______ ____

>  <TORSDO>
F 8

$$$$
=
 OpenBabel11042413503D

 25 26  0  0  0  0  0  0  0  0999 V2000
  187.0520  175.5510  142.3460 N   0  0  0  0  0  0  0  0  0  0  0  0
  186.9870  176.8490  142.4200 C   0  0  0  0  0  0  0  0  0  0  0  0
  188.7930  174.2810  143.4920 N   0  0  0  0  0  0  0  0  0  0  0  0
  191.1930  172.5420  141.5630 N   0  0  0  0  0  0  0  0  0  0  0  0
  189.0300  174.1620  140.9180 S   0  0  0  0  0  0  0  0  0  0  0  0
  188.2390  174.7450  142.3360 C   0  0  0  0  0  0  0  0  0  0  0  0
  189.8510  173.5110  143.1630 C   0  0  0  0  0  0  0  0  0  0  0  0
  191.7850  172.0720  142.6670 N   0  0  0  0  0  0  0  0  0  0  0  0
  190.1310  173.3330  141.8610 C   0  0  0  0  0  0  0  0  0  0  0  0
  190.9730  172.6470  144.0260 S   0  0  0  0  0  0  0  0  0  0  0  0
  188.1900  177.7060  142.6640 C   0  0  0  0  0  2  0  0  0  0  0  0
  188.3130  178.0170  144.1470 C   0  0  0  0  0  2  0  0  0  0  0  0
  189.9370  176.7000  145.6160 N   0  0  0  0  0  2  0  0  0  0  0  0
  187.7490  176.4410  146.4220 O   0  0  0  0  0  0  0  0  0  0  0  0
  189.6930  177.7050  144.6240 C   0  0  0  0  0  0  0  0  0  0  0  0
  188.9440  176.0450  146.4130 C   0  0  0  0  0  0  0  0  0  0  0  0
  190.6690  178.3150  144.1170 O   0  0  0  0  0  0  0  0  0  0  0  0
  189.3420  174.9120  147.2910 C   0  0  0  0  0  2  0  0  0  0  0  0
  190.7490  175.0240  147.6280 N   0  0  0  0  0  1  0  0  0  0  0  0
  185.6490  177.5060  142.3630 C   0  0  0  0  0  2  0  0  0  0  0  0
  184.7920  178.7340  144.4090 C   0  0  0  0  0  0  0  0  0  0  0  0
  185.1610  179.8470  143.9470 O   0  0  0  0  0  0  0  0  0  0  0  0
  185.0370  177.5270  143.6850 N   0  0  0  0  0  2  0  0  0  0  0  0
  184.1360  178.6730  145.7410 C   0  0  0  0  0  2  0  0  0  0  0  0
  184.4670  177.4740  146.3720 O   0  0  0  0  0  1  0  0  0  0  0  0
  1  2  2  0  0  0  0
  2 11  1  0  0  0  0
  4  9  1  0  0  0  0
  4  8  2  0  0  0  0
  5  9  1  0  0  0  0
  5  6  1  0  0  0  0
  6  1  1  0  0  0  0
  6  3  2  0  0  0  0
  7  3  1  0  0  0  0
  7 10  1  0  0  0  0
  8 10  1  0  0  0  0
  9  7  2  0  0  0  0
 11 12  1  0  0  0  0
 12 15  1  0  0  0  0
 13 16  1  0  0  0  0
 15 13  1  0  0  0  0
 16 14  2  0  0  0  0
 16 18  1  0  0  0  0
 17 15  2  0  0  0  0
 18 19  1  0  0  0  0
 20  2  1  0  0  0  0
 20 23  1  0  0  0  0
 21 24  1  0  0  0  0
 22 21  2  0  0  0  0
 23 21  1  0  0  0  0
 24 25  1  0  0  0  0
M  END
>  <MODEL>
8

>  <REMARK>
 VINA RESULT:      -5.6      2.633      4.690
  Name = 
  8 active torsions:
  status: ('A' for Active; 'I' for Inactive)
    1  A    between atoms: C_3  and  C_7
    2  A    between atoms: C_6  and  C_20
    3  A    between atoms: C_8  and  C_19
    4  A    between atoms: C_12  and  C_17
    5  A    between atoms: C_12  and  C_20
    6  A    between atoms: C_13  and  N_14
    7  A    between atoms: C_17  and  C_23
    8  A    between atoms: C_23  and  N_25
                            x       y       z     vdW  Elec       q    Type
                         _______ _______ _______ _____ _____    ______ ____

>  <TORSDO>
F 8

$$$$
=
 OpenBabel11042413503D

 25 26  0  0  0  0  0  0  0  0999 V2000
  187.8440  175.5810  143.1370 N   0  0  0  0  0  0  0  0  0  0  0  0
  188.9690  175.9780  142.6170 C   0  0  0  0  0  0  0  0  0  0  0  0
  186.8460  176.6410  145.0960 N   0  0  0  0  0  0  0  0  0  0  0  0
  184.0660  178.7810  144.6540 N   0  0  0  0  0  0  0  0  0  0  0  0
  185.6130  177.2690  142.9100 S   0  0  0  0  0  0  0  0  0  0  0  0
  186.8410  176.4000  143.7550 C   0  0  0  0  0  0  0  0  0  0  0  0
  185.8300  177.4850  145.3690 C   0  0  0  0  0  0  0  0  0  0  0  0
  184.0160  179.0380  145.9660 N   0  0  0  0  0  0  0  0  0  0  0  0
  185.0710  177.9220  144.3490 C   0  0  0  0  0  0  0  0  0  0  0  0
  185.2410  178.1890  146.7510 S   0  0  0  0  0  0  0  0  0  0  0  0
  189.3180  177.4250  142.4550 C   0  0  0  0  0  2  0  0  0  0  0  0
  190.7510  177.6650  142.9000 C   0  0  0  0  0  2  0  0  0  0  0  0
  192.0250  177.0420  145.0270 N   0  0  0  0  0  2  0  0  0  0  0  0
  193.0460  176.0400  143.1670 O   0  0  0  0  0  0  0  0  0  0  0  0
  190.8510  177.5580  144.3870 C   0  0  0  0  0  0  0  0  0  0  0  0
  193.1170  176.3820  144.3770 C   0  0  0  0  0  0  0  0  0  0  0  0
  189.8950  177.9660  145.0960 O   0  0  0  0  0  0  0  0  0  0  0  0
  194.3350  176.0410  145.1600 C   0  0  0  0  0  2  0  0  0  0  0  0
  194.2030  176.5440  146.5140 N   0  0  0  0  0  1  0  0  0  0  0  0
  189.9070  174.9570  142.0660 C   0  0  0  0  0  2  0  0  0  0  0  0
  188.8180  173.1190  140.7010 C   0  0  0  0  0  0  0  0  0  0  0  0
  188.7860  172.3440  141.6930 O   0  0  0  0  0  0  0  0  0  0  0  0
  189.3950  174.4220  140.8120 N   0  0  0  0  0  2  0  0  0  0  0  0
  188.2910  172.6570  139.3900 C   0  0  0  0  0  2  0  0  0  0  0  0
  188.1590  173.7450  138.5280 O   0  0  0  0  0  1  0  0  0  0  0  0
  1  6  1  0  0  0  0
  2  1  2  0  0  0  0
  3  7  1  0  0  0  0
  4  8  2  0  0  0  0
  5  6  1  0  0  0  0
  5  9  1  0  0  0  0
  6  3  2  0  0  0  0
  7 10  1  0  0  0  0
  8 10  1  0  0  0  0
  9  4  1  0  0  0  0
  9  7  2  0  0  0  0
 11  2  1  0  0  0  0
 11 12  1  0  0  0  0
 12 15  1  0  0  0  0
 14 16  2  0  0  0  0
 15 13  1  0  0  0  0
 15 17  2  0  0  0  0
 16 13  1  0  0  0  0
 16 18  1  0  0  0  0
 18 19  1  0  0  0  0
 20  2  1  0  0  0  0
 21 23  1  0  0  0  0
 21 22  2  0  0  0  0
 23 20  1  0  0  0  0
 24 21  1  0  0  0  0
 25 24  1  0  0  0  0
M  END
>  <MODEL>
9

>  <REMARK>
 VINA RESULT:      -5.6      3.586      7.470
  Name = 
  8 active torsions:
  status: ('A' for Active; 'I' for Inactive)
    1  A    between atoms: C_3  and  C_7
    2  A    between atoms: C_6  and  C_20
    3  A    between atoms: C_8  and  C_19
    4  A    between atoms: C_12  and  C_17
    5  A    between atoms: C_12  and  C_20
    6  A    between atoms: C_13  and  N_14
    7  A    between atoms: C_17  and  C_23
    8  A    between atoms: C_23  and  N_25
                            x       y       z     vdW  Elec       q    Type
                         _______ _______ _______ _____ _____    ______ ____

>  <TORSDO>
F 8

$$$$
