=
 OpenBabel11042415143D

 45 50  0  0  1  0  0  0  0  0999 V2000
  190.6260  177.1050  144.8470 C   0  0  0  0  0  2  0  0  0  0  0  0
  193.9650  176.3140  144.3700 C   0  0  1  0  0  3  0  0  0  0  0  0
  193.8570  172.8130  143.6600 C   0  0  0  0  0  3  0  0  0  0  0  0
  191.8510  174.8970  144.7080 C   0  0  0  0  0  0  0  0  0  0  0  0
  192.9070  172.0250  144.1680 C   0  0  0  0  0  0  0  0  0  0  0  0
  193.0670  175.1050  144.1300 C   0  0  0  0  0  0  0  0  0  0  0  0
  191.0380  173.6840  144.4570 C   0  0  0  0  0  3  0  0  0  0  0  0
  193.4140  176.6470  146.5530 C   0  0  0  0  0  2  0  0  0  0  0  0
  191.9610  176.3080  146.8550 C   0  0  1  0  0  3  0  0  0  0  0  0
  191.1690  175.9000  145.6070 C   0  0  1  0  0  3  0  0  0  0  0  0
  191.4880  172.4430  144.2340 C   0  0  0  0  0  3  0  0  0  0  0  0
  193.5700  174.1570  143.0840 C   0  0  0  0  0  2  0  0  0  0  0  0
  191.9020  175.2090  147.8990 C   0  0  0  0  0  1  0  0  0  0  0  0
  193.5020  177.2700  145.3000 O   0  0  0  0  0  0  0  0  0  0  0  0
  193.2660  170.6640  144.6040 C   0  0  0  0  0  0  0  0  0  0  0  0
  194.2660  170.4670  145.5490 O   0  0  0  0  0  1  0  0  0  0  0  0
  192.6730  169.6620  144.1230 O   0  0  0  0  0  0  0  0  0  0  0  0
  195.2780  175.9220  144.6630 O   0  0  0  0  0  0  0  0  0  0  0  0
  196.0860  176.7980  143.9370 C   0  0  0  0  0  2  0  0  0  0  0  0
  196.1930  176.5200  141.5120 C   0  0  0  0  0  3  0  0  0  0  0  0
  196.5880  176.1100  142.7140 C   0  0  0  0  0  3  0  0  0  0  0  0
  195.5680  175.0640  139.6400 C   0  0  0  0  0  1  0  0  0  0  0  0
  196.6970  175.8380  140.2890 C   0  0  0  0  0  2  0  0  0  0  0  0
  187.3070  177.5240  146.1740 C   0  0  0  0  0  0  0  0  0  0  0  0
  185.5870  179.0260  146.7130 C   0  0  0  0  0  3  0  0  0  0  0  0
  186.1890  178.7060  144.3840 N   0  0  0  0  0  0  0  0  0  0  0  0
  188.2480  177.3760  144.1080 C   0  0  0  0  0  0  0  0  0  0  0  0
  188.5790  177.4050  146.3610 N   0  0  0  0  0  0  0  0  0  0  0  0
  189.1550  177.2480  145.0690 C   0  0  0  0  0  0  0  0  0  0  0  0
  186.9030  177.4740  144.7380 C   0  0  1  0  0  3  0  0  0  0  0  0
  185.5260  179.3930  145.2750 C   0  0  0  0  0  3  0  0  0  0  0  0
  186.4560  178.1520  147.1320 N   0  0  0  0  0  0  0  0  0  0  0  0
  188.5130  177.2810  142.6400 C   0  0  0  0  0  2  0  0  0  0  0  0
  187.5210  175.0190  142.3700 C   0  0  0  0  0  3  0  0  0  0  0  0
  189.5440  175.3280  141.5870 N   0  0  0  0  0  0  0  0  0  0  0  0
  189.1740  174.0630  141.3250 C   0  0  0  0  0  0  0  0  0  0  0  0
  187.8990  173.8130  141.8000 C   0  0  0  0  0  3  0  0  0  0  0  0
  188.5350  175.8880  142.2260 N   0  0  0  0  0  0  0  0  0  0  0  0
  190.0300  173.0680  140.6150 C   0  0  0  0  0  3  0  0  0  0  0  0
  189.9960  171.7240  141.3430 C   0  0  0  0  0  2  0  0  0  0  0  0
  190.9670  170.7530  140.6770 C   0  0  0  0  0  2  0  0  0  0  0  0
  193.1770  170.3310  140.0450 C   0  0  0  0  0  1  0  0  0  0  0  0
  192.3210  171.3030  140.7010 N   0  0  0  0  0  0  0  0  0  0  0  0
  191.4650  173.5860  140.5030 C   0  0  0  0  0  2  0  0  0  0  0  0
  192.3470  172.5100  139.8760 C   0  0  0  0  0  2  0  0  0  0  0  0
  1 29  1  0  0  0  0
  2 18  1  1  0  0  0
  2 14  1  0  0  0  0
  3  5  2  0  0  0  0
  4 10  1  0  0  0  0
  5 11  1  0  0  0  0
  5 15  1  0  0  0  0
  6  2  1  0  0  0  0
  6  4  2  0  0  0  0
  7  4  1  0  0  0  0
  8  9  1  0  0  0  0
  9 13  1  1  0  0  0
 10  1  1  6  0  0  0
 10  9  1  0  0  0  0
 11  7  2  0  0  0  0
 12  3  1  0  0  0  0
 12  6  1  0  0  0  0
 14  8  1  0  0  0  0
 15 16  1  0  0  0  0
 17 15  2  0  0  0  0
 19 18  1  0  0  0  0
 20 21  2  0  0  0  0
 21 19  1  0  0  0  0
 22 23  1  0  0  0  0
 23 20  1  0  0  0  0
 24 28  2  0  0  0  0
 24 32  1  0  0  0  0
 25 32  2  0  0  0  0
 26 30  1  0  0  0  0
 26 31  2  0  0  0  0
 27 29  2  0  0  0  0
 29 28  1  0  0  0  0
 30 27  1  6  0  0  0
 30 24  1  0  0  0  0
 31 25  1  0  0  0  0
 33 27  1  0  0  0  0
 35 38  1  0  0  0  0
 36 35  2  0  0  0  0
 36 37  1  0  0  0  0
 37 34  2  0  0  0  0
 38 34  1  0  0  0  0
 38 33  1  0  0  0  0
 39 36  1  0  0  0  0
 39 40  1  0  0  0  0
 41 43  1  0  0  0  0
 41 40  1  0  0  0  0
 42 43  1  0  0  0  0
 44 39  1  0  0  0  0
 45 44  1  0  0  0  0
 45 43  1  0  0  0  0
M  END
>  <MODEL>
1

>  <REMARK>
 VINA RESULT:      -7.4      0.000      0.000
  Name = 
  10 active torsions:
  status: ('A' for Active; 'I' for Inactive)
    1  A    between atoms: C_3  and  O_25
    2  A    between atoms: C_4  and  C_34
    3  A    between atoms: C_7  and  O_25
    4  A    between atoms: C_7  and  C_40
    5  A    between atoms: C_8  and  C_16
    6  A    between atoms: C_11  and  C_18
    7  A    between atoms: C_12  and  C_30
    8  A    between atoms: C_12  and  C_32
    9  A    between atoms: C_21  and  C_22
   10  A    between atoms: C_22  and  N_39
                            x       y       z     vdW  Elec       q    Type
                         _______ _______ _______ _____ _____    ______ ____

>  <TORSDO>
F 10

$$$$
=
 OpenBabel11042415143D

 45 50  0  0  1  0  0  0  0  0999 V2000
  190.7130  174.3780  144.9730 C   0  0  0  0  0  2  0  0  0  0  0  0
  188.2760  176.6830  145.8380 C   0  0  1  0  0  3  0  0  0  0  0  0
  186.3080  176.9110  142.8620 C   0  0  0  0  0  3  0  0  0  0  0  0
  189.0230  175.6660  143.6020 C   0  0  0  0  0  0  0  0  0  0  0  0
  186.8420  176.7160  141.6540 C   0  0  0  0  0  0  0  0  0  0  0  0
  188.0500  176.1360  144.4320 C   0  0  0  0  0  0  0  0  0  0  0  0
  188.7430  175.1750  142.2330 C   0  0  0  0  0  3  0  0  0  0  0  0
  190.3150  177.6180  145.4530 C   0  0  0  0  0  2  0  0  0  0  0  0
  191.1520  176.8260  144.4600 C   0  0  1  0  0  3  0  0  0  0  0  0
  190.4730  175.5290  144.0040 C   0  0  1  0  0  3  0  0  0  0  0  0
  187.8120  175.6300  141.3870 C   0  0  0  0  0  3  0  0  0  0  0  0
  186.6110  176.0350  144.0300 C   0  0  0  0  0  2  0  0  0  0  0  0
  191.4810  177.6970  143.2630 C   0  0  0  0  0  1  0  0  0  0  0  0
  189.6130  176.7370  146.2880 O   0  0  0  0  0  0  0  0  0  0  0  0
  186.3920  177.5590  140.5320 C   0  0  0  0  0  0  0  0  0  0  0  0
  185.3960  178.5100  140.7200 O   0  0  0  0  0  1  0  0  0  0  0  0
  186.9030  177.4240  139.3880 O   0  0  0  0  0  0  0  0  0  0  0  0
  187.6370  177.9190  146.0110 O   0  0  0  0  0  0  0  0  0  0  0  0
  186.8400  177.7560  147.1440 C   0  0  0  0  0  2  0  0  0  0  0  0
  185.1100  178.7960  145.7670 C   0  0  0  0  0  3  0  0  0  0  0  0
  185.4140  177.9960  146.7860 C   0  0  0  0  0  3  0  0  0  0  0  0
  183.5420  179.0230  143.8960 C   0  0  0  0  0  1  0  0  0  0  0  0
  183.6860  179.0330  145.4040 C   0  0  0  0  0  2  0  0  0  0  0  0
  194.1380  173.3820  144.4940 C   0  0  0  0  0  0  0  0  0  0  0  0
  196.0080  172.2920  145.4000 C   0  0  0  0  0  3  0  0  0  0  0  0
  194.0300  170.9930  144.8620 N   0  0  0  0  0  0  0  0  0  0  0  0
  192.0940  172.4070  144.2790 C   0  0  0  0  0  0  0  0  0  0  0  0
  193.2710  174.2710  144.8490 N   0  0  0  0  0  0  0  0  0  0  0  0
  191.9930  173.6770  144.6510 C   0  0  0  0  0  0  0  0  0  0  0  0
  193.5300  172.0980  144.0360 C   0  0  1  0  0  3  0  0  0  0  0  0
  195.1980  171.0480  145.4430 C   0  0  0  0  0  3  0  0  0  0  0  0
  195.4840  173.4030  144.9680 N   0  0  0  0  0  0  0  0  0  0  0  0
  190.9500  171.4860  144.0000 C   0  0  0  0  0  2  0  0  0  0  0  0
  191.3630  170.0030  142.0480 C   0  0  0  0  0  3  0  0  0  0  0  0
  190.3630  171.9160  141.6630 N   0  0  0  0  0  0  0  0  0  0  0  0
  190.4710  171.2490  140.5010 C   0  0  0  0  0  0  0  0  0  0  0  0
  191.0980  170.0300  140.6880 C   0  0  0  0  0  3  0  0  0  0  0  0
  190.9130  171.1500  142.5860 N   0  0  0  0  0  0  0  0  0  0  0  0
  189.9790  171.7640  139.1900 C   0  0  0  0  0  3  0  0  0  0  0  0
  191.1050  172.4810  138.4450 C   0  0  0  0  0  2  0  0  0  0  0  0
  190.5580  173.1040  137.1630 C   0  0  0  0  0  2  0  0  0  0  0  0
  189.0160  174.5840  136.2180 C   0  0  0  0  0  1  0  0  0  0  0  0
  189.4850  174.0460  137.4820 N   0  0  0  0  0  0  0  0  0  0  0  0
  188.7870  172.6980  139.4000 C   0  0  0  0  0  2  0  0  0  0  0  0
  188.3690  173.3000  138.0610 C   0  0  0  0  0  2  0  0  0  0  0  0
  2 18  1  6  0  0  0
  2 14  1  0  0  0  0
  3 12  1  0  0  0  0
  4 10  1  0  0  0  0
  4  6  2  0  0  0  0
  5  3  2  0  0  0  0
  6  2  1  0  0  0  0
  7  4  1  0  0  0  0
  8 14  1  0  0  0  0
  9 13  1  6  0  0  0
  9  8  1  0  0  0  0
 10  9  1  0  0  0  0
 10  1  1  1  0  0  0
 11  5  1  0  0  0  0
 11  7  2  0  0  0  0
 12  6  1  0  0  0  0
 15 16  1  0  0  0  0
 15  5  1  0  0  0  0
 17 15  2  0  0  0  0
 18 19  1  0  0  0  0
 20 21  2  0  0  0  0
 21 19  1  0  0  0  0
 22 23  1  0  0  0  0
 23 20  1  0  0  0  0
 24 28  2  0  0  0  0
 24 32  1  0  0  0  0
 25 31  1  0  0  0  0
 26 31  2  0  0  0  0
 27 29  2  0  0  0  0
 29 28  1  0  0  0  0
 29  1  1  0  0  0  0
 30 27  1  1  0  0  0
 30 24  1  0  0  0  0
 30 26  1  0  0  0  0
 32 25  2  0  0  0  0
 33 27  1  0  0  0  0
 34 38  1  0  0  0  0
 35 38  1  0  0  0  0
 36 37  1  0  0  0  0
 36 35  2  0  0  0  0
 37 34  2  0  0  0  0
 38 33  1  0  0  0  0
 39 44  1  0  0  0  0
 39 36  1  0  0  0  0
 40 39  1  0  0  0  0
 41 43  1  0  0  0  0
 41 40  1  0  0  0  0
 42 43  1  0  0  0  0
 43 45  1  0  0  0  0
 45 44  1  0  0  0  0
M  END
>  <MODEL>
2

>  <REMARK>
 VINA RESULT:      -6.9      3.612      7.730
  Name = 
  10 active torsions:
  status: ('A' for Active; 'I' for Inactive)
    1  A    between atoms: C_3  and  O_25
    2  A    between atoms: C_4  and  C_34
    3  A    between atoms: C_7  and  O_25
    4  A    between atoms: C_7  and  C_40
    5  A    between atoms: C_8  and  C_16
    6  A    between atoms: C_11  and  C_18
    7  A    between atoms: C_12  and  C_30
    8  A    between atoms: C_12  and  C_32
    9  A    between atoms: C_21  and  C_22
   10  A    between atoms: C_22  and  N_39
                            x       y       z     vdW  Elec       q    Type
                         _______ _______ _______ _____ _____    ______ ____

>  <TORSDO>
F 10

$$$$
=
 OpenBabel11042415143D

 45 50  0  0  1  0  0  0  0  0999 V2000
  192.1000  175.6920  142.9560 C   0  0  0  0  0  2  0  0  0  0  0  0
  188.7960  176.2740  142.0940 C   0  0  1  0  0  3  0  0  0  0  0  0
  187.4940  177.9020  144.9970 C   0  0  0  0  0  3  0  0  0  0  0  0
  190.0820  176.3860  144.3130 C   0  0  0  0  0  0  0  0  0  0  0  0
  187.9760  177.6500  146.2160 C   0  0  0  0  0  0  0  0  0  0  0  0
  189.1230  176.8550  143.4660 C   0  0  0  0  0  0  0  0  0  0  0  0
  190.3320  176.9760  145.6490 C   0  0  0  0  0  3  0  0  0  0  0  0
  189.2340  174.0980  142.5960 C   0  0  0  0  0  2  0  0  0  0  0  0
  190.3760  173.9370  143.5870 C   0  0  1  0  0  3  0  0  0  0  0  0
  191.0360  175.2690  143.9630 C   0  0  1  0  0  3  0  0  0  0  0  0
  189.4270  177.5130  146.4760 C   0  0  0  0  0  3  0  0  0  0  0  0
  188.3680  178.1020  143.8070 C   0  0  0  0  0  2  0  0  0  0  0  0
  189.8750  173.2290  144.8310 C   0  0  0  0  0  1  0  0  0  0  0  0
  189.5290  175.1340  141.6990 O   0  0  0  0  0  0  0  0  0  0  0  0
  187.0420  177.5870  147.3540 C   0  0  0  0  0  0  0  0  0  0  0  0
  186.9080  178.6670  148.2180 O   0  0  0  0  0  1  0  0  0  0  0  0
  186.3550  176.5500  147.5580 O   0  0  0  0  0  0  0  0  0  0  0  0
  187.4190  176.0610  141.9480 O   0  0  0  0  0  0  0  0  0  0  0  0
  187.0580  176.8010  140.8210 C   0  0  0  0  0  2  0  0  0  0  0  0
  185.1760  177.4110  142.2540 C   0  0  0  0  0  3  0  0  0  0  0  0
  185.8590  177.6300  141.1340 C   0  0  0  0  0  3  0  0  0  0  0  0
  184.1840  178.9260  143.9080 C   0  0  0  0  0  1  0  0  0  0  0  0
  183.9810  178.2410  142.5720 C   0  0  0  0  0  2  0  0  0  0  0  0
  194.9510  175.3730  145.1300 C   0  0  0  0  0  0  0  0  0  0  0  0
  196.7280  174.0180  145.8460 C   0  0  0  0  0  3  0  0  0  0  0  0
  196.7260  174.8550  143.5690 N   0  0  0  0  0  0  0  0  0  0  0  0
  194.5940  175.9340  142.9550 C   0  0  0  0  0  0  0  0  0  0  0  0
  193.6790  175.2740  144.9330 N   0  0  0  0  0  0  0  0  0  0  0  0
  193.4540  175.6880  143.5900 C   0  0  0  0  0  0  0  0  0  0  0  0
  195.7100  175.8490  143.9360 C   0  0  1  0  0  3  0  0  0  0  0  0
  197.2470  174.0510  144.4550 C   0  0  0  0  0  3  0  0  0  0  0  0
  195.6200  174.6320  146.1490 N   0  0  0  0  0  0  0  0  0  0  0  0
  194.7210  176.3740  141.5320 C   0  0  0  0  0  2  0  0  0  0  0  0
  195.6890  174.4700  140.2610 C   0  0  0  0  0  3  0  0  0  0  0  0
  193.5160  174.7430  140.1640 N   0  0  0  0  0  0  0  0  0  0  0  0
  193.8430  173.6560  139.4420 C   0  0  0  0  0  0  0  0  0  0  0  0
  195.2090  173.4380  139.4700 C   0  0  0  0  0  3  0  0  0  0  0  0
  194.6460  175.2250  140.6450 N   0  0  0  0  0  0  0  0  0  0  0  0
  192.8570  172.8060  138.7130 C   0  0  0  0  0  3  0  0  0  0  0  0
  191.4330  173.1500  139.1510 C   0  0  0  0  0  2  0  0  0  0  0  0
  190.4460  172.1930  138.4870 C   0  0  0  0  0  2  0  0  0  0  0  0
  189.7930  169.9710  138.1760 C   0  0  0  0  0  1  0  0  0  0  0  0
  190.7650  170.8130  138.8500 N   0  0  0  0  0  0  0  0  0  0  0  0
  193.1550  171.3250  138.9510 C   0  0  0  0  0  2  0  0  0  0  0  0
  192.0730  170.4760  138.2900 C   0  0  0  0  0  2  0  0  0  0  0  0
  1 29  1  0  0  0  0
  2 18  1  1  0  0  0
  2  6  1  0  0  0  0
  3  5  2  0  0  0  0
  4  7  1  0  0  0  0
  5 11  1  0  0  0  0
  5 15  1  0  0  0  0
  6 12  1  0  0  0  0
  6  4  2  0  0  0  0
  7 11  2  0  0  0  0
  8  9  1  0  0  0  0
  9 10  1  0  0  0  0
  9 13  1  1  0  0  0
 10  1  1  6  0  0  0
 10  4  1  0  0  0  0
 12  3  1  0  0  0  0
 14  2  1  0  0  0  0
 14  8  1  0  0  0  0
 15 17  2  0  0  0  0
 15 16  1  0  0  0  0
 19 21  1  0  0  0  0
 19 18  1  0  0  0  0
 20 23  1  0  0  0  0
 21 20  2  0  0  0  0
 23 22  1  0  0  0  0
 24 32  1  0  0  0  0
 25 32  2  0  0  0  0
 26 30  1  0  0  0  0
 26 31  2  0  0  0  0
 27 29  2  0  0  0  0
 28 24  2  0  0  0  0
 29 28  1  0  0  0  0
 30 27  1  6  0  0  0
 30 24  1  0  0  0  0
 31 25  1  0  0  0  0
 33 27  1  0  0  0  0
 34 38  1  0  0  0  0
 35 38  1  0  0  0  0
 36 37  1  0  0  0  0
 36 35  2  0  0  0  0
 37 34  2  0  0  0  0
 38 33  1  0  0  0  0
 39 44  1  0  0  0  0
 39 40  1  0  0  0  0
 39 36  1  0  0  0  0
 41 43  1  0  0  0  0
 41 40  1  0  0  0  0
 42 43  1  0  0  0  0
 45 43  1  0  0  0  0
 45 44  1  0  0  0  0
M  END
>  <MODEL>
3

>  <REMARK>
 VINA RESULT:      -6.6      3.424      7.545
  Name = 
  10 active torsions:
  status: ('A' for Active; 'I' for Inactive)
    1  A    between atoms: C_3  and  O_25
    2  A    between atoms: C_4  and  C_34
    3  A    between atoms: C_7  and  O_25
    4  A    between atoms: C_7  and  C_40
    5  A    between atoms: C_8  and  C_16
    6  A    between atoms: C_11  and  C_18
    7  A    between atoms: C_12  and  C_30
    8  A    between atoms: C_12  and  C_32
    9  A    between atoms: C_21  and  C_22
   10  A    between atoms: C_22  and  N_39
                            x       y       z     vdW  Elec       q    Type
                         _______ _______ _______ _____ _____    ______ ____

>  <TORSDO>
F 10

$$$$
=
 OpenBabel11042415143D

 45 50  0  0  1  0  0  0  0  0999 V2000
  192.2360  174.4970  143.8940 C   0  0  0  0  0  2  0  0  0  0  0  0
  189.2340  175.5270  142.5070 C   0  0  1  0  0  3  0  0  0  0  0  0
  187.8440  177.5960  145.0690 C   0  0  0  0  0  3  0  0  0  0  0  0
  190.2010  175.6270  144.8820 C   0  0  0  0  0  0  0  0  0  0  0  0
  188.1030  177.3790  146.3600 C   0  0  0  0  0  0  0  0  0  0  0  0
  189.4640  176.1670  143.8720 C   0  0  0  0  0  0  0  0  0  0  0  0
  190.3620  176.2850  146.2000 C   0  0  0  0  0  3  0  0  0  0  0  0
  189.2140  173.3620  143.2080 C   0  0  0  0  0  2  0  0  0  0  0  0
  190.1640  173.1070  144.3690 C   0  0  1  0  0  3  0  0  0  0  0  0
  190.9860  174.3430  144.7530 C   0  0  1  0  0  3  0  0  0  0  0  0
  189.4580  177.0320  146.8450 C   0  0  0  0  0  3  0  0  0  0  0  0
  188.8960  177.5460  144.0140 C   0  0  0  0  0  2  0  0  0  0  0  0
  189.3800  172.6030  145.5660 C   0  0  0  0  0  1  0  0  0  0  0  0
  189.8060  174.2530  142.3010 O   0  0  0  0  0  0  0  0  0  0  0  0
  187.0240  177.5690  147.3460 C   0  0  0  0  0  0  0  0  0  0  0  0
  186.1520  176.5290  147.6450 O   0  0  0  0  0  0  0  0  0  0  0  0
  186.8770  178.6780  147.9260 O   0  0  0  0  0  1  0  0  0  0  0  0
  187.8730  175.5280  142.1680 O   0  0  0  0  0  0  0  0  0  0  0  0
  187.8080  176.1910  140.9420 C   0  0  0  0  0  2  0  0  0  0  0  0
  185.8390  177.1950  141.9820 C   0  0  0  0  0  3  0  0  0  0  0  0
  186.7180  177.2060  140.9840 C   0  0  0  0  0  3  0  0  0  0  0  0
  184.3530  178.4570  143.4700 C   0  0  0  0  0  1  0  0  0  0  0  0
  184.7520  178.2120  142.0290 C   0  0  0  0  0  2  0  0  0  0  0  0
  194.7180  172.5180  145.5900 C   0  0  0  0  0  0  0  0  0  0  0  0
  196.6540  171.2090  145.3870 C   0  0  0  0  0  3  0  0  0  0  0  0
  196.7780  173.5820  144.8960 N   0  0  0  0  0  0  0  0  0  0  0  0
  194.5570  174.6540  144.8230 C   0  0  0  0  0  0  0  0  0  0  0  0
  193.5570  172.6190  145.0330 N   0  0  0  0  0  0  0  0  0  0  0  0
  193.4370  173.9730  144.6140 C   0  0  0  0  0  0  0  0  0  0  0  0
  195.4990  173.7900  145.5860 C   0  0  1  0  0  3  0  0  0  0  0  0
  197.3490  172.4090  144.8540 C   0  0  0  0  0  3  0  0  0  0  0  0
  195.3950  171.2670  145.7110 N   0  0  0  0  0  0  0  0  0  0  0  0
  194.7780  176.0940  144.4880 C   0  0  0  0  0  2  0  0  0  0  0  0
  196.8000  176.7990  143.2260 C   0  0  0  0  0  3  0  0  0  0  0  0
  195.2710  175.6740  142.1290 N   0  0  0  0  0  0  0  0  0  0  0  0
  196.2900  175.9380  141.2920 C   0  0  0  0  0  0  0  0  0  0  0  0
  197.2860  176.6500  141.9360 C   0  0  0  0  0  3  0  0  0  0  0  0
  195.5950  176.2080  143.2920 N   0  0  0  0  0  0  0  0  0  0  0  0
  196.3310  175.5170  139.8610 C   0  0  0  0  0  3  0  0  0  0  0  0
  194.9220  175.1990  139.3610 C   0  0  0  0  0  2  0  0  0  0  0  0
  194.9920  174.6560  137.9360 C   0  0  0  0  0  2  0  0  0  0  0  0
  195.8470  173.0080  136.5170 C   0  0  0  0  0  1  0  0  0  0  0  0
  195.8230  173.4540  137.8980 N   0  0  0  0  0  0  0  0  0  0  0  0
  197.2530  174.3090  139.6890 C   0  0  0  0  0  2  0  0  0  0  0  0
  197.1950  173.8260  138.2430 C   0  0  0  0  0  2  0  0  0  0  0  0
  1 29  1  0  0  0  0
  2 18  1  1  0  0  0
  2  6  1  0  0  0  0
  3  5  2  0  0  0  0
  4  7  1  0  0  0  0
  5 11  1  0  0  0  0
  5 15  1  0  0  0  0
  6 12  1  0  0  0  0
  6  4  2  0  0  0  0
  7 11  2  0  0  0  0
  8  9  1  0  0  0  0
  9 10  1  0  0  0  0
  9 13  1  1  0  0  0
 10  1  1  6  0  0  0
 10  4  1  0  0  0  0
 12  3  1  0  0  0  0
 14  2  1  0  0  0  0
 14  8  1  0  0  0  0
 15 16  2  0  0  0  0
 15 17  1  0  0  0  0
 19 21  1  0  0  0  0
 19 18  1  0  0  0  0
 20 23  1  0  0  0  0
 21 20  2  0  0  0  0
 23 22  1  0  0  0  0
 24 32  1  0  0  0  0
 25 32  2  0  0  0  0
 26 30  1  0  0  0  0
 28 24  2  0  0  0  0
 29 27  2  0  0  0  0
 29 28  1  0  0  0  0
 30 27  1  6  0  0  0
 30 24  1  0  0  0  0
 31 26  2  0  0  0  0
 31 25  1  0  0  0  0
 33 27  1  0  0  0  0
 34 38  1  0  0  0  0
 35 38  1  0  0  0  0
 36 37  1  0  0  0  0
 36 35  2  0  0  0  0
 37 34  2  0  0  0  0
 38 33  1  0  0  0  0
 39 36  1  0  0  0  0
 40 39  1  0  0  0  0
 41 40  1  0  0  0  0
 42 43  1  0  0  0  0
 43 41  1  0  0  0  0
 43 45  1  0  0  0  0
 44 39  1  0  0  0  0
 45 44  1  0  0  0  0
M  END
>  <MODEL>
4

>  <REMARK>
 VINA RESULT:      -6.4      3.732      8.012
  Name = 
  10 active torsions:
  status: ('A' for Active; 'I' for Inactive)
    1  A    between atoms: C_3  and  O_25
    2  A    between atoms: C_4  and  C_34
    3  A    between atoms: C_7  and  O_25
    4  A    between atoms: C_7  and  C_40
    5  A    between atoms: C_8  and  C_16
    6  A    between atoms: C_11  and  C_18
    7  A    between atoms: C_12  and  C_30
    8  A    between atoms: C_12  and  C_32
    9  A    between atoms: C_21  and  C_22
   10  A    between atoms: C_22  and  N_39
                            x       y       z     vdW  Elec       q    Type
                         _______ _______ _______ _____ _____    ______ ____

>  <TORSDO>
F 10

$$$$
=
 OpenBabel11042415143D

 45 50  0  0  1  0  0  0  0  0999 V2000
  193.8250  174.4280  145.7680 C   0  0  0  0  0  2  0  0  0  0  0  0
  190.3760  174.7210  145.8850 C   0  0  1  0  0  3  0  0  0  0  0  0
  189.3090  172.6010  143.2120 C   0  0  0  0  0  3  0  0  0  0  0  0
  192.0030  173.7550  144.1500 C   0  0  0  0  0  0  0  0  0  0  0  0
  190.0650  172.4060  142.1300 C   0  0  0  0  0  0  0  0  0  0  0  0
  190.8130  173.7260  144.8140 C   0  0  0  0  0  0  0  0  0  0  0  0
  192.3580  172.7770  143.0960 C   0  0  0  0  0  3  0  0  0  0  0  0
  191.4130  176.5500  145.0140 C   0  0  0  0  0  2  0  0  0  0  0  0
  192.7310  176.2140  144.3320 C   0  0  1  0  0  3  0  0  0  0  0  0
  193.1110  174.7340  144.4570 C   0  0  1  0  0  3  0  0  0  0  0  0
  191.5280  172.2000  142.2170 C   0  0  0  0  0  3  0  0  0  0  0  0
  189.8610  172.5910  144.5970 C   0  0  0  0  0  2  0  0  0  0  0  0
  192.6650  176.6200  142.8720 C   0  0  0  0  0  1  0  0  0  0  0  0
  191.2710  175.7740  146.1740 O   0  0  0  0  0  0  0  0  0  0  0  0
  189.4120  172.3130  140.8110 C   0  0  0  0  0  0  0  0  0  0  0  0
  188.1780  172.9130  140.5920 O   0  0  0  0  0  1  0  0  0  0  0  0
  189.9650  171.6850  139.8690 O   0  0  0  0  0  0  0  0  0  0  0  0
  189.0880  175.2110  145.6270 O   0  0  0  0  0  0  0  0  0  0  0  0
  188.5180  175.4050  146.8860 C   0  0  0  0  0  2  0  0  0  0  0  0
  186.7960  176.8700  145.9610 C   0  0  0  0  0  3  0  0  0  0  0  0
  187.7320  176.6710  146.8840 C   0  0  0  0  0  3  0  0  0  0  0  0
  186.1090  178.7920  144.6010 C   0  0  0  0  0  1  0  0  0  0  0  0
  186.0050  178.1320  145.9610 C   0  0  0  0  0  2  0  0  0  0  0  0
  195.3180  171.1610  145.5440 C   0  0  0  0  0  0  0  0  0  0  0  0
  195.9010  169.3630  144.1540 C   0  0  0  0  0  3  0  0  0  0  0  0
  197.0230  171.4950  143.8590 N   0  0  0  0  0  0  0  0  0  0  0  0
  195.9850  173.3040  145.1750 C   0  0  0  0  0  0  0  0  0  0  0  0
  194.2910  171.9070  145.7800 N   0  0  0  0  0  0  0  0  0  0  0  0
  194.7310  173.2500  145.6100 C   0  0  0  0  0  0  0  0  0  0  0  0
  196.5470  171.9260  145.1790 C   0  0  1  0  0  3  0  0  0  0  0  0
  196.7840  170.2940  143.4060 C   0  0  0  0  0  3  0  0  0  0  0  0
  195.1900  169.7940  145.1550 N   0  0  0  0  0  0  0  0  0  0  0  0
  196.7510  174.5540  144.8810 C   0  0  0  0  0  2  0  0  0  0  0  0
  196.4960  176.3270  143.1580 C   0  0  0  0  0  3  0  0  0  0  0  0
  196.0460  174.2680  142.5560 N   0  0  0  0  0  0  0  0  0  0  0  0
  195.8770  175.0700  141.4900 C   0  0  0  0  0  0  0  0  0  0  0  0
  196.1490  176.3870  141.8170 C   0  0  0  0  0  3  0  0  0  0  0  0
  196.4130  175.0460  143.5560 N   0  0  0  0  0  0  0  0  0  0  0  0
  195.4530  174.5960  140.1410 C   0  0  0  0  0  3  0  0  0  0  0  0
  196.2780  175.2850  139.0530 C   0  0  0  0  0  2  0  0  0  0  0  0
  195.7540  174.8820  137.6770 C   0  0  0  0  0  2  0  0  0  0  0  0
  193.9220  174.8270  136.2270 C   0  0  0  0  0  1  0  0  0  0  0  0
  194.3440  175.2500  137.5500 N   0  0  0  0  0  0  0  0  0  0  0  0
  193.9600  174.8520  139.9330 C   0  0  0  0  0  2  0  0  0  0  0  0
  193.5700  174.4640  138.5100 C   0  0  0  0  0  2  0  0  0  0  0  0
  2 18  1  6  0  0  0
  2 14  1  0  0  0  0
  3 12  1  0  0  0  0
  4 10  1  0  0  0  0
  4  6  2  0  0  0  0
  5 11  1  0  0  0  0
  5  3  2  0  0  0  0
  6  2  1  0  0  0  0
  7  4  1  0  0  0  0
  8 14  1  0  0  0  0
  9 13  1  6  0  0  0
  9 10  1  0  0  0  0
  9  8  1  0  0  0  0
 10  1  1  1  0  0  0
 11  7  2  0  0  0  0
 12  6  1  0  0  0  0
 15  5  1  0  0  0  0
 16 15  1  0  0  0  0
 17 15  2  0  0  0  0
 18 19  1  0  0  0  0
 20 21  2  0  0  0  0
 21 19  1  0  0  0  0
 22 23  1  0  0  0  0
 23 20  1  0  0  0  0
 24 28  2  0  0  0  0
 25 32  2  0  0  0  0
 27 30  1  0  0  0  0
 27 29  2  0  0  0  0
 29  1  1  0  0  0  0
 29 28  1  0  0  0  0
 30 26  1  6  0  0  0
 30 24  1  0  0  0  0
 31 26  2  0  0  0  0
 31 25  1  0  0  0  0
 32 24  1  0  0  0  0
 33 27  1  0  0  0  0
 34 38  1  0  0  0  0
 35 38  1  0  0  0  0
 36 37  1  0  0  0  0
 36 35  2  0  0  0  0
 37 34  2  0  0  0  0
 38 33  1  0  0  0  0
 39 36  1  0  0  0  0
 40 39  1  0  0  0  0
 41 40  1  0  0  0  0
 42 43  1  0  0  0  0
 43 41  1  0  0  0  0
 43 45  1  0  0  0  0
 44 39  1  0  0  0  0
 45 44  1  0  0  0  0
M  END
>  <MODEL>
5

>  <REMARK>
 VINA RESULT:      -6.4      3.681      7.673
  Name = 
  10 active torsions:
  status: ('A' for Active; 'I' for Inactive)
    1  A    between atoms: C_3  and  O_25
    2  A    between atoms: C_4  and  C_34
    3  A    between atoms: C_7  and  O_25
    4  A    between atoms: C_7  and  C_40
    5  A    between atoms: C_8  and  C_16
    6  A    between atoms: C_11  and  C_18
    7  A    between atoms: C_12  and  C_30
    8  A    between atoms: C_12  and  C_32
    9  A    between atoms: C_21  and  C_22
   10  A    between atoms: C_22  and  N_39
                            x       y       z     vdW  Elec       q    Type
                         _______ _______ _______ _____ _____    ______ ____

>  <TORSDO>
F 10

$$$$
=
 OpenBabel11042415143D

 45 50  0  0  1  0  0  0  0  0999 V2000
  190.9760  174.0780  140.6040 C   0  0  0  0  0  2  0  0  0  0  0  0
  188.2900  175.9650  141.7080 C   0  0  1  0  0  3  0  0  0  0  0  0
  189.5150  177.3860  144.7500 C   0  0  0  0  0  3  0  0  0  0  0  0
  190.4710  175.1910  142.8170 C   0  0  0  0  0  0  0  0  0  0  0  0
  190.4210  176.7550  145.5020 C   0  0  0  0  0  0  0  0  0  0  0  0
  189.4960  176.1230  142.6290 C   0  0  0  0  0  0  0  0  0  0  0  0
  191.6040  175.3920  143.7500 C   0  0  0  0  0  3  0  0  0  0  0  0
  188.0050  173.7250  141.9960 C   0  0  0  0  0  2  0  0  0  0  0  0
  189.3190  172.9810  142.1850 C   0  0  1  0  0  3  0  0  0  0  0  0
  190.5470  173.8900  142.0540 C   0  0  1  0  0  3  0  0  0  0  0  0
  191.5850  176.0560  144.9120 C   0  0  0  0  0  3  0  0  0  0  0  0
  189.6160  177.4730  143.2660 C   0  0  0  0  0  2  0  0  0  0  0  0
  189.3200  172.2850  143.5330 C   0  0  0  0  0  1  0  0  0  0  0  0
  188.1670  174.7310  141.0330 O   0  0  0  0  0  0  0  0  0  0  0  0
  190.3030  176.8240  146.9700 C   0  0  0  0  0  0  0  0  0  0  0  0
  189.6710  177.9040  147.5760 O   0  0  0  0  0  0  0  0  0  0  0  0
  190.7750  175.9060  147.6910 O   0  0  0  0  0  1  0  0  0  0  0  0
  187.0990  176.2960  142.3700 O   0  0  0  0  0  0  0  0  0  0  0  0
  186.5150  177.2910  141.5840 C   0  0  0  0  0  2  0  0  0  0  0  0
  185.9430  178.2690  143.7490 C   0  0  0  0  0  3  0  0  0  0  0  0
  186.1420  178.4480  142.4460 C   0  0  0  0  0  3  0  0  0  0  0  0
  184.4380  179.0260  145.5310 C   0  0  0  0  0  1  0  0  0  0  0  0
  185.5750  179.4240  144.6130 C   0  0  0  0  0  2  0  0  0  0  0  0
  192.7960  171.1590  139.5450 C   0  0  0  0  0  0  0  0  0  0  0  0
  193.7860  170.0090  137.7550 C   0  0  0  0  0  3  0  0  0  0  0  0
  194.7290  172.1310  138.4610 N   0  0  0  0  0  0  0  0  0  0  0  0
  193.3050  173.3070  140.0960 C   0  0  0  0  0  0  0  0  0  0  0  0
  191.6760  171.7400  139.8190 N   0  0  0  0  0  0  0  0  0  0  0  0
  192.0060  173.0640  140.2240 C   0  0  0  0  0  0  0  0  0  0  0  0
  193.9890  172.0380  139.7250 C   0  0  1  0  0  3  0  0  0  0  0  0
  194.6930  171.1720  137.5750 C   0  0  0  0  0  3  0  0  0  0  0  0
  192.8720  170.0250  138.6810 N   0  0  0  0  0  0  0  0  0  0  0  0
  193.9860  174.5980  140.4190 C   0  0  0  0  0  2  0  0  0  0  0  0
  194.9440  175.6280  142.4690 C   0  0  0  0  0  3  0  0  0  0  0  0
  194.5240  173.4770  142.5270 N   0  0  0  0  0  0  0  0  0  0  0  0
  195.0070  173.8500  143.7250 C   0  0  0  0  0  0  0  0  0  0  0  0
  195.2900  175.2040  143.7430 C   0  0  0  0  0  3  0  0  0  0  0  0
  194.5000  174.5640  141.7780 N   0  0  0  0  0  0  0  0  0  0  0  0
  195.2070  172.9210  144.8750 C   0  0  0  0  0  3  0  0  0  0  0  0
  196.6550  172.4310  144.9150 C   0  0  0  0  0  2  0  0  0  0  0  0
  196.8160  171.3920  146.0210 C   0  0  0  0  0  2  0  0  0  0  0  0
  196.1180  169.3350  146.8810 C   0  0  0  0  0  1  0  0  0  0  0  0
  195.9110  170.2680  145.7880 N   0  0  0  0  0  0  0  0  0  0  0  0
  194.2390  171.7410  144.7800 C   0  0  0  0  0  2  0  0  0  0  0  0
  194.5350  170.7480  145.9000 C   0  0  0  0  0  2  0  0  0  0  0  0
  2 18  1  1  0  0  0
  2  6  1  0  0  0  0
  3  5  2  0  0  0  0
  4  7  1  0  0  0  0
  5 15  1  0  0  0  0
  6  4  2  0  0  0  0
  6 12  1  0  0  0  0
  7 11  2  0  0  0  0
  8  9  1  0  0  0  0
  9 13  1  1  0  0  0
 10  1  1  6  0  0  0
 10  9  1  0  0  0  0
 10  4  1  0  0  0  0
 11  5  1  0  0  0  0
 12  3  1  0  0  0  0
 14  2  1  0  0  0  0
 14  8  1  0  0  0  0
 15 16  2  0  0  0  0
 15 17  1  0  0  0  0
 19 18  1  0  0  0  0
 19 21  1  0  0  0  0
 20 23  1  0  0  0  0
 21 20  2  0  0  0  0
 23 22  1  0  0  0  0
 24 30  1  0  0  0  0
 24 28  2  0  0  0  0
 25 32  2  0  0  0  0
 27 29  2  0  0  0  0
 27 33  1  0  0  0  0
 28 29  1  0  0  0  0
 29  1  1  0  0  0  0
 30 26  1  6  0  0  0
 30 27  1  0  0  0  0
 31 25  1  0  0  0  0
 31 26  2  0  0  0  0
 32 24  1  0  0  0  0
 33 38  1  0  0  0  0
 34 37  2  0  0  0  0
 35 36  2  0  0  0  0
 36 37  1  0  0  0  0
 36 39  1  0  0  0  0
 38 34  1  0  0  0  0
 38 35  1  0  0  0  0
 39 40  1  0  0  0  0
 40 41  1  0  0  0  0
 43 45  1  0  0  0  0
 43 41  1  0  0  0  0
 43 42  1  0  0  0  0
 44 39  1  0  0  0  0
 44 45  1  0  0  0  0
M  END
>  <MODEL>
6

>  <REMARK>
 VINA RESULT:      -6.2      3.525      8.303
  Name = 
  10 active torsions:
  status: ('A' for Active; 'I' for Inactive)
    1  A    between atoms: C_3  and  O_25
    2  A    between atoms: C_4  and  C_34
    3  A    between atoms: C_7  and  O_25
    4  A    between atoms: C_7  and  C_40
    5  A    between atoms: C_8  and  C_16
    6  A    between atoms: C_11  and  C_18
    7  A    between atoms: C_12  and  C_30
    8  A    between atoms: C_12  and  C_32
    9  A    between atoms: C_21  and  C_22
   10  A    between atoms: C_22  and  N_39
                            x       y       z     vdW  Elec       q    Type
                         _______ _______ _______ _____ _____    ______ ____

>  <TORSDO>
F 10

$$$$
=
 OpenBabel11042415143D

 45 50  0  0  1  0  0  0  0  0999 V2000
  193.0690  173.9490  144.8900 C   0  0  0  0  0  2  0  0  0  0  0  0
  190.3110  175.7660  143.8460 C   0  0  1  0  0  3  0  0  0  0  0  0
  188.6880  173.5190  141.5900 C   0  0  0  0  0  3  0  0  0  0  0  0
  191.4190  173.6090  143.0040 C   0  0  0  0  0  0  0  0  0  0  0  0
  189.3760  172.6190  140.8820 C   0  0  0  0  0  0  0  0  0  0  0  0
  190.3110  174.3620  143.2490 C   0  0  0  0  0  0  0  0  0  0  0  0
  191.3550  172.2610  142.3930 C   0  0  0  0  0  3  0  0  0  0  0  0
  192.2660  176.4690  142.9160 C   0  0  0  0  0  2  0  0  0  0  0  0
  193.2940  175.3550  142.7860 C   0  0  1  0  0  3  0  0  0  0  0  0
  192.8190  174.0270  143.3880 C   0  0  1  0  0  3  0  0  0  0  0  0
  190.4830  171.8330  141.4710 C   0  0  0  0  0  3  0  0  0  0  0  0
  188.9470  173.7810  143.0340 C   0  0  0  0  0  2  0  0  0  0  0  0
  193.6620  175.1690  141.3260 C   0  0  0  0  0  1  0  0  0  0  0  0
  191.5730  176.3330  144.1270 O   0  0  0  0  0  0  0  0  0  0  0  0
  188.9690  172.3420  139.4930 C   0  0  0  0  0  0  0  0  0  0  0  0
  189.5730  171.3190  138.7720 O   0  0  0  0  0  0  0  0  0  0  0  0
  188.0700  173.0330  138.9420 O   0  0  0  0  0  1  0  0  0  0  0  0
  189.5250  176.6420  143.0850 O   0  0  0  0  0  0  0  0  0  0  0  0
  188.9800  177.5330  144.0100 C   0  0  0  0  0  2  0  0  0  0  0  0
  187.2000  177.5220  145.6830 C   0  0  0  0  0  3  0  0  0  0  0  0
  187.8060  176.9010  144.6750 C   0  0  0  0  0  3  0  0  0  0  0  0
  184.7920  177.7410  146.0960 C   0  0  0  0  0  1  0  0  0  0  0  0
  186.0230  176.8940  146.3450 C   0  0  0  0  0  2  0  0  0  0  0  0
  194.9200  170.9020  145.3850 C   0  0  0  0  0  0  0  0  0  0  0  0
  196.3990  169.3340  144.4580 C   0  0  0  0  0  3  0  0  0  0  0  0
  197.1820  171.5920  144.8780 N   0  0  0  0  0  0  0  0  0  0  0  0
  195.3570  173.1310  145.5000 C   0  0  0  0  0  0  0  0  0  0  0  0
  193.8240  171.5050  145.0630 N   0  0  0  0  0  0  0  0  0  0  0  0
  194.0860  172.8970  145.1990 C   0  0  0  0  0  0  0  0  0  0  0  0
  196.0300  171.8280  145.7550 C   0  0  1  0  0  3  0  0  0  0  0  0
  197.3950  170.4280  144.3270 C   0  0  0  0  0  3  0  0  0  0  0  0
  195.2150  169.5780  144.9410 N   0  0  0  0  0  0  0  0  0  0  0  0
  195.9720  174.4790  145.7010 C   0  0  0  0  0  2  0  0  0  0  0  0
  196.3650  176.3440  144.1050 C   0  0  0  0  0  3  0  0  0  0  0  0
  196.8790  174.3210  143.4340 N   0  0  0  0  0  0  0  0  0  0  0  0
  197.1860  175.1870  142.4520 C   0  0  0  0  0  0  0  0  0  0  0  0
  196.8790  176.4840  142.8250 C   0  0  0  0  0  3  0  0  0  0  0  0
  196.3780  175.0380  144.4220 N   0  0  0  0  0  0  0  0  0  0  0  0
  197.7770  174.7930  141.1400 C   0  0  0  0  0  3  0  0  0  0  0  0
  197.2880  175.7310  140.0360 C   0  0  0  0  0  2  0  0  0  0  0  0
  197.8040  175.2460  138.6830 C   0  0  0  0  0  2  0  0  0  0  0  0
  197.8750  173.4950  137.1380 C   0  0  0  0  0  1  0  0  0  0  0  0
  197.3380  173.8830  138.4290 N   0  0  0  0  0  0  0  0  0  0  0  0
  197.4240  173.3420  140.8130 C   0  0  0  0  0  2  0  0  0  0  0  0
  197.9410  172.9940  139.4200 C   0  0  0  0  0  2  0  0  0  0  0  0
  1 29  1  0  0  0  0
  2 18  1  6  0  0  0
  2 14  1  0  0  0  0
  3 12  1  0  0  0  0
  4  6  2  0  0  0  0
  4 10  1  0  0  0  0
  5 11  1  0  0  0  0
  5  3  2  0  0  0  0
  6  2  1  0  0  0  0
  7  4  1  0  0  0  0
  8 14  1  0  0  0  0
  9 13  1  6  0  0  0
  9  8  1  0  0  0  0
  9 10  1  0  0  0  0
 10  1  1  1  0  0  0
 11  7  2  0  0  0  0
 12  6  1  0  0  0  0
 15  5  1  0  0  0  0
 16 15  2  0  0  0  0
 17 15  1  0  0  0  0
 18 19  1  0  0  0  0
 19 21  1  0  0  0  0
 20 23  1  0  0  0  0
 21 20  2  0  0  0  0
 22 23  1  0  0  0  0
 24 30  1  0  0  0  0
 25 32  2  0  0  0  0
 27 33  1  0  0  0  0
 27 30  1  0  0  0  0
 28 29  1  0  0  0  0
 28 24  2  0  0  0  0
 29 27  2  0  0  0  0
 30 26  1  6  0  0  0
 31 25  1  0  0  0  0
 31 26  2  0  0  0  0
 32 24  1  0  0  0  0
 34 38  1  0  0  0  0
 35 38  1  0  0  0  0
 36 37  1  0  0  0  0
 36 35  2  0  0  0  0
 37 34  2  0  0  0  0
 38 33  1  0  0  0  0
 39 36  1  0  0  0  0
 40 39  1  0  0  0  0
 41 40  1  0  0  0  0
 42 43  1  0  0  0  0
 43 41  1  0  0  0  0
 43 45  1  0  0  0  0
 44 39  1  0  0  0  0
 45 44  1  0  0  0  0
M  END
>  <MODEL>
7

>  <REMARK>
 VINA RESULT:      -6.2      3.700      8.084
  Name = 
  10 active torsions:
  status: ('A' for Active; 'I' for Inactive)
    1  A    between atoms: C_3  and  O_25
    2  A    between atoms: C_4  and  C_34
    3  A    between atoms: C_7  and  O_25
    4  A    between atoms: C_7  and  C_40
    5  A    between atoms: C_8  and  C_16
    6  A    between atoms: C_11  and  C_18
    7  A    between atoms: C_12  and  C_30
    8  A    between atoms: C_12  and  C_32
    9  A    between atoms: C_21  and  C_22
   10  A    between atoms: C_22  and  N_39
                            x       y       z     vdW  Elec       q    Type
                         _______ _______ _______ _____ _____    ______ ____

>  <TORSDO>
F 10

$$$$
=
 OpenBabel11042415143D

 45 50  0  0  1  0  0  0  0  0999 V2000
  191.8310  173.3100  144.6600 C   0  0  0  0  0  2  0  0  0  0  0  0
  191.0550  170.8490  142.3490 C   0  0  1  0  0  3  0  0  0  0  0  0
  192.3990  172.1640  139.3090 C   0  0  0  0  0  3  0  0  0  0  0  0
  191.8780  173.2710  142.1330 C   0  0  0  0  0  0  0  0  0  0  0  0
  192.4790  173.4790  139.0910 C   0  0  0  0  0  0  0  0  0  0  0  0
  191.8630  171.9750  141.7120 C   0  0  0  0  0  0  0  0  0  0  0  0
  192.6620  174.3270  141.4520 C   0  0  0  0  0  3  0  0  0  0  0  0
  189.2620  172.1060  142.9740 C   0  0  0  0  0  2  0  0  0  0  0  0
  189.6450  173.5200  143.3840 C   0  0  1  0  0  3  0  0  0  0  0  0
  191.1590  173.7600  143.3680 C   0  0  1  0  0  3  0  0  0  0  0  0
  192.9160  174.4270  140.1410 C   0  0  0  0  0  3  0  0  0  0  0  0
  192.7740  171.5360  140.6080 C   0  0  0  0  0  2  0  0  0  0  0  0
  188.9440  174.5180  142.4810 C   0  0  0  0  0  1  0  0  0  0  0  0
  190.2290  171.2020  143.4390 O   0  0  0  0  0  0  0  0  0  0  0  0
  192.2020  173.9950  137.7390 C   0  0  0  0  0  0  0  0  0  0  0  0
  192.8170  175.1580  137.2880 O   0  0  0  0  0  1  0  0  0  0  0  0
  191.4020  173.3900  136.9760 O   0  0  0  0  0  0  0  0  0  0  0  0
  190.3340  170.1320  141.3840 O   0  0  0  0  0  0  0  0  0  0  0  0
  190.7820  168.8160  141.5050 C   0  0  0  0  0  2  0  0  0  0  0  0
  190.5540  168.8990  139.0740 C   0  0  0  0  0  3  0  0  0  0  0  0
  190.9490  168.2220  140.1480 C   0  0  0  0  0  3  0  0  0  0  0  0
  190.9720  169.4190  136.7140 C   0  0  0  0  0  1  0  0  0  0  0  0
  190.7240  168.3110  137.7170 C   0  0  0  0  0  2  0  0  0  0  0  0
  195.3240  174.1550  144.4670 C   0  0  0  0  0  0  0  0  0  0  0  0
  196.9840  175.3840  143.3550 C   0  0  0  0  0  3  0  0  0  0  0  0
  195.2710  176.5700  144.5990 N   0  0  0  0  0  0  0  0  0  0  0  0
  193.4510  175.0880  145.3580 C   0  0  0  0  0  0  0  0  0  0  0  0
  194.3470  173.3630  144.1720 N   0  0  0  0  0  0  0  0  0  0  0  0
  193.1900  173.9190  144.7870 C   0  0  0  0  0  0  0  0  0  0  0  0
  194.9190  175.3280  145.2960 C   0  0  1  0  0  3  0  0  0  0  0  0
  196.2620  176.6210  143.7510 C   0  0  0  0  0  3  0  0  0  0  0  0
  196.5140  174.2150  143.6820 N   0  0  0  0  0  0  0  0  0  0  0  0
  192.4620  175.9460  146.0800 C   0  0  0  0  0  2  0  0  0  0  0  0
  192.0670  177.1480  143.9400 C   0  0  0  0  0  3  0  0  0  0  0  0
  190.3540  176.9010  145.2850 N   0  0  0  0  0  0  0  0  0  0  0  0
  189.9390  177.5430  144.1790 C   0  0  0  0  0  0  0  0  0  0  0  0
  190.9860  177.7270  143.2930 C   0  0  0  0  0  3  0  0  0  0  0  0
  191.6440  176.6760  145.1250 N   0  0  0  0  0  0  0  0  0  0  0  0
  188.5360  177.9960  143.9480 C   0  0  0  0  0  3  0  0  0  0  0  0
  187.5540  177.0610  144.6550 C   0  0  0  0  0  2  0  0  0  0  0  0
  186.1220  177.4650  144.3120 C   0  0  0  0  0  2  0  0  0  0  0  0
  184.5450  177.8110  142.6230 C   0  0  0  0  0  1  0  0  0  0  0  0
  185.9190  177.4070  142.8650 N   0  0  0  0  0  0  0  0  0  0  0  0
  188.2390  178.0590  142.4490 C   0  0  0  0  0  2  0  0  0  0  0  0
  186.7710  178.4150  142.2360 C   0  0  0  0  0  2  0  0  0  0  0  0
  1 29  1  0  0  0  0
  2 18  1  6  0  0  0
  2 14  1  0  0  0  0
  3 12  1  0  0  0  0
  4 10  1  0  0  0  0
  5  3  2  0  0  0  0
  5 11  1  0  0  0  0
  6  4  2  0  0  0  0
  6  2  1  0  0  0  0
  7  4  1  0  0  0  0
  8  9  1  0  0  0  0
  8 14  1  0  0  0  0
  9 13  1  6  0  0  0
 10  9  1  0  0  0  0
 10  1  1  1  0  0  0
 11  7  2  0  0  0  0
 12  6  1  0  0  0  0
 15  5  1  0  0  0  0
 16 15  1  0  0  0  0
 17 15  2  0  0  0  0
 18 19  1  0  0  0  0
 20 21  2  0  0  0  0
 21 19  1  0  0  0  0
 22 23  1  0  0  0  0
 23 20  1  0  0  0  0
 25 32  2  0  0  0  0
 25 31  1  0  0  0  0
 26 30  1  0  0  0  0
 27 33  1  0  0  0  0
 28 24  2  0  0  0  0
 28 29  1  0  0  0  0
 29 27  2  0  0  0  0
 30 24  1  6  0  0  0
 30 27  1  0  0  0  0
 31 26  2  0  0  0  0
 32 24  1  0  0  0  0
 34 38  1  0  0  0  0
 36 35  2  0  0  0  0
 37 34  2  0  0  0  0
 37 36  1  0  0  0  0
 38 35  1  0  0  0  0
 38 33  1  0  0  0  0
 39 36  1  0  0  0  0
 39 40  1  0  0  0  0
 41 40  1  0  0  0  0
 42 43  1  0  0  0  0
 43 41  1  0  0  0  0
 44 39  1  0  0  0  0
 45 44  1  0  0  0  0
 45 43  1  0  0  0  0
M  END
>  <MODEL>
8

>  <REMARK>
 VINA RESULT:      -6.2      2.944      7.437
  Name = 
  10 active torsions:
  status: ('A' for Active; 'I' for Inactive)
    1  A    between atoms: C_3  and  O_25
    2  A    between atoms: C_4  and  C_34
    3  A    between atoms: C_7  and  O_25
    4  A    between atoms: C_7  and  C_40
    5  A    between atoms: C_8  and  C_16
    6  A    between atoms: C_11  and  C_18
    7  A    between atoms: C_12  and  C_30
    8  A    between atoms: C_12  and  C_32
    9  A    between atoms: C_21  and  C_22
   10  A    between atoms: C_22  and  N_39
                            x       y       z     vdW  Elec       q    Type
                         _______ _______ _______ _____ _____    ______ ____

>  <TORSDO>
F 10

$$$$
=
 OpenBabel11042415143D

 45 50  0  0  1  0  0  0  0  0999 V2000
  191.5630  173.5090  142.2600 C   0  0  0  0  0  2  0  0  0  0  0  0
  194.1330  174.4630  144.3770 C   0  0  1  0  0  3  0  0  0  0  0  0
  192.3890  175.5700  147.2940 C   0  0  0  0  0  3  0  0  0  0  0  0
  191.5930  174.8320  144.4150 C   0  0  0  0  0  0  0  0  0  0  0  0
  191.1670  176.1030  147.2180 C   0  0  0  0  0  0  0  0  0  0  0  0
  192.7740  174.6030  145.0550 C   0  0  0  0  0  0  0  0  0  0  0  0
  190.3070  174.9890  145.1330 C   0  0  0  0  0  3  0  0  0  0  0  0
  193.7580  175.9360  142.6830 C   0  0  0  0  0  2  0  0  0  0  0  0
  192.3140  175.9340  142.2060 C   0  0  1  0  0  3  0  0  0  0  0  0
  191.4500  174.8820  142.9120 C   0  0  1  0  0  3  0  0  0  0  0  0
  190.1170  175.5450  146.3360 C   0  0  0  0  0  3  0  0  0  0  0  0
  192.7890  174.3540  146.5310 C   0  0  0  0  0  2  0  0  0  0  0  0
  191.7160  177.3160  142.3910 C   0  0  0  0  0  1  0  0  0  0  0  0
  194.1600  174.6240  142.9750 O   0  0  0  0  0  0  0  0  0  0  0  0
  190.8270  177.2340  148.0990 C   0  0  0  0  0  0  0  0  0  0  0  0
  191.5630  177.4760  149.2530 O   0  0  0  0  0  1  0  0  0  0  0  0
  189.8620  177.9940  147.8180 O   0  0  0  0  0  0  0  0  0  0  0  0
  195.0950  175.2730  144.9950 O   0  0  0  0  0  0  0  0  0  0  0  0
  196.2910  174.5630  144.8840 C   0  0  0  0  0  2  0  0  0  0  0  0
  196.9150  172.2420  145.3260 C   0  0  0  0  0  3  0  0  0  0  0  0
  196.1950  173.3040  145.6760 C   0  0  0  0  0  3  0  0  0  0  0  0
  195.4340  170.4000  145.9810 C   0  0  0  0  0  1  0  0  0  0  0  0
  196.8250  170.9850  146.1190 C   0  0  0  0  0  2  0  0  0  0  0  0
  191.2130  173.6450  138.6800 C   0  0  0  0  0  0  0  0  0  0  0  0
  191.0040  172.4300  136.6840 C   0  0  0  0  0  3  0  0  0  0  0  0
  189.2090  172.3380  138.3150 N   0  0  0  0  0  0  0  0  0  0  0  0
  189.8220  173.3870  140.4620 C   0  0  0  0  0  0  0  0  0  0  0  0
  191.9630  173.6540  139.7320 N   0  0  0  0  0  0  0  0  0  0  0  0
  191.0820  173.5580  140.8460 C   0  0  0  0  0  0  0  0  0  0  0  0
  189.7550  173.5260  138.9820 C   0  0  1  0  0  3  0  0  0  0  0  0
  189.7390  171.8640  137.2200 C   0  0  0  0  0  3  0  0  0  0  0  0
  191.7080  173.2590  137.3990 N   0  0  0  0  0  0  0  0  0  0  0  0
  188.6460  173.2360  141.3730 C   0  0  0  0  0  2  0  0  0  0  0  0
  188.2020  175.6490  140.9760 C   0  0  0  0  0  3  0  0  0  0  0  0
  187.4440  174.7810  142.8410 N   0  0  0  0  0  0  0  0  0  0  0  0
  187.0840  176.0760  142.7950 C   0  0  0  0  0  0  0  0  0  0  0  0
  187.5400  176.6740  141.6330 C   0  0  0  0  0  3  0  0  0  0  0  0
  188.1250  174.5430  141.7350 N   0  0  0  0  0  0  0  0  0  0  0  0
  186.2990  176.7660  143.8590 C   0  0  0  0  0  3  0  0  0  0  0  0
  186.3080  178.2780  143.6280 C   0  0  0  0  0  2  0  0  0  0  0  0
  185.6040  178.9790  144.7870 C   0  0  0  0  0  2  0  0  0  0  0  0
  185.5420  179.3520  147.0930 C   0  0  0  0  0  1  0  0  0  0  0  0
  186.2730  178.6580  146.0470 N   0  0  0  0  0  0  0  0  0  0  0  0
  186.8620  176.4260  145.2400 C   0  0  0  0  0  2  0  0  0  0  0  0
  186.1190  177.2270  146.3040 C   0  0  0  0  0  2  0  0  0  0  0  0
  2 18  1  1  0  0  0
  2  6  1  0  0  0  0
  4  6  2  0  0  0  0
  4  7  1  0  0  0  0
  5  3  2  0  0  0  0
  5 15  1  0  0  0  0
  6 12  1  0  0  0  0
  7 11  2  0  0  0  0
  8 14  1  0  0  0  0
  9 13  1  1  0  0  0
  9  8  1  0  0  0  0
  9 10  1  0  0  0  0
 10  1  1  6  0  0  0
 10  4  1  0  0  0  0
 11  5  1  0  0  0  0
 12  3  1  0  0  0  0
 14  2  1  0  0  0  0
 15 16  1  0  0  0  0
 17 15  2  0  0  0  0
 19 18  1  0  0  0  0
 19 21  1  0  0  0  0
 20 21  2  0  0  0  0
 20 23  1  0  0  0  0
 22 23  1  0  0  0  0
 24 30  1  0  0  0  0
 24 28  2  0  0  0  0
 25 31  1  0  0  0  0
 25 32  2  0  0  0  0
 27 29  2  0  0  0  0
 27 33  1  0  0  0  0
 28 29  1  0  0  0  0
 29  1  1  0  0  0  0
 30 26  1  6  0  0  0
 30 27  1  0  0  0  0
 31 26  2  0  0  0  0
 32 24  1  0  0  0  0
 33 38  1  0  0  0  0
 34 37  2  0  0  0  0
 34 38  1  0  0  0  0
 36 35  2  0  0  0  0
 36 39  1  0  0  0  0
 37 36  1  0  0  0  0
 38 35  1  0  0  0  0
 39 44  1  0  0  0  0
 40 39  1  0  0  0  0
 40 41  1  0  0  0  0
 41 43  1  0  0  0  0
 43 45  1  0  0  0  0
 43 42  1  0  0  0  0
 44 45  1  0  0  0  0
M  END
>  <MODEL>
9

>  <REMARK>
 VINA RESULT:      -6.2      2.231      6.912
  Name = 
  10 active torsions:
  status: ('A' for Active; 'I' for Inactive)
    1  A    between atoms: C_3  and  O_25
    2  A    between atoms: C_4  and  C_34
    3  A    between atoms: C_7  and  O_25
    4  A    between atoms: C_7  and  C_40
    5  A    between atoms: C_8  and  C_16
    6  A    between atoms: C_11  and  C_18
    7  A    between atoms: C_12  and  C_30
    8  A    between atoms: C_12  and  C_32
    9  A    between atoms: C_21  and  C_22
   10  A    between atoms: C_22  and  N_39
                            x       y       z     vdW  Elec       q    Type
                         _______ _______ _______ _____ _____    ______ ____

>  <TORSDO>
F 10

$$$$
