=
 OpenBabel11042414523D

 32 35  0  0  0  0  0  0  0  0999 V2000
  184.1310  178.3760  145.0840 O   0  0  0  0  0  0  0  0  0  0  0  0
  183.2280  178.3060  141.0800 C   0  0  0  0  0  0  0  0  0  0  0  0
  181.9240  178.5770  140.6890 O   0  0  0  0  0  1  0  0  0  0  0  0
  186.2530  177.1430  146.3440 C   0  0  0  0  0  3  0  0  0  0  0  0
  187.3770  176.8070  147.0920 C   0  0  0  0  0  3  0  0  0  0  0  0
  188.6600  177.0030  146.5690 C   0  0  0  0  0  0  0  0  0  0  0  0
  183.5640  178.3040  142.4340 C   0  0  0  0  0  3  0  0  0  0  0  0
  184.8760  178.0310  142.8690 C   0  0  0  0  0  0  0  0  0  0  0  0
  184.2020  178.0320  140.1240 C   0  0  0  0  0  3  0  0  0  0  0  0
  187.6610  177.8930  144.5260 C   0  0  0  0  0  0  0  0  0  0  0  0
  188.8040  177.5430  145.2810 C   0  0  0  0  0  0  0  0  0  0  0  0
  185.5080  177.7590  140.5240 C   0  0  0  0  0  3  0  0  0  0  0  0
  186.3690  177.6760  145.0530 C   0  0  0  0  0  0  0  0  0  0  0  0
  187.2850  177.4500  142.1780 C   0  0  0  0  0  2  0  0  0  0  0  0
  185.1060  178.0480  144.3520 C   0  0  0  0  0  0  0  0  0  0  0  0
  185.8600  177.7590  141.8790 C   0  0  0  0  0  0  0  0  0  0  0  0
  187.8350  178.4540  143.1590 C   0  0  0  0  0  2  0  0  0  0  0  0
  190.1830  177.7750  144.7370 C   0  0  0  0  0  2  0  0  0  0  0  0
  190.6990  176.5280  144.1010 C   0  0  0  0  0  3  0  0  0  0  0  0
  190.9480  176.4990  142.7970 C   0  0  0  0  0  3  0  0  0  0  0  0
  191.4630  175.2490  142.1650 C   0  0  0  0  0  2  0  0  0  0  0  0
  190.5630  173.0360  142.9060 C   0  0  0  0  0  3  0  0  0  0  0  0
  189.5760  172.0460  142.8820 C   0  0  0  0  0  3  0  0  0  0  0  0
  188.4280  172.2220  142.1040 C   0  0  0  0  0  3  0  0  0  0  0  0
  188.2670  173.3880  141.3480 C   0  0  0  0  0  3  0  0  0  0  0  0
  190.4010  174.2050  142.1540 C   0  0  0  0  0  0  0  0  0  0  0  0
  189.2550  174.3770  141.3710 C   0  0  0  0  0  3  0  0  0  0  0  0
  189.8010  176.6630  147.3100 O   0  0  0  0  0  0  0  0  0  0  0  0
  190.2470  175.3230  147.4950 C   0  0  0  0  0  2  0  0  0  0  0  0
  191.7650  175.2620  147.4790 C   0  0  0  0  0  2  0  0  0  0  0  0
  193.4690  176.3410  146.5850 C   0  0  0  0  0  1  0  0  0  0  0  0
  192.2890  176.5420  147.3000 O   0  0  0  0  0  0  0  0  0  0  0  0
  2  7  1  0  0  0  0
  3  2  1  0  0  0  0
  4  5  1  0  0  0  0
  6  5  2  0  0  0  0
  6 28  1  0  0  0  0
  7  8  2  0  0  0  0
  8 15  1  0  0  0  0
  9 12  1  0  0  0  0
  9  2  2  0  0  0  0
 10 13  1  0  0  0  0
 10 11  2  0  0  0  0
 11  6  1  0  0  0  0
 12 16  2  0  0  0  0
 13  4  2  0  0  0  0
 14 17  1  0  0  0  0
 15 13  1  0  0  0  0
 15  1  2  0  0  0  0
 16 14  1  0  0  0  0
 16  8  1  0  0  0  0
 17 10  1  0  0  0  0
 18 11  1  0  0  0  0
 19 18  1  0  0  0  0
 20 19  2  0  0  0  0
 21 20  1  0  0  0  0
 23 22  1  0  0  0  0
 24 23  2  0  0  0  0
 25 27  2  0  0  0  0
 25 24  1  0  0  0  0
 26 21  1  0  0  0  0
 26 22  2  0  0  0  0
 27 26  1  0  0  0  0
 28 29  1  0  0  0  0
 30 29  1  0  0  0  0
 31 32  1  0  0  0  0
 32 30  1  0  0  0  0
M  END
>  <MODEL>
1

>  <REMARK>
 VINA RESULT:      -7.4      0.000      0.000
  Name = 
  8 active torsions:
  status: ('A' for Active; 'I' for Inactive)
    1  A    between atoms: C_4  and  C_14
    2  A    between atoms: C_4  and  C_31
    3  A    between atoms: C_12  and  O_28
    4  A    between atoms: C_15  and  C_20
    5  A    between atoms: C_18  and  O_19
    6  A    between atoms: C_18  and  C_25
    7  A    between atoms: C_20  and  C_22
    8  A    between atoms: C_25  and  O_28
                            x       y       z     vdW  Elec       q    Type
                         _______ _______ _______ _____ _____    ______ ____

>  <TORSDO>
F 8

$$$$
=
 OpenBabel11042414523D

 32 35  0  0  0  0  0  0  0  0999 V2000
  187.7870  178.0580  142.7890 O   0  0  0  0  0  0  0  0  0  0  0  0
  184.8570  178.4660  145.6360 C   0  0  0  0  0  0  0  0  0  0  0  0
  183.6040  178.9120  145.2390 O   0  0  0  0  0  1  0  0  0  0  0  0
  190.5160  178.0230  143.1880 C   0  0  0  0  0  3  0  0  0  0  0  0
  191.8770  177.7370  143.2300 C   0  0  0  0  0  3  0  0  0  0  0  0
  192.3910  176.8760  144.2050 C   0  0  0  0  0  0  0  0  0  0  0  0
  185.8800  178.3330  144.6970 C   0  0  0  0  0  3  0  0  0  0  0  0
  187.1650  177.8850  145.0610 C   0  0  0  0  0  0  0  0  0  0  0  0
  185.0960  178.1520  146.9700 C   0  0  0  0  0  3  0  0  0  0  0  0
  190.1350  176.5830  145.0950 C   0  0  0  0  0  0  0  0  0  0  0  0
  191.5190  176.3000  145.1440 C   0  0  0  0  0  0  0  0  0  0  0  0
  186.3570  177.7050  147.3610 C   0  0  0  0  0  3  0  0  0  0  0  0
  189.6260  177.4670  144.1180 C   0  0  0  0  0  0  0  0  0  0  0  0
  188.6910  177.0810  146.9690 C   0  0  0  0  0  2  0  0  0  0  0  0
  188.1800  177.7970  143.9600 C   0  0  0  0  0  0  0  0  0  0  0  0
  187.3910  177.5640  146.4290 C   0  0  0  0  0  0  0  0  0  0  0  0
  189.2300  175.9700  146.1050 C   0  0  0  0  0  2  0  0  0  0  0  0
  192.0730  175.3570  146.1710 C   0  0  0  0  0  2  0  0  0  0  0  0
  192.1550  173.9780  145.6080 C   0  0  0  0  0  3  0  0  0  0  0  0
  193.3360  173.3920  145.4500 C   0  0  0  0  0  3  0  0  0  0  0  0
  193.4130  172.0130  144.8850 C   0  0  0  0  0  2  0  0  0  0  0  0
  195.8380  171.9150  145.4890 C   0  0  0  0  0  3  0  0  0  0  0  0
  196.9450  171.2330  146.0020 C   0  0  0  0  0  3  0  0  0  0  0  0
  196.8030  169.9250  146.4760 C   0  0  0  0  0  3  0  0  0  0  0  0
  195.5530  169.2990  146.4350 C   0  0  0  0  0  3  0  0  0  0  0  0
  194.5860  171.2920  145.4510 C   0  0  0  0  0  0  0  0  0  0  0  0
  194.4470  169.9810  145.9200 C   0  0  0  0  0  3  0  0  0  0  0  0
  193.7610  176.5850  144.2620 O   0  0  0  0  0  0  0  0  0  0  0  0
  194.5220  176.1710  143.1300 C   0  0  0  0  0  2  0  0  0  0  0  0
  196.0090  176.3130  143.4110 C   0  0  0  0  0  2  0  0  0  0  0  0
  195.8160  176.5460  141.2260 C   0  0  0  0  0  1  0  0  0  0  0  0
  196.6530  176.8530  142.2970 O   0  0  0  0  0  0  0  0  0  0  0  0
  1 15  2  0  0  0  0
  2  9  1  0  0  0  0
  3  2  1  0  0  0  0
  4  5  2  0  0  0  0
  4 13  1  0  0  0  0
  5  6  1  0  0  0  0
  6 28  1  0  0  0  0
  6 11  2  0  0  0  0
  7  8  1  0  0  0  0
  7  2  2  0  0  0  0
  8 16  2  0  0  0  0
  9 12  2  0  0  0  0
 10 11  1  0  0  0  0
 10 17  1  0  0  0  0
 11 18  1  0  0  0  0
 13 10  2  0  0  0  0
 15 13  1  0  0  0  0
 15  8  1  0  0  0  0
 16 14  1  0  0  0  0
 16 12  1  0  0  0  0
 17 14  1  0  0  0  0
 19 18  1  0  0  0  0
 20 19  2  0  0  0  0
 21 20  1  0  0  0  0
 21 26  1  0  0  0  0
 22 23  1  0  0  0  0
 23 24  2  0  0  0  0
 25 24  1  0  0  0  0
 26 22  2  0  0  0  0
 26 27  1  0  0  0  0
 27 25  2  0  0  0  0
 29 30  1  0  0  0  0
 29 28  1  0  0  0  0
 31 32  1  0  0  0  0
 32 30  1  0  0  0  0
M  END
>  <MODEL>
2

>  <REMARK>
 VINA RESULT:      -7.1      3.555      5.611
  Name = 
  8 active torsions:
  status: ('A' for Active; 'I' for Inactive)
    1  A    between atoms: C_4  and  C_14
    2  A    between atoms: C_4  and  C_31
    3  A    between atoms: C_12  and  O_28
    4  A    between atoms: C_15  and  C_20
    5  A    between atoms: C_18  and  O_19
    6  A    between atoms: C_18  and  C_25
    7  A    between atoms: C_20  and  C_22
    8  A    between atoms: C_25  and  O_28
                            x       y       z     vdW  Elec       q    Type
                         _______ _______ _______ _____ _____    ______ ____

>  <TORSDO>
F 8

$$$$
=
 OpenBabel11042414523D

 32 35  0  0  0  0  0  0  0  0999 V2000
  192.3050  174.7230  146.3870 O   0  0  0  0  0  0  0  0  0  0  0  0
  191.1360  177.7510  148.9010 C   0  0  0  0  0  0  0  0  0  0  0  0
  191.9070  178.0150  150.0250 O   0  0  0  0  0  1  0  0  0  0  0  0
  190.7350  173.3390  144.5910 C   0  0  0  0  0  3  0  0  0  0  0  0
  190.1630  172.7240  143.4810 C   0  0  0  0  0  3  0  0  0  0  0  0
  189.3700  173.4590  142.5940 C   0  0  0  0  0  0  0  0  0  0  0  0
  191.4950  176.7180  148.0360 C   0  0  0  0  0  3  0  0  0  0  0  0
  190.7380  176.4190  146.8870 C   0  0  0  0  0  0  0  0  0  0  0  0
  190.0040  178.5150  148.6360 C   0  0  0  0  0  3  0  0  0  0  0  0
  189.7430  175.4520  143.9550 C   0  0  0  0  0  0  0  0  0  0  0  0
  189.1540  174.8260  142.8330 C   0  0  0  0  0  0  0  0  0  0  0  0
  189.2340  178.2430  147.5070 C   0  0  0  0  0  3  0  0  0  0  0  0
  190.5280  174.7000  144.8560 C   0  0  0  0  0  0  0  0  0  0  0  0
  188.6830  177.0200  145.4600 C   0  0  0  0  0  2  0  0  0  0  0  0
  191.2220  175.2760  146.0440 C   0  0  0  0  0  0  0  0  0  0  0  0
  189.5860  177.2120  146.6280 C   0  0  0  0  0  0  0  0  0  0  0  0
  189.4940  176.8990  144.1950 C   0  0  0  0  0  2  0  0  0  0  0  0
  188.3250  175.6140  141.8620 C   0  0  0  0  0  2  0  0  0  0  0  0
  186.9790  175.8890  142.4440 C   0  0  0  0  0  3  0  0  0  0  0  0
  186.5000  177.1270  142.4570 C   0  0  0  0  0  3  0  0  0  0  0  0
  185.1530  177.3970  143.0420 C   0  0  0  0  0  2  0  0  0  0  0  0
  185.5770  179.1150  144.8100 C   0  0  0  0  0  3  0  0  0  0  0  0
  185.7200  179.4800  146.1520 C   0  0  0  0  0  3  0  0  0  0  0  0
  185.5740  178.5190  147.1580 C   0  0  0  0  0  3  0  0  0  0  0  0
  185.2870  177.1930  146.8210 C   0  0  0  0  0  3  0  0  0  0  0  0
  185.2850  177.7880  144.4730 C   0  0  0  0  0  0  0  0  0  0  0  0
  185.1460  176.8270  145.4790 C   0  0  0  0  0  3  0  0  0  0  0  0
  188.7840  172.8490  141.4750 O   0  0  0  0  0  0  0  0  0  0  0  0
  189.5370  172.2670  140.4150 C   0  0  0  0  0  2  0  0  0  0  0  0
  189.6220  173.2240  139.2370 C   0  0  0  0  0  2  0  0  0  0  0  0
  188.4230  174.1780  137.6500 C   0  0  0  0  0  1  0  0  0  0  0  0
  188.3670  173.7770  138.9840 O   0  0  0  0  0  0  0  0  0  0  0  0
  2  3  1  0  0  0  0
  4 13  1  0  0  0  0
  5  4  2  0  0  0  0
  6 11  2  0  0  0  0
  6  5  1  0  0  0  0
  7  2  2  0  0  0  0
  8  7  1  0  0  0  0
  9  2  1  0  0  0  0
 10 17  1  0  0  0  0
 10 13  2  0  0  0  0
 11 10  1  0  0  0  0
 12  9  2  0  0  0  0
 13 15  1  0  0  0  0
 14 16  1  0  0  0  0
 15  1  2  0  0  0  0
 15  8  1  0  0  0  0
 16  8  2  0  0  0  0
 16 12  1  0  0  0  0
 17 14  1  0  0  0  0
 18 19  1  0  0  0  0
 18 11  1  0  0  0  0
 19 20  2  0  0  0  0
 20 21  1  0  0  0  0
 21 26  1  0  0  0  0
 22 23  1  0  0  0  0
 23 24  2  0  0  0  0
 25 24  1  0  0  0  0
 26 22  2  0  0  0  0
 26 27  1  0  0  0  0
 27 25  2  0  0  0  0
 28  6  1  0  0  0  0
 29 28  1  0  0  0  0
 30 29  1  0  0  0  0
 31 32  1  0  0  0  0
 32 30  1  0  0  0  0
M  END
>  <MODEL>
3

>  <REMARK>
 VINA RESULT:      -7.1      2.663      7.530
  Name = 
  8 active torsions:
  status: ('A' for Active; 'I' for Inactive)
    1  A    between atoms: C_4  and  C_14
    2  A    between atoms: C_4  and  C_31
    3  A    between atoms: C_12  and  O_28
    4  A    between atoms: C_15  and  C_20
    5  A    between atoms: C_18  and  O_19
    6  A    between atoms: C_18  and  C_25
    7  A    between atoms: C_20  and  C_22
    8  A    between atoms: C_25  and  O_28
                            x       y       z     vdW  Elec       q    Type
                         _______ _______ _______ _____ _____    ______ ____

>  <TORSDO>
F 8

$$$$
=
 OpenBabel11042414523D

 32 35  0  0  0  0  0  0  0  0999 V2000
  187.2320  177.1580  147.1500 O   0  0  0  0  0  0  0  0  0  0  0  0
  185.0390  178.6040  143.9960 C   0  0  0  0  0  0  0  0  0  0  0  0
  183.7130  178.9510  144.2140 O   0  0  0  0  0  1  0  0  0  0  0  0
  189.5210  175.6240  147.0340 C   0  0  0  0  0  3  0  0  0  0  0  0
  190.7930  175.0710  147.1600 C   0  0  0  0  0  3  0  0  0  0  0  0
  191.8390  175.5070  146.3400 C   0  0  0  0  0  0  0  0  0  0  0  0
  185.8070  178.0930  145.0420 C   0  0  0  0  0  3  0  0  0  0  0  0
  187.1550  177.7280  144.8590 C   0  0  0  0  0  0  0  0  0  0  0  0
  185.6040  178.7620  142.7340 C   0  0  0  0  0  3  0  0  0  0  0  0
  190.3060  177.0760  145.2650 C   0  0  0  0  0  0  0  0  0  0  0  0
  191.5950  176.5090  145.3860 C   0  0  0  0  0  0  0  0  0  0  0  0
  186.9350  178.4100  142.5230 C   0  0  0  0  0  3  0  0  0  0  0  0
  189.2500  176.6190  146.0850 C   0  0  0  0  0  0  0  0  0  0  0  0
  189.1240  177.5600  143.2120 C   0  0  0  0  0  2  0  0  0  0  0  0
  187.8690  177.1800  146.0600 C   0  0  0  0  0  0  0  0  0  0  0  0
  187.7190  177.9010  143.5640 C   0  0  0  0  0  0  0  0  0  0  0  0
  190.0670  178.1290  144.2410 C   0  0  0  0  0  2  0  0  0  0  0  0
  192.7280  176.9900  144.5290 C   0  0  0  0  0  2  0  0  0  0  0  0
  192.5980  176.4360  143.1500 C   0  0  0  0  0  3  0  0  0  0  0  0
  192.2780  175.1590  142.9730 C   0  0  0  0  0  3  0  0  0  0  0  0
  192.1510  174.6080  141.5920 C   0  0  0  0  0  2  0  0  0  0  0  0
  189.8060  174.2240  142.3730 C   0  0  0  0  0  3  0  0  0  0  0  0
  188.5220  173.7050  142.1820 C   0  0  0  0  0  3  0  0  0  0  0  0
  188.2100  173.0290  140.9980 C   0  0  0  0  0  3  0  0  0  0  0  0
  189.1820  172.8720  140.0050 C   0  0  0  0  0  3  0  0  0  0  0  0
  190.7780  174.0720  141.3780 C   0  0  0  0  0  0  0  0  0  0  0  0
  190.4660  173.3900  140.1970 C   0  0  0  0  0  3  0  0  0  0  0  0
  193.1230  174.9550  146.4540 O   0  0  0  0  0  0  0  0  0  0  0  0
  193.4970  173.7110  145.8690 C   0  0  0  0  0  2  0  0  0  0  0  0
  194.9530  173.7460  145.4350 C   0  0  0  0  0  2  0  0  0  0  0  0
  196.0900  175.2980  144.3560 C   0  0  0  0  0  1  0  0  0  0  0  0
  195.4570  175.0390  145.5710 O   0  0  0  0  0  0  0  0  0  0  0  0
  2  3  1  0  0  0  0
  2  7  1  0  0  0  0
  4  5  1  0  0  0  0
  6 28  1  0  0  0  0
  6  5  2  0  0  0  0
  8  7  2  0  0  0  0
  8 15  1  0  0  0  0
  9  2  2  0  0  0  0
 10 11  2  0  0  0  0
 10 13  1  0  0  0  0
 11  6  1  0  0  0  0
 12  9  1  0  0  0  0
 12 16  2  0  0  0  0
 13  4  2  0  0  0  0
 14 16  1  0  0  0  0
 14 17  1  0  0  0  0
 15 13  1  0  0  0  0
 15  1  2  0  0  0  0
 16  8  1  0  0  0  0
 17 10  1  0  0  0  0
 18 11  1  0  0  0  0
 19 18  1  0  0  0  0
 20 19  2  0  0  0  0
 21 20  1  0  0  0  0
 23 22  1  0  0  0  0
 24 23  2  0  0  0  0
 25 27  2  0  0  0  0
 25 24  1  0  0  0  0
 26 21  1  0  0  0  0
 26 22  2  0  0  0  0
 27 26  1  0  0  0  0
 29 28  1  0  0  0  0
 30 32  1  0  0  0  0
 30 29  1  0  0  0  0
 31 32  1  0  0  0  0
M  END
>  <MODEL>
4

>  <REMARK>
 VINA RESULT:      -7.1      1.689      2.980
  Name = 
  8 active torsions:
  status: ('A' for Active; 'I' for Inactive)
    1  A    between atoms: C_4  and  C_14
    2  A    between atoms: C_4  and  C_31
    3  A    between atoms: C_12  and  O_28
    4  A    between atoms: C_15  and  C_20
    5  A    between atoms: C_18  and  O_19
    6  A    between atoms: C_18  and  C_25
    7  A    between atoms: C_20  and  C_22
    8  A    between atoms: C_25  and  O_28
                            x       y       z     vdW  Elec       q    Type
                         _______ _______ _______ _____ _____    ______ ____

>  <TORSDO>
F 8

$$$$
=
 OpenBabel11042414523D

 32 35  0  0  0  0  0  0  0  0999 V2000
  189.3130  175.4800  141.3530 O   0  0  0  0  0  0  0  0  0  0  0  0
  190.5910  171.7130  140.3400 C   0  0  0  0  0  0  0  0  0  0  0  0
  190.8900  171.4480  139.0110 O   0  0  0  0  0  1  0  0  0  0  0  0
  187.8690  176.2150  143.5850 C   0  0  0  0  0  3  0  0  0  0  0  0
  187.3710  176.7900  144.7500 C   0  0  0  0  0  3  0  0  0  0  0  0
  187.8280  176.3650  146.0020 C   0  0  0  0  0  0  0  0  0  0  0  0
  190.1370  172.9770  140.7150 C   0  0  0  0  0  3  0  0  0  0  0  0
  189.8220  173.2820  142.0540 C   0  0  0  0  0  0  0  0  0  0  0  0
  190.7410  170.7170  141.3010 C   0  0  0  0  0  3  0  0  0  0  0  0
  189.3070  174.7710  144.8890 C   0  0  0  0  0  0  0  0  0  0  0  0
  188.7960  175.3490  146.0730 C   0  0  0  0  0  0  0  0  0  0  0  0
  190.4370  170.9890  142.6340 C   0  0  0  0  0  3  0  0  0  0  0  0
  188.8290  175.1940  143.6290 C   0  0  0  0  0  0  0  0  0  0  0  0
  189.6930  172.4200  144.4740 C   0  0  0  0  0  2  0  0  0  0  0  0
  189.3330  174.6750  142.3250 C   0  0  0  0  0  0  0  0  0  0  0  0
  189.9850  172.2550  143.0240 C   0  0  0  0  0  0  0  0  0  0  0  0
  190.3240  173.6890  144.9870 C   0  0  0  0  0  2  0  0  0  0  0  0
  189.3000  174.9160  147.4180 C   0  0  0  0  0  2  0  0  0  0  0  0
  190.7510  175.2370  147.5480 C   0  0  0  0  0  3  0  0  0  0  0  0
  191.1810  176.4750  147.3350 C   0  0  0  0  0  3  0  0  0  0  0  0
  192.6330  176.7920  147.4650 C   0  0  0  0  0  2  0  0  0  0  0  0
  194.6350  175.9160  146.2480 C   0  0  0  0  0  3  0  0  0  0  0  0
  195.3140  175.6200  145.0620 C   0  0  0  0  0  3  0  0  0  0  0  0
  194.7050  175.8690  143.8270 C   0  0  0  0  0  3  0  0  0  0  0  0
  193.4190  176.4150  143.7790 C   0  0  0  0  0  3  0  0  0  0  0  0
  193.3460  176.4580  146.2010 C   0  0  0  0  0  0  0  0  0  0  0  0
  192.7410  176.7120  144.9650 C   0  0  0  0  0  3  0  0  0  0  0  0
  187.3310  176.9330  147.1830 O   0  0  0  0  0  0  0  0  0  0  0  0
  185.9470  177.1780  147.4150 C   0  0  0  0  0  2  0  0  0  0  0  0
  185.6940  178.6650  147.5960 C   0  0  0  0  0  2  0  0  0  0  0  0
  184.2680  178.6630  145.9130 C   0  0  0  0  0  1  0  0  0  0  0  0
  185.4460  179.2580  146.3580 O   0  0  0  0  0  0  0  0  0  0  0  0
  1 15  2  0  0  0  0
  2  7  2  0  0  0  0
  2  9  1  0  0  0  0
  3  2  1  0  0  0  0
  4 13  2  0  0  0  0
  4  5  1  0  0  0  0
  5  6  2  0  0  0  0
  6 11  1  0  0  0  0
  6 28  1  0  0  0  0
  7  8  1  0  0  0  0
  8 15  1  0  0  0  0
  8 16  2  0  0  0  0
  9 12  2  0  0  0  0
 10 17  1  0  0  0  0
 10 11  2  0  0  0  0
 11 18  1  0  0  0  0
 12 16  1  0  0  0  0
 13 10  1  0  0  0  0
 14 17  1  0  0  0  0
 15 13  1  0  0  0  0
 16 14  1  0  0  0  0
 18 19  1  0  0  0  0
 20 21  1  0  0  0  0
 20 19  2  0  0  0  0
 23 22  2  0  0  0  0
 24 23  1  0  0  0  0
 25 24  2  0  0  0  0
 25 27  1  0  0  0  0
 26 22  1  0  0  0  0
 26 21  1  0  0  0  0
 27 26  2  0  0  0  0
 28 29  1  0  0  0  0
 29 30  1  0  0  0  0
 31 32  1  0  0  0  0
 32 30  1  0  0  0  0
M  END
>  <MODEL>
5

>  <REMARK>
 VINA RESULT:      -7.0      2.740      6.436
  Name = 
  8 active torsions:
  status: ('A' for Active; 'I' for Inactive)
    1  A    between atoms: C_4  and  C_14
    2  A    between atoms: C_4  and  C_31
    3  A    between atoms: C_12  and  O_28
    4  A    between atoms: C_15  and  C_20
    5  A    between atoms: C_18  and  O_19
    6  A    between atoms: C_18  and  C_25
    7  A    between atoms: C_20  and  C_22
    8  A    between atoms: C_25  and  O_28
                            x       y       z     vdW  Elec       q    Type
                         _______ _______ _______ _____ _____    ______ ____

>  <TORSDO>
F 8

$$$$
=
 OpenBabel11042414523D

 32 35  0  0  0  0  0  0  0  0999 V2000
  193.2000  172.9290  142.1870 O   0  0  0  0  0  0  0  0  0  0  0  0
  196.0710  173.3900  145.0850 C   0  0  0  0  0  0  0  0  0  0  0  0
  197.1700  172.5420  145.0710 O   0  0  0  0  0  1  0  0  0  0  0  0
  190.5710  173.7590  142.2880 C   0  0  0  0  0  3  0  0  0  0  0  0
  189.3150  174.3160  142.0690 C   0  0  0  0  0  3  0  0  0  0  0  0
  189.0540  175.6410  142.4340 C   0  0  0  0  0  0  0  0  0  0  0  0
  195.0690  173.2490  144.1250 C   0  0  0  0  0  3  0  0  0  0  0  0
  193.9380  174.0880  144.1080 C   0  0  0  0  0  0  0  0  0  0  0  0
  195.9660  174.3800  146.0570 C   0  0  0  0  0  3  0  0  0  0  0  0
  191.3520  175.8420  143.2390 C   0  0  0  0  0  0  0  0  0  0  0  0
  190.0730  176.4060  143.0260 C   0  0  0  0  0  0  0  0  0  0  0  0
  194.8590  175.2270  146.0650 C   0  0  0  0  0  3  0  0  0  0  0  0
  191.6020  174.4980  142.8840 C   0  0  0  0  0  0  0  0  0  0  0  0
  192.7180  176.0600  145.2230 C   0  0  0  0  0  2  0  0  0  0  0  0
  192.9260  173.8260  143.0320 C   0  0  0  0  0  0  0  0  0  0  0  0
  193.8480  175.0990  145.1060 C   0  0  0  0  0  0  0  0  0  0  0  0
  192.4140  176.6660  143.8760 C   0  0  0  0  0  2  0  0  0  0  0  0
  189.7940  177.8340  143.3910 C   0  0  0  0  0  2  0  0  0  0  0  0
  189.3000  177.9170  144.7960 C   0  0  0  0  0  3  0  0  0  0  0  0
  189.0030  176.8080  145.4640 C   0  0  0  0  0  3  0  0  0  0  0  0
  188.5080  176.8960  146.8680 C   0  0  0  0  0  2  0  0  0  0  0  0
  186.1210  176.7630  146.1330 C   0  0  0  0  0  3  0  0  0  0  0  0
  184.8110  177.2510  146.1350 C   0  0  0  0  0  3  0  0  0  0  0  0
  184.4880  178.3850  146.8880 C   0  0  0  0  0  3  0  0  0  0  0  0
  185.4760  179.0310  147.6380 C   0  0  0  0  0  3  0  0  0  0  0  0
  187.1090  177.4050  146.8880 C   0  0  0  0  0  0  0  0  0  0  0  0
  186.7860  178.5430  147.6350 C   0  0  0  0  0  3  0  0  0  0  0  0
  187.7910  176.2130  142.2230 O   0  0  0  0  0  0  0  0  0  0  0  0
  187.3310  176.6480  140.9470 C   0  0  0  0  0  2  0  0  0  0  0  0
  186.3320  177.7830  141.1030 C   0  0  0  0  0  2  0  0  0  0  0  0
  185.6800  178.8140  142.9410 C   0  0  0  0  0  1  0  0  0  0  0  0
  186.7710  178.6690  142.0870 O   0  0  0  0  0  0  0  0  0  0  0  0
  1 15  2  0  0  0  0
  2  9  1  0  0  0  0
  3  2  1  0  0  0  0
  4 13  1  0  0  0  0
  5  4  2  0  0  0  0
  5  6  1  0  0  0  0
  6 11  2  0  0  0  0
  7  2  2  0  0  0  0
  8  7  1  0  0  0  0
  8 16  2  0  0  0  0
  9 12  2  0  0  0  0
 10 17  1  0  0  0  0
 11 10  1  0  0  0  0
 11 18  1  0  0  0  0
 13 15  1  0  0  0  0
 13 10  2  0  0  0  0
 15  8  1  0  0  0  0
 16 14  1  0  0  0  0
 16 12  1  0  0  0  0
 17 14  1  0  0  0  0
 18 19  1  0  0  0  0
 19 20  2  0  0  0  0
 20 21  1  0  0  0  0
 21 26  1  0  0  0  0
 22 23  2  0  0  0  0
 22 26  1  0  0  0  0
 23 24  1  0  0  0  0
 24 25  2  0  0  0  0
 26 27  2  0  0  0  0
 27 25  1  0  0  0  0
 28  6  1  0  0  0  0
 29 30  1  0  0  0  0
 29 28  1  0  0  0  0
 30 32  1  0  0  0  0
 32 31  1  0  0  0  0
M  END
>  <MODEL>
6

>  <REMARK>
 VINA RESULT:      -6.9      2.701      8.481
  Name = 
  8 active torsions:
  status: ('A' for Active; 'I' for Inactive)
    1  A    between atoms: C_4  and  C_14
    2  A    between atoms: C_4  and  C_31
    3  A    between atoms: C_12  and  O_28
    4  A    between atoms: C_15  and  C_20
    5  A    between atoms: C_18  and  O_19
    6  A    between atoms: C_18  and  C_25
    7  A    between atoms: C_20  and  C_22
    8  A    between atoms: C_25  and  O_28
                            x       y       z     vdW  Elec       q    Type
                         _______ _______ _______ _____ _____    ______ ____

>  <TORSDO>
F 8

$$$$
=
 OpenBabel11042414523D

 32 35  0  0  0  0  0  0  0  0999 V2000
  194.2700  177.3520  145.3900 O   0  0  0  0  0  0  0  0  0  0  0  0
  196.1240  173.7330  145.9540 C   0  0  0  0  0  0  0  0  0  0  0  0
  197.4510  173.7230  146.3580 O   0  0  0  0  0  1  0  0  0  0  0  0
  192.0330  177.8680  143.8610 C   0  0  0  0  0  3  0  0  0  0  0  0
  190.7980  178.2570  143.3520 C   0  0  0  0  0  3  0  0  0  0  0  0
  189.6680  177.4530  143.5420 C   0  0  0  0  0  0  0  0  0  0  0  0
  195.4700  174.9450  145.7360 C   0  0  0  0  0  3  0  0  0  0  0  0
  194.1240  174.9950  145.3240 C   0  0  0  0  0  0  0  0  0  0  0  0
  195.4430  172.5340  145.7630 C   0  0  0  0  0  3  0  0  0  0  0  0
  191.0450  175.8580  144.7780 C   0  0  0  0  0  0  0  0  0  0  0  0
  189.7920  176.2480  144.2530 C   0  0  0  0  0  0  0  0  0  0  0  0
  194.1110  172.5520  145.3550 C   0  0  0  0  0  3  0  0  0  0  0  0
  192.1850  176.6660  144.5670 C   0  0  0  0  0  0  0  0  0  0  0  0
  192.0230  173.6480  144.7020 C   0  0  0  0  0  2  0  0  0  0  0  0
  193.5390  176.3610  145.1120 C   0  0  0  0  0  0  0  0  0  0  0  0
  193.4410  173.7610  145.1370 C   0  0  0  0  0  0  0  0  0  0  0  0
  191.1570  174.5730  145.5190 C   0  0  0  0  0  2  0  0  0  0  0  0
  188.5710  175.4050  144.4760 C   0  0  0  0  0  2  0  0  0  0  0  0
  187.5770  176.1510  145.3010 C   0  0  0  0  0  3  0  0  0  0  0  0
  187.9690  176.7970  146.3930 C   0  0  0  0  0  3  0  0  0  0  0  0
  186.9700  177.5410  147.2160 C   0  0  0  0  0  2  0  0  0  0  0  0
  184.6150  178.0380  146.5340 C   0  0  0  0  0  3  0  0  0  0  0  0
  183.6910  178.6660  145.6940 C   0  0  0  0  0  3  0  0  0  0  0  0
  184.1370  179.4810  144.6480 C   0  0  0  0  0  3  0  0  0  0  0  0
  185.5080  179.6670  144.4430 C   0  0  0  0  0  3  0  0  0  0  0  0
  185.9870  178.2270  146.3320 C   0  0  0  0  0  0  0  0  0  0  0  0
  186.4320  179.0380  145.2830 C   0  0  0  0  0  3  0  0  0  0  0  0
  188.4190  177.8320  143.0300 O   0  0  0  0  0  0  0  0  0  0  0  0
  188.1470  177.9580  141.6370 C   0  0  0  0  0  2  0  0  0  0  0  0
  187.0930  176.9510  141.2090 C   0  0  0  0  0  2  0  0  0  0  0  0
  185.2150  178.1090  141.1730 C   0  0  0  0  0  1  0  0  0  0  0  0
  185.9140  177.1660  141.9240 O   0  0  0  0  0  0  0  0  0  0  0  0
  2  3  1  0  0  0  0
  4 13  1  0  0  0  0
  5  6  1  0  0  0  0
  5  4  2  0  0  0  0
  6 11  2  0  0  0  0
  7  2  2  0  0  0  0
  8  7  1  0  0  0  0
  9  2  1  0  0  0  0
 10 17  1  0  0  0  0
 11 18  1  0  0  0  0
 11 10  1  0  0  0  0
 12  9  2  0  0  0  0
 13 10  2  0  0  0  0
 13 15  1  0  0  0  0
 14 16  1  0  0  0  0
 14 17  1  0  0  0  0
 15  8  1  0  0  0  0
 15  1  2  0  0  0  0
 16  8  2  0  0  0  0
 16 12  1  0  0  0  0
 18 19  1  0  0  0  0
 19 20  2  0  0  0  0
 20 21  1  0  0  0  0
 23 22  2  0  0  0  0
 24 23  1  0  0  0  0
 25 24  2  0  0  0  0
 25 27  1  0  0  0  0
 26 22  1  0  0  0  0
 26 21  1  0  0  0  0
 27 26  2  0  0  0  0
 28  6  1  0  0  0  0
 29 28  1  0  0  0  0
 30 29  1  0  0  0  0
 30 32  1  0  0  0  0
 31 32  1  0  0  0  0
M  END
>  <MODEL>
7

>  <REMARK>
 VINA RESULT:      -6.8      2.522      8.555
  Name = 
  8 active torsions:
  status: ('A' for Active; 'I' for Inactive)
    1  A    between atoms: C_4  and  C_14
    2  A    between atoms: C_4  and  C_31
    3  A    between atoms: C_12  and  O_28
    4  A    between atoms: C_15  and  C_20
    5  A    between atoms: C_18  and  O_19
    6  A    between atoms: C_18  and  C_25
    7  A    between atoms: C_20  and  C_22
    8  A    between atoms: C_25  and  O_28
                            x       y       z     vdW  Elec       q    Type
                         _______ _______ _______ _____ _____    ______ ____

>  <TORSDO>
F 8

$$$$
=
 OpenBabel11042414523D

 32 35  0  0  0  0  0  0  0  0999 V2000
  194.5790  175.8750  146.4900 O   0  0  0  0  0  0  0  0  0  0  0  0
  196.5570  176.2540  142.9130 C   0  0  0  0  0  0  0  0  0  0  0  0
  197.9410  176.3620  142.9280 O   0  0  0  0  0  1  0  0  0  0  0  0
  191.9320  176.4510  147.0090 C   0  0  0  0  0  3  0  0  0  0  0  0
  190.5910  176.4500  147.3820 C   0  0  0  0  0  3  0  0  0  0  0  0
  189.6200  175.9140  146.5300 C   0  0  0  0  0  0  0  0  0  0  0  0
  195.8530  176.1420  144.1120 C   0  0  0  0  0  3  0  0  0  0  0  0
  194.4490  176.0330  144.1370 C   0  0  0  0  0  0  0  0  0  0  0  0
  195.8700  176.2610  141.7030 C   0  0  0  0  0  3  0  0  0  0  0  0
  191.3730  175.3680  144.9190 C   0  0  0  0  0  0  0  0  0  0  0  0
  190.0090  175.3750  145.2930 C   0  0  0  0  0  0  0  0  0  0  0  0
  194.4800  176.1550  141.6960 C   0  0  0  0  0  3  0  0  0  0  0  0
  192.3460  175.9260  145.7770 C   0  0  0  0  0  0  0  0  0  0  0  0
  192.2840  175.9330  142.7520 C   0  0  0  0  0  2  0  0  0  0  0  0
  193.8100  175.9300  145.4910 C   0  0  0  0  0  0  0  0  0  0  0  0
  193.7620  176.0370  142.8910 C   0  0  0  0  0  0  0  0  0  0  0  0
  191.7630  174.8010  143.6000 C   0  0  0  0  0  2  0  0  0  0  0  0
  188.9650  174.7780  144.3960 C   0  0  0  0  0  2  0  0  0  0  0  0
  188.6650  175.7080  143.2700 C   0  0  0  0  0  3  0  0  0  0  0  0
  188.7340  177.0210  143.4540 C   0  0  0  0  0  3  0  0  0  0  0  0
  188.4300  177.9480  142.3240 C   0  0  0  0  0  2  0  0  0  0  0  0
  186.4260  178.0830  140.8340 C   0  0  0  0  0  3  0  0  0  0  0  0
  185.0460  178.2000  140.6470 C   0  0  0  0  0  3  0  0  0  0  0  0
  184.1950  178.2900  141.7540 C   0  0  0  0  0  3  0  0  0  0  0  0
  184.7260  178.2640  143.0470 C   0  0  0  0  0  3  0  0  0  0  0  0
  186.9580  178.0520  142.1280 C   0  0  0  0  0  0  0  0  0  0  0  0
  186.1060  178.1480  143.2340 C   0  0  0  0  0  3  0  0  0  0  0  0
  188.2650  175.9120  146.8910 O   0  0  0  0  0  0  0  0  0  0  0  0
  187.4170  177.0500  146.7650 C   0  0  0  0  0  2  0  0  0  0  0  0
  186.0440  176.7560  147.3450 C   0  0  0  0  0  2  0  0  0  0  0  0
  184.4560  178.2040  146.8480 C   0  0  0  0  0  1  0  0  0  0  0  0
  185.0590  177.0320  146.3960 O   0  0  0  0  0  0  0  0  0  0  0  0
  2  3  1  0  0  0  0
  2  7  1  0  0  0  0
  4  5  1  0  0  0  0
  6 28  1  0  0  0  0
  6  5  2  0  0  0  0
  7  8  2  0  0  0  0
  8 15  1  0  0  0  0
  9  2  2  0  0  0  0
 10 11  2  0  0  0  0
 10 13  1  0  0  0  0
 11  6  1  0  0  0  0
 12  9  1  0  0  0  0
 12 16  2  0  0  0  0
 13  4  2  0  0  0  0
 14 16  1  0  0  0  0
 14 17  1  0  0  0  0
 15 13  1  0  0  0  0
 15  1  2  0  0  0  0
 16  8  1  0  0  0  0
 17 10  1  0  0  0  0
 18 11  1  0  0  0  0
 19 20  2  0  0  0  0
 19 18  1  0  0  0  0
 21 20  1  0  0  0  0
 22 26  1  0  0  0  0
 23 22  2  0  0  0  0
 23 24  1  0  0  0  0
 24 25  2  0  0  0  0
 25 27  1  0  0  0  0
 26 21  1  0  0  0  0
 26 27  2  0  0  0  0
 29 28  1  0  0  0  0
 29 30  1  0  0  0  0
 32 31  1  0  0  0  0
 32 30  1  0  0  0  0
M  END
>  <MODEL>
8

>  <REMARK>
 VINA RESULT:      -6.8      2.426      7.607
  Name = 
  8 active torsions:
  status: ('A' for Active; 'I' for Inactive)
    1  A    between atoms: C_4  and  C_14
    2  A    between atoms: C_4  and  C_31
    3  A    between atoms: C_12  and  O_28
    4  A    between atoms: C_15  and  C_20
    5  A    between atoms: C_18  and  O_19
    6  A    between atoms: C_18  and  C_25
    7  A    between atoms: C_20  and  C_22
    8  A    between atoms: C_25  and  O_28
                            x       y       z     vdW  Elec       q    Type
                         _______ _______ _______ _____ _____    ______ ____

>  <TORSDO>
F 8

$$$$
=
 OpenBabel11042414523D

 32 35  0  0  0  0  0  0  0  0999 V2000
  183.8390  178.7050  145.4220 O   0  0  0  0  0  0  0  0  0  0  0  0
  182.3680  178.6940  141.5890 C   0  0  0  0  0  0  0  0  0  0  0  0
  181.0620  179.1150  141.3780 O   0  0  0  0  0  1  0  0  0  0  0  0
  185.9600  177.2420  146.4050 C   0  0  0  0  0  3  0  0  0  0  0  0
  187.1330  176.7820  146.9960 C   0  0  0  0  0  3  0  0  0  0  0  0
  188.3420  176.8150  146.2910 C   0  0  0  0  0  0  0  0  0  0  0  0
  182.8920  178.6680  142.8810 C   0  0  0  0  0  3  0  0  0  0  0  0
  184.2120  178.2450  143.1350 C   0  0  0  0  0  0  0  0  0  0  0  0
  183.1540  178.2940  140.5130 C   0  0  0  0  0  3  0  0  0  0  0  0
  187.1710  177.7940  144.3840 C   0  0  0  0  0  0  0  0  0  0  0  0
  188.3610  177.3180  144.9800 C   0  0  0  0  0  0  0  0  0  0  0  0
  184.4640  177.8700  140.7330 C   0  0  0  0  0  3  0  0  0  0  0  0
  185.9510  177.7400  145.0950 C   0  0  0  0  0  0  0  0  0  0  0  0
  186.4110  177.3700  142.1280 C   0  0  0  0  0  2  0  0  0  0  0  0
  184.6530  178.2530  144.5690 C   0  0  0  0  0  0  0  0  0  0  0  0
  185.0040  177.8440  142.0230 C   0  0  0  0  0  0  0  0  0  0  0  0
  187.2110  178.3130  142.9900 C   0  0  0  0  0  2  0  0  0  0  0  0
  189.6650  177.3760  144.2400 C   0  0  0  0  0  2  0  0  0  0  0  0
  190.0540  176.0110  143.7810 C   0  0  0  0  0  3  0  0  0  0  0  0
  189.1250  175.1580  143.3650 C   0  0  0  0  0  3  0  0  0  0  0  0
  189.5190  173.7940  142.9070 C   0  0  0  0  0  2  0  0  0  0  0  0
  188.5100  174.6290  140.7770 C   0  0  0  0  0  3  0  0  0  0  0  0
  188.2010  174.4680  139.4230 C   0  0  0  0  0  3  0  0  0  0  0  0
  188.5890  173.3040  138.7510 C   0  0  0  0  0  3  0  0  0  0  0  0
  189.2840  172.3010  139.4340 C   0  0  0  0  0  3  0  0  0  0  0  0
  189.2090  173.6290  141.4600 C   0  0  0  0  0  0  0  0  0  0  0  0
  189.5910  172.4620  140.7890 C   0  0  0  0  0  3  0  0  0  0  0  0
  189.5300  176.3500  146.8740 O   0  0  0  0  0  0  0  0  0  0  0  0
  190.4080  177.1780  147.6310 C   0  0  0  0  0  2  0  0  0  0  0  0
  191.8390  176.6800  147.5130 C   0  0  0  0  0  2  0  0  0  0  0  0
  193.1460  175.2210  146.4970 C   0  0  0  0  0  1  0  0  0  0  0  0
  191.8500  175.3900  146.9820 O   0  0  0  0  0  0  0  0  0  0  0  0
  2  7  1  0  0  0  0
  3  2  1  0  0  0  0
  4  5  1  0  0  0  0
  6 28  1  0  0  0  0
  6  5  2  0  0  0  0
  7  8  2  0  0  0  0
  8 15  1  0  0  0  0
  9 12  1  0  0  0  0
  9  2  2  0  0  0  0
 10 11  2  0  0  0  0
 10 13  1  0  0  0  0
 11  6  1  0  0  0  0
 12 16  2  0  0  0  0
 13  4  2  0  0  0  0
 14 17  1  0  0  0  0
 15 13  1  0  0  0  0
 15  1  2  0  0  0  0
 16 14  1  0  0  0  0
 16  8  1  0  0  0  0
 17 10  1  0  0  0  0
 18 11  1  0  0  0  0
 19 18  1  0  0  0  0
 20 19  2  0  0  0  0
 21 20  1  0  0  0  0
 22 26  1  0  0  0  0
 23 22  2  0  0  0  0
 24 23  1  0  0  0  0
 24 25  2  0  0  0  0
 25 27  1  0  0  0  0
 26 21  1  0  0  0  0
 27 26  2  0  0  0  0
 28 29  1  0  0  0  0
 30 29  1  0  0  0  0
 31 32  1  0  0  0  0
 32 30  1  0  0  0  0
M  END
>  <MODEL>
9

>  <REMARK>
 VINA RESULT:      -6.8      1.201      1.659
  Name = 
  8 active torsions:
  status: ('A' for Active; 'I' for Inactive)
    1  A    between atoms: C_4  and  C_14
    2  A    between atoms: C_4  and  C_31
    3  A    between atoms: C_12  and  O_28
    4  A    between atoms: C_15  and  C_20
    5  A    between atoms: C_18  and  O_19
    6  A    between atoms: C_18  and  C_25
    7  A    between atoms: C_20  and  C_22
    8  A    between atoms: C_25  and  O_28
                            x       y       z     vdW  Elec       q    Type
                         _______ _______ _______ _____ _____    ______ ____

>  <TORSDO>
F 8

$$$$
