=
 OpenBabel11042418223D

 37 40  0  0  1  0  0  0  0  0999 V2000
  185.6250  177.3110  142.2760 C   0  0  0  0  0  3  0  0  0  0  0  0
  185.8370  177.9430  144.9540 C   0  0  0  0  0  0  0  0  0  0  0  0
  187.9970  176.4080  142.2540 C   0  0  0  0  0  0  0  0  0  0  0  0
  189.1890  176.3780  142.8710 C   0  0  0  0  0  3  0  0  0  0  0  0
  190.5710  176.9400  144.7400 C   0  0  0  0  0  0  0  0  0  0  0  0
  186.8280  177.0100  142.9690 C   0  0  0  0  0  0  0  0  0  0  0  0
  183.3550  178.1870  142.1360 C   0  0  0  0  0  1  0  0  0  0  0  0
  184.6610  178.2150  144.2080 C   0  0  0  0  0  0  0  0  0  0  0  0
  189.3670  176.8540  144.2480 C   0  0  0  0  0  0  0  0  0  0  0  0
  188.1780  177.0330  145.1450 C   0  0  1  0  0  3  0  0  0  0  0  0
  183.7230  178.7900  144.9750 N   0  0  0  0  0  0  0  0  0  0  0  0
  185.5970  178.3720  146.2390 C   0  0  0  0  0  3  0  0  0  0  0  0
  184.5590  177.9010  142.8950 N   0  0  0  0  0  0  0  0  0  0  0  0
  186.9380  177.3440  144.3490 C   0  0  0  0  0  0  0  0  0  0  0  0
  184.2930  178.8840  146.2050 C   0  0  0  0  0  3  0  0  0  0  0  0
  191.7780  177.0270  145.2210 C   0  0  0  0  0  3  0  0  0  0  0  0
  188.3780  174.6650  140.5580 C   0  0  0  0  0  3  0  0  0  0  0  0
  187.2790  176.6190  139.8650 O   0  0  0  0  0  1  0  0  0  0  0  0
  187.8930  175.8720  140.8640 C   0  0  0  0  0  0  0  0  0  0  0  0
  188.2980  174.0840  139.1830 C   0  0  0  0  0  2  0  0  0  0  0  0
  189.3660  172.1790  139.4570 C   0  0  0  0  0  1  0  0  0  0  0  0
  188.0940  172.7070  139.2570 O   0  0  0  0  0  0  0  0  0  0  0  0
  187.9760  175.8710  145.8940 O   0  0  0  0  0  0  0  0  0  0  0  0
  188.2840  176.2210  147.1630 N   0  0  0  0  0  1  0  0  0  0  0  0
  192.3360  175.9200  146.0420 C   0  0  0  0  0  2  0  0  0  0  0  0
  193.5340  175.3410  145.3670 C   0  0  0  0  0  0  0  0  0  0  0  0
  194.7920  173.9310  144.2610 N   0  0  0  0  0  0  0  0  0  0  0  0
  195.0480  177.2920  145.4420 O   0  0  0  0  0  1  0  0  0  0  0  0
  194.7180  175.9880  145.1000 C   0  0  0  0  0  0  0  0  0  0  0  0
  193.6100  174.1050  144.8360 N   0  0  0  0  0  0  0  0  0  0  0  0
  195.4940  175.0740  144.4090 C   0  0  0  0  0  0  0  0  0  0  0  0
  196.8570  175.2680  143.8920 C   0  0  0  0  0  0  0  0  0  0  0  0
  197.1220  176.2830  143.1940 O   0  0  0  0  0  0  0  0  0  0  0  0
  197.9410  174.2870  144.1780 C   0  0  0  0  0  1  0  0  0  0  0  0
  192.5680  173.0860  144.8690 C   0  0  0  0  0  2  0  0  0  0  0  0
  190.1170  173.1800  144.4010 C   0  0  0  0  0  1  0  0  0  0  0  0
  191.5050  173.3680  143.8200 C   0  0  0  0  0  2  0  0  0  0  0  0
  1 13  1  0  0  0  0
  1  6  2  0  0  0  0
  2 12  1  0  0  0  0
  3  4  2  0  0  0  0
  3  6  1  0  0  0  0
  4  9  1  0  0  0  0
  5 16  2  0  0  0  0
  6 14  1  0  0  0  0
  7 13  1  0  0  0  0
  8  2  1  0  0  0  0
  8 11  2  0  0  0  0
  9  5  2  0  0  0  0
  9 10  1  0  0  0  0
 10 23  1  6  0  0  0
 11 15  1  0  0  0  0
 13  8  1  0  0  0  0
 14  2  2  0  0  0  0
 14 10  1  0  0  0  0
 15 12  2  0  0  0  0
 16 25  1  0  0  0  0
 17 19  2  0  0  0  0
 18 19  1  0  0  0  0
 19  3  1  0  0  0  0
 20 22  1  0  0  0  0
 20 17  1  0  0  0  0
 22 21  1  0  0  0  0
 23 24  1  0  0  0  0
 26 25  1  0  0  0  0
 27 31  2  0  0  0  0
 27 30  1  0  0  0  0
 29 26  2  0  0  0  0
 29 28  1  0  0  0  0
 30 35  1  0  0  0  0
 30 26  1  0  0  0  0
 31 29  1  0  0  0  0
 32 34  1  0  0  0  0
 32 31  1  0  0  0  0
 33 32  2  0  0  0  0
 37 36  1  0  0  0  0
 37 35  1  0  0  0  0
M  END
>  <MODEL>
1

>  <REMARK>
 VINA RESULT:      -7.6      0.000      0.000
  Name = 
  9 active torsions:
  status: ('A' for Active; 'I' for Inactive)
    1  A    between atoms: C_3  and  C_27
    2  A    between atoms: C_4  and  C_13
    3  A    between atoms: C_4  and  C_37
    4  A    between atoms: C_5  and  N_25
    5  A    between atoms: C_5  and  C_33
    6  A    between atoms: C_6  and  C_18
    7  A    between atoms: O_7  and  C_29
    8  A    between atoms: C_12  and  C_26
    9  A    between atoms: O_21  and  C_27
                            x       y       z     vdW  Elec       q    Type
                         _______ _______ _______ _____ _____    ______ ____

>  <TORSDO>
F 9

$$$$
=
 OpenBabel11042418223D

 37 40  0  0  1  0  0  0  0  0999 V2000
  187.2360  177.3280  146.2440 C   0  0  0  0  0  3  0  0  0  0  0  0
  185.6970  177.6250  143.9720 C   0  0  0  0  0  0  0  0  0  0  0  0
  188.8490  175.8070  145.0070 C   0  0  0  0  0  0  0  0  0  0  0  0
  189.0480  175.0190  143.9380 C   0  0  0  0  0  3  0  0  0  0  0  0
  188.3100  174.1510  141.8360 C   0  0  0  0  0  0  0  0  0  0  0  0
  187.6370  176.6850  145.0420 C   0  0  0  0  0  0  0  0  0  0  0  0
  185.7480  178.7310  147.5690 C   0  0  0  0  0  1  0  0  0  0  0  0
  185.3510  178.2440  145.2020 C   0  0  0  0  0  0  0  0  0  0  0  0
  188.1540  175.0420  142.7750 C   0  0  0  0  0  0  0  0  0  0  0  0
  187.2180  176.1950  142.5640 C   0  0  1  0  0  3  0  0  0  0  0  0
  184.2230  178.9600  145.0830 N   0  0  0  0  0  0  0  0  0  0  0  0
  184.7310  177.9880  143.0630 C   0  0  0  0  0  3  0  0  0  0  0  0
  186.1100  178.0990  146.3130 N   0  0  0  0  0  0  0  0  0  0  0  0
  186.8370  176.8330  143.8730 C   0  0  0  0  0  0  0  0  0  0  0  0
  183.8500  178.8030  143.7860 C   0  0  0  0  0  3  0  0  0  0  0  0
  188.4710  173.2540  140.9050 C   0  0  0  0  0  3  0  0  0  0  0  0
  190.9420  176.4830  146.1130 C   0  0  0  0  0  3  0  0  0  0  0  0
  189.5830  174.9340  147.2360 O   0  0  0  0  0  1  0  0  0  0  0  0
  189.8260  175.7490  146.1360 C   0  0  0  0  0  0  0  0  0  0  0  0
  191.9490  176.4610  147.2160 C   0  0  0  0  0  2  0  0  0  0  0  0
  194.0360  176.5660  146.5250 C   0  0  0  0  0  1  0  0  0  0  0  0
  193.0330  175.6620  146.8590 O   0  0  0  0  0  0  0  0  0  0  0  0
  187.8230  177.1450  141.7370 O   0  0  0  0  0  0  0  0  0  0  0  0
  187.0940  177.1250  140.5980 N   0  0  0  0  0  1  0  0  0  0  0  0
  189.2700  173.5730  139.6930 C   0  0  0  0  0  2  0  0  0  0  0  0
  190.4410  172.6520  139.6010 C   0  0  0  0  0  0  0  0  0  0  0  0
  192.4390  171.8230  139.9420 N   0  0  0  0  0  0  0  0  0  0  0  0
  189.4220  170.7930  138.3320 O   0  0  0  0  0  1  0  0  0  0  0  0
  190.4660  171.4130  139.0030 C   0  0  0  0  0  0  0  0  0  0  0  0
  191.6450  172.8620  140.1670 N   0  0  0  0  0  0  0  0  0  0  0  0
  191.7380  170.9180  139.2280 C   0  0  0  0  0  0  0  0  0  0  0  0
  192.2840  169.6230  138.7920 C   0  0  0  0  0  0  0  0  0  0  0  0
  192.4270  168.6920  139.6280 O   0  0  0  0  0  0  0  0  0  0  0  0
  192.6730  169.3850  137.3730 C   0  0  0  0  0  1  0  0  0  0  0  0
  192.0500  174.0410  140.9230 C   0  0  0  0  0  2  0  0  0  0  0  0
  192.7130  174.9020  143.1720 C   0  0  0  0  0  1  0  0  0  0  0  0
  192.1320  173.7280  142.4080 C   0  0  0  0  0  2  0  0  0  0  0  0
  1 13  1  0  0  0  0
  2  8  1  0  0  0  0
  3  6  1  0  0  0  0
  3 19  1  0  0  0  0
  4  3  2  0  0  0  0
  5  9  2  0  0  0  0
  6  1  2  0  0  0  0
  8 13  1  0  0  0  0
  9  4  1  0  0  0  0
 10 23  1  6  0  0  0
 10  9  1  0  0  0  0
 10 14  1  0  0  0  0
 11  8  2  0  0  0  0
 12 15  2  0  0  0  0
 12  2  1  0  0  0  0
 13  7  1  0  0  0  0
 14  2  2  0  0  0  0
 14  6  1  0  0  0  0
 15 11  1  0  0  0  0
 16  5  2  0  0  0  0
 17 19  2  0  0  0  0
 17 20  1  0  0  0  0
 19 18  1  0  0  0  0
 21 22  1  0  0  0  0
 22 20  1  0  0  0  0
 24 23  1  0  0  0  0
 25 16  1  0  0  0  0
 26 25  1  0  0  0  0
 26 30  1  0  0  0  0
 27 30  1  0  0  0  0
 28 29  1  0  0  0  0
 29 31  1  0  0  0  0
 29 26  2  0  0  0  0
 30 35  1  0  0  0  0
 31 27  2  0  0  0  0
 32 31  1  0  0  0  0
 32 33  2  0  0  0  0
 34 32  1  0  0  0  0
 35 37  1  0  0  0  0
 37 36  1  0  0  0  0
M  END
>  <MODEL>
2

>  <REMARK>
 VINA RESULT:      -7.2      2.513      6.084
  Name = 
  9 active torsions:
  status: ('A' for Active; 'I' for Inactive)
    1  A    between atoms: C_3  and  C_27
    2  A    between atoms: C_4  and  C_13
    3  A    between atoms: C_4  and  C_37
    4  A    between atoms: C_5  and  N_25
    5  A    between atoms: C_5  and  C_33
    6  A    between atoms: C_6  and  C_18
    7  A    between atoms: O_7  and  C_29
    8  A    between atoms: C_12  and  C_26
    9  A    between atoms: O_21  and  C_27
                            x       y       z     vdW  Elec       q    Type
                         _______ _______ _______ _____ _____    ______ ____

>  <TORSDO>
F 9

$$$$
=
 OpenBabel11042418223D

 37 40  0  0  1  0  0  0  0  0999 V2000
  185.7700  177.2580  142.3580 C   0  0  0  0  0  3  0  0  0  0  0  0
  186.0040  177.8730  145.0380 C   0  0  0  0  0  0  0  0  0  0  0  0
  188.0990  176.2470  142.3400 C   0  0  0  0  0  0  0  0  0  0  0  0
  189.2860  176.1600  142.9600 C   0  0  0  0  0  3  0  0  0  0  0  0
  190.6870  176.6540  144.8340 C   0  0  0  0  0  0  0  0  0  0  0  0
  186.9560  176.9000  143.0530 C   0  0  0  0  0  0  0  0  0  0  0  0
  183.5430  178.2380  142.2140 C   0  0  0  0  0  1  0  0  0  0  0  0
  184.8430  178.2010  144.2890 C   0  0  0  0  0  0  0  0  0  0  0  0
  189.4820  176.6240  144.3390 C   0  0  0  0  0  0  0  0  0  0  0  0
  188.3000  176.8560  145.2330 C   0  0  1  0  0  3  0  0  0  0  0  0
  183.9310  178.8170  145.0550 N   0  0  0  0  0  0  0  0  0  0  0  0
  185.7800  178.3090  146.3230 C   0  0  0  0  0  3  0  0  0  0  0  0
  184.7310  177.8950  142.9750 N   0  0  0  0  0  0  0  0  0  0  0  0
  187.0780  177.2260  144.4340 C   0  0  0  0  0  0  0  0  0  0  0  0
  184.5010  178.8810  146.2870 C   0  0  0  0  0  3  0  0  0  0  0  0
  191.8960  176.6840  145.3190 C   0  0  0  0  0  3  0  0  0  0  0  0
  188.4270  174.5020  140.6340 C   0  0  0  0  0  3  0  0  0  0  0  0
  187.3730  176.4860  139.9550 O   0  0  0  0  0  1  0  0  0  0  0  0
  187.9740  175.7190  140.9480 C   0  0  0  0  0  0  0  0  0  0  0  0
  188.3250  173.9290  139.2580 C   0  0  0  0  0  2  0  0  0  0  0  0
  189.2630  171.9710  138.8920 C   0  0  0  0  0  1  0  0  0  0  0  0
  188.0790  172.5590  139.3270 O   0  0  0  0  0  0  0  0  0  0  0  0
  188.0420  175.7030  145.9780 O   0  0  0  0  0  0  0  0  0  0  0  0
  188.3810  176.0290  147.2460 N   0  0  0  0  0  1  0  0  0  0  0  0
  192.4000  175.5510  146.1380 C   0  0  0  0  0  2  0  0  0  0  0  0
  192.7400  174.3970  145.2550 C   0  0  0  0  0  0  0  0  0  0  0  0
  193.9350  172.9810  144.0880 N   0  0  0  0  0  0  0  0  0  0  0  0
  190.5280  173.3050  145.1100 O   0  0  0  0  0  1  0  0  0  0  0  0
  191.8840  173.4070  144.8330 C   0  0  0  0  0  0  0  0  0  0  0  0
  193.9720  174.1020  144.7960 N   0  0  0  0  0  0  0  0  0  0  0  0
  192.6620  172.5320  144.0950 C   0  0  0  0  0  0  0  0  0  0  0  0
  192.2280  171.3010  143.4180 C   0  0  0  0  0  0  0  0  0  0  0  0
  191.3610  171.3630  142.5060 O   0  0  0  0  0  0  0  0  0  0  0  0
  192.7940  169.9730  143.7870 C   0  0  0  0  0  1  0  0  0  0  0  0
  195.1870  174.8750  145.0260 C   0  0  0  0  0  2  0  0  0  0  0  0
  197.5290  174.0330  145.2210 C   0  0  0  0  0  1  0  0  0  0  0  0
  196.1680  174.0960  145.8850 C   0  0  0  0  0  2  0  0  0  0  0  0
  1 13  1  0  0  0  0
  1  6  2  0  0  0  0
  2 12  1  0  0  0  0
  3  4  2  0  0  0  0
  3  6  1  0  0  0  0
  4  9  1  0  0  0  0
  5 16  2  0  0  0  0
  6 14  1  0  0  0  0
  7 13  1  0  0  0  0
  8  2  1  0  0  0  0
  8 11  2  0  0  0  0
  9  5  2  0  0  0  0
  9 10  1  0  0  0  0
 10 23  1  6  0  0  0
 11 15  1  0  0  0  0
 13  8  1  0  0  0  0
 14  2  2  0  0  0  0
 14 10  1  0  0  0  0
 15 12  2  0  0  0  0
 16 25  1  0  0  0  0
 17 19  2  0  0  0  0
 18 19  1  0  0  0  0
 19  3  1  0  0  0  0
 20 22  1  0  0  0  0
 20 17  1  0  0  0  0
 21 22  1  0  0  0  0
 23 24  1  0  0  0  0
 26 25  1  0  0  0  0
 27 31  2  0  0  0  0
 27 30  1  0  0  0  0
 29 28  1  0  0  0  0
 29 26  2  0  0  0  0
 30 35  1  0  0  0  0
 30 26  1  0  0  0  0
 31 29  1  0  0  0  0
 32 34  1  0  0  0  0
 32 31  1  0  0  0  0
 33 32  2  0  0  0  0
 35 37  1  0  0  0  0
 36 37  1  0  0  0  0
M  END
>  <MODEL>
3

>  <REMARK>
 VINA RESULT:      -7.2      1.716      2.868
  Name = 
  9 active torsions:
  status: ('A' for Active; 'I' for Inactive)
    1  A    between atoms: C_3  and  C_27
    2  A    between atoms: C_4  and  C_13
    3  A    between atoms: C_4  and  C_37
    4  A    between atoms: C_5  and  N_25
    5  A    between atoms: C_5  and  C_33
    6  A    between atoms: C_6  and  C_18
    7  A    between atoms: O_7  and  C_29
    8  A    between atoms: C_12  and  C_26
    9  A    between atoms: O_21  and  C_27
                            x       y       z     vdW  Elec       q    Type
                         _______ _______ _______ _____ _____    ______ ____

>  <TORSDO>
F 9

$$$$
=
 OpenBabel11042418223D

 37 40  0  0  1  0  0  0  0  0999 V2000
  187.3560  177.3020  146.1380 C   0  0  0  0  0  3  0  0  0  0  0  0
  185.7540  177.5840  143.9090 C   0  0  0  0  0  0  0  0  0  0  0  0
  188.9020  175.7270  144.8840 C   0  0  0  0  0  0  0  0  0  0  0  0
  189.0540  174.9150  143.8250 C   0  0  0  0  0  3  0  0  0  0  0  0
  188.2350  174.0200  141.7640 C   0  0  0  0  0  0  0  0  0  0  0  0
  187.7080  176.6290  144.9380 C   0  0  0  0  0  0  0  0  0  0  0  0
  185.9360  178.7590  147.4800 C   0  0  0  0  0  1  0  0  0  0  0  0
  185.4570  178.2340  145.1360 C   0  0  0  0  0  0  0  0  0  0  0  0
  188.1250  174.9320  142.6890 C   0  0  0  0  0  0  0  0  0  0  0  0
  187.2040  176.0980  142.4840 C   0  0  1  0  0  3  0  0  0  0  0  0
  184.3400  178.9690  145.0370 N   0  0  0  0  0  0  0  0  0  0  0  0
  184.7670  177.9480  143.0230 C   0  0  0  0  0  3  0  0  0  0  0  0
  186.2480  178.0950  146.2270 N   0  0  0  0  0  0  0  0  0  0  0  0
  186.8750  176.7690  143.7910 C   0  0  0  0  0  0  0  0  0  0  0  0
  183.9240  178.7930  143.7560 C   0  0  0  0  0  3  0  0  0  0  0  0
  188.3510  173.1030  140.8470 C   0  0  0  0  0  3  0  0  0  0  0  0
  191.0220  176.4130  145.9290 C   0  0  0  0  0  3  0  0  0  0  0  0
  189.7060  174.8540  147.0880 O   0  0  0  0  0  1  0  0  0  0  0  0
  189.9120  175.6720  145.9830 C   0  0  0  0  0  0  0  0  0  0  0  0
  192.0620  176.3950  147.0030 C   0  0  0  0  0  2  0  0  0  0  0  0
  194.2090  176.4430  146.5210 C   0  0  0  0  0  1  0  0  0  0  0  0
  193.1250  175.5770  146.6250 O   0  0  0  0  0  0  0  0  0  0  0  0
  187.8010  177.0210  141.6200 O   0  0  0  0  0  0  0  0  0  0  0  0
  187.0470  176.9800  140.4980 N   0  0  0  0  0  1  0  0  0  0  0  0
  189.1190  173.3830  139.6050 C   0  0  0  0  0  2  0  0  0  0  0  0
  190.4000  172.6170  139.6160 C   0  0  0  0  0  0  0  0  0  0  0  0
  191.8730  171.0640  139.1550 N   0  0  0  0  0  0  0  0  0  0  0  0
  191.8200  174.1830  140.8950 O   0  0  0  0  0  1  0  0  0  0  0  0
  191.5870  173.0140  140.1850 C   0  0  0  0  0  0  0  0  0  0  0  0
  190.6110  171.4410  138.9940 N   0  0  0  0  0  0  0  0  0  0  0  0
  192.4950  172.0140  139.8840 C   0  0  0  0  0  0  0  0  0  0  0  0
  193.9150  171.9520  140.2640 C   0  0  0  0  0  0  0  0  0  0  0  0
  194.8030  172.0440  139.3760 O   0  0  0  0  0  0  0  0  0  0  0  0
  194.3300  171.7820  141.6850 C   0  0  0  0  0  1  0  0  0  0  0  0
  189.6260  170.6710  138.2440 C   0  0  0  0  0  2  0  0  0  0  0  0
  189.4940  171.3600  135.8470 C   0  0  0  0  0  1  0  0  0  0  0  0
  190.1190  170.3930  136.8330 C   0  0  0  0  0  2  0  0  0  0  0  0
  1 13  1  0  0  0  0
  2  8  1  0  0  0  0
  3  6  1  0  0  0  0
  3 19  1  0  0  0  0
  4  3  2  0  0  0  0
  5  9  2  0  0  0  0
  6  1  2  0  0  0  0
  8 13  1  0  0  0  0
  9  4  1  0  0  0  0
 10 23  1  6  0  0  0
 10  9  1  0  0  0  0
 10 14  1  0  0  0  0
 11  8  2  0  0  0  0
 12 15  2  0  0  0  0
 12  2  1  0  0  0  0
 13  7  1  0  0  0  0
 14  2  2  0  0  0  0
 14  6  1  0  0  0  0
 15 11  1  0  0  0  0
 16  5  2  0  0  0  0
 17 19  2  0  0  0  0
 17 20  1  0  0  0  0
 19 18  1  0  0  0  0
 21 22  1  0  0  0  0
 22 20  1  0  0  0  0
 24 23  1  0  0  0  0
 25 26  1  0  0  0  0
 25 16  1  0  0  0  0
 26 29  2  0  0  0  0
 27 31  2  0  0  0  0
 29 28  1  0  0  0  0
 30 27  1  0  0  0  0
 30 26  1  0  0  0  0
 31 29  1  0  0  0  0
 31 32  1  0  0  0  0
 32 34  1  0  0  0  0
 33 32  2  0  0  0  0
 35 30  1  0  0  0  0
 36 37  1  0  0  0  0
 37 35  1  0  0  0  0
M  END
>  <MODEL>
4

>  <REMARK>
 VINA RESULT:      -7.0      2.851      5.840
  Name = 
  9 active torsions:
  status: ('A' for Active; 'I' for Inactive)
    1  A    between atoms: C_3  and  C_27
    2  A    between atoms: C_4  and  C_13
    3  A    between atoms: C_4  and  C_37
    4  A    between atoms: C_5  and  N_25
    5  A    between atoms: C_5  and  C_33
    6  A    between atoms: C_6  and  C_18
    7  A    between atoms: O_7  and  C_29
    8  A    between atoms: C_12  and  C_26
    9  A    between atoms: O_21  and  C_27
                            x       y       z     vdW  Elec       q    Type
                         _______ _______ _______ _____ _____    ______ ____

>  <TORSDO>
F 9

$$$$
=
 OpenBabel11042418223D

 37 40  0  0  1  0  0  0  0  0999 V2000
  193.5670  171.9740  143.2020 C   0  0  0  0  0  3  0  0  0  0  0  0
  194.4300  173.8590  145.0240 C   0  0  0  0  0  0  0  0  0  0  0  0
  191.2030  172.8940  143.3010 C   0  0  0  0  0  0  0  0  0  0  0  0
  190.3200  173.6390  143.9850 C   0  0  0  0  0  3  0  0  0  0  0  0
  189.8170  175.1190  145.7950 C   0  0  0  0  0  0  0  0  0  0  0  0
  192.6440  172.9310  143.7040 C   0  0  0  0  0  0  0  0  0  0  0  0
  195.7750  170.9560  143.0410 C   0  0  0  0  0  1  0  0  0  0  0  0
  195.3040  172.8800  144.4830 C   0  0  0  0  0  0  0  0  0  0  0  0
  190.7310  174.5380  145.0690 C   0  0  0  0  0  0  0  0  0  0  0  0
  192.1670  174.9500  145.2050 C   0  0  1  0  0  3  0  0  0  0  0  0
  196.5460  173.0170  144.9700 N   0  0  0  0  0  0  0  0  0  0  0  0
  195.1830  174.6300  145.8780 C   0  0  0  0  0  3  0  0  0  0  0  0
  194.8770  171.9580  143.5870 N   0  0  0  0  0  0  0  0  0  0  0  0
  193.0900  173.8970  144.6500 C   0  0  0  0  0  0  0  0  0  0  0  0
  196.4690  174.0780  145.8150 C   0  0  0  0  0  3  0  0  0  0  0  0
  188.8970  175.6920  146.5160 C   0  0  0  0  0  3  0  0  0  0  0  0
  190.6240  172.5020  140.9410 C   0  0  0  0  0  3  0  0  0  0  0  0
  190.3310  170.7140  142.4320 O   0  0  0  0  0  1  0  0  0  0  0  0
  190.7070  172.0310  142.1880 C   0  0  0  0  0  0  0  0  0  0  0  0
  190.1350  171.6790  139.7940 C   0  0  0  0  0  2  0  0  0  0  0  0
  190.0880  173.2730  138.2760 C   0  0  0  0  0  1  0  0  0  0  0  0
  189.2610  172.4260  139.0070 O   0  0  0  0  0  0  0  0  0  0  0  0
  192.3750  176.1570  144.5330 O   0  0  0  0  0  0  0  0  0  0  0  0
  192.7570  177.0270  145.4950 N   0  0  0  0  0  1  0  0  0  0  0  0
  188.4450  177.0710  146.1930 C   0  0  0  0  0  2  0  0  0  0  0  0
  187.5590  177.0460  144.9920 C   0  0  0  0  0  0  0  0  0  0  0  0
  185.7350  177.0140  143.7810 N   0  0  0  0  0  0  0  0  0  0  0  0
  189.2440  177.3680  143.2130 O   0  0  0  0  0  1  0  0  0  0  0  0
  187.9480  177.2000  143.6820 C   0  0  0  0  0  0  0  0  0  0  0  0
  186.2150  176.9480  145.0150 N   0  0  0  0  0  0  0  0  0  0  0  0
  186.7800  177.1700  142.9410 C   0  0  0  0  0  0  0  0  0  0  0  0
  186.6430  177.2910  141.4820 C   0  0  0  0  0  0  0  0  0  0  0  0
  187.4420  176.6770  140.7260 O   0  0  0  0  0  0  0  0  0  0  0  0
  185.5730  178.1280  140.8710 C   0  0  0  0  0  1  0  0  0  0  0  0
  185.3810  176.7930  146.2010 C   0  0  0  0  0  2  0  0  0  0  0  0
  185.4480  179.0190  147.3300 C   0  0  0  0  0  1  0  0  0  0  0  0
  184.6130  178.0720  146.4920 C   0  0  0  0  0  2  0  0  0  0  0  0
  1 13  1  0  0  0  0
  1  6  2  0  0  0  0
  2 12  1  0  0  0  0
  3  6  1  0  0  0  0
  3  4  2  0  0  0  0
  4  9  1  0  0  0  0
  5 16  2  0  0  0  0
  6 14  1  0  0  0  0
  7 13  1  0  0  0  0
  8 11  2  0  0  0  0
  8  2  1  0  0  0  0
  9 10  1  0  0  0  0
  9  5  2  0  0  0  0
 10 23  1  6  0  0  0
 11 15  1  0  0  0  0
 13  8  1  0  0  0  0
 14  2  2  0  0  0  0
 14 10  1  0  0  0  0
 15 12  2  0  0  0  0
 17 19  2  0  0  0  0
 19 18  1  0  0  0  0
 19  3  1  0  0  0  0
 20 17  1  0  0  0  0
 21 22  1  0  0  0  0
 22 20  1  0  0  0  0
 23 24  1  0  0  0  0
 25 16  1  0  0  0  0
 26 30  1  0  0  0  0
 26 25  1  0  0  0  0
 27 30  1  0  0  0  0
 28 29  1  0  0  0  0
 29 26  2  0  0  0  0
 30 35  1  0  0  0  0
 31 29  1  0  0  0  0
 31 27  2  0  0  0  0
 32 31  1  0  0  0  0
 33 32  2  0  0  0  0
 34 32  1  0  0  0  0
 35 37  1  0  0  0  0
 37 36  1  0  0  0  0
M  END
>  <MODEL>
5

>  <REMARK>
 VINA RESULT:      -6.9      2.064      8.145
  Name = 
  9 active torsions:
  status: ('A' for Active; 'I' for Inactive)
    1  A    between atoms: C_3  and  C_27
    2  A    between atoms: C_4  and  C_13
    3  A    between atoms: C_4  and  C_37
    4  A    between atoms: C_5  and  N_25
    5  A    between atoms: C_5  and  C_33
    6  A    between atoms: C_6  and  C_18
    7  A    between atoms: O_7  and  C_29
    8  A    between atoms: C_12  and  C_26
    9  A    between atoms: O_21  and  C_27
                            x       y       z     vdW  Elec       q    Type
                         _______ _______ _______ _____ _____    ______ ____

>  <TORSDO>
F 9

$$$$
=
 OpenBabel11042418223D

 37 40  0  0  1  0  0  0  0  0999 V2000
  186.0380  177.1540  142.6930 C   0  0  0  0  0  3  0  0  0  0  0  0
  186.4240  177.6240  145.3850 C   0  0  0  0  0  0  0  0  0  0  0  0
  188.2830  175.9800  142.5300 C   0  0  0  0  0  0  0  0  0  0  0  0
  189.4850  175.7800  143.0930 C   0  0  0  0  0  3  0  0  0  0  0  0
  190.9940  176.0840  144.9240 C   0  0  0  0  0  0  0  0  0  0  0  0
  187.2220  176.6800  143.3200 C   0  0  0  0  0  0  0  0  0  0  0  0
  183.8850  178.2950  142.6890 C   0  0  0  0  0  1  0  0  0  0  0  0
  185.2620  178.0690  144.7030 C   0  0  0  0  0  0  0  0  0  0  0  0
  189.7700  176.1640  144.4810 C   0  0  0  0  0  0  0  0  0  0  0  0
  188.6450  176.4380  145.4350 C   0  0  1  0  0  3  0  0  0  0  0  0
  184.4280  178.7120  145.5340 N   0  0  0  0  0  0  0  0  0  0  0  0
  186.2850  178.0150  146.6960 C   0  0  0  0  0  3  0  0  0  0  0  0
  185.0750  177.8330  143.3820 N   0  0  0  0  0  0  0  0  0  0  0  0
  187.4220  176.9310  144.7070 C   0  0  0  0  0  0  0  0  0  0  0  0
  185.0510  178.6780  146.7410 C   0  0  0  0  0  3  0  0  0  0  0  0
  192.2190  176.0050  145.3570 C   0  0  0  0  0  3  0  0  0  0  0  0
  188.4490  174.3120  140.7270 C   0  0  0  0  0  3  0  0  0  0  0  0
  187.4450  176.3670  140.2020 O   0  0  0  0  0  1  0  0  0  0  0  0
  188.0640  175.5280  141.1230 C   0  0  0  0  0  0  0  0  0  0  0  0
  188.2520  173.8130  139.3320 C   0  0  0  0  0  2  0  0  0  0  0  0
  188.9590  174.1710  137.2790 C   0  0  0  0  0  1  0  0  0  0  0  0
  189.4110  174.0110  138.5850 O   0  0  0  0  0  0  0  0  0  0  0  0
  188.3340  175.2720  146.1400 O   0  0  0  0  0  0  0  0  0  0  0  0
  188.8400  175.4720  147.3780 N   0  0  0  0  0  1  0  0  0  0  0  0
  192.6710  174.8010  146.1030 C   0  0  0  0  0  2  0  0  0  0  0  0
  193.6860  174.0570  145.3010 C   0  0  0  0  0  0  0  0  0  0  0  0
  194.5410  172.6090  143.8990 N   0  0  0  0  0  0  0  0  0  0  0  0
  195.6870  175.4290  145.7680 O   0  0  0  0  0  1  0  0  0  0  0  0
  195.0150  174.3780  145.1600 C   0  0  0  0  0  0  0  0  0  0  0  0
  193.4310  172.9920  144.5170 N   0  0  0  0  0  0  0  0  0  0  0  0
  195.5310  173.4450  144.2770 C   0  0  0  0  0  0  0  0  0  0  0  0
  196.9160  173.3420  143.7920 C   0  0  0  0  0  0  0  0  0  0  0  0
  197.7350  172.6000  144.3940 O   0  0  0  0  0  0  0  0  0  0  0  0
  197.3740  174.1000  142.5940 C   0  0  0  0  0  1  0  0  0  0  0  0
  192.1420  172.3320  144.3470 C   0  0  0  0  0  2  0  0  0  0  0  0
  191.6200  171.8830  141.9470 C   0  0  0  0  0  1  0  0  0  0  0  0
  191.4340  172.8450  143.1040 C   0  0  0  0  0  2  0  0  0  0  0  0
  1  6  2  0  0  0  0
  1 13  1  0  0  0  0
  2 12  1  0  0  0  0
  3  4  2  0  0  0  0
  3  6  1  0  0  0  0
  4  9  1  0  0  0  0
  5 16  2  0  0  0  0
  6 14  1  0  0  0  0
  7 13  1  0  0  0  0
  8  2  1  0  0  0  0
  8 11  2  0  0  0  0
  9  5  2  0  0  0  0
  9 10  1  0  0  0  0
 10 23  1  6  0  0  0
 11 15  1  0  0  0  0
 12 15  2  0  0  0  0
 13  8  1  0  0  0  0
 14  2  2  0  0  0  0
 14 10  1  0  0  0  0
 16 25  1  0  0  0  0
 17 19  2  0  0  0  0
 18 19  1  0  0  0  0
 19  3  1  0  0  0  0
 20 17  1  0  0  0  0
 21 22  1  0  0  0  0
 22 20  1  0  0  0  0
 23 24  1  0  0  0  0
 26 25  1  0  0  0  0
 27 31  2  0  0  0  0
 27 30  1  0  0  0  0
 29 26  2  0  0  0  0
 29 28  1  0  0  0  0
 30 26  1  0  0  0  0
 31 29  1  0  0  0  0
 32 31  1  0  0  0  0
 32 33  2  0  0  0  0
 34 32  1  0  0  0  0
 35 30  1  0  0  0  0
 36 37  1  0  0  0  0
 37 35  1  0  0  0  0
M  END
>  <MODEL>
6

>  <REMARK>
 VINA RESULT:      -6.8      1.290      1.423
  Name = 
  9 active torsions:
  status: ('A' for Active; 'I' for Inactive)
    1  A    between atoms: C_3  and  C_27
    2  A    between atoms: C_4  and  C_13
    3  A    between atoms: C_4  and  C_37
    4  A    between atoms: C_5  and  N_25
    5  A    between atoms: C_5  and  C_33
    6  A    between atoms: C_6  and  C_18
    7  A    between atoms: O_7  and  C_29
    8  A    between atoms: C_12  and  C_26
    9  A    between atoms: O_21  and  C_27
                            x       y       z     vdW  Elec       q    Type
                         _______ _______ _______ _____ _____    ______ ____

>  <TORSDO>
F 9

$$$$
=
 OpenBabel11042418223D

 37 40  0  0  1  0  0  0  0  0999 V2000
  193.8430  171.8340  143.1170 C   0  0  0  0  0  3  0  0  0  0  0  0
  195.0810  173.1990  145.1720 C   0  0  0  0  0  0  0  0  0  0  0  0
  191.6760  173.0930  143.5250 C   0  0  0  0  0  0  0  0  0  0  0  0
  190.9590  173.8360  144.3820 C   0  0  0  0  0  3  0  0  0  0  0  0
  190.7820  175.0320  146.4460 C   0  0  0  0  0  0  0  0  0  0  0  0
  193.1160  172.8230  143.8330 C   0  0  0  0  0  0  0  0  0  0  0  0
  195.8370  170.5170  142.6410 C   0  0  0  0  0  1  0  0  0  0  0  0
  195.7550  172.2030  144.4170 C   0  0  0  0  0  0  0  0  0  0  0  0
  191.5570  174.4490  145.5740 C   0  0  0  0  0  0  0  0  0  0  0  0
  193.0460  174.5920  145.6830 C   0  0  1  0  0  3  0  0  0  0  0  0
  197.0180  172.0480  144.8370 N   0  0  0  0  0  0  0  0  0  0  0  0
  195.9850  173.6730  146.0930 C   0  0  0  0  0  3  0  0  0  0  0  0
  195.1440  171.5380  143.4070 N   0  0  0  0  0  0  0  0  0  0  0  0
  193.7550  173.5200  144.8980 C   0  0  0  0  0  0  0  0  0  0  0  0
  197.1550  172.9400  145.8530 C   0  0  0  0  0  3  0  0  0  0  0  0
  190.0000  175.6090  147.3130 C   0  0  0  0  0  3  0  0  0  0  0  0
  190.9740  173.2170  141.1690 C   0  0  0  0  0  3  0  0  0  0  0  0
  190.3910  171.2840  142.3650 O   0  0  0  0  0  1  0  0  0  0  0  0
  191.0000  172.5330  142.3170 C   0  0  0  0  0  0  0  0  0  0  0  0
  190.3120  172.7010  139.9330 C   0  0  0  0  0  2  0  0  0  0  0  0
  188.4450  173.0650  138.8260 C   0  0  0  0  0  1  0  0  0  0  0  0
  189.5670  173.7130  139.3320 O   0  0  0  0  0  0  0  0  0  0  0  0
  193.4330  175.8500  145.2130 O   0  0  0  0  0  0  0  0  0  0  0  0
  193.8360  176.5210  146.3160 N   0  0  0  0  0  1  0  0  0  0  0  0
  189.7790  177.0780  147.2580 C   0  0  0  0  0  2  0  0  0  0  0  0
  188.7700  177.4000  146.2070 C   0  0  0  0  0  0  0  0  0  0  0  0
  187.9280  177.9310  144.2570 N   0  0  0  0  0  0  0  0  0  0  0  0
  186.6920  176.8860  147.4410 O   0  0  0  0  0  1  0  0  0  0  0  0
  187.4040  177.2840  146.3180 C   0  0  0  0  0  0  0  0  0  0  0  0
  189.0520  177.7820  144.9460 N   0  0  0  0  0  0  0  0  0  0  0  0
  186.9000  177.6310  145.0780 C   0  0  0  0  0  0  0  0  0  0  0  0
  185.4880  177.6740  144.6660 C   0  0  0  0  0  0  0  0  0  0  0  0
  185.1400  177.1540  143.5730 O   0  0  0  0  0  0  0  0  0  0  0  0
  184.4520  178.3210  145.5190 C   0  0  0  0  0  1  0  0  0  0  0  0
  190.3800  178.0040  144.3870 C   0  0  0  0  0  2  0  0  0  0  0  0
  191.9860  176.9580  142.7870 C   0  0  0  0  0  1  0  0  0  0  0  0
  190.5310  177.2900  143.0550 C   0  0  0  0  0  2  0  0  0  0  0  0
  1 13  1  0  0  0  0
  1  6  2  0  0  0  0
  2 12  1  0  0  0  0
  3  6  1  0  0  0  0
  3  4  2  0  0  0  0
  4  9  1  0  0  0  0
  5 16  2  0  0  0  0
  6 14  1  0  0  0  0
  7 13  1  0  0  0  0
  8 11  2  0  0  0  0
  8  2  1  0  0  0  0
  9 10  1  0  0  0  0
  9  5  2  0  0  0  0
 10 23  1  6  0  0  0
 11 15  1  0  0  0  0
 13  8  1  0  0  0  0
 14  2  2  0  0  0  0
 14 10  1  0  0  0  0
 15 12  2  0  0  0  0
 17 19  2  0  0  0  0
 19 18  1  0  0  0  0
 19  3  1  0  0  0  0
 20 17  1  0  0  0  0
 21 22  1  0  0  0  0
 22 20  1  0  0  0  0
 23 24  1  0  0  0  0
 25 16  1  0  0  0  0
 26 29  2  0  0  0  0
 26 25  1  0  0  0  0
 27 30  1  0  0  0  0
 27 31  2  0  0  0  0
 29 28  1  0  0  0  0
 30 26  1  0  0  0  0
 31 29  1  0  0  0  0
 32 31  1  0  0  0  0
 32 34  1  0  0  0  0
 33 32  2  0  0  0  0
 35 30  1  0  0  0  0
 36 37  1  0  0  0  0
 37 35  1  0  0  0  0
M  END
>  <MODEL>
7

>  <REMARK>
 VINA RESULT:      -6.8      2.295      8.293
  Name = 
  9 active torsions:
  status: ('A' for Active; 'I' for Inactive)
    1  A    between atoms: C_3  and  C_27
    2  A    between atoms: C_4  and  C_13
    3  A    between atoms: C_4  and  C_37
    4  A    between atoms: C_5  and  N_25
    5  A    between atoms: C_5  and  C_33
    6  A    between atoms: C_6  and  C_18
    7  A    between atoms: O_7  and  C_29
    8  A    between atoms: C_12  and  C_26
    9  A    between atoms: O_21  and  C_27
                            x       y       z     vdW  Elec       q    Type
                         _______ _______ _______ _____ _____    ______ ____

>  <TORSDO>
F 9

$$$$
=
 OpenBabel11042418223D

 37 40  0  0  1  0  0  0  0  0999 V2000
  186.1900  177.7480  143.7180 C   0  0  0  0  0  3  0  0  0  0  0  0
  187.1410  177.9730  146.3000 C   0  0  0  0  0  0  0  0  0  0  0  0
  188.4260  176.8460  142.9240 C   0  0  0  0  0  0  0  0  0  0  0  0
  189.7370  176.7180  143.1830 C   0  0  0  0  0  3  0  0  0  0  0  0
  191.5940  176.9900  144.6650 C   0  0  0  0  0  0  0  0  0  0  0  0
  187.5190  177.3410  144.0080 C   0  0  0  0  0  0  0  0  0  0  0  0
  184.0070  178.6460  144.3270 C   0  0  0  0  0  1  0  0  0  0  0  0
  185.8210  178.3590  145.9480 C   0  0  0  0  0  0  0  0  0  0  0  0
  190.2990  176.9830  144.5120 C   0  0  0  0  0  0  0  0  0  0  0  0
  189.4030  177.0330  145.7150 C   0  0  1  0  0  3  0  0  0  0  0  0
  185.1500  178.8180  147.0140 N   0  0  0  0  0  0  0  0  0  0  0  0
  187.2740  178.2070  147.6480 C   0  0  0  0  0  3  0  0  0  0  0  0
  185.3570  178.2440  144.6810 N   0  0  0  0  0  0  0  0  0  0  0  0
  188.0110  177.4650  145.3390 C   0  0  0  0  0  0  0  0  0  0  0  0
  186.0330  178.7250  148.0430 C   0  0  0  0  0  3  0  0  0  0  0  0
  192.8880  176.9970  144.8080 C   0  0  0  0  0  3  0  0  0  0  0  0
  187.2130  177.4120  140.8580 C   0  0  0  0  0  3  0  0  0  0  0  0
  188.2110  175.2910  140.9730 O   0  0  0  0  0  1  0  0  0  0  0  0
  187.9280  176.5230  141.5530 C   0  0  0  0  0  0  0  0  0  0  0  0
  186.6930  177.1380  139.4840 C   0  0  0  0  0  2  0  0  0  0  0  0
  185.0250  177.9570  140.6640 C   0  0  0  0  0  1  0  0  0  0  0  0
  185.3820  177.5960  139.3690 O   0  0  0  0  0  0  0  0  0  0  0  0
  189.3570  175.7730  146.3180 O   0  0  0  0  0  0  0  0  0  0  0  0
  190.0640  175.9130  147.4630 N   0  0  0  0  0  1  0  0  0  0  0  0
  193.5950  175.7780  145.2800 C   0  0  0  0  0  2  0  0  0  0  0  0
  194.2230  175.0750  144.1230 C   0  0  0  0  0  0  0  0  0  0  0  0
  194.5150  173.6250  142.5090 N   0  0  0  0  0  0  0  0  0  0  0  0
  196.0830  176.6280  143.6400 O   0  0  0  0  0  1  0  0  0  0  0  0
  195.3190  175.4930  143.4060 C   0  0  0  0  0  0  0  0  0  0  0  0
  193.7560  173.9500  143.5470 N   0  0  0  0  0  0  0  0  0  0  0  0
  195.4840  174.5570  142.4000 C   0  0  0  0  0  0  0  0  0  0  0  0
  196.5190  174.5400  141.3550 C   0  0  0  0  0  0  0  0  0  0  0  0
  196.2140  174.8300  140.1680 O   0  0  0  0  0  0  0  0  0  0  0  0
  197.9320  174.1870  141.6710 C   0  0  0  0  0  1  0  0  0  0  0  0
  192.5930  173.1800  143.9720 C   0  0  0  0  0  2  0  0  0  0  0  0
  190.1030  173.1470  143.7890 C   0  0  0  0  0  1  0  0  0  0  0  0
  191.4010  173.4620  143.0730 C   0  0  0  0  0  2  0  0  0  0  0  0
  1  6  2  0  0  0  0
  1 13  1  0  0  0  0
  2 12  1  0  0  0  0
  3  4  2  0  0  0  0
  3  6  1  0  0  0  0
  4  9  1  0  0  0  0
  5 16  2  0  0  0  0
  6 14  1  0  0  0  0
  7 13  1  0  0  0  0
  8  2  1  0  0  0  0
  8 11  2  0  0  0  0
  9  5  2  0  0  0  0
  9 10  1  0  0  0  0
 10 23  1  6  0  0  0
 11 15  1  0  0  0  0
 12 15  2  0  0  0  0
 13  8  1  0  0  0  0
 14 10  1  0  0  0  0
 14  2  2  0  0  0  0
 16 25  1  0  0  0  0
 17 19  2  0  0  0  0
 18 19  1  0  0  0  0
 19  3  1  0  0  0  0
 20 17  1  0  0  0  0
 22 20  1  0  0  0  0
 22 21  1  0  0  0  0
 23 24  1  0  0  0  0
 26 25  1  0  0  0  0
 27 30  1  0  0  0  0
 29 28  1  0  0  0  0
 29 26  2  0  0  0  0
 30 35  1  0  0  0  0
 30 26  1  0  0  0  0
 31 27  2  0  0  0  0
 31 29  1  0  0  0  0
 32 34  1  0  0  0  0
 32 31  1  0  0  0  0
 33 32  2  0  0  0  0
 37 36  1  0  0  0  0
 37 35  1  0  0  0  0
M  END
>  <MODEL>
8

>  <REMARK>
 VINA RESULT:      -6.6      1.677      2.399
  Name = 
  9 active torsions:
  status: ('A' for Active; 'I' for Inactive)
    1  A    between atoms: C_3  and  C_27
    2  A    between atoms: C_4  and  C_13
    3  A    between atoms: C_4  and  C_37
    4  A    between atoms: C_5  and  N_25
    5  A    between atoms: C_5  and  C_33
    6  A    between atoms: C_6  and  C_18
    7  A    between atoms: O_7  and  C_29
    8  A    between atoms: C_12  and  C_26
    9  A    between atoms: O_21  and  C_27
                            x       y       z     vdW  Elec       q    Type
                         _______ _______ _______ _____ _____    ______ ____

>  <TORSDO>
F 9

$$$$
=
 OpenBabel11042418223D

 37 40  0  0  1  0  0  0  0  0999 V2000
  187.3460  177.3770  146.3210 C   0  0  0  0  0  3  0  0  0  0  0  0
  185.7730  177.7670  144.0870 C   0  0  0  0  0  0  0  0  0  0  0  0
  188.9120  175.8670  145.0120 C   0  0  0  0  0  0  0  0  0  0  0  0
  189.0790  175.1080  143.9170 C   0  0  0  0  0  3  0  0  0  0  0  0
  188.2890  174.3140  141.8040 C   0  0  0  0  0  0  0  0  0  0  0  0
  187.7150  176.7640  145.0940 C   0  0  0  0  0  0  0  0  0  0  0  0
  185.9060  178.7650  147.7130 C   0  0  0  0  0  1  0  0  0  0  0  0
  185.4590  178.3550  145.3400 C   0  0  0  0  0  0  0  0  0  0  0  0
  188.1650  175.1800  142.7710 C   0  0  0  0  0  0  0  0  0  0  0  0
  187.2450  176.3540  142.6100 C   0  0  1  0  0  3  0  0  0  0  0  0
  184.3420  179.0930  145.2630 N   0  0  0  0  0  0  0  0  0  0  0  0
  184.7980  178.1720  143.2060 C   0  0  0  0  0  3  0  0  0  0  0  0
  186.2350  178.1640  146.4330 N   0  0  0  0  0  0  0  0  0  0  0  0
  186.8980  176.9600  143.9440 C   0  0  0  0  0  0  0  0  0  0  0  0
  183.9430  178.9800  143.9690 C   0  0  0  0  0  3  0  0  0  0  0  0
  188.4190  173.4430  140.8440 C   0  0  0  0  0  3  0  0  0  0  0  0
  191.0370  176.4710  146.0960 C   0  0  0  0  0  3  0  0  0  0  0  0
  189.6660  174.9220  147.2040 O   0  0  0  0  0  1  0  0  0  0  0  0
  189.9070  175.7600  146.1200 C   0  0  0  0  0  0  0  0  0  0  0  0
  192.0630  176.4000  147.1800 C   0  0  0  0  0  2  0  0  0  0  0  0
  194.1560  176.5620  146.5160 C   0  0  0  0  0  1  0  0  0  0  0  0
  193.1490  175.6330  146.7610 O   0  0  0  0  0  0  0  0  0  0  0  0
  187.8510  177.3180  141.8010 O   0  0  0  0  0  0  0  0  0  0  0  0
  187.1090  177.3350  140.6700 N   0  0  0  0  0  1  0  0  0  0  0  0
  189.2020  173.7840  139.6270 C   0  0  0  0  0  2  0  0  0  0  0  0
  189.6610  172.5340  138.9530 C   0  0  0  0  0  0  0  0  0  0  0  0
  190.2290  171.1470  137.3570 N   0  0  0  0  0  0  0  0  0  0  0  0
  190.3250  171.2050  140.9270 O   0  0  0  0  0  1  0  0  0  0  0  0
  190.1730  171.4130  139.5640 C   0  0  0  0  0  0  0  0  0  0  0  0
  189.7210  172.3430  137.6210 N   0  0  0  0  0  0  0  0  0  0  0  0
  190.5160  170.5540  138.5350 C   0  0  0  0  0  0  0  0  0  0  0  0
  191.1060  169.2110  138.6500 C   0  0  0  0  0  0  0  0  0  0  0  0
  190.4360  168.2770  139.1660 O   0  0  0  0  0  0  0  0  0  0  0  0
  192.4860  168.9280  138.1670 C   0  0  0  0  0  1  0  0  0  0  0  0
  189.3010  173.2880  136.5930 C   0  0  0  0  0  2  0  0  0  0  0  0
  189.9850  175.2950  135.2740 C   0  0  0  0  0  1  0  0  0  0  0  0
  190.4680  174.1500  136.1420 C   0  0  0  0  0  2  0  0  0  0  0  0
  1 13  1  0  0  0  0
  2  8  1  0  0  0  0
  3  6  1  0  0  0  0
  3 19  1  0  0  0  0
  4  3  2  0  0  0  0
  5  9  2  0  0  0  0
  6  1  2  0  0  0  0
  8 13  1  0  0  0  0
  9  4  1  0  0  0  0
 10 23  1  6  0  0  0
 10  9  1  0  0  0  0
 10 14  1  0  0  0  0
 11  8  2  0  0  0  0
 12 15  2  0  0  0  0
 12  2  1  0  0  0  0
 13  7  1  0  0  0  0
 14  2  2  0  0  0  0
 14  6  1  0  0  0  0
 15 11  1  0  0  0  0
 16  5  2  0  0  0  0
 17 19  2  0  0  0  0
 17 20  1  0  0  0  0
 19 18  1  0  0  0  0
 21 22  1  0  0  0  0
 22 20  1  0  0  0  0
 24 23  1  0  0  0  0
 25 16  1  0  0  0  0
 26 29  2  0  0  0  0
 26 25  1  0  0  0  0
 27 30  1  0  0  0  0
 27 31  2  0  0  0  0
 29 28  1  0  0  0  0
 30 26  1  0  0  0  0
 31 32  1  0  0  0  0
 31 29  1  0  0  0  0
 32 33  2  0  0  0  0
 34 32  1  0  0  0  0
 35 30  1  0  0  0  0
 36 37  1  0  0  0  0
 37 35  1  0  0  0  0
M  END
>  <MODEL>
9

>  <REMARK>
 VINA RESULT:      -6.6      3.000      6.765
  Name = 
  9 active torsions:
  status: ('A' for Active; 'I' for Inactive)
    1  A    between atoms: C_3  and  C_27
    2  A    between atoms: C_4  and  C_13
    3  A    between atoms: C_4  and  C_37
    4  A    between atoms: C_5  and  N_25
    5  A    between atoms: C_5  and  C_33
    6  A    between atoms: C_6  and  C_18
    7  A    between atoms: O_7  and  C_29
    8  A    between atoms: C_12  and  C_26
    9  A    between atoms: O_21  and  C_27
                            x       y       z     vdW  Elec       q    Type
                         _______ _______ _______ _____ _____    ______ ____

>  <TORSDO>
F 9

$$$$
