=
 OpenBabel11042417453D

 48 51  0  0  1  0  0  0  0  0999 V2000
  193.9790  174.6980  139.8330 C   0  0  0  0  0  0  0  0  0  0  0  0
  193.3180  173.4490  140.3280 C   0  0  0  0  0  2  0  0  0  0  0  0
  191.8330  173.4880  140.1980 C   0  0  0  0  0  0  0  0  0  0  0  0
  191.2350  173.5750  138.9980 C   0  0  0  0  0  3  0  0  0  0  0  0
  193.0630  174.4370  137.5110 C   0  0  0  0  0  3  0  0  0  0  0  0
  191.9000  173.8070  137.7040 C   0  0  0  0  0  3  0  0  0  0  0  0
  193.9270  175.0390  138.5420 C   0  0  0  0  0  3  0  0  0  0  0  0
  191.0160  173.2640  141.4340 C   0  0  2  0  0  3  0  0  0  0  0  0
  190.2950  171.5770  143.1150 C   0  0  0  0  0  2  0  0  0  0  0  0
  191.7660  171.7090  143.1930 N   0  0  0  0  0  0  0  0  0  0  0  0
  191.0640  171.7980  141.8930 C   0  0  2  0  0  3  0  0  0  0  0  0
  192.3920  170.3880  143.2130 C   0  0  0  0  0  2  0  0  0  0  0  0
  193.8370  170.4290  143.7450 C   0  0  0  0  0  2  0  0  0  0  0  0
  194.1350  171.6800  144.4300 N   0  0  0  0  0  0  0  0  0  0  0  0
  194.2970  171.3480  145.7320 O   0  0  0  0  0  1  0  0  0  0  0  0
  196.3160  171.0310  144.0940 C   0  0  0  0  0  1  0  0  0  0  0  0
  195.3870  172.1430  143.9870 N   0  0  0  0  0  2  0  0  0  0  0  0
  189.6090  173.7640  141.2510 C   0  0  0  0  0  0  0  0  0  0  0  0
  188.7300  173.0210  140.7320 O   0  0  0  0  0  0  0  0  0  0  0  0
  189.2700  175.0700  141.7260 N   0  0  0  0  0  2  0  0  0  0  0  0
  187.8980  175.5350  141.8630 C   0  0  0  0  0  2  0  0  0  0  0  0
  187.7240  176.2470  143.1630 C   0  0  0  0  0  3  0  0  0  0  0  0
  186.2780  177.8470  142.1810 O   0  0  0  0  0  1  0  0  0  0  0  0
  186.9610  177.3390  143.2870 C   0  0  0  0  0  0  0  0  0  0  0  0
  186.7600  177.9970  144.6380 C   0  0  2  0  0  3  0  0  0  0  0  0
  187.2610  177.6480  146.9700 C   0  0  0  0  0  1  0  0  0  0  0  0
  186.7260  177.0410  145.7500 N   0  0  0  0  0  2  0  0  0  0  0  0
  185.6680  179.0760  144.7700 C   0  0  0  0  0  2  0  0  0  0  0  0
  184.2470  178.5700  145.0130 C   0  0  0  0  0  3  0  0  0  0  0  0
  183.3820  179.2110  144.1480 F   0  0  0  0  0  0  0  0  0  0  0  0
  183.8440  178.8180  146.3120 F   0  0  0  0  0  0  0  0  0  0  0  0
  194.9220  175.3640  140.6790 N   0  0  0  0  0  0  0  0  0  0  0  0
  194.4590  176.4500  141.5330 C   0  0  0  0  0  2  0  0  0  0  0  0
  194.4140  176.0180  142.9240 N   0  0  0  0  0  2  0  0  0  0  0  0
  190.7320  175.4720  147.6390 C   0  0  0  0  0  3  0  0  0  0  0  0
  189.6120  174.3320  145.7990 C   0  0  0  0  0  3  0  0  0  0  0  0
  190.6950  174.6090  144.9550 C   0  0  0  0  0  3  0  0  0  0  0  0
  188.5700  174.5130  147.9390 F   0  0  0  0  0  0  0  0  0  0  0  0
  193.2220  175.6140  143.5580 N   0  0  0  0  0  2  0  0  0  0  0  0
  191.8060  175.7280  146.7880 C   0  0  0  0  0  0  0  0  0  0  0  0
  193.0010  175.7200  144.8370 C   0  0  0  0  0  0  0  0  0  0  0  0
  193.0680  176.4470  147.1280 C   0  0  0  0  0  3  0  0  0  0  0  0
  191.7790  175.3160  145.4820 C   0  0  0  0  0  0  0  0  0  0  0  0
  193.8880  176.4140  145.8280 C   0  0  0  0  0  3  0  0  0  0  0  0
  189.6310  174.7700  147.1350 C   0  0  2  0  0  3  0  0  0  0  0  0
  196.3350  175.3710  140.3080 C   0  0  0  0  0  2  0  0  0  0  0  0
  197.0580  174.2540  140.9850 C   0  0  0  0  0  3  0  0  0  0  0  0
  197.4680  173.2070  140.2770 C   0  0  0  0  0  2  0  0  0  0  0  0
  1  2  1  0  0  0  0
  1 32  1  0  0  0  0
  3  2  1  0  0  0  0
  3  8  1  0  0  0  0
  4  3  2  0  0  0  0
  5  6  2  0  0  0  0
  5  7  1  0  0  0  0
  6  4  1  0  0  0  0
  7  1  2  0  0  0  0
  8 18  1  6  0  0  0
  9 10  1  0  0  0  0
 10 12  1  0  0  0  0
 11  8  1  1  0  0  0
 11  9  1  0  0  0  0
 11 10  1  0  0  0  0
 12 13  1  0  0  0  0
 13 14  1  0  0  0  0
 14 15  1  0  0  0  0
 17 16  1  0  0  0  0
 17 14  1  0  0  0  0
 18 20  1  0  0  0  0
 19 18  2  0  0  0  0
 20 21  1  0  0  0  0
 21 22  1  0  0  0  0
 22 24  2  0  0  0  0
 23 24  1  0  0  0  0
 24 25  1  0  0  0  0
 25 28  1  6  0  0  0
 25 27  1  0  0  0  0
 27 26  1  0  0  0  0
 28 29  1  0  0  0  0
 29 31  1  0  0  0  0
 30 29  1  0  0  0  0
 32 33  1  0  0  0  0
 33 34  1  0  0  0  0
 34 39  1  0  0  0  0
 36 45  1  0  0  0  0
 37 43  1  0  0  0  0
 37 36  2  0  0  0  0
 39 41  1  0  0  0  0
 40 42  1  0  0  0  0
 40 35  2  0  0  0  0
 41 43  2  0  0  0  0
 41 44  1  0  0  0  0
 43 40  1  0  0  0  0
 44 42  2  0  0  0  0
 45 35  1  0  0  0  0
 45 38  1  6  0  0  0
 46 32  1  0  0  0  0
 46 47  1  0  0  0  0
 48 47  2  0  0  0  0
M  END
>  <MODEL>
1

>  <REMARK>
 VINA RESULT:      -6.2      0.000      0.000
  Name = 
  19 active torsions:
  status: ('A' for Active; 'I' for Inactive)
    1  A    between atoms: N_2  and  N_16
    2  A    between atoms: N_2  and  C_31
    3  A    between atoms: C_3  and  C_43
    4  A    between atoms: C_4  and  C_29
    5  A    between atoms: C_6  and  C_29
    6  A    between atoms: C_6  and  N_37
    7  A    between atoms: C_6  and  C_46
    8  A    between atoms: C_7  and  N_25
    9  A    between atoms: C_9  and  C_42
   10  A    between atoms: C_13  and  C_28
   11  A    between atoms: N_17  and  C_19
   12  A    between atoms: N_17  and  N_30
   13  A    between atoms: C_19  and  C_35
   14  A    between atoms: N_25  and  C_28
   15  A    between atoms: N_25  and  C_31
   16  A    between atoms: N_32  and  C_35
   17  A    between atoms: C_34  and  C_43
   18  A    between atoms: C_39  and  C_43
   19  A    between atoms: N_41  and  C_42
                            x       y       z     vdW  Elec       q    Type
                         _______ _______ _______ _____ _____    ______ ____

>  <TORSDO>
F 19

$$$$
=
 OpenBabel11042417453D

 48 51  0  0  1  0  0  0  0  0999 V2000
  190.7730  173.3450  140.6360 C   0  0  0  0  0  0  0  0  0  0  0  0
  192.1400  173.9130  140.8570 C   0  0  0  0  0  2  0  0  0  0  0  0
  193.2290  172.9720  140.4630 C   0  0  0  0  0  0  0  0  0  0  0  0
  193.3790  172.5650  139.1910 C   0  0  0  0  0  3  0  0  0  0  0  0
  191.1370  173.0450  138.1710 C   0  0  0  0  0  3  0  0  0  0  0  0
  192.4530  172.8210  138.0750 C   0  0  0  0  0  3  0  0  0  0  0  0
  190.3310  173.0750  139.4030 C   0  0  0  0  0  3  0  0  0  0  0  0
  194.2550  172.6180  141.4960 C   0  0  2  0  0  3  0  0  0  0  0  0
  194.8790  170.6120  142.8310 C   0  0  0  0  0  2  0  0  0  0  0  0
  194.0010  170.1770  141.7240 N   0  0  0  0  0  0  0  0  0  0  0  0
  193.7790  171.4730  142.4040 C   0  0  2  0  0  3  0  0  0  0  0  0
  192.9580  169.2840  142.2290 C   0  0  0  0  0  2  0  0  0  0  0  0
  192.3440  168.4110  141.1190 C   0  0  0  0  0  2  0  0  0  0  0  0
  191.0070  168.8550  140.7450 N   0  0  0  0  0  0  0  0  0  0  0  0
  190.5980  169.6540  141.7590 O   0  0  0  0  0  1  0  0  0  0  0  0
  190.3210  169.0720  138.5610 C   0  0  0  0  0  1  0  0  0  0  0  0
  191.1130  169.6850  139.6140 N   0  0  0  0  0  2  0  0  0  0  0  0
  194.6800  173.8320  142.2750 C   0  0  0  0  0  0  0  0  0  0  0  0
  195.3000  174.7720  141.7050 O   0  0  0  0  0  0  0  0  0  0  0  0
  194.3170  173.9310  143.6550 N   0  0  0  0  0  2  0  0  0  0  0  0
  194.4190  175.1660  144.4180 C   0  0  0  0  0  2  0  0  0  0  0  0
  193.1020  175.8670  144.4380 C   0  0  0  0  0  3  0  0  0  0  0  0
  192.4390  174.7270  146.4070 O   0  0  0  0  0  1  0  0  0  0  0  0
  192.1810  175.6380  145.3820 C   0  0  0  0  0  0  0  0  0  0  0  0
  190.8810  176.4170  145.4030 C   0  0  2  0  0  3  0  0  0  0  0  0
  189.7560  177.9230  143.8930 C   0  0  0  0  0  1  0  0  0  0  0  0
  190.9600  177.6990  144.6970 N   0  0  0  0  0  2  0  0  0  0  0  0
  190.1250  176.5400  146.7400 C   0  0  0  0  0  2  0  0  0  0  0  0
  188.9530  175.5800  146.9420 C   0  0  0  0  0  3  0  0  0  0  0  0
  189.3590  174.5280  147.7390 F   0  0  0  0  0  0  0  0  0  0  0  0
  188.5050  175.0790  145.7340 F   0  0  0  0  0  0  0  0  0  0  0  0
  189.8260  173.3800  141.7090 N   0  0  0  0  0  0  0  0  0  0  0  0
  188.4150  173.5600  141.3980 C   0  0  0  0  0  2  0  0  0  0  0  0
  188.0530  174.9690  141.4790 N   0  0  0  0  0  2  0  0  0  0  0  0
  184.2140  178.8050  144.0540 C   0  0  0  0  0  3  0  0  0  0  0  0
  185.1320  177.4750  145.8780 C   0  0  0  0  0  3  0  0  0  0  0  0
  185.9460  176.7800  144.9750 C   0  0  0  0  0  3  0  0  0  0  0  0
  183.4670  179.1340  146.2930 F   0  0  0  0  0  0  0  0  0  0  0  0
  187.3520  175.5140  142.5730 N   0  0  0  0  0  2  0  0  0  0  0  0
  185.0410  178.1120  143.1710 C   0  0  0  0  0  0  0  0  0  0  0  0
  186.5950  176.5710  142.5040 C   0  0  0  0  0  0  0  0  0  0  0  0
  185.1440  178.3100  141.6960 C   0  0  0  0  0  3  0  0  0  0  0  0
  185.8720  177.1210  143.6220 C   0  0  0  0  0  0  0  0  0  0  0  0
  186.2140  177.2990  141.2500 C   0  0  0  0  0  3  0  0  0  0  0  0
  184.2640  178.4800  145.4140 C   0  0  2  0  0  3  0  0  0  0  0  0
  190.2680  173.7890  143.0400 C   0  0  0  0  0  2  0  0  0  0  0  0
  190.5770  172.5950  143.8790 C   0  0  0  0  0  3  0  0  0  0  0  0
  189.7330  172.2210  144.8340 C   0  0  0  0  0  2  0  0  0  0  0  0
  1  2  1  0  0  0  0
  1 32  1  0  0  0  0
  3  2  1  0  0  0  0
  3  8  1  0  0  0  0
  4  3  2  0  0  0  0
  5  7  1  0  0  0  0
  6  5  2  0  0  0  0
  6  4  1  0  0  0  0
  7  1  2  0  0  0  0
  8 18  1  1  0  0  0
 10 12  1  0  0  0  0
 10 11  1  0  0  0  0
 10  9  1  0  0  0  0
 11  8  1  6  0  0  0
 11  9  1  0  0  0  0
 13 12  1  0  0  0  0
 14 13  1  0  0  0  0
 14 15  1  0  0  0  0
 16 17  1  0  0  0  0
 17 14  1  0  0  0  0
 18 20  1  0  0  0  0
 19 18  2  0  0  0  0
 20 21  1  0  0  0  0
 21 22  1  0  0  0  0
 22 24  2  0  0  0  0
 24 25  1  0  0  0  0
 24 23  1  0  0  0  0
 25 28  1  1  0  0  0
 26 27  1  0  0  0  0
 27 25  1  0  0  0  0
 28 29  1  0  0  0  0
 29 30  1  0  0  0  0
 31 29  1  0  0  0  0
 32 46  1  0  0  0  0
 33 34  1  0  0  0  0
 33 32  1  0  0  0  0
 34 39  1  0  0  0  0
 35 45  1  0  0  0  0
 37 36  2  0  0  0  0
 40 43  1  0  0  0  0
 40 35  2  0  0  0  0
 41 39  1  0  0  0  0
 41 43  2  0  0  0  0
 42 40  1  0  0  0  0
 43 37  1  0  0  0  0
 44 42  2  0  0  0  0
 44 41  1  0  0  0  0
 45 36  1  0  0  0  0
 45 38  1  6  0  0  0
 46 47  1  0  0  0  0
 47 48  2  0  0  0  0
M  END
>  <MODEL>
2

>  <REMARK>
 VINA RESULT:      -6.1      2.340      5.930
  Name = 
  19 active torsions:
  status: ('A' for Active; 'I' for Inactive)
    1  A    between atoms: N_2  and  N_16
    2  A    between atoms: N_2  and  C_31
    3  A    between atoms: C_3  and  C_43
    4  A    between atoms: C_4  and  C_29
    5  A    between atoms: C_6  and  C_29
    6  A    between atoms: C_6  and  N_37
    7  A    between atoms: C_6  and  C_46
    8  A    between atoms: C_7  and  N_25
    9  A    between atoms: C_9  and  C_42
   10  A    between atoms: C_13  and  C_28
   11  A    between atoms: N_17  and  C_19
   12  A    between atoms: N_17  and  N_30
   13  A    between atoms: C_19  and  C_35
   14  A    between atoms: N_25  and  C_28
   15  A    between atoms: N_25  and  C_31
   16  A    between atoms: N_32  and  C_35
   17  A    between atoms: C_34  and  C_43
   18  A    between atoms: C_39  and  C_43
   19  A    between atoms: N_41  and  C_42
                            x       y       z     vdW  Elec       q    Type
                         _______ _______ _______ _____ _____    ______ ____

>  <TORSDO>
F 19

$$$$
=
 OpenBabel11042417453D

 48 51  0  0  1  0  0  0  0  0999 V2000
  190.9220  174.5860  143.3550 C   0  0  0  0  0  0  0  0  0  0  0  0
  191.5770  174.7240  142.0170 C   0  0  0  0  0  2  0  0  0  0  0  0
  192.0210  173.4170  141.4510 C   0  0  0  0  0  0  0  0  0  0  0  0
  191.1420  172.4460  141.1510 C   0  0  0  0  0  3  0  0  0  0  0  0
  189.1110  173.0860  142.4780 C   0  0  0  0  0  3  0  0  0  0  0  0
  189.7040  172.4390  141.4690 C   0  0  0  0  0  3  0  0  0  0  0  0
  189.7620  173.9350  143.4910 C   0  0  0  0  0  3  0  0  0  0  0  0
  193.4650  173.2720  141.0740 C   0  0  2  0  0  3  0  0  0  0  0  0
  195.7010  174.3580  141.1950 C   0  0  0  0  0  2  0  0  0  0  0  0
  195.4080  173.7530  142.5120 N   0  0  0  0  0  0  0  0  0  0  0  0
  194.3320  174.3730  141.7060 C   0  0  2  0  0  3  0  0  0  0  0  0
  195.6980  174.7080  143.5810 C   0  0  0  0  0  2  0  0  0  0  0  0
  196.9310  174.3040  144.4110 C   0  0  0  0  0  2  0  0  0  0  0  0
  196.6200  174.1680  145.8280 N   0  0  0  0  0  0  0  0  0  0  0  0
  195.2760  174.3070  145.9160 O   0  0  0  0  0  1  0  0  0  0  0  0
  197.4880  172.1770  145.0750 C   0  0  0  0  0  1  0  0  0  0  0  0
  196.9020  172.8480  146.2230 N   0  0  0  0  0  2  0  0  0  0  0  0
  193.6280  173.1960  139.5810 C   0  0  0  0  0  0  0  0  0  0  0  0
  193.9930  172.1190  139.0320 O   0  0  0  0  0  0  0  0  0  0  0  0
  193.3060  174.3440  138.7900 N   0  0  0  0  0  2  0  0  0  0  0  0
  193.1510  174.2940  137.3440 C   0  0  0  0  0  2  0  0  0  0  0  0
  191.7100  174.4260  136.9770 C   0  0  0  0  0  3  0  0  0  0  0  0
  191.5900  172.1530  136.3170 O   0  0  0  0  0  1  0  0  0  0  0  0
  190.9960  173.4050  136.4880 C   0  0  0  0  0  0  0  0  0  0  0  0
  189.5200  173.5640  136.1860 C   0  0  2  0  0  3  0  0  0  0  0  0
  188.7880  175.1420  134.5170 C   0  0  0  0  0  1  0  0  0  0  0  0
  189.2360  173.7690  134.7620 N   0  0  0  0  0  2  0  0  0  0  0  0
  188.6890  174.5020  137.0820 C   0  0  0  0  0  2  0  0  0  0  0  0
  188.1190  173.8860  138.3590 C   0  0  0  0  0  3  0  0  0  0  0  0
  188.4880  174.6600  139.4410 F   0  0  0  0  0  0  0  0  0  0  0  0
  188.5930  172.6000  138.5470 F   0  0  0  0  0  0  0  0  0  0  0  0
  191.3730  175.4090  144.4360 N   0  0  0  0  0  0  0  0  0  0  0  0
  191.9580  176.7090  144.1340 C   0  0  0  0  0  2  0  0  0  0  0  0
  190.9780  177.7670  144.3390 N   0  0  0  0  0  2  0  0  0  0  0  0
  185.0260  177.6940  143.5300 C   0  0  0  0  0  3  0  0  0  0  0  0
  185.9820  178.0630  141.3190 C   0  0  0  0  0  3  0  0  0  0  0  0
  187.2740  177.9860  141.8540 C   0  0  0  0  0  3  0  0  0  0  0  0
  183.6160  178.0200  141.6360 F   0  0  0  0  0  0  0  0  0  0  0  0
  189.8050  177.8790  143.5670 N   0  0  0  0  0  2  0  0  0  0  0  0
  186.3200  177.6060  144.0430 C   0  0  0  0  0  0  0  0  0  0  0  0
  188.6070  177.6350  144.0150 C   0  0  0  0  0  0  0  0  0  0  0  0
  186.7070  177.3590  145.4620 C   0  0  0  0  0  2  0  0  0  0  0  0
  187.4080  177.7600  143.2260 C   0  0  0  0  0  0  0  0  0  0  0  0
  188.2440  177.3430  145.4400 C   0  0  0  0  0  3  0  0  0  0  0  0
  184.8630  177.9250  142.1590 C   0  0  0  0  0  0  0  0  0  0  0  0
  191.7650  174.7840  145.6970 C   0  0  0  0  0  2  0  0  0  0  0  0
  190.7660  175.0880  146.7630 C   0  0  0  0  0  3  0  0  0  0  0  0
  191.1790  175.4740  147.9650 C   0  0  0  0  0  2  0  0  0  0  0  0
  1  7  2  0  0  0  0
  1 32  1  0  0  0  0
  2  1  1  0  0  0  0
  3  2  1  0  0  0  0
  4  3  2  0  0  0  0
  4  6  1  0  0  0  0
  5  7  1  0  0  0  0
  6  5  2  0  0  0  0
  8 18  1  6  0  0  0
  8  3  1  0  0  0  0
  9 11  1  0  0  0  0
  9 10  1  0  0  0  0
 10 12  1  0  0  0  0
 11  8  1  6  0  0  0
 11 10  1  0  0  0  0
 12 13  1  0  0  0  0
 13 14  1  0  0  0  0
 14 15  1  0  0  0  0
 14 17  1  0  0  0  0
 16 17  1  0  0  0  0
 19 18  2  0  0  0  0
 20 18  1  0  0  0  0
 21 20  1  0  0  0  0
 22 21  1  0  0  0  0
 23 24  1  0  0  0  0
 24 22  2  0  0  0  0
 25 24  1  0  0  0  0
 25 28  1  1  0  0  0
 26 27  1  0  0  0  0
 27 25  1  0  0  0  0
 28 29  1  0  0  0  0
 29 31  1  0  0  0  0
 29 30  1  0  0  0  0
 32 46  1  0  0  0  0
 33 34  1  0  0  0  0
 33 32  1  0  0  0  0
 35 40  1  0  0  0  0
 36 37  2  0  0  0  0
 36 45  1  0  0  0  0
 37 43  1  0  0  0  0
 38 45  1  0  0  0  0
 39 41  1  0  0  0  0
 39 34  1  0  0  0  0
 40 42  1  0  0  0  0
 41 44  2  0  0  0  0
 43 41  1  0  0  0  0
 43 40  2  0  0  0  0
 44 42  1  0  0  0  0
 45 35  2  0  0  0  0
 46 47  1  0  0  0  0
 47 48  2  0  0  0  0
M  END
>  <MODEL>
3

>  <REMARK>
 VINA RESULT:      -5.9      3.140      6.729
  Name = 
  19 active torsions:
  status: ('A' for Active; 'I' for Inactive)
    1  A    between atoms: N_2  and  N_16
    2  A    between atoms: N_2  and  C_31
    3  A    between atoms: C_3  and  C_43
    4  A    between atoms: C_4  and  C_29
    5  A    between atoms: C_6  and  C_29
    6  A    between atoms: C_6  and  N_37
    7  A    between atoms: C_6  and  C_46
    8  A    between atoms: C_7  and  N_25
    9  A    between atoms: C_9  and  C_42
   10  A    between atoms: C_13  and  C_28
   11  A    between atoms: N_17  and  C_19
   12  A    between atoms: N_17  and  N_30
   13  A    between atoms: C_19  and  C_35
   14  A    between atoms: N_25  and  C_28
   15  A    between atoms: N_25  and  C_31
   16  A    between atoms: N_32  and  C_35
   17  A    between atoms: C_34  and  C_43
   18  A    between atoms: C_39  and  C_43
   19  A    between atoms: N_41  and  C_42
                            x       y       z     vdW  Elec       q    Type
                         _______ _______ _______ _____ _____    ______ ____

>  <TORSDO>
F 19

$$$$
=
 OpenBabel11042417453D

 48 51  0  0  1  0  0  0  0  0999 V2000
  190.6240  174.3130  144.9520 C   0  0  0  0  0  0  0  0  0  0  0  0
  190.6610  174.7690  143.5270 C   0  0  0  0  0  2  0  0  0  0  0  0
  191.3760  173.8140  142.6310 C   0  0  0  0  0  0  0  0  0  0  0  0
  190.9270  172.5630  142.4360 C   0  0  0  0  0  3  0  0  0  0  0  0
  189.4050  172.1910  144.3960 C   0  0  0  0  0  3  0  0  0  0  0  0
  189.8240  171.9070  143.1580 C   0  0  0  0  0  3  0  0  0  0  0  0
  189.9570  173.2100  145.3060 C   0  0  0  0  0  3  0  0  0  0  0  0
  192.5260  174.3390  141.8250 C   0  0  2  0  0  3  0  0  0  0  0  0
  193.7560  174.0830  139.6770 C   0  0  0  0  0  2  0  0  0  0  0  0
  192.3070  174.1140  139.3800 N   0  0  0  0  0  0  0  0  0  0  0  0
  192.8180  173.4530  140.6030 C   0  0  2  0  0  3  0  0  0  0  0  0
  191.9570  173.0290  138.4640 C   0  0  0  0  0  2  0  0  0  0  0  0
  191.3250  173.5440  137.1570 C   0  0  0  0  0  2  0  0  0  0  0  0
  192.3130  174.1360  136.2650 N   0  0  0  0  0  0  0  0  0  0  0  0
  192.0760  173.5850  135.0500 O   0  0  0  0  0  1  0  0  0  0  0  0
  193.2800  176.2210  136.3370 C   0  0  0  0  0  1  0  0  0  0  0  0
  192.0310  175.5070  136.1330 N   0  0  0  0  0  2  0  0  0  0  0  0
  193.7400  174.5480  142.6870 C   0  0  0  0  0  0  0  0  0  0  0  0
  194.1720  175.7130  142.9110 O   0  0  0  0  0  0  0  0  0  0  0  0
  194.3600  173.4130  143.2980 N   0  0  0  0  0  2  0  0  0  0  0  0
  195.3430  173.5210  144.3650 C   0  0  0  0  0  2  0  0  0  0  0  0
  195.5240  172.2000  145.0340 C   0  0  0  0  0  3  0  0  0  0  0  0
  197.0650  171.4880  143.3810 O   0  0  0  0  0  1  0  0  0  0  0  0
  196.3370  171.2530  144.5470 C   0  0  0  0  0  0  0  0  0  0  0  0
  196.5400  169.9490  145.2910 C   0  0  2  0  0  3  0  0  0  0  0  0
  194.6530  169.2480  143.9640 C   0  0  0  0  0  1  0  0  0  0  0  0
  195.8650  168.8100  144.6610 N   0  0  0  0  0  2  0  0  0  0  0  0
  196.3710  169.9460  146.8220 C   0  0  0  0  0  2  0  0  0  0  0  0
  196.0310  168.6010  147.4600 C   0  0  0  0  0  3  0  0  0  0  0  0
  194.7520  168.6530  147.9780 F   0  0  0  0  0  0  0  0  0  0  0  0
  196.9140  168.2950  148.4810 F   0  0  0  0  0  0  0  0  0  0  0  0
  191.0410  175.2190  145.9800 N   0  0  0  0  0  0  0  0  0  0  0  0
  190.1030  175.5600  147.0410 C   0  0  0  0  0  2  0  0  0  0  0  0
  189.5990  176.9150  146.8570 N   0  0  0  0  0  2  0  0  0  0  0  0
  184.6360  177.9060  143.6220 C   0  0  0  0  0  3  0  0  0  0  0  0
  186.4980  178.4210  142.1370 C   0  0  0  0  0  3  0  0  0  0  0  0
  187.4090  178.0650  143.1390 C   0  0  0  0  0  3  0  0  0  0  0  0
  184.2420  178.7120  141.4140 F   0  0  0  0  0  0  0  0  0  0  0  0
  188.9020  177.3190  145.7010 N   0  0  0  0  0  2  0  0  0  0  0  0
  185.5570  177.5420  144.6030 C   0  0  0  0  0  0  0  0  0  0  0  0
  187.6140  177.2090  145.5470 C   0  0  0  0  0  0  0  0  0  0  0  0
  185.2550  177.0420  145.9760 C   0  0  0  0  0  2  0  0  0  0  0  0
  186.9030  177.6320  144.3680 C   0  0  0  0  0  0  0  0  0  0  0  0
  186.6360  176.7840  146.6000 C   0  0  0  0  0  3  0  0  0  0  0  0
  185.1160  178.3480  142.3830 C   0  0  0  0  0  0  0  0  0  0  0  0
  192.0990  176.1850  145.6960 C   0  0  0  0  0  2  0  0  0  0  0  0
  193.3420  175.8340  146.4420 C   0  0  0  0  0  3  0  0  0  0  0  0
  194.3640  176.6820  146.4610 C   0  0  0  0  0  2  0  0  0  0  0  0
  1  7  2  0  0  0  0
  1 32  1  0  0  0  0
  2  1  1  0  0  0  0
  3  2  1  0  0  0  0
  4  3  2  0  0  0  0
  4  6  1  0  0  0  0
  5  7  1  0  0  0  0
  6  5  2  0  0  0  0
  8  3  1  0  0  0  0
  8 18  1  1  0  0  0
  9 11  1  0  0  0  0
 10  9  1  0  0  0  0
 10 11  1  0  0  0  0
 11  8  1  1  0  0  0
 12 10  1  0  0  0  0
 13 12  1  0  0  0  0
 14 13  1  0  0  0  0
 15 14  1  0  0  0  0
 17 14  1  0  0  0  0
 17 16  1  0  0  0  0
 18 19  2  0  0  0  0
 18 20  1  0  0  0  0
 20 21  1  0  0  0  0
 21 22  1  0  0  0  0
 23 24  1  0  0  0  0
 24 22  2  0  0  0  0
 24 25  1  0  0  0  0
 25 28  1  1  0  0  0
 26 27  1  0  0  0  0
 27 25  1  0  0  0  0
 28 29  1  0  0  0  0
 29 30  1  0  0  0  0
 29 31  1  0  0  0  0
 32 33  1  0  0  0  0
 34 33  1  0  0  0  0
 35 40  1  0  0  0  0
 36 45  1  0  0  0  0
 36 37  2  0  0  0  0
 37 43  1  0  0  0  0
 38 45  1  0  0  0  0
 39 34  1  0  0  0  0
 40 42  1  0  0  0  0
 41 39  1  0  0  0  0
 41 44  2  0  0  0  0
 42 44  1  0  0  0  0
 43 40  2  0  0  0  0
 43 41  1  0  0  0  0
 45 35  2  0  0  0  0
 46 32  1  0  0  0  0
 46 47  1  0  0  0  0
 47 48  2  0  0  0  0
M  END
>  <MODEL>
4

>  <REMARK>
 VINA RESULT:      -5.9      3.133      8.579
  Name = 
  19 active torsions:
  status: ('A' for Active; 'I' for Inactive)
    1  A    between atoms: N_2  and  N_16
    2  A    between atoms: N_2  and  C_31
    3  A    between atoms: C_3  and  C_43
    4  A    between atoms: C_4  and  C_29
    5  A    between atoms: C_6  and  C_29
    6  A    between atoms: C_6  and  N_37
    7  A    between atoms: C_6  and  C_46
    8  A    between atoms: C_7  and  N_25
    9  A    between atoms: C_9  and  C_42
   10  A    between atoms: C_13  and  C_28
   11  A    between atoms: N_17  and  C_19
   12  A    between atoms: N_17  and  N_30
   13  A    between atoms: C_19  and  C_35
   14  A    between atoms: N_25  and  C_28
   15  A    between atoms: N_25  and  C_31
   16  A    between atoms: N_32  and  C_35
   17  A    between atoms: C_34  and  C_43
   18  A    between atoms: C_39  and  C_43
   19  A    between atoms: N_41  and  C_42
                            x       y       z     vdW  Elec       q    Type
                         _______ _______ _______ _____ _____    ______ ____

>  <TORSDO>
F 19

$$$$
=
 OpenBabel11042417453D

 48 51  0  0  1  0  0  0  0  0999 V2000
  190.3720  174.4700  143.2550 C   0  0  0  0  0  0  0  0  0  0  0  0
  191.1920  173.7920  142.2020 C   0  0  0  0  0  2  0  0  0  0  0  0
  190.9500  172.3210  142.1370 C   0  0  0  0  0  0  0  0  0  0  0  0
  189.7450  171.8210  141.8130 C   0  0  0  0  0  3  0  0  0  0  0  0
  188.1960  173.7500  142.2310 C   0  0  0  0  0  3  0  0  0  0  0  0
  188.4970  172.5850  141.6490 C   0  0  0  0  0  3  0  0  0  0  0  0
  189.0390  174.5180  143.1650 C   0  0  0  0  0  3  0  0  0  0  0  0
  192.1310  171.4110  142.2850 C   0  0  2  0  0  3  0  0  0  0  0  0
  194.5400  171.3550  142.9070 C   0  0  0  0  0  2  0  0  0  0  0  0
  193.8340  172.2330  143.8650 N   0  0  0  0  0  0  0  0  0  0  0  0
  193.4420  172.1970  142.4380 C   0  0  2  0  0  3  0  0  0  0  0  0
  194.5710  173.4840  144.0400 C   0  0  0  0  0  2  0  0  0  0  0  0
  194.8700  173.7890  145.5200 C   0  0  0  0  0  2  0  0  0  0  0  0
  195.7170  174.9630  145.6790 N   0  0  0  0  0  0  0  0  0  0  0  0
  196.7150  174.8120  144.7770 O   0  0  0  0  0  1  0  0  0  0  0  0
  194.3620  176.6500  146.4580 C   0  0  0  0  0  1  0  0  0  0  0  0
  194.9910  176.0970  145.2710 N   0  0  0  0  0  2  0  0  0  0  0  0
  192.1870  170.4110  141.1630 C   0  0  0  0  0  0  0  0  0  0  0  0
  191.7550  169.2360  141.3310 O   0  0  0  0  0  0  0  0  0  0  0  0
  192.6800  170.8290  139.8870 N   0  0  0  0  0  2  0  0  0  0  0  0
  192.5120  170.0450  138.6730 C   0  0  0  0  0  2  0  0  0  0  0  0
  191.8240  170.8570  137.6270 C   0  0  0  0  0  3  0  0  0  0  0  0
  189.7690  169.7380  138.0020 O   0  0  0  0  0  1  0  0  0  0  0  0
  190.5310  170.6890  137.3230 C   0  0  0  0  0  0  0  0  0  0  0  0
  189.8530  171.5770  136.2980 C   0  0  2  0  0  3  0  0  0  0  0  0
  190.9680  170.4000  134.5130 C   0  0  0  0  0  1  0  0  0  0  0  0
  190.6170  171.7160  135.0540 N   0  0  0  0  0  2  0  0  0  0  0  0
  189.2680  172.9220  136.7700 C   0  0  0  0  0  2  0  0  0  0  0  0
  189.1890  173.1290  138.2810 C   0  0  0  0  0  3  0  0  0  0  0  0
  188.1470  173.9880  138.5690 F   0  0  0  0  0  0  0  0  0  0  0  0
  190.3630  173.6710  138.7730 F   0  0  0  0  0  0  0  0  0  0  0  0
  191.0250  175.3320  144.1930 N   0  0  0  0  0  0  0  0  0  0  0  0
  191.7220  176.5110  143.6990 C   0  0  0  0  0  2  0  0  0  0  0  0
  190.9810  177.7190  144.0390 N   0  0  0  0  0  2  0  0  0  0  0  0
  185.0270  177.7960  144.8410 C   0  0  0  0  0  3  0  0  0  0  0  0
  185.9890  177.7760  147.0800 C   0  0  0  0  0  3  0  0  0  0  0  0
  187.2790  177.7990  146.5370 C   0  0  0  0  0  3  0  0  0  0  0  0
  183.6230  177.7260  146.7650 F   0  0  0  0  0  0  0  0  0  0  0  0
  189.8090  177.6990  144.8220 N   0  0  0  0  0  2  0  0  0  0  0  0
  186.3200  177.8320  144.3180 C   0  0  0  0  0  0  0  0  0  0  0  0
  188.6070  177.8520  144.3450 C   0  0  0  0  0  0  0  0  0  0  0  0
  186.7030  177.8740  142.8770 C   0  0  0  0  0  3  0  0  0  0  0  0
  187.4100  177.8210  145.1460 C   0  0  0  0  0  0  0  0  0  0  0  0
  188.2400  177.9220  142.8930 C   0  0  0  0  0  3  0  0  0  0  0  0
  184.8670  177.7670  146.2310 C   0  0  2  0  0  3  0  0  0  0  0  0
  191.4690  174.7880  145.4740 C   0  0  0  0  0  2  0  0  0  0  0  0
  190.3860  174.9020  146.4940 C   0  0  0  0  0  3  0  0  0  0  0  0
  190.6300  175.5040  147.6530 C   0  0  0  0  0  2  0  0  0  0  0  0
  1 32  1  0  0  0  0
  2  1  1  0  0  0  0
  3  2  1  0  0  0  0
  3  8  1  0  0  0  0
  4  3  2  0  0  0  0
  5  7  1  0  0  0  0
  6  4  1  0  0  0  0
  6  5  2  0  0  0  0
  7  1  2  0  0  0  0
  8 18  1  6  0  0  0
  9 10  1  0  0  0  0
 10 12  1  0  0  0  0
 11  8  1  1  0  0  0
 11  9  1  0  0  0  0
 11 10  1  0  0  0  0
 12 13  1  0  0  0  0
 13 14  1  0  0  0  0
 15 14  1  0  0  0  0
 17 14  1  0  0  0  0
 17 16  1  0  0  0  0
 18 19  2  0  0  0  0
 20 18  1  0  0  0  0
 21 20  1  0  0  0  0
 22 21  1  0  0  0  0
 24 22  2  0  0  0  0
 24 23  1  0  0  0  0
 25 28  1  1  0  0  0
 25 24  1  0  0  0  0
 26 27  1  0  0  0  0
 27 25  1  0  0  0  0
 28 29  1  0  0  0  0
 29 30  1  0  0  0  0
 29 31  1  0  0  0  0
 32 46  1  0  0  0  0
 33 34  1  0  0  0  0
 33 32  1  0  0  0  0
 34 39  1  0  0  0  0
 35 45  1  0  0  0  0
 37 36  2  0  0  0  0
 40 35  2  0  0  0  0
 40 43  1  0  0  0  0
 41 39  1  0  0  0  0
 41 43  2  0  0  0  0
 42 44  2  0  0  0  0
 42 40  1  0  0  0  0
 43 37  1  0  0  0  0
 44 41  1  0  0  0  0
 45 38  1  6  0  0  0
 45 36  1  0  0  0  0
 46 47  1  0  0  0  0
 47 48  2  0  0  0  0
M  END
>  <MODEL>
5

>  <REMARK>
 VINA RESULT:      -5.9      3.193      6.946
  Name = 
  19 active torsions:
  status: ('A' for Active; 'I' for Inactive)
    1  A    between atoms: N_2  and  N_16
    2  A    between atoms: N_2  and  C_31
    3  A    between atoms: C_3  and  C_43
    4  A    between atoms: C_4  and  C_29
    5  A    between atoms: C_6  and  C_29
    6  A    between atoms: C_6  and  N_37
    7  A    between atoms: C_6  and  C_46
    8  A    between atoms: C_7  and  N_25
    9  A    between atoms: C_9  and  C_42
   10  A    between atoms: C_13  and  C_28
   11  A    between atoms: N_17  and  C_19
   12  A    between atoms: N_17  and  N_30
   13  A    between atoms: C_19  and  C_35
   14  A    between atoms: N_25  and  C_28
   15  A    between atoms: N_25  and  C_31
   16  A    between atoms: N_32  and  C_35
   17  A    between atoms: C_34  and  C_43
   18  A    between atoms: C_39  and  C_43
   19  A    between atoms: N_41  and  C_42
                            x       y       z     vdW  Elec       q    Type
                         _______ _______ _______ _____ _____    ______ ____

>  <TORSDO>
F 19

$$$$
=
 OpenBabel11042417453D

 48 51  0  0  1  0  0  0  0  0999 V2000
  190.8510  172.9420  140.7020 C   0  0  0  0  0  0  0  0  0  0  0  0
  191.8960  173.9200  140.2660 C   0  0  0  0  0  2  0  0  0  0  0  0
  193.2780  173.3600  140.3310 C   0  0  0  0  0  0  0  0  0  0  0  0
  193.6470  172.3130  139.5750 C   0  0  0  0  0  3  0  0  0  0  0  0
  191.4560  171.2790  138.9230 C   0  0  0  0  0  3  0  0  0  0  0  0
  192.7640  171.4840  138.7370 C   0  0  0  0  0  3  0  0  0  0  0  0
  190.6180  171.8260  140.0040 C   0  0  0  0  0  3  0  0  0  0  0  0
  194.2950  174.0990  141.1470 C   0  0  2  0  0  3  0  0  0  0  0  0
  196.5820  175.0660  140.9930 C   0  0  0  0  0  2  0  0  0  0  0  0
  195.9500  175.1560  139.6590 N   0  0  0  0  0  0  0  0  0  0  0  0
  195.7020  173.9920  140.5390 C   0  0  2  0  0  3  0  0  0  0  0  0
  196.8740  174.6820  138.6290 C   0  0  0  0  0  2  0  0  0  0  0  0
  196.2860  174.8030  137.2110 C   0  0  0  0  0  2  0  0  0  0  0  0
  196.7420  176.0070  136.5270 N   0  0  0  0  0  0  0  0  0  0  0  0
  197.9310  175.6750  135.9690 O   0  0  0  0  0  1  0  0  0  0  0  0
  195.9910  175.1620  134.5250 C   0  0  0  0  0  1  0  0  0  0  0  0
  195.8690  176.2700  135.4570 N   0  0  0  0  0  2  0  0  0  0  0  0
  194.2550  173.6610  142.5860 C   0  0  0  0  0  0  0  0  0  0  0  0
  194.6200  172.4960  142.9100 O   0  0  0  0  0  0  0  0  0  0  0  0
  193.8540  174.6020  143.5860 N   0  0  0  0  0  2  0  0  0  0  0  0
  194.0530  174.3820  145.0100 C   0  0  0  0  0  2  0  0  0  0  0  0
  192.8390  174.8010  145.7700 C   0  0  0  0  0  3  0  0  0  0  0  0
  193.6930  176.9910  146.0760 O   0  0  0  0  0  1  0  0  0  0  0  0
  192.6940  176.0350  146.2690 C   0  0  0  0  0  0  0  0  0  0  0  0
  191.4190  176.4400  146.9810 C   0  0  2  0  0  3  0  0  0  0  0  0
  189.5650  174.9340  147.3100 C   0  0  0  0  0  1  0  0  0  0  0  0
  190.8630  175.3770  147.8250 N   0  0  0  0  0  2  0  0  0  0  0  0
  190.3280  177.1640  146.1690 C   0  0  0  0  0  2  0  0  0  0  0  0
  190.5140  177.1770  144.6530 C   0  0  0  0  0  3  0  0  0  0  0  0
  191.6000  177.9690  144.3350 F   0  0  0  0  0  0  0  0  0  0  0  0
  189.3930  177.6800  144.0170 F   0  0  0  0  0  0  0  0  0  0  0  0
  189.8920  173.3460  141.6860 N   0  0  0  0  0  0  0  0  0  0  0  0
  188.5320  173.6490  141.2600 C   0  0  0  0  0  2  0  0  0  0  0  0
  188.2390  175.0610  141.4660 N   0  0  0  0  0  2  0  0  0  0  0  0
  184.5120  178.8910  144.2090 C   0  0  0  0  0  3  0  0  0  0  0  0
  185.1650  177.2780  145.9160 C   0  0  0  0  0  3  0  0  0  0  0  0
  185.9950  176.6250  144.9950 C   0  0  0  0  0  3  0  0  0  0  0  0
  183.6070  179.0180  146.4110 F   0  0  0  0  0  0  0  0  0  0  0  0
  187.4940  175.5330  142.5650 N   0  0  0  0  0  2  0  0  0  0  0  0
  185.3530  178.2370  143.3100 C   0  0  0  0  0  0  0  0  0  0  0  0
  186.8310  176.6540  142.5730 C   0  0  0  0  0  0  0  0  0  0  0  0
  185.5950  178.5980  141.8840 C   0  0  0  0  0  3  0  0  0  0  0  0
  186.0620  177.1300  143.6940 C   0  0  0  0  0  0  0  0  0  0  0  0
  186.6160  177.5570  141.3950 C   0  0  0  0  0  3  0  0  0  0  0  0
  184.4210  178.4040  145.5180 C   0  0  2  0  0  3  0  0  0  0  0  0
  190.3550  173.9730  142.9210 C   0  0  0  0  0  2  0  0  0  0  0  0
  190.6810  172.9370  143.9430 C   0  0  0  0  0  3  0  0  0  0  0  0
  189.7290  172.4800  144.7490 C   0  0  0  0  0  2  0  0  0  0  0  0
  1 32  1  0  0  0  0
  2  3  1  0  0  0  0
  2  1  1  0  0  0  0
  3  8  1  0  0  0  0
  4  3  2  0  0  0  0
  5  7  1  0  0  0  0
  6  5  2  0  0  0  0
  6  4  1  0  0  0  0
  7  1  2  0  0  0  0
  8 18  1  1  0  0  0
 10 11  1  0  0  0  0
 10  9  1  0  0  0  0
 11  9  1  0  0  0  0
 11  8  1  1  0  0  0
 12 10  1  0  0  0  0
 13 12  1  0  0  0  0
 14 13  1  0  0  0  0
 15 14  1  0  0  0  0
 16 17  1  0  0  0  0
 17 14  1  0  0  0  0
 18 19  2  0  0  0  0
 18 20  1  0  0  0  0
 20 21  1  0  0  0  0
 21 22  1  0  0  0  0
 22 24  2  0  0  0  0
 23 24  1  0  0  0  0
 24 25  1  0  0  0  0
 25 28  1  6  0  0  0
 25 27  1  0  0  0  0
 26 27  1  0  0  0  0
 29 28  1  0  0  0  0
 30 29  1  0  0  0  0
 31 29  1  0  0  0  0
 32 46  1  0  0  0  0
 33 34  1  0  0  0  0
 33 32  1  0  0  0  0
 34 39  1  0  0  0  0
 35 45  1  0  0  0  0
 37 36  2  0  0  0  0
 39 41  1  0  0  0  0
 40 43  1  0  0  0  0
 40 35  2  0  0  0  0
 41 43  2  0  0  0  0
 42 40  1  0  0  0  0
 43 37  1  0  0  0  0
 44 42  2  0  0  0  0
 44 41  1  0  0  0  0
 45 36  1  0  0  0  0
 45 38  1  6  0  0  0
 46 47  1  0  0  0  0
 47 48  2  0  0  0  0
M  END
>  <MODEL>
6

>  <REMARK>
 VINA RESULT:      -5.7      2.920      6.637
  Name = 
  19 active torsions:
  status: ('A' for Active; 'I' for Inactive)
    1  A    between atoms: N_2  and  N_16
    2  A    between atoms: N_2  and  C_31
    3  A    between atoms: C_3  and  C_43
    4  A    between atoms: C_4  and  C_29
    5  A    between atoms: C_6  and  C_29
    6  A    between atoms: C_6  and  N_37
    7  A    between atoms: C_6  and  C_46
    8  A    between atoms: C_7  and  N_25
    9  A    between atoms: C_9  and  C_42
   10  A    between atoms: C_13  and  C_28
   11  A    between atoms: N_17  and  C_19
   12  A    between atoms: N_17  and  N_30
   13  A    between atoms: C_19  and  C_35
   14  A    between atoms: N_25  and  C_28
   15  A    between atoms: N_25  and  C_31
   16  A    between atoms: N_32  and  C_35
   17  A    between atoms: C_34  and  C_43
   18  A    between atoms: C_39  and  C_43
   19  A    between atoms: N_41  and  C_42
                            x       y       z     vdW  Elec       q    Type
                         _______ _______ _______ _____ _____    ______ ____

>  <TORSDO>
F 19

$$$$
=
 OpenBabel11042417453D

 48 51  0  0  1  0  0  0  0  0999 V2000
  191.9770  171.4130  140.2940 C   0  0  0  0  0  0  0  0  0  0  0  0
  190.5090  171.5280  140.5610 C   0  0  0  0  0  2  0  0  0  0  0  0
  189.6920  171.5350  139.3120 C   0  0  0  0  0  0  0  0  0  0  0  0
  189.6680  170.4800  138.4820 C   0  0  0  0  0  3  0  0  0  0  0  0
  191.7400  169.2120  139.1120 C   0  0  0  0  0  3  0  0  0  0  0  0
  190.5220  169.2830  138.5640 C   0  0  0  0  0  3  0  0  0  0  0  0
  192.4930  170.3100  139.7420 C   0  0  0  0  0  3  0  0  0  0  0  0
  188.7680  172.6940  139.0890 C   0  0  2  0  0  3  0  0  0  0  0  0
  188.4170  174.5070  137.4210 C   0  0  0  0  0  2  0  0  0  0  0  0
  189.2030  173.4310  136.7780 N   0  0  0  0  0  0  0  0  0  0  0  0
  189.4090  173.7740  138.2040 C   0  0  2  0  0  3  0  0  0  0  0  0
  190.3480  173.9990  136.0670 C   0  0  0  0  0  2  0  0  0  0  0  0
  191.1460  172.9340  135.2910 C   0  0  0  0  0  2  0  0  0  0  0  0
  191.7040  171.9160  136.1710 N   0  0  0  0  0  0  0  0  0  0  0  0
  192.2610  170.9950  135.3490 O   0  0  0  0  0  1  0  0  0  0  0  0
  193.9310  172.4680  136.0270 C   0  0  0  0  0  1  0  0  0  0  0  0
  192.7660  172.4850  136.8960 N   0  0  0  0  0  2  0  0  0  0  0  0
  188.2660  173.2440  140.3950 C   0  0  0  0  0  0  0  0  0  0  0  0
  187.5420  172.5370  141.1510 O   0  0  0  0  0  0  0  0  0  0  0  0
  188.6700  174.5570  140.7950 N   0  0  0  0  0  2  0  0  0  0  0  0
  188.4860  175.0690  142.1450 C   0  0  0  0  0  2  0  0  0  0  0  0
  187.2130  175.8430  142.2330 C   0  0  0  0  0  3  0  0  0  0  0  0
  188.3290  177.8800  141.7650 O   0  0  0  0  0  1  0  0  0  0  0  0
  187.1640  177.1690  142.0570 C   0  0  0  0  0  0  0  0  0  0  0  0
  185.8420  177.9090  142.0930 C   0  0  2  0  0  3  0  0  0  0  0  0
  183.8870  178.2920  140.7350 C   0  0  0  0  0  1  0  0  0  0  0  0
  185.3520  178.2870  140.7640 N   0  0  0  0  0  2  0  0  0  0  0  0
  185.6690  179.0460  143.1180 C   0  0  0  0  0  2  0  0  0  0  0  0
  185.6610  178.6320  144.5890 C   0  0  0  0  0  3  0  0  0  0  0  0
  184.4180  178.1250  144.9120 F   0  0  0  0  0  0  0  0  0  0  0  0
  185.9320  179.7100  145.4120 F   0  0  0  0  0  0  0  0  0  0  0  0
  192.8680  172.3510  140.9080 N   0  0  0  0  0  0  0  0  0  0  0  0
  192.3270  173.5980  141.4300 C   0  0  0  0  0  2  0  0  0  0  0  0
  192.5560  173.6900  142.8650 N   0  0  0  0  0  2  0  0  0  0  0  0
  189.2060  177.8260  145.6510 C   0  0  0  0  0  3  0  0  0  0  0  0
  188.5670  175.6930  146.6400 C   0  0  0  0  0  3  0  0  0  0  0  0
  189.5040  175.0290  145.8380 C   0  0  0  0  0  3  0  0  0  0  0  0
  187.4930  177.7190  147.3050 F   0  0  0  0  0  0  0  0  0  0  0  0
  191.5620  174.1130  143.7700 N   0  0  0  0  0  2  0  0  0  0  0  0
  190.1440  177.1510  144.8710 C   0  0  0  0  0  0  0  0  0  0  0  0
  191.2990  175.3600  144.0390 C   0  0  0  0  0  0  0  0  0  0  0  0
  191.0820  177.7490  143.8770 C   0  0  0  0  0  3  0  0  0  0  0  0
  190.2760  175.7910  144.9570 C   0  0  0  0  0  0  0  0  0  0  0  0
  191.8840  176.5520  143.3410 C   0  0  0  0  0  3  0  0  0  0  0  0
  188.4160  177.0880  146.5390 C   0  0  2  0  0  3  0  0  0  0  0  0
  194.2800  172.3480  140.5320 C   0  0  0  0  0  2  0  0  0  0  0  0
  194.7130  173.7140  140.1180 C   0  0  0  0  0  3  0  0  0  0  0  0
  195.5900  173.8590  139.1310 C   0  0  0  0  0  2  0  0  0  0  0  0
  1  2  1  0  0  0  0
  1 32  1  0  0  0  0
  3  2  1  0  0  0  0
  4  6  1  0  0  0  0
  4  3  2  0  0  0  0
  5  7  1  0  0  0  0
  6  5  2  0  0  0  0
  7  1  2  0  0  0  0
  8  3  1  0  0  0  0
  8 18  1  1  0  0  0
  9 11  1  0  0  0  0
 10  9  1  0  0  0  0
 10 11  1  0  0  0  0
 11  8  1  1  0  0  0
 12 10  1  0  0  0  0
 13 12  1  0  0  0  0
 13 14  1  0  0  0  0
 14 17  1  0  0  0  0
 15 14  1  0  0  0  0
 16 17  1  0  0  0  0
 18 20  1  0  0  0  0
 18 19  2  0  0  0  0
 20 21  1  0  0  0  0
 21 22  1  0  0  0  0
 23 24  1  0  0  0  0
 24 25  1  0  0  0  0
 24 22  2  0  0  0  0
 25 28  1  1  0  0  0
 26 27  1  0  0  0  0
 27 25  1  0  0  0  0
 28 29  1  0  0  0  0
 29 30  1  0  0  0  0
 29 31  1  0  0  0  0
 32 33  1  0  0  0  0
 33 34  1  0  0  0  0
 34 39  1  0  0  0  0
 35 45  1  0  0  0  0
 37 36  2  0  0  0  0
 39 41  1  0  0  0  0
 40 43  1  0  0  0  0
 40 35  2  0  0  0  0
 41 43  2  0  0  0  0
 42 40  1  0  0  0  0
 43 37  1  0  0  0  0
 44 42  2  0  0  0  0
 44 41  1  0  0  0  0
 45 36  1  0  0  0  0
 45 38  1  6  0  0  0
 46 32  1  0  0  0  0
 47 46  1  0  0  0  0
 48 47  2  0  0  0  0
M  END
>  <MODEL>
7

>  <REMARK>
 VINA RESULT:      -5.7      2.856      4.523
  Name = 
  19 active torsions:
  status: ('A' for Active; 'I' for Inactive)
    1  A    between atoms: N_2  and  N_16
    2  A    between atoms: N_2  and  C_31
    3  A    between atoms: C_3  and  C_43
    4  A    between atoms: C_4  and  C_29
    5  A    between atoms: C_6  and  C_29
    6  A    between atoms: C_6  and  N_37
    7  A    between atoms: C_6  and  C_46
    8  A    between atoms: C_7  and  N_25
    9  A    between atoms: C_9  and  C_42
   10  A    between atoms: C_13  and  C_28
   11  A    between atoms: N_17  and  C_19
   12  A    between atoms: N_17  and  N_30
   13  A    between atoms: C_19  and  C_35
   14  A    between atoms: N_25  and  C_28
   15  A    between atoms: N_25  and  C_31
   16  A    between atoms: N_32  and  C_35
   17  A    between atoms: C_34  and  C_43
   18  A    between atoms: C_39  and  C_43
   19  A    between atoms: N_41  and  C_42
                            x       y       z     vdW  Elec       q    Type
                         _______ _______ _______ _____ _____    ______ ____

>  <TORSDO>
F 19

$$$$
=
 OpenBabel11042417453D

 48 51  0  0  1  0  0  0  0  0999 V2000
  196.0610  174.5120  141.4810 C   0  0  0  0  0  0  0  0  0  0  0  0
  194.8670  175.3810  141.7270 C   0  0  0  0  0  2  0  0  0  0  0  0
  194.6700  175.7000  143.1710 C   0  0  0  0  0  0  0  0  0  0  0  0
  195.5810  176.4010  143.8670 C   0  0  0  0  0  3  0  0  0  0  0  0
  197.6580  176.1730  142.4770 C   0  0  0  0  0  3  0  0  0  0  0  0
  196.9210  176.7980  143.4010 C   0  0  0  0  0  3  0  0  0  0  0  0
  197.2980  174.9540  141.7320 C   0  0  0  0  0  3  0  0  0  0  0  0
  193.3490  175.3560  143.7890 C   0  0  2  0  0  3  0  0  0  0  0  0
  192.2820  173.4590  144.9950 C   0  0  0  0  0  2  0  0  0  0  0  0
  193.7490  173.3170  145.1140 N   0  0  0  0  0  0  0  0  0  0  0  0
  193.1350  173.8360  143.8710 C   0  0  2  0  0  3  0  0  0  0  0  0
  194.1500  171.9440  144.8120 C   0  0  0  0  0  2  0  0  0  0  0  0
  194.7140  171.2110  146.0440 C   0  0  0  0  0  2  0  0  0  0  0  0
  194.6330  169.7630  145.9060 N   0  0  0  0  0  0  0  0  0  0  0  0
  194.5700  169.5300  144.5740 O   0  0  0  0  0  1  0  0  0  0  0  0
  196.8780  170.2090  146.1300 C   0  0  0  0  0  1  0  0  0  0  0  0
  195.8490  169.2050  146.3420 N   0  0  0  0  0  2  0  0  0  0  0  0
  192.2220  176.0570  143.0810 C   0  0  0  0  0  0  0  0  0  0  0  0
  191.6540  175.5180  142.0910 O   0  0  0  0  0  0  0  0  0  0  0  0
  191.7660  177.3170  143.5840 N   0  0  0  0  0  2  0  0  0  0  0  0
  190.5170  177.9350  143.1640 C   0  0  0  0  0  2  0  0  0  0  0  0
  189.5110  177.8580  144.2630 C   0  0  0  0  0  3  0  0  0  0  0  0
  188.5280  175.9140  143.3310 O   0  0  0  0  0  1  0  0  0  0  0  0
  188.5770  176.9000  144.3170 C   0  0  0  0  0  0  0  0  0  0  0  0
  187.6130  176.8210  145.4840 C   0  0  2  0  0  3  0  0  0  0  0  0
  186.4810  178.1330  147.1600 C   0  0  0  0  0  1  0  0  0  0  0  0
  186.9410  178.0930  145.7700 N   0  0  0  0  0  2  0  0  0  0  0  0
  188.0780  176.1110  146.7690 C   0  0  0  0  0  2  0  0  0  0  0  0
  189.2460  175.1380  146.6160 C   0  0  0  0  0  3  0  0  0  0  0  0
  189.1830  174.1900  147.6190 F   0  0  0  0  0  0  0  0  0  0  0  0
  190.4590  175.7970  146.7010 F   0  0  0  0  0  0  0  0  0  0  0  0
  195.9050  173.3280  140.6910 N   0  0  0  0  0  0  0  0  0  0  0  0
  195.5680  172.0780  141.3570 C   0  0  0  0  0  2  0  0  0  0  0  0
  194.4190  171.4530  140.7150 N   0  0  0  0  0  2  0  0  0  0  0  0
  188.6710  173.1960  140.5960 C   0  0  0  0  0  3  0  0  0  0  0  0
  188.9660  172.0600  142.7310 C   0  0  0  0  0  3  0  0  0  0  0  0
  190.3210  171.8490  142.4430 C   0  0  0  0  0  3  0  0  0  0  0  0
  186.8310  172.9100  142.0840 F   0  0  0  0  0  0  0  0  0  0  0  0
  193.1130  171.5420  141.2360 N   0  0  0  0  0  2  0  0  0  0  0  0
  190.0250  172.9890  140.3320 C   0  0  0  0  0  0  0  0  0  0  0  0
  192.1560  172.2430  140.6980 C   0  0  0  0  0  0  0  0  0  0  0  0
  190.7770  173.4150  139.1160 C   0  0  0  0  0  3  0  0  0  0  0  0
  190.8190  172.3240  141.2270 C   0  0  0  0  0  0  0  0  0  0  0  0
  192.2180  172.9450  139.3750 C   0  0  0  0  0  3  0  0  0  0  0  0
  188.1450  172.7260  141.8040 C   0  0  2  0  0  3  0  0  0  0  0  0
  196.5920  173.2300  139.4060 C   0  0  0  0  0  2  0  0  0  0  0  0
  195.7080  173.7060  138.3030 C   0  0  0  0  0  3  0  0  0  0  0  0
  195.9020  174.9080  137.7720 C   0  0  0  0  0  2  0  0  0  0  0  0
  1  2  1  0  0  0  0
  1  7  2  0  0  0  0
  2  3  1  0  0  0  0
  3  8  1  0  0  0  0
  3  4  2  0  0  0  0
  5  6  2  0  0  0  0
  6  4  1  0  0  0  0
  7  5  1  0  0  0  0
  8 18  1  6  0  0  0
  9 10  1  0  0  0  0
 11  8  1  1  0  0  0
 11  9  1  0  0  0  0
 11 10  1  0  0  0  0
 12 10  1  0  0  0  0
 12 13  1  0  0  0  0
 14 13  1  0  0  0  0
 14 17  1  0  0  0  0
 15 14  1  0  0  0  0
 16 17  1  0  0  0  0
 18 20  1  0  0  0  0
 19 18  2  0  0  0  0
 21 20  1  0  0  0  0
 21 22  1  0  0  0  0
 22 24  2  0  0  0  0
 23 24  1  0  0  0  0
 24 25  1  0  0  0  0
 25 27  1  0  0  0  0
 25 28  1  1  0  0  0
 27 26  1  0  0  0  0
 29 31  1  0  0  0  0
 29 28  1  0  0  0  0
 29 30  1  0  0  0  0
 32 33  1  0  0  0  0
 32  1  1  0  0  0  0
 34 39  1  0  0  0  0
 34 33  1  0  0  0  0
 35 45  1  0  0  0  0
 37 36  2  0  0  0  0
 40 35  2  0  0  0  0
 40 43  1  0  0  0  0
 41 43  2  0  0  0  0
 41 39  1  0  0  0  0
 42 44  2  0  0  0  0
 42 40  1  0  0  0  0
 43 37  1  0  0  0  0
 44 41  1  0  0  0  0
 45 38  1  6  0  0  0
 45 36  1  0  0  0  0
 46 32  1  0  0  0  0
 47 46  1  0  0  0  0
 48 47  2  0  0  0  0
M  END
>  <MODEL>
8

>  <REMARK>
 VINA RESULT:      -5.6      2.543      4.776
  Name = 
  19 active torsions:
  status: ('A' for Active; 'I' for Inactive)
    1  A    between atoms: N_2  and  N_16
    2  A    between atoms: N_2  and  C_31
    3  A    between atoms: C_3  and  C_43
    4  A    between atoms: C_4  and  C_29
    5  A    between atoms: C_6  and  C_29
    6  A    between atoms: C_6  and  N_37
    7  A    between atoms: C_6  and  C_46
    8  A    between atoms: C_7  and  N_25
    9  A    between atoms: C_9  and  C_42
   10  A    between atoms: C_13  and  C_28
   11  A    between atoms: N_17  and  C_19
   12  A    between atoms: N_17  and  N_30
   13  A    between atoms: C_19  and  C_35
   14  A    between atoms: N_25  and  C_28
   15  A    between atoms: N_25  and  C_31
   16  A    between atoms: N_32  and  C_35
   17  A    between atoms: C_34  and  C_43
   18  A    between atoms: C_39  and  C_43
   19  A    between atoms: N_41  and  C_42
                            x       y       z     vdW  Elec       q    Type
                         _______ _______ _______ _____ _____    ______ ____

>  <TORSDO>
F 19

$$$$
=
 OpenBabel11042417453D

 48 51  0  0  1  0  0  0  0  0999 V2000
  190.0600  172.2940  139.2770 C   0  0  0  0  0  0  0  0  0  0  0  0
  188.8450  172.4240  140.1410 C   0  0  0  0  0  2  0  0  0  0  0  0
  188.4750  173.8440  140.4120 C   0  0  0  0  0  0  0  0  0  0  0  0
  188.1130  174.6770  139.4220 C   0  0  0  0  0  3  0  0  0  0  0  0
  189.0170  173.5500  137.3700 C   0  0  0  0  0  3  0  0  0  0  0  0
  188.1810  174.4000  137.9770 C   0  0  0  0  0  3  0  0  0  0  0  0
  190.0500  172.7160  138.0080 C   0  0  0  0  0  3  0  0  0  0  0  0
  188.3620  174.2770  141.8420 C   0  0  2  0  0  3  0  0  0  0  0  0
  188.0440  176.2490  143.3270 C   0  0  0  0  0  2  0  0  0  0  0  0
  186.7180  175.8290  142.8240 N   0  0  0  0  0  0  0  0  0  0  0  0
  187.9190  175.7440  141.9620 C   0  0  2  0  0  3  0  0  0  0  0  0
  185.9700  176.9900  142.3440 C   0  0  0  0  0  2  0  0  0  0  0  0
  185.2160  177.7130  143.4760 C   0  0  0  0  0  2  0  0  0  0  0  0
  186.0100  178.7790  144.0720 N   0  0  0  0  0  0  0  0  0  0  0  0
  185.2720  179.9040  143.9240 O   0  0  0  0  0  1  0  0  0  0  0  0
  185.0670  177.5810  145.7940 C   0  0  0  0  0  1  0  0  0  0  0  0
  186.0970  178.5490  145.4570 N   0  0  0  0  0  2  0  0  0  0  0  0
  189.6340  173.9970  142.5930 C   0  0  0  0  0  0  0  0  0  0  0  0
  189.6660  173.1060  143.4870 O   0  0  0  0  0  0  0  0  0  0  0  0
  190.8200  174.7140  142.2380 N   0  0  0  0  0  2  0  0  0  0  0  0
  192.1490  174.3260  142.6880 C   0  0  0  0  0  2  0  0  0  0  0  0
  192.2910  174.5850  144.1510 C   0  0  0  0  0  3  0  0  0  0  0  0
  191.8640  176.8980  143.8620 O   0  0  0  0  0  1  0  0  0  0  0  0
  192.1600  175.8070  144.6810 C   0  0  0  0  0  0  0  0  0  0  0  0
  192.2500  176.0170  146.1790 C   0  0  2  0  0  3  0  0  0  0  0  0
  194.4520  176.9990  146.2160 C   0  0  0  0  0  1  0  0  0  0  0  0
  193.6150  175.8990  146.7010 N   0  0  0  0  0  2  0  0  0  0  0  0
  191.2230  175.3040  147.0800 C   0  0  0  0  0  2  0  0  0  0  0  0
  189.7990  175.2120  146.5350 C   0  0  0  0  0  3  0  0  0  0  0  0
  188.9770  176.0470  147.2660 F   0  0  0  0  0  0  0  0  0  0  0  0
  189.3140  173.9190  146.6230 F   0  0  0  0  0  0  0  0  0  0  0  0
  191.1280  171.4430  139.7060 N   0  0  0  0  0  0  0  0  0  0  0  0
  192.4800  171.7230  139.2430 C   0  0  0  0  0  2  0  0  0  0  0  0
  193.4510  170.9730  140.0290 N   0  0  0  0  0  2  0  0  0  0  0  0
  195.3460  172.0100  145.6350 C   0  0  0  0  0  3  0  0  0  0  0  0
  196.6950  173.4560  144.2100 C   0  0  0  0  0  3  0  0  0  0  0  0
  196.0000  173.0070  143.0800 C   0  0  0  0  0  3  0  0  0  0  0  0
  197.0610  173.3770  146.5680 F   0  0  0  0  0  0  0  0  0  0  0  0
  194.2830  171.5790  140.9920 N   0  0  0  0  0  2  0  0  0  0  0  0
  194.6560  171.5850  144.5000 C   0  0  0  0  0  0  0  0  0  0  0  0
  194.1280  171.4520  142.2780 C   0  0  0  0  0  0  0  0  0  0  0  0
  193.5350  170.6030  144.4480 C   0  0  0  0  0  3  0  0  0  0  0  0
  194.9850  172.0640  143.2600 C   0  0  0  0  0  0  0  0  0  0  0  0
  193.1540  170.5370  142.9600 C   0  0  0  0  0  3  0  0  0  0  0  0
  196.3710  172.9510  145.4830 C   0  0  2  0  0  3  0  0  0  0  0  0
  190.8330  170.0670  140.0980 C   0  0  0  0  0  2  0  0  0  0  0  0
  190.3740  169.2760  138.9190 C   0  0  0  0  0  3  0  0  0  0  0  0
  191.1350  168.2970  138.4420 C   0  0  0  0  0  2  0  0  0  0  0  0
  1 32  1  0  0  0  0
  1  2  1  0  0  0  0
  2  3  1  0  0  0  0
  3  8  1  0  0  0  0
  4  3  2  0  0  0  0
  5  6  2  0  0  0  0
  5  7  1  0  0  0  0
  6  4  1  0  0  0  0
  7  1  2  0  0  0  0
  8 18  1  6  0  0  0
 10  9  1  0  0  0  0
 11  8  1  1  0  0  0
 11 10  1  0  0  0  0
 11  9  1  0  0  0  0
 12 10  1  0  0  0  0
 12 13  1  0  0  0  0
 13 14  1  0  0  0  0
 14 17  1  0  0  0  0
 15 14  1  0  0  0  0
 17 16  1  0  0  0  0
 18 19  2  0  0  0  0
 20 18  1  0  0  0  0
 20 21  1  0  0  0  0
 21 22  1  0  0  0  0
 22 24  2  0  0  0  0
 23 24  1  0  0  0  0
 24 25  1  0  0  0  0
 25 27  1  0  0  0  0
 25 28  1  1  0  0  0
 26 27  1  0  0  0  0
 29 31  1  0  0  0  0
 29 28  1  0  0  0  0
 29 30  1  0  0  0  0
 32 46  1  0  0  0  0
 33 32  1  0  0  0  0
 33 34  1  0  0  0  0
 34 39  1  0  0  0  0
 36 45  1  0  0  0  0
 37 43  1  0  0  0  0
 37 36  2  0  0  0  0
 39 41  1  0  0  0  0
 40 35  2  0  0  0  0
 41 44  1  0  0  0  0
 41 43  2  0  0  0  0
 42 40  1  0  0  0  0
 43 40  1  0  0  0  0
 44 42  2  0  0  0  0
 45 35  1  0  0  0  0
 45 38  1  6  0  0  0
 47 46  1  0  0  0  0
 48 47  2  0  0  0  0
M  END
>  <MODEL>
9

>  <REMARK>
 VINA RESULT:      -5.6      2.731      6.789
  Name = 
  19 active torsions:
  status: ('A' for Active; 'I' for Inactive)
    1  A    between atoms: N_2  and  N_16
    2  A    between atoms: N_2  and  C_31
    3  A    between atoms: C_3  and  C_43
    4  A    between atoms: C_4  and  C_29
    5  A    between atoms: C_6  and  C_29
    6  A    between atoms: C_6  and  N_37
    7  A    between atoms: C_6  and  C_46
    8  A    between atoms: C_7  and  N_25
    9  A    between atoms: C_9  and  C_42
   10  A    between atoms: C_13  and  C_28
   11  A    between atoms: N_17  and  C_19
   12  A    between atoms: N_17  and  N_30
   13  A    between atoms: C_19  and  C_35
   14  A    between atoms: N_25  and  C_28
   15  A    between atoms: N_25  and  C_31
   16  A    between atoms: N_32  and  C_35
   17  A    between atoms: C_34  and  C_43
   18  A    between atoms: C_39  and  C_43
   19  A    between atoms: N_41  and  C_42
                            x       y       z     vdW  Elec       q    Type
                         _______ _______ _______ _____ _____    ______ ____

>  <TORSDO>
F 19

$$$$
