=
 OpenBabel11042419433D

 40 42  0  0  1  0  0  0  0  0999 V2000
  192.0830  175.4430  147.5090 C   0  0  0  0  0  3  0  0  0  0  0  0
  190.7770  175.3890  147.7680 C   0  0  0  0  0  3  0  0  0  0  0  0
  192.6380  175.2700  146.1090 C   0  0  1  0  0  3  0  0  0  0  0  0
  189.8330  175.0370  146.7040 C   0  0  0  0  0  0  0  0  0  0  0  0
  191.6660  174.5430  145.1940 C   0  0  0  0  0  3  0  0  0  0  0  0
  188.5930  175.1240  146.9090 O   0  0  0  0  0  0  0  0  0  0  0  0
  190.3470  174.4930  145.4350 C   0  0  0  0  0  0  0  0  0  0  0  0
  189.4540  173.7490  144.5950 N   0  0  0  0  0  2  0  0  0  0  0  0
  189.3400  173.0460  140.9860 C   0  0  0  0  0  0  0  0  0  0  0  0
  189.5790  172.1150  139.8500 C   0  0  0  0  0  1  0  0  0  0  0  0
  189.6550  172.8140  142.3160 C   0  0  0  0  0  0  0  0  0  0  0  0
  188.6730  174.9250  142.5150 C   0  0  0  0  0  0  0  0  0  0  0  0
  188.5730  174.5330  140.8740 S   0  0  0  0  0  0  0  0  0  0  0  0
  190.2620  171.6450  142.7580 O   0  0  0  0  0  1  0  0  0  0  0  0
  189.2960  173.8620  143.1740 C   0  0  0  0  0  0  0  0  0  0  0  0
  187.9690  176.0740  143.1640 C   0  0  0  0  0  2  0  0  0  0  0  0
  187.4510  177.0670  142.1350 C   0  0  0  0  0  2  0  0  0  0  0  0
  187.1800  178.2930  142.7480 O   0  0  0  0  0  0  0  0  0  0  0  0
  184.9930  177.9010  141.8720 C   0  0  0  0  0  1  0  0  0  0  0  0
  185.8290  178.2290  143.0960 C   0  0  2  0  0  3  0  0  0  0  0  0
  185.3810  179.5480  143.7110 C   0  0  0  0  0  2  0  0  0  0  0  0
  185.6940  179.5900  145.0710 O   0  0  0  0  0  0  0  0  0  0  0  0
  184.5880  179.0190  145.7050 C   0  0  0  0  0  2  0  0  0  0  0  0
  186.1600  178.7300  147.4860 O   0  0  0  0  0  1  0  0  0  0  0  0
  185.0260  178.1750  146.8930 C   0  0  2  0  0  3  0  0  0  0  0  0
  185.3140  176.7500  146.4640 C   0  0  0  0  0  1  0  0  0  0  0  0
  193.0420  176.6410  145.5350 C   0  0  2  0  0  3  0  0  0  0  0  0
  193.1460  176.4430  143.1420 O   0  0  0  0  0  0  0  0  0  0  0  0
  192.5170  176.8670  144.1480 C   0  0  0  0  0  0  0  0  0  0  0  0
  191.3370  177.6420  143.9660 N   0  0  0  0  0  1  0  0  0  0  0  0
  194.5600  176.8030  145.5230 C   0  0  0  0  0  2  0  0  0  0  0  0
  195.2360  175.4990  145.9050 C   0  0  0  0  0  2  0  0  0  0  0  0
  195.9170  174.9490  144.7460 N   0  0  0  0  0  2  0  0  0  0  0  0
  196.7670  173.1400  143.5660 O   0  0  0  0  0  0  0  0  0  0  0  0
  196.1720  173.5510  144.5990 C   0  0  0  0  0  0  0  0  0  0  0  0
  196.1480  170.1900  145.9180 C   0  0  0  0  0  2  0  0  0  0  0  0
  194.6570  170.4470  145.8500 C   0  0  0  0  0  2  0  0  0  0  0  0
  196.8200  171.5520  145.9390 C   0  0  0  0  0  2  0  0  0  0  0  0
  194.5130  171.8070  145.2110 C   0  0  0  0  0  2  0  0  0  0  0  0
  195.7370  172.5780  145.6520 C   0  0  0  0  0  3  0  0  0  0  0  0
  1  2  2  0  0  0  0
  3 27  1  6  0  0  0
  3  1  1  0  0  0  0
  4  6  2  0  0  0  0
  4  2  1  0  0  0  0
  5  7  2  0  0  0  0
  5  3  1  0  0  0  0
  7  4  1  0  0  0  0
  8  7  1  0  0  0  0
  9 11  2  0  0  0  0
 10  9  1  0  0  0  0
 11 14  1  0  0  0  0
 11 15  1  0  0  0  0
 12 16  1  0  0  0  0
 12 15  2  0  0  0  0
 13  9  1  0  0  0  0
 13 12  1  0  0  0  0
 15  8  1  0  0  0  0
 17 18  1  0  0  0  0
 17 16  1  0  0  0  0
 18 20  1  0  0  0  0
 20 19  1  6  0  0  0
 20 21  1  0  0  0  0
 21 22  1  0  0  0  0
 22 23  1  0  0  0  0
 23 25  1  0  0  0  0
 25 26  1  6  0  0  0
 25 24  1  0  0  0  0
 27 31  1  6  0  0  0
 28 29  2  0  0  0  0
 29 27  1  0  0  0  0
 30 29  1  0  0  0  0
 31 32  1  0  0  0  0
 33 32  1  0  0  0  0
 34 35  2  0  0  0  0
 35 33  1  0  0  0  0
 35 40  1  0  0  0  0
 36 38  1  0  0  0  0
 37 36  1  0  0  0  0
 39 40  1  0  0  0  0
 39 37  1  0  0  0  0
 40 38  1  0  0  0  0
M  END
>  <MODEL>
1

>  <REMARK>
 VINA RESULT:      -6.8      0.000      0.000
  Name = 
  16 active torsions:
  status: ('A' for Active; 'I' for Inactive)
    1  A    between atoms: C_3  and  C_19
    2  A    between atoms: O_4  and  C_8
    3  A    between atoms: O_4  and  C_35
    4  A    between atoms: C_7  and  C_8
    5  A    between atoms: C_7  and  C_33
    6  A    between atoms: N_9  and  C_27
    7  A    between atoms: C_10  and  O_16
    8  A    between atoms: C_10  and  C_35
    9  A    between atoms: C_12  and  C_19
   10  A    between atoms: C_12  and  C_27
   11  A    between atoms: O_16  and  C_38
   12  A    between atoms: C_18  and  C_19
   13  A    between atoms: C_21  and  C_38
   14  A    between atoms: C_29  and  C_30
   15  A    between atoms: C_32  and  N_34
   16  A    between atoms: N_34  and  C_40
                            x       y       z     vdW  Elec       q    Type
                         _______ _______ _______ _____ _____    ______ ____

>  <TORSDO>
F 16

$$$$
=
 OpenBabel11042419433D

 40 42  0  0  1  0  0  0  0  0999 V2000
  190.0220  177.7350  143.0880 C   0  0  0  0  0  3  0  0  0  0  0  0
  190.1940  177.9870  144.3850 C   0  0  0  0  0  3  0  0  0  0  0  0
  189.9020  176.3250  142.5450 C   0  0  1  0  0  3  0  0  0  0  0  0
  190.3950  176.8800  145.3240 C   0  0  0  0  0  0  0  0  0  0  0  0
  190.4990  175.2960  143.4900 C   0  0  0  0  0  3  0  0  0  0  0  0
  190.4160  177.1040  146.5640 O   0  0  0  0  0  0  0  0  0  0  0  0
  190.6660  175.5300  144.8010 C   0  0  0  0  0  0  0  0  0  0  0  0
  191.2900  174.5710  145.6660 N   0  0  0  0  0  2  0  0  0  0  0  0
  193.5670  171.9430  144.4660 C   0  0  0  0  0  0  0  0  0  0  0  0
  193.7770  170.6410  143.7760 C   0  0  0  0  0  1  0  0  0  0  0  0
  192.3450  172.5320  144.7490 C   0  0  0  0  0  0  0  0  0  0  0  0
  193.7720  174.1760  145.6000 C   0  0  0  0  0  0  0  0  0  0  0  0
  194.7850  172.9780  144.9700 S   0  0  0  0  0  0  0  0  0  0  0  0
  191.1270  171.9500  144.4170 O   0  0  0  0  0  1  0  0  0  0  0  0
  192.4500  173.7730  145.3910 C   0  0  0  0  0  0  0  0  0  0  0  0
  194.2210  175.5330  146.0400 C   0  0  0  0  0  2  0  0  0  0  0  0
  195.1110  176.1930  144.9980 C   0  0  0  0  0  2  0  0  0  0  0  0
  194.4030  176.3690  143.8080 O   0  0  0  0  0  0  0  0  0  0  0  0
  196.6440  176.6920  143.0490 C   0  0  0  0  0  1  0  0  0  0  0  0
  195.3050  176.0230  142.7990 C   0  0  2  0  0  3  0  0  0  0  0  0
  194.7530  176.4250  141.4380 C   0  0  0  0  0  2  0  0  0  0  0  0
  194.5130  175.2970  140.6500 O   0  0  0  0  0  0  0  0  0  0  0  0
  193.2150  174.9030  140.9830 C   0  0  0  0  0  2  0  0  0  0  0  0
  194.3950  172.8210  140.9660 O   0  0  0  0  0  1  0  0  0  0  0  0
  193.1600  173.4060  141.2480 C   0  0  2  0  0  3  0  0  0  0  0  0
  192.0760  172.7510  140.4150 C   0  0  0  0  0  1  0  0  0  0  0  0
  188.4280  176.0130  142.2230 C   0  0  2  0  0  3  0  0  0  0  0  0
  188.5000  174.7460  140.1820 O   0  0  0  0  0  0  0  0  0  0  0  0
  188.2620  174.7570  141.4190 C   0  0  0  0  0  0  0  0  0  0  0  0
  187.7510  173.5880  142.0490 N   0  0  0  0  0  1  0  0  0  0  0  0
  187.7750  177.1720  141.4730 C   0  0  0  0  0  2  0  0  0  0  0  0
  186.3490  177.3770  141.9500 C   0  0  0  0  0  2  0  0  0  0  0  0
  186.1760  178.7530  142.3830 N   0  0  0  0  0  2  0  0  0  0  0  0
  185.5980  180.3070  144.0070 O   0  0  0  0  0  0  0  0  0  0  0  0
  185.7240  179.0920  143.6950 C   0  0  0  0  0  0  0  0  0  0  0  0
  184.8010  178.1420  147.0540 C   0  0  0  0  0  2  0  0  0  0  0  0
  186.0560  177.3110  146.8910 C   0  0  0  0  0  2  0  0  0  0  0  0
  184.3140  178.4680  145.6530 C   0  0  0  0  0  2  0  0  0  0  0  0
  186.6160  177.6890  145.5410 C   0  0  0  0  0  2  0  0  0  0  0  0
  185.4060  178.0230  144.6960 C   0  0  0  0  0  3  0  0  0  0  0  0
  1  2  2  0  0  0  0
  2  4  1  0  0  0  0
  3 27  1  1  0  0  0
  3  1  1  0  0  0  0
  3  5  1  0  0  0  0
  4  6  2  0  0  0  0
  5  7  2  0  0  0  0
  7  4  1  0  0  0  0
  7  8  1  0  0  0  0
  9 11  2  0  0  0  0
  9 13  1  0  0  0  0
 10  9  1  0  0  0  0
 11 15  1  0  0  0  0
 12 16  1  0  0  0  0
 13 12  1  0  0  0  0
 14 11  1  0  0  0  0
 15 12  2  0  0  0  0
 15  8  1  0  0  0  0
 17 16  1  0  0  0  0
 18 17  1  0  0  0  0
 20 19  1  1  0  0  0
 20 18  1  0  0  0  0
 21 20  1  0  0  0  0
 22 23  1  0  0  0  0
 22 21  1  0  0  0  0
 23 25  1  0  0  0  0
 24 25  1  0  0  0  0
 25 26  1  6  0  0  0
 27 31  1  6  0  0  0
 28 29  2  0  0  0  0
 29 30  1  0  0  0  0
 29 27  1  0  0  0  0
 31 32  1  0  0  0  0
 32 33  1  0  0  0  0
 33 35  1  0  0  0  0
 35 34  2  0  0  0  0
 35 40  1  0  0  0  0
 37 36  1  0  0  0  0
 38 36  1  0  0  0  0
 39 37  1  0  0  0  0
 40 39  1  0  0  0  0
 40 38  1  0  0  0  0
M  END
>  <MODEL>
2

>  <REMARK>
 VINA RESULT:      -6.7      2.654      8.460
  Name = 
  16 active torsions:
  status: ('A' for Active; 'I' for Inactive)
    1  A    between atoms: C_3  and  C_19
    2  A    between atoms: O_4  and  C_8
    3  A    between atoms: O_4  and  C_35
    4  A    between atoms: C_7  and  C_8
    5  A    between atoms: C_7  and  C_33
    6  A    between atoms: N_9  and  C_27
    7  A    between atoms: C_10  and  O_16
    8  A    between atoms: C_10  and  C_35
    9  A    between atoms: C_12  and  C_19
   10  A    between atoms: C_12  and  C_27
   11  A    between atoms: O_16  and  C_38
   12  A    between atoms: C_18  and  C_19
   13  A    between atoms: C_21  and  C_38
   14  A    between atoms: C_29  and  C_30
   15  A    between atoms: C_32  and  N_34
   16  A    between atoms: N_34  and  C_40
                            x       y       z     vdW  Elec       q    Type
                         _______ _______ _______ _____ _____    ______ ____

>  <TORSDO>
F 16

$$$$
=
 OpenBabel11042419433D

 40 42  0  0  1  0  0  0  0  0999 V2000
  189.9460  177.8500  143.2960 C   0  0  0  0  0  3  0  0  0  0  0  0
  190.1160  177.9600  144.6130 C   0  0  0  0  0  3  0  0  0  0  0  0
  189.8730  176.5070  142.5980 C   0  0  1  0  0  3  0  0  0  0  0  0
  190.3580  176.7620  145.4220 C   0  0  0  0  0  0  0  0  0  0  0  0
  190.5090  175.3990  143.4210 C   0  0  0  0  0  3  0  0  0  0  0  0
  190.3760  176.8460  146.6790 O   0  0  0  0  0  0  0  0  0  0  0  0
  190.6730  175.4890  144.7500 C   0  0  0  0  0  0  0  0  0  0  0  0
  191.3330  174.4610  145.5010 N   0  0  0  0  0  2  0  0  0  0  0  0
  194.9310  173.6980  145.4440 C   0  0  0  0  0  0  0  0  0  0  0  0
  196.3240  174.0440  145.8360 C   0  0  0  0  0  1  0  0  0  0  0  0
  193.7970  174.4520  145.7010 C   0  0  0  0  0  0  0  0  0  0  0  0
  192.8120  172.6320  144.6150 C   0  0  0  0  0  0  0  0  0  0  0  0
  194.4650  172.2830  144.6750 S   0  0  0  0  0  0  0  0  0  0  0  0
  193.8300  175.6690  146.3700 O   0  0  0  0  0  1  0  0  0  0  0  0
  192.6110  173.8700  145.2330 C   0  0  0  0  0  0  0  0  0  0  0  0
  191.7450  171.6580  144.2240 C   0  0  0  0  0  2  0  0  0  0  0  0
  191.1340  172.0100  142.8770 C   0  0  0  0  0  2  0  0  0  0  0  0
  192.1430  172.2720  141.9470 O   0  0  0  0  0  0  0  0  0  0  0  0
  190.8570  172.1970  139.9350 C   0  0  0  0  0  1  0  0  0  0  0  0
  191.5360  173.0700  140.9750 C   0  0  2  0  0  3  0  0  0  0  0  0
  192.5700  173.9760  140.3180 C   0  0  0  0  0  2  0  0  0  0  0  0
  193.2040  174.7740  141.2720 O   0  0  0  0  0  0  0  0  0  0  0  0
  194.5560  174.7340  140.9240 C   0  0  0  0  0  2  0  0  0  0  0  0
  195.6570  176.4820  142.1330 O   0  0  0  0  0  1  0  0  0  0  0  0
  195.4280  175.1060  142.1150 C   0  0  2  0  0  3  0  0  0  0  0  0
  196.7490  174.3630  142.0670 C   0  0  0  0  0  1  0  0  0  0  0  0
  188.4090  176.1830  142.2430 C   0  0  2  0  0  3  0  0  0  0  0  0
  188.4950  174.8830  140.2230 O   0  0  0  0  0  0  0  0  0  0  0  0
  188.2690  174.9090  141.4620 C   0  0  0  0  0  0  0  0  0  0  0  0
  187.7950  173.7380  142.1170 N   0  0  0  0  0  1  0  0  0  0  0  0
  187.7730  177.3230  141.4510 C   0  0  0  0  0  2  0  0  0  0  0  0
  186.3280  177.5190  141.8710 C   0  0  0  0  0  2  0  0  0  0  0  0
  186.1500  178.8690  142.3750 N   0  0  0  0  0  2  0  0  0  0  0  0
  185.5600  180.3340  144.0760 O   0  0  0  0  0  0  0  0  0  0  0  0
  185.6910  179.1380  143.7010 C   0  0  0  0  0  0  0  0  0  0  0  0
  184.8110  178.0060  147.0150 C   0  0  0  0  0  2  0  0  0  0  0  0
  186.0480  177.1650  146.7800 C   0  0  0  0  0  2  0  0  0  0  0  0
  184.3050  178.4220  145.6450 C   0  0  0  0  0  2  0  0  0  0  0  0
  186.5900  177.6140  145.4440 C   0  0  0  0  0  2  0  0  0  0  0  0
  185.3720  178.0170  144.6430 C   0  0  0  0  0  3  0  0  0  0  0  0
  1  2  2  0  0  0  0
  2  4  1  0  0  0  0
  3 27  1  1  0  0  0
  3  1  1  0  0  0  0
  3  5  1  0  0  0  0
  4  6  2  0  0  0  0
  5  7  2  0  0  0  0
  7  4  1  0  0  0  0
  7  8  1  0  0  0  0
  9 11  2  0  0  0  0
  9 10  1  0  0  0  0
 11 14  1  0  0  0  0
 12 13  1  0  0  0  0
 12 15  2  0  0  0  0
 13  9  1  0  0  0  0
 15  8  1  0  0  0  0
 15 11  1  0  0  0  0
 16 12  1  0  0  0  0
 17 16  1  0  0  0  0
 18 17  1  0  0  0  0
 20 19  1  6  0  0  0
 20 18  1  0  0  0  0
 21 20  1  0  0  0  0
 21 22  1  0  0  0  0
 23 22  1  0  0  0  0
 23 25  1  0  0  0  0
 25 26  1  6  0  0  0
 25 24  1  0  0  0  0
 27 31  1  6  0  0  0
 28 29  2  0  0  0  0
 29 30  1  0  0  0  0
 29 27  1  0  0  0  0
 31 32  1  0  0  0  0
 32 33  1  0  0  0  0
 33 35  1  0  0  0  0
 35 34  2  0  0  0  0
 35 40  1  0  0  0  0
 37 36  1  0  0  0  0
 38 36  1  0  0  0  0
 39 37  1  0  0  0  0
 40 39  1  0  0  0  0
 40 38  1  0  0  0  0
M  END
>  <MODEL>
3

>  <REMARK>
 VINA RESULT:      -6.7      2.608      8.497
  Name = 
  16 active torsions:
  status: ('A' for Active; 'I' for Inactive)
    1  A    between atoms: C_3  and  C_19
    2  A    between atoms: O_4  and  C_8
    3  A    between atoms: O_4  and  C_35
    4  A    between atoms: C_7  and  C_8
    5  A    between atoms: C_7  and  C_33
    6  A    between atoms: N_9  and  C_27
    7  A    between atoms: C_10  and  O_16
    8  A    between atoms: C_10  and  C_35
    9  A    between atoms: C_12  and  C_19
   10  A    between atoms: C_12  and  C_27
   11  A    between atoms: O_16  and  C_38
   12  A    between atoms: C_18  and  C_19
   13  A    between atoms: C_21  and  C_38
   14  A    between atoms: C_29  and  C_30
   15  A    between atoms: C_32  and  N_34
   16  A    between atoms: N_34  and  C_40
                            x       y       z     vdW  Elec       q    Type
                         _______ _______ _______ _____ _____    ______ ____

>  <TORSDO>
F 16

$$$$
=
 OpenBabel11042419433D

 40 42  0  0  1  0  0  0  0  0999 V2000
  189.4690  174.3360  142.9980 C   0  0  0  0  0  3  0  0  0  0  0  0
  189.8370  175.4990  143.5350 C   0  0  0  0  0  3  0  0  0  0  0  0
  188.7070  174.2530  141.6900 C   0  0  1  0  0  3  0  0  0  0  0  0
  189.4020  176.7570  142.9230 C   0  0  0  0  0  0  0  0  0  0  0  0
  187.9890  175.5520  141.3640 C   0  0  0  0  0  3  0  0  0  0  0  0
  189.8640  177.8520  143.3430 O   0  0  0  0  0  0  0  0  0  0  0  0
  188.3570  176.7320  141.8860 C   0  0  0  0  0  0  0  0  0  0  0  0
  187.6280  177.9370  141.6160 N   0  0  0  0  0  2  0  0  0  0  0  0
  183.9720  178.1900  141.2930 C   0  0  0  0  0  0  0  0  0  0  0  0
  182.7420  178.0440  140.4690 C   0  0  0  0  0  1  0  0  0  0  0  0
  185.2750  178.0040  140.8600 C   0  0  0  0  0  0  0  0  0  0  0  0
  185.6840  178.5060  143.1050 C   0  0  0  0  0  0  0  0  0  0  0  0
  184.0020  178.5390  142.9330 S   0  0  0  0  0  0  0  0  0  0  0  0
  185.5980  177.6570  139.5530 O   0  0  0  0  0  1  0  0  0  0  0  0
  186.2370  178.1890  141.8620 C   0  0  0  0  0  0  0  0  0  0  0  0
  186.4100  178.5340  144.4130 C   0  0  0  0  0  2  0  0  0  0  0  0
  186.4960  177.1490  145.0360 C   0  0  0  0  0  2  0  0  0  0  0  0
  185.7610  177.1120  146.2220 O   0  0  0  0  0  0  0  0  0  0  0  0
  187.1580  178.1670  147.8470 C   0  0  0  0  0  1  0  0  0  0  0  0
  186.7040  176.8610  147.2210 C   0  0  2  0  0  3  0  0  0  0  0  0
  187.8930  176.1040  146.6440 C   0  0  0  0  0  2  0  0  0  0  0  0
  189.0940  176.6390  147.1150 O   0  0  0  0  0  0  0  0  0  0  0  0
  189.9370  175.5360  147.2640 C   0  0  0  0  0  2  0  0  0  0  0  0
  191.2970  177.1020  148.4580 O   0  0  0  0  0  1  0  0  0  0  0  0
  191.3460  175.9820  147.6270 C   0  0  2  0  0  3  0  0  0  0  0  0
  192.1480  176.3000  146.3810 C   0  0  0  0  0  1  0  0  0  0  0  0
  189.6600  173.8300  140.5570 C   0  0  2  0  0  3  0  0  0  0  0  0
  188.0260  172.5320  139.3640 O   0  0  0  0  0  0  0  0  0  0  0  0
  188.9330  173.4050  139.3150 C   0  0  0  0  0  0  0  0  0  0  0  0
  189.3320  173.9370  138.0560 N   0  0  0  0  0  1  0  0  0  0  0  0
  190.5760  172.6940  141.0070 C   0  0  0  0  0  2  0  0  0  0  0  0
  192.0060  172.9640  140.5770 C   0  0  0  0  0  2  0  0  0  0  0  0
  192.4220  174.2660  141.0670 N   0  0  0  0  0  2  0  0  0  0  0  0
  193.4790  175.5890  142.6550 O   0  0  0  0  0  0  0  0  0  0  0  0
  193.1470  174.4300  142.2880 C   0  0  0  0  0  0  0  0  0  0  0  0
  193.7150  172.9650  145.5380 C   0  0  0  0  0  2  0  0  0  0  0  0
  195.0350  172.6310  144.8760 C   0  0  0  0  0  2  0  0  0  0  0  0
  192.7190  173.2100  144.4190 C   0  0  0  0  0  2  0  0  0  0  0  0
  194.9760  173.2820  143.5150 C   0  0  0  0  0  2  0  0  0  0  0  0
  193.5150  173.2430  143.1260 C   0  0  0  0  0  3  0  0  0  0  0  0
  1  2  2  0  0  0  0
  3 27  1  6  0  0  0
  3  1  1  0  0  0  0
  4  6  2  0  0  0  0
  4  2  1  0  0  0  0
  5  3  1  0  0  0  0
  5  7  2  0  0  0  0
  7  4  1  0  0  0  0
  8 15  1  0  0  0  0
  8  7  1  0  0  0  0
  9 13  1  0  0  0  0
 10  9  1  0  0  0  0
 11  9  2  0  0  0  0
 11 15  1  0  0  0  0
 12 16  1  0  0  0  0
 13 12  1  0  0  0  0
 14 11  1  0  0  0  0
 15 12  2  0  0  0  0
 16 17  1  0  0  0  0
 17 18  1  0  0  0  0
 18 20  1  0  0  0  0
 20 19  1  6  0  0  0
 21 22  1  0  0  0  0
 21 20  1  0  0  0  0
 22 23  1  0  0  0  0
 23 25  1  0  0  0  0
 25 26  1  6  0  0  0
 25 24  1  0  0  0  0
 27 31  1  1  0  0  0
 29 28  2  0  0  0  0
 29 27  1  0  0  0  0
 30 29  1  0  0  0  0
 32 31  1  0  0  0  0
 32 33  1  0  0  0  0
 33 35  1  0  0  0  0
 35 34  2  0  0  0  0
 35 40  1  0  0  0  0
 37 36  1  0  0  0  0
 38 36  1  0  0  0  0
 39 37  1  0  0  0  0
 40 39  1  0  0  0  0
 40 38  1  0  0  0  0
M  END
>  <MODEL>
4

>  <REMARK>
 VINA RESULT:      -6.7      2.575      5.654
  Name = 
  16 active torsions:
  status: ('A' for Active; 'I' for Inactive)
    1  A    between atoms: C_3  and  C_19
    2  A    between atoms: O_4  and  C_8
    3  A    between atoms: O_4  and  C_35
    4  A    between atoms: C_7  and  C_8
    5  A    between atoms: C_7  and  C_33
    6  A    between atoms: N_9  and  C_27
    7  A    between atoms: C_10  and  O_16
    8  A    between atoms: C_10  and  C_35
    9  A    between atoms: C_12  and  C_19
   10  A    between atoms: C_12  and  C_27
   11  A    between atoms: O_16  and  C_38
   12  A    between atoms: C_18  and  C_19
   13  A    between atoms: C_21  and  C_38
   14  A    between atoms: C_29  and  C_30
   15  A    between atoms: C_32  and  N_34
   16  A    between atoms: N_34  and  C_40
                            x       y       z     vdW  Elec       q    Type
                         _______ _______ _______ _____ _____    ______ ____

>  <TORSDO>
F 16

$$$$
=
 OpenBabel11042419433D

 40 42  0  0  1  0  0  0  0  0999 V2000
  189.1250  177.4720  145.9250 C   0  0  0  0  0  3  0  0  0  0  0  0
  189.5650  176.9310  147.0610 C   0  0  0  0  0  3  0  0  0  0  0  0
  189.8610  177.3060  144.6100 C   0  0  1  0  0  3  0  0  0  0  0  0
  190.8600  176.2470  147.0920 C   0  0  0  0  0  0  0  0  0  0  0  0
  191.3230  176.9460  144.8160 C   0  0  0  0  0  3  0  0  0  0  0  0
  191.2120  175.6140  148.1220 O   0  0  0  0  0  0  0  0  0  0  0  0
  191.7780  176.3880  145.9480 C   0  0  0  0  0  0  0  0  0  0  0  0
  193.1710  176.1140  146.1480 N   0  0  0  0  0  2  0  0  0  0  0  0
  196.0400  175.7540  143.8740 C   0  0  0  0  0  0  0  0  0  0  0  0
  197.2610  176.3270  143.2450 C   0  0  0  0  0  1  0  0  0  0  0  0
  195.1680  176.4170  144.7220 C   0  0  0  0  0  0  0  0  0  0  0  0
  194.1620  174.3080  144.7070 C   0  0  0  0  0  0  0  0  0  0  0  0
  195.5320  174.1630  143.7270 S   0  0  0  0  0  0  0  0  0  0  0  0
  195.3310  177.7480  145.0890 O   0  0  0  0  0  1  0  0  0  0  0  0
  194.1110  175.6210  145.1830 C   0  0  0  0  0  0  0  0  0  0  0  0
  193.3290  173.1620  145.1890 C   0  0  0  0  0  2  0  0  0  0  0  0
  193.2980  172.0280  144.1750 C   0  0  0  0  0  2  0  0  0  0  0  0
  191.9890  171.5680  144.0140 O   0  0  0  0  0  0  0  0  0  0  0  0
  193.4690  170.4550  142.5050 C   0  0  0  0  0  1  0  0  0  0  0  0
  192.0980  170.4700  143.1570 C   0  0  2  0  0  3  0  0  0  0  0  0
  191.0040  170.5170  142.0990 C   0  0  0  0  0  2  0  0  0  0  0  0
  190.7280  171.8370  141.7330 O   0  0  0  0  0  0  0  0  0  0  0  0
  189.8170  171.7280  140.6800 C   0  0  0  0  0  2  0  0  0  0  0  0
  187.8590  172.8050  141.5370 O   0  0  0  0  0  1  0  0  0  0  0  0
  188.9090  172.9480  140.6290 C   0  0  2  0  0  3  0  0  0  0  0  0
  188.3570  173.1500  139.2310 C   0  0  0  0  0  1  0  0  0  0  0  0
  189.1370  176.2660  143.7350 C   0  0  2  0  0  3  0  0  0  0  0  0
  190.8070  174.8900  142.6900 O   0  0  0  0  0  0  0  0  0  0  0  0
  189.9190  174.9950  143.5760 C   0  0  0  0  0  0  0  0  0  0  0  0
  189.5930  173.8700  144.3850 N   0  0  0  0  0  1  0  0  0  0  0  0
  188.8290  176.8350  142.3520 C   0  0  0  0  0  2  0  0  0  0  0  0
  188.0300  178.1190  142.4720 C   0  0  0  0  0  2  0  0  0  0  0  0
  186.6610  177.8790  142.0480 N   0  0  0  0  0  2  0  0  0  0  0  0
  184.3980  177.6890  142.5250 O   0  0  0  0  0  0  0  0  0  0  0  0
  185.5610  177.9050  142.9600 C   0  0  0  0  0  0  0  0  0  0  0  0
  184.8510  177.1600  146.4200 C   0  0  0  0  0  2  0  0  0  0  0  0
  184.5220  178.6380  146.4060 C   0  0  0  0  0  2  0  0  0  0  0  0
  185.7670  176.9100  145.2360 C   0  0  0  0  0  2  0  0  0  0  0  0
  184.6830  179.0710  144.9690 C   0  0  0  0  0  2  0  0  0  0  0  0
  185.7790  178.1880  144.4150 C   0  0  0  0  0  3  0  0  0  0  0  0
  1  2  2  0  0  0  0
  2  4  1  0  0  0  0
  3 27  1  6  0  0  0
  3  5  1  0  0  0  0
  3  1  1  0  0  0  0
  4  6  2  0  0  0  0
  5  7  2  0  0  0  0
  7  8  1  0  0  0  0
  7  4  1  0  0  0  0
  9 11  2  0  0  0  0
 10  9  1  0  0  0  0
 11 14  1  0  0  0  0
 11 15  1  0  0  0  0
 12 15  2  0  0  0  0
 12 16  1  0  0  0  0
 13  9  1  0  0  0  0
 13 12  1  0  0  0  0
 15  8  1  0  0  0  0
 17 16  1  0  0  0  0
 18 17  1  0  0  0  0
 20 19  1  6  0  0  0
 20 18  1  0  0  0  0
 21 20  1  0  0  0  0
 22 21  1  0  0  0  0
 23 22  1  0  0  0  0
 25 26  1  6  0  0  0
 25 23  1  0  0  0  0
 25 24  1  0  0  0  0
 27 31  1  6  0  0  0
 28 29  2  0  0  0  0
 29 27  1  0  0  0  0
 29 30  1  0  0  0  0
 31 32  1  0  0  0  0
 33 32  1  0  0  0  0
 33 35  1  0  0  0  0
 34 35  2  0  0  0  0
 35 40  1  0  0  0  0
 37 36  1  0  0  0  0
 38 36  1  0  0  0  0
 39 37  1  0  0  0  0
 40 39  1  0  0  0  0
 40 38  1  0  0  0  0
M  END
>  <MODEL>
5

>  <REMARK>
 VINA RESULT:      -6.6      2.558      8.330
  Name = 
  16 active torsions:
  status: ('A' for Active; 'I' for Inactive)
    1  A    between atoms: C_3  and  C_19
    2  A    between atoms: O_4  and  C_8
    3  A    between atoms: O_4  and  C_35
    4  A    between atoms: C_7  and  C_8
    5  A    between atoms: C_7  and  C_33
    6  A    between atoms: N_9  and  C_27
    7  A    between atoms: C_10  and  O_16
    8  A    between atoms: C_10  and  C_35
    9  A    between atoms: C_12  and  C_19
   10  A    between atoms: C_12  and  C_27
   11  A    between atoms: O_16  and  C_38
   12  A    between atoms: C_18  and  C_19
   13  A    between atoms: C_21  and  C_38
   14  A    between atoms: C_29  and  C_30
   15  A    between atoms: C_32  and  N_34
   16  A    between atoms: N_34  and  C_40
                            x       y       z     vdW  Elec       q    Type
                         _______ _______ _______ _____ _____    ______ ____

>  <TORSDO>
F 16

$$$$
=
 OpenBabel11042419433D

 40 42  0  0  1  0  0  0  0  0999 V2000
  189.6510  177.6700  142.9760 C   0  0  0  0  0  3  0  0  0  0  0  0
  189.8650  177.9390  144.2640 C   0  0  0  0  0  3  0  0  0  0  0  0
  189.6110  176.2520  142.4410 C   0  0  1  0  0  3  0  0  0  0  0  0
  190.1920  176.8550  145.1940 C   0  0  0  0  0  0  0  0  0  0  0  0
  190.3270  175.2750  143.3580 C   0  0  0  0  0  3  0  0  0  0  0  0
  190.2550  177.0850  146.4310 O   0  0  0  0  0  0  0  0  0  0  0  0
  190.5380  175.5260  144.6590 C   0  0  0  0  0  0  0  0  0  0  0  0
  191.2720  174.6200  145.4950 N   0  0  0  0  0  2  0  0  0  0  0  0
  194.8630  173.8330  145.4020 C   0  0  0  0  0  0  0  0  0  0  0  0
  196.2640  174.1770  145.7680 C   0  0  0  0  0  1  0  0  0  0  0  0
  193.7380  174.5980  145.6600 C   0  0  0  0  0  0  0  0  0  0  0  0
  192.7270  172.7660  144.6220 C   0  0  0  0  0  0  0  0  0  0  0  0
  194.3780  172.4070  144.6650 S   0  0  0  0  0  0  0  0  0  0  0  0
  193.7880  175.8280  146.3070 O   0  0  0  0  0  1  0  0  0  0  0  0
  192.5420  174.0150  145.2190 C   0  0  0  0  0  0  0  0  0  0  0  0
  191.6490  171.7920  144.2630 C   0  0  0  0  0  2  0  0  0  0  0  0
  191.7450  171.3620  142.8070 C   0  0  0  0  0  2  0  0  0  0  0  0
  190.7680  172.0120  142.0510 O   0  0  0  0  0  0  0  0  0  0  0  0
  191.5310  173.2130  140.1320 C   0  0  0  0  0  1  0  0  0  0  0  0
  191.1810  171.8600  140.7250 C   0  0  2  0  0  3  0  0  0  0  0  0
  190.0860  171.1870  139.9070 C   0  0  0  0  0  2  0  0  0  0  0  0
  189.8540  171.8890  138.7220 O   0  0  0  0  0  0  0  0  0  0  0  0
  189.6900  170.8980  137.7520 C   0  0  0  0  0  2  0  0  0  0  0  0
  189.5450  171.4560  135.4290 O   0  0  0  0  0  1  0  0  0  0  0  0
  190.4420  171.2620  136.4800 C   0  0  2  0  0  3  0  0  0  0  0  0
  191.4380  170.1800  136.1150 C   0  0  0  0  0  1  0  0  0  0  0  0
  188.1510  175.8310  142.1900 C   0  0  2  0  0  3  0  0  0  0  0  0
  187.8190  173.4570  142.0100 O   0  0  0  0  0  0  0  0  0  0  0  0
  188.0420  174.5470  141.4200 C   0  0  0  0  0  0  0  0  0  0  0  0
  188.2740  174.5540  140.0160 N   0  0  0  0  0  1  0  0  0  0  0  0
  187.3870  176.9220  141.4450 C   0  0  0  0  0  2  0  0  0  0  0  0
  186.0620  177.2030  142.1280 C   0  0  0  0  0  2  0  0  0  0  0  0
  185.9970  178.6060  142.5010 N   0  0  0  0  0  2  0  0  0  0  0  0
  185.5780  180.2690  144.0650 O   0  0  0  0  0  0  0  0  0  0  0  0
  185.6120  179.0350  143.8080 C   0  0  0  0  0  0  0  0  0  0  0  0
  184.8260  178.2930  147.2530 C   0  0  0  0  0  2  0  0  0  0  0  0
  185.9750  177.3300  147.0420 C   0  0  0  0  0  2  0  0  0  0  0  0
  184.2810  178.6240  145.8750 C   0  0  0  0  0  2  0  0  0  0  0  0
  186.4780  177.6060  145.6450 C   0  0  0  0  0  2  0  0  0  0  0  0
  185.2550  178.0380  144.8670 C   0  0  0  0  0  3  0  0  0  0  0  0
  1  2  2  0  0  0  0
  2  4  1  0  0  0  0
  3 27  1  1  0  0  0
  3  1  1  0  0  0  0
  3  5  1  0  0  0  0
  4  6  2  0  0  0  0
  5  7  2  0  0  0  0
  7  4  1  0  0  0  0
  7  8  1  0  0  0  0
  9 11  2  0  0  0  0
  9 10  1  0  0  0  0
 11 14  1  0  0  0  0
 12 13  1  0  0  0  0
 12 15  2  0  0  0  0
 13  9  1  0  0  0  0
 15  8  1  0  0  0  0
 15 11  1  0  0  0  0
 16 12  1  0  0  0  0
 17 16  1  0  0  0  0
 18 17  1  0  0  0  0
 20 19  1  6  0  0  0
 20 18  1  0  0  0  0
 21 20  1  0  0  0  0
 22 21  1  0  0  0  0
 23 22  1  0  0  0  0
 24 25  1  0  0  0  0
 25 26  1  6  0  0  0
 25 23  1  0  0  0  0
 27 31  1  6  0  0  0
 29 28  2  0  0  0  0
 29 27  1  0  0  0  0
 30 29  1  0  0  0  0
 31 32  1  0  0  0  0
 32 33  1  0  0  0  0
 33 35  1  0  0  0  0
 35 34  2  0  0  0  0
 35 40  1  0  0  0  0
 37 36  1  0  0  0  0
 38 36  1  0  0  0  0
 39 37  1  0  0  0  0
 40 39  1  0  0  0  0
 40 38  1  0  0  0  0
M  END
>  <MODEL>
6

>  <REMARK>
 VINA RESULT:      -6.4      2.861      8.880
  Name = 
  16 active torsions:
  status: ('A' for Active; 'I' for Inactive)
    1  A    between atoms: C_3  and  C_19
    2  A    between atoms: O_4  and  C_8
    3  A    between atoms: O_4  and  C_35
    4  A    between atoms: C_7  and  C_8
    5  A    between atoms: C_7  and  C_33
    6  A    between atoms: N_9  and  C_27
    7  A    between atoms: C_10  and  O_16
    8  A    between atoms: C_10  and  C_35
    9  A    between atoms: C_12  and  C_19
   10  A    between atoms: C_12  and  C_27
   11  A    between atoms: O_16  and  C_38
   12  A    between atoms: C_18  and  C_19
   13  A    between atoms: C_21  and  C_38
   14  A    between atoms: C_29  and  C_30
   15  A    between atoms: C_32  and  N_34
   16  A    between atoms: N_34  and  C_40
                            x       y       z     vdW  Elec       q    Type
                         _______ _______ _______ _____ _____    ______ ____

>  <TORSDO>
F 16

$$$$
=
 OpenBabel11042419433D

 40 42  0  0  1  0  0  0  0  0999 V2000
  188.8990  177.4860  144.0930 C   0  0  0  0  0  3  0  0  0  0  0  0
  189.9970  177.9360  143.4860 C   0  0  0  0  0  3  0  0  0  0  0  0
  188.8530  176.1410  144.7910 C   0  0  1  0  0  3  0  0  0  0  0  0
  191.1760  177.0730  143.3720 C   0  0  0  0  0  0  0  0  0  0  0  0
  189.9380  175.2010  144.2920 C   0  0  0  0  0  3  0  0  0  0  0  0
  192.2580  177.5420  142.9280 O   0  0  0  0  0  0  0  0  0  0  0  0
  191.0550  175.6400  143.6920 C   0  0  0  0  0  0  0  0  0  0  0  0
  192.0380  174.7350  143.1700 N   0  0  0  0  0  2  0  0  0  0  0  0
  194.8990  173.5400  145.1500 C   0  0  0  0  0  0  0  0  0  0  0  0
  196.2220  173.7970  145.7820 C   0  0  0  0  0  1  0  0  0  0  0  0
  194.1840  174.4240  144.3580 C   0  0  0  0  0  0  0  0  0  0  0  0
  192.6890  172.6280  144.3760 C   0  0  0  0  0  0  0  0  0  0  0  0
  193.9910  172.1430  145.3400 S   0  0  0  0  0  0  0  0  0  0  0  0
  194.6390  175.6990  144.0420 O   0  0  0  0  0  1  0  0  0  0  0  0
  192.9540  173.9200  143.9140 C   0  0  0  0  0  0  0  0  0  0  0  0
  191.3820  171.9070  144.2780 C   0  0  0  0  0  2  0  0  0  0  0  0
  191.0690  171.5080  142.8440 C   0  0  0  0  0  2  0  0  0  0  0  0
  189.6890  171.5260  142.6340 O   0  0  0  0  0  0  0  0  0  0  0  0
  188.0010  173.0130  141.8290 C   0  0  0  0  0  1  0  0  0  0  0  0
  189.4680  172.6220  141.7970 C   0  0  2  0  0  3  0  0  0  0  0  0
  189.9000  172.2930  140.3740 C   0  0  0  0  0  2  0  0  0  0  0  0
  189.6900  173.3850  139.5300 O   0  0  0  0  0  0  0  0  0  0  0  0
  190.8230  173.4250  138.7140 C   0  0  0  0  0  2  0  0  0  0  0  0
  189.0670  173.3680  137.0900 O   0  0  0  0  0  1  0  0  0  0  0  0
  190.4440  173.2110  137.2570 C   0  0  2  0  0  3  0  0  0  0  0  0
  190.8670  171.8340  136.7860 C   0  0  0  0  0  1  0  0  0  0  0  0
  188.9320  176.3410  146.3160 C   0  0  2  0  0  3  0  0  0  0  0  0
  188.9770  174.1500  147.3030 O   0  0  0  0  0  0  0  0  0  0  0  0
  189.6100  175.2010  147.0170 C   0  0  0  0  0  0  0  0  0  0  0  0
  190.9620  175.3440  147.4360 N   0  0  0  0  0  1  0  0  0  0  0  0
  187.5400  176.5340  146.9140 C   0  0  0  0  0  2  0  0  0  0  0  0
  187.2900  178.0000  147.2120 C   0  0  0  0  0  2  0  0  0  0  0  0
  185.8590  178.2400  147.2950 N   0  0  0  0  0  2  0  0  0  0  0  0
  183.8100  178.6430  146.2810 O   0  0  0  0  0  0  0  0  0  0  0  0
  185.0470  178.4410  146.1370 C   0  0  0  0  0  0  0  0  0  0  0  0
  184.6530  178.6790  142.5560 C   0  0  0  0  0  2  0  0  0  0  0  0
  185.3380  177.3310  142.6470 C   0  0  0  0  0  2  0  0  0  0  0  0
  184.9760  179.4150  143.8440 C   0  0  0  0  0  2  0  0  0  0  0  0
  185.4780  177.0520  144.1240 C   0  0  0  0  0  2  0  0  0  0  0  0
  185.6480  178.4120  144.7650 C   0  0  0  0  0  3  0  0  0  0  0  0
  1  3  1  0  0  0  0
  2  1  2  0  0  0  0
  3 27  1  1  0  0  0
  4  2  1  0  0  0  0
  4  7  1  0  0  0  0
  5  3  1  0  0  0  0
  6  4  2  0  0  0  0
  7  5  2  0  0  0  0
  8  7  1  0  0  0  0
  8 15  1  0  0  0  0
  9 13  1  0  0  0  0
  9 10  1  0  0  0  0
 11  9  2  0  0  0  0
 12 13  1  0  0  0  0
 14 11  1  0  0  0  0
 15 11  1  0  0  0  0
 15 12  2  0  0  0  0
 16 12  1  0  0  0  0
 17 16  1  0  0  0  0
 18 17  1  0  0  0  0
 20 19  1  6  0  0  0
 20 18  1  0  0  0  0
 21 20  1  0  0  0  0
 22 21  1  0  0  0  0
 23 22  1  0  0  0  0
 24 25  1  0  0  0  0
 25 26  1  1  0  0  0
 25 23  1  0  0  0  0
 27 31  1  1  0  0  0
 27 29  1  0  0  0  0
 29 28  2  0  0  0  0
 29 30  1  0  0  0  0
 31 32  1  0  0  0  0
 32 33  1  0  0  0  0
 35 34  2  0  0  0  0
 35 33  1  0  0  0  0
 36 37  1  0  0  0  0
 36 38  1  0  0  0  0
 37 39  1  0  0  0  0
 38 40  1  0  0  0  0
 39 40  1  0  0  0  0
 40 35  1  0  0  0  0
M  END
>  <MODEL>
7

>  <REMARK>
 VINA RESULT:      -6.3      2.652      8.467
  Name = 
  16 active torsions:
  status: ('A' for Active; 'I' for Inactive)
    1  A    between atoms: C_3  and  C_19
    2  A    between atoms: O_4  and  C_8
    3  A    between atoms: O_4  and  C_35
    4  A    between atoms: C_7  and  C_8
    5  A    between atoms: C_7  and  C_33
    6  A    between atoms: N_9  and  C_27
    7  A    between atoms: C_10  and  O_16
    8  A    between atoms: C_10  and  C_35
    9  A    between atoms: C_12  and  C_19
   10  A    between atoms: C_12  and  C_27
   11  A    between atoms: O_16  and  C_38
   12  A    between atoms: C_18  and  C_19
   13  A    between atoms: C_21  and  C_38
   14  A    between atoms: C_29  and  C_30
   15  A    between atoms: C_32  and  N_34
   16  A    between atoms: N_34  and  C_40
                            x       y       z     vdW  Elec       q    Type
                         _______ _______ _______ _____ _____    ______ ____

>  <TORSDO>
F 16

$$$$
=
 OpenBabel11042419433D

 40 42  0  0  1  0  0  0  0  0999 V2000
  190.2730  174.8240  143.2940 C   0  0  0  0  0  3  0  0  0  0  0  0
  190.8500  176.0230  143.3640 C   0  0  0  0  0  3  0  0  0  0  0  0
  188.9650  174.5960  142.5620 C   0  0  1  0  0  3  0  0  0  0  0  0
  190.1620  177.1990  142.8250 C   0  0  0  0  0  0  0  0  0  0  0  0
  188.1710  175.8820  142.3980 C   0  0  0  0  0  3  0  0  0  0  0  0
  190.7630  178.3050  142.7620 O   0  0  0  0  0  0  0  0  0  0  0  0
  188.7410  177.0950  142.4520 C   0  0  0  0  0  0  0  0  0  0  0  0
  187.9660  178.2990  142.3590 N   0  0  0  0  0  2  0  0  0  0  0  0
  184.3570  178.2520  141.6490 C   0  0  0  0  0  0  0  0  0  0  0  0
  183.2380  178.0210  140.6950 C   0  0  0  0  0  1  0  0  0  0  0  0
  185.7100  178.1850  141.3550 C   0  0  0  0  0  0  0  0  0  0  0  0
  185.8340  178.6720  143.6370 C   0  0  0  0  0  0  0  0  0  0  0  0
  184.1840  178.5680  143.2860 S   0  0  0  0  0  0  0  0  0  0  0  0
  186.1980  177.8930  140.0870 O   0  0  0  0  0  1  0  0  0  0  0  0
  186.5410  178.4280  142.4570 C   0  0  0  0  0  0  0  0  0  0  0  0
  186.4130  178.7330  145.0150 C   0  0  0  0  0  2  0  0  0  0  0  0
  186.7680  177.3490  145.5360 C   0  0  0  0  0  2  0  0  0  0  0  0
  187.5990  177.4570  146.6520 O   0  0  0  0  0  0  0  0  0  0  0  0
  188.5360  175.2620  146.5500 C   0  0  0  0  0  1  0  0  0  0  0  0
  188.7520  176.7450  146.3110 C   0  0  2  0  0  3  0  0  0  0  0  0
  189.9400  177.2490  147.1200 C   0  0  0  0  0  2  0  0  0  0  0  0
  191.1090  177.2070  146.3580 O   0  0  0  0  0  0  0  0  0  0  0  0
  191.9700  176.3730  147.0740 C   0  0  0  0  0  2  0  0  0  0  0  0
  192.8430  174.3090  146.2360 O   0  0  0  0  0  1  0  0  0  0  0  0
  192.9620  175.6960  146.1410 C   0  0  2  0  0  3  0  0  0  0  0  0
  194.3820  176.1150  146.4690 C   0  0  0  0  0  1  0  0  0  0  0  0
  189.2370  173.9190  141.2050 C   0  0  2  0  0  3  0  0  0  0  0  0
  187.9570  172.6660  139.6040 O   0  0  0  0  0  0  0  0  0  0  0  0
  188.1600  172.9510  140.8140 C   0  0  0  0  0  0  0  0  0  0  0  0
  187.3070  172.4120  141.8170 N   0  0  0  0  0  1  0  0  0  0  0  0
  190.5790  173.1900  141.2170 C   0  0  0  0  0  2  0  0  0  0  0  0
  191.3860  173.5440  139.9820 C   0  0  0  0  0  2  0  0  0  0  0  0
  192.6410  172.8120  139.9980 N   0  0  0  0  0  2  0  0  0  0  0  0
  194.8780  172.6410  140.5920 O   0  0  0  0  0  0  0  0  0  0  0  0
  193.8220  173.3290  140.6130 C   0  0  0  0  0  0  0  0  0  0  0  0
  195.5320  176.3870  141.4880 C   0  0  0  0  0  2  0  0  0  0  0  0
  195.0870  175.9420  142.8660 C   0  0  0  0  0  2  0  0  0  0  0  0
  194.6230  175.6870  140.4940 C   0  0  0  0  0  2  0  0  0  0  0  0
  194.4300  174.5980  142.6600 C   0  0  0  0  0  2  0  0  0  0  0  0
  193.8130  174.6710  141.2810 C   0  0  0  0  0  3  0  0  0  0  0  0
  1  2  2  0  0  0  0
  3 27  1  6  0  0  0
  3  1  1  0  0  0  0
  4  2  1  0  0  0  0
  5  7  2  0  0  0  0
  5  3  1  0  0  0  0
  6  4  2  0  0  0  0
  7  4  1  0  0  0  0
  8  7  1  0  0  0  0
  8 15  1  0  0  0  0
  9 13  1  0  0  0  0
 10  9  1  0  0  0  0
 11  9  2  0  0  0  0
 11 15  1  0  0  0  0
 12 16  1  0  0  0  0
 13 12  1  0  0  0  0
 14 11  1  0  0  0  0
 15 12  2  0  0  0  0
 16 17  1  0  0  0  0
 17 18  1  0  0  0  0
 20 19  1  1  0  0  0
 20 18  1  0  0  0  0
 20 21  1  0  0  0  0
 22 23  1  0  0  0  0
 22 21  1  0  0  0  0
 25 24  1  0  0  0  0
 25 26  1  1  0  0  0
 25 23  1  0  0  0  0
 27 31  1  1  0  0  0
 28 29  2  0  0  0  0
 29 27  1  0  0  0  0
 29 30  1  0  0  0  0
 32 33  1  0  0  0  0
 32 31  1  0  0  0  0
 33 35  1  0  0  0  0
 34 35  2  0  0  0  0
 35 40  1  0  0  0  0
 36 37  1  0  0  0  0
 38 40  1  0  0  0  0
 38 36  1  0  0  0  0
 39 37  1  0  0  0  0
 40 39  1  0  0  0  0
M  END
>  <MODEL>
8

>  <REMARK>
 VINA RESULT:      -6.3      2.944      6.182
  Name = 
  16 active torsions:
  status: ('A' for Active; 'I' for Inactive)
    1  A    between atoms: C_3  and  C_19
    2  A    between atoms: O_4  and  C_8
    3  A    between atoms: O_4  and  C_35
    4  A    between atoms: C_7  and  C_8
    5  A    between atoms: C_7  and  C_33
    6  A    between atoms: N_9  and  C_27
    7  A    between atoms: C_10  and  O_16
    8  A    between atoms: C_10  and  C_35
    9  A    between atoms: C_12  and  C_19
   10  A    between atoms: C_12  and  C_27
   11  A    between atoms: O_16  and  C_38
   12  A    between atoms: C_18  and  C_19
   13  A    between atoms: C_21  and  C_38
   14  A    between atoms: C_29  and  C_30
   15  A    between atoms: C_32  and  N_34
   16  A    between atoms: N_34  and  C_40
                            x       y       z     vdW  Elec       q    Type
                         _______ _______ _______ _____ _____    ______ ____

>  <TORSDO>
F 16

$$$$
=
 OpenBabel11042419433D

 40 42  0  0  1  0  0  0  0  0999 V2000
  191.6950  176.8860  143.9490 C   0  0  0  0  0  3  0  0  0  0  0  0
  192.2840  176.3870  142.8630 C   0  0  0  0  0  3  0  0  0  0  0  0
  190.9150  176.0190  144.9180 C   0  0  1  0  0  3  0  0  0  0  0  0
  192.0900  174.9780  142.5070 C   0  0  0  0  0  0  0  0  0  0  0  0
  190.4540  174.7200  144.2800 C   0  0  0  0  0  3  0  0  0  0  0  0
  192.7560  174.4710  141.5660 O   0  0  0  0  0  0  0  0  0  0  0  0
  191.0470  174.1980  143.1950 C   0  0  0  0  0  0  0  0  0  0  0  0
  190.5580  173.0040  142.5680 N   0  0  0  0  0  2  0  0  0  0  0  0
  189.4910  171.9330  139.2140 C   0  0  0  0  0  0  0  0  0  0  0  0
  189.6740  171.0540  138.0280 C   0  0  0  0  0  1  0  0  0  0  0  0
  190.3130  171.9850  140.3290 C   0  0  0  0  0  0  0  0  0  0  0  0
  188.7020  173.5540  140.9640 C   0  0  0  0  0  0  0  0  0  0  0  0
  188.2050  172.9810  139.4530 S   0  0  0  0  0  0  0  0  0  0  0  0
  191.4510  171.2000  140.4700 O   0  0  0  0  0  1  0  0  0  0  0  0
  189.8850  172.8940  141.3060 C   0  0  0  0  0  0  0  0  0  0  0  0
  187.8690  174.3990  141.8750 C   0  0  0  0  0  2  0  0  0  0  0  0
  188.0540  175.8810  141.5880 C   0  0  0  0  0  2  0  0  0  0  0  0
  186.9110  176.5880  141.9670 O   0  0  0  0  0  0  0  0  0  0  0  0
  188.7750  178.0800  142.0100 C   0  0  0  0  0  1  0  0  0  0  0  0
  187.3920  177.7630  142.5480 C   0  0  2  0  0  3  0  0  0  0  0  0
  187.4280  177.6240  144.0650 C   0  0  0  0  0  2  0  0  0  0  0  0
  186.3350  178.2700  144.6450 O   0  0  0  0  0  0  0  0  0  0  0  0
  185.7480  177.3030  145.4640 C   0  0  0  0  0  2  0  0  0  0  0  0
  184.0290  178.9570  145.6590 O   0  0  0  0  0  1  0  0  0  0  0  0
  184.6720  177.9260  146.3430 C   0  0  2  0  0  3  0  0  0  0  0  0
  185.2700  178.4560  147.6320 C   0  0  0  0  0  1  0  0  0  0  0  0
  191.7570  175.7640  146.1830 C   0  0  2  0  0  3  0  0  0  0  0  0
  190.0150  174.9640  147.6330 O   0  0  0  0  0  0  0  0  0  0  0  0
  190.9400  175.7970  147.4410 C   0  0  0  0  0  0  0  0  0  0  0  0
  191.1620  176.8350  148.3900 N   0  0  0  0  0  1  0  0  0  0  0  0
  192.8900  176.7810  146.3000 C   0  0  0  0  0  2  0  0  0  0  0  0
  194.2170  176.0760  146.5040 C   0  0  0  0  0  2  0  0  0  0  0  0
  195.0210  176.1980  145.3000 N   0  0  0  0  0  2  0  0  0  0  0  0
  196.3300  175.2500  143.6340 O   0  0  0  0  0  0  0  0  0  0  0  0
  195.6470  175.0740  144.6790 C   0  0  0  0  0  0  0  0  0  0  0  0
  197.1240  171.9340  145.6770 C   0  0  0  0  0  2  0  0  0  0  0  0
  196.0500  171.4230  144.7410 C   0  0  0  0  0  2  0  0  0  0  0  0
  196.6920  173.3230  146.1120 C   0  0  0  0  0  2  0  0  0  0  0  0
  195.4020  172.6570  144.1610 C   0  0  0  0  0  2  0  0  0  0  0  0
  195.4970  173.6990  145.2540 C   0  0  0  0  0  3  0  0  0  0  0  0
  1  3  1  0  0  0  0
  2  1  2  0  0  0  0
  3 27  1  1  0  0  0
  4  2  1  0  0  0  0
  4  7  1  0  0  0  0
  5  3  1  0  0  0  0
  6  4  2  0  0  0  0
  7  5  2  0  0  0  0
  8  7  1  0  0  0  0
  9 13  1  0  0  0  0
  9 11  2  0  0  0  0
 10  9  1  0  0  0  0
 11 14  1  0  0  0  0
 11 15  1  0  0  0  0
 12 15  2  0  0  0  0
 12 16  1  0  0  0  0
 13 12  1  0  0  0  0
 15  8  1  0  0  0  0
 17 16  1  0  0  0  0
 17 18  1  0  0  0  0
 18 20  1  0  0  0  0
 20 19  1  6  0  0  0
 20 21  1  0  0  0  0
 21 22  1  0  0  0  0
 22 23  1  0  0  0  0
 23 25  1  0  0  0  0
 24 25  1  0  0  0  0
 25 26  1  1  0  0  0
 27 31  1  1  0  0  0
 27 29  1  0  0  0  0
 29 28  2  0  0  0  0
 29 30  1  0  0  0  0
 31 32  1  0  0  0  0
 33 32  1  0  0  0  0
 34 35  2  0  0  0  0
 35 40  1  0  0  0  0
 35 33  1  0  0  0  0
 36 38  1  0  0  0  0
 37 36  1  0  0  0  0
 39 37  1  0  0  0  0
 39 40  1  0  0  0  0
 40 38  1  0  0  0  0
M  END
>  <MODEL>
9

>  <REMARK>
 VINA RESULT:      -6.2      1.742      2.826
  Name = 
  16 active torsions:
  status: ('A' for Active; 'I' for Inactive)
    1  A    between atoms: C_3  and  C_19
    2  A    between atoms: O_4  and  C_8
    3  A    between atoms: O_4  and  C_35
    4  A    between atoms: C_7  and  C_8
    5  A    between atoms: C_7  and  C_33
    6  A    between atoms: N_9  and  C_27
    7  A    between atoms: C_10  and  O_16
    8  A    between atoms: C_10  and  C_35
    9  A    between atoms: C_12  and  C_19
   10  A    between atoms: C_12  and  C_27
   11  A    between atoms: O_16  and  C_38
   12  A    between atoms: C_18  and  C_19
   13  A    between atoms: C_21  and  C_38
   14  A    between atoms: C_29  and  C_30
   15  A    between atoms: C_32  and  N_34
   16  A    between atoms: N_34  and  C_40
                            x       y       z     vdW  Elec       q    Type
                         _______ _______ _______ _____ _____    ______ ____

>  <TORSDO>
F 16

$$$$
