=
 OpenBabel11042416173D

 33 37  0  0  1  0  0  0  0  0999 V2000
  188.0550  177.6650  147.3580 N   0  0  0  0  0  2  0  0  0  0  0  0
  185.4940  178.0750  144.8200 C   0  0  0  0  0  3  0  0  0  0  0  0
  184.4510  178.5810  146.9670 C   0  0  0  0  0  3  0  0  0  0  0  0
  186.7640  177.9480  146.8620 C   0  0  0  0  0  0  0  0  0  0  0  0
  188.9090  177.3690  146.2070 C   0  0  2  0  0  3  0  0  0  0  0  0
  185.6630  178.3250  147.6290 C   0  0  0  0  0  3  0  0  0  0  0  0
  187.9980  177.4020  144.9410 C   0  0  2  0  0  3  0  0  0  0  0  0
  184.3680  178.4570  145.5660 C   0  0  0  0  0  3  0  0  0  0  0  0
  186.6860  177.8220  145.5020 C   0  0  0  0  0  0  0  0  0  0  0  0
  192.7310  177.0840  144.5090 C   0  0  0  0  0  3  0  0  0  0  0  0
  191.5400  174.5630  145.9220 C   0  0  0  0  0  3  0  0  0  0  0  0
  193.7990  176.0570  144.6260 C   0  0  0  0  0  2  0  0  0  0  0  0
  192.5530  174.0460  145.2240 C   0  0  0  0  0  3  0  0  0  0  0  0
  190.9480  175.8720  145.7620 N   0  0  0  0  0  0  0  0  0  0  0  0
  189.1520  175.1600  147.0910 O   0  0  0  0  0  0  0  0  0  0  0  0
  191.5020  176.9830  145.0180 C   0  0  0  0  0  3  0  0  0  0  0  0
  189.6740  176.0820  146.4040 C   0  0  0  0  0  0  0  0  0  0  0  0
  193.2680  174.7370  144.1190 C   0  0  2  0  0  3  0  0  0  0  0  0
  194.3840  173.8830  143.6130 C   0  0  0  0  0  0  0  0  0  0  0  0
  194.1580  172.7270  143.1620 O   0  0  0  0  0  0  0  0  0  0  0  0
  195.6840  174.3690  143.6360 O   0  0  0  0  0  1  0  0  0  0  0  0
  187.8740  176.0870  144.3180 N   0  0  0  0  0  2  0  0  0  0  0  0
  189.1760  173.8380  143.3180 N   0  0  0  0  0  0  0  0  0  0  0  0
  188.6020  174.8070  142.4350 C   0  0  0  0  0  0  0  0  0  0  0  0
  189.3130  173.5310  140.5370 N   0  0  0  0  0  0  0  0  0  0  0  0
  189.8480  172.8240  142.8610 C   0  0  0  0  0  3  0  0  0  0  0  0
  188.6560  174.5560  140.9910 C   0  0  0  0  0  0  0  0  0  0  0  0
  190.1190  172.6430  141.3850 C   0  0  0  0  0  2  0  0  0  0  0  0
  187.2940  176.4530  140.5170 C   0  0  0  0  0  0  0  0  0  0  0  0
  187.9480  175.8760  142.9040 C   0  0  0  0  0  0  0  0  0  0  0  0
  186.5540  177.2920  139.5400 C   0  0  0  0  0  1  0  0  0  0  0  0
  187.3550  176.8990  141.9590 C   0  0  0  0  0  2  0  0  0  0  0  0
  187.9250  175.3980  140.0980 N   0  0  0  0  0  0  0  0  0  0  0  0
  2  9  2  0  0  0  0
  2  8  1  0  0  0  0
  3  6  1  0  0  0  0
  4  1  1  0  0  0  0
  4  6  2  0  0  0  0
  5 17  1  1  0  0  0
  5  1  1  0  0  0  0
  7 22  1  1  0  0  0
  7  9  1  0  0  0  0
  7  5  1  0  0  0  0
  8  3  2  0  0  0  0
  9  4  1  0  0  0  0
 10 12  1  0  0  0  0
 10 16  2  0  0  0  0
 13 11  2  0  0  0  0
 14 11  1  0  0  0  0
 14 17  1  0  0  0  0
 16 14  1  0  0  0  0
 17 15  2  0  0  0  0
 18 19  1  1  0  0  0
 18 12  1  0  0  0  0
 18 13  1  0  0  0  0
 19 21  1  0  0  0  0
 20 19  2  0  0  0  0
 24 30  2  0  0  0  0
 24 23  1  0  0  0  0
 25 27  2  0  0  0  0
 25 28  1  0  0  0  0
 26 23  2  0  0  0  0
 27 24  1  0  0  0  0
 28 26  1  0  0  0  0
 29 32  1  0  0  0  0
 30 22  1  0  0  0  0
 31 29  1  0  0  0  0
 32 30  1  0  0  0  0
 33 29  2  0  0  0  0
 33 27  1  0  0  0  0
M  END
>  <MODEL>
1

>  <REMARK>
 VINA RESULT:      -7.9      0.000      0.000
  Name = 
  4 active torsions:
  status: ('A' for Active; 'I' for Inactive)
    1  A    between atoms: C_12  and  C_32
    2  A    between atoms: C_18  and  C_24
    3  A    between atoms: C_23  and  N_30
    4  A    between atoms: C_26  and  N_30
                            x       y       z     vdW  Elec       q    Type
                         _______ _______ _______ _____ _____    ______ ____

>  <TORSDO>
F 4

$$$$
=
 OpenBabel11042416173D

 33 37  0  0  1  0  0  0  0  0999 V2000
  187.4820  178.2730  145.3080 N   0  0  0  0  0  2  0  0  0  0  0  0
  185.6830  177.3110  142.3060 C   0  0  0  0  0  3  0  0  0  0  0  0
  184.1460  178.6370  143.6580 C   0  0  0  0  0  3  0  0  0  0  0  0
  186.3760  178.2050  144.4320 C   0  0  0  0  0  0  0  0  0  0  0  0
  188.5900  177.5620  144.6670 C   0  0  2  0  0  3  0  0  0  0  0  0
  185.1320  178.7970  144.6450 C   0  0  0  0  0  3  0  0  0  0  0  0
  188.0390  176.9590  143.3380 C   0  0  2  0  0  3  0  0  0  0  0  0
  184.4210  177.8970  142.4920 C   0  0  0  0  0  3  0  0  0  0  0  0
  186.6470  177.4820  143.3020 C   0  0  0  0  0  0  0  0  0  0  0  0
  192.7570  177.1270  144.5550 C   0  0  0  0  0  3  0  0  0  0  0  0
  191.1120  175.2230  146.4100 C   0  0  0  0  0  3  0  0  0  0  0  0
  193.7030  176.3700  145.4150 C   0  0  0  0  0  2  0  0  0  0  0  0
  192.2950  174.6080  146.3490 C   0  0  0  0  0  3  0  0  0  0  0  0
  190.6330  176.2810  145.5500 N   0  0  0  0  0  0  0  0  0  0  0  0
  188.4780  175.9200  146.4020 O   0  0  0  0  0  0  0  0  0  0  0  0
  191.4260  177.0760  144.6380 C   0  0  0  0  0  3  0  0  0  0  0  0
  189.2200  176.5610  145.6050 C   0  0  0  0  0  0  0  0  0  0  0  0
  193.3580  174.9010  145.3500 C   0  0  2  0  0  3  0  0  0  0  0  0
  194.5660  174.0660  145.6240 C   0  0  0  0  0  0  0  0  0  0  0  0
  195.6840  174.6030  145.8480 O   0  0  0  0  0  1  0  0  0  0  0  0
  194.4530  172.6820  145.6370 O   0  0  0  0  0  0  0  0  0  0  0  0
  188.0210  175.4990  143.3630 N   0  0  0  0  0  2  0  0  0  0  0  0
  189.5550  173.2460  143.9330 N   0  0  0  0  0  0  0  0  0  0  0  0
  189.2810  173.6240  142.5810 C   0  0  0  0  0  0  0  0  0  0  0  0
  190.5280  171.7440  141.7790 N   0  0  0  0  0  0  0  0  0  0  0  0
  190.3290  172.2390  144.2080 C   0  0  0  0  0  3  0  0  0  0  0  0
  189.7690  172.7610  141.5010 C   0  0  0  0  0  0  0  0  0  0  0  0
  191.0340  171.4540  143.1270 C   0  0  0  0  0  2  0  0  0  0  0  0
  188.6250  174.0320  139.8420 C   0  0  0  0  0  0  0  0  0  0  0  0
  188.5200  174.6880  142.2950 C   0  0  0  0  0  0  0  0  0  0  0  0
  188.2200  174.2310  138.4270 C   0  0  0  0  0  1  0  0  0  0  0  0
  188.2460  175.0820  140.8590 C   0  0  0  0  0  2  0  0  0  0  0  0
  189.3480  173.0000  140.1570 N   0  0  0  0  0  0  0  0  0  0  0  0
  2  8  2  0  0  0  0
  2  9  1  0  0  0  0
  3  6  2  0  0  0  0
  4  6  1  0  0  0  0
  4  1  1  0  0  0  0
  5  1  1  0  0  0  0
  5 17  1  1  0  0  0
  7 22  1  1  0  0  0
  7  5  1  0  0  0  0
  8  3  1  0  0  0  0
  9  7  1  0  0  0  0
  9  4  2  0  0  0  0
 10 16  2  0  0  0  0
 10 12  1  0  0  0  0
 13 11  2  0  0  0  0
 14 17  1  0  0  0  0
 14 11  1  0  0  0  0
 16 14  1  0  0  0  0
 17 15  2  0  0  0  0
 18 12  1  0  0  0  0
 18 19  1  1  0  0  0
 18 13  1  0  0  0  0
 19 21  2  0  0  0  0
 19 20  1  0  0  0  0
 23 26  2  0  0  0  0
 24 23  1  0  0  0  0
 25 28  1  0  0  0  0
 27 25  2  0  0  0  0
 27 24  1  0  0  0  0
 28 26  1  0  0  0  0
 29 33  2  0  0  0  0
 29 32  1  0  0  0  0
 30 24  2  0  0  0  0
 30 22  1  0  0  0  0
 31 29  1  0  0  0  0
 32 30  1  0  0  0  0
 33 27  1  0  0  0  0
M  END
>  <MODEL>
2

>  <REMARK>
 VINA RESULT:      -7.9      1.570      2.140
  Name = 
  4 active torsions:
  status: ('A' for Active; 'I' for Inactive)
    1  A    between atoms: C_12  and  C_32
    2  A    between atoms: C_18  and  C_24
    3  A    between atoms: C_23  and  N_30
    4  A    between atoms: C_26  and  N_30
                            x       y       z     vdW  Elec       q    Type
                         _______ _______ _______ _____ _____    ______ ____

>  <TORSDO>
F 4

$$$$
=
 OpenBabel11042416173D

 33 37  0  0  1  0  0  0  0  0999 V2000
  194.4070  175.2110  146.4110 N   0  0  0  0  0  2  0  0  0  0  0  0
  195.0790  172.3450  144.2880 C   0  0  0  0  0  3  0  0  0  0  0  0
  197.2400  173.1890  145.0440 C   0  0  0  0  0  3  0  0  0  0  0  0
  195.2090  174.2670  145.7340 C   0  0  0  0  0  0  0  0  0  0  0  0
  193.0090  174.8700  146.1400 C   0  0  2  0  0  3  0  0  0  0  0  0
  196.6010  174.2080  145.7700 C   0  0  0  0  0  3  0  0  0  0  0  0
  193.0170  173.6680  145.1460 C   0  0  2  0  0  3  0  0  0  0  0  0
  196.4800  172.2600  144.3060 C   0  0  0  0  0  3  0  0  0  0  0  0
  194.4680  173.3690  145.0150 C   0  0  0  0  0  0  0  0  0  0  0  0
  188.9350  175.0530  147.1070 C   0  0  0  0  0  3  0  0  0  0  0  0
  190.1340  177.2950  145.2880 C   0  0  0  0  0  3  0  0  0  0  0  0
  187.9210  176.1270  146.9480 C   0  0  0  0  0  2  0  0  0  0  0  0
  188.8220  177.4550  145.1090 C   0  0  0  0  0  3  0  0  0  0  0  0
  190.8020  176.1560  145.8760 N   0  0  0  0  0  0  0  0  0  0  0  0
  192.8300  176.9870  145.0410 O   0  0  0  0  0  0  0  0  0  0  0  0
  190.1840  175.0930  146.6370 C   0  0  0  0  0  3  0  0  0  0  0  0
  192.2270  176.0740  145.6730 C   0  0  0  0  0  0  0  0  0  0  0  0
  187.7820  176.4590  145.4810 C   0  0  2  0  0  3  0  0  0  0  0  0
  186.4210  177.0030  145.1930 C   0  0  0  0  0  0  0  0  0  0  0  0
  186.2250  177.7620  144.2060 O   0  0  0  0  0  0  0  0  0  0  0  0
  185.3580  176.6630  146.0200 O   0  0  0  0  0  1  0  0  0  0  0  0
  192.4640  174.0280  143.8430 N   0  0  0  0  0  2  0  0  0  0  0  0
  190.3010  175.1920  142.5320 N   0  0  0  0  0  0  0  0  0  0  0  0
  190.4860  173.7740  142.5240 C   0  0  0  0  0  0  0  0  0  0  0  0
  188.5140  173.5000  141.1940 N   0  0  0  0  0  0  0  0  0  0  0  0
  189.2560  175.7380  141.9850 C   0  0  0  0  0  3  0  0  0  0  0  0
  189.5480  172.9500  141.7550 C   0  0  0  0  0  0  0  0  0  0  0  0
  188.1500  174.9120  141.3720 C   0  0  0  0  0  2  0  0  0  0  0  0
  190.8190  170.9730  142.1480 C   0  0  0  0  0  0  0  0  0  0  0  0
  191.5380  173.2050  143.1260 C   0  0  0  0  0  0  0  0  0  0  0  0
  191.0450  169.5230  141.9160 C   0  0  0  0  0  1  0  0  0  0  0  0
  191.7160  171.7010  143.1190 C   0  0  0  0  0  2  0  0  0  0  0  0
  189.8170  171.5590  141.5660 N   0  0  0  0  0  0  0  0  0  0  0  0
  2  8  2  0  0  0  0
  2  9  1  0  0  0  0
  3  6  2  0  0  0  0
  4  6  1  0  0  0  0
  4  1  1  0  0  0  0
  5 17  1  6  0  0  0
  5  1  1  0  0  0  0
  7 22  1  6  0  0  0
  7  5  1  0  0  0  0
  8  3  1  0  0  0  0
  9  7  1  0  0  0  0
  9  4  2  0  0  0  0
 11 14  1  0  0  0  0
 12 10  1  0  0  0  0
 13 11  2  0  0  0  0
 13 18  1  0  0  0  0
 14 16  1  0  0  0  0
 15 17  2  0  0  0  0
 16 10  2  0  0  0  0
 17 14  1  0  0  0  0
 18 19  1  1  0  0  0
 18 12  1  0  0  0  0
 19 21  1  0  0  0  0
 20 19  2  0  0  0  0
 24 23  1  0  0  0  0
 24 30  2  0  0  0  0
 25 28  1  0  0  0  0
 25 27  2  0  0  0  0
 26 23  2  0  0  0  0
 27 24  1  0  0  0  0
 28 26  1  0  0  0  0
 29 32  1  0  0  0  0
 30 22  1  0  0  0  0
 31 29  1  0  0  0  0
 32 30  1  0  0  0  0
 33 27  1  0  0  0  0
 33 29  2  0  0  0  0
M  END
>  <MODEL>
3

>  <REMARK>
 VINA RESULT:      -7.6      2.278      7.083
  Name = 
  4 active torsions:
  status: ('A' for Active; 'I' for Inactive)
    1  A    between atoms: C_12  and  C_32
    2  A    between atoms: C_18  and  C_24
    3  A    between atoms: C_23  and  N_30
    4  A    between atoms: C_26  and  N_30
                            x       y       z     vdW  Elec       q    Type
                         _______ _______ _______ _____ _____    ______ ____

>  <TORSDO>
F 4

$$$$
=
 OpenBabel11042416173D

 33 37  0  0  1  0  0  0  0  0999 V2000
  189.0640  173.0300  140.0380 N   0  0  0  0  0  2  0  0  0  0  0  0
  192.4530  172.5160  141.2300 C   0  0  0  0  0  3  0  0  0  0  0  0
  191.9250  170.6380  139.7650 C   0  0  0  0  0  3  0  0  0  0  0  0
  190.2990  172.3580  140.1650 C   0  0  0  0  0  0  0  0  0  0  0  0
  189.1570  174.2640  140.8210 C   0  0  2  0  0  3  0  0  0  0  0  0
  190.6430  171.1620  139.5360 C   0  0  0  0  0  3  0  0  0  0  0  0
  190.5470  174.2520  141.5290 C   0  0  2  0  0  3  0  0  0  0  0  0
  192.8280  171.3140  140.6090 C   0  0  0  0  0  3  0  0  0  0  0  0
  191.1710  173.0150  140.9880 C   0  0  0  0  0  0  0  0  0  0  0  0
  187.8290  178.1510  141.6560 C   0  0  0  0  0  3  0  0  0  0  0  0
  186.4640  175.7610  143.1400 C   0  0  0  0  0  3  0  0  0  0  0  0
  186.6370  178.6620  142.3810 C   0  0  0  0  0  2  0  0  0  0  0  0
  186.0700  176.8090  143.8660 C   0  0  0  0  0  3  0  0  0  0  0  0
  187.5280  175.7280  142.1620 N   0  0  0  0  0  0  0  0  0  0  0  0
  187.4150  173.3860  142.2050 O   0  0  0  0  0  0  0  0  0  0  0  0
  188.1920  176.8690  141.5710 C   0  0  0  0  0  3  0  0  0  0  0  0
  187.9740  174.4210  141.7460 C   0  0  0  0  0  0  0  0  0  0  0  0
  186.6780  178.1660  143.8070 C   0  0  2  0  0  3  0  0  0  0  0  0
  185.9410  179.1000  144.7090 C   0  0  0  0  0  0  0  0  0  0  0  0
  185.4570  180.1760  144.2660 O   0  0  0  0  0  0  0  0  0  0  0  0
  185.7840  178.7770  146.0500 O   0  0  0  0  0  1  0  0  0  0  0  0
  190.4230  174.1540  142.9800 N   0  0  0  0  0  2  0  0  0  0  0  0
  189.1960  175.1790  145.2600 N   0  0  0  0  0  0  0  0  0  0  0  0
  190.5650  175.4740  144.9680 C   0  0  0  0  0  0  0  0  0  0  0  0
  190.7300  176.7910  146.9610 N   0  0  0  0  0  0  0  0  0  0  0  0
  188.5950  175.7120  146.2820 C   0  0  0  0  0  3  0  0  0  0  0  0
  191.3290  176.2750  145.9300 C   0  0  0  0  0  0  0  0  0  0  0  0
  189.2790  176.7180  147.1770 C   0  0  0  0  0  2  0  0  0  0  0  0
  193.3600  175.9520  144.7280 C   0  0  0  0  0  0  0  0  0  0  0  0
  191.1740  174.9620  143.8910 C   0  0  0  0  0  0  0  0  0  0  0  0
  194.8300  176.1370  144.6130 C   0  0  0  0  0  1  0  0  0  0  0  0
  192.6210  175.2910  143.5890 C   0  0  0  0  0  2  0  0  0  0  0  0
  192.7410  176.4210  145.7690 N   0  0  0  0  0  0  0  0  0  0  0  0
  1  4  1  0  0  0  0
  1  5  1  0  0  0  0
  3  8  1  0  0  0  0
  4  9  2  0  0  0  0
  5  7  1  0  0  0  0
  5 17  1  1  0  0  0
  6  3  2  0  0  0  0
  6  4  1  0  0  0  0
  7 22  1  1  0  0  0
  8  2  2  0  0  0  0
  9  2  1  0  0  0  0
  9  7  1  0  0  0  0
 10 12  1  0  0  0  0
 11 13  2  0  0  0  0
 12 18  1  0  0  0  0
 14 11  1  0  0  0  0
 16 10  2  0  0  0  0
 16 14  1  0  0  0  0
 17 14  1  0  0  0  0
 17 15  2  0  0  0  0
 18 13  1  0  0  0  0
 18 19  1  1  0  0  0
 19 21  1  0  0  0  0
 20 19  2  0  0  0  0
 22 30  1  0  0  0  0
 23 26  2  0  0  0  0
 24 23  1  0  0  0  0
 24 27  1  0  0  0  0
 25 28  1  0  0  0  0
 26 28  1  0  0  0  0
 27 25  2  0  0  0  0
 29 33  2  0  0  0  0
 30 24  2  0  0  0  0
 31 29  1  0  0  0  0
 32 30  1  0  0  0  0
 32 29  1  0  0  0  0
 33 27  1  0  0  0  0
M  END
>  <MODEL>
4

>  <REMARK>
 VINA RESULT:      -7.3      2.682      7.758
  Name = 
  4 active torsions:
  status: ('A' for Active; 'I' for Inactive)
    1  A    between atoms: C_12  and  C_32
    2  A    between atoms: C_18  and  C_24
    3  A    between atoms: C_23  and  N_30
    4  A    between atoms: C_26  and  N_30
                            x       y       z     vdW  Elec       q    Type
                         _______ _______ _______ _____ _____    ______ ____

>  <TORSDO>
F 4

$$$$
=
 OpenBabel11042416173D

 33 37  0  0  1  0  0  0  0  0999 V2000
  188.3680  177.5400  147.2550 N   0  0  0  0  0  2  0  0  0  0  0  0
  185.3920  178.0970  145.2540 C   0  0  0  0  0  3  0  0  0  0  0  0
  184.8180  178.6750  147.5540 C   0  0  0  0  0  3  0  0  0  0  0  0
  187.0250  177.9000  147.0140 C   0  0  0  0  0  0  0  0  0  0  0  0
  188.9630  177.1860  145.9640 C   0  0  2  0  0  3  0  0  0  0  0  0
  186.1180  178.3470  147.9730 C   0  0  0  0  0  3  0  0  0  0  0  0
  187.8270  177.2720  144.8990 C   0  0  2  0  0  3  0  0  0  0  0  0
  184.4570  178.5520  146.1980 C   0  0  0  0  0  3  0  0  0  0  0  0
  186.6770  177.7740  145.6970 C   0  0  0  0  0  0  0  0  0  0  0  0
  192.5670  176.7860  143.8620 C   0  0  0  0  0  3  0  0  0  0  0  0
  191.3930  174.2680  145.2950 C   0  0  0  0  0  3  0  0  0  0  0  0
  193.5840  175.7030  143.8250 C   0  0  0  0  0  2  0  0  0  0  0  0
  192.2990  173.7320  144.4740 C   0  0  0  0  0  3  0  0  0  0  0  0
  190.8600  175.6100  145.2490 N   0  0  0  0  0  0  0  0  0  0  0  0
  189.1760  174.9310  146.7320 O   0  0  0  0  0  0  0  0  0  0  0  0
  191.3930  176.7240  144.4940 C   0  0  0  0  0  3  0  0  0  0  0  0
  189.6740  175.8560  146.0300 C   0  0  0  0  0  0  0  0  0  0  0  0
  192.9320  174.4350  143.3260 C   0  0  2  0  0  3  0  0  0  0  0  0
  193.9420  173.5480  142.6730 C   0  0  0  0  0  0  0  0  0  0  0  0
  193.9240  172.3020  142.8630 O   0  0  0  0  0  1  0  0  0  0  0  0
  194.9060  174.1040  141.8430 O   0  0  0  0  0  0  0  0  0  0  0  0
  187.5060  175.9650  144.3320 N   0  0  0  0  0  2  0  0  0  0  0  0
  186.4500  177.3770  142.1770 N   0  0  0  0  0  0  0  0  0  0  0  0
  187.3060  176.2510  141.9670 C   0  0  0  0  0  0  0  0  0  0  0  0
  187.1270  176.5280  139.5950 N   0  0  0  0  0  0  0  0  0  0  0  0
  185.8950  177.9970  141.1790 C   0  0  0  0  0  3  0  0  0  0  0  0
  187.6690  175.8950  140.5910 C   0  0  0  0  0  0  0  0  0  0  0  0
  186.0640  177.5290  139.7520 C   0  0  0  0  0  2  0  0  0  0  0  0
  189.2020  174.2260  141.3290 C   0  0  0  0  0  0  0  0  0  0  0  0
  187.8440  175.5820  142.9950 C   0  0  0  0  0  0  0  0  0  0  0  0
  190.2380  173.2070  141.0230 C   0  0  0  0  0  1  0  0  0  0  0  0
  188.7400  174.3850  142.7580 C   0  0  0  0  0  2  0  0  0  0  0  0
  188.6720  174.9050  140.3560 N   0  0  0  0  0  0  0  0  0  0  0  0
  2  9  2  0  0  0  0
  2  8  1  0  0  0  0
  3  6  1  0  0  0  0
  4  1  1  0  0  0  0
  4  6  2  0  0  0  0
  5 17  1  1  0  0  0
  5  1  1  0  0  0  0
  7 22  1  1  0  0  0
  7  9  1  0  0  0  0
  7  5  1  0  0  0  0
  8  3  2  0  0  0  0
  9  4  1  0  0  0  0
 10 16  2  0  0  0  0
 12 10  1  0  0  0  0
 13 11  2  0  0  0  0
 14 11  1  0  0  0  0
 14 17  1  0  0  0  0
 16 14  1  0  0  0  0
 17 15  2  0  0  0  0
 18 19  1  1  0  0  0
 18 12  1  0  0  0  0
 18 13  1  0  0  0  0
 19 20  1  0  0  0  0
 21 19  2  0  0  0  0
 24 23  1  0  0  0  0
 24 30  2  0  0  0  0
 25 28  1  0  0  0  0
 25 27  2  0  0  0  0
 26 23  2  0  0  0  0
 27 24  1  0  0  0  0
 28 26  1  0  0  0  0
 29 32  1  0  0  0  0
 30 22  1  0  0  0  0
 31 29  1  0  0  0  0
 32 30  1  0  0  0  0
 33 27  1  0  0  0  0
 33 29  2  0  0  0  0
M  END
>  <MODEL>
5

>  <REMARK>
 VINA RESULT:      -7.3      0.948      2.427
  Name = 
  4 active torsions:
  status: ('A' for Active; 'I' for Inactive)
    1  A    between atoms: C_12  and  C_32
    2  A    between atoms: C_18  and  C_24
    3  A    between atoms: C_23  and  N_30
    4  A    between atoms: C_26  and  N_30
                            x       y       z     vdW  Elec       q    Type
                         _______ _______ _______ _____ _____    ______ ____

>  <TORSDO>
F 4

$$$$
=
 OpenBabel11042416173D

 33 37  0  0  1  0  0  0  0  0999 V2000
  189.2080  177.7630  147.1610 N   0  0  0  0  0  2  0  0  0  0  0  0
  186.2890  176.6140  145.3350 C   0  0  0  0  0  3  0  0  0  0  0  0
  185.4730  177.9230  147.2250 C   0  0  0  0  0  3  0  0  0  0  0  0
  187.8300  177.6150  146.8930 C   0  0  0  0  0  0  0  0  0  0  0  0
  189.9370  177.0760  146.0920 C   0  0  2  0  0  3  0  0  0  0  0  0
  186.7920  178.1610  147.6450 C   0  0  0  0  0  3  0  0  0  0  0  0
  188.8720  176.4010  145.1740 C   0  0  2  0  0  3  0  0  0  0  0  0
  185.2230  177.1530  146.0730 C   0  0  0  0  0  3  0  0  0  0  0  0
  187.5920  176.8630  145.7750 C   0  0  0  0  0  0  0  0  0  0  0  0
  193.5960  176.7960  144.0680 C   0  0  0  0  0  3  0  0  0  0  0  0
  193.0980  174.9070  146.5090 C   0  0  0  0  0  3  0  0  0  0  0  0
  194.8710  176.1100  144.4050 C   0  0  0  0  0  2  0  0  0  0  0  0
  194.1480  174.3360  145.9180 C   0  0  0  0  0  3  0  0  0  0  0  0
  192.2200  175.9110  145.9500 N   0  0  0  0  0  0  0  0  0  0  0  0
  190.7260  175.5030  147.7110 O   0  0  0  0  0  0  0  0  0  0  0  0
  192.4590  176.6980  144.7600 C   0  0  0  0  0  3  0  0  0  0  0  0
  190.9810  176.1390  146.6500 C   0  0  0  0  0  0  0  0  0  0  0  0
  194.6120  174.6280  144.5350 C   0  0  2  0  0  3  0  0  0  0  0  0
  195.8520  173.8510  144.2320 C   0  0  0  0  0  0  0  0  0  0  0  0
  196.9240  174.0800  144.8540 O   0  0  0  0  0  1  0  0  0  0  0  0
  195.8190  172.8610  143.2590 O   0  0  0  0  0  0  0  0  0  0  0  0
  188.9480  174.9440  145.2240 N   0  0  0  0  0  2  0  0  0  0  0  0
  188.3680  175.3240  142.5270 N   0  0  0  0  0  0  0  0  0  0  0  0
  189.3070  174.3270  142.9420 C   0  0  0  0  0  0  0  0  0  0  0  0
  189.6880  173.7040  140.6620 N   0  0  0  0  0  0  0  0  0  0  0  0
  188.0370  175.4590  141.2780 C   0  0  0  0  0  3  0  0  0  0  0  0
  190.0080  173.5540  141.9130 C   0  0  0  0  0  0  0  0  0  0  0  0
  188.5680  174.5360  140.2050 C   0  0  0  0  0  2  0  0  0  0  0  0
  191.4030  172.4930  143.5270 C   0  0  0  0  0  0  0  0  0  0  0  0
  189.6160  174.1560  144.2340 C   0  0  0  0  0  0  0  0  0  0  0  0
  192.5340  171.5860  143.8510 C   0  0  0  0  0  1  0  0  0  0  0  0
  190.6030  173.0900  144.6600 C   0  0  0  0  0  2  0  0  0  0  0  0
  191.0880  172.6950  142.2830 N   0  0  0  0  0  0  0  0  0  0  0  0
  2  9  2  0  0  0  0
  2  8  1  0  0  0  0
  3  6  1  0  0  0  0
  4  1  1  0  0  0  0
  4  6  2  0  0  0  0
  5 17  1  1  0  0  0
  5  1  1  0  0  0  0
  7 22  1  1  0  0  0
  7  9  1  0  0  0  0
  7  5  1  0  0  0  0
  8  3  2  0  0  0  0
  9  4  1  0  0  0  0
 10 12  1  0  0  0  0
 10 16  2  0  0  0  0
 12 18  1  0  0  0  0
 13 11  2  0  0  0  0
 14 11  1  0  0  0  0
 14 17  1  0  0  0  0
 16 14  1  0  0  0  0
 17 15  2  0  0  0  0
 18 19  1  1  0  0  0
 18 13  1  0  0  0  0
 19 20  1  0  0  0  0
 21 19  2  0  0  0  0
 23 24  1  0  0  0  0
 24 30  2  0  0  0  0
 25 27  2  0  0  0  0
 26 23  2  0  0  0  0
 27 33  1  0  0  0  0
 27 24  1  0  0  0  0
 28 25  1  0  0  0  0
 28 26  1  0  0  0  0
 29 31  1  0  0  0  0
 29 32  1  0  0  0  0
 30 32  1  0  0  0  0
 30 22  1  0  0  0  0
 33 29  2  0  0  0  0
M  END
>  <MODEL>
6

>  <REMARK>
 VINA RESULT:      -7.3      1.472      2.877
  Name = 
  4 active torsions:
  status: ('A' for Active; 'I' for Inactive)
    1  A    between atoms: C_12  and  C_32
    2  A    between atoms: C_18  and  C_24
    3  A    between atoms: C_23  and  N_30
    4  A    between atoms: C_26  and  N_30
                            x       y       z     vdW  Elec       q    Type
                         _______ _______ _______ _____ _____    ______ ____

>  <TORSDO>
F 4

$$$$
=
 OpenBabel11042416173D

 33 37  0  0  1  0  0  0  0  0999 V2000
  191.3450  173.4010  141.1900 N   0  0  0  0  0  2  0  0  0  0  0  0
  188.1860  173.9620  139.4930 C   0  0  0  0  0  3  0  0  0  0  0  0
  189.7020  172.9710  137.8590 C   0  0  0  0  0  3  0  0  0  0  0  0
  190.4450  173.3910  140.1020 C   0  0  0  0  0  0  0  0  0  0  0  0
  190.6210  173.9290  142.3490 C   0  0  2  0  0  3  0  0  0  0  0  0
  190.7230  172.9170  138.8210 C   0  0  0  0  0  3  0  0  0  0  0  0
  189.2000  174.3370  141.8530 C   0  0  2  0  0  3  0  0  0  0  0  0
  188.4370  173.4910  138.1950 C   0  0  0  0  0  3  0  0  0  0  0  0
  189.2190  173.9000  140.4310 C   0  0  0  0  0  0  0  0  0  0  0  0
  190.0970  174.4340  146.4770 C   0  0  0  0  0  3  0  0  0  0  0  0
  191.8960  176.4810  144.9440 C   0  0  0  0  0  3  0  0  0  0  0  0
  190.7910  175.2920  147.4710 C   0  0  0  0  0  2  0  0  0  0  0  0
  191.6690  177.1100  146.0990 C   0  0  0  0  0  3  0  0  0  0  0  0
  191.1890  175.3330  144.4230 N   0  0  0  0  0  0  0  0  0  0  0  0
  192.1910  175.7340  142.3410 O   0  0  0  0  0  0  0  0  0  0  0  0
  190.2920  174.4660  145.1570 C   0  0  0  0  0  3  0  0  0  0  0  0
  191.3980  175.0310  143.0290 C   0  0  0  0  0  0  0  0  0  0  0  0
  190.6140  176.7400  147.0800 C   0  0  2  0  0  3  0  0  0  0  0  0
  190.6960  177.6230  148.2820 C   0  0  0  0  0  0  0  0  0  0  0  0
  191.6040  177.4590  149.1410 O   0  0  0  0  0  1  0  0  0  0  0  0
  189.7640  178.6370  148.4520 O   0  0  0  0  0  0  0  0  0  0  0  0
  188.9850  175.7800  141.9270 N   0  0  0  0  0  2  0  0  0  0  0  0
  186.9290  176.9340  140.4470 N   0  0  0  0  0  0  0  0  0  0  0  0
  186.9040  176.9550  141.8770 C   0  0  0  0  0  0  0  0  0  0  0  0
  184.8130  178.1210  141.8470 N   0  0  0  0  0  0  0  0  0  0  0  0
  186.0110  177.5330  139.7480 C   0  0  0  0  0  3  0  0  0  0  0  0
  185.7380  177.5390  142.5480 C   0  0  0  0  0  0  0  0  0  0  0  0
  184.9090  178.3380  140.3970 C   0  0  0  0  0  2  0  0  0  0  0  0
  186.5180  176.8600  144.6950 C   0  0  0  0  0  0  0  0  0  0  0  0
  187.8720  176.3770  142.5990 C   0  0  0  0  0  0  0  0  0  0  0  0
  186.3090  176.7450  146.1610 C   0  0  0  0  0  1  0  0  0  0  0  0
  187.8380  176.4150  144.1120 C   0  0  0  0  0  2  0  0  0  0  0  0
  185.5910  177.3990  143.9620 N   0  0  0  0  0  0  0  0  0  0  0  0
  1  5  1  0  0  0  0
  2  9  1  0  0  0  0
  3  8  1  0  0  0  0
  3  6  2  0  0  0  0
  4  9  2  0  0  0  0
  4  1  1  0  0  0  0
  5 17  1  6  0  0  0
  6  4  1  0  0  0  0
  7 22  1  6  0  0  0
  7  5  1  0  0  0  0
  8  2  2  0  0  0  0
  9  7  1  0  0  0  0
 10 12  1  0  0  0  0
 11 13  2  0  0  0  0
 13 18  1  0  0  0  0
 14 11  1  0  0  0  0
 14 16  1  0  0  0  0
 15 17  2  0  0  0  0
 16 10  2  0  0  0  0
 17 14  1  0  0  0  0
 18 12  1  0  0  0  0
 18 19  1  1  0  0  0
 19 21  2  0  0  0  0
 19 20  1  0  0  0  0
 22 30  1  0  0  0  0
 23 24  1  0  0  0  0
 24 27  1  0  0  0  0
 24 30  2  0  0  0  0
 25 27  2  0  0  0  0
 26 28  1  0  0  0  0
 26 23  2  0  0  0  0
 27 33  1  0  0  0  0
 28 25  1  0  0  0  0
 29 31  1  0  0  0  0
 30 32  1  0  0  0  0
 32 29  1  0  0  0  0
 33 29  2  0  0  0  0
M  END
>  <MODEL>
7

>  <REMARK>
 VINA RESULT:      -7.2      2.198      6.243
  Name = 
  4 active torsions:
  status: ('A' for Active; 'I' for Inactive)
    1  A    between atoms: C_12  and  C_32
    2  A    between atoms: C_18  and  C_24
    3  A    between atoms: C_23  and  N_30
    4  A    between atoms: C_26  and  N_30
                            x       y       z     vdW  Elec       q    Type
                         _______ _______ _______ _____ _____    ______ ____

>  <TORSDO>
F 4

$$$$
=
 OpenBabel11042416173D

 33 37  0  0  1  0  0  0  0  0999 V2000
  189.3950  173.1990  140.1630 N   0  0  0  0  0  2  0  0  0  0  0  0
  192.5160  172.2550  141.7570 C   0  0  0  0  0  3  0  0  0  0  0  0
  192.1080  170.6330  139.9810 C   0  0  0  0  0  3  0  0  0  0  0  0
  190.5500  172.4160  140.3750 C   0  0  0  0  0  0  0  0  0  0  0  0
  189.4410  174.3100  141.1170 C   0  0  2  0  0  3  0  0  0  0  0  0
  190.9120  171.2870  139.6410 C   0  0  0  0  0  3  0  0  0  0  0  0
  190.6980  174.0900  142.0130 C   0  0  2  0  0  3  0  0  0  0  0  0
  192.9070  171.1160  141.0350 C   0  0  0  0  0  3  0  0  0  0  0  0
  191.3210  172.8860  141.4020 C   0  0  0  0  0  0  0  0  0  0  0  0
  187.9830  178.1740  141.8310 C   0  0  0  0  0  3  0  0  0  0  0  0
  186.4400  175.7500  143.0650 C   0  0  0  0  0  3  0  0  0  0  0  0
  186.6970  178.6660  142.3910 C   0  0  0  0  0  2  0  0  0  0  0  0
  185.9420  176.7830  143.7480 C   0  0  0  0  0  3  0  0  0  0  0  0
  187.6310  175.7400  142.2450 N   0  0  0  0  0  0  0  0  0  0  0  0
  187.5290  173.3970  142.2290 O   0  0  0  0  0  0  0  0  0  0  0  0
  188.3620  176.8960  141.7730 C   0  0  0  0  0  3  0  0  0  0  0  0
  188.1390  174.4440  141.8710 C   0  0  0  0  0  0  0  0  0  0  0  0
  186.5430  178.1420  143.7990 C   0  0  2  0  0  3  0  0  0  0  0  0
  185.6810  179.0560  144.6070 C   0  0  0  0  0  0  0  0  0  0  0  0
  185.5140  180.2570  144.2630 O   0  0  0  0  0  0  0  0  0  0  0  0
  185.0510  178.5750  145.7470 O   0  0  0  0  0  1  0  0  0  0  0  0
  190.3420  173.8150  143.4020 N   0  0  0  0  0  2  0  0  0  0  0  0
  192.9030  174.5920  144.1710 N   0  0  0  0  0  0  0  0  0  0  0  0
  191.7490  175.1060  144.8410 C   0  0  0  0  0  0  0  0  0  0  0  0
  193.1410  176.4150  146.2840 N   0  0  0  0  0  0  0  0  0  0  0  0
  194.1030  174.8920  144.5690 C   0  0  0  0  0  3  0  0  0  0  0  0
  191.9400  176.1030  145.8990 C   0  0  0  0  0  0  0  0  0  0  0  0
  194.3500  175.7410  145.7950 C   0  0  0  0  0  2  0  0  0  0  0  0
  189.5940  176.4580  146.1170 C   0  0  0  0  0  0  0  0  0  0  0  0
  190.5110  174.7630  144.4610 C   0  0  0  0  0  0  0  0  0  0  0  0
  188.4560  177.1940  146.7260 C   0  0  0  0  0  1  0  0  0  0  0  0
  189.2990  175.3060  145.1860 C   0  0  0  0  0  2  0  0  0  0  0  0
  190.8080  176.7780  146.4500 N   0  0  0  0  0  0  0  0  0  0  0  0
  1  4  1  0  0  0  0
  1  5  1  0  0  0  0
  3  8  1  0  0  0  0
  4  9  2  0  0  0  0
  5 17  1  1  0  0  0
  5  7  1  0  0  0  0
  6  3  2  0  0  0  0
  6  4  1  0  0  0  0
  7 22  1  1  0  0  0
  8  2  2  0  0  0  0
  9  2  1  0  0  0  0
  9  7  1  0  0  0  0
 10 12  1  0  0  0  0
 11 13  2  0  0  0  0
 12 18  1  0  0  0  0
 13 18  1  0  0  0  0
 14 11  1  0  0  0  0
 16 10  2  0  0  0  0
 16 14  1  0  0  0  0
 17 15  2  0  0  0  0
 17 14  1  0  0  0  0
 18 19  1  1  0  0  0
 19 21  1  0  0  0  0
 20 19  2  0  0  0  0
 22 30  1  0  0  0  0
 23 26  2  0  0  0  0
 23 24  1  0  0  0  0
 24 27  1  0  0  0  0
 26 28  1  0  0  0  0
 27 25  2  0  0  0  0
 27 33  1  0  0  0  0
 28 25  1  0  0  0  0
 29 33  2  0  0  0  0
 29 31  1  0  0  0  0
 30 24  2  0  0  0  0
 30 32  1  0  0  0  0
 32 29  1  0  0  0  0
M  END
>  <MODEL>
8

>  <REMARK>
 VINA RESULT:      -7.2      2.641      7.636
  Name = 
  4 active torsions:
  status: ('A' for Active; 'I' for Inactive)
    1  A    between atoms: C_12  and  C_32
    2  A    between atoms: C_18  and  C_24
    3  A    between atoms: C_23  and  N_30
    4  A    between atoms: C_26  and  N_30
                            x       y       z     vdW  Elec       q    Type
                         _______ _______ _______ _____ _____    ______ ____

>  <TORSDO>
F 4

$$$$
=
 OpenBabel11042416173D

 33 37  0  0  1  0  0  0  0  0999 V2000
  185.9420  176.3590  142.7070 N   0  0  0  0  0  2  0  0  0  0  0  0
  186.6910  178.4760  145.5580 C   0  0  0  0  0  3  0  0  0  0  0  0
  184.6530  179.3510  144.5420 C   0  0  0  0  0  3  0  0  0  0  0  0
  185.7480  177.4320  143.6030 C   0  0  0  0  0  0  0  0  0  0  0  0
  187.1270  175.6250  143.1560 C   0  0  2  0  0  3  0  0  0  0  0  0
  184.6990  178.3500  143.5590 C   0  0  0  0  0  3  0  0  0  0  0  0
  187.7120  176.4040  144.3740 C   0  0  2  0  0  3  0  0  0  0  0  0
  185.6460  179.4130  145.5390 C   0  0  0  0  0  3  0  0  0  0  0  0
  186.7160  177.4920  144.5670 C   0  0  0  0  0  0  0  0  0  0  0  0
  189.3150  172.0500  143.1420 C   0  0  0  0  0  3  0  0  0  0  0  0
  189.9310  174.1800  140.9380 C   0  0  0  0  0  3  0  0  0  0  0  0
  190.2210  171.4410  142.1350 C   0  0  0  0  0  2  0  0  0  0  0  0
  190.9920  173.3750  140.8600 C   0  0  0  0  0  3  0  0  0  0  0  0
  188.9600  174.2420  142.0070 N   0  0  0  0  0  0  0  0  0  0  0  0
  188.1910  176.2690  141.1130 O   0  0  0  0  0  0  0  0  0  0  0  0
  188.7750  173.2680  143.0610 C   0  0  0  0  0  3  0  0  0  0  0  0
  188.0970  175.3970  142.0220 C   0  0  0  0  0  0  0  0  0  0  0  0
  191.3830  172.3750  141.8900 C   0  0  2  0  0  3  0  0  0  0  0  0
  192.5840  171.6110  141.4360 C   0  0  0  0  0  0  0  0  0  0  0  0
  193.2820  170.9600  142.2590 O   0  0  0  0  0  1  0  0  0  0  0  0
  192.9300  171.6140  140.0920 O   0  0  0  0  0  0  0  0  0  0  0  0
  189.0230  176.9760  144.0820 N   0  0  0  0  0  2  0  0  0  0  0  0
  191.5280  176.5700  142.9340 N   0  0  0  0  0  0  0  0  0  0  0  0
  191.3620  176.5630  144.3540 C   0  0  0  0  0  0  0  0  0  0  0  0
  193.7050  176.1610  144.6480 N   0  0  0  0  0  0  0  0  0  0  0  0
  192.6780  176.3090  142.3880 C   0  0  0  0  0  3  0  0  0  0  0  0
  192.5520  176.4030  145.1970 C   0  0  0  0  0  0  0  0  0  0  0  0
  193.8840  175.9210  143.2100 C   0  0  0  0  0  2  0  0  0  0  0  0
  191.3070  176.7900  147.1910 C   0  0  0  0  0  0  0  0  0  0  0  0
  190.1690  176.7870  144.9190 C   0  0  0  0  0  0  0  0  0  0  0  0
  191.2640  176.9720  148.6640 C   0  0  0  0  0  1  0  0  0  0  0  0
  190.0060  176.7670  146.4240 C   0  0  0  0  0  2  0  0  0  0  0  0
  192.4510  176.5890  146.6090 N   0  0  0  0  0  0  0  0  0  0  0  0
  1  5  1  0  0  0  0
  1  4  1  0  0  0  0
  3  8  2  0  0  0  0
  4  9  1  0  0  0  0
  5 17  1  6  0  0  0
  5  7  1  0  0  0  0
  6  4  2  0  0  0  0
  6  3  1  0  0  0  0
  7 22  1  6  0  0  0
  7  9  1  0  0  0  0
  8  2  1  0  0  0  0
  9  2  2  0  0  0  0
 11 14  1  0  0  0  0
 12 10  1  0  0  0  0
 13 11  2  0  0  0  0
 13 18  1  0  0  0  0
 14 17  1  0  0  0  0
 14 16  1  0  0  0  0
 15 17  2  0  0  0  0
 16 10  2  0  0  0  0
 18 19  1  6  0  0  0
 18 12  1  0  0  0  0
 19 20  1  0  0  0  0
 21 19  2  0  0  0  0
 22 30  1  0  0  0  0
 23 24  1  0  0  0  0
 24 30  2  0  0  0  0
 24 27  1  0  0  0  0
 25 27  2  0  0  0  0
 26 23  2  0  0  0  0
 26 28  1  0  0  0  0
 27 33  1  0  0  0  0
 28 25  1  0  0  0  0
 29 31  1  0  0  0  0
 30 32  1  0  0  0  0
 32 29  1  0  0  0  0
 33 29  2  0  0  0  0
M  END
>  <MODEL>
9

>  <REMARK>
 VINA RESULT:      -7.2      2.174      4.941
  Name = 
  4 active torsions:
  status: ('A' for Active; 'I' for Inactive)
    1  A    between atoms: C_12  and  C_32
    2  A    between atoms: C_18  and  C_24
    3  A    between atoms: C_23  and  N_30
    4  A    between atoms: C_26  and  N_30
                            x       y       z     vdW  Elec       q    Type
                         _______ _______ _______ _____ _____    ______ ____

>  <TORSDO>
F 4

$$$$
