=
 OpenBabel11042419403D

 61 65  0  0  1  0  0  0  0  0999 V2000
  188.8080  177.6680  142.9660 N   0  0  0  0  0  0  0  0  0  0  0  0
  189.7630  176.8100  142.7640 C   0  0  0  0  0  0  0  0  0  0  0  0
  183.1390  178.2650  139.8890 O   0  0  0  0  0  0  0  0  0  0  0  0
  184.6230  177.7350  142.3750 C   0  0  0  0  0  0  0  0  0  0  0  0
  183.2920  178.2450  142.2330 N   0  0  0  0  0  2  0  0  0  0  0  0
  186.9300  177.6430  141.4880 C   0  0  0  0  0  3  0  0  0  0  0  0
  187.4000  177.4920  142.7300 C   0  0  0  0  0  0  0  0  0  0  0  0
  182.5980  178.4980  141.0060 C   0  0  0  0  0  0  0  0  0  0  0  0
  186.4500  177.0290  143.8040 C   0  0  0  0  0  2  0  0  0  0  0  0
  185.1070  177.5690  143.5720 N   0  0  0  0  0  0  0  0  0  0  0  0
  185.4790  177.3970  141.1800 C   0  0  0  0  0  2  0  0  0  0  0  0
  180.2390  178.1990  140.3550 C   0  0  0  0  0  2  0  0  0  0  0  0
  179.3800  178.8520  142.4840 C   0  0  0  0  0  2  0  0  0  0  0  0
  180.7870  179.2450  142.4460 N   0  0  0  0  0  2  0  0  0  0  0  0
  181.2290  179.0880  141.0640 C   0  0  1  0  0  3  0  0  0  0  0  0
  178.9530  178.4430  141.0900 C   0  0  0  0  0  2  0  0  0  0  0  0
  191.1650  177.2250  143.0590 C   0  0  0  0  0  2  0  0  0  0  0  0
  191.2120  177.8600  144.3000 O   0  0  0  0  0  0  0  0  0  0  0  0
  191.9950  177.0260  145.1100 C   0  0  2  0  0  3  0  0  0  0  0  0
  192.6890  174.8060  144.4400 O   0  0  0  0  0  1  0  0  0  0  0  0
  192.9390  176.1690  144.2550 C   0  0  2  0  0  3  0  0  0  0  0  0
  194.3980  176.4910  144.5460 C   0  0  0  0  0  2  0  0  0  0  0  0
  195.2120  176.2880  143.3580 N   0  0  0  0  0  2  0  0  0  0  0  0
  196.8740  175.1700  142.1880 O   0  0  0  0  0  0  0  0  0  0  0  0
  196.2800  175.3400  143.2850 C   0  0  0  0  0  0  0  0  0  0  0  0
  196.6910  174.5430  144.4800 C   0  0  0  0  0  2  0  0  0  0  0  0
  194.4810  171.2840  143.9300 P   0  0  1  0  0  0  0  0  0  0  0  0
  195.7970  172.6380  145.7050 N   0  0  0  0  0  0  0  0  0  0  0  0
  195.0590  169.9170  143.1140 O   0  0  0  0  0  0  0  0  0  0  0  0
  195.9150  173.2720  144.5760 C   0  0  0  0  0  0  0  0  0  0  0  0
  195.0100  171.4050  145.6550 C   0  0  2  0  0  3  0  0  0  0  0  0
  195.3010  172.6970  143.4700 O   0  0  0  0  0  0  0  0  0  0  0  0
  192.9820  171.4420  143.7820 O   0  0  0  0  0  1  0  0  0  0  0  0
  197.2420  170.3060  145.9610 O   0  0  0  0  0  0  0  0  0  0  0  0
  195.3090  169.1710  146.4310 O   0  0  0  0  0  1  0  0  0  0  0  0
  195.8580  170.2350  146.0400 C   0  0  0  0  0  0  0  0  0  0  0  0
  191.9350  175.5990  147.0380 O   0  0  0  0  0  1  0  0  0  0  0  0
  191.1270  176.2140  146.0780 C   0  0  1  0  0  3  0  0  0  0  0  0
  190.0670  177.0660  146.7640 C   0  0  0  0  0  2  0  0  0  0  0  0
  188.8280  176.8530  146.1560 O   0  0  0  0  0  0  0  0  0  0  0  0
  186.7910  176.6300  147.3880 C   0  0  0  0  0  1  0  0  0  0  0  0
  188.1360  176.0140  147.0340 C   0  0  0  0  0  2  0  0  0  0  0  0
  189.5020  175.3960  142.3410 C   0  0  0  0  0  2  0  0  0  0  0  0
  189.2010  174.5170  143.5390 C   0  0  0  0  0  2  0  0  0  0  0  0
  189.8890  173.1750  143.3680 C   0  0  0  0  0  2  0  0  0  0  0  0
  190.4850  173.0580  141.9770 C   0  0  0  0  0  2  0  0  0  0  0  0
  190.2570  171.6550  141.4370 C   0  0  0  0  0  2  0  0  0  0  0  0
  190.8960  171.5090  140.0650 C   0  0  1  0  0  3  0  0  0  0  0  0
  192.3230  172.7090  138.7690 C   0  0  2  0  0  3  0  0  0  0  0  0
  190.0340  172.1520  139.0430 C   0  0  0  0  0  0  0  0  0  0  0  0
  190.7810  173.5140  138.2220 S   0  0  0  0  0  0  0  0  0  0  0  0
  192.1480  172.1560  140.0550 O   0  0  0  0  0  0  0  0  0  0  0  0
  188.9670  171.6810  138.6910 O   0  0  0  0  0  0  0  0  0  0  0  0
  195.7300  174.0110  137.8440 C   0  0  0  0  0  2  0  0  0  0  0  0
  196.4730  173.2740  138.9650 C   0  0  0  0  0  2  0  0  0  0  0  0
  195.5120  172.7620  140.0470 C   0  0  0  0  0  2  0  0  0  0  0  0
  194.2470  173.6130  140.1220 C   0  0  0  0  0  2  0  0  0  0  0  0
  194.4180  173.4110  137.6050 N   0  0  0  0  0  0  0  0  0  0  0  0
  193.5250  173.6620  138.7590 C   0  0  1  0  0  3  0  0  0  0  0  0
  194.6440  175.2400  136.1780 O   0  0  0  0  0  1  0  0  0  0  0  0
  193.8620  174.1190  136.4620 C   0  0  0  0  0  2  0  0  0  0  0  0
  2  1  2  0  0  0  0
  2 17  1  0  0  0  0
  3  8  2  0  0  0  0
  4 10  2  0  0  0  0
  5  4  1  0  0  0  0
  6  7  2  0  0  0  0
  7  1  1  0  0  0  0
  7  9  1  0  0  0  0
  8  5  1  0  0  0  0
 10  9  1  0  0  0  0
 11  6  1  0  0  0  0
 11  4  1  0  0  0  0
 12 15  1  0  0  0  0
 12 16  1  0  0  0  0
 14 13  1  0  0  0  0
 15  8  1  1  0  0  0
 15 14  1  0  0  0  0
 16 13  1  0  0  0  0
 17 18  1  0  0  0  0
 19 18  1  6  0  0  0
 19 38  1  0  0  0  0
 21 20  1  1  0  0  0
 21 22  1  0  0  0  0
 21 19  1  0  0  0  0
 23 22  1  0  0  0  0
 24 25  2  0  0  0  0
 25 23  1  0  0  0  0
 25 26  1  0  0  0  0
 26 30  1  0  0  0  0
 27 29  2  6  0  0  0
 27 31  1  0  0  0  0
 30 28  2  0  0  0  0
 31 28  1  0  0  0  0
 31 36  1  6  0  0  0
 32 27  1  0  0  0  0
 32 30  1  0  0  0  0
 33 27  1  0  0  0  0
 34 36  2  0  0  0  0
 36 35  1  0  0  0  0
 38 39  1  0  0  0  0
 38 37  1  1  0  0  0
 40 39  1  0  0  0  0
 40 42  1  0  0  0  0
 42 41  1  0  0  0  0
 43  2  1  0  0  0  0
 43 44  1  0  0  0  0
 45 44  1  0  0  0  0
 46 45  1  0  0  0  0
 47 46  1  0  0  0  0
 48 47  1  1  0  0  0
 49 51  1  1  0  0  0
 49 52  1  0  0  0  0
 50 48  1  0  0  0  0
 51 50  1  0  0  0  0
 52 48  1  0  0  0  0
 53 50  2  0  0  0  0
 54 55  1  0  0  0  0
 55 56  1  0  0  0  0
 56 57  1  0  0  0  0
 58 54  1  0  0  0  0
 58 59  1  0  0  0  0
 59 49  1  0  0  0  0
 59 57  1  1  0  0  0
 60 61  1  0  0  0  0
 61 58  1  0  0  0  0
M  END
>  <MODEL>
1

>  <REMARK>
 VINA RESULT:      -5.9      0.000      0.000
  Name = 
  23 active torsions:
  status: ('A' for Active; 'I' for Inactive)
    1  A    between atoms: N_3  and  C_24
    2  A    between atoms: C_4  and  C_54
    3  A    between atoms: N_6  and  C_28
    4  A    between atoms: C_9  and  C_46
    5  A    between atoms: C_11  and  C_47
    6  A    between atoms: C_11  and  C_60
    7  A    between atoms: C_12  and  O_32
    8  A    between atoms: C_12  and  C_39
    9  A    between atoms: C_19  and  C_45
   10  A    between atoms: C_19  and  C_47
   11  A    between atoms: C_20  and  C_38
   12  A    between atoms: C_20  and  C_55
   13  A    between atoms: C_21  and  N_40
   14  A    between atoms: C_23  and  O_32
   15  A    between atoms: C_24  and  C_36
   16  A    between atoms: O_25  and  C_31
   17  A    between atoms: O_25  and  C_42
   18  A    between atoms: C_31  and  C_36
   19  A    between atoms: C_31  and  C_39
   20  A    between atoms: C_34  and  C_58
   21  A    between atoms: C_42  and  C_45
   22  A    between atoms: C_48  and  C_61
   23  A    between atoms: C_54  and  C_60
                            x       y       z     vdW  Elec       q    Type
                         _______ _______ _______ _____ _____    ______ ____

>  <TORSDO>
F 23

$$$$
=
 OpenBabel11042419403D

 61 65  0  0  1  0  0  0  0  0999 V2000
  192.7890  171.8090  142.3250 N   0  0  0  0  0  0  0  0  0  0  0  0
  192.2190  171.7310  143.4890 C   0  0  0  0  0  0  0  0  0  0  0  0
  191.0270  174.6130  136.7570 O   0  0  0  0  0  0  0  0  0  0  0  0
  190.5690  172.5480  138.8040 C   0  0  0  0  0  0  0  0  0  0  0  0
  189.6130  173.1370  137.9150 N   0  0  0  0  0  2  0  0  0  0  0  0
  192.6030  172.8470  140.1800 C   0  0  0  0  0  3  0  0  0  0  0  0
  192.1560  171.9250  141.0380 C   0  0  0  0  0  0  0  0  0  0  0  0
  189.8670  174.1470  136.9320 C   0  0  0  0  0  0  0  0  0  0  0  0
  191.0860  170.9720  140.5730 C   0  0  0  0  0  2  0  0  0  0  0  0
  190.1670  171.6410  139.6470 N   0  0  0  0  0  0  0  0  0  0  0  0
  192.0220  172.9570  138.7970 C   0  0  0  0  0  2  0  0  0  0  0  0
  187.6070  175.1260  137.0460 C   0  0  0  0  0  2  0  0  0  0  0  0
  188.0540  176.8030  135.4070 C   0  0  0  0  0  2  0  0  0  0  0  0
  189.1360  175.8230  135.3300 N   0  0  0  0  0  2  0  0  0  0  0  0
  188.7220  174.6780  136.1350 C   0  0  1  0  0  3  0  0  0  0  0  0
  186.9540  176.2430  136.2840 C   0  0  0  0  0  2  0  0  0  0  0  0
  193.0840  171.5880  144.6960 C   0  0  0  0  0  2  0  0  0  0  0  0
  194.3950  171.3220  144.3010 O   0  0  0  0  0  0  0  0  0  0  0  0
  195.1790  171.5790  145.4340 C   0  0  2  0  0  3  0  0  0  0  0  0
  196.8480  173.0810  146.3400 O   0  0  0  0  0  1  0  0  0  0  0  0
  196.0800  172.8010  145.2060 C   0  0  2  0  0  3  0  0  0  0  0  0
  195.2670  174.0200  144.7940 C   0  0  0  0  0  2  0  0  0  0  0  0
  196.1360  175.1680  144.5910 N   0  0  0  0  0  2  0  0  0  0  0  0
  196.7790  177.0600  143.4130 O   0  0  0  0  0  0  0  0  0  0  0  0
  196.0420  176.0410  143.4620 C   0  0  0  0  0  0  0  0  0  0  0  0
  195.0790  175.7690  142.3520 C   0  0  0  0  0  2  0  0  0  0  0  0
  196.5950  173.1870  139.7370 P   0  0  1  0  0  0  0  0  0  0  0  0
  196.3510  175.7100  140.2770 N   0  0  0  0  0  0  0  0  0  0  0  0
  195.6300  172.3200  138.6480 O   0  0  0  0  0  0  0  0  0  0  0  0
  195.7420  175.0560  141.2220 C   0  0  0  0  0  0  0  0  0  0  0  0
  196.9560  174.8850  139.2310 C   0  0  2  0  0  3  0  0  0  0  0  0
  195.7260  173.6710  141.1130 O   0  0  0  0  0  0  0  0  0  0  0  0
  197.8490  172.4260  140.1150 O   0  0  0  0  0  1  0  0  0  0  0  0
  197.1270  175.3750  136.7790 O   0  0  0  0  0  0  0  0  0  0  0  0
  195.0860  175.2970  137.8130 O   0  0  0  0  0  1  0  0  0  0  0  0
  196.3370  175.1930  137.9060 C   0  0  0  0  0  0  0  0  0  0  0  0
  195.0350  169.3510  146.3120 O   0  0  0  0  0  1  0  0  0  0  0  0
  195.9390  170.3250  145.8830 C   0  0  1  0  0  3  0  0  0  0  0  0
  196.8260  169.7570  144.7810 C   0  0  0  0  0  2  0  0  0  0  0  0
  196.2230  168.6260  144.2300 O   0  0  0  0  0  0  0  0  0  0  0  0
  197.4140  169.8880  142.5860 C   0  0  0  0  0  1  0  0  0  0  0  0
  196.5490  168.6710  142.8720 C   0  0  0  0  0  2  0  0  0  0  0  0
  190.7390  171.8770  143.6750 C   0  0  0  0  0  2  0  0  0  0  0  0
  190.4160  173.0580  144.5700 C   0  0  0  0  0  2  0  0  0  0  0  0
  190.8120  174.3450  143.8700 C   0  0  0  0  0  2  0  0  0  0  0  0
  189.5790  175.1550  143.5140 C   0  0  0  0  0  2  0  0  0  0  0  0
  189.9010  176.1060  142.3730 C   0  0  0  0  0  2  0  0  0  0  0  0
  188.8230  177.1720  142.2550 C   0  0  1  0  0  3  0  0  0  0  0  0
  187.2070  178.0440  143.5900 C   0  0  2  0  0  3  0  0  0  0  0  0
  187.5610  176.5520  141.7810 C   0  0  0  0  0  0  0  0  0  0  0  0
  186.2320  176.6530  142.9270 S   0  0  0  0  0  0  0  0  0  0  0  0
  188.5840  177.7460  143.5190 O   0  0  0  0  0  0  0  0  0  0  0  0
  187.4110  176.1530  140.6400 O   0  0  0  0  0  0  0  0  0  0  0  0
  185.9300  177.5340  147.0930 C   0  0  0  0  0  2  0  0  0  0  0  0
  184.4600  177.8030  146.7490 C   0  0  0  0  0  2  0  0  0  0  0  0
  184.3090  178.4870  145.3820 C   0  0  0  0  0  2  0  0  0  0  0  0
  185.5510  179.2960  145.0200 C   0  0  0  0  0  2  0  0  0  0  0  0
  186.6970  177.2140  145.8900 N   0  0  0  0  0  0  0  0  0  0  0  0
  186.8160  178.4110  145.0280 C   0  0  1  0  0  3  0  0  0  0  0  0
  188.0180  175.6160  146.9530 O   0  0  0  0  0  1  0  0  0  0  0  0
  188.0340  176.8750  146.3520 C   0  0  0  0  0  2  0  0  0  0  0  0
  1  2  2  0  0  0  0
  2 43  1  0  0  0  0
  2 17  1  0  0  0  0
  3  8  2  0  0  0  0
  4 10  2  0  0  0  0
  5  4  1  0  0  0  0
  6  7  2  0  0  0  0
  7  1  1  0  0  0  0
  8  5  1  0  0  0  0
  9  7  1  0  0  0  0
 10  9  1  0  0  0  0
 11  4  1  0  0  0  0
 11  6  1  0  0  0  0
 13 16  1  0  0  0  0
 14 13  1  0  0  0  0
 14 15  1  0  0  0  0
 15  8  1  1  0  0  0
 15 12  1  0  0  0  0
 16 12  1  0  0  0  0
 18 17  1  0  0  0  0
 19 18  1  6  0  0  0
 19 38  1  0  0  0  0
 21 19  1  0  0  0  0
 21 20  1  1  0  0  0
 22 21  1  0  0  0  0
 23 22  1  0  0  0  0
 24 25  2  0  0  0  0
 25 23  1  0  0  0  0
 26 25  1  0  0  0  0
 27 29  2  6  0  0  0
 27 33  1  0  0  0  0
 27 32  1  0  0  0  0
 28 30  2  0  0  0  0
 30 26  1  0  0  0  0
 31 36  1  6  0  0  0
 31 27  1  0  0  0  0
 31 28  1  0  0  0  0
 32 30  1  0  0  0  0
 34 36  2  0  0  0  0
 35 36  1  0  0  0  0
 38 37  1  6  0  0  0
 39 38  1  0  0  0  0
 40 39  1  0  0  0  0
 41 42  1  0  0  0  0
 42 40  1  0  0  0  0
 43 44  1  0  0  0  0
 45 44  1  0  0  0  0
 46 45  1  0  0  0  0
 47 46  1  0  0  0  0
 48 47  1  1  0  0  0
 48 52  1  0  0  0  0
 49 51  1  1  0  0  0
 49 59  1  0  0  0  0
 50 48  1  0  0  0  0
 50 51  1  0  0  0  0
 52 49  1  0  0  0  0
 53 50  2  0  0  0  0
 55 54  1  0  0  0  0
 56 55  1  0  0  0  0
 57 56  1  0  0  0  0
 58 61  1  0  0  0  0
 58 54  1  0  0  0  0
 59 57  1  6  0  0  0
 59 58  1  0  0  0  0
 61 60  1  0  0  0  0
M  END
>  <MODEL>
2

>  <REMARK>
 VINA RESULT:      -5.8      3.124      8.374
  Name = 
  23 active torsions:
  status: ('A' for Active; 'I' for Inactive)
    1  A    between atoms: N_3  and  C_24
    2  A    between atoms: C_4  and  C_54
    3  A    between atoms: N_6  and  C_28
    4  A    between atoms: C_9  and  C_46
    5  A    between atoms: C_11  and  C_47
    6  A    between atoms: C_11  and  C_60
    7  A    between atoms: C_12  and  O_32
    8  A    between atoms: C_12  and  C_39
    9  A    between atoms: C_19  and  C_45
   10  A    between atoms: C_19  and  C_47
   11  A    between atoms: C_20  and  C_38
   12  A    between atoms: C_20  and  C_55
   13  A    between atoms: C_21  and  N_40
   14  A    between atoms: C_23  and  O_32
   15  A    between atoms: C_24  and  C_36
   16  A    between atoms: O_25  and  C_31
   17  A    between atoms: O_25  and  C_42
   18  A    between atoms: C_31  and  C_36
   19  A    between atoms: C_31  and  C_39
   20  A    between atoms: C_34  and  C_58
   21  A    between atoms: C_42  and  C_45
   22  A    between atoms: C_48  and  C_61
   23  A    between atoms: C_54  and  C_60
                            x       y       z     vdW  Elec       q    Type
                         _______ _______ _______ _____ _____    ______ ____

>  <TORSDO>
F 23

$$$$
=
 OpenBabel11042419403D

 61 65  0  0  1  0  0  0  0  0999 V2000
  188.9820  177.7160  143.2140 N   0  0  0  0  0  0  0  0  0  0  0  0
  189.9510  176.9740  142.7660 C   0  0  0  0  0  0  0  0  0  0  0  0
  183.3330  177.9490  140.0530 O   0  0  0  0  0  0  0  0  0  0  0  0
  184.8010  177.8020  142.5990 C   0  0  0  0  0  0  0  0  0  0  0  0
  183.4850  178.3180  142.3680 N   0  0  0  0  0  2  0  0  0  0  0  0
  187.1040  177.4970  141.7510 C   0  0  0  0  0  3  0  0  0  0  0  0
  187.5700  177.5430  143.0040 C   0  0  0  0  0  0  0  0  0  0  0  0
  182.7990  178.3820  141.1120 C   0  0  0  0  0  0  0  0  0  0  0  0
  186.6070  177.2940  144.1350 C   0  0  0  0  0  2  0  0  0  0  0  0
  185.2800  177.8250  143.8100 N   0  0  0  0  0  0  0  0  0  0  0  0
  185.6470  177.2440  141.4820 C   0  0  0  0  0  2  0  0  0  0  0  0
  180.4890  178.1480  140.2830 C   0  0  0  0  0  2  0  0  0  0  0  0
  179.4890  178.8360  142.3380 C   0  0  0  0  0  2  0  0  0  0  0  0
  180.9060  179.1880  142.4070 N   0  0  0  0  0  2  0  0  0  0  0  0
  181.4470  179.0120  141.0630 C   0  0  1  0  0  3  0  0  0  0  0  0
  179.1580  178.4330  140.9160 C   0  0  0  0  0  2  0  0  0  0  0  0
  191.3530  177.3650  143.0920 C   0  0  0  0  0  2  0  0  0  0  0  0
  191.4020  177.8970  144.3800 O   0  0  0  0  0  0  0  0  0  0  0  0
  192.3270  177.1020  145.0720 C   0  0  2  0  0  3  0  0  0  0  0  0
  192.9380  174.9960  144.0480 O   0  0  0  0  0  1  0  0  0  0  0  0
  193.2440  176.3590  144.0910 C   0  0  2  0  0  3  0  0  0  0  0  0
  194.7120  176.5680  144.4370 C   0  0  0  0  0  2  0  0  0  0  0  0
  195.5520  176.3080  143.2780 N   0  0  0  0  0  2  0  0  0  0  0  0
  197.1490  175.0580  142.1540 O   0  0  0  0  0  0  0  0  0  0  0  0
  196.5290  175.2650  143.2290 C   0  0  0  0  0  0  0  0  0  0  0  0
  196.8140  174.4140  144.4240 C   0  0  0  0  0  2  0  0  0  0  0  0
  194.4040  171.3280  143.7380 P   0  0  1  0  0  0  0  0  0  0  0  0
  195.5270  172.7230  145.6110 N   0  0  0  0  0  0  0  0  0  0  0  0
  194.9690  169.8430  143.1500 O   0  0  0  0  0  0  0  0  0  0  0  0
  195.9040  173.2330  144.4760 C   0  0  0  0  0  0  0  0  0  0  0  0
  194.6350  171.5660  145.5150 C   0  0  2  0  0  3  0  0  0  0  0  0
  195.4350  172.6110  143.3250 O   0  0  0  0  0  0  0  0  0  0  0  0
  192.9790  171.6040  143.3070 O   0  0  0  0  0  1  0  0  0  0  0  0
  196.6290  170.3680  146.4490 O   0  0  0  0  0  1  0  0  0  0  0  0
  194.5820  169.3440  146.3750 O   0  0  0  0  0  0  0  0  0  0  0  0
  195.2760  170.3670  146.1390 C   0  0  0  0  0  0  0  0  0  0  0  0
  192.4930  175.9030  147.1430 O   0  0  0  0  0  1  0  0  0  0  0  0
  191.6280  176.1850  146.0820 C   0  0  1  0  0  3  0  0  0  0  0  0
  190.3340  176.7860  146.6160 C   0  0  0  0  0  2  0  0  0  0  0  0
  189.2480  176.0250  146.1780 O   0  0  0  0  0  0  0  0  0  0  0  0
  189.5000  173.6500  146.2790 C   0  0  0  0  0  1  0  0  0  0  0  0
  189.2040  174.9300  147.0450 C   0  0  0  0  0  2  0  0  0  0  0  0
  189.7120  175.6960  142.0200 C   0  0  0  0  0  2  0  0  0  0  0  0
  189.6750  174.5130  142.9680 C   0  0  0  0  0  2  0  0  0  0  0  0
  190.0930  173.2570  142.2250 C   0  0  0  0  0  2  0  0  0  0  0  0
  189.8280  173.4070  140.7380 C   0  0  0  0  0  2  0  0  0  0  0  0
  188.3900  173.0210  140.4320 C   0  0  0  0  0  2  0  0  0  0  0  0
  188.2500  172.6290  138.9690 C   0  0  1  0  0  3  0  0  0  0  0  0
  189.6220  171.8980  137.3150 C   0  0  2  0  0  3  0  0  0  0  0  0
  188.4800  173.8170  138.1110 C   0  0  0  0  0  0  0  0  0  0  0  0
  189.8770  173.6850  137.0530 S   0  0  0  0  0  0  0  0  0  0  0  0
  189.2180  171.6580  138.6450 O   0  0  0  0  0  0  0  0  0  0  0  0
  187.6830  174.7350  138.0300 O   0  0  0  0  0  0  0  0  0  0  0  0
  193.1940  171.2000  136.3570 C   0  0  0  0  0  2  0  0  0  0  0  0
  192.9410  171.2170  134.8450 C   0  0  0  0  0  2  0  0  0  0  0  0
  191.4460  171.1020  134.5130 C   0  0  0  0  0  2  0  0  0  0  0  0
  190.6830  170.3700  135.6140 C   0  0  0  0  0  2  0  0  0  0  0  0
  192.1080  171.8670  137.0750 N   0  0  0  0  0  0  0  0  0  0  0  0
  190.8670  171.0660  136.9790 C   0  0  1  0  0  3  0  0  0  0  0  0
  192.8500  173.1840  138.8480 O   0  0  0  0  0  1  0  0  0  0  0  0
  192.5100  171.8830  138.4730 C   0  0  0  0  0  2  0  0  0  0  0  0
  2 17  1  0  0  0  0
  2  1  2  0  0  0  0
  3  8  2  0  0  0  0
  4 10  2  0  0  0  0
  5  4  1  0  0  0  0
  6  7  2  0  0  0  0
  7  1  1  0  0  0  0
  7  9  1  0  0  0  0
  8  5  1  0  0  0  0
 10  9  1  0  0  0  0
 11  6  1  0  0  0  0
 11  4  1  0  0  0  0
 12 16  1  0  0  0  0
 12 15  1  0  0  0  0
 13 14  1  0  0  0  0
 15  8  1  1  0  0  0
 15 14  1  0  0  0  0
 16 13  1  0  0  0  0
 17 18  1  0  0  0  0
 19 18  1  6  0  0  0
 19 38  1  0  0  0  0
 21 20  1  1  0  0  0
 21 22  1  0  0  0  0
 21 19  1  0  0  0  0
 23 22  1  0  0  0  0
 24 25  2  0  0  0  0
 25 23  1  0  0  0  0
 25 26  1  0  0  0  0
 26 30  1  0  0  0  0
 27 29  2  6  0  0  0
 27 31  1  0  0  0  0
 30 28  2  0  0  0  0
 31 28  1  0  0  0  0
 31 36  1  6  0  0  0
 32 27  1  0  0  0  0
 32 30  1  0  0  0  0
 33 27  1  0  0  0  0
 36 35  2  0  0  0  0
 36 34  1  0  0  0  0
 38 39  1  0  0  0  0
 38 37  1  1  0  0  0
 40 39  1  0  0  0  0
 40 42  1  0  0  0  0
 41 42  1  0  0  0  0
 43  2  1  0  0  0  0
 43 44  1  0  0  0  0
 45 44  1  0  0  0  0
 46 45  1  0  0  0  0
 47 46  1  0  0  0  0
 48 47  1  1  0  0  0
 49 51  1  1  0  0  0
 49 52  1  0  0  0  0
 50 48  1  0  0  0  0
 51 50  1  0  0  0  0
 52 48  1  0  0  0  0
 53 50  2  0  0  0  0
 54 58  1  0  0  0  0
 55 54  1  0  0  0  0
 56 55  1  0  0  0  0
 56 57  1  0  0  0  0
 58 61  1  0  0  0  0
 59 57  1  6  0  0  0
 59 58  1  0  0  0  0
 59 49  1  0  0  0  0
 61 60  1  0  0  0  0
M  END
>  <MODEL>
3

>  <REMARK>
 VINA RESULT:      -5.8      1.447      2.146
  Name = 
  23 active torsions:
  status: ('A' for Active; 'I' for Inactive)
    1  A    between atoms: N_3  and  C_24
    2  A    between atoms: C_4  and  C_54
    3  A    between atoms: N_6  and  C_28
    4  A    between atoms: C_9  and  C_46
    5  A    between atoms: C_11  and  C_47
    6  A    between atoms: C_11  and  C_60
    7  A    between atoms: C_12  and  O_32
    8  A    between atoms: C_12  and  C_39
    9  A    between atoms: C_19  and  C_45
   10  A    between atoms: C_19  and  C_47
   11  A    between atoms: C_20  and  C_38
   12  A    between atoms: C_20  and  C_55
   13  A    between atoms: C_21  and  N_40
   14  A    between atoms: C_23  and  O_32
   15  A    between atoms: C_24  and  C_36
   16  A    between atoms: O_25  and  C_31
   17  A    between atoms: O_25  and  C_42
   18  A    between atoms: C_31  and  C_36
   19  A    between atoms: C_31  and  C_39
   20  A    between atoms: C_34  and  C_58
   21  A    between atoms: C_42  and  C_45
   22  A    between atoms: C_48  and  C_61
   23  A    between atoms: C_54  and  C_60
                            x       y       z     vdW  Elec       q    Type
                         _______ _______ _______ _____ _____    ______ ____

>  <TORSDO>
F 23

$$$$
=
 OpenBabel11042419403D

 61 65  0  0  1  0  0  0  0  0999 V2000
  191.8070  174.4170  143.5050 N   0  0  0  0  0  0  0  0  0  0  0  0
  191.5850  174.4560  144.7850 C   0  0  0  0  0  0  0  0  0  0  0  0
  190.2430  170.1620  138.8780 O   0  0  0  0  0  0  0  0  0  0  0  0
  189.8420  172.7940  140.1320 C   0  0  0  0  0  0  0  0  0  0  0  0
  189.5910  172.4160  138.7740 N   0  0  0  0  0  2  0  0  0  0  0  0
  191.2520  172.5300  142.1470 C   0  0  0  0  0  3  0  0  0  0  0  0
  190.9990  173.7970  142.4890 C   0  0  0  0  0  0  0  0  0  0  0  0
  189.8020  171.1260  138.1910 C   0  0  0  0  0  0  0  0  0  0  0  0
  189.8050  174.4800  141.8750 C   0  0  0  0  0  2  0  0  0  0  0  0
  189.5980  174.0200  140.4990 N   0  0  0  0  0  0  0  0  0  0  0  0
  190.3880  171.8170  141.1440 C   0  0  0  0  0  2  0  0  0  0  0  0
  189.6790  172.2510  136.0000 C   0  0  0  0  0  2  0  0  0  0  0  0
  190.8570  170.5260  134.8450 C   0  0  0  0  0  2  0  0  0  0  0  0
  190.4720  169.9890  136.1490 N   0  0  0  0  0  2  0  0  0  0  0  0
  189.5340  170.9420  136.7340 C   0  0  1  0  0  3  0  0  0  0  0  0
  190.1360  171.8410  134.6310 C   0  0  0  0  0  2  0  0  0  0  0  0
  192.5830  175.1390  145.6580 C   0  0  0  0  0  2  0  0  0  0  0  0
  193.4760  174.1970  146.1710 O   0  0  0  0  0  0  0  0  0  0  0  0
  194.4520  174.0390  145.1770 C   0  0  2  0  0  3  0  0  0  0  0  0
  194.4620  171.7430  145.9440 O   0  0  0  0  0  1  0  0  0  0  0  0
  194.6280  172.5560  144.8200 C   0  0  2  0  0  3  0  0  0  0  0  0
  195.9790  172.3000  144.1670 C   0  0  0  0  0  2  0  0  0  0  0  0
  195.9850  171.0080  143.4980 N   0  0  0  0  0  2  0  0  0  0  0  0
  196.5990  169.6200  141.7440 O   0  0  0  0  0  0  0  0  0  0  0  0
  196.5620  170.7900  142.2080 C   0  0  0  0  0  0  0  0  0  0  0  0
  197.1310  171.9200  141.4120 C   0  0  0  0  0  2  0  0  0  0  0  0
  193.9700  173.0790  139.2980 P   0  0  1  0  0  0  0  0  0  0  0  0
  196.5430  172.7780  139.2120 N   0  0  0  0  0  0  0  0  0  0  0  0
  193.1640  174.5400  139.5890 O   0  0  0  0  0  1  0  0  0  0  0  0
  196.1540  172.4120  140.3970 C   0  0  0  0  0  0  0  0  0  0  0  0
  195.4810  173.2410  138.3170 C   0  0  2  0  0  3  0  0  0  0  0  0
  194.7970  172.5210  140.6710 O   0  0  0  0  0  0  0  0  0  0  0  0
  193.0420  172.0190  138.7430 O   0  0  0  0  0  0  0  0  0  0  0  0
  194.9560  175.2620  136.9300 O   0  0  0  0  0  0  0  0  0  0  0  0
  196.6210  175.3260  138.5010 O   0  0  0  0  0  1  0  0  0  0  0  0
  195.7170  174.6640  137.9270 C   0  0  0  0  0  0  0  0  0  0  0  0
  196.5420  173.8900  146.3470 O   0  0  0  0  0  1  0  0  0  0  0  0
  195.7600  174.7420  145.5630 C   0  0  1  0  0  3  0  0  0  0  0  0
  196.5540  175.2000  144.3460 C   0  0  0  0  0  2  0  0  0  0  0  0
  196.2970  176.5500  144.1000 O   0  0  0  0  0  0  0  0  0  0  0  0
  196.1940  175.6500  141.8870 C   0  0  0  0  0  1  0  0  0  0  0  0
  196.7170  176.7610  142.7840 C   0  0  0  0  0  2  0  0  0  0  0  0
  190.3250  173.9280  145.4030 C   0  0  0  0  0  2  0  0  0  0  0  0
  189.7190  174.9430  146.3520 C   0  0  0  0  0  2  0  0  0  0  0  0
  189.5280  176.2630  145.6280 C   0  0  0  0  0  2  0  0  0  0  0  0
  188.1060  176.3820  145.1100 C   0  0  0  0  0  2  0  0  0  0  0  0
  187.1350  176.4100  146.2790 C   0  0  0  0  0  2  0  0  0  0  0  0
  185.7540  176.8350  145.8050 C   0  0  1  0  0  3  0  0  0  0  0  0
  184.9010  178.1560  144.1680 C   0  0  2  0  0  3  0  0  0  0  0  0
  185.3540  178.0860  146.4940 C   0  0  0  0  0  0  0  0  0  0  0  0
  185.1270  179.4600  145.4230 S   0  0  0  0  0  0  0  0  0  0  0  0
  185.7850  177.0860  144.4190 O   0  0  0  0  0  0  0  0  0  0  0  0
  185.0540  178.1210  147.6750 O   0  0  0  0  0  0  0  0  0  0  0  0
  184.9300  178.0630  140.4060 C   0  0  0  0  0  2  0  0  0  0  0  0
  186.3750  177.5660  140.2880 C   0  0  0  0  0  2  0  0  0  0  0  0
  187.1490  177.7370  141.6030 C   0  0  0  0  0  2  0  0  0  0  0  0
  186.5850  178.8830  142.4400 C   0  0  0  0  0  2  0  0  0  0  0  0
  184.4000  177.8110  141.7460 N   0  0  0  0  0  0  0  0  0  0  0  0
  185.0850  178.6730  142.7350 C   0  0  1  0  0  3  0  0  0  0  0  0
  182.4460  177.8580  140.4760 O   0  0  0  0  0  1  0  0  0  0  0  0
  183.0040  178.2220  141.7020 C   0  0  0  0  0  2  0  0  0  0  0  0
  1  2  2  0  0  0  0
  2 43  1  0  0  0  0
  2 17  1  0  0  0  0
  4 10  2  0  0  0  0
  4 11  1  0  0  0  0
  5  4  1  0  0  0  0
  6  7  2  0  0  0  0
  7  1  1  0  0  0  0
  8  5  1  0  0  0  0
  8  3  2  0  0  0  0
  9  7  1  0  0  0  0
 10  9  1  0  0  0  0
 11  6  1  0  0  0  0
 12 15  1  0  0  0  0
 13 14  1  0  0  0  0
 14 15  1  0  0  0  0
 15  8  1  1  0  0  0
 16 13  1  0  0  0  0
 16 12  1  0  0  0  0
 17 18  1  0  0  0  0
 19 38  1  0  0  0  0
 19 18  1  1  0  0  0
 21 19  1  0  0  0  0
 21 20  1  1  0  0  0
 22 21  1  0  0  0  0
 23 22  1  0  0  0  0
 24 25  2  0  0  0  0
 25 23  1  0  0  0  0
 26 25  1  0  0  0  0
 27 33  2  6  0  0  0
 27 29  1  0  0  0  0
 27 32  1  0  0  0  0
 28 30  2  0  0  0  0
 30 32  1  0  0  0  0
 30 26  1  0  0  0  0
 31 36  1  1  0  0  0
 31 28  1  0  0  0  0
 31 27  1  0  0  0  0
 34 36  2  0  0  0  0
 36 35  1  0  0  0  0
 38 37  1  6  0  0  0
 39 38  1  0  0  0  0
 40 39  1  0  0  0  0
 41 42  1  0  0  0  0
 42 40  1  0  0  0  0
 43 44  1  0  0  0  0
 45 44  1  0  0  0  0
 46 45  1  0  0  0  0
 46 47  1  0  0  0  0
 48 47  1  1  0  0  0
 48 50  1  0  0  0  0
 49 52  1  1  0  0  0
 49 51  1  0  0  0  0
 50 53  2  0  0  0  0
 51 50  1  0  0  0  0
 52 48  1  0  0  0  0
 54 58  1  0  0  0  0
 55 54  1  0  0  0  0
 55 56  1  0  0  0  0
 56 57  1  0  0  0  0
 58 59  1  0  0  0  0
 59 57  1  6  0  0  0
 59 49  1  0  0  0  0
 60 61  1  0  0  0  0
 61 58  1  0  0  0  0
M  END
>  <MODEL>
4

>  <REMARK>
 VINA RESULT:      -5.7      2.816      8.567
  Name = 
  23 active torsions:
  status: ('A' for Active; 'I' for Inactive)
    1  A    between atoms: N_3  and  C_24
    2  A    between atoms: C_4  and  C_54
    3  A    between atoms: N_6  and  C_28
    4  A    between atoms: C_9  and  C_46
    5  A    between atoms: C_11  and  C_47
    6  A    between atoms: C_11  and  C_60
    7  A    between atoms: C_12  and  O_32
    8  A    between atoms: C_12  and  C_39
    9  A    between atoms: C_19  and  C_45
   10  A    between atoms: C_19  and  C_47
   11  A    between atoms: C_20  and  C_38
   12  A    between atoms: C_20  and  C_55
   13  A    between atoms: C_21  and  N_40
   14  A    between atoms: C_23  and  O_32
   15  A    between atoms: C_24  and  C_36
   16  A    between atoms: O_25  and  C_31
   17  A    between atoms: O_25  and  C_42
   18  A    between atoms: C_31  and  C_36
   19  A    between atoms: C_31  and  C_39
   20  A    between atoms: C_34  and  C_58
   21  A    between atoms: C_42  and  C_45
   22  A    between atoms: C_48  and  C_61
   23  A    between atoms: C_54  and  C_60
                            x       y       z     vdW  Elec       q    Type
                         _______ _______ _______ _____ _____    ______ ____

>  <TORSDO>
F 23

$$$$
=
 OpenBabel11042419403D

 61 65  0  0  1  0  0  0  0  0999 V2000
  190.5540  171.1350  142.9050 N   0  0  0  0  0  0  0  0  0  0  0  0
  191.6170  170.4230  142.6770 C   0  0  0  0  0  0  0  0  0  0  0  0
  188.1190  174.9040  147.5780 O   0  0  0  0  0  0  0  0  0  0  0  0
  189.6850  174.6420  145.0990 C   0  0  0  0  0  0  0  0  0  0  0  0
  188.9720  175.7890  145.5760 N   0  0  0  0  0  2  0  0  0  0  0  0
  189.7950  172.1780  144.9170 C   0  0  0  0  0  3  0  0  0  0  0  0
  190.4330  172.2940  143.7480 C   0  0  0  0  0  0  0  0  0  0  0  0
  188.2120  175.8830  146.7860 C   0  0  0  0  0  0  0  0  0  0  0  0
  191.0970  173.6060  143.4220 C   0  0  0  0  0  2  0  0  0  0  0  0
  190.3240  174.7250  143.9670 N   0  0  0  0  0  0  0  0  0  0  0  0
  189.7070  173.3420  145.8650 C   0  0  0  0  0  2  0  0  0  0  0  0
  187.2490  177.9360  145.8170 C   0  0  0  0  0  2  0  0  0  0  0  0
  185.2400  177.8150  147.1000 C   0  0  0  0  0  2  0  0  0  0  0  0
  186.1930  176.8820  147.6990 N   0  0  0  0  0  2  0  0  0  0  0  0
  187.4880  177.1540  147.0830 C   0  0  1  0  0  3  0  0  0  0  0  0
  185.9730  178.6760  146.0920 C   0  0  0  0  0  2  0  0  0  0  0  0
  191.4990  169.2380  141.7790 C   0  0  0  0  0  2  0  0  0  0  0  0
  190.7570  169.5810  140.6490 O   0  0  0  0  0  0  0  0  0  0  0  0
  191.6700  170.1970  139.7820 C   0  0  2  0  0  3  0  0  0  0  0  0
  191.7600  172.6130  139.6680 O   0  0  0  0  0  1  0  0  0  0  0  0
  191.0790  171.4870  139.1970 C   0  0  2  0  0  3  0  0  0  0  0  0
  189.5890  171.5980  139.4920 C   0  0  0  0  0  2  0  0  0  0  0  0
  189.0200  172.7530  138.8150 N   0  0  0  0  0  2  0  0  0  0  0  0
  188.0190  174.8450  138.8400 O   0  0  0  0  0  0  0  0  0  0  0  0
  188.4070  173.8470  139.5020 C   0  0  0  0  0  0  0  0  0  0  0  0
  188.2320  173.8290  140.9860 C   0  0  0  0  0  2  0  0  0  0  0  0
  188.6140  177.6070  142.1660 P   0  0  1  0  0  0  0  0  0  0  0  0
  186.9890  175.5880  142.1220 N   0  0  0  0  0  0  0  0  0  0  0  0
  188.5910  178.9070  141.0810 O   0  0  0  0  0  0  0  0  0  0  0  0
  188.0840  175.2110  141.5300 C   0  0  0  0  0  0  0  0  0  0  0  0
  186.9810  176.9690  142.6060 C   0  0  2  0  0  3  0  0  0  0  0  0
  189.0920  176.1600  141.4170 O   0  0  0  0  0  0  0  0  0  0  0  0
  189.4590  177.9010  143.3880 O   0  0  0  0  0  1  0  0  0  0  0  0
  185.6120  177.5400  140.5850 O   0  0  0  0  0  0  0  0  0  0  0  0
  185.2510  178.6090  142.5780 O   0  0  0  0  0  1  0  0  0  0  0  0
  185.9000  177.7490  141.9280 C   0  0  0  0  0  0  0  0  0  0  0  0
  191.6110  169.5130  137.4830 O   0  0  0  0  0  1  0  0  0  0  0  0
  192.1830  169.2150  138.7220 C   0  0  1  0  0  3  0  0  0  0  0  0
  193.7020  169.2260  138.6060 C   0  0  0  0  0  2  0  0  0  0  0  0
  194.0850  170.0470  137.5440 O   0  0  0  0  0  0  0  0  0  0  0  0
  195.9980  168.8030  138.2610 C   0  0  0  0  0  1  0  0  0  0  0  0
  195.4810  170.0680  137.5910 C   0  0  0  0  0  2  0  0  0  0  0  0
  192.9700  170.8010  143.2000 C   0  0  0  0  0  2  0  0  0  0  0  0
  193.9210  169.6220  143.1500 C   0  0  0  0  0  2  0  0  0  0  0  0
  194.8590  169.6760  144.3420 C   0  0  0  0  0  2  0  0  0  0  0  0
  195.5940  171.0030  144.3780 C   0  0  0  0  0  2  0  0  0  0  0  0
  195.0710  171.8490  145.5280 C   0  0  0  0  0  2  0  0  0  0  0  0
  195.3760  173.3180  145.2820 C   0  0  1  0  0  3  0  0  0  0  0  0
  196.1500  174.5810  143.5620 C   0  0  2  0  0  3  0  0  0  0  0  0
  196.7930  173.5960  145.6210 C   0  0  0  0  0  0  0  0  0  0  0  0
  197.7710  174.1210  144.2590 S   0  0  0  0  0  0  0  0  0  0  0  0
  195.1810  173.6200  143.9200 O   0  0  0  0  0  0  0  0  0  0  0  0
  197.2050  173.6140  146.7670 O   0  0  0  0  0  0  0  0  0  0  0  0
  194.8930  174.5250  140.0150 C   0  0  0  0  0  2  0  0  0  0  0  0
  195.3060  173.0750  139.7410 C   0  0  0  0  0  2  0  0  0  0  0  0
  196.2990  172.5540  140.7910 C   0  0  0  0  0  2  0  0  0  0  0  0
  197.1090  173.6910  141.4080 C   0  0  0  0  0  2  0  0  0  0  0  0
  194.8280  174.7860  141.4530 N   0  0  0  0  0  0  0  0  0  0  0  0
  196.1870  174.7560  142.0380 C   0  0  1  0  0  3  0  0  0  0  0  0
  193.1820  176.1470  142.3860 O   0  0  0  0  0  1  0  0  0  0  0  0
  194.3250  176.1450  141.5860 C   0  0  0  0  0  2  0  0  0  0  0  0
  1  7  1  0  0  0  0
  2  1  2  0  0  0  0
  2 43  1  0  0  0  0
  4  5  1  0  0  0  0
  4 11  1  0  0  0  0
  5  8  1  0  0  0  0
  6 11  1  0  0  0  0
  7  6  2  0  0  0  0
  8  3  2  0  0  0  0
  9  7  1  0  0  0  0
  9 10  1  0  0  0  0
 10  4  2  0  0  0  0
 12 16  1  0  0  0  0
 12 15  1  0  0  0  0
 13 14  1  0  0  0  0
 15  8  1  6  0  0  0
 15 14  1  0  0  0  0
 16 13  1  0  0  0  0
 17  2  1  0  0  0  0
 18 17  1  0  0  0  0
 19 18  1  6  0  0  0
 21 22  1  0  0  0  0
 21 20  1  1  0  0  0
 21 19  1  0  0  0  0
 23 22  1  0  0  0  0
 23 25  1  0  0  0  0
 24 25  2  0  0  0  0
 25 26  1  0  0  0  0
 26 30  1  0  0  0  0
 27 29  2  6  0  0  0
 27 31  1  0  0  0  0
 27 33  1  0  0  0  0
 28 31  1  0  0  0  0
 30 28  2  0  0  0  0
 31 36  1  6  0  0  0
 32 30  1  0  0  0  0
 32 27  1  0  0  0  0
 34 36  2  0  0  0  0
 36 35  1  0  0  0  0
 38 37  1  6  0  0  0
 38 19  1  0  0  0  0
 39 38  1  0  0  0  0
 40 42  1  0  0  0  0
 40 39  1  0  0  0  0
 42 41  1  0  0  0  0
 44 43  1  0  0  0  0
 44 45  1  0  0  0  0
 45 46  1  0  0  0  0
 46 47  1  0  0  0  0
 48 47  1  6  0  0  0
 48 50  1  0  0  0  0
 49 52  1  6  0  0  0
 49 51  1  0  0  0  0
 50 53  2  0  0  0  0
 51 50  1  0  0  0  0
 52 48  1  0  0  0  0
 54 58  1  0  0  0  0
 55 54  1  0  0  0  0
 55 56  1  0  0  0  0
 56 57  1  0  0  0  0
 58 61  1  0  0  0  0
 58 59  1  0  0  0  0
 59 57  1  6  0  0  0
 59 49  1  0  0  0  0
 61 60  1  0  0  0  0
M  END
>  <MODEL>
5

>  <REMARK>
 VINA RESULT:      -5.7      3.450      8.570
  Name = 
  23 active torsions:
  status: ('A' for Active; 'I' for Inactive)
    1  A    between atoms: N_3  and  C_24
    2  A    between atoms: C_4  and  C_54
    3  A    between atoms: N_6  and  C_28
    4  A    between atoms: C_9  and  C_46
    5  A    between atoms: C_11  and  C_47
    6  A    between atoms: C_11  and  C_60
    7  A    between atoms: C_12  and  O_32
    8  A    between atoms: C_12  and  C_39
    9  A    between atoms: C_19  and  C_45
   10  A    between atoms: C_19  and  C_47
   11  A    between atoms: C_20  and  C_38
   12  A    between atoms: C_20  and  C_55
   13  A    between atoms: C_21  and  N_40
   14  A    between atoms: C_23  and  O_32
   15  A    between atoms: C_24  and  C_36
   16  A    between atoms: O_25  and  C_31
   17  A    between atoms: O_25  and  C_42
   18  A    between atoms: C_31  and  C_36
   19  A    between atoms: C_31  and  C_39
   20  A    between atoms: C_34  and  C_58
   21  A    between atoms: C_42  and  C_45
   22  A    between atoms: C_48  and  C_61
   23  A    between atoms: C_54  and  C_60
                            x       y       z     vdW  Elec       q    Type
                         _______ _______ _______ _____ _____    ______ ____

>  <TORSDO>
F 23

$$$$
=
 OpenBabel11042419403D

 61 65  0  0  1  0  0  0  0  0999 V2000
  188.5520  177.9930  143.4780 N   0  0  0  0  0  0  0  0  0  0  0  0
  189.5710  177.3540  142.9880 C   0  0  0  0  0  0  0  0  0  0  0  0
  182.8350  178.5800  140.4880 O   0  0  0  0  0  0  0  0  0  0  0  0
  184.3670  177.8620  142.8970 C   0  0  0  0  0  0  0  0  0  0  0  0
  183.0050  178.2990  142.8140 N   0  0  0  0  0  2  0  0  0  0  0  0
  186.6690  178.0200  142.0060 C   0  0  0  0  0  3  0  0  0  0  0  0
  187.1560  177.7560  143.2230 C   0  0  0  0  0  0  0  0  0  0  0  0
  182.2880  178.6470  141.6250 C   0  0  0  0  0  0  0  0  0  0  0  0
  186.2450  177.1130  144.2350 C   0  0  0  0  0  2  0  0  0  0  0  0
  184.8690  177.5890  144.0670 N   0  0  0  0  0  0  0  0  0  0  0  0
  185.2340  177.7190  141.6710 C   0  0  0  0  0  2  0  0  0  0  0  0
  180.4830  179.9110  140.5180 C   0  0  0  0  0  2  0  0  0  0  0  0
  178.7830  178.3360  141.0920 C   0  0  0  0  0  2  0  0  0  0  0  0
  179.9560  178.0240  141.9070 N   0  0  0  0  0  2  0  0  0  0  0  0
  180.8850  179.1390  141.7490 C   0  0  1  0  0  3  0  0  0  0  0  0
  179.0040  179.6750  140.4180 C   0  0  0  0  0  2  0  0  0  0  0  0
  190.9410  177.7950  143.3780 C   0  0  0  0  0  2  0  0  0  0  0  0
  191.7280  176.6790  143.6620 O   0  0  0  0  0  0  0  0  0  0  0  0
  192.2520  176.9150  144.9400 C   0  0  2  0  0  3  0  0  0  0  0  0
  194.5810  177.5560  145.1000 O   0  0  0  0  0  1  0  0  0  0  0  0
  193.7170  176.4610  145.0190 C   0  0  2  0  0  3  0  0  0  0  0  0
  194.0860  175.5720  143.8390 C   0  0  0  0  0  2  0  0  0  0  0  0
  195.5300  175.4160  143.7510 N   0  0  0  0  0  2  0  0  0  0  0  0
  197.5130  174.3850  144.3700 O   0  0  0  0  0  0  0  0  0  0  0  0
  196.2780  174.5190  144.5760 C   0  0  0  0  0  0  0  0  0  0  0  0
  195.6200  173.7340  145.6630 C   0  0  0  0  0  2  0  0  0  0  0  0
  195.6000  169.7920  145.1490 P   0  0  1  0  0  0  0  0  0  0  0  0
  194.5790  172.0140  144.2910 N   0  0  0  0  0  0  0  0  0  0  0  0
  194.8610  168.7330  146.2450 O   0  0  0  0  0  1  0  0  0  0  0  0
  195.4010  172.3170  145.2510 C   0  0  0  0  0  0  0  0  0  0  0  0
  194.4600  170.5860  143.9910 C   0  0  2  0  0  3  0  0  0  0  0  0
  196.0450  171.2580  145.8790 O   0  0  0  0  0  0  0  0  0  0  0  0
  196.7740  169.1480  144.4410 O   0  0  0  0  0  0  0  0  0  0  0  0
  192.0140  171.0390  144.3000 O   0  0  0  0  0  0  0  0  0  0  0  0
  192.8180  168.8950  144.3460 O   0  0  0  0  0  1  0  0  0  0  0  0
  193.0560  170.1250  144.2190 C   0  0  0  0  0  0  0  0  0  0  0  0
  190.6420  175.2310  145.5100 O   0  0  0  0  0  1  0  0  0  0  0  0
  191.3580  176.3120  146.0300 C   0  0  1  0  0  3  0  0  0  0  0  0
  192.1500  175.8680  147.2530 C   0  0  0  0  0  2  0  0  0  0  0  0
  192.4330  176.9750  148.0550 O   0  0  0  0  0  0  0  0  0  0  0  0
  191.3670  178.2810  149.7510 C   0  0  0  0  0  1  0  0  0  0  0  0
  191.1890  177.4140  148.5140 C   0  0  0  0  0  2  0  0  0  0  0  0
  189.4230  176.1360  142.1260 C   0  0  0  0  0  2  0  0  0  0  0  0
  188.9480  174.9480  142.9410 C   0  0  0  0  0  2  0  0  0  0  0  0
  188.2050  173.9800  142.0380 C   0  0  0  0  0  2  0  0  0  0  0  0
  188.2150  174.4780  140.6050 C   0  0  0  0  0  2  0  0  0  0  0  0
  188.6800  173.3650  139.6780 C   0  0  0  0  0  2  0  0  0  0  0  0
  190.1930  173.2330  139.7330 C   0  0  1  0  0  3  0  0  0  0  0  0
  191.8870  172.9860  138.2420 C   0  0  2  0  0  3  0  0  0  0  0  0
  190.5650  171.7990  139.8120 C   0  0  0  0  0  0  0  0  0  0  0  0
  191.4920  171.2160  138.4380 S   0  0  0  0  0  0  0  0  0  0  0  0
  190.7590  173.7700  138.5600 O   0  0  0  0  0  0  0  0  0  0  0  0
  190.3840  171.1260  140.8120 O   0  0  0  0  0  0  0  0  0  0  0  0
  192.6060  175.1050  135.2160 C   0  0  0  0  0  2  0  0  0  0  0  0
  191.2540  174.8510  134.5410 C   0  0  0  0  0  2  0  0  0  0  0  0
  190.5200  173.6530  135.1610 C   0  0  0  0  0  2  0  0  0  0  0  0
  191.4980  172.6540  135.7740 C   0  0  0  0  0  2  0  0  0  0  0  0
  192.5450  174.7880  136.6430 N   0  0  0  0  0  0  0  0  0  0  0  0
  192.3940  173.3280  136.8340 C   0  0  1  0  0  3  0  0  0  0  0  0
  194.6460  175.6770  136.1710 O   0  0  0  0  0  1  0  0  0  0  0  0
  193.8380  175.1680  137.1890 C   0  0  0  0  0  2  0  0  0  0  0  0
  2 17  1  0  0  0  0
  2  1  2  0  0  0  0
  3  8  2  0  0  0  0
  4 10  2  0  0  0  0
  5  4  1  0  0  0  0
  6  7  2  0  0  0  0
  7  1  1  0  0  0  0
  7  9  1  0  0  0  0
  8  5  1  0  0  0  0
 10  9  1  0  0  0  0
 11  6  1  0  0  0  0
 11  4  1  0  0  0  0
 12 15  1  0  0  0  0
 13 14  1  0  0  0  0
 15  8  1  6  0  0  0
 15 14  1  0  0  0  0
 16 12  1  0  0  0  0
 16 13  1  0  0  0  0
 17 18  1  0  0  0  0
 19 18  1  6  0  0  0
 19 21  1  0  0  0  0
 19 38  1  0  0  0  0
 21 20  1  6  0  0  0
 22 21  1  0  0  0  0
 23 22  1  0  0  0  0
 23 25  1  0  0  0  0
 24 25  2  0  0  0  0
 25 26  1  0  0  0  0
 27 33  2  6  0  0  0
 27 32  1  0  0  0  0
 27 29  1  0  0  0  0
 28 30  2  0  0  0  0
 30 26  1  0  0  0  0
 30 32  1  0  0  0  0
 31 36  1  1  0  0  0
 31 28  1  0  0  0  0
 31 27  1  0  0  0  0
 36 34  2  0  0  0  0
 36 35  1  0  0  0  0
 38 37  1  6  0  0  0
 38 39  1  0  0  0  0
 39 40  1  0  0  0  0
 40 42  1  0  0  0  0
 42 41  1  0  0  0  0
 43 44  1  0  0  0  0
 43  2  1  0  0  0  0
 45 44  1  0  0  0  0
 46 45  1  0  0  0  0
 47 46  1  0  0  0  0
 48 47  1  6  0  0  0
 48 50  1  0  0  0  0
 49 51  1  6  0  0  0
 49 52  1  0  0  0  0
 50 53  2  0  0  0  0
 51 50  1  0  0  0  0
 52 48  1  0  0  0  0
 54 58  1  0  0  0  0
 55 56  1  0  0  0  0
 55 54  1  0  0  0  0
 56 57  1  0  0  0  0
 58 59  1  0  0  0  0
 58 61  1  0  0  0  0
 59 57  1  6  0  0  0
 59 49  1  0  0  0  0
 60 61  1  0  0  0  0
M  END
>  <MODEL>
6

>  <REMARK>
 VINA RESULT:      -5.4      1.763      2.643
  Name = 
  23 active torsions:
  status: ('A' for Active; 'I' for Inactive)
    1  A    between atoms: N_3  and  C_24
    2  A    between atoms: C_4  and  C_54
    3  A    between atoms: N_6  and  C_28
    4  A    between atoms: C_9  and  C_46
    5  A    between atoms: C_11  and  C_47
    6  A    between atoms: C_11  and  C_60
    7  A    between atoms: C_12  and  O_32
    8  A    between atoms: C_12  and  C_39
    9  A    between atoms: C_19  and  C_45
   10  A    between atoms: C_19  and  C_47
   11  A    between atoms: C_20  and  C_38
   12  A    between atoms: C_20  and  C_55
   13  A    between atoms: C_21  and  N_40
   14  A    between atoms: C_23  and  O_32
   15  A    between atoms: C_24  and  C_36
   16  A    between atoms: O_25  and  C_31
   17  A    between atoms: O_25  and  C_42
   18  A    between atoms: C_31  and  C_36
   19  A    between atoms: C_31  and  C_39
   20  A    between atoms: C_34  and  C_58
   21  A    between atoms: C_42  and  C_45
   22  A    between atoms: C_48  and  C_61
   23  A    between atoms: C_54  and  C_60
                            x       y       z     vdW  Elec       q    Type
                         _______ _______ _______ _____ _____    ______ ____

>  <TORSDO>
F 23

$$$$
=
 OpenBabel11042419403D

 61 65  0  0  1  0  0  0  0  0999 V2000
  191.2410  174.5020  144.1820 N   0  0  0  0  0  0  0  0  0  0  0  0
  190.8690  174.5780  145.4250 C   0  0  0  0  0  0  0  0  0  0  0  0
  190.0930  170.0820  139.5870 O   0  0  0  0  0  0  0  0  0  0  0  0
  189.6760  172.7970  140.6450 C   0  0  0  0  0  0  0  0  0  0  0  0
  189.5960  172.3580  139.2840 N   0  0  0  0  0  2  0  0  0  0  0  0
  190.7720  172.5730  142.8510 C   0  0  0  0  0  3  0  0  0  0  0  0
  190.5490  173.8690  143.0910 C   0  0  0  0  0  0  0  0  0  0  0  0
  189.8110  171.0280  138.7990 C   0  0  0  0  0  0  0  0  0  0  0  0
  189.4950  174.5760  142.2820 C   0  0  0  0  0  2  0  0  0  0  0  0
  189.4560  174.0520  140.9140 N   0  0  0  0  0  0  0  0  0  0  0  0
  190.0170  171.8510  141.7690 C   0  0  0  0  0  2  0  0  0  0  0  0
  189.4660  172.0610  136.5870 C   0  0  0  0  0  2  0  0  0  0  0  0
  191.2640  170.8790  135.5540 C   0  0  0  0  0  2  0  0  0  0  0  0
  190.9950  170.2260  136.8340 N   0  0  0  0  0  2  0  0  0  0  0  0
  189.7380  170.7770  137.3300 C   0  0  1  0  0  3  0  0  0  0  0  0
  190.1440  171.8560  135.2640 C   0  0  0  0  0  2  0  0  0  0  0  0
  191.7690  175.2670  146.3950 C   0  0  0  0  0  2  0  0  0  0  0  0
  192.9730  174.5700  146.4910 O   0  0  0  0  0  0  0  0  0  0  0  0
  193.6140  174.7730  145.2610 C   0  0  2  0  0  3  0  0  0  0  0  0
  193.6110  172.3670  145.0010 O   0  0  0  0  0  1  0  0  0  0  0  0
  194.3890  173.5170  144.8380 C   0  0  2  0  0  3  0  0  0  0  0  0
  195.7000  173.3910  145.6010 C   0  0  0  0  0  2  0  0  0  0  0  0
  196.2780  172.0700  145.4070 N   0  0  0  0  0  2  0  0  0  0  0  0
  197.8080  170.6370  144.4160 O   0  0  0  0  0  0  0  0  0  0  0  0
  197.3070  171.7910  144.4540 C   0  0  0  0  0  0  0  0  0  0  0  0
  197.8020  172.8450  143.5170 C   0  0  0  0  0  2  0  0  0  0  0  0
  196.5390  172.7070  139.7500 P   0  0  1  0  0  0  0  0  0  0  0  0
  195.7530  172.9540  142.2070 N   0  0  0  0  0  0  0  0  0  0  0  0
  196.5070  171.2720  138.8510 O   0  0  0  0  0  0  0  0  0  0  0  0
  197.0460  172.8240  142.2310 C   0  0  0  0  0  0  0  0  0  0  0  0
  195.1410  172.9140  140.8780 C   0  0  2  0  0  3  0  0  0  0  0  0
  197.6790  172.6480  141.0060 O   0  0  0  0  0  0  0  0  0  0  0  0
  196.7470  173.9230  138.8720 O   0  0  0  0  0  1  0  0  0  0  0  0
  193.4520  171.5510  139.6240 O   0  0  0  0  0  0  0  0  0  0  0  0
  194.0640  170.9760  141.7540 O   0  0  0  0  0  1  0  0  0  0  0  0
  194.1950  171.7610  140.7780 C   0  0  0  0  0  0  0  0  0  0  0  0
  195.4190  175.9960  144.2610 O   0  0  0  0  0  1  0  0  0  0  0  0
  194.4660  176.0480  145.2810 C   0  0  1  0  0  3  0  0  0  0  0  0
  193.6250  177.3110  145.1390 C   0  0  0  0  0  2  0  0  0  0  0  0
  192.9100  177.2660  143.9410 O   0  0  0  0  0  0  0  0  0  0  0  0
  190.7040  177.7580  143.1610 C   0  0  0  0  0  1  0  0  0  0  0  0
  191.8090  178.1000  144.1490 C   0  0  0  0  0  2  0  0  0  0  0  0
  189.5340  174.0890  145.9000 C   0  0  0  0  0  2  0  0  0  0  0  0
  188.9300  175.0490  146.9070 C   0  0  0  0  0  2  0  0  0  0  0  0
  189.0170  176.4660  146.3710 C   0  0  0  0  0  2  0  0  0  0  0  0
  187.7480  176.8260  145.6190 C   0  0  0  0  0  2  0  0  0  0  0  0
  186.5350  176.5010  146.4750 C   0  0  0  0  0  2  0  0  0  0  0  0
  185.2840  177.1200  145.8720 C   0  0  1  0  0  3  0  0  0  0  0  0
  184.7780  178.4030  144.0680 C   0  0  2  0  0  3  0  0  0  0  0  0
  185.0930  178.4860  146.4170 C   0  0  0  0  0  0  0  0  0  0  0  0
  185.1820  179.7630  145.2130 S   0  0  0  0  0  0  0  0  0  0  0  0
  185.4320  177.2200  144.4740 O   0  0  0  0  0  0  0  0  0  0  0  0
  184.7450  178.6940  147.5660 O   0  0  0  0  0  0  0  0  0  0  0  0
  185.1350  177.8570  140.3620 C   0  0  0  0  0  2  0  0  0  0  0  0
  186.5420  177.2550  140.4420 C   0  0  0  0  0  2  0  0  0  0  0  0
  187.2070  177.5300  141.7990 C   0  0  0  0  0  2  0  0  0  0  0  0
  186.6610  178.8030  142.4410 C   0  0  0  0  0  2  0  0  0  0  0  0
  184.4700  177.8040  141.6630 N   0  0  0  0  0  0  0  0  0  0  0  0
  185.1290  178.7300  142.6110 C   0  0  1  0  0  3  0  0  0  0  0  0
  182.6440  177.8210  140.2150 O   0  0  0  0  0  1  0  0  0  0  0  0
  183.1200  178.2980  141.4380 C   0  0  0  0  0  2  0  0  0  0  0  0
  1  2  2  0  0  0  0
  2 43  1  0  0  0  0
  2 17  1  0  0  0  0
  4 10  2  0  0  0  0
  4 11  1  0  0  0  0
  5  4  1  0  0  0  0
  6  7  2  0  0  0  0
  7  1  1  0  0  0  0
  8  5  1  0  0  0  0
  8  3  2  0  0  0  0
  9  7  1  0  0  0  0
 10  9  1  0  0  0  0
 11  6  1  0  0  0  0
 12 15  1  0  0  0  0
 13 14  1  0  0  0  0
 14 15  1  0  0  0  0
 15  8  1  1  0  0  0
 16 13  1  0  0  0  0
 16 12  1  0  0  0  0
 17 18  1  0  0  0  0
 19 38  1  0  0  0  0
 19 18  1  1  0  0  0
 21 20  1  1  0  0  0
 21 19  1  0  0  0  0
 21 22  1  0  0  0  0
 23 22  1  0  0  0  0
 24 25  2  0  0  0  0
 25 23  1  0  0  0  0
 26 25  1  0  0  0  0
 27 29  2  6  0  0  0
 27 31  1  0  0  0  0
 27 32  1  0  0  0  0
 28 30  2  0  0  0  0
 30 26  1  0  0  0  0
 31 36  1  1  0  0  0
 31 28  1  0  0  0  0
 32 30  1  0  0  0  0
 33 27  1  0  0  0  0
 34 36  2  0  0  0  0
 36 35  1  0  0  0  0
 38 37  1  6  0  0  0
 39 38  1  0  0  0  0
 40 42  1  0  0  0  0
 40 39  1  0  0  0  0
 41 42  1  0  0  0  0
 43 44  1  0  0  0  0
 45 44  1  0  0  0  0
 46 45  1  0  0  0  0
 46 47  1  0  0  0  0
 48 50  1  0  0  0  0
 48 47  1  1  0  0  0
 49 52  1  1  0  0  0
 49 51  1  0  0  0  0
 50 53  2  0  0  0  0
 51 50  1  0  0  0  0
 52 48  1  0  0  0  0
 54 55  1  0  0  0  0
 54 58  1  0  0  0  0
 55 56  1  0  0  0  0
 56 57  1  0  0  0  0
 58 59  1  0  0  0  0
 59 57  1  1  0  0  0
 59 49  1  0  0  0  0
 60 61  1  0  0  0  0
 61 58  1  0  0  0  0
M  END
>  <MODEL>
7

>  <REMARK>
 VINA RESULT:      -5.3      2.775      7.998
  Name = 
  23 active torsions:
  status: ('A' for Active; 'I' for Inactive)
    1  A    between atoms: N_3  and  C_24
    2  A    between atoms: C_4  and  C_54
    3  A    between atoms: N_6  and  C_28
    4  A    between atoms: C_9  and  C_46
    5  A    between atoms: C_11  and  C_47
    6  A    between atoms: C_11  and  C_60
    7  A    between atoms: C_12  and  O_32
    8  A    between atoms: C_12  and  C_39
    9  A    between atoms: C_19  and  C_45
   10  A    between atoms: C_19  and  C_47
   11  A    between atoms: C_20  and  C_38
   12  A    between atoms: C_20  and  C_55
   13  A    between atoms: C_21  and  N_40
   14  A    between atoms: C_23  and  O_32
   15  A    between atoms: C_24  and  C_36
   16  A    between atoms: O_25  and  C_31
   17  A    between atoms: O_25  and  C_42
   18  A    between atoms: C_31  and  C_36
   19  A    between atoms: C_31  and  C_39
   20  A    between atoms: C_34  and  C_58
   21  A    between atoms: C_42  and  C_45
   22  A    between atoms: C_48  and  C_61
   23  A    between atoms: C_54  and  C_60
                            x       y       z     vdW  Elec       q    Type
                         _______ _______ _______ _____ _____    ______ ____

>  <TORSDO>
F 23

$$$$
=
 OpenBabel11042419403D

 61 65  0  0  1  0  0  0  0  0999 V2000
  188.0800  175.6100  142.1720 N   0  0  0  0  0  0  0  0  0  0  0  0
  188.7030  176.7020  142.5010 C   0  0  0  0  0  0  0  0  0  0  0  0
  191.5050  170.2260  141.0560 O   0  0  0  0  0  0  0  0  0  0  0  0
  190.1160  172.6010  140.0110 C   0  0  0  0  0  0  0  0  0  0  0  0
  191.1900  171.8700  139.4080 N   0  0  0  0  0  2  0  0  0  0  0  0
  189.0630  173.4330  142.0880 C   0  0  0  0  0  3  0  0  0  0  0  0
  188.5930  174.4940  141.4240 C   0  0  0  0  0  0  0  0  0  0  0  0
  191.8500  170.7190  139.9460 C   0  0  0  0  0  0  0  0  0  0  0  0
  188.5160  174.4210  139.9210 C   0  0  0  0  0  2  0  0  0  0  0  0
  189.6310  173.6340  139.3850 N   0  0  0  0  0  0  0  0  0  0  0  0
  189.5400  172.2130  141.3500 C   0  0  0  0  0  2  0  0  0  0  0  0
  192.5160  169.0220  138.2850 C   0  0  0  0  0  2  0  0  0  0  0  0
  193.9590  170.4970  137.0880 C   0  0  0  0  0  2  0  0  0  0  0  0
  193.6490  171.1380  138.3640 N   0  0  0  0  0  2  0  0  0  0  0  0
  192.9940  170.1280  139.1910 C   0  0  1  0  0  3  0  0  0  0  0  0
  193.4800  169.0620  137.1360 C   0  0  0  0  0  2  0  0  0  0  0  0
  187.9550  177.7440  143.2620 C   0  0  0  0  0  2  0  0  0  0  0  0
  187.3560  178.6340  142.3710 O   0  0  0  0  0  0  0  0  0  0  0  0
  185.9780  178.4910  142.5790 C   0  0  2  0  0  3  0  0  0  0  0  0
  185.5320  176.4130  143.7390 O   0  0  0  0  0  1  0  0  0  0  0  0
  185.7000  177.7900  143.9170 C   0  0  2  0  0  3  0  0  0  0  0  0
  184.4910  178.3920  144.6190 C   0  0  0  0  0  2  0  0  0  0  0  0
  184.9130  179.3490  145.6290 N   0  0  0  0  0  2  0  0  0  0  0  0
  185.9820  179.8800  147.6190 O   0  0  0  0  0  0  0  0  0  0  0  0
  185.5750  178.9770  146.8410 C   0  0  0  0  0  0  0  0  0  0  0  0
  185.8020  177.5420  147.1910 C   0  0  0  0  0  2  0  0  0  0  0  0
  189.7360  177.1410  146.7850 P   0  0  1  0  0  0  0  0  0  0  0  0
  187.4580  176.0330  146.2390 N   0  0  0  0  0  0  0  0  0  0  0  0
  190.7470  176.7170  148.0760 O   0  0  0  0  0  1  0  0  0  0  0  0
  187.2040  177.1270  146.8940 C   0  0  0  0  0  0  0  0  0  0  0  0
  188.8760  175.7480  146.0180 C   0  0  2  0  0  3  0  0  0  0  0  0
  188.2980  177.8720  147.3140 O   0  0  0  0  0  0  0  0  0  0  0  0
  190.4500  178.0020  145.7640 O   0  0  0  0  0  0  0  0  0  0  0  0
  188.9470  174.2280  148.0100 O   0  0  0  0  0  1  0  0  0  0  0  0
  189.8610  173.5770  146.0140 O   0  0  0  0  0  0  0  0  0  0  0  0
  189.2520  174.4580  146.6760 C   0  0  0  0  0  0  0  0  0  0  0  0
  184.0360  178.3860  141.1730 O   0  0  0  0  0  1  0  0  0  0  0  0
  185.2980  177.8220  141.3780 C   0  0  1  0  0  3  0  0  0  0  0  0
  186.1270  177.9340  140.1040 C   0  0  0  0  0  2  0  0  0  0  0  0
  185.5700  177.1280  139.1100 O   0  0  0  0  0  0  0  0  0  0  0  0
  186.1500  176.0490  137.0570 C   0  0  0  0  0  1  0  0  0  0  0  0
  186.6520  176.7360  138.3180 C   0  0  0  0  0  2  0  0  0  0  0  0
  190.1620  176.9130  142.2310 C   0  0  0  0  0  2  0  0  0  0  0  0
  191.0140  176.2020  143.2640 C   0  0  0  0  0  2  0  0  0  0  0  0
  192.4100  176.8000  143.2670 C   0  0  0  0  0  2  0  0  0  0  0  0
  193.3860  175.8700  142.5720 C   0  0  0  0  0  2  0  0  0  0  0  0
  194.0540  174.9670  143.5970 C   0  0  0  0  0  2  0  0  0  0  0  0
  195.3830  174.4570  143.0630 C   0  0  1  0  0  3  0  0  0  0  0  0
  196.8870  172.8540  143.6290 C   0  0  2  0  0  3  0  0  0  0  0  0
  196.4960  175.1910  143.7130 C   0  0  0  0  0  0  0  0  0  0  0  0
  197.5560  174.1810  144.6850 S   0  0  0  0  0  0  0  0  0  0  0  0
  195.5210  173.0880  143.3670 O   0  0  0  0  0  0  0  0  0  0  0  0
  196.7480  176.3580  143.4680 O   0  0  0  0  0  0  0  0  0  0  0  0
  196.2730  169.1850  144.1990 C   0  0  0  0  0  2  0  0  0  0  0  0
  195.2160  169.3860  145.2910 C   0  0  0  0  0  2  0  0  0  0  0  0
  195.2340  170.8170  145.8480 C   0  0  0  0  0  2  0  0  0  0  0  0
  196.6130  171.4560  145.7080 C   0  0  0  0  0  2  0  0  0  0  0  0
  196.4480  170.4050  143.4110 N   0  0  0  0  0  0  0  0  0  0  0  0
  197.0800  171.4580  144.2370 C   0  0  1  0  0  3  0  0  0  0  0  0
  196.9500  168.9060  141.6990 O   0  0  0  0  0  1  0  0  0  0  0  0
  197.3840  170.0610  142.3520 C   0  0  0  0  0  2  0  0  0  0  0  0
  1  2  2  0  0  0  0
  2 17  1  0  0  0  0
  4 11  1  0  0  0  0
  5  8  1  0  0  0  0
  5  4  1  0  0  0  0
  7  6  2  0  0  0  0
  7  1  1  0  0  0  0
  8  3  2  0  0  0  0
  9  7  1  0  0  0  0
 10  9  1  0  0  0  0
 10  4  2  0  0  0  0
 11  6  1  0  0  0  0
 12 15  1  0  0  0  0
 13 16  1  0  0  0  0
 13 14  1  0  0  0  0
 14 15  1  0  0  0  0
 15  8  1  6  0  0  0
 16 12  1  0  0  0  0
 18 17  1  0  0  0  0
 19 18  1  6  0  0  0
 19 21  1  0  0  0  0
 21 20  1  6  0  0  0
 21 22  1  0  0  0  0
 22 23  1  0  0  0  0
 23 25  1  0  0  0  0
 25 26  1  0  0  0  0
 25 24  2  0  0  0  0
 27 33  2  6  0  0  0
 27 32  1  0  0  0  0
 27 29  1  0  0  0  0
 28 30  2  0  0  0  0
 30 26  1  0  0  0  0
 30 32  1  0  0  0  0
 31 28  1  0  0  0  0
 31 36  1  1  0  0  0
 31 27  1  0  0  0  0
 35 36  2  0  0  0  0
 36 34  1  0  0  0  0
 38 37  1  6  0  0  0
 38 19  1  0  0  0  0
 39 38  1  0  0  0  0
 40 39  1  0  0  0  0
 41 42  1  0  0  0  0
 42 40  1  0  0  0  0
 43  2  1  0  0  0  0
 43 44  1  0  0  0  0
 44 45  1  0  0  0  0
 46 45  1  0  0  0  0
 46 47  1  0  0  0  0
 48 52  1  0  0  0  0
 48 47  1  1  0  0  0
 48 50  1  0  0  0  0
 49 52  1  1  0  0  0
 49 59  1  0  0  0  0
 49 51  1  0  0  0  0
 50 51  1  0  0  0  0
 53 50  2  0  0  0  0
 54 55  1  0  0  0  0
 55 56  1  0  0  0  0
 57 56  1  0  0  0  0
 58 54  1  0  0  0  0
 58 59  1  0  0  0  0
 59 57  1  1  0  0  0
 60 61  1  0  0  0  0
 61 58  1  0  0  0  0
M  END
>  <MODEL>
8

>  <REMARK>
 VINA RESULT:      -5.3      3.343      8.954
  Name = 
  23 active torsions:
  status: ('A' for Active; 'I' for Inactive)
    1  A    between atoms: N_3  and  C_24
    2  A    between atoms: C_4  and  C_54
    3  A    between atoms: N_6  and  C_28
    4  A    between atoms: C_9  and  C_46
    5  A    between atoms: C_11  and  C_47
    6  A    between atoms: C_11  and  C_60
    7  A    between atoms: C_12  and  O_32
    8  A    between atoms: C_12  and  C_39
    9  A    between atoms: C_19  and  C_45
   10  A    between atoms: C_19  and  C_47
   11  A    between atoms: C_20  and  C_38
   12  A    between atoms: C_20  and  C_55
   13  A    between atoms: C_21  and  N_40
   14  A    between atoms: C_23  and  O_32
   15  A    between atoms: C_24  and  C_36
   16  A    between atoms: O_25  and  C_31
   17  A    between atoms: O_25  and  C_42
   18  A    between atoms: C_31  and  C_36
   19  A    between atoms: C_31  and  C_39
   20  A    between atoms: C_34  and  C_58
   21  A    between atoms: C_42  and  C_45
   22  A    between atoms: C_48  and  C_61
   23  A    between atoms: C_54  and  C_60
                            x       y       z     vdW  Elec       q    Type
                         _______ _______ _______ _____ _____    ______ ____

>  <TORSDO>
F 23

$$$$
=
 OpenBabel11042419403D

 61 65  0  0  1  0  0  0  0  0999 V2000
  187.5210  177.0100  143.1370 N   0  0  0  0  0  0  0  0  0  0  0  0
  188.1040  175.9400  142.6840 C   0  0  0  0  0  0  0  0  0  0  0  0
  181.5080  179.4200  143.1570 O   0  0  0  0  0  0  0  0  0  0  0  0
  183.8180  178.4000  141.6460 C   0  0  0  0  0  0  0  0  0  0  0  0
  182.4400  178.4030  141.2560 N   0  0  0  0  0  2  0  0  0  0  0  0
  185.4720  178.1930  143.4730 C   0  0  0  0  0  3  0  0  0  0  0  0
  186.3510  177.6640  142.6160 C   0  0  0  0  0  0  0  0  0  0  0  0
  181.3360  178.9030  142.0180 C   0  0  0  0  0  0  0  0  0  0  0  0
  186.1320  177.8800  141.1420 C   0  0  0  0  0  2  0  0  0  0  0  0
  184.7000  177.8990  140.8290 N   0  0  0  0  0  0  0  0  0  0  0  0
  184.2720  178.9510  142.9740 C   0  0  0  0  0  2  0  0  0  0  0  0
  179.9990  178.1350  140.0940 C   0  0  0  0  0  2  0  0  0  0  0  0
  178.3440  177.0640  141.4400 C   0  0  0  0  0  2  0  0  0  0  0  0
  179.1330  177.9200  142.3230 N   0  0  0  0  0  2  0  0  0  0  0  0
  179.9570  178.7630  141.4630 C   0  0  1  0  0  3  0  0  0  0  0  0
  178.6980  177.3920  140.0040 C   0  0  0  0  0  2  0  0  0  0  0  0
  189.3330  175.4540  143.3760 C   0  0  0  0  0  2  0  0  0  0  0  0
  190.1350  176.5410  143.7230 O   0  0  0  0  0  0  0  0  0  0  0  0
  191.0080  176.0550  144.7050 C   0  0  2  0  0  3  0  0  0  0  0  0
  192.4920  174.3240  143.8930 O   0  0  0  0  0  1  0  0  0  0  0  0
  192.3710  175.7020  144.0930 C   0  0  2  0  0  3  0  0  0  0  0  0
  193.5160  176.2220  144.9520 C   0  0  0  0  0  2  0  0  0  0  0  0
  194.7490  176.2730  144.1820 N   0  0  0  0  0  2  0  0  0  0  0  0
  196.8920  175.5250  143.7070 O   0  0  0  0  0  0  0  0  0  0  0  0
  195.9000  175.4790  144.4810 C   0  0  0  0  0  0  0  0  0  0  0  0
  195.9380  174.5910  145.6820 C   0  0  0  0  0  2  0  0  0  0  0  0
  194.4220  170.9450  145.2220 P   0  0  1  0  0  0  0  0  0  0  0  0
  196.3850  172.4910  144.5350 N   0  0  0  0  0  0  0  0  0  0  0  0
  193.0410  170.6420  144.2910 O   0  0  0  0  0  0  0  0  0  0  0  0
  195.6130  173.1800  145.3220 C   0  0  0  0  0  0  0  0  0  0  0  0
  195.9470  171.1210  144.2660 C   0  0  2  0  0  3  0  0  0  0  0  0
  194.4710  172.5430  145.7910 O   0  0  0  0  0  0  0  0  0  0  0  0
  194.5720  169.9500  146.3550 O   0  0  0  0  0  1  0  0  0  0  0  0
  195.6150  172.0340  141.9550 O   0  0  0  0  0  0  0  0  0  0  0  0
  195.5230  169.7790  142.3420 O   0  0  0  0  0  1  0  0  0  0  0  0
  195.6870  170.9380  142.8050 C   0  0  0  0  0  0  0  0  0  0  0  0
  191.3430  174.2760  146.2790 O   0  0  0  0  0  1  0  0  0  0  0  0
  190.3710  174.9100  145.5010 C   0  0  1  0  0  3  0  0  0  0  0  0
  189.2270  175.3840  146.3890 C   0  0  0  0  0  2  0  0  0  0  0  0
  189.5090  176.6630  146.8730 O   0  0  0  0  0  0  0  0  0  0  0  0
  187.1300  176.4480  146.7540 C   0  0  0  0  0  1  0  0  0  0  0  0
  188.3270  177.3850  146.6890 C   0  0  0  0  0  2  0  0  0  0  0  0
  187.5390  175.1270  141.5590 C   0  0  0  0  0  2  0  0  0  0  0  0
  187.8260  173.6520  141.7580 C   0  0  0  0  0  2  0  0  0  0  0  0
  188.2090  173.0270  140.4280 C   0  0  0  0  0  2  0  0  0  0  0  0
  188.8600  174.0590  139.5260 C   0  0  0  0  0  2  0  0  0  0  0  0
  188.1820  174.0530  138.1660 C   0  0  0  0  0  2  0  0  0  0  0  0
  189.0580  173.3470  137.1440 C   0  0  1  0  0  3  0  0  0  0  0  0
  191.0970  172.3480  137.1220 C   0  0  2  0  0  3  0  0  0  0  0  0
  189.9580  174.3310  136.4940 C   0  0  0  0  0  0  0  0  0  0  0  0
  191.6680  174.0460  136.7830 S   0  0  0  0  0  0  0  0  0  0  0  0
  189.8550  172.3810  137.7900 O   0  0  0  0  0  0  0  0  0  0  0  0
  189.5590  175.1650  135.7010 O   0  0  0  0  0  0  0  0  0  0  0  0
  192.3450  169.8780  139.6720 C   0  0  0  0  0  2  0  0  0  0  0  0
  192.4200  170.8880  140.8230 C   0  0  0  0  0  2  0  0  0  0  0  0
  192.3590  172.3370  140.3180 C   0  0  0  0  0  2  0  0  0  0  0  0
  192.8890  172.4560  138.8910 C   0  0  0  0  0  2  0  0  0  0  0  0
  191.4810  170.3720  138.6000 N   0  0  0  0  0  0  0  0  0  0  0  0
  192.1140  171.5300  137.9300 C   0  0  1  0  0  3  0  0  0  0  0  0
  190.1020  168.7920  137.5850 O   0  0  0  0  0  1  0  0  0  0  0  0
  191.4040  169.2930  137.6270 C   0  0  0  0  0  2  0  0  0  0  0  0
  2  1  2  0  0  0  0
  2 17  1  0  0  0  0
  4 11  1  0  0  0  0
  5  4  1  0  0  0  0
  5  8  1  0  0  0  0
  7  1  1  0  0  0  0
  7  6  2  0  0  0  0
  8  3  2  0  0  0  0
  9  7  1  0  0  0  0
 10  9  1  0  0  0  0
 10  4  2  0  0  0  0
 11  6  1  0  0  0  0
 12 15  1  0  0  0  0
 13 14  1  0  0  0  0
 15  8  1  1  0  0  0
 15 14  1  0  0  0  0
 16 12  1  0  0  0  0
 16 13  1  0  0  0  0
 17 18  1  0  0  0  0
 19 18  1  6  0  0  0
 19 38  1  0  0  0  0
 21 20  1  1  0  0  0
 21 19  1  0  0  0  0
 21 22  1  0  0  0  0
 23 25  1  0  0  0  0
 23 22  1  0  0  0  0
 24 25  2  0  0  0  0
 25 26  1  0  0  0  0
 27 29  2  6  0  0  0
 27 32  1  0  0  0  0
 27 33  1  0  0  0  0
 28 30  2  0  0  0  0
 30 26  1  0  0  0  0
 30 32  1  0  0  0  0
 31 36  1  6  0  0  0
 31 28  1  0  0  0  0
 31 27  1  0  0  0  0
 34 36  2  0  0  0  0
 35 36  1  0  0  0  0
 38 37  1  1  0  0  0
 38 39  1  0  0  0  0
 39 40  1  0  0  0  0
 42 41  1  0  0  0  0
 42 40  1  0  0  0  0
 43 44  1  0  0  0  0
 43  2  1  0  0  0  0
 45 44  1  0  0  0  0
 46 45  1  0  0  0  0
 47 46  1  0  0  0  0
 48 52  1  0  0  0  0
 48 47  1  1  0  0  0
 49 51  1  1  0  0  0
 49 52  1  0  0  0  0
 49 59  1  0  0  0  0
 50 51  1  0  0  0  0
 50 48  1  0  0  0  0
 53 50  2  0  0  0  0
 54 55  1  0  0  0  0
 56 55  1  0  0  0  0
 57 56  1  0  0  0  0
 58 54  1  0  0  0  0
 59 58  1  0  0  0  0
 59 57  1  1  0  0  0
 60 61  1  0  0  0  0
 61 58  1  0  0  0  0
M  END
>  <MODEL>
9

>  <REMARK>
 VINA RESULT:      -5.3      1.961      2.852
  Name = 
  23 active torsions:
  status: ('A' for Active; 'I' for Inactive)
    1  A    between atoms: N_3  and  C_24
    2  A    between atoms: C_4  and  C_54
    3  A    between atoms: N_6  and  C_28
    4  A    between atoms: C_9  and  C_46
    5  A    between atoms: C_11  and  C_47
    6  A    between atoms: C_11  and  C_60
    7  A    between atoms: C_12  and  O_32
    8  A    between atoms: C_12  and  C_39
    9  A    between atoms: C_19  and  C_45
   10  A    between atoms: C_19  and  C_47
   11  A    between atoms: C_20  and  C_38
   12  A    between atoms: C_20  and  C_55
   13  A    between atoms: C_21  and  N_40
   14  A    between atoms: C_23  and  O_32
   15  A    between atoms: C_24  and  C_36
   16  A    between atoms: O_25  and  C_31
   17  A    between atoms: O_25  and  C_42
   18  A    between atoms: C_31  and  C_36
   19  A    between atoms: C_31  and  C_39
   20  A    between atoms: C_34  and  C_58
   21  A    between atoms: C_42  and  C_45
   22  A    between atoms: C_48  and  C_61
   23  A    between atoms: C_54  and  C_60
                            x       y       z     vdW  Elec       q    Type
                         _______ _______ _______ _____ _____    ______ ____

>  <TORSDO>
F 23

$$$$
