=
 OpenBabel11042418183D

 35 39  0  0  0  0  0  0  0  0999 V2000
  189.3570  174.9070  144.9050 C   0  0  0  0  0  3  0  0  0  0  0  0
  189.3740  172.2620  139.6760 C   0  0  0  0  0  0  0  0  0  0  0  0
  189.3910  175.6260  146.1160 C   0  0  0  0  0  0  0  0  0  0  0  0
  188.9320  174.0790  141.6760 C   0  0  0  0  0  0  0  0  0  0  0  0
  188.8630  176.9360  146.1900 C   0  0  0  0  0  3  0  0  0  0  0  0
  188.2860  177.5480  145.0630 C   0  0  0  0  0  3  0  0  0  0  0  0
  187.8310  175.8920  140.2060 S   0  0  0  0  0  0  0  0  0  0  0  0
  188.7760  175.5330  143.8090 C   0  0  0  0  0  0  0  0  0  0  0  0
  187.7750  177.2230  142.6680 N   0  0  0  0  0  0  0  0  0  0  0  0
  188.7670  173.4490  139.3750 N   0  0  0  0  0  0  0  0  0  0  0  0
  188.2510  176.8190  143.8750 C   0  0  0  0  0  0  0  0  0  0  0  0
  188.6200  175.1420  142.5030 C   0  0  0  0  0  0  0  0  0  0  0  0
  189.5550  172.8760  141.9780 C   0  0  0  0  0  3  0  0  0  0  0  0
  189.7600  171.9890  140.9630 N   0  0  0  0  0  0  0  0  0  0  0  0
  188.5480  174.3450  140.3660 C   0  0  0  0  0  0  0  0  0  0  0  0
  188.0250  176.1750  141.8590 C   0  0  0  0  0  0  0  0  0  0  0  0
  189.6170  171.2740  138.6160 C   0  0  0  0  0  0  0  0  0  0  0  0
  190.0710  169.9610  138.9550 N   0  0  0  0  0  2  0  0  0  0  0  0
  190.3180  168.9480  137.9420 C   0  0  0  0  0  1  0  0  0  0  0  0
  189.4250  171.5860  137.4090 O   0  0  0  0  0  0  0  0  0  0  0  0
  187.2460  178.5290  142.2970 C   0  0  0  0  0  2  0  0  0  0  0  0
  185.1040  178.7930  143.6110 C   0  0  0  0  0  3  0  0  0  0  0  0
  184.9280  178.2390  141.3210 C   0  0  0  0  0  3  0  0  0  0  0  0
  183.4560  178.6640  143.2950 S   0  0  0  0  0  0  0  0  0  0  0  0
  185.7600  178.5330  142.4100 C   0  0  0  0  0  0  0  0  0  0  0  0
  183.5880  178.2800  141.6640 C   0  0  0  0  0  0  0  0  0  0  0  0
  181.2570  178.1200  141.1400 N   0  0  0  0  0  2  0  0  0  0  0  0
  182.4820  177.9960  140.7520 C   0  0  0  0  0  3  0  0  0  0  0  0
  190.0110  175.0140  147.3240 C   0  0  0  0  0  2  0  0  0  0  0  0
  191.3550  175.6660  147.6080 C   0  0  0  0  0  2  0  0  0  0  0  0
  192.4690  174.9360  146.8770 C   0  0  0  0  0  2  0  0  0  0  0  0
  194.7740  175.2630  145.1850 O   0  0  0  0  0  0  0  0  0  0  0  0
  192.5310  176.9780  144.7080 C   0  0  0  0  0  1  0  0  0  0  0  0
  193.5190  176.1000  145.9530 P   0  0  1  0  0  0  0  0  0  0  0  0
  194.1080  177.1060  146.9150 O   0  0  0  0  0  1  0  0  0  0  0  0
  1  3  1  0  0  0  0
  2 14  1  0  0  0  0
  3  5  2  0  0  0  0
  3 29  1  0  0  0  0
  4 13  1  0  0  0  0
  4 12  1  0  0  0  0
  6  5  1  0  0  0  0
  7 15  1  0  0  0  0
  7 16  1  0  0  0  0
  8 11  1  0  0  0  0
  8  1  2  0  0  0  0
  9 11  1  0  0  0  0
 10  2  2  0  0  0  0
 10 15  1  0  0  0  0
 11  6  2  0  0  0  0
 12  8  1  0  0  0  0
 14 13  2  0  0  0  0
 15  4  2  0  0  0  0
 16 12  2  0  0  0  0
 16  9  1  0  0  0  0
 17 18  1  0  0  0  0
 17  2  1  0  0  0  0
 19 18  1  0  0  0  0
 20 17  2  0  0  0  0
 21 25  1  0  0  0  0
 21  9  1  0  0  0  0
 23 26  2  0  0  0  0
 23 25  1  0  0  0  0
 24 22  1  0  0  0  0
 25 22  2  0  0  0  0
 26 24  1  0  0  0  0
 28 27  2  0  0  0  0
 28 26  1  0  0  0  0
 29 30  1  0  0  0  0
 31 30  1  0  0  0  0
 32 34  2  0  0  0  0
 34 33  1  6  0  0  0
 34 31  1  0  0  0  0
 34 35  1  0  0  0  0
M  END
>  <MODEL>
1

>  <REMARK>
 VINA RESULT:      -7.0      0.000      0.000
  Name = 
  8 active torsions:
  status: ('A' for Active; 'I' for Inactive)
    1  A    between atoms: C_2  and  C_30
    2  A    between atoms: C_2  and  C_32
    3  A    between atoms: C_5  and  C_7
    4  A    between atoms: C_8  and  C_30
    5  A    between atoms: C_14  and  C_19
    6  A    between atoms: C_17  and  C_22
    7  A    between atoms: N_20  and  C_22
    8  A    between atoms: P_23  and  C_32
                            x       y       z     vdW  Elec       q    Type
                         _______ _______ _______ _____ _____    ______ ____

>  <TORSDO>
F 8

$$$$
=
 OpenBabel11042418183D

 35 39  0  0  0  0  0  0  0  0999 V2000
  188.2320  176.3010  144.9180 C   0  0  0  0  0  3  0  0  0  0  0  0
  189.0810  174.0610  139.5700 C   0  0  0  0  0  0  0  0  0  0  0  0
  188.0520  176.7480  146.2410 C   0  0  0  0  0  0  0  0  0  0  0  0
  189.4670  174.7930  142.1800 C   0  0  0  0  0  0  0  0  0  0  0  0
  189.0330  176.4900  147.2270 C   0  0  0  0  0  3  0  0  0  0  0  0
  190.2120  175.7900  146.9100 C   0  0  0  0  0  3  0  0  0  0  0  0
  191.7370  173.6080  142.4990 S   0  0  0  0  0  0  0  0  0  0  0  0
  189.4080  175.6180  144.6310 C   0  0  0  0  0  0  0  0  0  0  0  0
  191.4130  174.6500  145.0780 N   0  0  0  0  0  0  0  0  0  0  0  0
  190.2180  173.6580  140.2140 N   0  0  0  0  0  0  0  0  0  0  0  0
  190.3780  175.3640  145.5930 C   0  0  0  0  0  0  0  0  0  0  0  0
  189.8700  175.0250  143.4820 C   0  0  0  0  0  0  0  0  0  0  0  0
  188.3110  175.1960  141.5260 C   0  0  0  0  0  3  0  0  0  0  0  0
  188.1460  174.8190  140.2260 N   0  0  0  0  0  0  0  0  0  0  0  0
  190.4060  174.0230  141.5040 C   0  0  0  0  0  0  0  0  0  0  0  0
  191.0610  174.4600  143.7920 C   0  0  0  0  0  0  0  0  0  0  0  0
  188.8590  173.6790  138.1690 C   0  0  0  0  0  0  0  0  0  0  0  0
  189.6410  172.6370  137.5800 N   0  0  0  0  0  2  0  0  0  0  0  0
  189.4530  172.2200  136.2010 C   0  0  0  0  0  1  0  0  0  0  0  0
  187.9780  174.2720  137.4870 O   0  0  0  0  0  0  0  0  0  0  0  0
  192.5670  174.0990  145.7760 C   0  0  0  0  0  2  0  0  0  0  0  0
  193.8960  176.1710  145.2030 C   0  0  0  0  0  3  0  0  0  0  0  0
  194.9720  174.0790  144.9850 C   0  0  0  0  0  3  0  0  0  0  0  0
  195.4490  176.5090  144.6550 S   0  0  0  0  0  0  0  0  0  0  0  0
  193.8130  174.7860  145.3340 C   0  0  0  0  0  0  0  0  0  0  0  0
  195.9940  174.9210  144.5830 C   0  0  0  0  0  0  0  0  0  0  0  0
  197.8090  173.3590  144.5440 N   0  0  0  0  0  2  0  0  0  0  0  0
  197.3140  174.4800  144.1380 C   0  0  0  0  0  3  0  0  0  0  0  0
  186.8090  177.4760  146.6160 C   0  0  0  0  0  2  0  0  0  0  0  0
  185.6140  176.8740  145.8950 C   0  0  0  0  0  2  0  0  0  0  0  0
  184.5390  177.9240  145.6690 C   0  0  0  0  0  2  0  0  0  0  0  0
  185.5900  179.9760  143.9440 O   0  0  0  0  0  1  0  0  0  0  0  0
  185.3090  177.3440  142.8480 C   0  0  0  0  0  1  0  0  0  0  0  0
  184.6190  178.5900  143.9760 P   0  0  1  0  0  0  0  0  0  0  0  0
  183.2230  178.9500  143.5200 O   0  0  0  0  0  0  0  0  0  0  0  0
  1  3  1  0  0  0  0
  2 10  2  0  0  0  0
  2 14  1  0  0  0  0
  3 29  1  0  0  0  0
  3  5  2  0  0  0  0
  4 12  1  0  0  0  0
  6  5  1  0  0  0  0
  7 16  1  0  0  0  0
  8  1  2  0  0  0  0
  8 11  1  0  0  0  0
  9 11  1  0  0  0  0
  9 21  1  0  0  0  0
 10 15  1  0  0  0  0
 11  6  2  0  0  0  0
 12 16  2  0  0  0  0
 12  8  1  0  0  0  0
 13  4  1  0  0  0  0
 14 13  2  0  0  0  0
 15  4  2  0  0  0  0
 15  7  1  0  0  0  0
 16  9  1  0  0  0  0
 17  2  1  0  0  0  0
 18 17  1  0  0  0  0
 19 18  1  0  0  0  0
 20 17  2  0  0  0  0
 22 25  2  0  0  0  0
 23 25  1  0  0  0  0
 24 22  1  0  0  0  0
 25 21  1  0  0  0  0
 26 24  1  0  0  0  0
 26 23  2  0  0  0  0
 28 27  2  0  0  0  0
 28 26  1  0  0  0  0
 30 29  1  0  0  0  0
 31 30  1  0  0  0  0
 32 34  1  0  0  0  0
 34 33  1  6  0  0  0
 34 31  1  0  0  0  0
 35 34  2  0  0  0  0
M  END
>  <MODEL>
2

>  <REMARK>
 VINA RESULT:      -6.9      4.314      7.415
  Name = 
  8 active torsions:
  status: ('A' for Active; 'I' for Inactive)
    1  A    between atoms: C_2  and  C_30
    2  A    between atoms: C_2  and  C_32
    3  A    between atoms: C_5  and  C_7
    4  A    between atoms: C_8  and  C_30
    5  A    between atoms: C_14  and  C_19
    6  A    between atoms: C_17  and  C_22
    7  A    between atoms: N_20  and  C_22
    8  A    between atoms: P_23  and  C_32
                            x       y       z     vdW  Elec       q    Type
                         _______ _______ _______ _____ _____    ______ ____

>  <TORSDO>
F 8

$$$$
=
 OpenBabel11042418183D

 35 39  0  0  0  0  0  0  0  0999 V2000
  190.3780  175.0880  145.0570 C   0  0  0  0  0  3  0  0  0  0  0  0
  189.9160  171.8990  140.1620 C   0  0  0  0  0  0  0  0  0  0  0  0
  190.5150  175.9340  146.1750 C   0  0  0  0  0  0  0  0  0  0  0  0
  189.6070  173.8950  142.0110 C   0  0  0  0  0  0  0  0  0  0  0  0
  189.9130  177.2140  146.1860 C   0  0  0  0  0  3  0  0  0  0  0  0
  189.1580  177.6690  145.0900 C   0  0  0  0  0  3  0  0  0  0  0  0
  188.2080  175.4760  140.5260 S   0  0  0  0  0  0  0  0  0  0  0  0
  189.6220  175.5600  143.9900 C   0  0  0  0  0  0  0  0  0  0  0  0
  188.3730  177.0600  142.8280 N   0  0  0  0  0  0  0  0  0  0  0  0
  189.1960  173.0120  139.8270 N   0  0  0  0  0  0  0  0  0  0  0  0
  189.0230  176.8150  143.9960 C   0  0  0  0  0  0  0  0  0  0  0  0
  189.3290  175.0230  142.7610 C   0  0  0  0  0  0  0  0  0  0  0  0
  190.3430  172.7670  142.3470 C   0  0  0  0  0  3  0  0  0  0  0  0
  190.4780  171.7880  141.4080 N   0  0  0  0  0  0  0  0  0  0  0  0
  189.0440  173.9970  140.7440 C   0  0  0  0  0  0  0  0  0  0  0  0
  188.5900  175.9460  142.1020 C   0  0  0  0  0  0  0  0  0  0  0  0
  190.0900  170.8170  139.1840 C   0  0  0  0  0  0  0  0  0  0  0  0
  189.8970  171.0770  137.7910 N   0  0  0  0  0  2  0  0  0  0  0  0
  190.0650  170.0410  136.7850 C   0  0  0  0  0  1  0  0  0  0  0  0
  190.4100  169.6610  139.5740 O   0  0  0  0  0  0  0  0  0  0  0  0
  187.7140  178.2870  142.4020 C   0  0  0  0  0  2  0  0  0  0  0  0
  185.2150  178.1560  142.0500 C   0  0  0  0  0  3  0  0  0  0  0  0
  185.9980  178.5450  144.2450 C   0  0  0  0  0  3  0  0  0  0  0  0
  183.8400  178.2910  143.0110 S   0  0  0  0  0  0  0  0  0  0  0  0
  186.3090  178.3170  142.8980 C   0  0  0  0  0  0  0  0  0  0  0  0
  184.6320  178.5530  144.4700 C   0  0  0  0  0  0  0  0  0  0  0  0
  184.4770  178.2600  146.8410 N   0  0  0  0  0  2  0  0  0  0  0  0
  183.9990  178.7890  145.7650 C   0  0  0  0  0  3  0  0  0  0  0  0
  191.3220  175.4920  147.3450 C   0  0  0  0  0  2  0  0  0  0  0  0
  192.6900  175.0150  146.8860 C   0  0  0  0  0  2  0  0  0  0  0  0
  193.5440  176.1900  146.4400 C   0  0  0  0  0  2  0  0  0  0  0  0
  195.6610  176.5610  144.5240 O   0  0  0  0  0  1  0  0  0  0  0  0
  194.0030  174.2440  144.2290 C   0  0  0  0  0  1  0  0  0  0  0  0
  194.0770  175.9940  144.7100 P   0  0  1  0  0  0  0  0  0  0  0  0
  193.1550  176.7910  143.8150 O   0  0  0  0  0  0  0  0  0  0  0  0
  1  3  1  0  0  0  0
  2 14  1  0  0  0  0
  3  5  2  0  0  0  0
  3 29  1  0  0  0  0
  4 13  1  0  0  0  0
  4 12  1  0  0  0  0
  6  5  1  0  0  0  0
  7 15  1  0  0  0  0
  7 16  1  0  0  0  0
  8 11  1  0  0  0  0
  8  1  2  0  0  0  0
  9 11  1  0  0  0  0
 10  2  2  0  0  0  0
 10 15  1  0  0  0  0
 11  6  2  0  0  0  0
 12  8  1  0  0  0  0
 14 13  2  0  0  0  0
 15  4  2  0  0  0  0
 16 12  2  0  0  0  0
 16  9  1  0  0  0  0
 17 20  2  0  0  0  0
 17  2  1  0  0  0  0
 18 17  1  0  0  0  0
 19 18  1  0  0  0  0
 21  9  1  0  0  0  0
 21 25  1  0  0  0  0
 22 25  2  0  0  0  0
 22 24  1  0  0  0  0
 23 26  2  0  0  0  0
 24 26  1  0  0  0  0
 25 23  1  0  0  0  0
 26 28  1  0  0  0  0
 28 27  2  0  0  0  0
 30 29  1  0  0  0  0
 31 30  1  0  0  0  0
 32 34  1  0  0  0  0
 34 33  1  6  0  0  0
 34 31  1  0  0  0  0
 35 34  2  0  0  0  0
M  END
>  <MODEL>
3

>  <REMARK>
 VINA RESULT:      -6.8      1.728      2.095
  Name = 
  8 active torsions:
  status: ('A' for Active; 'I' for Inactive)
    1  A    between atoms: C_2  and  C_30
    2  A    between atoms: C_2  and  C_32
    3  A    between atoms: C_5  and  C_7
    4  A    between atoms: C_8  and  C_30
    5  A    between atoms: C_14  and  C_19
    6  A    between atoms: C_17  and  C_22
    7  A    between atoms: N_20  and  C_22
    8  A    between atoms: P_23  and  C_32
                            x       y       z     vdW  Elec       q    Type
                         _______ _______ _______ _____ _____    ______ ____

>  <TORSDO>
F 8

$$$$
=
 OpenBabel11042418183D

 35 39  0  0  0  0  0  0  0  0999 V2000
  188.3280  176.5320  142.0800 C   0  0  0  0  0  3  0  0  0  0  0  0
  189.9130  171.9330  138.8130 C   0  0  0  0  0  0  0  0  0  0  0  0
  187.9290  177.5720  142.9420 C   0  0  0  0  0  0  0  0  0  0  0  0
  189.7460  173.7380  140.8650 C   0  0  0  0  0  0  0  0  0  0  0  0
  188.4480  177.6580  144.2550 C   0  0  0  0  0  3  0  0  0  0  0  0
  189.3790  176.7160  144.7290 C   0  0  0  0  0  3  0  0  0  0  0  0
  191.3240  172.5020  142.4910 S   0  0  0  0  0  0  0  0  0  0  0  0
  189.2530  175.6190  142.5710 C   0  0  0  0  0  0  0  0  0  0  0  0
  190.6250  174.6730  144.1150 N   0  0  0  0  0  0  0  0  0  0  0  0
  190.6250  171.7070  139.9590 N   0  0  0  0  0  0  0  0  0  0  0  0
  189.7710  175.6980  143.8590 C   0  0  0  0  0  0  0  0  0  0  0  0
  189.8100  174.4890  142.0240 C   0  0  0  0  0  0  0  0  0  0  0  0
  189.0190  173.9610  139.7040 C   0  0  0  0  0  3  0  0  0  0  0  0
  189.1230  173.0470  138.6980 N   0  0  0  0  0  0  0  0  0  0  0  0
  190.5410  172.6020  140.9710 C   0  0  0  0  0  0  0  0  0  0  0  0
  190.6150  173.9570  142.9740 C   0  0  0  0  0  0  0  0  0  0  0  0
  189.9930  170.9760  137.7010 C   0  0  0  0  0  0  0  0  0  0  0  0
  190.6480  171.3480  136.4860 N   0  0  0  0  0  2  0  0  0  0  0  0
  190.7580  170.4330  135.3610 C   0  0  0  0  0  1  0  0  0  0  0  0
  189.4840  169.8280  137.8210 O   0  0  0  0  0  0  0  0  0  0  0  0
  191.2890  174.3420  145.3690 C   0  0  0  0  0  2  0  0  0  0  0  0
  192.7350  175.9690  146.6520 C   0  0  0  0  0  3  0  0  0  0  0  0
  193.5210  175.2170  144.5550 C   0  0  0  0  0  3  0  0  0  0  0  0
  194.2100  176.7400  146.4120 S   0  0  0  0  0  0  0  0  0  0  0  0
  192.5190  175.1670  145.5340 C   0  0  0  0  0  0  0  0  0  0  0  0
  194.5550  176.0650  144.9120 C   0  0  0  0  0  0  0  0  0  0  0  0
  195.6530  176.3270  142.8010 N   0  0  0  0  0  2  0  0  0  0  0  0
  195.7290  176.3430  144.0890 C   0  0  0  0  0  3  0  0  0  0  0  0
  186.9320  178.5770  142.4800 C   0  0  0  0  0  2  0  0  0  0  0  0
  185.6110  178.3730  143.2030 C   0  0  0  0  0  2  0  0  0  0  0  0
  185.4650  179.3660  144.3430 C   0  0  0  0  0  2  0  0  0  0  0  0
  185.2970  176.8730  145.7710 O   0  0  0  0  0  0  0  0  0  0  0  0
  185.8790  179.2300  147.2910 C   0  0  0  0  0  1  0  0  0  0  0  0
  184.9710  178.5300  145.8830 P   0  0  1  0  0  0  0  0  0  0  0  0
  183.4880  178.7320  146.1010 O   0  0  0  0  0  1  0  0  0  0  0  0
  1  8  2  0  0  0  0
  1  3  1  0  0  0  0
  2 10  2  0  0  0  0
  3  5  2  0  0  0  0
  4 15  2  0  0  0  0
  4 12  1  0  0  0  0
  5  6  1  0  0  0  0
  7 16  1  0  0  0  0
  8 11  1  0  0  0  0
  9 21  1  0  0  0  0
 10 15  1  0  0  0  0
 11  9  1  0  0  0  0
 11  6  2  0  0  0  0
 12  8  1  0  0  0  0
 12 16  2  0  0  0  0
 13  4  1  0  0  0  0
 14  2  1  0  0  0  0
 14 13  2  0  0  0  0
 15  7  1  0  0  0  0
 16  9  1  0  0  0  0
 17 20  2  0  0  0  0
 17  2  1  0  0  0  0
 18 17  1  0  0  0  0
 19 18  1  0  0  0  0
 21 25  1  0  0  0  0
 23 26  2  0  0  0  0
 23 25  1  0  0  0  0
 24 22  1  0  0  0  0
 25 22  2  0  0  0  0
 26 24  1  0  0  0  0
 27 28  2  0  0  0  0
 28 26  1  0  0  0  0
 29  3  1  0  0  0  0
 29 30  1  0  0  0  0
 30 31  1  0  0  0  0
 31 34  1  0  0  0  0
 32 34  2  0  0  0  0
 34 35  1  0  0  0  0
 34 33  1  1  0  0  0
M  END
>  <MODEL>
4

>  <REMARK>
 VINA RESULT:      -6.8      4.012      6.809
  Name = 
  8 active torsions:
  status: ('A' for Active; 'I' for Inactive)
    1  A    between atoms: C_2  and  C_30
    2  A    between atoms: C_2  and  C_32
    3  A    between atoms: C_5  and  C_7
    4  A    between atoms: C_8  and  C_30
    5  A    between atoms: C_14  and  C_19
    6  A    between atoms: C_17  and  C_22
    7  A    between atoms: N_20  and  C_22
    8  A    between atoms: P_23  and  C_32
                            x       y       z     vdW  Elec       q    Type
                         _______ _______ _______ _____ _____    ______ ____

>  <TORSDO>
F 8

$$$$
=
 OpenBabel11042418183D

 35 39  0  0  0  0  0  0  0  0999 V2000
  188.3130  176.0210  144.6670 C   0  0  0  0  0  3  0  0  0  0  0  0
  187.8810  175.1670  138.8850 C   0  0  0  0  0  0  0  0  0  0  0  0
  188.3990  176.1260  146.0680 C   0  0  0  0  0  0  0  0  0  0  0  0
  188.6440  174.9320  141.5040 C   0  0  0  0  0  0  0  0  0  0  0  0
  189.1930  175.2210  146.8100 C   0  0  0  0  0  3  0  0  0  0  0  0
  189.9210  174.2020  146.1690 C   0  0  0  0  0  3  0  0  0  0  0  0
  190.1510  172.8590  141.2010 S   0  0  0  0  0  0  0  0  0  0  0  0
  189.0470  175.0090  144.0580 C   0  0  0  0  0  0  0  0  0  0  0  0
  190.4190  173.2020  143.9670 N   0  0  0  0  0  0  0  0  0  0  0  0
  188.7380  174.1620  139.2420 N   0  0  0  0  0  0  0  0  0  0  0  0
  189.8330  174.1180  144.7800 C   0  0  0  0  0  0  0  0  0  0  0  0
  189.1530  174.6110  142.7490 C   0  0  0  0  0  0  0  0  0  0  0  0
  187.7700  175.9470  141.1400 C   0  0  0  0  0  3  0  0  0  0  0  0
  187.4090  176.0410  139.8290 N   0  0  0  0  0  0  0  0  0  0  0  0
  189.1140  174.0500  140.5380 C   0  0  0  0  0  0  0  0  0  0  0  0
  189.9740  173.5330  142.7390 C   0  0  0  0  0  0  0  0  0  0  0  0
  187.4630  175.3090  137.4840 C   0  0  0  0  0  0  0  0  0  0  0  0
  186.2660  176.0220  137.1660 N   0  0  0  0  0  2  0  0  0  0  0  0
  185.8150  176.1950  135.7940 C   0  0  0  0  0  1  0  0  0  0  0  0
  188.1620  174.8020  136.5640 O   0  0  0  0  0  0  0  0  0  0  0  0
  191.2260  172.0480  144.3400 C   0  0  0  0  0  2  0  0  0  0  0  0
  193.4350  171.9840  143.1140 C   0  0  0  0  0  3  0  0  0  0  0  0
  193.3760  173.0540  145.2190 C   0  0  0  0  0  3  0  0  0  0  0  0
  195.0030  172.5190  143.4000 S   0  0  0  0  0  0  0  0  0  0  0  0
  192.6750  172.3710  144.2160 C   0  0  0  0  0  0  0  0  0  0  0  0
  194.7120  173.2220  144.8990 C   0  0  0  0  0  0  0  0  0  0  0  0
  196.8320  174.2700  145.2720 N   0  0  0  0  0  2  0  0  0  0  0  0
  195.7020  173.8740  145.7530 C   0  0  0  0  0  3  0  0  0  0  0  0
  187.6280  177.1820  146.7810 C   0  0  0  0  0  2  0  0  0  0  0  0
  186.1610  177.1120  146.3890 C   0  0  0  0  0  2  0  0  0  0  0  0
  185.5540  178.5040  146.3320 C   0  0  0  0  0  2  0  0  0  0  0  0
  185.5810  180.2600  144.0510 O   0  0  0  0  0  0  0  0  0  0  0  0
  185.2040  177.4630  143.5610 C   0  0  0  0  0  1  0  0  0  0  0  0
  184.8750  178.8550  144.6800 P   0  0  1  0  0  0  0  0  0  0  0  0
  183.3810  179.0570  144.7920 O   0  0  0  0  0  1  0  0  0  0  0  0
  1  3  1  0  0  0  0
  2 10  2  0  0  0  0
  2 14  1  0  0  0  0
  3 29  1  0  0  0  0
  3  5  2  0  0  0  0
  4 12  1  0  0  0  0
  6  5  1  0  0  0  0
  7 16  1  0  0  0  0
  8  1  2  0  0  0  0
  8 11  1  0  0  0  0
  9 21  1  0  0  0  0
  9 11  1  0  0  0  0
 10 15  1  0  0  0  0
 11  6  2  0  0  0  0
 12  8  1  0  0  0  0
 13  4  1  0  0  0  0
 14 13  2  0  0  0  0
 15  7  1  0  0  0  0
 15  4  2  0  0  0  0
 16 12  2  0  0  0  0
 16  9  1  0  0  0  0
 17  2  1  0  0  0  0
 18 17  1  0  0  0  0
 19 18  1  0  0  0  0
 20 17  2  0  0  0  0
 22 24  1  0  0  0  0
 22 25  2  0  0  0  0
 24 26  1  0  0  0  0
 25 21  1  0  0  0  0
 25 23  1  0  0  0  0
 26 23  2  0  0  0  0
 26 28  1  0  0  0  0
 27 28  2  0  0  0  0
 30 29  1  0  0  0  0
 31 30  1  0  0  0  0
 32 34  2  0  0  0  0
 34 33  1  6  0  0  0
 34 35  1  0  0  0  0
 34 31  1  0  0  0  0
M  END
>  <MODEL>
5

>  <REMARK>
 VINA RESULT:      -6.7      4.330      7.522
  Name = 
  8 active torsions:
  status: ('A' for Active; 'I' for Inactive)
    1  A    between atoms: C_2  and  C_30
    2  A    between atoms: C_2  and  C_32
    3  A    between atoms: C_5  and  C_7
    4  A    between atoms: C_8  and  C_30
    5  A    between atoms: C_14  and  C_19
    6  A    between atoms: C_17  and  C_22
    7  A    between atoms: N_20  and  C_22
    8  A    between atoms: P_23  and  C_32
                            x       y       z     vdW  Elec       q    Type
                         _______ _______ _______ _____ _____    ______ ____

>  <TORSDO>
F 8

$$$$
=
 OpenBabel11042418183D

 35 39  0  0  0  0  0  0  0  0999 V2000
  188.6690  176.1820  144.7410 C   0  0  0  0  0  3  0  0  0  0  0  0
  189.6110  172.6110  140.1910 C   0  0  0  0  0  0  0  0  0  0  0  0
  188.4680  176.9620  145.8960 C   0  0  0  0  0  0  0  0  0  0  0  0
  189.9570  174.0200  142.5130 C   0  0  0  0  0  0  0  0  0  0  0  0
  189.4420  176.9940  146.9210 C   0  0  0  0  0  3  0  0  0  0  0  0
  190.6350  176.2570  146.8100 C   0  0  0  0  0  3  0  0  0  0  0  0
  192.2420  173.0040  143.1510 S   0  0  0  0  0  0  0  0  0  0  0  0
  189.8580  175.4680  144.6540 C   0  0  0  0  0  0  0  0  0  0  0  0
  191.8740  174.6910  145.3560 N   0  0  0  0  0  0  0  0  0  0  0  0
  190.7470  172.4150  140.9260 N   0  0  0  0  0  0  0  0  0  0  0  0
  190.8230  175.4970  145.6550 C   0  0  0  0  0  0  0  0  0  0  0  0
  190.3420  174.5980  143.7080 C   0  0  0  0  0  0  0  0  0  0  0  0
  188.8020  174.2130  141.7680 C   0  0  0  0  0  3  0  0  0  0  0  0
  188.6570  173.4990  140.6150 N   0  0  0  0  0  0  0  0  0  0  0  0
  190.9160  173.1140  142.0730 C   0  0  0  0  0  0  0  0  0  0  0  0
  191.5390  174.1580  144.1650 C   0  0  0  0  0  0  0  0  0  0  0  0
  189.4100  171.8650  138.9410 C   0  0  0  0  0  0  0  0  0  0  0  0
  189.9030  170.5290  138.8200 N   0  0  0  0  0  2  0  0  0  0  0  0
  189.7230  169.7490  137.6070 C   0  0  0  0  0  1  0  0  0  0  0  0
  188.8020  172.4060  137.9770 O   0  0  0  0  0  0  0  0  0  0  0  0
  193.0290  174.3670  146.1830 C   0  0  0  0  0  2  0  0  0  0  0  0
  195.3160  173.6040  145.4270 C   0  0  0  0  0  3  0  0  0  0  0  0
  194.5300  175.6820  144.6250 C   0  0  0  0  0  3  0  0  0  0  0  0
  196.5410  174.2100  144.4460 S   0  0  0  0  0  0  0  0  0  0  0  0
  194.2860  174.5430  145.4030 C   0  0  0  0  0  0  0  0  0  0  0  0
  195.7690  175.6390  144.0110 C   0  0  0  0  0  0  0  0  0  0  0  0
  197.5760  176.9710  143.1790 N   0  0  0  0  0  2  0  0  0  0  0  0
  196.3160  176.6890  143.1560 C   0  0  0  0  0  3  0  0  0  0  0  0
  187.2090  177.7410  146.0550 C   0  0  0  0  0  2  0  0  0  0  0  0
  186.0160  176.8950  145.6410 C   0  0  0  0  0  2  0  0  0  0  0  0
  184.9600  177.7530  144.9660 C   0  0  0  0  0  2  0  0  0  0  0  0
  186.0120  176.5010  142.5970 O   0  0  0  0  0  0  0  0  0  0  0  0
  183.7360  178.2130  142.2870 C   0  0  0  0  0  1  0  0  0  0  0  0
  185.2880  177.9150  143.1820 P   0  0  1  0  0  0  0  0  0  0  0  0
  186.2210  179.0830  142.9550 O   0  0  0  0  0  1  0  0  0  0  0  0
  1  3  1  0  0  0  0
  2 14  1  0  0  0  0
  2 10  2  0  0  0  0
  3 29  1  0  0  0  0
  3  5  2  0  0  0  0
  4 12  1  0  0  0  0
  6  5  1  0  0  0  0
  7 16  1  0  0  0  0
  8  1  2  0  0  0  0
  8 11  1  0  0  0  0
  9 11  1  0  0  0  0
  9 21  1  0  0  0  0
 10 15  1  0  0  0  0
 11  6  2  0  0  0  0
 12 16  2  0  0  0  0
 12  8  1  0  0  0  0
 13  4  1  0  0  0  0
 14 13  2  0  0  0  0
 15  4  2  0  0  0  0
 15  7  1  0  0  0  0
 16  9  1  0  0  0  0
 17  2  1  0  0  0  0
 18 17  1  0  0  0  0
 19 18  1  0  0  0  0
 20 17  2  0  0  0  0
 23 25  1  0  0  0  0
 24 22  1  0  0  0  0
 25 22  2  0  0  0  0
 25 21  1  0  0  0  0
 26 24  1  0  0  0  0
 26 23  2  0  0  0  0
 28 27  2  0  0  0  0
 28 26  1  0  0  0  0
 30 29  1  0  0  0  0
 31 30  1  0  0  0  0
 32 34  2  0  0  0  0
 34 33  1  6  0  0  0
 34 31  1  0  0  0  0
 35 34  1  0  0  0  0
M  END
>  <MODEL>
6

>  <REMARK>
 VINA RESULT:      -6.7      4.030      7.235
  Name = 
  8 active torsions:
  status: ('A' for Active; 'I' for Inactive)
    1  A    between atoms: C_2  and  C_30
    2  A    between atoms: C_2  and  C_32
    3  A    between atoms: C_5  and  C_7
    4  A    between atoms: C_8  and  C_30
    5  A    between atoms: C_14  and  C_19
    6  A    between atoms: C_17  and  C_22
    7  A    between atoms: N_20  and  C_22
    8  A    between atoms: P_23  and  C_32
                            x       y       z     vdW  Elec       q    Type
                         _______ _______ _______ _____ _____    ______ ____

>  <TORSDO>
F 8

$$$$
=
 OpenBabel11042418183D

 35 39  0  0  0  0  0  0  0  0999 V2000
  191.0520  175.9380  145.2830 C   0  0  0  0  0  3  0  0  0  0  0  0
  185.7530  177.7270  143.5320 C   0  0  0  0  0  0  0  0  0  0  0  0
  192.2860  175.4140  145.7140 C   0  0  0  0  0  0  0  0  0  0  0  0
  188.0960  176.3240  143.7300 C   0  0  0  0  0  0  0  0  0  0  0  0
  192.8030  174.2280  145.1420 C   0  0  0  0  0  3  0  0  0  0  0  0
  192.1050  173.5490  144.1260 C   0  0  0  0  0  3  0  0  0  0  0  0
  187.5120  174.5030  141.9970 S   0  0  0  0  0  0  0  0  0  0  0  0
  190.3860  175.2510  144.2750 C   0  0  0  0  0  0  0  0  0  0  0  0
  190.0410  173.5840  142.7700 N   0  0  0  0  0  0  0  0  0  0  0  0
  185.9330  176.6170  142.7540 N   0  0  0  0  0  0  0  0  0  0  0  0
  190.8900  174.0870  143.7040 C   0  0  0  0  0  0  0  0  0  0  0  0
  189.1730  175.4590  143.6660 C   0  0  0  0  0  0  0  0  0  0  0  0
  187.9090  177.4470  144.5230 C   0  0  0  0  0  3  0  0  0  0  0  0
  186.7340  178.1270  144.4020 N   0  0  0  0  0  0  0  0  0  0  0  0
  187.0930  175.9260  142.8530 C   0  0  0  0  0  0  0  0  0  0  0  0
  189.0060  174.4460  142.7820 C   0  0  0  0  0  0  0  0  0  0  0  0
  184.5030  178.4930  143.4370 C   0  0  0  0  0  0  0  0  0  0  0  0
  183.5610  178.1960  142.4030 N   0  0  0  0  0  2  0  0  0  0  0  0
  182.3080  178.9220  142.2730 C   0  0  0  0  0  1  0  0  0  0  0  0
  184.2640  179.4110  144.2680 O   0  0  0  0  0  0  0  0  0  0  0  0
  190.1520  172.3360  142.0280 C   0  0  0  0  0  2  0  0  0  0  0  0
  189.5410  172.2100  139.5790 C   0  0  0  0  0  3  0  0  0  0  0  0
  191.5730  173.2710  140.1520 C   0  0  0  0  0  3  0  0  0  0  0  0
  190.2320  172.6950  138.1240 S   0  0  0  0  0  0  0  0  0  0  0  0
  190.4130  172.6150  140.5870 C   0  0  0  0  0  0  0  0  0  0  0  0
  191.6130  173.3980  138.7750 C   0  0  0  0  0  0  0  0  0  0  0  0
  192.4620  174.8770  137.0940 N   0  0  0  0  0  2  0  0  0  0  0  0
  192.7040  174.0150  138.0230 C   0  0  0  0  0  3  0  0  0  0  0  0
  193.0430  176.0960  146.7990 C   0  0  0  0  0  2  0  0  0  0  0  0
  194.5300  176.0860  146.4850 C   0  0  0  0  0  2  0  0  0  0  0  0
  194.8490  177.0650  145.3680 C   0  0  0  0  0  2  0  0  0  0  0  0
  196.9980  177.2340  143.4600 O   0  0  0  0  0  1  0  0  0  0  0  0
  196.4250  174.6610  144.5800 C   0  0  0  0  0  1  0  0  0  0  0  0
  195.7400  176.2430  144.0100 P   0  0  1  0  0  0  0  0  0  0  0  0
  194.7780  175.9830  142.8720 O   0  0  0  0  0  0  0  0  0  0  0  0
  1  3  1  0  0  0  0
  2 14  1  0  0  0  0
  3 29  1  0  0  0  0
  4 13  1  0  0  0  0
  5  3  2  0  0  0  0
  6  5  1  0  0  0  0
  7 16  1  0  0  0  0
  7 15  1  0  0  0  0
  8  1  2  0  0  0  0
  9 16  1  0  0  0  0
  9 11  1  0  0  0  0
 10 15  1  0  0  0  0
 10  2  2  0  0  0  0
 11  6  2  0  0  0  0
 11  8  1  0  0  0  0
 12  4  1  0  0  0  0
 12  8  1  0  0  0  0
 14 13  2  0  0  0  0
 15  4  2  0  0  0  0
 16 12  2  0  0  0  0
 17  2  1  0  0  0  0
 17 20  2  0  0  0  0
 18 17  1  0  0  0  0
 19 18  1  0  0  0  0
 21  9  1  0  0  0  0
 22 25  2  0  0  0  0
 23 25  1  0  0  0  0
 24 26  1  0  0  0  0
 24 22  1  0  0  0  0
 25 21  1  0  0  0  0
 26 23  2  0  0  0  0
 27 28  2  0  0  0  0
 28 26  1  0  0  0  0
 30 29  1  0  0  0  0
 31 30  1  0  0  0  0
 32 34  1  0  0  0  0
 34 33  1  1  0  0  0
 34 31  1  0  0  0  0
 35 34  2  0  0  0  0
M  END
>  <MODEL>
7

>  <REMARK>
 VINA RESULT:      -6.5      2.940      6.946
  Name = 
  8 active torsions:
  status: ('A' for Active; 'I' for Inactive)
    1  A    between atoms: C_2  and  C_30
    2  A    between atoms: C_2  and  C_32
    3  A    between atoms: C_5  and  C_7
    4  A    between atoms: C_8  and  C_30
    5  A    between atoms: C_14  and  C_19
    6  A    between atoms: C_17  and  C_22
    7  A    between atoms: N_20  and  C_22
    8  A    between atoms: P_23  and  C_32
                            x       y       z     vdW  Elec       q    Type
                         _______ _______ _______ _____ _____    ______ ____

>  <TORSDO>
F 8

$$$$
=
 OpenBabel11042418183D

 35 39  0  0  0  0  0  0  0  0999 V2000
  186.4860  176.8000  140.5120 C   0  0  0  0  0  3  0  0  0  0  0  0
  189.9840  172.2660  139.2710 C   0  0  0  0  0  0  0  0  0  0  0  0
  185.6470  177.8600  140.9090 C   0  0  0  0  0  0  0  0  0  0  0  0
  188.9640  174.5330  140.4200 C   0  0  0  0  0  0  0  0  0  0  0  0
  185.9800  178.6630  142.0240 C   0  0  0  0  0  3  0  0  0  0  0  0
  187.1580  178.4310  142.7580 C   0  0  0  0  0  3  0  0  0  0  0  0
  190.7520  174.7720  142.2660 S   0  0  0  0  0  0  0  0  0  0  0  0
  187.6450  176.5970  141.2510 C   0  0  0  0  0  0  0  0  0  0  0  0
  189.1380  176.9640  142.9230 N   0  0  0  0  0  0  0  0  0  0  0  0
  190.6280  172.8170  140.3440 N   0  0  0  0  0  0  0  0  0  0  0  0
  187.9820  177.3840  142.3460 C   0  0  0  0  0  0  0  0  0  0  0  0
  188.6370  175.6510  141.1640 C   0  0  0  0  0  0  0  0  0  0  0  0
  188.3090  173.9680  139.3350 C   0  0  0  0  0  3  0  0  0  0  0  0
  188.8400  172.8410  138.7810 N   0  0  0  0  0  0  0  0  0  0  0  0
  190.1220  173.9380  140.9090 C   0  0  0  0  0  0  0  0  0  0  0  0
  189.5010  175.9030  142.1760 C   0  0  0  0  0  0  0  0  0  0  0  0
  190.5190  171.0520  138.6400 C   0  0  0  0  0  0  0  0  0  0  0  0
  189.6940  169.8910  138.5150 N   0  0  0  0  0  2  0  0  0  0  0  0
  190.1750  168.6690  137.8920 C   0  0  0  0  0  1  0  0  0  0  0  0
  191.7050  171.0350  138.2100 O   0  0  0  0  0  0  0  0  0  0  0  0
  189.7700  177.4530  144.1410 C   0  0  0  0  0  2  0  0  0  0  0  0
  189.6780  175.7060  145.9650 C   0  0  0  0  0  3  0  0  0  0  0  0
  187.9370  177.3010  145.8820 C   0  0  0  0  0  3  0  0  0  0  0  0
  188.6400  175.3180  147.2300 S   0  0  0  0  0  0  0  0  0  0  0  0
  189.1380  176.8260  145.3360 C   0  0  0  0  0  0  0  0  0  0  0  0
  187.5270  176.5510  146.9700 C   0  0  0  0  0  0  0  0  0  0  0  0
  185.9250  177.9840  148.0240 N   0  0  0  0  0  2  0  0  0  0  0  0
  186.3040  176.7850  147.7340 C   0  0  0  0  0  3  0  0  0  0  0  0
  184.3840  178.1240  140.1650 C   0  0  0  0  0  2  0  0  0  0  0  0
  183.2620  178.4470  141.1390 C   0  0  0  0  0  2  0  0  0  0  0  0
  181.9100  178.1360  140.5200 C   0  0  0  0  0  2  0  0  0  0  0  0
  180.2330  180.4750  140.5030 O   0  0  0  0  0  0  0  0  0  0  0  0
  179.0830  178.0320  141.4570 C   0  0  0  0  0  1  0  0  0  0  0  0
  180.5790  179.0550  141.3560 P   0  0  1  0  0  0  0  0  0  0  0  0
  181.0280  179.4120  142.7560 O   0  0  0  0  0  1  0  0  0  0  0  0
  1  3  2  0  0  0  0
  1  8  1  0  0  0  0
  2 10  2  0  0  0  0
  3  5  1  0  0  0  0
  4 15  2  0  0  0  0
  4 12  1  0  0  0  0
  5  6  2  0  0  0  0
  8 11  2  0  0  0  0
  9 21  1  0  0  0  0
 10 15  1  0  0  0  0
 11  6  1  0  0  0  0
 11  9  1  0  0  0  0
 12  8  1  0  0  0  0
 12 16  2  0  0  0  0
 13  4  1  0  0  0  0
 14  2  1  0  0  0  0
 14 13  2  0  0  0  0
 15  7  1  0  0  0  0
 16  7  1  0  0  0  0
 16  9  1  0  0  0  0
 17  2  1  0  0  0  0
 18 17  1  0  0  0  0
 19 18  1  0  0  0  0
 20 17  2  0  0  0  0
 21 25  1  0  0  0  0
 22 24  1  0  0  0  0
 23 26  2  0  0  0  0
 25 23  1  0  0  0  0
 25 22  2  0  0  0  0
 26 24  1  0  0  0  0
 26 28  1  0  0  0  0
 28 27  2  0  0  0  0
 29  3  1  0  0  0  0
 29 30  1  0  0  0  0
 31 30  1  0  0  0  0
 31 34  1  0  0  0  0
 32 34  2  0  0  0  0
 34 33  1  1  0  0  0
 34 35  1  0  0  0  0
M  END
>  <MODEL>
8

>  <REMARK>
 VINA RESULT:      -6.4      4.425      7.026
  Name = 
  8 active torsions:
  status: ('A' for Active; 'I' for Inactive)
    1  A    between atoms: C_2  and  C_30
    2  A    between atoms: C_2  and  C_32
    3  A    between atoms: C_5  and  C_7
    4  A    between atoms: C_8  and  C_30
    5  A    between atoms: C_14  and  C_19
    6  A    between atoms: C_17  and  C_22
    7  A    between atoms: N_20  and  C_22
    8  A    between atoms: P_23  and  C_32
                            x       y       z     vdW  Elec       q    Type
                         _______ _______ _______ _____ _____    ______ ____

>  <TORSDO>
F 8

$$$$
=
 OpenBabel11042418183D

 35 39  0  0  0  0  0  0  0  0999 V2000
  189.9560  173.2610  140.9030 C   0  0  0  0  0  3  0  0  0  0  0  0
  186.4410  177.1040  143.5890 C   0  0  0  0  0  0  0  0  0  0  0  0
  190.8480  172.4160  140.2140 C   0  0  0  0  0  0  0  0  0  0  0  0
  188.6760  175.8070  142.6850 C   0  0  0  0  0  0  0  0  0  0  0  0
  192.2380  172.6740  140.2290 C   0  0  0  0  0  3  0  0  0  0  0  0
  192.7650  173.7700  140.9360 C   0  0  0  0  0  3  0  0  0  0  0  0
  190.4000  177.5030  143.5860 S   0  0  0  0  0  0  0  0  0  0  0  0
  190.5030  174.3320  141.5990 C   0  0  0  0  0  0  0  0  0  0  0  0
  192.1510  175.7110  142.3350 N   0  0  0  0  0  0  0  0  0  0  0  0
  187.6720  177.6400  143.8460 N   0  0  0  0  0  0  0  0  0  0  0  0
  191.8690  174.5900  141.6210 C   0  0  0  0  0  0  0  0  0  0  0  0
  189.9290  175.3470  142.3240 C   0  0  0  0  0  0  0  0  0  0  0  0
  187.4250  175.2680  142.4200 C   0  0  0  0  0  3  0  0  0  0  0  0
  186.3300  175.9330  142.8840 N   0  0  0  0  0  0  0  0  0  0  0  0
  188.7750  176.9960  143.3990 C   0  0  0  0  0  0  0  0  0  0  0  0
  190.9420  176.1450  142.7400 C   0  0  0  0  0  0  0  0  0  0  0  0
  185.2310  177.7850  144.0690 C   0  0  0  0  0  0  0  0  0  0  0  0
  185.0820  178.0800  145.4600 N   0  0  0  0  0  2  0  0  0  0  0  0
  183.9070  178.7580  145.9810 C   0  0  0  0  0  1  0  0  0  0  0  0
  184.3250  178.1080  143.2530 O   0  0  0  0  0  0  0  0  0  0  0  0
  193.4380  176.3710  142.5090 C   0  0  0  0  0  2  0  0  0  0  0  0
  193.8050  176.3890  145.0090 C   0  0  0  0  0  3  0  0  0  0  0  0
  195.1060  174.8980  143.7180 C   0  0  0  0  0  3  0  0  0  0  0  0
  194.8010  175.5850  146.1010 S   0  0  0  0  0  0  0  0  0  0  0  0
  194.1050  175.8790  143.7480 C   0  0  0  0  0  0  0  0  0  0  0  0
  195.5970  174.6160  144.9810 C   0  0  0  0  0  0  0  0  0  0  0  0
  197.0670  173.4660  146.4800 N   0  0  0  0  0  2  0  0  0  0  0  0
  196.6600  173.6570  145.2700 C   0  0  0  0  0  3  0  0  0  0  0  0
  190.3240  171.2570  139.4400 C   0  0  0  0  0  2  0  0  0  0  0  0
  190.8320  171.3110  138.0090 C   0  0  0  0  0  2  0  0  0  0  0  0
  189.7030  171.6570  137.0520 C   0  0  0  0  0  2  0  0  0  0  0  0
  189.2960  173.7560  135.1260 O   0  0  0  0  0  0  0  0  0  0  0  0
  188.3070  174.1880  137.7790 C   0  0  0  0  0  1  0  0  0  0  0  0
  189.6170  173.4510  136.7590 P   0  0  1  0  0  0  0  0  0  0  0  0
  190.9430  174.0770  137.1310 O   0  0  0  0  0  1  0  0  0  0  0  0
  1  8  1  0  0  0  0
  2 10  2  0  0  0  0
  2 17  1  0  0  0  0
  3  5  1  0  0  0  0
  3  1  2  0  0  0  0
  4 15  2  0  0  0  0
  5  6  2  0  0  0  0
  6 11  1  0  0  0  0
  8 11  2  0  0  0  0
  8 12  1  0  0  0  0
  9 21  1  0  0  0  0
  9 16  1  0  0  0  0
 11  9  1  0  0  0  0
 12  4  1  0  0  0  0
 12 16  2  0  0  0  0
 13  4  1  0  0  0  0
 13 14  2  0  0  0  0
 14  2  1  0  0  0  0
 15  7  1  0  0  0  0
 15 10  1  0  0  0  0
 16  7  1  0  0  0  0
 17 18  1  0  0  0  0
 18 19  1  0  0  0  0
 20 17  2  0  0  0  0
 21 25  1  0  0  0  0
 22 24  1  0  0  0  0
 23 25  1  0  0  0  0
 23 26  2  0  0  0  0
 25 22  2  0  0  0  0
 26 28  1  0  0  0  0
 26 24  1  0  0  0  0
 28 27  2  0  0  0  0
 29  3  1  0  0  0  0
 30 29  1  0  0  0  0
 31 30  1  0  0  0  0
 32 34  2  0  0  0  0
 34 31  1  0  0  0  0
 34 35  1  0  0  0  0
 34 33  1  1  0  0  0
M  END
>  <MODEL>
9

>  <REMARK>
 VINA RESULT:      -6.3      4.280      9.036
  Name = 
  8 active torsions:
  status: ('A' for Active; 'I' for Inactive)
    1  A    between atoms: C_2  and  C_30
    2  A    between atoms: C_2  and  C_32
    3  A    between atoms: C_5  and  C_7
    4  A    between atoms: C_8  and  C_30
    5  A    between atoms: C_14  and  C_19
    6  A    between atoms: C_17  and  C_22
    7  A    between atoms: N_20  and  C_22
    8  A    between atoms: P_23  and  C_32
                            x       y       z     vdW  Elec       q    Type
                         _______ _______ _______ _____ _____    ______ ____

>  <TORSDO>
F 8

$$$$
