=
 OpenBabel11042414443D

 36 40  0  0  1  0  0  0  0  0999 V2000
  189.8640  173.5450  141.1570 C   0  0  0  0  0  2  0  0  0  0  0  0
  193.4270  174.5230  141.7060 C   0  0  0  0  0  0  0  0  0  0  0  0
  191.0710  175.1150  142.4840 C   0  0  2  0  0  3  0  0  0  0  0  0
  191.2120  176.6220  142.6910 C   0  0  0  0  0  2  0  0  0  0  0  0
  188.9770  176.1510  143.9150 C   0  0  1  0  0  3  0  0  0  0  0  0
  191.3150  173.5760  140.6750 C   0  0  0  0  0  2  0  0  0  0  0  0
  192.0010  174.5270  141.5400 N   0  0  0  0  0  0  0  0  0  0  0  0
  194.1560  173.9270  140.8690 O   0  0  0  0  0  0  0  0  0  0  0  0
  189.7220  174.8670  141.8750 C   0  0  2  0  0  3  0  0  0  0  0  0
  188.6430  174.9890  142.9440 C   0  0  0  0  0  2  0  0  0  0  0  0
  189.9310  177.2210  143.3230 C   0  0  0  0  0  2  0  0  0  0  0  0
  183.6700  178.9380  144.2950 N   0  0  0  0  0  1  0  0  0  0  0  0
  186.6860  177.2110  143.7730 C   0  0  0  0  0  0  0  0  0  0  0  0
  187.4980  177.1230  145.7270 C   0  0  0  0  0  0  0  0  0  0  0  0
  185.0810  177.8870  142.4850 C   0  0  0  0  0  0  0  0  0  0  0  0
  187.7630  176.7680  144.4380 N   0  0  0  0  0  0  0  0  0  0  0  0
  186.2610  177.7810  145.8220 C   0  0  0  0  0  3  0  0  0  0  0  0
  185.8120  177.7890  144.5560 N   0  0  0  0  0  0  0  0  0  0  0  0
  186.3240  177.2230  142.4340 C   0  0  0  0  0  3  0  0  0  0  0  0
  184.8010  178.2210  143.8080 C   0  0  0  0  0  0  0  0  0  0  0  0
  183.5930  178.4270  140.4300 N   0  0  0  0  0  0  0  0  0  0  0  0
  184.2570  178.1870  141.3470 C   0  0  0  0  0  0  0  0  0  0  0  0
  188.4340  176.9030  146.8680 C   0  0  0  0  0  2  0  0  0  0  0  0
  188.5330  175.4200  147.1750 C   0  0  0  0  0  2  0  0  0  0  0  0
  189.9290  175.0190  147.2180 N   0  0  0  0  0  2  0  0  0  0  0  0
  190.7210  176.2370  147.2790 C   0  0  0  0  0  2  0  0  0  0  0  0
  191.9320  176.1140  146.3710 C   0  0  1  0  0  3  0  0  0  0  0  0
  193.0530  176.6180  147.0270 O   0  0  0  0  0  1  0  0  0  0  0  0
  192.1710  174.6600  146.0140 C   0  0  0  0  0  1  0  0  0  0  0  0
  194.0700  175.1830  142.8840 C   0  0  0  0  0  2  0  0  0  0  0  0
  195.5210  175.1540  142.7510 N   0  0  0  0  0  0  0  0  0  0  0  0
  195.8740  173.3100  144.4790 C   0  0  0  0  0  1  0  0  0  0  0  0
  197.8550  176.0920  143.0000 C   0  0  0  0  0  2  0  0  0  0  0  0
  197.5460  174.9260  143.8160 N   0  0  0  0  0  0  0  0  0  0  0  0
  196.3470  174.4770  143.6840 C   0  0  0  0  0  0  0  0  0  0  0  0
  196.4030  176.4490  141.9450 S   0  0  0  0  0  0  0  0  0  0  0  0
  2 30  1  0  0  0  0
  3  4  1  6  0  0  0
  4 11  1  0  0  0  0
  5 10  1  6  0  0  0
  5 16  1  0  0  0  0
  6  1  1  0  0  0  0
  6  7  1  0  0  0  0
  7  2  1  0  0  0  0
  7  3  1  0  0  0  0
  8  2  2  0  0  0  0
  9  1  1  1  0  0  0
  9  3  1  0  0  0  0
  9 10  1  0  0  0  0
 11  5  1  0  0  0  0
 13 16  1  0  0  0  0
 13 18  1  0  0  0  0
 14 17  2  0  0  0  0
 14 23  1  0  0  0  0
 15 20  2  0  0  0  0
 16 14  1  0  0  0  0
 18 17  1  0  0  0  0
 19 15  1  0  0  0  0
 19 13  2  0  0  0  0
 20 12  1  0  0  0  0
 20 18  1  0  0  0  0
 21 22  3  0  0  0  0
 22 15  1  0  0  0  0
 23 24  1  0  0  0  0
 24 25  1  0  0  0  0
 25 26  1  0  0  0  0
 27 29  1  1  0  0  0
 27 28  1  0  0  0  0
 27 26  1  0  0  0  0
 31 30  1  0  0  0  0
 31 35  1  0  0  0  0
 33 34  1  0  0  0  0
 35 34  2  0  0  0  0
 35 32  1  0  0  0  0
 36 31  1  0  0  0  0
 36 33  1  0  0  0  0
M  END
>  <MODEL>
1

>  <REMARK>
 VINA RESULT:      -6.8      0.000      0.000
  Name = 
  9 active torsions:
  status: ('A' for Active; 'I' for Inactive)
    1  A    between atoms: N_1  and  C_4
    2  A    between atoms: N_1  and  C_25
    3  A    between atoms: N_2  and  C_5
    4  A    between atoms: C_4  and  C_28
    5  A    between atoms: C_5  and  C_6
    6  A    between atoms: C_10  and  C_14
    7  A    between atoms: C_10  and  C_25
    8  A    between atoms: C_15  and  N_18
    9  A    between atoms: C_16  and  C_34
                            x       y       z     vdW  Elec       q    Type
                         _______ _______ _______ _____ _____    ______ ____

>  <TORSDO>
F 9

$$$$
=
 OpenBabel11042414443D

 36 40  0  0  1  0  0  0  0  0999 V2000
  186.8570  176.5130  147.1050 C   0  0  0  0  0  2  0  0  0  0  0  0
  186.0140  179.0220  144.4690 C   0  0  0  0  0  0  0  0  0  0  0  0
  187.7360  177.2180  145.0050 C   0  0  2  0  0  3  0  0  0  0  0  0
  188.9950  177.8420  144.4030 C   0  0  0  0  0  2  0  0  0  0  0  0
  189.7670  175.3950  144.7690 C   0  0  1  0  0  3  0  0  0  0  0  0
  186.1400  177.7970  146.6840 C   0  0  0  0  0  2  0  0  0  0  0  0
  186.6990  178.1570  145.3870 N   0  0  0  0  0  0  0  0  0  0  0  0
  185.0770  179.7570  144.8790 O   0  0  0  0  0  0  0  0  0  0  0  0
  188.1300  176.5600  146.2950 C   0  0  2  0  0  3  0  0  0  0  0  0
  188.8440  175.2450  146.0060 C   0  0  0  0  0  2  0  0  0  0  0  0
  190.1880  176.8560  144.4610 C   0  0  0  0  0  2  0  0  0  0  0  0
  193.5150  170.7370  144.2020 N   0  0  0  0  0  1  0  0  0  0  0  0
  191.1810  173.3630  144.2560 C   0  0  0  0  0  0  0  0  0  0  0  0
  192.0030  174.6660  145.7100 C   0  0  0  0  0  0  0  0  0  0  0  0
  191.3350  171.4910  143.1780 C   0  0  0  0  0  0  0  0  0  0  0  0
  190.9350  174.5270  144.8740 N   0  0  0  0  0  0  0  0  0  0  0  0
  192.8810  173.5760  145.5860 C   0  0  0  0  0  3  0  0  0  0  0  0
  192.2990  172.8090  144.6510 N   0  0  0  0  0  0  0  0  0  0  0  0
  190.4860  172.6060  143.3250 C   0  0  0  0  0  3  0  0  0  0  0  0
  192.4390  171.6510  144.0110 C   0  0  0  0  0  0  0  0  0  0  0  0
  190.8760  169.4590  141.6310 N   0  0  0  0  0  0  0  0  0  0  0  0
  191.0810  170.3650  142.3220 C   0  0  0  0  0  0  0  0  0  0  0  0
  192.1740  175.7900  146.6750 C   0  0  0  0  0  2  0  0  0  0  0  0
  193.5520  176.4050  146.5120 C   0  0  0  0  0  2  0  0  0  0  0  0
  193.7060  176.9140  145.1590 N   0  0  0  0  0  2  0  0  0  0  0  0
  195.0190  176.4970  144.6930 C   0  0  0  0  0  2  0  0  0  0  0  0
  194.9340  176.0270  143.2530 C   0  0  1  0  0  3  0  0  0  0  0  0
  195.3830  174.7100  143.1690 O   0  0  0  0  0  1  0  0  0  0  0  0
  193.4990  176.0980  142.7640 C   0  0  0  0  0  1  0  0  0  0  0  0
  186.3660  179.0410  143.0150 C   0  0  0  0  0  2  0  0  0  0  0  0
  185.3640  178.3180  142.2430 N   0  0  0  0  0  0  0  0  0  0  0  0
  186.9610  177.6430  140.3700 C   0  0  0  0  0  1  0  0  0  0  0  0
  183.2960  178.1220  140.8030 C   0  0  0  0  0  2  0  0  0  0  0  0
  184.5560  177.7910  140.1560 N   0  0  0  0  0  0  0  0  0  0  0  0
  185.5970  177.9140  140.9040 C   0  0  0  0  0  0  0  0  0  0  0  0
  183.6410  178.4990  142.5610 S   0  0  0  0  0  0  0  0  0  0  0  0
  2  8  2  0  0  0  0
  2  7  1  0  0  0  0
  3  4  1  1  0  0  0
  3  7  1  0  0  0  0
  3  9  1  0  0  0  0
  4 11  1  0  0  0  0
  5 11  1  1  0  0  0
  5 16  1  0  0  0  0
  5 10  1  0  0  0  0
  6  1  1  0  0  0  0
  7  6  1  0  0  0  0
  9 10  1  6  0  0  0
  9  1  1  0  0  0  0
 13 18  1  0  0  0  0
 13 16  1  0  0  0  0
 14 23  1  0  0  0  0
 15 19  1  0  0  0  0
 15 20  2  0  0  0  0
 16 14  1  0  0  0  0
 17 14  2  0  0  0  0
 18 17  1  0  0  0  0
 19 13  2  0  0  0  0
 20 12  1  0  0  0  0
 20 18  1  0  0  0  0
 21 22  3  0  0  0  0
 22 15  1  0  0  0  0
 24 23  1  0  0  0  0
 25 24  1  0  0  0  0
 26 25  1  0  0  0  0
 27 29  1  1  0  0  0
 27 26  1  0  0  0  0
 28 27  1  0  0  0  0
 30  2  1  0  0  0  0
 31 36  1  0  0  0  0
 31 30  1  0  0  0  0
 32 35  1  0  0  0  0
 33 36  1  0  0  0  0
 34 33  1  0  0  0  0
 34 35  2  0  0  0  0
 35 31  1  0  0  0  0
M  END
>  <MODEL>
2

>  <REMARK>
 VINA RESULT:      -6.8      3.464      8.286
  Name = 
  9 active torsions:
  status: ('A' for Active; 'I' for Inactive)
    1  A    between atoms: N_1  and  C_4
    2  A    between atoms: N_1  and  C_25
    3  A    between atoms: N_2  and  C_5
    4  A    between atoms: C_4  and  C_28
    5  A    between atoms: C_5  and  C_6
    6  A    between atoms: C_10  and  C_14
    7  A    between atoms: C_10  and  C_25
    8  A    between atoms: C_15  and  N_18
    9  A    between atoms: C_16  and  C_34
                            x       y       z     vdW  Elec       q    Type
                         _______ _______ _______ _____ _____    ______ ____

>  <TORSDO>
F 9

$$$$
=
 OpenBabel11042414443D

 36 40  0  0  1  0  0  0  0  0999 V2000
  189.6960  173.8860  141.5810 C   0  0  0  0  0  2  0  0  0  0  0  0
  187.4850  176.3120  143.3640 C   0  0  0  0  0  0  0  0  0  0  0  0
  189.8150  175.2830  143.5090 C   0  0  2  0  0  3  0  0  0  0  0  0
  189.9890  175.1890  145.0240 C   0  0  0  0  0  2  0  0  0  0  0  0
  192.4200  174.8060  144.2100 C   0  0  1  0  0  3  0  0  0  0  0  0
  188.2970  174.4290  141.8750 C   0  0  0  0  0  2  0  0  0  0  0  0
  188.4430  175.2930  143.0400 N   0  0  0  0  0  0  0  0  0  0  0  0
  186.3330  176.2770  142.8560 O   0  0  0  0  0  0  0  0  0  0  0  0
  190.4000  174.0380  142.9090 C   0  0  2  0  0  3  0  0  0  0  0  0
  191.9210  174.1320  142.9070 C   0  0  0  0  0  2  0  0  0  0  0  0
  191.4190  174.7240  145.3930 C   0  0  0  0  0  2  0  0  0  0  0  0
  196.8410  171.2040  146.0930 N   0  0  0  0  0  1  0  0  0  0  0  0
  194.0960  173.0420  144.8960 C   0  0  0  0  0  0  0  0  0  0  0  0
  194.8620  175.0160  144.8470 C   0  0  0  0  0  0  0  0  0  0  0  0
  194.4360  170.9560  145.3680 C   0  0  0  0  0  0  0  0  0  0  0  0
  193.7300  174.2970  144.6000 N   0  0  0  0  0  0  0  0  0  0  0  0
  195.8990  174.1790  145.2940 C   0  0  0  0  0  3  0  0  0  0  0  0
  195.3410  172.9580  145.2890 N   0  0  0  0  0  0  0  0  0  0  0  0
  193.4260  171.8280  144.9140 C   0  0  0  0  0  3  0  0  0  0  0  0
  195.6000  171.6880  145.5900 C   0  0  0  0  0  0  0  0  0  0  0  0
  194.1440  168.4080  145.7600 N   0  0  0  0  0  0  0  0  0  0  0  0
  194.2740  169.5450  145.5850 C   0  0  0  0  0  0  0  0  0  0  0  0
  194.9590  176.4990  144.7260 C   0  0  0  0  0  2  0  0  0  0  0  0
  196.1040  176.8680  143.8010 C   0  0  0  0  0  2  0  0  0  0  0  0
  195.8230  176.3920  142.4570 N   0  0  0  0  0  2  0  0  0  0  0  0
  197.0470  175.7890  141.9530 C   0  0  0  0  0  2  0  0  0  0  0  0
  196.7470  174.4250  141.3580 C   0  0  1  0  0  3  0  0  0  0  0  0
  197.2870  173.4360  142.1780 O   0  0  0  0  0  1  0  0  0  0  0  0
  195.2480  174.2220  141.2480 C   0  0  0  0  0  1  0  0  0  0  0  0
  187.8410  177.4470  144.2710 C   0  0  0  0  0  2  0  0  0  0  0  0
  186.8400  177.5900  145.3200 N   0  0  0  0  0  0  0  0  0  0  0  0
  185.6310  179.5490  144.2200 C   0  0  0  0  0  1  0  0  0  0  0  0
  186.0390  178.1620  147.6490 C   0  0  0  0  0  2  0  0  0  0  0  0
  185.5670  179.0310  146.5810 N   0  0  0  0  0  0  0  0  0  0  0  0
  186.0010  178.7300  145.4070 C   0  0  0  0  0  0  0  0  0  0  0  0
  187.0320  176.8220  146.8940 S   0  0  0  0  0  0  0  0  0  0  0  0
  1  6  1  0  0  0  0
  2 30  1  0  0  0  0
  3  4  1  1  0  0  0
  4 11  1  0  0  0  0
  5 10  1  6  0  0  0
  5 16  1  0  0  0  0
  5 11  1  0  0  0  0
  6  7  1  0  0  0  0
  7  2  1  0  0  0  0
  7  3  1  0  0  0  0
  8  2  2  0  0  0  0
  9  1  1  6  0  0  0
  9  3  1  0  0  0  0
 10  9  1  0  0  0  0
 13 19  2  0  0  0  0
 13 18  1  0  0  0  0
 14 17  2  0  0  0  0
 15 22  1  0  0  0  0
 15 20  2  0  0  0  0
 16 14  1  0  0  0  0
 16 13  1  0  0  0  0
 18 17  1  0  0  0  0
 18 20  1  0  0  0  0
 19 15  1  0  0  0  0
 20 12  1  0  0  0  0
 22 21  3  0  0  0  0
 23 14  1  0  0  0  0
 24 23  1  0  0  0  0
 25 24  1  0  0  0  0
 26 25  1  0  0  0  0
 27 29  1  1  0  0  0
 27 26  1  0  0  0  0
 27 28  1  0  0  0  0
 30 31  1  0  0  0  0
 31 35  1  0  0  0  0
 31 36  1  0  0  0  0
 32 35  1  0  0  0  0
 34 33  1  0  0  0  0
 35 34  2  0  0  0  0
 36 33  1  0  0  0  0
M  END
>  <MODEL>
3

>  <REMARK>
 VINA RESULT:      -6.6      3.286      8.946
  Name = 
  9 active torsions:
  status: ('A' for Active; 'I' for Inactive)
    1  A    between atoms: N_1  and  C_4
    2  A    between atoms: N_1  and  C_25
    3  A    between atoms: N_2  and  C_5
    4  A    between atoms: C_4  and  C_28
    5  A    between atoms: C_5  and  C_6
    6  A    between atoms: C_10  and  C_14
    7  A    between atoms: C_10  and  C_25
    8  A    between atoms: C_15  and  N_18
    9  A    between atoms: C_16  and  C_34
                            x       y       z     vdW  Elec       q    Type
                         _______ _______ _______ _____ _____    ______ ____

>  <TORSDO>
F 9

$$$$
=
 OpenBabel11042414443D

 36 40  0  0  1  0  0  0  0  0999 V2000
  192.6490  176.6680  142.7630 C   0  0  0  0  0  2  0  0  0  0  0  0
  192.6770  173.4220  140.9150 C   0  0  0  0  0  0  0  0  0  0  0  0
  191.0830  174.9730  142.1660 C   0  0  2  0  0  3  0  0  0  0  0  0
  190.1460  173.9540  142.8110 C   0  0  0  0  0  2  0  0  0  0  0  0
  188.8060  176.1490  143.1310 C   0  0  1  0  0  3  0  0  0  0  0  0
  193.4200  175.4650  142.2170 C   0  0  0  0  0  2  0  0  0  0  0  0
  192.4100  174.4820  141.8460 N   0  0  0  0  0  0  0  0  0  0  0  0
  193.8660  173.1060  140.6460 O   0  0  0  0  0  0  0  0  0  0  0  0
  191.3260  176.0620  143.1690 C   0  0  2  0  0  3  0  0  0  0  0  0
  190.1110  176.9790  143.2400 C   0  0  0  0  0  2  0  0  0  0  0  0
  188.9640  174.6570  143.5240 C   0  0  0  0  0  2  0  0  0  0  0  0
  183.6820  178.9510  144.5340 N   0  0  0  0  0  1  0  0  0  0  0  0
  186.5330  177.2140  143.4380 C   0  0  0  0  0  0  0  0  0  0  0  0
  187.7160  177.1370  145.1940 C   0  0  0  0  0  0  0  0  0  0  0  0
  184.7060  177.8850  142.4880 C   0  0  0  0  0  0  0  0  0  0  0  0
  187.7200  176.7730  143.8790 N   0  0  0  0  0  0  0  0  0  0  0  0
  186.5220  177.7990  145.5260 C   0  0  0  0  0  3  0  0  0  0  0  0
  185.8320  177.7990  144.3750 N   0  0  0  0  0  0  0  0  0  0  0  0
  185.9130  177.2180  142.1970 C   0  0  0  0  0  3  0  0  0  0  0  0
  184.6930  178.2290  143.8380 C   0  0  0  0  0  0  0  0  0  0  0  0
  182.8410  178.4150  140.7640 N   0  0  0  0  0  0  0  0  0  0  0  0
  183.6730  178.1790  141.5330 C   0  0  0  0  0  0  0  0  0  0  0  0
  188.8590  176.9230  146.1280 C   0  0  0  0  0  2  0  0  0  0  0  0
  188.6270  175.6660  146.9470 C   0  0  0  0  0  2  0  0  0  0  0  0
  189.8830  174.9580  147.1260 N   0  0  0  0  0  2  0  0  0  0  0  0
  190.9510  175.9060  146.8550 C   0  0  0  0  0  2  0  0  0  0  0  0
  192.2850  175.1860  146.8060 C   0  0  1  0  0  3  0  0  0  0  0  0
  192.2510  174.2180  145.8040 O   0  0  0  0  0  1  0  0  0  0  0  0
  193.4010  176.1710  146.5120 C   0  0  0  0  0  1  0  0  0  0  0  0
  191.5630  172.7030  140.2220 C   0  0  0  0  0  2  0  0  0  0  0  0
  191.0710  173.4930  139.1000 N   0  0  0  0  0  0  0  0  0  0  0  0
  188.6030  173.2020  139.6780 C   0  0  0  0  0  1  0  0  0  0  0  0
  190.6370  173.9590  136.6540 C   0  0  0  0  0  2  0  0  0  0  0  0
  189.4590  173.7360  137.4800 N   0  0  0  0  0  0  0  0  0  0  0  0
  189.7060  173.4850  138.7180 C   0  0  0  0  0  0  0  0  0  0  0  0
  192.1090  173.9150  137.7400 S   0  0  0  0  0  0  0  0  0  0  0  0
  2  7  1  0  0  0  0
  3  4  1  1  0  0  0
  3  9  1  0  0  0  0
  4 11  1  0  0  0  0
  5 10  1  1  0  0  0
  5 11  1  0  0  0  0
  5 16  1  0  0  0  0
  6  1  1  0  0  0  0
  7  3  1  0  0  0  0
  7  6  1  0  0  0  0
  8  2  2  0  0  0  0
  9  1  1  6  0  0  0
  9 10  1  0  0  0  0
 13 16  1  0  0  0  0
 13 18  1  0  0  0  0
 14 17  2  0  0  0  0
 14 23  1  0  0  0  0
 15 20  2  0  0  0  0
 16 14  1  0  0  0  0
 18 17  1  0  0  0  0
 19 15  1  0  0  0  0
 19 13  2  0  0  0  0
 20 18  1  0  0  0  0
 20 12  1  0  0  0  0
 21 22  3  0  0  0  0
 22 15  1  0  0  0  0
 23 24  1  0  0  0  0
 24 25  1  0  0  0  0
 26 25  1  0  0  0  0
 27 29  1  6  0  0  0
 27 26  1  0  0  0  0
 28 27  1  0  0  0  0
 30  2  1  0  0  0  0
 31 30  1  0  0  0  0
 33 34  1  0  0  0  0
 33 36  1  0  0  0  0
 34 35  2  0  0  0  0
 35 31  1  0  0  0  0
 35 32  1  0  0  0  0
 36 31  1  0  0  0  0
M  END
>  <MODEL>
4

>  <REMARK>
 VINA RESULT:      -6.5      2.087      3.825
  Name = 
  9 active torsions:
  status: ('A' for Active; 'I' for Inactive)
    1  A    between atoms: N_1  and  C_4
    2  A    between atoms: N_1  and  C_25
    3  A    between atoms: N_2  and  C_5
    4  A    between atoms: C_4  and  C_28
    5  A    between atoms: C_5  and  C_6
    6  A    between atoms: C_10  and  C_14
    7  A    between atoms: C_10  and  C_25
    8  A    between atoms: C_15  and  N_18
    9  A    between atoms: C_16  and  C_34
                            x       y       z     vdW  Elec       q    Type
                         _______ _______ _______ _____ _____    ______ ____

>  <TORSDO>
F 9

$$$$
=
 OpenBabel11042414443D

 36 40  0  0  1  0  0  0  0  0999 V2000
  189.0900  174.4820  146.9490 C   0  0  0  0  0  2  0  0  0  0  0  0
  187.2980  177.6250  146.0200 C   0  0  0  0  0  0  0  0  0  0  0  0
  189.1950  176.1190  145.2190 C   0  0  2  0  0  3  0  0  0  0  0  0
  190.1520  177.1560  144.6340 C   0  0  0  0  0  2  0  0  0  0  0  0
  191.1320  174.9610  143.6650 C   0  0  1  0  0  3  0  0  0  0  0  0
  188.2070  175.6660  147.3460 C   0  0  0  0  0  2  0  0  0  0  0  0
  188.2920  176.6130  146.2400 N   0  0  0  0  0  0  0  0  0  0  0  0
  186.5090  177.9440  146.9480 O   0  0  0  0  0  0  0  0  0  0  0  0
  190.0240  175.0890  145.9280 C   0  0  2  0  0  3  0  0  0  0  0  0
  190.6740  174.1590  144.9100 C   0  0  0  0  0  2  0  0  0  0  0  0
  191.3500  176.4740  143.9270 C   0  0  0  0  0  2  0  0  0  0  0  0
  196.7290  172.9880  142.7470 N   0  0  0  0  0  1  0  0  0  0  0  0
  193.5120  174.1100  143.6040 C   0  0  0  0  0  0  0  0  0  0  0  0
  192.4920  174.0140  141.7500 C   0  0  0  0  0  0  0  0  0  0  0  0
  195.3640  173.8370  144.6930 C   0  0  0  0  0  0  0  0  0  0  0  0
  192.3140  174.3620  143.0570 N   0  0  0  0  0  0  0  0  0  0  0  0
  193.8020  173.5580  141.5280 C   0  0  0  0  0  3  0  0  0  0  0  0
  194.3740  173.6410  142.7400 N   0  0  0  0  0  0  0  0  0  0  0  0
  194.0380  174.2790  144.8760 C   0  0  0  0  0  3  0  0  0  0  0  0
  195.5330  173.4540  143.3650 C   0  0  0  0  0  0  0  0  0  0  0  0
  197.1910  173.7910  146.5350 N   0  0  0  0  0  0  0  0  0  0  0  0
  196.3750  173.8120  145.7130 C   0  0  0  0  0  0  0  0  0  0  0  0
  191.4540  174.1680  140.6910 C   0  0  0  0  0  2  0  0  0  0  0  0
  191.3940  172.9110  139.8420 C   0  0  0  0  0  2  0  0  0  0  0  0
  190.2770  172.0840  140.2660 N   0  0  0  0  0  2  0  0  0  0  0  0
  190.8370  170.9080  140.9100 C   0  0  0  0  0  2  0  0  0  0  0  0
  190.3830  170.8420  142.3570 C   0  0  1  0  0  3  0  0  0  0  0  0
  191.4730  171.0780  143.1930 O   0  0  0  0  0  1  0  0  0  0  0  0
  189.3160  171.8890  142.6170 C   0  0  0  0  0  1  0  0  0  0  0  0
  187.1530  178.2890  144.6870 C   0  0  0  0  0  2  0  0  0  0  0  0
  185.8450  177.9970  144.1150 N   0  0  0  0  0  0  0  0  0  0  0  0
  186.7110  176.3150  142.4040 C   0  0  0  0  0  1  0  0  0  0  0  0
  183.7560  178.5420  142.8010 C   0  0  0  0  0  2  0  0  0  0  0  0
  184.6340  177.5410  142.2150 N   0  0  0  0  0  0  0  0  0  0  0  0
  185.6990  177.2920  142.8940 C   0  0  0  0  0  0  0  0  0  0  0  0
  184.4500  179.0290  144.4230 S   0  0  0  0  0  0  0  0  0  0  0  0
  1  6  1  0  0  0  0
  2  7  1  0  0  0  0
  2  8  2  0  0  0  0
  3  4  1  1  0  0  0
  3  9  1  0  0  0  0
  3  7  1  0  0  0  0
  5 16  1  1  0  0  0
  5 11  1  0  0  0  0
  5 10  1  0  0  0  0
  7  6  1  0  0  0  0
  9 10  1  6  0  0  0
  9  1  1  0  0  0  0
 11  4  1  0  0  0  0
 12 20  1  0  0  0  0
 13 19  2  0  0  0  0
 14 16  1  0  0  0  0
 15 19  1  0  0  0  0
 15 22  1  0  0  0  0
 16 13  1  0  0  0  0
 17 14  2  0  0  0  0
 17 18  1  0  0  0  0
 18 20  1  0  0  0  0
 18 13  1  0  0  0  0
 20 15  2  0  0  0  0
 22 21  3  0  0  0  0
 23 14  1  0  0  0  0
 24 25  1  0  0  0  0
 24 23  1  0  0  0  0
 25 26  1  0  0  0  0
 26 27  1  0  0  0  0
 27 29  1  6  0  0  0
 27 28  1  0  0  0  0
 30  2  1  0  0  0  0
 31 36  1  0  0  0  0
 31 30  1  0  0  0  0
 32 35  1  0  0  0  0
 33 36  1  0  0  0  0
 34 33  1  0  0  0  0
 34 35  2  0  0  0  0
 35 31  1  0  0  0  0
M  END
>  <MODEL>
5

>  <REMARK>
 VINA RESULT:      -6.3      2.973      9.055
  Name = 
  9 active torsions:
  status: ('A' for Active; 'I' for Inactive)
    1  A    between atoms: N_1  and  C_4
    2  A    between atoms: N_1  and  C_25
    3  A    between atoms: N_2  and  C_5
    4  A    between atoms: C_4  and  C_28
    5  A    between atoms: C_5  and  C_6
    6  A    between atoms: C_10  and  C_14
    7  A    between atoms: C_10  and  C_25
    8  A    between atoms: C_15  and  N_18
    9  A    between atoms: C_16  and  C_34
                            x       y       z     vdW  Elec       q    Type
                         _______ _______ _______ _____ _____    ______ ____

>  <TORSDO>
F 9

$$$$
=
 OpenBabel11042414443D

 36 40  0  0  1  0  0  0  0  0999 V2000
  189.8560  172.9270  141.1030 C   0  0  0  0  0  2  0  0  0  0  0  0
  193.3440  174.2080  140.7220 C   0  0  0  0  0  0  0  0  0  0  0  0
  191.2600  174.5420  142.1540 C   0  0  2  0  0  3  0  0  0  0  0  0
  191.3350  176.0450  142.4170 C   0  0  0  0  0  2  0  0  0  0  0  0
  189.5730  175.3120  144.1710 C   0  0  1  0  0  3  0  0  0  0  0  0
  191.1080  173.1150  140.2450 C   0  0  0  0  0  2  0  0  0  0  0  0
  191.9330  174.0870  140.9540 N   0  0  0  0  0  0  0  0  0  0  0  0
  193.8550  173.7210  139.6790 O   0  0  0  0  0  0  0  0  0  0  0  0
  189.8180  174.1960  141.9220 C   0  0  2  0  0  3  0  0  0  0  0  0
  189.0730  174.1690  143.2510 C   0  0  0  0  0  2  0  0  0  0  0  0
  190.2390  176.4920  143.4160 C   0  0  0  0  0  2  0  0  0  0  0  0
  184.5720  177.9410  146.2070 N   0  0  0  0  0  1  0  0  0  0  0  0
  187.3500  176.3820  144.7250 C   0  0  0  0  0  0  0  0  0  0  0  0
  188.5050  175.8240  146.4100 C   0  0  0  0  0  0  0  0  0  0  0  0
  185.5700  177.3540  143.9640 C   0  0  0  0  0  0  0  0  0  0  0  0
  188.5090  175.7890  145.0470 N   0  0  0  0  0  0  0  0  0  0  0  0
  187.3400  176.4440  146.8930 C   0  0  0  0  0  3  0  0  0  0  0  0
  186.6660  176.7570  145.7750 N   0  0  0  0  0  0  0  0  0  0  0  0
  186.7470  176.7170  143.5210 C   0  0  0  0  0  3  0  0  0  0  0  0
  185.5560  177.3600  145.3570 C   0  0  0  0  0  0  0  0  0  0  0  0
  183.7550  178.3780  142.4190 N   0  0  0  0  0  0  0  0  0  0  0  0
  184.5650  177.9210  143.1090 C   0  0  0  0  0  0  0  0  0  0  0  0
  189.6240  175.3330  147.2660 C   0  0  0  0  0  2  0  0  0  0  0  0
  190.7450  176.3570  147.2850 C   0  0  0  0  0  2  0  0  0  0  0  0
  192.0290  175.6790  147.3410 N   0  0  0  0  0  2  0  0  0  0  0  0
  192.9400  176.4200  146.4840 C   0  0  0  0  0  2  0  0  0  0  0  0
  193.4600  175.5200  145.3770 C   0  0  1  0  0  3  0  0  0  0  0  0
  194.8200  175.7590  145.1880 O   0  0  0  0  0  1  0  0  0  0  0  0
  193.2540  174.0640  145.7490 C   0  0  0  0  0  1  0  0  0  0  0  0
  194.2370  174.8720  141.7220 C   0  0  0  0  0  2  0  0  0  0  0  0
  195.0770  173.8840  142.3860 N   0  0  0  0  0  0  0  0  0  0  0  0
  197.2470  175.1950  142.0980 C   0  0  0  0  0  1  0  0  0  0  0  0
  196.2370  171.6480  142.6000 C   0  0  0  0  0  2  0  0  0  0  0  0
  197.1060  172.8040  142.4330 N   0  0  0  0  0  0  0  0  0  0  0  0
  196.4920  173.9290  142.3100 C   0  0  0  0  0  0  0  0  0  0  0  0
  194.5090  172.2450  142.6970 S   0  0  0  0  0  0  0  0  0  0  0  0
  2  7  1  0  0  0  0
  2 30  1  0  0  0  0
  3  4  1  6  0  0  0
  4 11  1  0  0  0  0
  5 10  1  6  0  0  0
  5 16  1  0  0  0  0
  6  7  1  0  0  0  0
  6  1  1  0  0  0  0
  7  3  1  0  0  0  0
  8  2  2  0  0  0  0
  9  1  1  1  0  0  0
  9  3  1  0  0  0  0
  9 10  1  0  0  0  0
 11  5  1  0  0  0  0
 13 16  1  0  0  0  0
 13 18  1  0  0  0  0
 14 17  2  0  0  0  0
 14 23  1  0  0  0  0
 15 20  2  0  0  0  0
 16 14  1  0  0  0  0
 18 17  1  0  0  0  0
 19 15  1  0  0  0  0
 19 13  2  0  0  0  0
 20 18  1  0  0  0  0
 20 12  1  0  0  0  0
 21 22  3  0  0  0  0
 22 15  1  0  0  0  0
 23 24  1  0  0  0  0
 24 25  1  0  0  0  0
 26 25  1  0  0  0  0
 27 29  1  1  0  0  0
 27 26  1  0  0  0  0
 28 27  1  0  0  0  0
 30 31  1  0  0  0  0
 31 36  1  0  0  0  0
 32 35  1  0  0  0  0
 33 36  1  0  0  0  0
 34 33  1  0  0  0  0
 35 31  1  0  0  0  0
 35 34  2  0  0  0  0
M  END
>  <MODEL>
6

>  <REMARK>
 VINA RESULT:      -6.3      1.568      1.998
  Name = 
  9 active torsions:
  status: ('A' for Active; 'I' for Inactive)
    1  A    between atoms: N_1  and  C_4
    2  A    between atoms: N_1  and  C_25
    3  A    between atoms: N_2  and  C_5
    4  A    between atoms: C_4  and  C_28
    5  A    between atoms: C_5  and  C_6
    6  A    between atoms: C_10  and  C_14
    7  A    between atoms: C_10  and  C_25
    8  A    between atoms: C_15  and  N_18
    9  A    between atoms: C_16  and  C_34
                            x       y       z     vdW  Elec       q    Type
                         _______ _______ _______ _____ _____    ______ ____

>  <TORSDO>
F 9

$$$$
=
 OpenBabel11042414443D

 36 40  0  0  1  0  0  0  0  0999 V2000
  191.2140  176.7640  148.0170 C   0  0  0  0  0  2  0  0  0  0  0  0
  187.7780  177.5610  146.7880 C   0  0  0  0  0  0  0  0  0  0  0  0
  189.8540  176.2330  146.1320 C   0  0  2  0  0  3  0  0  0  0  0  0
  189.8290  176.3990  144.6130 C   0  0  0  0  0  2  0  0  0  0  0  0
  191.5420  174.4730  144.8830 C   0  0  1  0  0  3  0  0  0  0  0  0
  189.9800  177.6670  148.0370 C   0  0  0  0  0  2  0  0  0  0  0  0
  189.1810  177.2740  146.8820 N   0  0  0  0  0  0  0  0  0  0  0  0
  187.2640  178.4390  147.5290 O   0  0  0  0  0  0  0  0  0  0  0  0
  191.2860  176.3290  146.5720 C   0  0  2  0  0  3  0  0  0  0  0  0
  192.0130  175.0280  146.2510 C   0  0  0  0  0  2  0  0  0  0  0  0
  190.9270  175.5400  143.9400 C   0  0  0  0  0  2  0  0  0  0  0  0
  196.6860  173.1140  142.0970 N   0  0  0  0  0  1  0  0  0  0  0  0
  193.8330  174.1640  143.8590 C   0  0  0  0  0  0  0  0  0  0  0  0
  192.5640  172.4740  143.7090 C   0  0  0  0  0  0  0  0  0  0  0  0
  195.7260  175.0840  143.3490 C   0  0  0  0  0  0  0  0  0  0  0  0
  192.6110  173.7400  144.2140 N   0  0  0  0  0  0  0  0  0  0  0  0
  193.7620  172.1530  143.0500 C   0  0  0  0  0  3  0  0  0  0  0  0
  194.5080  173.2600  143.1960 N   0  0  0  0  0  0  0  0  0  0  0  0
  194.5120  175.3640  144.0080 C   0  0  0  0  0  3  0  0  0  0  0  0
  195.6850  173.7800  142.8610 C   0  0  0  0  0  0  0  0  0  0  0  0
  197.6900  176.7550  143.0650 N   0  0  0  0  0  0  0  0  0  0  0  0
  196.8140  176.0090  143.1910 C   0  0  0  0  0  0  0  0  0  0  0  0
  191.3700  171.5830  143.7860 C   0  0  0  0  0  2  0  0  0  0  0  0
  190.7090  171.4870  142.4230 C   0  0  0  0  0  2  0  0  0  0  0  0
  189.6720  172.4980  142.3070 N   0  0  0  0  0  2  0  0  0  0  0  0
  190.0300  173.3520  141.1870 C   0  0  0  0  0  2  0  0  0  0  0  0
  188.8710  174.2680  140.8400 C   0  0  1  0  0  3  0  0  0  0  0  0
  188.2180  173.7800  139.7100 O   0  0  0  0  0  1  0  0  0  0  0  0
  187.8910  174.3310  141.9970 C   0  0  0  0  0  1  0  0  0  0  0  0
  186.8960  176.8050  145.8440 C   0  0  0  0  0  2  0  0  0  0  0  0
  186.2550  177.7180  144.9080 N   0  0  0  0  0  0  0  0  0  0  0  0
  184.1850  178.1090  146.3470 C   0  0  0  0  0  1  0  0  0  0  0  0
  185.0970  178.3280  142.7450 C   0  0  0  0  0  2  0  0  0  0  0  0
  184.2880  178.4250  143.9510 N   0  0  0  0  0  0  0  0  0  0  0  0
  184.8940  178.0930  145.0370 C   0  0  0  0  0  0  0  0  0  0  0  0
  186.7980  177.8620  143.2370 S   0  0  0  0  0  0  0  0  0  0  0  0
  1  6  1  0  0  0  0
  2  7  1  0  0  0  0
  2  8  2  0  0  0  0
  3  4  1  6  0  0  0
  3  9  1  0  0  0  0
  3  7  1  0  0  0  0
  5 11  1  6  0  0  0
  5 10  1  0  0  0  0
  7  6  1  0  0  0  0
  9 10  1  1  0  0  0
  9  1  1  0  0  0  0
 11  4  1  0  0  0  0
 12 20  1  0  0  0  0
 13 19  2  0  0  0  0
 13 16  1  0  0  0  0
 14 23  1  0  0  0  0
 14 16  1  0  0  0  0
 15 19  1  0  0  0  0
 16  5  1  0  0  0  0
 17 18  1  0  0  0  0
 17 14  2  0  0  0  0
 18 13  1  0  0  0  0
 20 18  1  0  0  0  0
 20 15  2  0  0  0  0
 21 22  3  0  0  0  0
 22 15  1  0  0  0  0
 24 23  1  0  0  0  0
 25 24  1  0  0  0  0
 26 25  1  0  0  0  0
 27 26  1  0  0  0  0
 27 29  1  1  0  0  0
 28 27  1  0  0  0  0
 30  2  1  0  0  0  0
 31 35  1  0  0  0  0
 31 30  1  0  0  0  0
 33 36  1  0  0  0  0
 33 34  1  0  0  0  0
 34 35  2  0  0  0  0
 35 32  1  0  0  0  0
 36 31  1  0  0  0  0
M  END
>  <MODEL>
7

>  <REMARK>
 VINA RESULT:      -6.3      2.771      9.044
  Name = 
  9 active torsions:
  status: ('A' for Active; 'I' for Inactive)
    1  A    between atoms: N_1  and  C_4
    2  A    between atoms: N_1  and  C_25
    3  A    between atoms: N_2  and  C_5
    4  A    between atoms: C_4  and  C_28
    5  A    between atoms: C_5  and  C_6
    6  A    between atoms: C_10  and  C_14
    7  A    between atoms: C_10  and  C_25
    8  A    between atoms: C_15  and  N_18
    9  A    between atoms: C_16  and  C_34
                            x       y       z     vdW  Elec       q    Type
                         _______ _______ _______ _____ _____    ______ ____

>  <TORSDO>
F 9

$$$$
=
 OpenBabel11042414443D

 36 40  0  0  1  0  0  0  0  0999 V2000
  189.8680  172.0580  141.7770 C   0  0  0  0  0  2  0  0  0  0  0  0
  193.4660  173.0280  141.5090 C   0  0  0  0  0  0  0  0  0  0  0  0
  191.2590  173.8630  142.4780 C   0  0  2  0  0  3  0  0  0  0  0  0
  191.4190  175.3700  142.2870 C   0  0  0  0  0  2  0  0  0  0  0  0
  189.4100  175.2770  143.9220 C   0  0  1  0  0  3  0  0  0  0  0  0
  191.2240  171.9270  141.0810 C   0  0  0  0  0  2  0  0  0  0  0  0
  192.0320  173.0370  141.5720 N   0  0  0  0  0  0  0  0  0  0  0  0
  194.0570  172.2260  140.7390 O   0  0  0  0  0  0  0  0  0  0  0  0
  189.8320  173.5170  142.1650 C   0  0  2  0  0  3  0  0  0  0  0  0
  188.9350  173.9270  143.3280 C   0  0  0  0  0  2  0  0  0  0  0  0
  190.2500  176.1430  142.9470 C   0  0  0  0  0  2  0  0  0  0  0  0
  184.5110  178.7220  144.3800 N   0  0  0  0  0  1  0  0  0  0  0  0
  187.2740  176.6270  143.8120 C   0  0  0  0  0  0  0  0  0  0  0  0
  188.0820  176.4090  145.7590 C   0  0  0  0  0  0  0  0  0  0  0  0
  185.7630  177.5210  142.5450 C   0  0  0  0  0  0  0  0  0  0  0  0
  188.2890  176.0390  144.4620 N   0  0  0  0  0  0  0  0  0  0  0  0
  186.9400  177.2210  145.8710 C   0  0  0  0  0  3  0  0  0  0  0  0
  186.4880  177.3020  144.6100 N   0  0  0  0  0  0  0  0  0  0  0  0
  186.9080  176.7030  142.4770 C   0  0  0  0  0  3  0  0  0  0  0  0
  185.5360  177.8720  143.8740 C   0  0  0  0  0  0  0  0  0  0  0  0
  184.3430  178.2760  140.5090 N   0  0  0  0  0  0  0  0  0  0  0  0
  184.9760  177.9390  141.4180 C   0  0  0  0  0  0  0  0  0  0  0  0
  188.9890  176.0560  146.8890 C   0  0  0  0  0  2  0  0  0  0  0  0
  190.0420  177.1360  147.0610 C   0  0  0  0  0  2  0  0  0  0  0  0
  191.1820  176.5990  147.7840 N   0  0  0  0  0  2  0  0  0  0  0  0
  191.9480  175.8000  146.8410 C   0  0  0  0  0  2  0  0  0  0  0  0
  193.2530  176.4990  146.5090 C   0  0  1  0  0  3  0  0  0  0  0  0
  194.3210  175.6810  146.8740 O   0  0  0  0  0  1  0  0  0  0  0  0
  193.3280  176.7850  145.0210 C   0  0  0  0  0  1  0  0  0  0  0  0
  194.2830  173.9330  142.3770 C   0  0  0  0  0  2  0  0  0  0  0  0
  195.1700  173.1520  143.2290 N   0  0  0  0  0  0  0  0  0  0  0  0
  193.4580  172.8110  145.0910 C   0  0  0  0  0  1  0  0  0  0  0  0
  197.1640  172.8130  144.7450 C   0  0  0  0  0  2  0  0  0  0  0  0
  195.8570  172.6830  145.3720 N   0  0  0  0  0  0  0  0  0  0  0  0
  194.8580  172.8760  144.5840 C   0  0  0  0  0  0  0  0  0  0  0  0
  196.9100  173.1020  142.9550 S   0  0  0  0  0  0  0  0  0  0  0  0
  2  7  1  0  0  0  0
  2 30  1  0  0  0  0
  3  4  1  6  0  0  0
  4 11  1  0  0  0  0
  5 11  1  6  0  0  0
  5 16  1  0  0  0  0
  6  7  1  0  0  0  0
  6  1  1  0  0  0  0
  7  3  1  0  0  0  0
  8  2  2  0  0  0  0
  9  1  1  1  0  0  0
  9  3  1  0  0  0  0
  9 10  1  0  0  0  0
 10  5  1  0  0  0  0
 13 16  1  0  0  0  0
 13 18  1  0  0  0  0
 14 17  2  0  0  0  0
 14 23  1  0  0  0  0
 15 20  2  0  0  0  0
 16 14  1  0  0  0  0
 18 17  1  0  0  0  0
 19 15  1  0  0  0  0
 19 13  2  0  0  0  0
 20 12  1  0  0  0  0
 20 18  1  0  0  0  0
 21 22  3  0  0  0  0
 22 15  1  0  0  0  0
 23 24  1  0  0  0  0
 24 25  1  0  0  0  0
 26 25  1  0  0  0  0
 27 29  1  6  0  0  0
 27 26  1  0  0  0  0
 27 28  1  0  0  0  0
 30 31  1  0  0  0  0
 31 35  1  0  0  0  0
 33 34  1  0  0  0  0
 35 32  1  0  0  0  0
 35 34  2  0  0  0  0
 36 31  1  0  0  0  0
 36 33  1  0  0  0  0
M  END
>  <MODEL>
8

>  <REMARK>
 VINA RESULT:      -6.3      1.535      1.737
  Name = 
  9 active torsions:
  status: ('A' for Active; 'I' for Inactive)
    1  A    between atoms: N_1  and  C_4
    2  A    between atoms: N_1  and  C_25
    3  A    between atoms: N_2  and  C_5
    4  A    between atoms: C_4  and  C_28
    5  A    between atoms: C_5  and  C_6
    6  A    between atoms: C_10  and  C_14
    7  A    between atoms: C_10  and  C_25
    8  A    between atoms: C_15  and  N_18
    9  A    between atoms: C_16  and  C_34
                            x       y       z     vdW  Elec       q    Type
                         _______ _______ _______ _____ _____    ______ ____

>  <TORSDO>
F 9

$$$$
=
 OpenBabel11042414443D

 36 40  0  0  1  0  0  0  0  0999 V2000
  189.2090  174.1660  146.8530 C   0  0  0  0  0  2  0  0  0  0  0  0
  187.8170  177.5120  145.9520 C   0  0  0  0  0  0  0  0  0  0  0  0
  189.3110  175.6730  145.0090 C   0  0  2  0  0  3  0  0  0  0  0  0
  190.3210  176.5040  144.2210 C   0  0  0  0  0  2  0  0  0  0  0  0
  190.7850  174.1300  143.2910 C   0  0  1  0  0  3  0  0  0  0  0  0
  188.5940  175.4990  147.2800 C   0  0  0  0  0  2  0  0  0  0  0  0
  188.6600  176.3610  146.1060 N   0  0  0  0  0  0  0  0  0  0  0  0
  187.2360  178.0060  146.9550 O   0  0  0  0  0  0  0  0  0  0  0  0
  190.0640  174.5550  145.6700 C   0  0  2  0  0  3  0  0  0  0  0  0
  190.3980  173.4800  144.6430 C   0  0  0  0  0  2  0  0  0  0  0  0
  191.2760  175.5970  143.4060 C   0  0  0  0  0  2  0  0  0  0  0  0
  193.2600  170.1880  139.4960 N   0  0  0  0  0  1  0  0  0  0  0  0
  191.5650  172.5200  141.5040 C   0  0  0  0  0  0  0  0  0  0  0  0
  193.0620  173.0960  142.8870 C   0  0  0  0  0  0  0  0  0  0  0  0
  191.0070  171.2810  139.8180 C   0  0  0  0  0  0  0  0  0  0  0  0
  191.7540  173.3120  142.5690 N   0  0  0  0  0  0  0  0  0  0  0  0
  193.6450  172.1690  142.0070 C   0  0  0  0  0  3  0  0  0  0  0  0
  192.6440  171.8630  141.1650 N   0  0  0  0  0  0  0  0  0  0  0  0
  190.4630  172.2210  140.7160 C   0  0  0  0  0  3  0  0  0  0  0  0
  192.3520  171.0850  140.1270 C   0  0  0  0  0  0  0  0  0  0  0  0
  189.6920  170.0870  137.9260 N   0  0  0  0  0  0  0  0  0  0  0  0
  190.2790  170.6200  138.7700 C   0  0  0  0  0  0  0  0  0  0  0  0
  193.7550  173.7090  144.0570 C   0  0  0  0  0  2  0  0  0  0  0  0
  195.0070  174.4310  143.5950 C   0  0  0  0  0  2  0  0  0  0  0  0
  195.1940  175.6410  144.3770 N   0  0  0  0  0  2  0  0  0  0  0  0
  194.9290  175.2990  145.7650 C   0  0  0  0  0  2  0  0  0  0  0  0
  194.4200  176.5170  146.5130 C   0  0  1  0  0  3  0  0  0  0  0  0
  194.5680  177.6470  145.7100 O   0  0  0  0  0  1  0  0  0  0  0  0
  192.9550  176.3400  146.8640 C   0  0  0  0  0  1  0  0  0  0  0  0
  187.5810  178.1230  144.6070 C   0  0  0  0  0  2  0  0  0  0  0  0
  186.1920  177.9390  144.2040 N   0  0  0  0  0  0  0  0  0  0  0  0
  186.6910  176.1300  142.4760 C   0  0  0  0  0  1  0  0  0  0  0  0
  184.0190  178.6390  143.1200 C   0  0  0  0  0  2  0  0  0  0  0  0
  184.7270  177.5410  142.4790 N   0  0  0  0  0  0  0  0  0  0  0  0
  185.8380  177.2140  143.0390 C   0  0  0  0  0  0  0  0  0  0  0  0
  184.9430  179.1070  144.6290 S   0  0  0  0  0  0  0  0  0  0  0  0
  1  6  1  0  0  0  0
  2  7  1  0  0  0  0
  2  8  2  0  0  0  0
  3  4  1  1  0  0  0
  3  9  1  0  0  0  0
  3  7  1  0  0  0  0
  5 16  1  1  0  0  0
  5 11  1  0  0  0  0
  5 10  1  0  0  0  0
  7  6  1  0  0  0  0
  9 10  1  6  0  0  0
  9  1  1  0  0  0  0
 11  4  1  0  0  0  0
 12 20  1  0  0  0  0
 13 16  1  0  0  0  0
 14 23  1  0  0  0  0
 15 20  2  0  0  0  0
 15 19  1  0  0  0  0
 16 14  1  0  0  0  0
 17 14  2  0  0  0  0
 18 13  1  0  0  0  0
 18 17  1  0  0  0  0
 19 13  2  0  0  0  0
 20 18  1  0  0  0  0
 21 22  3  0  0  0  0
 22 15  1  0  0  0  0
 24 23  1  0  0  0  0
 24 25  1  0  0  0  0
 25 26  1  0  0  0  0
 26 27  1  0  0  0  0
 27 29  1  6  0  0  0
 28 27  1  0  0  0  0
 30  2  1  0  0  0  0
 31 30  1  0  0  0  0
 31 36  1  0  0  0  0
 32 35  1  0  0  0  0
 33 36  1  0  0  0  0
 34 35  2  0  0  0  0
 34 33  1  0  0  0  0
 35 31  1  0  0  0  0
M  END
>  <MODEL>
9

>  <REMARK>
 VINA RESULT:      -6.2      3.149      8.125
  Name = 
  9 active torsions:
  status: ('A' for Active; 'I' for Inactive)
    1  A    between atoms: N_1  and  C_4
    2  A    between atoms: N_1  and  C_25
    3  A    between atoms: N_2  and  C_5
    4  A    between atoms: C_4  and  C_28
    5  A    between atoms: C_5  and  C_6
    6  A    between atoms: C_10  and  C_14
    7  A    between atoms: C_10  and  C_25
    8  A    between atoms: C_15  and  N_18
    9  A    between atoms: C_16  and  C_34
                            x       y       z     vdW  Elec       q    Type
                         _______ _______ _______ _____ _____    ______ ____

>  <TORSDO>
F 9

$$$$
