=
 OpenBabel11042415523D

 50 55  0  0  1  0  0  0  0  0999 V2000
  190.2520  176.6700  143.8820 C   0  0  1  0  0  3  0  0  0  0  0  0
  190.0760  177.1280  145.3340 C   0  0  0  0  0  2  0  0  0  0  0  0
  193.4210  175.8910  143.8990 C   0  0  0  0  0  3  0  0  0  0  0  0
  190.6590  176.1130  147.2650 C   0  0  0  0  0  2  0  0  0  0  0  0
  189.7990  176.0280  146.1570 O   0  0  0  0  0  0  0  0  0  0  0  0
  192.3440  175.3640  144.5020 C   0  0  0  0  0  0  0  0  0  0  0  0
  194.9180  174.8040  145.6250 C   0  0  0  0  0  0  0  0  0  0  0  0
  191.0090  175.3310  143.7960 C   0  0  2  0  0  3  0  0  0  0  0  0
  195.7750  176.3360  143.9530 C   0  0  0  0  0  0  0  0  0  0  0  0
  192.4390  174.8290  145.9210 C   0  0  1  0  0  3  0  0  0  0  0  0
  194.7440  175.7780  144.5270 C   0  0  0  0  0  0  0  0  0  0  0  0
  193.8240  174.3140  146.2310 C   0  0  0  0  0  3  0  0  0  0  0  0
  196.8070  176.8870  143.3770 C   0  0  0  0  0  3  0  0  0  0  0  0
  192.1460  175.9590  146.9070 C   0  0  0  0  0  2  0  0  0  0  0  0
  197.2450  176.4140  142.0350 C   0  0  1  0  0  3  0  0  0  0  0  0
  197.6800  174.9820  142.1080 C   0  0  0  0  0  2  0  0  0  0  0  0
  195.9580  175.1000  140.4450 N   0  0  2  0  0  0  0  0  0  0  0  0
  196.0800  176.4280  141.0650 C   0  0  0  0  0  2  0  0  0  0  0  0
  197.1940  174.4020  140.8080 C   0  0  0  0  0  2  0  0  0  0  0  0
  197.3030  175.2400  138.5290 C   0  0  0  0  0  2  0  0  0  0  0  0
  197.3560  175.4470  137.0050 C   0  0  0  0  0  2  0  0  0  0  0  0
  196.0860  175.2790  134.9730 O   0  0  0  0  0  1  0  0  0  0  0  0
  195.5500  172.9780  136.3370 O   0  0  0  0  0  1  0  0  0  0  0  0
  195.2820  174.0620  138.4490 C   0  0  0  0  0  2  0  0  0  0  0  0
  195.9670  175.3560  136.3640 C   0  0  1  0  0  3  0  0  0  0  0  0
  193.6680  174.4090  136.5970 C   0  0  0  0  0  1  0  0  0  0  0  0
  195.1350  174.1820  136.9220 C   0  0  1  0  0  0  0  0  0  0  0  0
  195.9200  175.2520  139.0360 N   0  0  1  0  0  0  0  0  0  0  0  0
  190.6430  173.4030  142.2380 C   0  0  0  0  0  1  0  0  0  0  0  0
  191.1360  174.8340  142.3540 C   0  0  0  0  0  2  0  0  0  0  0  0
  188.8770  176.5390  143.2390 C   0  0  0  0  0  2  0  0  0  0  0  0
  188.4500  177.7780  142.7520 O   0  0  0  0  0  0  0  0  0  0  0  0
  187.1350  175.9860  141.9200 C   0  0  0  0  0  1  0  0  0  0  0  0
  187.4460  177.4720  141.8310 C   0  0  1  0  0  3  0  0  0  0  0  0
  183.8120  177.7810  141.2500 C   0  0  2  0  0  3  0  0  0  0  0  0
  185.2500  177.5640  143.0580 C   0  0  2  0  0  3  0  0  0  0  0  0
  185.2650  178.6260  140.5740 S   0  0  0  0  0  0  0  0  0  0  0  0
  182.5500  178.4580  140.7560 C   0  0  0  0  0  1  0  0  0  0  0  0
  186.1890  178.3050  142.1110 C   0  0  2  0  0  3  0  0  0  0  0  0
  183.8690  177.8470  142.6980 N   0  0  0  0  0  2  0  0  0  0  0  0
  186.0650  176.7090  145.2450 C   0  0  0  0  0  3  0  0  0  0  0  0
  185.5310  177.9050  144.5230 C   0  0  2  0  0  3  0  0  0  0  0  0
  185.5520  178.9060  147.3590 C   0  0  0  0  0  3  0  0  0  0  0  0
  184.3420  178.5060  145.2110 C   0  0  0  0  0  3  0  0  0  0  0  0
  184.3850  178.9840  146.4560 C   0  0  0  0  0  3  0  0  0  0  0  0
  186.5210  176.7550  146.4970 C   0  0  0  0  0  3  0  0  0  0  0  0
  186.4790  177.9410  147.3780 C   0  0  0  0  0  3  0  0  0  0  0  0
  196.2070  174.3920  145.9930 O   0  0  0  0  0  0  0  0  0  0  0  0
  196.6290  173.0310  145.9870 C   0  0  0  0  0  2  0  0  0  0  0  0
  196.6050  172.4830  144.5720 C   0  0  0  0  0  1  0  0  0  0  0  0
  1 31  1  1  0  0  0
  1  2  1  0  0  0  0
  2  5  1  0  0  0  0
  3  6  2  0  0  0  0
  3 11  1  0  0  0  0
  5  4  1  0  0  0  0
  6 10  1  0  0  0  0
  7 48  1  0  0  0  0
  7 12  2  0  0  0  0
  8 30  1  6  0  0  0
  8  1  1  0  0  0  0
  8  6  1  0  0  0  0
  9 11  2  0  0  0  0
 10 12  1  1  0  0  0
 10 14  1  0  0  0  0
 11  7  1  0  0  0  0
 13  9  2  0  0  0  0
 14  4  1  0  0  0  0
 15 16  1  0  0  0  0
 15 13  1  1  0  0  0
 17 19  1  6  0  0  0
 17 18  1  0  0  0  0
 18 15  1  0  0  0  0
 19 16  1  0  0  0  0
 20 28  1  0  0  0  0
 21 20  1  0  0  0  0
 23 27  1  0  0  0  0
 25 22  1  6  0  0  0
 25 27  1  0  0  0  0
 25 21  1  0  0  0  0
 27 26  1  6  0  0  0
 27 24  1  0  0  0  0
 28 24  1  6  0  0  0
 28 17  1  0  0  0  0
 29 30  1  0  0  0  0
 32 31  1  0  0  0  0
 34 33  1  1  0  0  0
 34 32  1  0  0  0  0
 35 38  1  6  0  0  0
 35 40  1  0  0  0  0
 36 40  1  6  0  0  0
 36 42  1  0  0  0  0
 37 35  1  0  0  0  0
 37 39  1  0  0  0  0
 39 34  1  6  0  0  0
 39 36  1  0  0  0  0
 41 46  2  0  0  0  0
 42 44  1  1  0  0  0
 42 41  1  0  0  0  0
 43 47  2  0  0  0  0
 44 45  2  0  0  0  0
 45 43  1  0  0  0  0
 46 47  1  0  0  0  0
 49 48  1  0  0  0  0
 50 49  1  0  0  0  0
M  END
>  <MODEL>
1

>  <REMARK>
 VINA RESULT:      -9.0      0.000      0.000
  Name = 
  10 active torsions:
  status: ('A' for Active; 'I' for Inactive)
    1  A    between atoms: C_1  and  C_39
    2  A    between atoms: C_6  and  C_34
    3  A    between atoms: C_12  and  O_42
    4  A    between atoms: C_14  and  O_42
    5  A    between atoms: C_15  and  C_37
    6  A    between atoms: C_17  and  C_22
    7  A    between atoms: N_18  and  N_50
    8  A    between atoms: C_35  and  C_41
    9  A    between atoms: C_35  and  O_47
   10  A    between atoms: C_39  and  O_47
                            x       y       z     vdW  Elec       q    Type
                         _______ _______ _______ _____ _____    ______ ____

>  <TORSDO>
F 10

$$$$
=
 OpenBabel11042415523D

 50 55  0  0  1  0  0  0  0  0999 V2000
  195.7340  171.9510  142.6490 C   0  0  1  0  0  3  0  0  0  0  0  0
  196.3540  171.9190  141.2480 C   0  0  0  0  0  2  0  0  0  0  0  0
  192.5690  172.1390  141.8790 C   0  0  0  0  0  3  0  0  0  0  0  0
  195.8670  170.6210  139.4660 C   0  0  0  0  0  2  0  0  0  0  0  0
  196.3950  170.6030  140.7680 O   0  0  0  0  0  0  0  0  0  0  0  0
  193.4950  171.1800  141.7230 C   0  0  0  0  0  0  0  0  0  0  0  0
  191.1780  171.0930  140.0430 C   0  0  0  0  0  0  0  0  0  0  0  0
  194.5580  170.9630  142.7740 C   0  0  2  0  0  3  0  0  0  0  0  0
  190.5820  173.2060  141.0700 C   0  0  0  0  0  0  0  0  0  0  0  0
  193.5140  170.3240  140.4680 C   0  0  1  0  0  3  0  0  0  0  0  0
  191.4490  172.2410  140.9330 C   0  0  0  0  0  0  0  0  0  0  0  0
  192.1320  170.1630  139.8810 C   0  0  0  0  0  3  0  0  0  0  0  0
  189.7100  174.1660  141.2090 C   0  0  0  0  0  3  0  0  0  0  0  0
  194.3790  171.0040  139.4070 C   0  0  0  0  0  2  0  0  0  0  0  0
  188.8680  174.2300  142.4350 C   0  0  1  0  0  3  0  0  0  0  0  0
  189.7260  174.1030  143.6580 C   0  0  0  0  0  2  0  0  0  0  0  0
  188.5080  176.1560  143.8740 N   0  0  2  0  0  0  0  0  0  0  0  0
  188.2070  175.5900  142.5510 C   0  0  0  0  0  2  0  0  0  0  0  0
  189.0790  175.0430  144.6380 C   0  0  0  0  0  2  0  0  0  0  0  0
  187.5360  176.7140  145.9350 C   0  0  0  0  0  2  0  0  0  0  0  0
  186.2530  177.1000  146.6900 C   0  0  0  0  0  2  0  0  0  0  0  0
  184.0690  178.0700  146.4480 O   0  0  0  0  0  1  0  0  0  0  0  0
  185.7290  179.6940  145.0170 O   0  0  0  0  0  1  0  0  0  0  0  0
  186.9370  177.8970  144.0070 C   0  0  0  0  0  2  0  0  0  0  0  0
  185.1130  177.4730  145.7360 C   0  0  1  0  0  3  0  0  0  0  0  0
  184.5560  178.3320  143.4580 C   0  0  0  0  0  1  0  0  0  0  0  0
  185.5870  178.3720  144.5740 C   0  0  1  0  0  0  0  0  0  0  0  0
  187.2940  176.5530  144.4910 N   0  0  1  0  0  0  0  0  0  0  0  0
  193.1860  169.6640  144.4190 C   0  0  0  0  0  1  0  0  0  0  0  0
  193.9720  170.9420  144.1870 C   0  0  0  0  0  2  0  0  0  0  0  0
  196.8130  171.6150  143.6700 C   0  0  0  0  0  2  0  0  0  0  0  0
  197.4540  172.7810  144.1010 O   0  0  0  0  0  0  0  0  0  0  0  0
  197.0720  173.3830  146.3650 C   0  0  0  0  0  1  0  0  0  0  0  0
  196.5320  173.4040  144.9430 C   0  0  1  0  0  3  0  0  0  0  0  0
  196.0360  175.6290  142.0360 C   0  0  2  0  0  3  0  0  0  0  0  0
  194.8600  174.9940  143.9340 C   0  0  2  0  0  3  0  0  0  0  0  0
  197.4270  175.3220  143.1550 S   0  0  0  0  0  0  0  0  0  0  0  0
  196.3600  176.7930  141.1230 C   0  0  0  0  0  1  0  0  0  0  0  0
  196.2750  174.8460  144.4850 C   0  0  2  0  0  3  0  0  0  0  0  0
  194.8610  175.9420  142.8300 N   0  0  0  0  0  2  0  0  0  0  0  0
  194.5140  176.3040  146.0170 C   0  0  0  0  0  3  0  0  0  0  0  0
  193.8630  175.3980  145.0210 C   0  0  2  0  0  3  0  0  0  0  0  0
  191.7130  175.5950  147.1150 C   0  0  0  0  0  3  0  0  0  0  0  0
  193.2080  174.2130  145.6690 C   0  0  0  0  0  3  0  0  0  0  0  0
  192.2250  174.3240  146.5640 C   0  0  0  0  0  3  0  0  0  0  0  0
  193.8460  176.9160  146.9950 C   0  0  0  0  0  3  0  0  0  0  0  0
  192.4140  176.7200  147.3030 C   0  0  0  0  0  3  0  0  0  0  0  0
  189.9310  170.9830  139.4080 O   0  0  0  0  0  0  0  0  0  0  0  0
  189.7670  170.9860  137.9930 C   0  0  0  0  0  2  0  0  0  0  0  0
  190.2030  172.3220  137.4190 C   0  0  0  0  0  1  0  0  0  0  0  0
  1  8  1  0  0  0  0
  1 31  1  1  0  0  0
  2  1  1  0  0  0  0
  4  5  1  0  0  0  0
  5  2  1  0  0  0  0
  6  3  2  0  0  0  0
  6  8  1  0  0  0  0
  7 11  1  0  0  0  0
  8 30  1  1  0  0  0
  9 13  2  0  0  0  0
 10 14  1  6  0  0  0
 10  6  1  0  0  0  0
 11  9  2  0  0  0  0
 11  3  1  0  0  0  0
 12  7  2  0  0  0  0
 12 10  1  0  0  0  0
 14  4  1  0  0  0  0
 15 13  1  6  0  0  0
 15 18  1  0  0  0  0
 15 16  1  0  0  0  0
 16 19  1  0  0  0  0
 17 18  1  6  0  0  0
 17 28  1  0  0  0  0
 17 19  1  0  0  0  0
 20 21  1  0  0  0  0
 24 27  1  0  0  0  0
 25 22  1  1  0  0  0
 25 21  1  0  0  0  0
 27 26  1  6  0  0  0
 27 23  1  0  0  0  0
 27 25  1  0  0  0  0
 28 24  1  6  0  0  0
 28 20  1  0  0  0  0
 30 29  1  0  0  0  0
 31 32  1  0  0  0  0
 32 34  1  0  0  0  0
 34 33  1  1  0  0  0
 35 38  1  6  0  0  0
 35 40  1  0  0  0  0
 35 37  1  0  0  0  0
 36 40  1  6  0  0  0
 36 39  1  0  0  0  0
 36 42  1  0  0  0  0
 37 39  1  0  0  0  0
 39 34  1  6  0  0  0
 41 46  2  0  0  0  0
 42 44  1  1  0  0  0
 42 41  1  0  0  0  0
 43 47  2  0  0  0  0
 44 45  2  0  0  0  0
 45 43  1  0  0  0  0
 46 47  1  0  0  0  0
 48  7  1  0  0  0  0
 49 48  1  0  0  0  0
 50 49  1  0  0  0  0
M  END
>  <MODEL>
2

>  <REMARK>
 VINA RESULT:      -8.2      3.390      9.916
  Name = 
  10 active torsions:
  status: ('A' for Active; 'I' for Inactive)
    1  A    between atoms: C_1  and  C_39
    2  A    between atoms: C_6  and  C_34
    3  A    between atoms: C_12  and  O_42
    4  A    between atoms: C_14  and  O_42
    5  A    between atoms: C_15  and  C_37
    6  A    between atoms: C_17  and  C_22
    7  A    between atoms: N_18  and  N_50
    8  A    between atoms: C_35  and  C_41
    9  A    between atoms: C_35  and  O_47
   10  A    between atoms: C_39  and  O_47
                            x       y       z     vdW  Elec       q    Type
                         _______ _______ _______ _____ _____    ______ ____

>  <TORSDO>
F 10

$$$$
=
 OpenBabel11042415523D

 50 55  0  0  1  0  0  0  0  0999 V2000
  193.0490  171.4620  142.1480 C   0  0  1  0  0  3  0  0  0  0  0  0
  194.0430  170.5390  142.8620 C   0  0  0  0  0  2  0  0  0  0  0  0
  192.8430  173.8850  144.3220 C   0  0  0  0  0  3  0  0  0  0  0  0
  196.0570  170.9920  143.7750 C   0  0  0  0  0  2  0  0  0  0  0  0
  195.3570  170.9190  142.5590 O   0  0  0  0  0  0  0  0  0  0  0  0
  193.8330  173.4470  143.5290 C   0  0  0  0  0  0  0  0  0  0  0  0
  194.5440  174.9950  145.8310 C   0  0  0  0  0  0  0  0  0  0  0  0
  193.5320  172.9240  142.1450 C   0  0  2  0  0  3  0  0  0  0  0  0
  192.1850  174.9150  146.3840 C   0  0  0  0  0  0  0  0  0  0  0  0
  195.2690  173.4290  144.0280 C   0  0  1  0  0  3  0  0  0  0  0  0
  193.1580  174.5350  145.6020 C   0  0  0  0  0  0  0  0  0  0  0  0
  195.5200  174.5180  145.0430 C   0  0  0  0  0  3  0  0  0  0  0  0
  191.2130  175.3020  147.1630 C   0  0  0  0  0  3  0  0  0  0  0  0
  195.5470  172.0950  144.7170 C   0  0  0  0  0  2  0  0  0  0  0  0
  190.2650  176.3520  146.6990 C   0  0  1  0  0  3  0  0  0  0  0  0
  190.6130  176.7830  145.3060 C   0  0  0  0  0  2  0  0  0  0  0  0
  188.3300  176.0540  145.2570 N   0  0  2  0  0  0  0  0  0  0  0  0
  188.8600  175.7890  146.6030 C   0  0  0  0  0  2  0  0  0  0  0  0
  189.2710  177.0080  144.6640 C   0  0  0  0  0  2  0  0  0  0  0  0
  187.0170  177.3920  146.6670 C   0  0  0  0  0  2  0  0  0  0  0  0
  185.6540  178.0660  146.9000 C   0  0  0  0  0  2  0  0  0  0  0  0
  183.6830  178.8990  145.8090 O   0  0  0  0  0  1  0  0  0  0  0  0
  185.7670  179.8030  144.2980 O   0  0  0  0  0  1  0  0  0  0  0  0
  186.9590  177.7330  144.3530 C   0  0  0  0  0  2  0  0  0  0  0  0
  184.7830  178.0530  145.6390 C   0  0  1  0  0  3  0  0  0  0  0  0
  184.8040  177.9590  143.1440 C   0  0  0  0  0  1  0  0  0  0  0  0
  185.5800  178.4160  144.3690 C   0  0  1  0  0  0  0  0  0  0  0  0
  187.0640  176.6820  145.3780 N   0  0  1  0  0  0  0  0  0  0  0  0
  193.3360  174.6670  140.3550 C   0  0  0  0  0  1  0  0  0  0  0  0
  192.5770  173.8440  141.3800 C   0  0  0  0  0  2  0  0  0  0  0  0
  192.8600  170.9670  140.7190 C   0  0  0  0  0  2  0  0  0  0  0  0
  191.7590  170.1080  140.6450 O   0  0  0  0  0  0  0  0  0  0  0  0
  190.4480  168.8770  139.0950 C   0  0  0  0  0  1  0  0  0  0  0  0
  191.5730  169.8850  139.2790 C   0  0  1  0  0  3  0  0  0  0  0  0
  189.7180  171.4450  136.4920 C   0  0  2  0  0  3  0  0  0  0  0  0
  189.7900  171.5990  138.8070 C   0  0  2  0  0  3  0  0  0  0  0  0
  191.4610  171.0320  136.7600 S   0  0  0  0  0  0  0  0  0  0  0  0
  189.5710  172.2390  135.2110 C   0  0  0  0  0  1  0  0  0  0  0  0
  191.2420  171.2000  138.5610 C   0  0  2  0  0  3  0  0  0  0  0  0
  189.2500  172.2360  137.6150 N   0  0  0  0  0  2  0  0  0  0  0  0
  189.2100  171.6890  141.2220 C   0  0  0  0  0  3  0  0  0  0  0  0
  189.6440  172.4940  140.0390 C   0  0  2  0  0  3  0  0  0  0  0  0
  189.1160  174.6650  142.0520 C   0  0  0  0  0  3  0  0  0  0  0  0
  188.7500  173.6730  139.7900 C   0  0  0  0  0  3  0  0  0  0  0  0
  188.5640  174.6470  140.6820 C   0  0  0  0  0  3  0  0  0  0  0  0
  189.1350  172.1860  142.4570 C   0  0  0  0  0  3  0  0  0  0  0  0
  189.3640  173.5990  142.8230 C   0  0  0  0  0  3  0  0  0  0  0  0
  194.8080  175.9320  146.8410 O   0  0  0  0  0  0  0  0  0  0  0  0
  194.3720  177.2870  146.7890 C   0  0  0  0  0  2  0  0  0  0  0  0
  194.8990  177.9580  145.5340 C   0  0  0  0  0  1  0  0  0  0  0  0
  1 31  1  6  0  0  0
  1  2  1  0  0  0  0
  3 11  1  0  0  0  0
  4 14  1  0  0  0  0
  5  2  1  0  0  0  0
  5  4  1  0  0  0  0
  6 10  1  0  0  0  0
  6  3  2  0  0  0  0
  7 48  1  0  0  0  0
  8 30  1  1  0  0  0
  8  1  1  0  0  0  0
  8  6  1  0  0  0  0
  9 13  2  0  0  0  0
 10 14  1  1  0  0  0
 10 12  1  0  0  0  0
 11  7  1  0  0  0  0
 11  9  2  0  0  0  0
 12  7  2  0  0  0  0
 15 13  1  6  0  0  0
 16 15  1  0  0  0  0
 17 19  1  1  0  0  0
 17 28  1  0  0  0  0
 17 18  1  0  0  0  0
 18 15  1  0  0  0  0
 19 16  1  0  0  0  0
 20 21  1  0  0  0  0
 23 27  1  0  0  0  0
 24 27  1  0  0  0  0
 25 22  1  1  0  0  0
 25 21  1  0  0  0  0
 27 26  1  6  0  0  0
 27 25  1  0  0  0  0
 28 24  1  6  0  0  0
 28 20  1  0  0  0  0
 29 30  1  0  0  0  0
 32 31  1  0  0  0  0
 34 33  1  1  0  0  0
 34 32  1  0  0  0  0
 35 38  1  6  0  0  0
 35 37  1  0  0  0  0
 35 40  1  0  0  0  0
 36 40  1  6  0  0  0
 36 42  1  0  0  0  0
 37 39  1  0  0  0  0
 39 36  1  0  0  0  0
 39 34  1  1  0  0  0
 41 46  2  0  0  0  0
 42 44  1  6  0  0  0
 42 41  1  0  0  0  0
 43 47  2  0  0  0  0
 44 45  2  0  0  0  0
 45 43  1  0  0  0  0
 46 47  1  0  0  0  0
 49 48  1  0  0  0  0
 50 49  1  0  0  0  0
M  END
>  <MODEL>
3

>  <REMARK>
 VINA RESULT:      -8.1      3.622      8.697
  Name = 
  10 active torsions:
  status: ('A' for Active; 'I' for Inactive)
    1  A    between atoms: C_1  and  C_39
    2  A    between atoms: C_6  and  C_34
    3  A    between atoms: C_12  and  O_42
    4  A    between atoms: C_14  and  O_42
    5  A    between atoms: C_15  and  C_37
    6  A    between atoms: C_17  and  C_22
    7  A    between atoms: N_18  and  N_50
    8  A    between atoms: C_35  and  C_41
    9  A    between atoms: C_35  and  O_47
   10  A    between atoms: C_39  and  O_47
                            x       y       z     vdW  Elec       q    Type
                         _______ _______ _______ _____ _____    ______ ____

>  <TORSDO>
F 10

$$$$
=
 OpenBabel11042415523D

 50 55  0  0  1  0  0  0  0  0999 V2000
  194.4540  173.5380  142.5880 C   0  0  1  0  0  3  0  0  0  0  0  0
  195.5840  172.9840  143.4610 C   0  0  0  0  0  2  0  0  0  0  0  0
  192.5700  174.9020  144.8760 C   0  0  0  0  0  3  0  0  0  0  0  0
  196.8300  173.9930  145.0510 C   0  0  0  0  0  2  0  0  0  0  0  0
  196.5590  173.9690  143.6720 O   0  0  0  0  0  0  0  0  0  0  0  0
  193.7960  175.1850  144.4100 C   0  0  0  0  0  0  0  0  0  0  0  0
  193.0880  176.1660  147.0050 C   0  0  0  0  0  0  0  0  0  0  0  0
  194.1220  174.9990  142.9470 C   0  0  2  0  0  3  0  0  0  0  0  0
  191.0360  174.9100  146.7170 C   0  0  0  0  0  0  0  0  0  0  0  0
  194.8900  175.6570  145.3540 C   0  0  1  0  0  3  0  0  0  0  0  0
  192.2160  175.2320  146.2630 C   0  0  0  0  0  0  0  0  0  0  0  0
  194.3220  176.4090  146.5340 C   0  0  0  0  0  3  0  0  0  0  0  0
  189.8540  174.5940  147.1690 C   0  0  0  0  0  3  0  0  0  0  0  0
  195.6360  174.4440  145.9080 C   0  0  0  0  0  2  0  0  0  0  0  0
  188.6400  175.2070  146.5620 C   0  0  1  0  0  3  0  0  0  0  0  0
  187.9170  176.0370  147.5800 C   0  0  0  0  0  2  0  0  0  0  0  0
  188.4010  177.4780  145.7270 N   0  0  2  0  0  0  0  0  0  0  0  0
  189.0330  176.1760  145.4640 C   0  0  0  0  0  2  0  0  0  0  0  0
  187.4210  177.2130  146.7840 C   0  0  0  0  0  2  0  0  0  0  0  0
  187.7020  176.7820  143.5980 C   0  0  0  0  0  2  0  0  0  0  0  0
  187.0080  177.1680  142.2810 C   0  0  0  0  0  2  0  0  0  0  0  0
  185.4440  178.6920  141.2790 O   0  0  0  0  0  1  0  0  0  0  0  0
  184.2850  177.9290  143.6280 O   0  0  0  0  0  1  0  0  0  0  0  0
  186.2940  178.1170  144.9070 C   0  0  0  0  0  2  0  0  0  0  0  0
  186.2740  178.5100  142.3890 C   0  0  1  0  0  3  0  0  0  0  0  0
  185.1700  180.1130  143.9530 C   0  0  0  0  0  1  0  0  0  0  0  0
  185.4860  178.6460  143.7090 C   0  0  1  0  0  0  0  0  0  0  0  0
  187.7080  177.8960  144.5620 N   0  0  1  0  0  0  0  0  0  0  0  0
  192.5870  176.9390  142.5500 C   0  0  0  0  0  1  0  0  0  0  0  0
  193.0370  175.5820  142.0390 C   0  0  0  0  0  2  0  0  0  0  0  0
  194.8690  173.4380  141.1260 C   0  0  0  0  0  2  0  0  0  0  0  0
  194.1420  172.4310  140.4830 O   0  0  0  0  0  0  0  0  0  0  0  0
  194.0180  173.3330  138.2900 C   0  0  0  0  0  1  0  0  0  0  0  0
  193.2910  173.1100  139.6080 C   0  0  1  0  0  3  0  0  0  0  0  0
  191.8630  169.9010  138.4680 C   0  0  2  0  0  3  0  0  0  0  0  0
  191.8830  171.1810  140.4040 C   0  0  2  0  0  3  0  0  0  0  0  0
  191.9850  171.5500  137.7290 S   0  0  0  0  0  0  0  0  0  0  0  0
  191.0070  169.0090  137.5920 C   0  0  0  0  0  1  0  0  0  0  0  0
  192.0010  172.3100  139.3840 C   0  0  2  0  0  3  0  0  0  0  0  0
  191.2570  170.0240  139.7810 N   0  0  0  0  0  2  0  0  0  0  0  0
  190.6850  173.0430  141.5300 C   0  0  0  0  0  3  0  0  0  0  0  0
  191.1290  171.6220  141.6590 C   0  0  2  0  0  3  0  0  0  0  0  0
  190.0830  172.1520  144.4290 C   0  0  0  0  0  3  0  0  0  0  0  0
  191.9120  171.3780  142.9150 C   0  0  0  0  0  3  0  0  0  0  0  0
  191.4120  171.5800  144.1360 C   0  0  0  0  0  3  0  0  0  0  0  0
  189.8910  173.6450  142.4180 C   0  0  0  0  0  3  0  0  0  0  0  0
  189.4220  173.0480  143.6850 C   0  0  0  0  0  3  0  0  0  0  0  0
  192.6090  176.7960  148.1640 O   0  0  0  0  0  0  0  0  0  0  0  0
  191.3960  177.5430  148.2070 C   0  0  0  0  0  2  0  0  0  0  0  0
  191.2470  178.2200  149.5570 C   0  0  0  0  0  1  0  0  0  0  0  0
  1 31  1  6  0  0  0
  1  8  1  0  0  0  0
  1  2  1  0  0  0  0
  2  5  1  0  0  0  0
  3 11  1  0  0  0  0
  4 14  1  0  0  0  0
  5  4  1  0  0  0  0
  6  3  2  0  0  0  0
  6 10  1  0  0  0  0
  7 48  1  0  0  0  0
  8 30  1  6  0  0  0
  8  6  1  0  0  0  0
  9 13  2  0  0  0  0
 10 14  1  1  0  0  0
 10 12  1  0  0  0  0
 11  9  2  0  0  0  0
 11  7  1  0  0  0  0
 12  7  2  0  0  0  0
 15 13  1  1  0  0  0
 15 16  1  0  0  0  0
 17 18  1  6  0  0  0
 17 19  1  0  0  0  0
 18 15  1  0  0  0  0
 19 16  1  0  0  0  0
 21 25  1  0  0  0  0
 21 20  1  0  0  0  0
 23 27  1  0  0  0  0
 25 22  1  6  0  0  0
 25 27  1  0  0  0  0
 27 26  1  1  0  0  0
 27 24  1  0  0  0  0
 28 20  1  6  0  0  0
 28 24  1  0  0  0  0
 28 17  1  0  0  0  0
 30 29  1  0  0  0  0
 32 31  1  0  0  0  0
 34 33  1  6  0  0  0
 34 32  1  0  0  0  0
 35 38  1  6  0  0  0
 35 40  1  0  0  0  0
 36 40  1  6  0  0  0
 36 42  1  0  0  0  0
 37 35  1  0  0  0  0
 37 39  1  0  0  0  0
 39 34  1  1  0  0  0
 39 36  1  0  0  0  0
 41 46  2  0  0  0  0
 42 41  1  6  0  0  0
 42 44  1  0  0  0  0
 44 45  2  0  0  0  0
 45 43  1  0  0  0  0
 46 47  1  0  0  0  0
 47 43  2  0  0  0  0
 48 49  1  0  0  0  0
 49 50  1  0  0  0  0
M  END
>  <MODEL>
4

>  <REMARK>
 VINA RESULT:      -7.9      3.149      8.752
  Name = 
  10 active torsions:
  status: ('A' for Active; 'I' for Inactive)
    1  A    between atoms: C_1  and  C_39
    2  A    between atoms: C_6  and  C_34
    3  A    between atoms: C_12  and  O_42
    4  A    between atoms: C_14  and  O_42
    5  A    between atoms: C_15  and  C_37
    6  A    between atoms: C_17  and  C_22
    7  A    between atoms: N_18  and  N_50
    8  A    between atoms: C_35  and  C_41
    9  A    between atoms: C_35  and  O_47
   10  A    between atoms: C_39  and  O_47
                            x       y       z     vdW  Elec       q    Type
                         _______ _______ _______ _____ _____    ______ ____

>  <TORSDO>
F 10

$$$$
=
 OpenBabel11042415523D

 50 55  0  0  1  0  0  0  0  0999 V2000
  190.6950  177.2870  143.9900 C   0  0  1  0  0  3  0  0  0  0  0  0
  190.6340  177.7120  145.4600 C   0  0  0  0  0  2  0  0  0  0  0  0
  193.7020  176.0260  143.8750 C   0  0  0  0  0  3  0  0  0  0  0  0
  191.1040  176.5480  147.3360 C   0  0  0  0  0  2  0  0  0  0  0  0
  190.2100  176.6380  146.2560 O   0  0  0  0  0  0  0  0  0  0  0  0
  192.5730  175.6500  144.4960 C   0  0  0  0  0  0  0  0  0  0  0  0
  195.0590  174.6560  145.5130 C   0  0  0  0  0  0  0  0  0  0  0  0
  191.2310  175.8510  143.8340 C   0  0  2  0  0  3  0  0  0  0  0  0
  196.0970  176.0980  143.8650 C   0  0  0  0  0  0  0  0  0  0  0  0
  192.6240  175.0540  145.8930 C   0  0  1  0  0  3  0  0  0  0  0  0
  195.0090  175.6860  144.4540 C   0  0  0  0  0  0  0  0  0  0  0  0
  193.9200  174.3190  146.1390 C   0  0  0  0  0  3  0  0  0  0  0  0
  197.1860  176.5030  143.2720 C   0  0  0  0  0  3  0  0  0  0  0  0
  192.5390  176.1780  146.9240 C   0  0  0  0  0  2  0  0  0  0  0  0
  197.5070  176.0190  141.9010 C   0  0  1  0  0  3  0  0  0  0  0  0
  197.6400  174.5260  141.8990 C   0  0  0  0  0  2  0  0  0  0  0  0
  195.9650  175.0770  140.2750 N   0  0  2  0  0  0  0  0  0  0  0  0
  196.3620  176.3190  140.9540 C   0  0  0  0  0  2  0  0  0  0  0  0
  197.0350  174.1230  140.5810 C   0  0  0  0  0  2  0  0  0  0  0  0
  197.1080  174.6200  138.2780 C   0  0  0  0  0  2  0  0  0  0  0  0
  197.1920  174.8550  136.7600 C   0  0  0  0  0  2  0  0  0  0  0  0
  195.9250  175.4640  134.8120 O   0  0  0  0  0  1  0  0  0  0  0  0
  194.3530  173.6810  136.1510 O   0  0  0  0  0  1  0  0  0  0  0  0
  194.7680  174.6350  138.3030 C   0  0  0  0  0  2  0  0  0  0  0  0
  195.9230  175.5150  136.2090 C   0  0  1  0  0  3  0  0  0  0  0  0
  193.4750  175.8530  136.5700 C   0  0  0  0  0  1  0  0  0  0  0  0
  194.6350  174.8950  136.7920 C   0  0  1  0  0  0  0  0  0  0  0  0
  195.9480  175.3040  138.8750 N   0  0  1  0  0  0  0  0  0  0  0  0
  191.0900  173.8860  142.2860 C   0  0  0  0  0  1  0  0  0  0  0  0
  191.2370  175.3950  142.3730 C   0  0  0  0  0  2  0  0  0  0  0  0
  189.2990  177.3950  143.3890 C   0  0  0  0  0  2  0  0  0  0  0  0
  188.4680  176.3990  143.9100 O   0  0  0  0  0  0  0  0  0  0  0  0
  187.1040  175.1730  142.4030 C   0  0  0  0  0  1  0  0  0  0  0  0
  187.2960  176.4810  143.1560 C   0  0  1  0  0  3  0  0  0  0  0  0
  186.0150  178.5060  145.9670 C   0  0  2  0  0  3  0  0  0  0  0  0
  185.4800  178.1230  143.7410 C   0  0  2  0  0  3  0  0  0  0  0  0
  186.5900  176.7940  145.8160 S   0  0  0  0  0  0  0  0  0  0  0  0
  185.4380  178.7320  147.3490 C   0  0  0  0  0  1  0  0  0  0  0  0
  186.0920  176.7630  144.0640 C   0  0  2  0  0  3  0  0  0  0  0  0
  184.9920  178.7420  144.9650 N   0  0  0  0  0  2  0  0  0  0  0  0
  184.8990  178.4160  141.3430 C   0  0  0  0  0  3  0  0  0  0  0  0
  184.3770  178.0170  142.6860 C   0  0  2  0  0  3  0  0  0  0  0  0
  181.8430  178.0390  141.0670 C   0  0  0  0  0  3  0  0  0  0  0  0
  183.1410  178.7760  143.0690 C   0  0  0  0  0  3  0  0  0  0  0  0
  182.0130  178.7360  142.3580 C   0  0  0  0  0  3  0  0  0  0  0  0
  184.1930  178.2910  140.2180 C   0  0  0  0  0  3  0  0  0  0  0  0
  182.7870  177.8450  140.1380 C   0  0  0  0  0  3  0  0  0  0  0  0
  196.2780  174.0360  145.8240 O   0  0  0  0  0  0  0  0  0  0  0  0
  196.6000  172.7010  145.4440 C   0  0  0  0  0  2  0  0  0  0  0  0
  195.7900  172.2940  144.2270 C   0  0  0  0  0  1  0  0  0  0  0  0
  1 31  1  1  0  0  0
  1  2  1  0  0  0  0
  2  5  1  0  0  0  0
  3 11  1  0  0  0  0
  3  6  2  0  0  0  0
  5  4  1  0  0  0  0
  6 10  1  0  0  0  0
  7 48  1  0  0  0  0
  7 12  2  0  0  0  0
  8 30  1  6  0  0  0
  8  1  1  0  0  0  0
  8  6  1  0  0  0  0
  9 11  2  0  0  0  0
 10 12  1  6  0  0  0
 10 14  1  0  0  0  0
 11  7  1  0  0  0  0
 13  9  2  0  0  0  0
 14  4  1  0  0  0  0
 15 13  1  1  0  0  0
 16 15  1  0  0  0  0
 17 19  1  6  0  0  0
 17 18  1  0  0  0  0
 18 15  1  0  0  0  0
 19 16  1  0  0  0  0
 21 20  1  0  0  0  0
 23 27  1  0  0  0  0
 24 28  1  0  0  0  0
 25 22  1  6  0  0  0
 25 21  1  0  0  0  0
 25 27  1  0  0  0  0
 27 26  1  6  0  0  0
 27 24  1  0  0  0  0
 28 20  1  6  0  0  0
 28 17  1  0  0  0  0
 29 30  1  0  0  0  0
 31 32  1  0  0  0  0
 34 33  1  1  0  0  0
 34 32  1  0  0  0  0
 35 38  1  1  0  0  0
 36 39  1  0  0  0  0
 36 40  1  1  0  0  0
 37 35  1  0  0  0  0
 39 34  1  6  0  0  0
 39 37  1  0  0  0  0
 40 35  1  0  0  0  0
 42 41  1  6  0  0  0
 42 44  1  0  0  0  0
 42 36  1  0  0  0  0
 43 45  1  0  0  0  0
 45 44  2  0  0  0  0
 46 41  2  0  0  0  0
 47 46  1  0  0  0  0
 47 43  2  0  0  0  0
 49 48  1  0  0  0  0
 50 49  1  0  0  0  0
M  END
>  <MODEL>
5

>  <REMARK>
 VINA RESULT:      -7.9      1.249      2.711
  Name = 
  10 active torsions:
  status: ('A' for Active; 'I' for Inactive)
    1  A    between atoms: C_1  and  C_39
    2  A    between atoms: C_6  and  C_34
    3  A    between atoms: C_12  and  O_42
    4  A    between atoms: C_14  and  O_42
    5  A    between atoms: C_15  and  C_37
    6  A    between atoms: C_17  and  C_22
    7  A    between atoms: N_18  and  N_50
    8  A    between atoms: C_35  and  C_41
    9  A    between atoms: C_35  and  O_47
   10  A    between atoms: C_39  and  O_47
                            x       y       z     vdW  Elec       q    Type
                         _______ _______ _______ _____ _____    ______ ____

>  <TORSDO>
F 10

$$$$
=
 OpenBabel11042415523D

 50 55  0  0  1  0  0  0  0  0999 V2000
  188.5290  176.8670  144.7880 C   0  0  1  0  0  3  0  0  0  0  0  0
  187.0180  177.0860  144.9180 C   0  0  0  0  0  2  0  0  0  0  0  0
  188.6730  175.5670  141.8000 C   0  0  0  0  0  3  0  0  0  0  0  0
  185.5650  178.0960  143.5160 C   0  0  0  0  0  2  0  0  0  0  0  0
  186.6610  178.3240  144.3660 O   0  0  0  0  0  0  0  0  0  0  0  0
  188.3440  176.7870  142.2540 C   0  0  0  0  0  0  0  0  0  0  0  0
  187.4020  176.0230  139.6600 C   0  0  0  0  0  0  0  0  0  0  0  0
  189.0650  177.3830  143.4400 C   0  0  2  0  0  3  0  0  0  0  0  0
  188.3720  173.8560  140.1490 C   0  0  0  0  0  0  0  0  0  0  0  0
  187.2120  177.5700  141.6100 C   0  0  1  0  0  3  0  0  0  0  0  0
  188.0780  175.0610  140.5550 C   0  0  0  0  0  0  0  0  0  0  0  0
  187.0570  177.2250  140.1480 C   0  0  0  0  0  3  0  0  0  0  0  0
  188.6700  172.6540  139.7390 C   0  0  0  0  0  3  0  0  0  0  0  0
  185.8970  177.2150  142.3000 C   0  0  0  0  0  2  0  0  0  0  0  0
  190.0740  172.3240  139.3700 C   0  0  1  0  0  3  0  0  0  0  0  0
  190.1570  171.9800  137.9140 C   0  0  0  0  0  2  0  0  0  0  0  0
  191.6920  173.7820  138.2900 N   0  0  2  0  0  0  0  0  0  0  0  0
  190.9640  173.5400  139.5450 C   0  0  0  0  0  2  0  0  0  0  0  0
  191.4720  172.5750  137.4890 C   0  0  0  0  0  2  0  0  0  0  0  0
  193.6800  174.8300  137.6160 C   0  0  0  0  0  2  0  0  0  0  0  0
  195.1970  174.9700  137.8280 C   0  0  0  0  0  2  0  0  0  0  0  0
  196.9750  174.6860  139.4180 O   0  0  0  0  0  1  0  0  0  0  0  0
  194.9660  175.9000  140.8090 O   0  0  0  0  0  1  0  0  0  0  0  0
  193.2390  174.5260  139.8950 C   0  0  0  0  0  2  0  0  0  0  0  0
  195.6600  174.3080  139.1310 C   0  0  1  0  0  3  0  0  0  0  0  0
  194.9620  173.6010  141.4220 C   0  0  0  0  0  1  0  0  0  0  0  0
  194.7170  174.6130  140.3140 C   0  0  1  0  0  0  0  0  0  0  0  0
  193.0770  173.8900  138.5770 N   0  0  1  0  0  0  0  0  0  0  0  0
  191.2740  178.5650  143.5120 C   0  0  0  0  0  1  0  0  0  0  0  0
  190.5830  177.2250  143.3260 C   0  0  0  0  0  2  0  0  0  0  0  0
  189.2280  177.5800  145.9390 C   0  0  0  0  0  2  0  0  0  0  0  0
  189.5070  176.6780  146.9710 O   0  0  0  0  0  0  0  0  0  0  0  0
  191.5560  176.8150  148.1620 C   0  0  0  0  0  1  0  0  0  0  0  0
  190.8740  176.4210  146.8600 C   0  0  1  0  0  3  0  0  0  0  0  0
  189.8540  173.5400  144.7860 C   0  0  2  0  0  3  0  0  0  0  0  0
  191.7790  174.7750  145.1830 C   0  0  2  0  0  3  0  0  0  0  0  0
  189.5490  174.0150  146.5080 S   0  0  0  0  0  0  0  0  0  0  0  0
  189.3170  172.1460  144.5370 C   0  0  0  0  0  1  0  0  0  0  0  0
  191.1190  174.9390  146.5490 C   0  0  2  0  0  3  0  0  0  0  0  0
  191.2850  173.5650  144.5440 N   0  0  0  0  0  2  0  0  0  0  0  0
  193.8930  175.7330  144.2950 C   0  0  0  0  0  3  0  0  0  0  0  0
  193.3050  174.7770  145.2830 C   0  0  2  0  0  3  0  0  0  0  0  0
  196.2360  174.1600  145.5570 C   0  0  0  0  0  3  0  0  0  0  0  0
  193.8900  173.4000  145.1650 C   0  0  0  0  0  3  0  0  0  0  0  0
  195.1880  173.1430  145.3330 C   0  0  0  0  0  3  0  0  0  0  0  0
  195.1910  176.0360  144.2550 C   0  0  0  0  0  3  0  0  0  0  0  0
  196.2390  175.4140  145.0900 C   0  0  0  0  0  3  0  0  0  0  0  0
  187.1590  175.6770  138.3220 O   0  0  0  0  0  0  0  0  0  0  0  0
  186.2480  176.3800  137.4820 C   0  0  0  0  0  2  0  0  0  0  0  0
  186.5190  176.0500  136.0260 C   0  0  0  0  0  1  0  0  0  0  0  0
  1  2  1  0  0  0  0
  1 31  1  1  0  0  0
  3  6  2  0  0  0  0
  4  5  1  0  0  0  0
  5  2  1  0  0  0  0
  6  8  1  0  0  0  0
  7 12  2  0  0  0  0
  7 11  1  0  0  0  0
  8 30  1  6  0  0  0
  8  1  1  0  0  0  0
  9 11  2  0  0  0  0
 10 12  1  6  0  0  0
 10  6  1  0  0  0  0
 10 14  1  0  0  0  0
 11  3  1  0  0  0  0
 13  9  2  0  0  0  0
 14  4  1  0  0  0  0
 15 18  1  0  0  0  0
 15 13  1  6  0  0  0
 16 15  1  0  0  0  0
 17 19  1  6  0  0  0
 17 28  1  0  0  0  0
 17 18  1  0  0  0  0
 19 16  1  0  0  0  0
 20 21  1  0  0  0  0
 21 25  1  0  0  0  0
 24 27  1  0  0  0  0
 25 22  1  1  0  0  0
 25 27  1  0  0  0  0
 27 23  1  0  0  0  0
 27 26  1  1  0  0  0
 28 20  1  6  0  0  0
 28 24  1  0  0  0  0
 30 29  1  0  0  0  0
 31 32  1  0  0  0  0
 34 32  1  0  0  0  0
 34 33  1  1  0  0  0
 35 38  1  1  0  0  0
 35 37  1  0  0  0  0
 36 40  1  1  0  0  0
 36 42  1  0  0  0  0
 36 39  1  0  0  0  0
 37 39  1  0  0  0  0
 39 34  1  6  0  0  0
 40 35  1  0  0  0  0
 42 41  1  6  0  0  0
 44 42  1  0  0  0  0
 44 45  2  0  0  0  0
 45 43  1  0  0  0  0
 46 41  2  0  0  0  0
 46 47  1  0  0  0  0
 47 43  2  0  0  0  0
 48  7  1  0  0  0  0
 49 48  1  0  0  0  0
 50 49  1  0  0  0  0
M  END
>  <MODEL>
6

>  <REMARK>
 VINA RESULT:      -7.7      2.909      7.628
  Name = 
  10 active torsions:
  status: ('A' for Active; 'I' for Inactive)
    1  A    between atoms: C_1  and  C_39
    2  A    between atoms: C_6  and  C_34
    3  A    between atoms: C_12  and  O_42
    4  A    between atoms: C_14  and  O_42
    5  A    between atoms: C_15  and  C_37
    6  A    between atoms: C_17  and  C_22
    7  A    between atoms: N_18  and  N_50
    8  A    between atoms: C_35  and  C_41
    9  A    between atoms: C_35  and  O_47
   10  A    between atoms: C_39  and  O_47
                            x       y       z     vdW  Elec       q    Type
                         _______ _______ _______ _____ _____    ______ ____

>  <TORSDO>
F 10

$$$$
=
 OpenBabel11042415523D

 50 55  0  0  1  0  0  0  0  0999 V2000
  188.5870  176.4770  144.3240 C   0  0  1  0  0  3  0  0  0  0  0  0
  187.0990  176.7270  144.5930 C   0  0  0  0  0  2  0  0  0  0  0  0
  188.4630  175.5510  141.1980 C   0  0  0  0  0  3  0  0  0  0  0  0
  185.5920  177.9470  143.4380 C   0  0  0  0  0  2  0  0  0  0  0  0
  186.7540  178.0340  144.2230 O   0  0  0  0  0  0  0  0  0  0  0  0
  188.2170  176.7150  141.8200 C   0  0  0  0  0  0  0  0  0  0  0  0
  187.0610  176.3080  139.2320 C   0  0  0  0  0  0  0  0  0  0  0  0
  189.0450  177.1380  143.0100 C   0  0  2  0  0  3  0  0  0  0  0  0
  187.9730  174.0670  139.3810 C   0  0  0  0  0  0  0  0  0  0  0  0
  187.0750  177.6080  141.3630 C   0  0  1  0  0  3  0  0  0  0  0  0
  187.7600  175.2220  139.9500 C   0  0  0  0  0  0  0  0  0  0  0  0
  186.8010  177.4510  139.8860 C   0  0  0  0  0  3  0  0  0  0  0  0
  188.1920  172.9160  138.8080 C   0  0  0  0  0  3  0  0  0  0  0  0
  185.7990  177.2130  142.1040 C   0  0  0  0  0  2  0  0  0  0  0  0
  189.5510  172.5900  138.2960 C   0  0  1  0  0  3  0  0  0  0  0  0
  189.5540  172.5980  136.7970 C   0  0  0  0  0  2  0  0  0  0  0  0
  191.2380  174.1510  137.5030 N   0  0  2  0  0  0  0  0  0  0  0  0
  190.5400  173.6650  138.7030 C   0  0  0  0  0  2  0  0  0  0  0  0
  190.8950  173.1870  136.4530 C   0  0  0  0  0  2  0  0  0  0  0  0
  193.2560  175.2900  137.1380 C   0  0  0  0  0  2  0  0  0  0  0  0
  194.7850  175.2840  137.3000 C   0  0  0  0  0  2  0  0  0  0  0  0
  196.6030  174.3770  138.5820 O   0  0  0  0  0  1  0  0  0  0  0  0
  194.7210  175.0880  140.4250 O   0  0  0  0  0  1  0  0  0  0  0  0
  192.8840  174.2050  139.1780 C   0  0  0  0  0  2  0  0  0  0  0  0
  195.2590  174.1810  138.2530 C   0  0  1  0  0  3  0  0  0  0  0  0
  194.6090  172.7250  140.1750 C   0  0  0  0  0  1  0  0  0  0  0  0
  194.3800  174.0770  139.5170 C   0  0  1  0  0  0  0  0  0  0  0  0
  192.6370  174.0930  137.7310 N   0  0  1  0  0  0  0  0  0  0  0  0
  191.3030  178.2220  143.0820 C   0  0  0  0  0  1  0  0  0  0  0  0
  190.5440  176.9470  142.7630 C   0  0  0  0  0  2  0  0  0  0  0  0
  189.3950  177.0200  145.4960 C   0  0  0  0  0  2  0  0  0  0  0  0
  189.6270  176.0100  146.4350 O   0  0  0  0  0  0  0  0  0  0  0  0
  191.2230  175.2910  148.0380 C   0  0  0  0  0  1  0  0  0  0  0  0
  190.9370  176.2200  146.8680 C   0  0  1  0  0  3  0  0  0  0  0  0
  194.3570  175.1340  145.9900 C   0  0  2  0  0  3  0  0  0  0  0  0
  192.1770  174.4730  145.5450 C   0  0  2  0  0  3  0  0  0  0  0  0
  193.5370  176.7480  146.0710 S   0  0  0  0  0  0  0  0  0  0  0  0
  195.7400  175.2920  145.3930 C   0  0  0  0  0  1  0  0  0  0  0  0
  191.9280  175.9680  145.7240 C   0  0  2  0  0  3  0  0  0  0  0  0
  193.5620  174.2510  145.1560 N   0  0  0  0  0  2  0  0  0  0  0  0
  190.3420  172.8300  145.2170 C   0  0  0  0  0  3  0  0  0  0  0  0
  191.2040  173.8480  144.5430 C   0  0  2  0  0  3  0  0  0  0  0  0
  189.7830  172.6430  142.1830 C   0  0  0  0  0  3  0  0  0  0  0  0
  191.9000  173.2990  143.3330 C   0  0  0  0  0  3  0  0  0  0  0  0
  191.2470  172.8080  142.2780 C   0  0  0  0  0  3  0  0  0  0  0  0
  189.3160  172.2260  144.6150 C   0  0  0  0  0  3  0  0  0  0  0  0
  188.9440  172.3900  143.1950 C   0  0  0  0  0  3  0  0  0  0  0  0
  186.7080  176.1370  137.8850 O   0  0  0  0  0  0  0  0  0  0  0  0
  187.3810  176.7840  136.8080 C   0  0  0  0  0  2  0  0  0  0  0  0
  186.7290  176.4160  135.4880 C   0  0  0  0  0  1  0  0  0  0  0  0
  1  2  1  0  0  0  0
  1 31  1  1  0  0  0
  3  6  2  0  0  0  0
  4  5  1  0  0  0  0
  5  2  1  0  0  0  0
  6  8  1  0  0  0  0
  7 12  2  0  0  0  0
  7 11  1  0  0  0  0
  8 30  1  6  0  0  0
  8  1  1  0  0  0  0
  9 11  2  0  0  0  0
 10 12  1  6  0  0  0
 10  6  1  0  0  0  0
 10 14  1  0  0  0  0
 11  3  1  0  0  0  0
 13  9  2  0  0  0  0
 14  4  1  0  0  0  0
 15 18  1  0  0  0  0
 15 13  1  1  0  0  0
 16 15  1  0  0  0  0
 17 19  1  6  0  0  0
 17 28  1  0  0  0  0
 17 18  1  0  0  0  0
 19 16  1  0  0  0  0
 20 21  1  0  0  0  0
 21 25  1  0  0  0  0
 24 27  1  0  0  0  0
 25 22  1  1  0  0  0
 25 27  1  0  0  0  0
 27 26  1  1  0  0  0
 27 23  1  0  0  0  0
 28 20  1  6  0  0  0
 28 24  1  0  0  0  0
 30 29  1  0  0  0  0
 31 32  1  0  0  0  0
 32 34  1  0  0  0  0
 34 33  1  1  0  0  0
 35 38  1  6  0  0  0
 35 37  1  0  0  0  0
 36 40  1  6  0  0  0
 36 39  1  0  0  0  0
 39 37  1  0  0  0  0
 39 34  1  1  0  0  0
 40 35  1  0  0  0  0
 42 44  1  6  0  0  0
 42 41  1  0  0  0  0
 42 36  1  0  0  0  0
 43 45  1  0  0  0  0
 43 47  2  0  0  0  0
 45 44  2  0  0  0  0
 46 41  2  0  0  0  0
 47 46  1  0  0  0  0
 48  7  1  0  0  0  0
 49 48  1  0  0  0  0
 50 49  1  0  0  0  0
M  END
>  <MODEL>
7

>  <REMARK>
 VINA RESULT:      -7.7      3.093      7.709
  Name = 
  10 active torsions:
  status: ('A' for Active; 'I' for Inactive)
    1  A    between atoms: C_1  and  C_39
    2  A    between atoms: C_6  and  C_34
    3  A    between atoms: C_12  and  O_42
    4  A    between atoms: C_14  and  O_42
    5  A    between atoms: C_15  and  C_37
    6  A    between atoms: C_17  and  C_22
    7  A    between atoms: N_18  and  N_50
    8  A    between atoms: C_35  and  C_41
    9  A    between atoms: C_35  and  O_47
   10  A    between atoms: C_39  and  O_47
                            x       y       z     vdW  Elec       q    Type
                         _______ _______ _______ _____ _____    ______ ____

>  <TORSDO>
F 10

$$$$
=
 OpenBabel11042415523D

 50 55  0  0  1  0  0  0  0  0999 V2000
  187.4810  176.5920  140.7430 C   0  0  1  0  0  3  0  0  0  0  0  0
  186.5370  177.7990  140.7160 C   0  0  0  0  0  2  0  0  0  0  0  0
  188.2450  176.5250  143.9140 C   0  0  0  0  0  3  0  0  0  0  0  0
  184.7430  178.2770  142.0000 C   0  0  0  0  0  2  0  0  0  0  0  0
  185.2300  177.3960  141.0190 O   0  0  0  0  0  0  0  0  0  0  0  0
  187.1060  176.3010  143.2410 C   0  0  0  0  0  0  0  0  0  0  0  0
  186.9120  176.9750  146.0170 C   0  0  0  0  0  0  0  0  0  0  0  0
  187.1340  175.6250  141.8910 C   0  0  2  0  0  3  0  0  0  0  0  0
  189.3130  177.2960  145.9170 C   0  0  0  0  0  0  0  0  0  0  0  0
  185.7730  176.7610  143.8060 C   0  0  1  0  0  3  0  0  0  0  0  0
  188.1970  177.0390  145.2900 C   0  0  0  0  0  0  0  0  0  0  0  0
  185.7840  176.7790  145.3160 C   0  0  0  0  0  3  0  0  0  0  0  0
  190.4270  177.5470  146.5460 C   0  0  0  0  0  3  0  0  0  0  0  0
  185.4930  178.1880  143.3390 C   0  0  0  0  0  2  0  0  0  0  0  0
  191.3770  176.4390  146.8410 C   0  0  1  0  0  3  0  0  0  0  0  0
  190.6610  175.1230  146.8080 C   0  0  0  0  0  2  0  0  0  0  0  0
  192.4660  174.9710  145.2370 N   0  0  2  0  0  0  0  0  0  0  0  0
  192.4320  176.3470  145.7550 C   0  0  0  0  0  2  0  0  0  0  0  0
  191.6690  174.1920  146.1900 C   0  0  0  0  0  2  0  0  0  0  0  0
  193.7760  173.0320  145.4000 C   0  0  0  0  0  2  0  0  0  0  0  0
  195.1930  172.4400  145.4940 C   0  0  0  0  0  2  0  0  0  0  0  0
  197.5100  172.8490  145.0080 O   0  0  0  0  0  1  0  0  0  0  0  0
  196.1650  173.6390  142.7700 O   0  0  0  0  0  1  0  0  0  0  0  0
  194.4330  174.7650  143.9710 C   0  0  0  0  0  2  0  0  0  0  0  0
  196.2730  173.4790  145.1770 C   0  0  1  0  0  3  0  0  0  0  0  0
  196.7680  175.6060  143.9650 C   0  0  0  0  0  1  0  0  0  0  0  0
  195.9140  174.3480  143.9520 C   0  0  1  0  0  0  0  0  0  0  0  0
  193.8030  174.4990  145.2740 N   0  0  1  0  0  0  0  0  0  0  0  0
  187.1970  173.1230  142.0040 C   0  0  0  0  0  1  0  0  0  0  0  0
  188.0320  174.3850  141.8890 C   0  0  0  0  0  2  0  0  0  0  0  0
  187.3950  175.8720  139.4040 C   0  0  0  0  0  2  0  0  0  0  0  0
  188.4840  175.0090  139.2450 O   0  0  0  0  0  0  0  0  0  0  0  0
  187.8130  174.9750  136.9680 C   0  0  0  0  0  1  0  0  0  0  0  0
  188.1100  174.1490  138.2110 C   0  0  1  0  0  3  0  0  0  0  0  0
  191.3730  173.5860  136.5770 C   0  0  2  0  0  3  0  0  0  0  0  0
  190.4830  173.4790  138.7170 C   0  0  2  0  0  3  0  0  0  0  0  0
  189.6710  173.1260  136.1640 S   0  0  0  0  0  0  0  0  0  0  0  0
  192.3310  172.9230  135.6090 C   0  0  0  0  0  1  0  0  0  0  0  0
  189.2230  173.1310  137.9300 C   0  0  2  0  0  3  0  0  0  0  0  0
  191.6600  173.1440  137.9290 N   0  0  0  0  0  2  0  0  0  0  0  0
  191.4600  173.4940  141.0020 C   0  0  0  0  0  3  0  0  0  0  0  0
  190.5080  172.7950  140.0850 C   0  0  2  0  0  3  0  0  0  0  0  0
  190.5250  170.9210  142.4380 C   0  0  0  0  0  3  0  0  0  0  0  0
  190.7850  171.3240  139.9870 C   0  0  0  0  0  3  0  0  0  0  0  0
  190.7440  170.5030  141.0380 C   0  0  0  0  0  3  0  0  0  0  0  0
  191.5820  173.1950  142.2960 C   0  0  0  0  0  3  0  0  0  0  0  0
  190.8880  172.0880  142.9850 C   0  0  0  0  0  3  0  0  0  0  0  0
  186.8960  177.0930  147.4150 O   0  0  0  0  0  0  0  0  0  0  0  0
  185.9790  177.9220  148.1230 C   0  0  0  0  0  2  0  0  0  0  0  0
  185.9590  179.3150  147.5200 C   0  0  0  0  0  1  0  0  0  0  0  0
  1 31  1  6  0  0  0
  1  8  1  0  0  0  0
  2  1  1  0  0  0  0
  2  5  1  0  0  0  0
  3 11  1  0  0  0  0
  4 14  1  0  0  0  0
  5  4  1  0  0  0  0
  6 10  1  0  0  0  0
  6  3  2  0  0  0  0
  7 48  1  0  0  0  0
  8 30  1  1  0  0  0
  8  6  1  0  0  0  0
  9 13  2  0  0  0  0
 10 14  1  6  0  0  0
 10 12  1  0  0  0  0
 11  9  2  0  0  0  0
 11  7  1  0  0  0  0
 12  7  2  0  0  0  0
 15 13  1  6  0  0  0
 16 15  1  0  0  0  0
 17 28  1  0  0  0  0
 17 18  1  1  0  0  0
 17 19  1  0  0  0  0
 18 15  1  0  0  0  0
 19 16  1  0  0  0  0
 20 21  1  0  0  0  0
 23 27  1  0  0  0  0
 25 22  1  6  0  0  0
 25 21  1  0  0  0  0
 27 26  1  1  0  0  0
 27 24  1  0  0  0  0
 27 25  1  0  0  0  0
 28 24  1  6  0  0  0
 28 20  1  0  0  0  0
 30 29  1  0  0  0  0
 32 31  1  0  0  0  0
 34 33  1  6  0  0  0
 34 32  1  0  0  0  0
 35 38  1  6  0  0  0
 35 40  1  0  0  0  0
 36 40  1  6  0  0  0
 36 42  1  0  0  0  0
 37 35  1  0  0  0  0
 37 39  1  0  0  0  0
 39 34  1  6  0  0  0
 39 36  1  0  0  0  0
 41 46  2  0  0  0  0
 42 44  1  6  0  0  0
 42 41  1  0  0  0  0
 43 47  2  0  0  0  0
 44 45  2  0  0  0  0
 45 43  1  0  0  0  0
 46 47  1  0  0  0  0
 48 49  1  0  0  0  0
 50 49  1  0  0  0  0
M  END
>  <MODEL>
8

>  <REMARK>
 VINA RESULT:      -7.5      3.330      7.954
  Name = 
  10 active torsions:
  status: ('A' for Active; 'I' for Inactive)
    1  A    between atoms: C_1  and  C_39
    2  A    between atoms: C_6  and  C_34
    3  A    between atoms: C_12  and  O_42
    4  A    between atoms: C_14  and  O_42
    5  A    between atoms: C_15  and  C_37
    6  A    between atoms: C_17  and  C_22
    7  A    between atoms: N_18  and  N_50
    8  A    between atoms: C_35  and  C_41
    9  A    between atoms: C_35  and  O_47
   10  A    between atoms: C_39  and  O_47
                            x       y       z     vdW  Elec       q    Type
                         _______ _______ _______ _____ _____    ______ ____

>  <TORSDO>
F 10

$$$$
=
 OpenBabel11042415523D

 50 55  0  0  1  0  0  0  0  0999 V2000
  194.2660  171.2140  142.1580 C   0  0  1  0  0  3  0  0  0  0  0  0
  194.8260  171.2230  140.7330 C   0  0  0  0  0  2  0  0  0  0  0  0
  191.3010  172.4660  141.6250 C   0  0  0  0  0  3  0  0  0  0  0  0
  193.9390  170.4360  138.8110 C   0  0  0  0  0  2  0  0  0  0  0  0
  194.4550  170.0500  140.0600 O   0  0  0  0  0  0  0  0  0  0  0  0
  191.8860  171.3110  141.2700 C   0  0  0  0  0  0  0  0  0  0  0  0
  189.6300  172.1970  139.7440 C   0  0  0  0  0  0  0  0  0  0  0  0
  192.8460  170.6190  142.2080 C   0  0  2  0  0  3  0  0  0  0  0  0
  189.7250  174.1970  141.1100 C   0  0  0  0  0  0  0  0  0  0  0  0
  191.6240  170.7030  139.9020 C   0  0  1  0  0  3  0  0  0  0  0  0
  190.2530  173.0510  140.7770 C   0  0  0  0  0  0  0  0  0  0  0  0
  190.2510  171.0610  139.3860 C   0  0  0  0  0  3  0  0  0  0  0  0
  189.1920  175.3390  141.4450 C   0  0  0  0  0  3  0  0  0  0  0  0
  192.6400  171.2530  138.9030 C   0  0  0  0  0  2  0  0  0  0  0  0
  188.4280  175.4540  142.7170 C   0  0  1  0  0  3  0  0  0  0  0  0
  189.2930  175.0630  143.8770 C   0  0  0  0  0  2  0  0  0  0  0  0
  188.5040  177.2830  144.3190 N   0  0  2  0  0  0  0  0  0  0  0  0
  188.0470  176.9000  142.9740 C   0  0  0  0  0  2  0  0  0  0  0  0
  188.8790  176.0200  144.9610 C   0  0  0  0  0  2  0  0  0  0  0  0
  186.1640  177.2970  144.4810 C   0  0  0  0  0  2  0  0  0  0  0  0
  184.9250  177.8950  145.1700 C   0  0  0  0  0  2  0  0  0  0  0  0
  184.1450  179.0020  147.1530 O   0  0  0  0  0  1  0  0  0  0  0  0
  185.7580  176.9930  148.0500 O   0  0  0  0  0  1  0  0  0  0  0  0
  187.4670  177.3750  146.4240 C   0  0  0  0  0  2  0  0  0  0  0  0
  185.2950  178.7080  146.4150 C   0  0  1  0  0  3  0  0  0  0  0  0
  186.9920  179.0210  148.2200 C   0  0  0  0  0  1  0  0  0  0  0  0
  186.3570  178.0030  147.2850 C   0  0  1  0  0  0  0  0  0  0  0  0
  187.4150  177.8470  145.0300 N   0  0  1  0  0  0  0  0  0  0  0  0
  192.3970  171.9040  144.3110 C   0  0  0  0  0  1  0  0  0  0  0  0
  192.3010  170.5470  143.6360 C   0  0  0  0  0  2  0  0  0  0  0  0
  195.2040  170.4090  143.0490 C   0  0  0  0  0  2  0  0  0  0  0  0
  196.3710  171.1360  143.3060 O   0  0  0  0  0  0  0  0  0  0  0  0
  196.7070  171.4870  145.6300 C   0  0  0  0  0  1  0  0  0  0  0  0
  196.0350  171.9870  144.3600 C   0  0  1  0  0  3  0  0  0  0  0  0
  197.0110  174.3610  141.7040 C   0  0  2  0  0  3  0  0  0  0  0  0
  195.3600  174.1810  143.3250 C   0  0  2  0  0  3  0  0  0  0  0  0
  197.9330  173.4420  142.9630 S   0  0  0  0  0  0  0  0  0  0  0  0
  197.9370  175.3270  140.9940 C   0  0  0  0  0  1  0  0  0  0  0  0
  196.4710  173.4250  144.0490 C   0  0  2  0  0  3  0  0  0  0  0  0
  195.9430  175.0970  142.3560 N   0  0  0  0  0  2  0  0  0  0  0  0
  193.6250  175.9410  143.5860 C   0  0  0  0  0  3  0  0  0  0  0  0
  194.4350  174.9090  144.3030 C   0  0  2  0  0  3  0  0  0  0  0  0
  193.1110  176.3090  146.6120 C   0  0  0  0  0  3  0  0  0  0  0  0
  195.1750  175.4770  145.4780 C   0  0  0  0  0  3  0  0  0  0  0  0
  194.5630  176.0560  146.5130 C   0  0  0  0  0  3  0  0  0  0  0  0
  192.6420  176.6320  144.1660 C   0  0  0  0  0  3  0  0  0  0  0  0
  192.2770  176.5590  145.5960 C   0  0  0  0  0  3  0  0  0  0  0  0
  188.4010  172.5700  139.1800 O   0  0  0  0  0  0  0  0  0  0  0  0
  188.2740  173.1450  137.8820 C   0  0  0  0  0  2  0  0  0  0  0  0
  187.8210  174.5890  137.9920 C   0  0  0  0  0  1  0  0  0  0  0  0
  1  8  1  0  0  0  0
  1 31  1  1  0  0  0
  2  1  1  0  0  0  0
  4 14  1  0  0  0  0
  4  5  1  0  0  0  0
  5  2  1  0  0  0  0
  6  3  2  0  0  0  0
  6  8  1  0  0  0  0
  7 11  1  0  0  0  0
  8 30  1  1  0  0  0
  9 13  2  0  0  0  0
 10 14  1  6  0  0  0
 10  6  1  0  0  0  0
 11  9  2  0  0  0  0
 11  3  1  0  0  0  0
 12  7  2  0  0  0  0
 12 10  1  0  0  0  0
 15 13  1  6  0  0  0
 15 18  1  0  0  0  0
 15 16  1  0  0  0  0
 16 19  1  0  0  0  0
 17 18  1  6  0  0  0
 17 19  1  0  0  0  0
 17 28  1  0  0  0  0
 20 21  1  0  0  0  0
 21 25  1  0  0  0  0
 24 27  1  0  0  0  0
 25 22  1  1  0  0  0
 25 27  1  0  0  0  0
 27 23  1  0  0  0  0
 27 26  1  1  0  0  0
 28 20  1  6  0  0  0
 28 24  1  0  0  0  0
 30 29  1  0  0  0  0
 31 32  1  0  0  0  0
 32 34  1  0  0  0  0
 34 33  1  1  0  0  0
 35 38  1  1  0  0  0
 35 40  1  0  0  0  0
 35 37  1  0  0  0  0
 36 40  1  6  0  0  0
 36 39  1  0  0  0  0
 36 42  1  0  0  0  0
 37 39  1  0  0  0  0
 39 34  1  6  0  0  0
 41 46  2  0  0  0  0
 42 41  1  6  0  0  0
 42 44  1  0  0  0  0
 44 45  2  0  0  0  0
 45 43  1  0  0  0  0
 46 47  1  0  0  0  0
 47 43  2  0  0  0  0
 48  7  1  0  0  0  0
 49 50  1  0  0  0  0
 49 48  1  0  0  0  0
M  END
>  <MODEL>
9

>  <REMARK>
 VINA RESULT:      -7.4      3.496     10.429
  Name = 
  10 active torsions:
  status: ('A' for Active; 'I' for Inactive)
    1  A    between atoms: C_1  and  C_39
    2  A    between atoms: C_6  and  C_34
    3  A    between atoms: C_12  and  O_42
    4  A    between atoms: C_14  and  O_42
    5  A    between atoms: C_15  and  C_37
    6  A    between atoms: C_17  and  C_22
    7  A    between atoms: N_18  and  N_50
    8  A    between atoms: C_35  and  C_41
    9  A    between atoms: C_35  and  O_47
   10  A    between atoms: C_39  and  O_47
                            x       y       z     vdW  Elec       q    Type
                         _______ _______ _______ _____ _____    ______ ____

>  <TORSDO>
F 10

$$$$
