=
 OpenBabel11042419583D

 41 45  0  0  1  0  0  0  0  0999 V2000
  188.7330  176.4870  144.0730 C   0  0  2  0  0  3  0  0  0  0  0  0
  193.5770  176.3460  143.3690 O   0  0  0  0  0  1  0  0  0  0  0  0
  191.5510  175.3390  146.2790 C   0  0  0  0  0  3  0  0  0  0  0  0
  190.1100  176.1720  144.5830 C   0  0  0  0  0  0  0  0  0  0  0  0
  191.2060  176.4090  143.7520 C   0  0  0  0  0  3  0  0  0  0  0  0
  192.4900  176.1060  144.1990 C   0  0  0  0  0  0  0  0  0  0  0  0
  190.3070  175.6280  145.8180 N   0  0  0  0  0  0  0  0  0  0  0  0
  192.6780  175.5670  145.4780 C   0  0  0  0  0  0  0  0  0  0  0  0
  194.0160  175.3220  145.9450 N   0  0  0  0  0  2  0  0  0  0  0  0
  196.3960  171.8170  145.6200 C   0  0  0  0  0  0  0  0  0  0  0  0
  196.9780  173.0660  145.8890 C   0  0  0  0  0  3  0  0  0  0  0  0
  195.0110  171.7330  145.4410 C   0  0  0  0  0  3  0  0  0  0  0  0
  194.2140  172.8780  145.5430 C   0  0  0  0  0  3  0  0  0  0  0  0
  194.7960  174.1250  145.8170 C   0  0  0  0  0  0  0  0  0  0  0  0
  196.1810  174.2110  145.9820 C   0  0  0  0  0  3  0  0  0  0  0  0
  196.9600  169.5530  146.4350 C   0  0  0  0  0  1  0  0  0  0  0  0
  197.1570  170.6490  145.5500 O   0  0  0  0  0  0  0  0  0  0  0  0
  188.4450  173.4580  142.0560 C   0  0  0  0  0  3  0  0  0  0  0  0
  188.4760  175.9940  142.6730 C   0  0  0  0  0  3  0  0  0  0  0  0
  188.4470  174.7220  142.3690 C   0  0  0  0  0  0  0  0  0  0  0  0
  188.1930  173.0510  140.6810 C   0  0  0  0  0  3  0  0  0  0  0  0
  188.7590  173.7070  139.6780 C   0  0  0  0  0  3  0  0  0  0  0  0
  187.8230  174.3060  137.5930 O   0  0  0  0  0  1  0  0  0  0  0  0
  188.5260  173.2970  138.2590 C   0  0  1  0  0  3  0  0  0  0  0  0
  189.6510  172.2860  136.2340 C   0  0  0  0  0  0  0  0  0  0  0  0
  190.9310  172.4170  138.4750 C   0  0  0  0  0  2  0  0  0  0  0  0
  191.3580  170.1950  137.5110 C   0  0  0  0  0  2  0  0  0  0  0  0
  189.8560  173.0290  137.5430 C   0  0  2  0  0  3  0  0  0  0  0  0
  189.5550  172.9600  135.1780 O   0  0  0  0  0  0  0  0  0  0  0  0
  189.9030  169.9760  137.1950 C   0  0  1  0  0  3  0  0  0  0  0  0
  189.4870  170.4910  138.4310 O   0  0  0  0  0  0  0  0  0  0  0  0
  189.5250  170.8820  136.1530 O   0  0  0  0  0  0  0  0  0  0  0  0
  190.8010  170.9040  138.7140 C   0  0  2  0  0  3  0  0  0  0  0  0
  188.3960  177.9690  144.2620 C   0  0  0  0  0  2  0  0  0  0  0  0
  184.0410  178.7270  145.6790 C   0  0  0  0  0  3  0  0  0  0  0  0
  185.4500  176.6950  146.1380 C   0  0  0  0  0  2  0  0  0  0  0  0
  186.7970  177.3830  146.1800 C   0  0  0  0  0  2  0  0  0  0  0  0
  186.1960  178.9780  144.3410 C   0  0  0  0  0  3  0  0  0  0  0  0
  184.4310  177.6750  146.6730 C   0  0  0  0  0  2  0  0  0  0  0  0
  184.8000  179.2820  144.7240 C   0  0  0  0  0  3  0  0  0  0  0  0
  187.0640  178.1400  144.9170 C   0  0  0  0  0  0  0  0  0  0  0  0
  1 19  1  6  0  0  0
  1 34  1  0  0  0  0
  1  4  1  0  0  0  0
  2  6  1  0  0  0  0
  4  7  2  0  0  0  0
  5  6  2  0  0  0  0
  5  4  1  0  0  0  0
  6  8  1  0  0  0  0
  7  3  1  0  0  0  0
  8  9  1  0  0  0  0
  8  3  2  0  0  0  0
 10 11  1  0  0  0  0
 11 15  2  0  0  0  0
 12 13  1  0  0  0  0
 12 10  2  0  0  0  0
 13 14  2  0  0  0  0
 14  9  1  0  0  0  0
 14 15  1  0  0  0  0
 17 10  1  0  0  0  0
 17 16  1  0  0  0  0
 18 20  2  0  0  0  0
 20 19  2  0  0  0  0
 21 18  1  0  0  0  0
 22 21  2  0  0  0  0
 24 23  1  6  0  0  0
 24 22  1  0  0  0  0
 25 28  1  0  0  0  0
 26 33  1  0  0  0  0
 28 24  1  1  0  0  0
 28 26  1  0  0  0  0
 29 25  2  0  0  0  0
 30 27  1  1  0  0  0
 30 31  1  0  0  0  0
 31 33  1  0  0  0  0
 32 25  1  0  0  0  0
 32 30  1  0  0  0  0
 33 27  1  6  0  0  0
 34 41  1  0  0  0  0
 35 39  1  0  0  0  0
 36 37  1  0  0  0  0
 36 39  1  0  0  0  0
 38 40  1  0  0  0  0
 38 41  2  0  0  0  0
 40 35  2  0  0  0  0
 41 37  1  0  0  0  0
M  END
>  <MODEL>
1

>  <REMARK>
 VINA RESULT:      -8.1      0.000      0.000
  Name = 
  10 active torsions:
  status: ('A' for Active; 'I' for Inactive)
    1  A    between atoms: C_2  and  O_26
    2  A    between atoms: C_3  and  C_4
    3  A    between atoms: C_8  and  C_38
    4  A    between atoms: C_10  and  C_34
    5  A    between atoms: C_10  and  C_41
    6  A    between atoms: C_15  and  C_34
    7  A    between atoms: C_18  and  N_28
    8  A    between atoms: C_21  and  C_34
    9  A    between atoms: C_22  and  C_38
   10  A    between atoms: N_28  and  C_37
                            x       y       z     vdW  Elec       q    Type
                         _______ _______ _______ _____ _____    ______ ____

>  <TORSDO>
F 10

$$$$
=
 OpenBabel11042419583D

 41 45  0  0  1  0  0  0  0  0999 V2000
  188.6120  176.5380  143.8510 C   0  0  2  0  0  3  0  0  0  0  0  0
  192.1960  176.2210  147.1720 O   0  0  0  0  0  1  0  0  0  0  0  0
  192.3250  177.0530  143.5830 C   0  0  0  0  0  3  0  0  0  0  0  0
  190.0710  176.6230  144.1980 C   0  0  0  0  0  0  0  0  0  0  0  0
  190.4640  176.3770  145.5150 C   0  0  0  0  0  3  0  0  0  0  0  0
  191.8090  176.4690  145.8620 C   0  0  0  0  0  0  0  0  0  0  0  0
  191.0060  176.9710  143.2700 N   0  0  0  0  0  0  0  0  0  0  0  0
  192.7620  176.8080  144.8920 C   0  0  0  0  0  0  0  0  0  0  0  0
  194.1530  176.8350  145.2560 N   0  0  0  0  0  2  0  0  0  0  0  0
  197.0160  173.7380  144.7440 C   0  0  0  0  0  0  0  0  0  0  0  0
  195.9850  173.6230  145.6900 C   0  0  0  0  0  3  0  0  0  0  0  0
  197.1080  174.9000  143.9710 C   0  0  0  0  0  3  0  0  0  0  0  0
  196.1740  175.9300  144.1290 C   0  0  0  0  0  3  0  0  0  0  0  0
  195.1410  175.8110  145.0710 C   0  0  0  0  0  0  0  0  0  0  0  0
  195.0580  174.6560  145.8530 C   0  0  0  0  0  3  0  0  0  0  0  0
  197.6960  171.6310  143.6440 C   0  0  0  0  0  1  0  0  0  0  0  0
  197.9410  172.7130  144.5340 O   0  0  0  0  0  0  0  0  0  0  0  0
  189.6390  173.3720  142.3510 C   0  0  0  0  0  3  0  0  0  0  0  0
  188.3090  175.5870  142.7220 C   0  0  0  0  0  3  0  0  0  0  0  0
  188.9670  174.4720  142.5470 C   0  0  0  0  0  0  0  0  0  0  0  0
  189.2950  172.5010  141.2350 C   0  0  0  0  0  3  0  0  0  0  0  0
  189.7030  172.7950  140.0100 C   0  0  0  0  0  3  0  0  0  0  0  0
  188.5440  172.5930  137.9610 O   0  0  0  0  0  1  0  0  0  0  0  0
  189.3740  171.9070  138.8530 C   0  0  1  0  0  3  0  0  0  0  0  0
  190.3780  170.3120  137.1690 C   0  0  0  0  0  0  0  0  0  0  0  0
  191.8370  171.2170  139.1000 C   0  0  0  0  0  2  0  0  0  0  0  0
  192.3120  168.8130  138.8810 C   0  0  0  0  0  2  0  0  0  0  0  0
  190.6500  171.4530  138.1330 C   0  0  2  0  0  3  0  0  0  0  0  0
  190.1490  170.5930  135.9650 O   0  0  0  0  0  0  0  0  0  0  0  0
  190.8510  168.4610  138.8040 C   0  0  1  0  0  3  0  0  0  0  0  0
  190.5140  169.3450  139.8380 O   0  0  0  0  0  0  0  0  0  0  0  0
  190.3300  168.9580  137.5660 O   0  0  0  0  0  0  0  0  0  0  0  0
  191.8200  169.8660  139.8340 C   0  0  2  0  0  3  0  0  0  0  0  0
  188.0070  177.9300  143.6470 C   0  0  0  0  0  2  0  0  0  0  0  0
  183.9970  178.7530  145.8370 C   0  0  0  0  0  3  0  0  0  0  0  0
  185.5390  176.7960  146.1840 C   0  0  0  0  0  2  0  0  0  0  0  0
  186.8420  177.5060  145.8920 C   0  0  0  0  0  2  0  0  0  0  0  0
  185.8340  178.9080  144.0750 C   0  0  0  0  0  3  0  0  0  0  0  0
  184.6130  177.8070  146.8220 C   0  0  0  0  0  2  0  0  0  0  0  0
  184.5320  179.2260  144.7020 C   0  0  0  0  0  3  0  0  0  0  0  0
  186.8280  178.1430  144.5370 C   0  0  0  0  0  0  0  0  0  0  0  0
  1 19  1  6  0  0  0
  1  4  1  0  0  0  0
  3  8  1  0  0  0  0
  4  5  2  0  0  0  0
  5  6  1  0  0  0  0
  6  2  1  0  0  0  0
  7  3  2  0  0  0  0
  7  4  1  0  0  0  0
  8  9  1  0  0  0  0
  8  6  2  0  0  0  0
 10 11  1  0  0  0  0
 11 15  2  0  0  0  0
 12 13  1  0  0  0  0
 12 10  2  0  0  0  0
 13 14  2  0  0  0  0
 14  9  1  0  0  0  0
 14 15  1  0  0  0  0
 16 17  1  0  0  0  0
 17 10  1  0  0  0  0
 18 20  2  0  0  0  0
 20 19  2  0  0  0  0
 21 18  1  0  0  0  0
 22 21  2  0  0  0  0
 24 23  1  6  0  0  0
 24 22  1  0  0  0  0
 25 32  1  0  0  0  0
 25 28  1  0  0  0  0
 26 33  1  0  0  0  0
 28 24  1  1  0  0  0
 28 26  1  0  0  0  0
 29 25  2  0  0  0  0
 30 27  1  6  0  0  0
 30 31  1  0  0  0  0
 32 30  1  0  0  0  0
 33 27  1  6  0  0  0
 33 31  1  0  0  0  0
 34  1  1  0  0  0  0
 34 41  1  0  0  0  0
 35 39  1  0  0  0  0
 36 39  1  0  0  0  0
 37 36  1  0  0  0  0
 38 41  2  0  0  0  0
 38 40  1  0  0  0  0
 40 35  2  0  0  0  0
 41 37  1  0  0  0  0
M  END
>  <MODEL>
2

>  <REMARK>
 VINA RESULT:      -7.7      1.584      2.010
  Name = 
  10 active torsions:
  status: ('A' for Active; 'I' for Inactive)
    1  A    between atoms: C_2  and  O_26
    2  A    between atoms: C_3  and  C_4
    3  A    between atoms: C_8  and  C_38
    4  A    between atoms: C_10  and  C_34
    5  A    between atoms: C_10  and  C_41
    6  A    between atoms: C_15  and  C_34
    7  A    between atoms: C_18  and  N_28
    8  A    between atoms: C_21  and  C_34
    9  A    between atoms: C_22  and  C_38
   10  A    between atoms: N_28  and  C_37
                            x       y       z     vdW  Elec       q    Type
                         _______ _______ _______ _____ _____    ______ ____

>  <TORSDO>
F 10

$$$$
=
 OpenBabel11042419583D

 41 45  0  0  1  0  0  0  0  0999 V2000
  192.5110  175.2470  144.5830 C   0  0  2  0  0  3  0  0  0  0  0  0
  188.1220  175.5600  146.7310 O   0  0  0  0  0  1  0  0  0  0  0  0
  189.7680  177.8020  144.3110 C   0  0  0  0  0  3  0  0  0  0  0  0
  191.2190  175.9830  144.7930 C   0  0  0  0  0  0  0  0  0  0  0  0
  190.2720  175.4430  145.6650 C   0  0  0  0  0  3  0  0  0  0  0  0
  189.0600  176.1000  145.8600 C   0  0  0  0  0  0  0  0  0  0  0  0
  190.9390  177.1380  144.1250 N   0  0  0  0  0  0  0  0  0  0  0  0
  188.7930  177.2970  145.1830 C   0  0  0  0  0  0  0  0  0  0  0  0
  187.5630  177.9930  145.4460 N   0  0  0  0  0  2  0  0  0  0  0  0
  184.1610  178.2490  142.9140 C   0  0  0  0  0  0  0  0  0  0  0  0
  185.1970  177.3400  142.6470 C   0  0  0  0  0  3  0  0  0  0  0  0
  184.2640  179.0940  144.0240 C   0  0  0  0  0  3  0  0  0  0  0  0
  185.3780  179.0230  144.8660 C   0  0  0  0  0  3  0  0  0  0  0  0
  186.4090  178.1100  144.6010 C   0  0  0  0  0  0  0  0  0  0  0  0
  186.3140  177.2760  143.4840 C   0  0  0  0  0  3  0  0  0  0  0  0
  183.0640  178.2030  140.6990 C   0  0  0  0  0  1  0  0  0  0  0  0
  183.0180  178.3190  142.1160 O   0  0  0  0  0  0  0  0  0  0  0  0
  190.7750  173.0730  142.2200 C   0  0  0  0  0  3  0  0  0  0  0  0
  192.6330  174.6060  143.2250 C   0  0  0  0  0  3  0  0  0  0  0  0
  191.6940  173.8500  142.7180 C   0  0  0  0  0  0  0  0  0  0  0  0
  190.9600  172.4830  140.9010 C   0  0  0  0  0  3  0  0  0  0  0  0
  191.0260  173.2570  139.8280 C   0  0  0  0  0  3  0  0  0  0  0  0
  192.0970  171.5800  138.5550 O   0  0  0  0  0  1  0  0  0  0  0  0
  191.2300  172.6730  138.4660 C   0  0  1  0  0  3  0  0  0  0  0  0
  189.9290  170.7770  137.4170 C   0  0  0  0  0  0  0  0  0  0  0  0
  189.3620  173.2180  136.7880 C   0  0  0  0  0  2  0  0  0  0  0  0
  189.3590  171.9010  134.7110 C   0  0  0  0  0  2  0  0  0  0  0  0
  189.8940  172.2300  137.8560 C   0  0  2  0  0  3  0  0  0  0  0  0
  189.5170  169.9040  138.2220 O   0  0  0  0  0  0  0  0  0  0  0  0
  190.6600  171.2270  135.0540 C   0  0  1  0  0  3  0  0  0  0  0  0
  191.2380  172.4220  135.5050 O   0  0  0  0  0  0  0  0  0  0  0  0
  190.4380  170.3570  136.1700 O   0  0  0  0  0  0  0  0  0  0  0  0
  189.9980  173.0760  135.3960 C   0  0  2  0  0  3  0  0  0  0  0  0
  192.7930  174.2790  145.7350 C   0  0  0  0  0  2  0  0  0  0  0  0
  197.0000  172.3420  145.4170 C   0  0  0  0  0  3  0  0  0  0  0  0
  196.3850  174.7240  144.8900 C   0  0  0  0  0  2  0  0  0  0  0  0
  195.2790  174.8820  145.9100 C   0  0  0  0  0  2  0  0  0  0  0  0
  194.4640  172.5320  145.5980 C   0  0  0  0  0  3  0  0  0  0  0  0
  197.4080  173.7830  145.4830 C   0  0  0  0  0  2  0  0  0  0  0  0
  195.7630  171.8320  145.4920 C   0  0  0  0  0  3  0  0  0  0  0  0
  194.2200  173.8390  145.7350 C   0  0  0  0  0  0  0  0  0  0  0  0
  1 19  1  6  0  0  0
  1  4  1  0  0  0  0
  1 34  1  0  0  0  0
  3  8  1  0  0  0  0
  4  5  2  0  0  0  0
  5  6  1  0  0  0  0
  6  2  1  0  0  0  0
  7  3  2  0  0  0  0
  7  4  1  0  0  0  0
  8  9  1  0  0  0  0
  8  6  2  0  0  0  0
 10 12  1  0  0  0  0
 11 10  2  0  0  0  0
 11 15  1  0  0  0  0
 12 13  2  0  0  0  0
 14 13  1  0  0  0  0
 14  9  1  0  0  0  0
 15 14  2  0  0  0  0
 16 17  1  0  0  0  0
 17 10  1  0  0  0  0
 18 20  2  0  0  0  0
 20 19  2  0  0  0  0
 21 18  1  0  0  0  0
 22 21  2  0  0  0  0
 24 23  1  1  0  0  0
 24 22  1  0  0  0  0
 25 28  1  0  0  0  0
 25 29  2  0  0  0  0
 26 28  1  0  0  0  0
 28 24  1  6  0  0  0
 30 27  1  1  0  0  0
 30 31  1  0  0  0  0
 30 32  1  0  0  0  0
 32 25  1  0  0  0  0
 33 27  1  6  0  0  0
 33 31  1  0  0  0  0
 33 26  1  0  0  0  0
 35 39  1  0  0  0  0
 35 40  2  0  0  0  0
 36 39  1  0  0  0  0
 36 37  1  0  0  0  0
 38 41  2  0  0  0  0
 40 38  1  0  0  0  0
 41 34  1  0  0  0  0
 41 37  1  0  0  0  0
M  END
>  <MODEL>
3

>  <REMARK>
 VINA RESULT:      -7.5      2.456      8.188
  Name = 
  10 active torsions:
  status: ('A' for Active; 'I' for Inactive)
    1  A    between atoms: C_2  and  O_26
    2  A    between atoms: C_3  and  C_4
    3  A    between atoms: C_8  and  C_38
    4  A    between atoms: C_10  and  C_34
    5  A    between atoms: C_10  and  C_41
    6  A    between atoms: C_15  and  C_34
    7  A    between atoms: C_18  and  N_28
    8  A    between atoms: C_21  and  C_34
    9  A    between atoms: C_22  and  C_38
   10  A    between atoms: N_28  and  C_37
                            x       y       z     vdW  Elec       q    Type
                         _______ _______ _______ _____ _____    ______ ____

>  <TORSDO>
F 10

$$$$
=
 OpenBabel11042419583D

 41 45  0  0  1  0  0  0  0  0999 V2000
  192.8190  175.3600  144.3780 C   0  0  2  0  0  3  0  0  0  0  0  0
  188.3140  175.5350  146.2890 O   0  0  0  0  0  1  0  0  0  0  0  0
  190.1310  177.9810  144.2130 C   0  0  0  0  0  3  0  0  0  0  0  0
  191.5260  176.0950  144.5880 C   0  0  0  0  0  0  0  0  0  0  0  0
  190.5220  175.4860  145.3440 C   0  0  0  0  0  3  0  0  0  0  0  0
  189.3090  176.1430  145.5340 C   0  0  0  0  0  0  0  0  0  0  0  0
  191.3010  177.3170  144.0280 N   0  0  0  0  0  0  0  0  0  0  0  0
  189.0990  177.4070  144.9700 C   0  0  0  0  0  0  0  0  0  0  0  0
  187.8640  178.0960  145.2320 N   0  0  0  0  0  2  0  0  0  0  0  0
  184.2890  178.2060  142.9380 C   0  0  0  0  0  0  0  0  0  0  0  0
  184.3110  178.6550  144.2680 C   0  0  0  0  0  3  0  0  0  0  0  0
  185.4620  177.7000  142.3690 C   0  0  0  0  0  3  0  0  0  0  0  0
  186.6470  177.6550  143.1110 C   0  0  0  0  0  3  0  0  0  0  0  0
  186.6690  178.1100  144.4380 C   0  0  0  0  0  0  0  0  0  0  0  0
  185.4930  178.6020  145.0120 C   0  0  0  0  0  3  0  0  0  0  0  0
  183.1630  178.1700  140.7390 C   0  0  0  0  0  1  0  0  0  0  0  0
  183.1340  178.2730  142.1570 O   0  0  0  0  0  0  0  0  0  0  0  0
  195.6300  176.4060  142.2980 C   0  0  0  0  0  3  0  0  0  0  0  0
  193.3160  175.3950  142.9570 C   0  0  0  0  0  3  0  0  0  0  0  0
  194.4820  175.8890  142.6310 C   0  0  0  0  0  0  0  0  0  0  0  0
  196.0460  176.4100  140.9020 C   0  0  0  0  0  3  0  0  0  0  0  0
  196.1350  175.2720  140.2300 C   0  0  0  0  0  3  0  0  0  0  0  0
  197.9410  175.2640  138.7070 O   0  0  0  0  0  1  0  0  0  0  0  0
  196.5460  175.2550  138.7920 C   0  0  1  0  0  3  0  0  0  0  0  0
  196.0940  174.1370  136.5700 C   0  0  0  0  0  0  0  0  0  0  0  0
  194.5920  173.5960  138.6020 C   0  0  0  0  0  2  0  0  0  0  0  0
  193.1210  173.8810  136.6520 C   0  0  0  0  0  2  0  0  0  0  0  0
  195.9890  174.0150  138.0800 C   0  0  2  0  0  3  0  0  0  0  0  0
  197.1040  173.6490  136.0040 O   0  0  0  0  0  0  0  0  0  0  0  0
  193.8160  175.1440  136.2240 C   0  0  1  0  0  3  0  0  0  0  0  0
  193.8800  175.6350  137.5360 O   0  0  0  0  0  0  0  0  0  0  0  0
  195.1350  174.8070  135.7800 O   0  0  0  0  0  0  0  0  0  0  0  0
  193.4150  174.4030  138.0300 C   0  0  2  0  0  3  0  0  0  0  0  0
  192.7550  173.9450  144.9610 C   0  0  0  0  0  2  0  0  0  0  0  0
  196.8160  171.9870  146.0670 C   0  0  0  0  0  3  0  0  0  0  0  0
  196.4200  174.3800  145.4000 C   0  0  0  0  0  2  0  0  0  0  0  0
  195.0320  174.5300  145.9840 C   0  0  0  0  0  2  0  0  0  0  0  0
  194.3710  172.1900  145.3740 C   0  0  0  0  0  3  0  0  0  0  0  0
  197.1790  173.4240  146.2920 C   0  0  0  0  0  2  0  0  0  0  0  0
  195.6270  171.4830  145.7060 C   0  0  0  0  0  3  0  0  0  0  0  0
  194.0950  173.4960  145.4410 C   0  0  0  0  0  0  0  0  0  0  0  0
  1 19  1  6  0  0  0
  1  4  1  0  0  0  0
  1 34  1  0  0  0  0
  3  8  1  0  0  0  0
  4  5  2  0  0  0  0
  5  6  1  0  0  0  0
  6  2  1  0  0  0  0
  7  3  2  0  0  0  0
  7  4  1  0  0  0  0
  8  9  1  0  0  0  0
  8  6  2  0  0  0  0
 10 11  1  0  0  0  0
 11 15  2  0  0  0  0
 12 10  2  0  0  0  0
 12 13  1  0  0  0  0
 13 14  2  0  0  0  0
 14 15  1  0  0  0  0
 14  9  1  0  0  0  0
 16 17  1  0  0  0  0
 17 10  1  0  0  0  0
 18 20  2  0  0  0  0
 20 19  2  0  0  0  0
 21 18  1  0  0  0  0
 22 21  2  0  0  0  0
 24 23  1  1  0  0  0
 24 22  1  0  0  0  0
 25 28  1  0  0  0  0
 28 26  1  0  0  0  0
 28 24  1  1  0  0  0
 29 25  2  0  0  0  0
 30 27  1  1  0  0  0
 30 31  1  0  0  0  0
 31 33  1  0  0  0  0
 32 30  1  0  0  0  0
 32 25  1  0  0  0  0
 33 27  1  6  0  0  0
 33 26  1  0  0  0  0
 34 41  1  0  0  0  0
 35 39  1  0  0  0  0
 36 37  1  0  0  0  0
 36 39  1  0  0  0  0
 38 41  2  0  0  0  0
 38 40  1  0  0  0  0
 40 35  2  0  0  0  0
 41 37  1  0  0  0  0
M  END
>  <MODEL>
4

>  <REMARK>
 VINA RESULT:      -7.4      3.714      8.966
  Name = 
  10 active torsions:
  status: ('A' for Active; 'I' for Inactive)
    1  A    between atoms: C_2  and  O_26
    2  A    between atoms: C_3  and  C_4
    3  A    between atoms: C_8  and  C_38
    4  A    between atoms: C_10  and  C_34
    5  A    between atoms: C_10  and  C_41
    6  A    between atoms: C_15  and  C_34
    7  A    between atoms: C_18  and  N_28
    8  A    between atoms: C_21  and  C_34
    9  A    between atoms: C_22  and  C_38
   10  A    between atoms: N_28  and  C_37
                            x       y       z     vdW  Elec       q    Type
                         _______ _______ _______ _____ _____    ______ ____

>  <TORSDO>
F 10

$$$$
=
 OpenBabel11042419583D

 41 45  0  0  1  0  0  0  0  0999 V2000
  192.8200  174.5780  144.3330 C   0  0  2  0  0  3  0  0  0  0  0  0
  195.8570  176.9200  141.2870 O   0  0  0  0  0  1  0  0  0  0  0  0
  193.3290  174.3200  140.6180 C   0  0  0  0  0  3  0  0  0  0  0  0
  193.3530  174.7960  142.9460 C   0  0  0  0  0  0  0  0  0  0  0  0
  194.3590  175.7450  142.7540 C   0  0  0  0  0  3  0  0  0  0  0  0
  194.8540  175.9770  141.4730 C   0  0  0  0  0  0  0  0  0  0  0  0
  192.8520  174.1200  141.8740 N   0  0  0  0  0  0  0  0  0  0  0  0
  194.3440  175.2590  140.3830 C   0  0  0  0  0  0  0  0  0  0  0  0
  194.9120  175.4660  139.0790 N   0  0  0  0  0  2  0  0  0  0  0  0
  197.1680  172.7870  136.6750 C   0  0  0  0  0  0  0  0  0  0  0  0
  195.8890  173.2100  136.2820 C   0  0  0  0  0  3  0  0  0  0  0  0
  197.6980  173.2440  137.8860 C   0  0  0  0  0  3  0  0  0  0  0  0
  196.9670  174.1250  138.6900 C   0  0  0  0  0  3  0  0  0  0  0  0
  195.6910  174.5520  138.2930 C   0  0  0  0  0  0  0  0  0  0  0  0
  195.1560  174.0830  137.0910 C   0  0  0  0  0  3  0  0  0  0  0  0
  197.7400  170.5310  135.8410 C   0  0  0  0  0  1  0  0  0  0  0  0
  197.9410  171.9390  135.8780 O   0  0  0  0  0  0  0  0  0  0  0  0
  189.9590  174.6850  146.5970 C   0  0  0  0  0  3  0  0  0  0  0  0
  191.5360  175.3130  144.6140 C   0  0  0  0  0  3  0  0  0  0  0  0
  190.7550  175.0050  145.6160 C   0  0  0  0  0  0  0  0  0  0  0  0
  188.7290  175.4360  146.8090 C   0  0  0  0  0  3  0  0  0  0  0  0
  188.0730  175.9450  145.7760 C   0  0  0  0  0  3  0  0  0  0  0  0
  186.6090  176.9540  147.3320 O   0  0  0  0  0  1  0  0  0  0  0  0
  186.8010  176.7070  145.9690 C   0  0  1  0  0  3  0  0  0  0  0  0
  185.4470  178.6180  145.0180 C   0  0  0  0  0  0  0  0  0  0  0  0
  187.6830  177.9570  143.9040 C   0  0  0  0  0  2  0  0  0  0  0  0
  186.0520  178.3560  142.1060 C   0  0  0  0  0  2  0  0  0  0  0  0
  186.8370  178.0340  145.1990 C   0  0  2  0  0  3  0  0  0  0  0  0
  185.0410  179.4550  145.8620 O   0  0  0  0  0  0  0  0  0  0  0  0
  184.9910  177.5400  142.7930 C   0  0  1  0  0  3  0  0  0  0  0  0
  185.8990  176.5300  143.1430 O   0  0  0  0  0  0  0  0  0  0  0  0
  184.5780  178.2370  143.9740 O   0  0  0  0  0  0  0  0  0  0  0  0
  186.9710  177.3230  142.6980 C   0  0  2  0  0  3  0  0  0  0  0  0
  193.9010  174.8270  145.3880 C   0  0  0  0  0  2  0  0  0  0  0  0
  195.9770  170.6920  145.7720 C   0  0  0  0  0  3  0  0  0  0  0  0
  196.9990  172.8270  144.9200 C   0  0  0  0  0  2  0  0  0  0  0  0
  196.2130  173.7900  145.7820 C   0  0  0  0  0  2  0  0  0  0  0  0
  194.1140  172.4270  145.6370 C   0  0  0  0  0  3  0  0  0  0  0  0
  197.1960  171.5630  145.7270 C   0  0  0  0  0  2  0  0  0  0  0  0
  194.6910  171.0700  145.7590 C   0  0  0  0  0  3  0  0  0  0  0  0
  194.7390  173.6090  145.6020 C   0  0  0  0  0  0  0  0  0  0  0  0
  1 19  1  1  0  0  0
  1 34  1  0  0  0  0
  2  6  1  0  0  0  0
  3  7  1  0  0  0  0
  4  1  1  0  0  0  0
  5  4  1  0  0  0  0
  6  5  2  0  0  0  0
  7  4  2  0  0  0  0
  8  3  2  0  0  0  0
  8  6  1  0  0  0  0
  9  8  1  0  0  0  0
 10 12  1  0  0  0  0
 11 10  2  0  0  0  0
 11 15  1  0  0  0  0
 12 13  2  0  0  0  0
 14 13  1  0  0  0  0
 14  9  1  0  0  0  0
 15 14  2  0  0  0  0
 16 17  1  0  0  0  0
 17 10  1  0  0  0  0
 18 21  1  0  0  0  0
 19 20  2  0  0  0  0
 20 18  2  0  0  0  0
 22 24  1  0  0  0  0
 22 21  2  0  0  0  0
 24 23  1  1  0  0  0
 25 28  1  0  0  0  0
 25 29  2  0  0  0  0
 26 28  1  0  0  0  0
 28 24  1  6  0  0  0
 30 27  1  6  0  0  0
 30 31  1  0  0  0  0
 30 32  1  0  0  0  0
 32 25  1  0  0  0  0
 33 27  1  6  0  0  0
 33 31  1  0  0  0  0
 33 26  1  0  0  0  0
 34 41  1  0  0  0  0
 36 39  1  0  0  0  0
 36 37  1  0  0  0  0
 38 40  1  0  0  0  0
 39 35  1  0  0  0  0
 40 35  2  0  0  0  0
 41 38  2  0  0  0  0
 41 37  1  0  0  0  0
M  END
>  <MODEL>
5

>  <REMARK>
 VINA RESULT:      -7.3      4.299      8.850
  Name = 
  10 active torsions:
  status: ('A' for Active; 'I' for Inactive)
    1  A    between atoms: C_2  and  O_26
    2  A    between atoms: C_3  and  C_4
    3  A    between atoms: C_8  and  C_38
    4  A    between atoms: C_10  and  C_34
    5  A    between atoms: C_10  and  C_41
    6  A    between atoms: C_15  and  C_34
    7  A    between atoms: C_18  and  N_28
    8  A    between atoms: C_21  and  C_34
    9  A    between atoms: C_22  and  C_38
   10  A    between atoms: N_28  and  C_37
                            x       y       z     vdW  Elec       q    Type
                         _______ _______ _______ _____ _____    ______ ____

>  <TORSDO>
F 10

$$$$
=
 OpenBabel11042419583D

 41 45  0  0  1  0  0  0  0  0999 V2000
  192.5660  175.3220  144.6560 C   0  0  2  0  0  3  0  0  0  0  0  0
  188.1950  175.4920  146.8570 O   0  0  0  0  0  1  0  0  0  0  0  0
  189.7900  177.8530  144.5170 C   0  0  0  0  0  3  0  0  0  0  0  0
  191.2670  176.0330  144.9090 C   0  0  0  0  0  0  0  0  0  0  0  0
  190.3350  175.4460  145.7670 C   0  0  0  0  0  3  0  0  0  0  0  0
  189.1170  176.0790  146.0000 C   0  0  0  0  0  0  0  0  0  0  0  0
  190.9660  177.2110  144.2920 N   0  0  0  0  0  0  0  0  0  0  0  0
  188.8300  177.2990  145.3760 C   0  0  0  0  0  0  0  0  0  0  0  0
  187.5940  177.9690  145.6800 N   0  0  0  0  0  2  0  0  0  0  0  0
  184.1330  178.4420  143.2610 C   0  0  0  0  0  0  0  0  0  0  0  0
  184.3970  179.3160  144.3280 C   0  0  0  0  0  3  0  0  0  0  0  0
  185.0190  177.3900  143.0050 C   0  0  0  0  0  3  0  0  0  0  0  0
  186.1620  177.2190  143.7930 C   0  0  0  0  0  3  0  0  0  0  0  0
  186.4270  178.0970  144.8550 C   0  0  0  0  0  0  0  0  0  0  0  0
  185.5350  179.1390  145.1200 C   0  0  0  0  0  3  0  0  0  0  0  0
  183.0160  178.1910  141.0710 C   0  0  0  0  0  1  0  0  0  0  0  0
  183.0230  178.6060  142.4310 O   0  0  0  0  0  0  0  0  0  0  0  0
  191.2300  173.3980  141.8560 C   0  0  0  0  0  3  0  0  0  0  0  0
  192.8020  174.9840  143.2070 C   0  0  0  0  0  3  0  0  0  0  0  0
  192.0050  174.2000  142.5290 C   0  0  0  0  0  0  0  0  0  0  0  0
  191.5200  173.1110  140.4580 C   0  0  0  0  0  3  0  0  0  0  0  0
  190.6780  173.4950  139.5100 C   0  0  0  0  0  3  0  0  0  0  0  0
  191.9700  174.0860  137.6230 O   0  0  0  0  0  1  0  0  0  0  0  0
  190.9640  173.2240  138.0680 C   0  0  1  0  0  3  0  0  0  0  0  0
  192.7070  171.6720  137.0990 C   0  0  0  0  0  0  0  0  0  0  0  0
  190.2600  170.8700  137.3130 C   0  0  0  0  0  2  0  0  0  0  0  0
  191.0810  170.1540  135.1080 C   0  0  0  0  0  2  0  0  0  0  0  0
  191.3980  171.7670  137.8620 C   0  0  2  0  0  3  0  0  0  0  0  0
  193.7740  171.5890  137.7590 O   0  0  0  0  0  0  0  0  0  0  0  0
  191.6750  171.5040  134.8130 C   0  0  1  0  0  3  0  0  0  0  0  0
  190.5550  172.1820  135.3150 O   0  0  0  0  0  0  0  0  0  0  0  0
  192.7870  171.7110  135.6910 O   0  0  0  0  0  0  0  0  0  0  0  0
  190.0250  170.9720  135.7970 C   0  0  2  0  0  3  0  0  0  0  0  0
  192.7330  174.1220  145.5920 C   0  0  0  0  0  2  0  0  0  0  0  0
  197.0000  172.2940  145.6030 C   0  0  0  0  0  3  0  0  0  0  0  0
  196.3670  174.6580  145.0220 C   0  0  0  0  0  2  0  0  0  0  0  0
  195.1830  174.7890  145.9540 C   0  0  0  0  0  2  0  0  0  0  0  0
  194.4540  172.4180  145.5890 C   0  0  0  0  0  3  0  0  0  0  0  0
  197.3660  173.7440  145.6950 C   0  0  0  0  0  2  0  0  0  0  0  0
  195.7750  171.7510  145.5850 C   0  0  0  0  0  3  0  0  0  0  0  0
  194.1670  173.7190  145.7030 C   0  0  0  0  0  0  0  0  0  0  0  0
  1 19  1  6  0  0  0
  1  4  1  0  0  0  0
  1 34  1  0  0  0  0
  3  8  1  0  0  0  0
  4  5  2  0  0  0  0
  5  6  1  0  0  0  0
  6  2  1  0  0  0  0
  7  3  2  0  0  0  0
  7  4  1  0  0  0  0
  8  9  1  0  0  0  0
  8  6  2  0  0  0  0
 10 11  1  0  0  0  0
 11 15  2  0  0  0  0
 12 10  2  0  0  0  0
 12 13  1  0  0  0  0
 13 14  2  0  0  0  0
 14 15  1  0  0  0  0
 14  9  1  0  0  0  0
 16 17  1  0  0  0  0
 17 10  1  0  0  0  0
 18 20  2  0  0  0  0
 20 19  2  0  0  0  0
 21 18  1  0  0  0  0
 22 21  2  0  0  0  0
 24 23  1  1  0  0  0
 24 22  1  0  0  0  0
 25 29  2  0  0  0  0
 25 28  1  0  0  0  0
 26 28  1  0  0  0  0
 28 24  1  6  0  0  0
 30 27  1  1  0  0  0
 30 31  1  0  0  0  0
 30 32  1  0  0  0  0
 31 33  1  0  0  0  0
 32 25  1  0  0  0  0
 33 27  1  6  0  0  0
 33 26  1  0  0  0  0
 34 41  1  0  0  0  0
 35 39  1  0  0  0  0
 36 39  1  0  0  0  0
 36 37  1  0  0  0  0
 38 41  2  0  0  0  0
 40 38  1  0  0  0  0
 40 35  2  0  0  0  0
 41 37  1  0  0  0  0
M  END
>  <MODEL>
6

>  <REMARK>
 VINA RESULT:      -7.3      2.542      8.191
  Name = 
  10 active torsions:
  status: ('A' for Active; 'I' for Inactive)
    1  A    between atoms: C_2  and  O_26
    2  A    between atoms: C_3  and  C_4
    3  A    between atoms: C_8  and  C_38
    4  A    between atoms: C_10  and  C_34
    5  A    between atoms: C_10  and  C_41
    6  A    between atoms: C_15  and  C_34
    7  A    between atoms: C_18  and  N_28
    8  A    between atoms: C_21  and  C_34
    9  A    between atoms: C_22  and  C_38
   10  A    between atoms: N_28  and  C_37
                            x       y       z     vdW  Elec       q    Type
                         _______ _______ _______ _____ _____    ______ ____

>  <TORSDO>
F 10

$$$$
=
 OpenBabel11042419583D

 41 45  0  0  1  0  0  0  0  0999 V2000
  192.5390  175.3530  144.6430 C   0  0  2  0  0  3  0  0  0  0  0  0
  188.1370  175.6660  146.7650 O   0  0  0  0  0  1  0  0  0  0  0  0
  189.7930  177.9030  144.3480 C   0  0  0  0  0  3  0  0  0  0  0  0
  191.2440  176.0880  144.8440 C   0  0  0  0  0  0  0  0  0  0  0  0
  190.2930  175.5490  145.7130 C   0  0  0  0  0  3  0  0  0  0  0  0
  189.0790  176.2040  145.8980 C   0  0  0  0  0  0  0  0  0  0  0  0
  190.9650  177.2400  144.1710 N   0  0  0  0  0  0  0  0  0  0  0  0
  188.8140  177.3980  145.2160 C   0  0  0  0  0  0  0  0  0  0  0  0
  187.5810  178.0930  145.4700 N   0  0  0  0  0  2  0  0  0  0  0  0
  184.1710  178.2820  142.9430 C   0  0  0  0  0  0  0  0  0  0  0  0
  185.2310  177.4060  142.6650 C   0  0  0  0  0  3  0  0  0  0  0  0
  184.2500  179.1160  144.0630 C   0  0  0  0  0  3  0  0  0  0  0  0
  185.3670  179.0680  144.9040 C   0  0  0  0  0  3  0  0  0  0  0  0
  186.4240  178.1870  144.6270 C   0  0  0  0  0  0  0  0  0  0  0  0
  186.3510  177.3640  143.5000 C   0  0  0  0  0  3  0  0  0  0  0  0
  183.0770  178.2950  140.7270 C   0  0  0  0  0  1  0  0  0  0  0  0
  183.0240  178.3290  142.1470 O   0  0  0  0  0  0  0  0  0  0  0  0
  194.6830  176.1140  141.7880 C   0  0  0  0  0  3  0  0  0  0  0  0
  192.8110  174.9790  143.2100 C   0  0  0  0  0  3  0  0  0  0  0  0
  193.7580  175.5390  142.5040 C   0  0  0  0  0  0  0  0  0  0  0  0
  194.8890  175.7050  140.4050 C   0  0  0  0  0  3  0  0  0  0  0  0
  194.3560  174.5770  139.9580 C   0  0  0  0  0  3  0  0  0  0  0  0
  193.3140  173.7370  138.0120 O   0  0  0  0  0  1  0  0  0  0  0  0
  194.5430  174.1460  138.5380 C   0  0  1  0  0  3  0  0  0  0  0  0
  194.3300  175.4910  136.4090 C   0  0  0  0  0  0  0  0  0  0  0  0
  196.6520  175.1870  137.5020 C   0  0  0  0  0  2  0  0  0  0  0  0
  196.9310  174.8730  135.0790 C   0  0  0  0  0  2  0  0  0  0  0  0
  195.1170  175.2890  137.6920 C   0  0  2  0  0  3  0  0  0  0  0  0
  193.4070  176.3440  136.4070 O   0  0  0  0  0  0  0  0  0  0  0  0
  195.7350  173.9650  134.9880 C   0  0  1  0  0  3  0  0  0  0  0  0
  196.0880  173.2720  136.1550 O   0  0  0  0  0  0  0  0  0  0  0  0
  194.5570  174.7400  135.2350 O   0  0  0  0  0  0  0  0  0  0  0  0
  197.1090  174.2040  136.4130 C   0  0  2  0  0  3  0  0  0  0  0  0
  192.6630  174.1720  145.6100 C   0  0  0  0  0  2  0  0  0  0  0  0
  196.8870  172.2530  145.7610 C   0  0  0  0  0  3  0  0  0  0  0  0
  196.3150  174.6050  145.0750 C   0  0  0  0  0  2  0  0  0  0  0  0
  195.1210  174.8000  145.9830 C   0  0  0  0  0  2  0  0  0  0  0  0
  194.3450  172.4320  145.7020 C   0  0  0  0  0  3  0  0  0  0  0  0
  197.2840  173.6980  145.8000 C   0  0  0  0  0  2  0  0  0  0  0  0
  195.6500  171.7370  145.7460 C   0  0  0  0  0  3  0  0  0  0  0  0
  194.0850  173.7420  145.7590 C   0  0  0  0  0  0  0  0  0  0  0  0
  1 19  1  6  0  0  0
  1  4  1  0  0  0  0
  1 34  1  0  0  0  0
  3  8  1  0  0  0  0
  4  5  2  0  0  0  0
  5  6  1  0  0  0  0
  6  2  1  0  0  0  0
  7  3  2  0  0  0  0
  7  4  1  0  0  0  0
  8  9  1  0  0  0  0
  8  6  2  0  0  0  0
 10 12  1  0  0  0  0
 11 10  2  0  0  0  0
 11 15  1  0  0  0  0
 12 13  2  0  0  0  0
 14 13  1  0  0  0  0
 14  9  1  0  0  0  0
 15 14  2  0  0  0  0
 16 17  1  0  0  0  0
 17 10  1  0  0  0  0
 18 20  2  0  0  0  0
 20 19  2  0  0  0  0
 21 18  1  0  0  0  0
 22 21  2  0  0  0  0
 24 23  1  6  0  0  0
 24 22  1  0  0  0  0
 25 28  1  0  0  0  0
 26 28  1  0  0  0  0
 28 24  1  6  0  0  0
 29 25  2  0  0  0  0
 30 27  1  1  0  0  0
 30 32  1  0  0  0  0
 30 31  1  0  0  0  0
 31 33  1  0  0  0  0
 32 25  1  0  0  0  0
 33 27  1  6  0  0  0
 33 26  1  0  0  0  0
 34 41  1  0  0  0  0
 35 39  1  0  0  0  0
 36 39  1  0  0  0  0
 36 37  1  0  0  0  0
 38 40  1  0  0  0  0
 38 41  2  0  0  0  0
 40 35  2  0  0  0  0
 41 37  1  0  0  0  0
M  END
>  <MODEL>
7

>  <REMARK>
 VINA RESULT:      -7.3      3.817      8.863
  Name = 
  10 active torsions:
  status: ('A' for Active; 'I' for Inactive)
    1  A    between atoms: C_2  and  O_26
    2  A    between atoms: C_3  and  C_4
    3  A    between atoms: C_8  and  C_38
    4  A    between atoms: C_10  and  C_34
    5  A    between atoms: C_10  and  C_41
    6  A    between atoms: C_15  and  C_34
    7  A    between atoms: C_18  and  N_28
    8  A    between atoms: C_21  and  C_34
    9  A    between atoms: C_22  and  C_38
   10  A    between atoms: N_28  and  C_37
                            x       y       z     vdW  Elec       q    Type
                         _______ _______ _______ _____ _____    ______ ____

>  <TORSDO>
F 10

$$$$
=
 OpenBabel11042419583D

 41 45  0  0  1  0  0  0  0  0999 V2000
  192.6120  175.2060  144.6500 C   0  0  2  0  0  3  0  0  0  0  0  0
  188.2800  175.4670  146.9190 O   0  0  0  0  0  1  0  0  0  0  0  0
  189.8400  177.7370  144.4680 C   0  0  0  0  0  3  0  0  0  0  0  0
  191.3190  175.9290  144.9000 C   0  0  0  0  0  0  0  0  0  0  0  0
  190.4020  175.3760  145.7950 C   0  0  0  0  0  3  0  0  0  0  0  0
  189.1890  176.0200  146.0260 C   0  0  0  0  0  0  0  0  0  0  0  0
  191.0100  177.0850  144.2460 N   0  0  0  0  0  0  0  0  0  0  0  0
  188.8940  177.2180  145.3630 C   0  0  0  0  0  0  0  0  0  0  0  0
  187.6640  177.9010  145.6630 N   0  0  0  0  0  2  0  0  0  0  0  0
  184.2490  178.2820  143.1650 C   0  0  0  0  0  0  0  0  0  0  0  0
  185.1990  177.2720  142.9450 C   0  0  0  0  0  3  0  0  0  0  0  0
  184.4430  179.1850  144.2160 C   0  0  0  0  0  3  0  0  0  0  0  0
  185.5630  179.0740  145.0460 C   0  0  0  0  0  3  0  0  0  0  0  0
  186.5090  178.0610  144.8280 C   0  0  0  0  0  0  0  0  0  0  0  0
  186.3230  177.1680  143.7700 C   0  0  0  0  0  3  0  0  0  0  0  0
  183.1280  178.2900  140.9620 C   0  0  0  0  0  1  0  0  0  0  0  0
  183.1000  178.3970  142.3800 O   0  0  0  0  0  0  0  0  0  0  0  0
  194.2660  175.5300  141.4120 C   0  0  0  0  0  3  0  0  0  0  0  0
  192.7080  174.5850  143.2810 C   0  0  0  0  0  3  0  0  0  0  0  0
  193.5000  175.0520  142.3510 C   0  0  0  0  0  0  0  0  0  0  0  0
  194.3060  174.8820  140.1080 C   0  0  0  0  0  3  0  0  0  0  0  0
  193.2430  174.2360  139.6520 C   0  0  0  0  0  3  0  0  0  0  0  0
  194.5570  173.1540  138.0150 O   0  0  0  0  0  1  0  0  0  0  0  0
  193.2580  173.5760  138.3110 C   0  0  1  0  0  3  0  0  0  0  0  0
  192.1320  171.8250  136.8770 C   0  0  0  0  0  0  0  0  0  0  0  0
  190.9750  172.6440  139.0380 C   0  0  0  0  0  2  0  0  0  0  0  0
  189.2560  172.5130  137.2840 C   0  0  0  0  0  2  0  0  0  0  0  0
  192.3010  172.3770  138.2820 C   0  0  2  0  0  3  0  0  0  0  0  0
  192.8700  170.8720  136.5210 O   0  0  0  0  0  0  0  0  0  0  0  0
  190.1260  173.2180  136.2800 C   0  0  1  0  0  3  0  0  0  0  0  0
  190.5580  174.1670  137.2190 O   0  0  0  0  0  0  0  0  0  0  0  0
  191.2180  172.3550  135.9420 O   0  0  0  0  0  0  0  0  0  0  0  0
  189.9280  173.4480  138.2500 C   0  0  2  0  0  3  0  0  0  0  0  0
  192.9260  174.2240  145.7820 C   0  0  0  0  0  2  0  0  0  0  0  0
  197.1600  172.3440  145.4710 C   0  0  0  0  0  3  0  0  0  0  0  0
  196.4610  174.6370  144.7080 C   0  0  0  0  0  2  0  0  0  0  0  0
  195.4030  174.8900  145.7590 C   0  0  0  0  0  2  0  0  0  0  0  0
  194.6320  172.5040  145.7590 C   0  0  0  0  0  3  0  0  0  0  0  0
  197.5350  173.7900  145.3520 C   0  0  0  0  0  2  0  0  0  0  0  0
  195.9410  171.8220  145.6670 C   0  0  0  0  0  3  0  0  0  0  0  0
  194.3620  173.8140  145.7590 C   0  0  0  0  0  0  0  0  0  0  0  0
  1 19  1  6  0  0  0
  1  4  1  0  0  0  0
  1 34  1  0  0  0  0
  3  8  1  0  0  0  0
  4  5  2  0  0  0  0
  5  6  1  0  0  0  0
  6  2  1  0  0  0  0
  7  3  2  0  0  0  0
  7  4  1  0  0  0  0
  8  9  1  0  0  0  0
  8  6  2  0  0  0  0
 10 12  1  0  0  0  0
 11 10  2  0  0  0  0
 11 15  1  0  0  0  0
 12 13  2  0  0  0  0
 14 13  1  0  0  0  0
 14  9  1  0  0  0  0
 15 14  2  0  0  0  0
 16 17  1  0  0  0  0
 17 10  1  0  0  0  0
 18 20  2  0  0  0  0
 20 19  2  0  0  0  0
 21 18  1  0  0  0  0
 22 21  2  0  0  0  0
 24 23  1  1  0  0  0
 24 22  1  0  0  0  0
 25 28  1  0  0  0  0
 28 24  1  6  0  0  0
 28 26  1  0  0  0  0
 29 25  2  0  0  0  0
 30 31  1  0  0  0  0
 30 27  1  1  0  0  0
 31 33  1  0  0  0  0
 32 30  1  0  0  0  0
 32 25  1  0  0  0  0
 33 27  1  6  0  0  0
 33 26  1  0  0  0  0
 35 40  2  0  0  0  0
 36 39  1  0  0  0  0
 36 37  1  0  0  0  0
 39 35  1  0  0  0  0
 40 38  1  0  0  0  0
 41 38  2  0  0  0  0
 41 37  1  0  0  0  0
 41 34  1  0  0  0  0
M  END
>  <MODEL>
8

>  <REMARK>
 VINA RESULT:      -7.3      2.664      8.376
  Name = 
  10 active torsions:
  status: ('A' for Active; 'I' for Inactive)
    1  A    between atoms: C_2  and  O_26
    2  A    between atoms: C_3  and  C_4
    3  A    between atoms: C_8  and  C_38
    4  A    between atoms: C_10  and  C_34
    5  A    between atoms: C_10  and  C_41
    6  A    between atoms: C_15  and  C_34
    7  A    between atoms: C_18  and  N_28
    8  A    between atoms: C_21  and  C_34
    9  A    between atoms: C_22  and  C_38
   10  A    between atoms: N_28  and  C_37
                            x       y       z     vdW  Elec       q    Type
                         _______ _______ _______ _____ _____    ______ ____

>  <TORSDO>
F 10

$$$$
=
 OpenBabel11042419583D

 41 45  0  0  1  0  0  0  0  0999 V2000
  192.2510  174.5700  143.9760 C   0  0  2  0  0  3  0  0  0  0  0  0
  188.2890  175.5830  146.6690 O   0  0  0  0  0  1  0  0  0  0  0  0
  189.7450  177.3650  143.7880 C   0  0  0  0  0  3  0  0  0  0  0  0
  191.0790  175.4600  144.2770 C   0  0  0  0  0  0  0  0  0  0  0  0
  190.2310  175.1210  145.3330 C   0  0  0  0  0  3  0  0  0  0  0  0
  189.1280  175.9230  145.6160 C   0  0  0  0  0  0  0  0  0  0  0  0
  190.8070  176.5610  143.5210 N   0  0  0  0  0  0  0  0  0  0  0  0
  188.8720  177.0630  144.8440 C   0  0  0  0  0  0  0  0  0  0  0  0
  187.7660  177.9120  145.1930 N   0  0  0  0  0  2  0  0  0  0  0  0
  184.1180  178.3690  143.0620 C   0  0  0  0  0  0  0  0  0  0  0  0
  185.1610  177.5790  142.5530 C   0  0  0  0  0  3  0  0  0  0  0  0
  184.2940  179.0280  144.2840 C   0  0  0  0  0  3  0  0  0  0  0  0
  185.4900  178.8890  144.9970 C   0  0  0  0  0  3  0  0  0  0  0  0
  186.5290  178.0950  144.4890 C   0  0  0  0  0  0  0  0  0  0  0  0
  186.3580  177.4490  143.2620 C   0  0  0  0  0  3  0  0  0  0  0  0
  182.7640  178.2870  140.9960 C   0  0  0  0  0  1  0  0  0  0  0  0
  182.8980  178.4990  142.3960 O   0  0  0  0  0  0  0  0  0  0  0  0
  191.0970  171.7730  141.9340 C   0  0  0  0  0  3  0  0  0  0  0  0
  192.2560  174.0230  142.5730 C   0  0  0  0  0  3  0  0  0  0  0  0
  191.6630  172.9030  142.2520 C   0  0  0  0  0  0  0  0  0  0  0  0
  191.1440  171.3010  140.5560 C   0  0  0  0  0  3  0  0  0  0  0  0
  190.2440  171.7200  139.6780 C   0  0  0  0  0  3  0  0  0  0  0  0
  189.4400  170.1550  138.1020 O   0  0  0  0  0  1  0  0  0  0  0  0
  190.2820  171.2600  138.2560 C   0  0  1  0  0  3  0  0  0  0  0  0
  190.1940  172.0690  135.8630 C   0  0  0  0  0  0  0  0  0  0  0  0
  190.2890  173.7880  137.7900 C   0  0  0  0  0  2  0  0  0  0  0  0
  191.8340  174.5570  136.0380 C   0  0  0  0  0  2  0  0  0  0  0  0
  189.8460  172.3840  137.3070 C   0  0  2  0  0  3  0  0  0  0  0  0
  189.3180  171.5220  135.1470 O   0  0  0  0  0  0  0  0  0  0  0  0
  192.4440  173.1910  135.8770 C   0  0  1  0  0  3  0  0  0  0  0  0
  192.4950  172.9770  137.2620 O   0  0  0  0  0  0  0  0  0  0  0  0
  191.4630  172.3230  135.2990 O   0  0  0  0  0  0  0  0  0  0  0  0
  191.7510  174.1500  137.4820 C   0  0  2  0  0  3  0  0  0  0  0  0
  192.4150  173.4880  145.0470 C   0  0  0  0  0  2  0  0  0  0  0  0
  196.8310  172.2990  145.8480 C   0  0  0  0  0  3  0  0  0  0  0  0
  195.9830  174.5290  145.0480 C   0  0  0  0  0  2  0  0  0  0  0  0
  194.6530  174.5130  145.7670 C   0  0  0  0  0  2  0  0  0  0  0  0
  194.3310  172.0520  145.4130 C   0  0  0  0  0  3  0  0  0  0  0  0
  196.9710  173.7890  145.9210 C   0  0  0  0  0  2  0  0  0  0  0  0
  195.7130  171.5840  145.6590 C   0  0  0  0  0  3  0  0  0  0  0  0
  193.8510  173.3000  145.4100 C   0  0  0  0  0  0  0  0  0  0  0  0
  1 19  1  6  0  0  0
  1  4  1  0  0  0  0
  1 34  1  0  0  0  0
  3  8  1  0  0  0  0
  4  5  2  0  0  0  0
  5  6  1  0  0  0  0
  6  2  1  0  0  0  0
  7  3  2  0  0  0  0
  7  4  1  0  0  0  0
  8  9  1  0  0  0  0
  8  6  2  0  0  0  0
 10 12  1  0  0  0  0
 11 10  2  0  0  0  0
 11 15  1  0  0  0  0
 12 13  2  0  0  0  0
 14 13  1  0  0  0  0
 14  9  1  0  0  0  0
 15 14  2  0  0  0  0
 16 17  1  0  0  0  0
 17 10  1  0  0  0  0
 18 20  2  0  0  0  0
 20 19  2  0  0  0  0
 21 18  1  0  0  0  0
 22 21  2  0  0  0  0
 24 23  1  1  0  0  0
 24 22  1  0  0  0  0
 25 28  1  0  0  0  0
 28 26  1  0  0  0  0
 28 24  1  1  0  0  0
 29 25  2  0  0  0  0
 30 27  1  1  0  0  0
 30 31  1  0  0  0  0
 31 33  1  0  0  0  0
 32 25  1  0  0  0  0
 32 30  1  0  0  0  0
 33 27  1  6  0  0  0
 33 26  1  0  0  0  0
 34 41  1  0  0  0  0
 35 39  1  0  0  0  0
 36 37  1  0  0  0  0
 36 39  1  0  0  0  0
 38 40  1  0  0  0  0
 40 35  2  0  0  0  0
 41 38  2  0  0  0  0
 41 37  1  0  0  0  0
M  END
>  <MODEL>
9

>  <REMARK>
 VINA RESULT:      -7.3      2.573      8.159
  Name = 
  10 active torsions:
  status: ('A' for Active; 'I' for Inactive)
    1  A    between atoms: C_2  and  O_26
    2  A    between atoms: C_3  and  C_4
    3  A    between atoms: C_8  and  C_38
    4  A    between atoms: C_10  and  C_34
    5  A    between atoms: C_10  and  C_41
    6  A    between atoms: C_15  and  C_34
    7  A    between atoms: C_18  and  N_28
    8  A    between atoms: C_21  and  C_34
    9  A    between atoms: C_22  and  C_38
   10  A    between atoms: N_28  and  C_37
                            x       y       z     vdW  Elec       q    Type
                         _______ _______ _______ _____ _____    ______ ____

>  <TORSDO>
F 10

$$$$
