=
 OpenBabel11042418073D

 40 48  0  0  1  0  0  0  0  0999 V2000
  189.5800  176.1980  143.6620 C   0  0  2  0  0  3  0  0  0  0  0  0
  189.6050  176.9170  142.4630 O   0  0  0  0  0  1  0  0  0  0  0  0
  190.0030  173.7330  143.5700 C   0  0  0  0  0  0  0  0  0  0  0  0
  190.5780  173.1510  142.4780 C   0  0  0  0  0  0  0  0  0  0  0  0
  190.1220  173.2220  138.6960 C   0  0  0  0  0  0  0  0  0  0  0  0
  188.9360  173.9610  138.5890 C   0  0  0  0  0  3  0  0  0  0  0  0
  188.8800  174.2350  140.9930 C   0  0  0  0  0  0  0  0  0  0  0  0
  188.2510  174.7550  142.1590 N   0  0  0  0  0  2  0  0  0  0  0  0
  190.0470  173.4680  141.1220 C   0  0  0  0  0  0  0  0  0  0  0  0
  190.6570  172.9590  139.9650 C   0  0  0  0  0  3  0  0  0  0  0  0
  188.9560  174.8130  143.4370 C   0  0  2  0  0  3  0  0  0  0  0  0
  188.3190  174.4680  139.7350 C   0  0  0  0  0  3  0  0  0  0  0  0
  190.4220  173.4090  144.8950 N   0  0  0  0  0  1  0  0  0  0  0  0
  191.3570  171.1740  143.4400 O   0  0  0  0  0  0  0  0  0  0  0  0
  193.0470  173.0810  142.5650 C   0  0  2  0  0  0  0  0  0  0  0  0
  193.9800  172.6910  141.5830 O   0  0  0  0  0  1  0  0  0  0  0  0
  191.7280  172.1470  142.5330 C   0  0  1  0  0  0  0  0  0  0  0  0
  193.5230  172.7230  143.9220 N   0  0  0  0  0  2  0  0  0  0  0  0
  192.5170  172.0340  143.6540 C   0  0  1  0  0  0  0  0  0  0  0  0
  190.7570  172.6370  137.4720 C   0  0  0  0  0  3  0  0  0  0  0  0
  191.7520  173.6140  136.8670 C   0  0  0  0  0  2  0  0  0  0  0  0
  190.3850  173.4520  136.2430 C   0  0  0  0  0  2  0  0  0  0  0  0
  189.7110  177.4430  145.9170 N   0  0  0  0  0  0  0  0  0  0  0  0
  187.5710  176.4270  145.2560 C   0  0  2  0  0  3  0  0  0  0  0  0
  188.8770  176.2320  145.9920 C   0  0  1  0  0  3  0  0  0  0  0  0
  188.8740  177.0290  144.7580 C   0  0  1  0  0  0  0  0  0  0  0  0
  185.4280  177.8970  145.3170 C   0  0  1  0  0  3  0  0  0  0  0  0
  185.4130  176.8370  146.3980 C   0  0  0  0  0  2  0  0  0  0  0  0
  186.7330  177.4660  146.0000 C   0  0  1  0  0  3  0  0  0  0  0  0
  185.1760  177.2550  143.9590 C   0  0  0  0  0  2  0  0  0  0  0  0
  184.9900  178.3110  142.9280 C   0  0  0  0  0  0  0  0  0  0  0  0
  185.7430  179.3190  142.9120 O   0  0  0  0  0  0  0  0  0  0  0  0
  183.9410  178.1940  141.9750 N   0  0  0  0  0  1  0  0  0  0  0  0
  191.0930  176.9760  145.8560 C   0  0  0  0  0  2  0  0  0  0  0  0
  191.4150  176.1190  147.0700 C   0  0  0  0  0  2  0  0  0  0  0  0
  192.6960  175.3270  146.8610 C   0  0  0  0  0  2  0  0  0  0  0  0
  193.8710  176.2650  146.6390 C   0  0  0  0  0  2  0  0  0  0  0  0
  194.9720  175.5690  145.8560 C   0  0  0  0  0  2  0  0  0  0  0  0
  194.4320  176.1740  143.6360 O   0  0  0  0  0  0  0  0  0  0  0  0
  195.2310  176.2610  144.5550 C   0  0  0  0  0  3  0  0  0  0  0  0
  1  2  1  6  0  0  0
  3 13  1  0  0  0  0
  4  3  2  0  0  0  0
  5 10  1  0  0  0  0
  6  5  2  0  0  0  0
  6 12  1  0  0  0  0
  7  9  1  0  0  0  0
  7  8  1  0  0  0  0
  8 11  1  0  0  0  0
  9  4  1  0  0  0  0
 10  9  2  0  0  0  0
 11  3  1  0  0  0  0
 11  1  1  6  0  0  0
 12  7  2  0  0  0  0
 15 16  1  6  0  0  0
 15 19  1  0  0  0  0
 15 18  1  0  0  0  0
 17  4  1  1  0  0  0
 17 15  1  0  0  0  0
 17 14  1  0  0  0  0
 17 19  1  0  0  0  0
 19 14  1  6  0  0  0
 19 18  1  0  0  0  0
 20  5  1  0  0  0  0
 21 20  1  0  0  0  0
 22 21  1  0  0  0  0
 22 20  1  0  0  0  0
 24 25  1  0  0  0  0
 24 29  1  1  0  0  0
 25 23  1  1  0  0  0
 26  1  1  6  0  0  0
 26 24  1  0  0  0  0
 26 23  1  0  0  0  0
 26 25  1  0  0  0  0
 27 30  1  6  0  0  0
 27 29  1  0  0  0  0
 27 28  1  0  0  0  0
 29 28  1  1  0  0  0
 31 30  1  0  0  0  0
 32 31  2  0  0  0  0
 33 31  1  0  0  0  0
 34 23  1  0  0  0  0
 34 35  1  0  0  0  0
 36 35  1  0  0  0  0
 37 36  1  0  0  0  0
 38 37  1  0  0  0  0
 39 40  2  0  0  0  0
 40 38  1  0  0  0  0
M  END
>  <MODEL>
1

>  <REMARK>
 VINA RESULT:      -6.5      0.000      0.000
  Name = 
  13 active torsions:
  status: ('A' for Active; 'I' for Inactive)
    1  A    between atoms: C_2  and  C_37
    2  A    between atoms: C_2  and  C_40
    3  A    between atoms: C_5  and  C_11
    4  A    between atoms: C_7  and  C_14
    5  A    between atoms: C_9  and  C_30
    6  A    between atoms: C_9  and  C_37
    7  A    between atoms: C_10  and  C_27
    8  A    between atoms: C_12  and  C_26
    9  A    between atoms: C_12  and  C_36
   10  A    between atoms: N_15  and  C_30
   11  A    between atoms: C_17  and  C_35
   12  A    between atoms: C_18  and  C_27
   13  A    between atoms: C_19  and  C_40
                            x       y       z     vdW  Elec       q    Type
                         _______ _______ _______ _____ _____    ______ ____

>  <TORSDO>
F 13

$$$$
=
 OpenBabel11042418073D

 40 48  0  0  1  0  0  0  0  0999 V2000
  188.7890  173.7540  142.0440 C   0  0  2  0  0  3  0  0  0  0  0  0
  187.4250  173.5700  142.2950 O   0  0  0  0  0  1  0  0  0  0  0  0
  189.9370  175.9240  142.5290 C   0  0  0  0  0  0  0  0  0  0  0  0
  189.4300  176.8090  143.4350 C   0  0  0  0  0  0  0  0  0  0  0  0
  186.0610  178.4110  144.2100 C   0  0  0  0  0  0  0  0  0  0  0  0
  185.3100  177.9880  143.1040 C   0  0  0  0  0  3  0  0  0  0  0  0
  187.2130  176.7430  142.2770 C   0  0  0  0  0  0  0  0  0  0  0  0
  187.7950  175.8910  141.2970 N   0  0  0  0  0  2  0  0  0  0  0  0
  187.9900  177.1830  143.3580 C   0  0  0  0  0  0  0  0  0  0  0  0
  187.4050  178.0250  144.3170 C   0  0  0  0  0  3  0  0  0  0  0  0
  189.0490  175.1860  141.5550 C   0  0  2  0  0  3  0  0  0  0  0  0
  185.8850  177.1550  142.1430 C   0  0  0  0  0  3  0  0  0  0  0  0
  191.3240  175.5880  142.5090 N   0  0  0  0  0  1  0  0  0  0  0  0
  191.3720  178.0090  143.9160 O   0  0  0  0  0  0  0  0  0  0  0  0
  190.1780  176.4540  145.7640 C   0  0  2  0  0  0  0  0  0  0  0  0
  189.7740  177.0910  146.9540 O   0  0  0  0  0  1  0  0  0  0  0  0
  190.2470  177.4950  144.5290 C   0  0  1  0  0  0  0  0  0  0  0  0
  191.6150  176.0950  145.8150 N   0  0  0  0  0  2  0  0  0  0  0  0
  191.4510  176.9760  144.9460 C   0  0  1  0  0  0  0  0  0  0  0  0
  185.4600  179.3440  145.2150 C   0  0  0  0  0  3  0  0  0  0  0  0
  185.3050  178.6530  146.5610 C   0  0  0  0  0  2  0  0  0  0  0  0
  184.1010  178.8330  145.6650 C   0  0  0  0  0  2  0  0  0  0  0  0
  190.1050  171.5670  141.6730 N   0  0  0  0  0  0  0  0  0  0  0  0
  189.9970  173.2030  139.8380 C   0  0  2  0  0  3  0  0  0  0  0  0
  190.7620  172.7300  141.0530 C   0  0  1  0  0  3  0  0  0  0  0  0
  189.2950  172.6630  141.0730 C   0  0  1  0  0  0  0  0  0  0  0  0
  189.8170  172.6090  137.3130 C   0  0  1  0  0  3  0  0  0  0  0  0
  191.2380  172.4830  137.8200 C   0  0  0  0  0  2  0  0  0  0  0  0
  190.0920  172.1350  138.7480 C   0  0  1  0  0  3  0  0  0  0  0  0
  189.4410  174.0790  137.1870 C   0  0  0  0  0  2  0  0  0  0  0  0
  189.1900  174.4150  135.7600 C   0  0  0  0  0  0  0  0  0  0  0  0
  188.6850  175.5250  135.4500 O   0  0  0  0  0  0  0  0  0  0  0  0
  189.4970  173.4680  134.7440 N   0  0  0  0  0  1  0  0  0  0  0  0
  190.3220  171.7000  143.1100 C   0  0  0  0  0  2  0  0  0  0  0  0
  191.8100  171.6750  143.4230 C   0  0  0  0  0  2  0  0  0  0  0  0
  192.1610  172.6820  144.5060 C   0  0  0  0  0  2  0  0  0  0  0  0
  193.5240  172.3700  145.1010 C   0  0  0  0  0  2  0  0  0  0  0  0
  194.2920  173.6510  145.3840 C   0  0  0  0  0  2  0  0  0  0  0  0
  194.5440  175.5550  144.0060 O   0  0  0  0  0  0  0  0  0  0  0  0
  194.6710  174.3460  144.1140 C   0  0  0  0  0  3  0  0  0  0  0  0
  1  2  1  6  0  0  0
  3  4  2  0  0  0  0
  5 10  1  0  0  0  0
  5 20  1  0  0  0  0
  6  5  2  0  0  0  0
  7  9  1  0  0  0  0
  8 11  1  0  0  0  0
  8  7  1  0  0  0  0
  9  4  1  0  0  0  0
  9 10  2  0  0  0  0
 11  1  1  1  0  0  0
 11  3  1  0  0  0  0
 12  7  2  0  0  0  0
 12  6  1  0  0  0  0
 13  3  1  0  0  0  0
 14 17  1  0  0  0  0
 15 18  1  0  0  0  0
 15 16  1  1  0  0  0
 17  4  1  6  0  0  0
 17 19  1  0  0  0  0
 17 15  1  0  0  0  0
 19 14  1  1  0  0  0
 19 15  1  0  0  0  0
 19 18  1  0  0  0  0
 20 22  1  0  0  0  0
 20 21  1  0  0  0  0
 22 21  1  0  0  0  0
 23 34  1  0  0  0  0
 24 29  1  6  0  0  0
 24 25  1  0  0  0  0
 24 26  1  0  0  0  0
 25 26  1  0  0  0  0
 25 23  1  6  0  0  0
 26 23  1  0  0  0  0
 26  1  1  1  0  0  0
 27 30  1  1  0  0  0
 27 28  1  0  0  0  0
 27 29  1  0  0  0  0
 29 28  1  6  0  0  0
 31 30  1  0  0  0  0
 32 31  2  0  0  0  0
 33 31  1  0  0  0  0
 34 35  1  0  0  0  0
 35 36  1  0  0  0  0
 36 37  1  0  0  0  0
 37 38  1  0  0  0  0
 39 40  2  0  0  0  0
 40 38  1  0  0  0  0
M  END
>  <MODEL>
2

>  <REMARK>
 VINA RESULT:      -6.5      2.477      6.933
  Name = 
  13 active torsions:
  status: ('A' for Active; 'I' for Inactive)
    1  A    between atoms: C_2  and  C_37
    2  A    between atoms: C_2  and  C_40
    3  A    between atoms: C_5  and  C_11
    4  A    between atoms: C_7  and  C_14
    5  A    between atoms: C_9  and  C_30
    6  A    between atoms: C_9  and  C_37
    7  A    between atoms: C_10  and  C_27
    8  A    between atoms: C_12  and  C_26
    9  A    between atoms: C_12  and  C_36
   10  A    between atoms: N_15  and  C_30
   11  A    between atoms: C_17  and  C_35
   12  A    between atoms: C_18  and  C_27
   13  A    between atoms: C_19  and  C_40
                            x       y       z     vdW  Elec       q    Type
                         _______ _______ _______ _____ _____    ______ ____

>  <TORSDO>
F 13

$$$$
=
 OpenBabel11042418073D

 40 48  0  0  1  0  0  0  0  0999 V2000
  193.7270  175.1270  145.0950 C   0  0  2  0  0  3  0  0  0  0  0  0
  193.6110  176.4830  145.4180 O   0  0  0  0  0  1  0  0  0  0  0  0
  191.7100  173.6690  144.8310 C   0  0  0  0  0  0  0  0  0  0  0  0
  190.4830  174.1980  144.5530 C   0  0  0  0  0  0  0  0  0  0  0  0
  188.2820  177.0190  145.8630 C   0  0  0  0  0  0  0  0  0  0  0  0
  189.0020  177.4040  147.0030 C   0  0  0  0  0  3  0  0  0  0  0  0
  190.7080  175.7670  146.4900 C   0  0  0  0  0  0  0  0  0  0  0  0
  191.9430  175.1350  146.8060 N   0  0  0  0  0  2  0  0  0  0  0  0
  189.9850  175.3440  145.3650 C   0  0  0  0  0  0  0  0  0  0  0  0
  188.7660  175.9730  145.0640 C   0  0  0  0  0  3  0  0  0  0  0  0
  192.6470  174.3140  145.8240 C   0  0  2  0  0  3  0  0  0  0  0  0
  190.2120  176.7820  147.3120 C   0  0  0  0  0  3  0  0  0  0  0  0
  192.2040  172.5260  144.1350 N   0  0  0  0  0  1  0  0  0  0  0  0
  189.3840  172.3230  143.7060 O   0  0  0  0  0  0  0  0  0  0  0  0
  190.0600  174.3980  142.1260 C   0  0  2  0  0  0  0  0  0  0  0  0
  189.0070  175.0310  141.4370 O   0  0  0  0  0  1  0  0  0  0  0  0
  189.5360  173.6750  143.4740 C   0  0  1  0  0  0  0  0  0  0  0  0
  190.5150  173.1860  141.4030 N   0  0  0  0  0  2  0  0  0  0  0  0
  189.9870  172.8380  142.4800 C   0  0  1  0  0  0  0  0  0  0  0  0
  186.9600  177.6530  145.5580 C   0  0  0  0  0  3  0  0  0  0  0  0
  185.8210  176.8030  146.1000 C   0  0  0  0  0  2  0  0  0  0  0  0
  186.1500  176.7660  144.6260 C   0  0  0  0  0  2  0  0  0  0  0  0
  196.2550  175.3310  144.6280 N   0  0  0  0  0  0  0  0  0  0  0  0
  195.3510  173.1370  145.2770 C   0  0  2  0  0  3  0  0  0  0  0  0
  195.6930  174.0630  144.1320 C   0  0  1  0  0  3  0  0  0  0  0  0
  195.1680  174.6420  145.3760 C   0  0  1  0  0  0  0  0  0  0  0  0
  196.8290  171.1810  146.1420 C   0  0  1  0  0  3  0  0  0  0  0  0
  197.4710  171.8950  144.9720 C   0  0  0  0  0  2  0  0  0  0  0  0
  196.6450  172.6940  145.9600 C   0  0  1  0  0  3  0  0  0  0  0  0
  195.6630  170.3320  145.6520 C   0  0  0  0  0  2  0  0  0  0  0  0
  195.3950  169.2360  146.6220 C   0  0  0  0  0  0  0  0  0  0  0  0
  194.3050  168.6080  146.5830 O   0  0  0  0  0  0  0  0  0  0  0  0
  196.3630  168.9140  147.6130 N   0  0  0  0  0  1  0  0  0  0  0  0
  195.7890  176.3640  143.7080 C   0  0  0  0  0  2  0  0  0  0  0  0
  196.7960  176.5650  142.5870 C   0  0  0  0  0  2  0  0  0  0  0  0
  196.0990  176.7270  141.2450 C   0  0  0  0  0  2  0  0  0  0  0  0
  196.0530  175.4010  140.5060 C   0  0  0  0  0  2  0  0  0  0  0  0
  194.7990  175.3060  139.6510 C   0  0  0  0  0  2  0  0  0  0  0  0
  193.8340  173.9160  141.3010 O   0  0  0  0  0  0  0  0  0  0  0  0
  193.6500  174.7570  140.4360 C   0  0  0  0  0  3  0  0  0  0  0  0
  1  2  1  1  0  0  0
  3 11  1  0  0  0  0
  4  3  2  0  0  0  0
  4  9  1  0  0  0  0
  5  6  1  0  0  0  0
  6 12  2  0  0  0  0
  7  8  1  0  0  0  0
  7 12  1  0  0  0  0
  9  7  2  0  0  0  0
 10  9  1  0  0  0  0
 10  5  2  0  0  0  0
 11  1  1  6  0  0  0
 11  8  1  0  0  0  0
 13  3  1  0  0  0  0
 15 16  1  6  0  0  0
 15 19  1  0  0  0  0
 15 17  1  0  0  0  0
 17 14  1  0  0  0  0
 17  4  1  1  0  0  0
 18 15  1  0  0  0  0
 19 18  1  1  0  0  0
 19 17  1  0  0  0  0
 19 14  1  0  0  0  0
 20  5  1  0  0  0  0
 20 21  1  0  0  0  0
 22 20  1  0  0  0  0
 22 21  1  0  0  0  0
 23 26  1  0  0  0  0
 24 26  1  0  0  0  0
 24 29  1  1  0  0  0
 25 23  1  1  0  0  0
 25 24  1  0  0  0  0
 25 26  1  0  0  0  0
 26  1  1  1  0  0  0
 27 30  1  6  0  0  0
 28 27  1  0  0  0  0
 29 28  1  6  0  0  0
 29 27  1  0  0  0  0
 30 31  1  0  0  0  0
 31 33  1  0  0  0  0
 32 31  2  0  0  0  0
 34 23  1  0  0  0  0
 35 34  1  0  0  0  0
 36 35  1  0  0  0  0
 37 36  1  0  0  0  0
 38 40  1  0  0  0  0
 38 37  1  0  0  0  0
 40 39  2  0  0  0  0
M  END
>  <MODEL>
3

>  <REMARK>
 VINA RESULT:      -6.4      2.765      8.072
  Name = 
  13 active torsions:
  status: ('A' for Active; 'I' for Inactive)
    1  A    between atoms: C_2  and  C_37
    2  A    between atoms: C_2  and  C_40
    3  A    between atoms: C_5  and  C_11
    4  A    between atoms: C_7  and  C_14
    5  A    between atoms: C_9  and  C_30
    6  A    between atoms: C_9  and  C_37
    7  A    between atoms: C_10  and  C_27
    8  A    between atoms: C_12  and  C_26
    9  A    between atoms: C_12  and  C_36
   10  A    between atoms: N_15  and  C_30
   11  A    between atoms: C_17  and  C_35
   12  A    between atoms: C_18  and  C_27
   13  A    between atoms: C_19  and  C_40
                            x       y       z     vdW  Elec       q    Type
                         _______ _______ _______ _____ _____    ______ ____

>  <TORSDO>
F 13

$$$$
=
 OpenBabel11042418073D

 40 48  0  0  1  0  0  0  0  0999 V2000
  188.5730  175.2280  144.5210 C   0  0  2  0  0  3  0  0  0  0  0  0
  189.5060  174.3000  144.9930 O   0  0  0  0  0  1  0  0  0  0  0  0
  189.2420  174.3910  142.2590 C   0  0  0  0  0  0  0  0  0  0  0  0
  190.5340  174.0510  141.9810 C   0  0  0  0  0  0  0  0  0  0  0  0
  193.9960  175.5700  142.4520 C   0  0  0  0  0  0  0  0  0  0  0  0
  193.6600  176.8550  142.9010 C   0  0  0  0  0  3  0  0  0  0  0  0
  191.3120  176.2750  142.8270 C   0  0  0  0  0  0  0  0  0  0  0  0
  189.9480  176.6330  143.0230 N   0  0  0  0  0  2  0  0  0  0  0  0
  191.6280  174.9970  142.3440 C   0  0  0  0  0  0  0  0  0  0  0  0
  192.9770  174.6560  142.1530 C   0  0  0  0  0  3  0  0  0  0  0  0
  188.8990  175.6170  143.0710 C   0  0  2  0  0  3  0  0  0  0  0  0
  192.3220  177.2040  143.0900 C   0  0  0  0  0  3  0  0  0  0  0  0
  188.1510  173.5590  141.8670 N   0  0  0  0  0  1  0  0  0  0  0  0
  190.0990  172.5950  140.2120 O   0  0  0  0  0  0  0  0  0  0  0  0
  191.2500  171.7420  142.4940 C   0  0  2  0  0  0  0  0  0  0  0  0
  192.5150  171.1350  142.3710 O   0  0  0  0  0  1  0  0  0  0  0  0
  190.9620  172.7660  141.2760 C   0  0  1  0  0  0  0  0  0  0  0  0
  190.1650  170.7720  142.2120 N   0  0  0  0  0  2  0  0  0  0  0  0
  190.1720  171.6400  141.3150 C   0  0  1  0  0  0  0  0  0  0  0  0
  195.4300  175.2120  142.2030 C   0  0  0  0  0  3  0  0  0  0  0  0
  195.7110  175.1400  140.7100 C   0  0  0  0  0  2  0  0  0  0  0  0
  195.5230  173.8660  141.5020 C   0  0  0  0  0  2  0  0  0  0  0  0
  189.6460  176.6110  146.4150 N   0  0  0  0  0  0  0  0  0  0  0  0
  187.1920  176.5290  146.2620 C   0  0  2  0  0  3  0  0  0  0  0  0
  188.4330  175.9010  146.8550 C   0  0  1  0  0  3  0  0  0  0  0  0
  188.4960  176.4320  145.4870 C   0  0  1  0  0  0  0  0  0  0  0  0
  185.7310  178.6710  146.4500 C   0  0  1  0  0  3  0  0  0  0  0  0
  185.7910  177.9150  147.7600 C   0  0  0  0  0  2  0  0  0  0  0  0
  187.0080  177.9240  146.8580 C   0  0  1  0  0  3  0  0  0  0  0  0
  184.8430  177.9250  145.4620 C   0  0  0  0  0  2  0  0  0  0  0  0
  184.6800  178.7320  144.2220 C   0  0  0  0  0  0  0  0  0  0  0  0
  183.8840  178.3560  143.3240 O   0  0  0  0  0  0  0  0  0  0  0  0
  185.4470  179.9160  144.0410 N   0  0  0  0  0  1  0  0  0  0  0  0
  190.6830  175.5910  146.2870 C   0  0  0  0  0  2  0  0  0  0  0  0
  191.7890  175.8340  147.3020 C   0  0  0  0  0  2  0  0  0  0  0  0
  193.1020  176.1730  146.6140 C   0  0  0  0  0  2  0  0  0  0  0  0
  193.7830  174.9100  146.1130 C   0  0  0  0  0  2  0  0  0  0  0  0
  195.2750  175.1400  145.9330 C   0  0  0  0  0  2  0  0  0  0  0  0
  197.1480  173.7050  146.0440 O   0  0  0  0  0  0  0  0  0  0  0  0
  195.9940  173.8540  145.6780 C   0  0  0  0  0  3  0  0  0  0  0  0
  1  2  1  1  0  0  0
  3 11  1  0  0  0  0
  4  3  2  0  0  0  0
  4  9  1  0  0  0  0
  5  6  1  0  0  0  0
  6 12  2  0  0  0  0
  7  8  1  0  0  0  0
  7 12  1  0  0  0  0
  8 11  1  0  0  0  0
  9  7  2  0  0  0  0
 10  9  1  0  0  0  0
 10  5  2  0  0  0  0
 11  1  1  1  0  0  0
 13  3  1  0  0  0  0
 14 17  1  0  0  0  0
 15 16  1  6  0  0  0
 17 19  1  0  0  0  0
 17  4  1  1  0  0  0
 17 15  1  0  0  0  0
 18 15  1  0  0  0  0
 19 14  1  6  0  0  0
 19 18  1  0  0  0  0
 19 15  1  0  0  0  0
 20  5  1  0  0  0  0
 21 22  1  0  0  0  0
 21 20  1  0  0  0  0
 22 20  1  0  0  0  0
 24 25  1  0  0  0  0
 24 29  1  1  0  0  0
 25 23  1  1  0  0  0
 26  1  1  6  0  0  0
 26 24  1  0  0  0  0
 26 23  1  0  0  0  0
 26 25  1  0  0  0  0
 27 30  1  6  0  0  0
 27 29  1  0  0  0  0
 27 28  1  0  0  0  0
 29 28  1  1  0  0  0
 31 30  1  0  0  0  0
 32 31  2  0  0  0  0
 33 31  1  0  0  0  0
 34 23  1  0  0  0  0
 34 35  1  0  0  0  0
 36 35  1  0  0  0  0
 37 36  1  0  0  0  0
 38 37  1  0  0  0  0
 40 38  1  0  0  0  0
 40 39  2  0  0  0  0
M  END
>  <MODEL>
4

>  <REMARK>
 VINA RESULT:      -6.0      2.301      3.351
  Name = 
  13 active torsions:
  status: ('A' for Active; 'I' for Inactive)
    1  A    between atoms: C_2  and  C_37
    2  A    between atoms: C_2  and  C_40
    3  A    between atoms: C_5  and  C_11
    4  A    between atoms: C_7  and  C_14
    5  A    between atoms: C_9  and  C_30
    6  A    between atoms: C_9  and  C_37
    7  A    between atoms: C_10  and  C_27
    8  A    between atoms: C_12  and  C_26
    9  A    between atoms: C_12  and  C_36
   10  A    between atoms: N_15  and  C_30
   11  A    between atoms: C_17  and  C_35
   12  A    between atoms: C_18  and  C_27
   13  A    between atoms: C_19  and  C_40
                            x       y       z     vdW  Elec       q    Type
                         _______ _______ _______ _____ _____    ______ ____

>  <TORSDO>
F 13

$$$$
=
 OpenBabel11042418073D

 40 48  0  0  1  0  0  0  0  0999 V2000
  188.7170  173.7800  141.9560 C   0  0  2  0  0  3  0  0  0  0  0  0
  187.3850  173.5950  142.3390 O   0  0  0  0  0  1  0  0  0  0  0  0
  189.8660  175.9340  142.5070 C   0  0  0  0  0  0  0  0  0  0  0  0
  189.3850  176.7690  143.4730 C   0  0  0  0  0  0  0  0  0  0  0  0
  186.0340  178.2980  144.4460 C   0  0  0  0  0  0  0  0  0  0  0  0
  185.2470  177.9240  143.3480 C   0  0  0  0  0  3  0  0  0  0  0  0
  187.1280  176.7380  142.3930 C   0  0  0  0  0  0  0  0  0  0  0  0
  187.6810  175.9410  141.3520 N   0  0  0  0  0  2  0  0  0  0  0  0
  187.9400  177.1320  143.4660 C   0  0  0  0  0  0  0  0  0  0  0  0
  187.3830  177.9210  144.4860 C   0  0  0  0  0  3  0  0  0  0  0  0
  188.9490  175.2370  141.5300 C   0  0  2  0  0  3  0  0  0  0  0  0
  185.7930  177.1440  142.3270 C   0  0  0  0  0  3  0  0  0  0  0  0
  191.2530  175.6120  142.4210 N   0  0  0  0  0  1  0  0  0  0  0  0
  191.3040  178.0130  143.9380 O   0  0  0  0  0  0  0  0  0  0  0  0
  190.2770  176.2780  145.7260 C   0  0  2  0  0  0  0  0  0  0  0  0
  189.9170  176.8090  146.9800 O   0  0  0  0  0  1  0  0  0  0  0  0
  190.2360  177.4080  144.5700 C   0  0  1  0  0  0  0  0  0  0  0  0
  191.7270  175.9780  145.6720 N   0  0  0  0  0  2  0  0  0  0  0  0
  191.4800  176.9120  144.8820 C   0  0  1  0  0  0  0  0  0  0  0  0
  185.4620  179.1760  145.5170 C   0  0  0  0  0  3  0  0  0  0  0  0
  185.1170  178.3570  146.7510 C   0  0  0  0  0  2  0  0  0  0  0  0
  184.0210  178.7880  145.8040 C   0  0  0  0  0  2  0  0  0  0  0  0
  190.0700  171.6910  141.2780 N   0  0  0  0  0  0  0  0  0  0  0  0
  189.5300  173.3570  139.5500 C   0  0  2  0  0  3  0  0  0  0  0  0
  190.5320  172.9080  140.5890 C   0  0  1  0  0  3  0  0  0  0  0  0
  189.1000  172.7450  140.8730 C   0  0  1  0  0  0  0  0  0  0  0  0
  189.2690  172.8730  137.0090 C   0  0  1  0  0  3  0  0  0  0  0  0
  190.6640  172.5520  137.5010 C   0  0  0  0  0  2  0  0  0  0  0  0
  189.4850  172.3220  138.4250 C   0  0  1  0  0  3  0  0  0  0  0  0
  189.0810  174.3820  136.9320 C   0  0  0  0  0  2  0  0  0  0  0  0
  189.4990  174.8760  135.5920 C   0  0  0  0  0  0  0  0  0  0  0  0
  190.6980  175.1930  135.3800 O   0  0  0  0  0  0  0  0  0  0  0  0
  188.5350  175.0130  134.5550 N   0  0  0  0  0  1  0  0  0  0  0  0
  190.5410  171.8070  142.6550 C   0  0  0  0  0  2  0  0  0  0  0  0
  191.9280  171.1990  142.7920 C   0  0  0  0  0  2  0  0  0  0  0  0
  191.9240  169.7280  142.4080 C   0  0  0  0  0  2  0  0  0  0  0  0
  193.1270  169.4010  141.5400 C   0  0  0  0  0  2  0  0  0  0  0  0
  193.2830  170.4270  140.4280 C   0  0  0  0  0  2  0  0  0  0  0  0
  191.6560  169.5010  138.9860 O   0  0  0  0  0  0  0  0  0  0  0  0
  192.8080  169.8820  139.1190 C   0  0  0  0  0  3  0  0  0  0  0  0
  1  2  1  6  0  0  0
  3  4  2  0  0  0  0
  5 10  1  0  0  0  0
  5 20  1  0  0  0  0
  6  5  2  0  0  0  0
  7  9  1  0  0  0  0
  8 11  1  0  0  0  0
  8  7  1  0  0  0  0
  9  4  1  0  0  0  0
  9 10  2  0  0  0  0
 11  1  1  1  0  0  0
 11  3  1  0  0  0  0
 12  7  2  0  0  0  0
 12  6  1  0  0  0  0
 13  3  1  0  0  0  0
 14 17  1  0  0  0  0
 15 16  1  1  0  0  0
 17  4  1  6  0  0  0
 17 19  1  0  0  0  0
 17 15  1  0  0  0  0
 18 15  1  0  0  0  0
 19 14  1  1  0  0  0
 19 18  1  0  0  0  0
 19 15  1  0  0  0  0
 20 22  1  0  0  0  0
 20 21  1  0  0  0  0
 22 21  1  0  0  0  0
 23 34  1  0  0  0  0
 24 29  1  6  0  0  0
 24 25  1  0  0  0  0
 24 26  1  0  0  0  0
 25 26  1  0  0  0  0
 25 23  1  6  0  0  0
 26 23  1  0  0  0  0
 26  1  1  1  0  0  0
 27 30  1  1  0  0  0
 27 28  1  0  0  0  0
 27 29  1  0  0  0  0
 29 28  1  6  0  0  0
 31 30  1  0  0  0  0
 32 31  2  0  0  0  0
 33 31  1  0  0  0  0
 34 35  1  0  0  0  0
 36 35  1  0  0  0  0
 37 36  1  0  0  0  0
 38 37  1  0  0  0  0
 39 40  2  0  0  0  0
 40 38  1  0  0  0  0
M  END
>  <MODEL>
5

>  <REMARK>
 VINA RESULT:      -6.0      2.724      7.480
  Name = 
  13 active torsions:
  status: ('A' for Active; 'I' for Inactive)
    1  A    between atoms: C_2  and  C_37
    2  A    between atoms: C_2  and  C_40
    3  A    between atoms: C_5  and  C_11
    4  A    between atoms: C_7  and  C_14
    5  A    between atoms: C_9  and  C_30
    6  A    between atoms: C_9  and  C_37
    7  A    between atoms: C_10  and  C_27
    8  A    between atoms: C_12  and  C_26
    9  A    between atoms: C_12  and  C_36
   10  A    between atoms: N_15  and  C_30
   11  A    between atoms: C_17  and  C_35
   12  A    between atoms: C_18  and  C_27
   13  A    between atoms: C_19  and  C_40
                            x       y       z     vdW  Elec       q    Type
                         _______ _______ _______ _____ _____    ______ ____

>  <TORSDO>
F 13

$$$$
=
 OpenBabel11042418073D

 40 48  0  0  1  0  0  0  0  0999 V2000
  189.9260  172.8560  142.5540 C   0  0  2  0  0  3  0  0  0  0  0  0
  188.5950  172.5770  142.8770 O   0  0  0  0  0  1  0  0  0  0  0  0
  190.8880  175.0630  143.2360 C   0  0  0  0  0  0  0  0  0  0  0  0
  190.2940  175.8320  144.1950 C   0  0  0  0  0  0  0  0  0  0  0  0
  186.7930  177.1000  145.0000 C   0  0  0  0  0  0  0  0  0  0  0  0
  186.1010  176.7100  143.8450 C   0  0  0  0  0  3  0  0  0  0  0  0
  188.1140  175.6860  142.9750 C   0  0  0  0  0  0  0  0  0  0  0  0
  188.7820  174.9620  141.9480 N   0  0  0  0  0  2  0  0  0  0  0  0
  188.8300  176.0980  144.1080 C   0  0  0  0  0  0  0  0  0  0  0  0
  188.1600  176.8130  145.1140 C   0  0  0  0  0  3  0  0  0  0  0  0
  190.0820  174.3390  142.1850 C   0  0  2  0  0  3  0  0  0  0  0  0
  186.7600  176.0030  142.8380 C   0  0  0  0  0  3  0  0  0  0  0  0
  192.2970  174.8380  143.2280 N   0  0  0  0  0  1  0  0  0  0  0  0
  192.0950  177.1790  144.8140 O   0  0  0  0  0  0  0  0  0  0  0  0
  191.0720  175.3310  146.4870 C   0  0  2  0  0  0  0  0  0  0  0  0
  190.6010  175.8010  147.7280 O   0  0  0  0  0  1  0  0  0  0  0  0
  191.0310  176.4900  145.3600 C   0  0  1  0  0  0  0  0  0  0  0  0
  192.5390  175.1240  146.5190 N   0  0  0  0  0  2  0  0  0  0  0  0
  192.2830  176.0640  145.7390 C   0  0  1  0  0  0  0  0  0  0  0  0
  186.0990  177.9020  146.0580 C   0  0  0  0  0  3  0  0  0  0  0  0
  185.9740  177.0970  147.3430 C   0  0  0  0  0  2  0  0  0  0  0  0
  184.7770  177.2510  146.4330 C   0  0  0  0  0  2  0  0  0  0  0  0
  191.4190  170.8680  141.8660 N   0  0  0  0  0  0  0  0  0  0  0  0
  190.8710  172.5690  140.1760 C   0  0  2  0  0  3  0  0  0  0  0  0
  191.8470  172.1340  141.2450 C   0  0  1  0  0  3  0  0  0  0  0  0
  190.4140  171.8860  141.4540 C   0  0  1  0  0  0  0  0  0  0  0  0
  190.8040  172.1780  137.6060 C   0  0  1  0  0  3  0  0  0  0  0  0
  192.1680  171.8720  138.1860 C   0  0  0  0  0  2  0  0  0  0  0  0
  190.9340  171.5780  139.0130 C   0  0  1  0  0  3  0  0  0  0  0  0
  190.5810  173.6840  137.5720 C   0  0  0  0  0  2  0  0  0  0  0  0
  189.2040  173.9800  137.0940 C   0  0  0  0  0  0  0  0  0  0  0  0
  188.2100  173.7040  137.8150 O   0  0  0  0  0  0  0  0  0  0  0  0
  189.0090  174.5520  135.8060 N   0  0  0  0  0  1  0  0  0  0  0  0
  191.8190  170.9550  143.2680 C   0  0  0  0  0  2  0  0  0  0  0  0
  193.2130  170.3780  143.4560 C   0  0  0  0  0  2  0  0  0  0  0  0
  193.1820  169.1420  144.3400 C   0  0  0  0  0  2  0  0  0  0  0  0
  194.3130  169.1850  145.3550 C   0  0  0  0  0  2  0  0  0  0  0  0
  194.8180  170.6070  145.5360 C   0  0  0  0  0  2  0  0  0  0  0  0
  197.1290  171.0840  145.4150 O   0  0  0  0  0  0  0  0  0  0  0  0
  196.2130  170.6210  146.0760 C   0  0  0  0  0  3  0  0  0  0  0  0
  1  2  1  6  0  0  0
  3  4  2  0  0  0  0
  5 10  1  0  0  0  0
  5 20  1  0  0  0  0
  6  5  2  0  0  0  0
  7  9  1  0  0  0  0
  8 11  1  0  0  0  0
  8  7  1  0  0  0  0
  9  4  1  0  0  0  0
  9 10  2  0  0  0  0
 11  1  1  1  0  0  0
 11  3  1  0  0  0  0
 12  7  2  0  0  0  0
 12  6  1  0  0  0  0
 13  3  1  0  0  0  0
 14 17  1  0  0  0  0
 15 18  1  0  0  0  0
 15 16  1  1  0  0  0
 17  4  1  6  0  0  0
 17 19  1  0  0  0  0
 17 15  1  0  0  0  0
 19 14  1  1  0  0  0
 19 15  1  0  0  0  0
 19 18  1  0  0  0  0
 20 22  1  0  0  0  0
 20 21  1  0  0  0  0
 22 21  1  0  0  0  0
 23 34  1  0  0  0  0
 24 29  1  6  0  0  0
 24 25  1  0  0  0  0
 24 26  1  0  0  0  0
 25 26  1  0  0  0  0
 25 23  1  6  0  0  0
 26 23  1  0  0  0  0
 26  1  1  1  0  0  0
 27 30  1  1  0  0  0
 27 28  1  0  0  0  0
 27 29  1  0  0  0  0
 29 28  1  6  0  0  0
 31 30  1  0  0  0  0
 31 32  2  0  0  0  0
 33 31  1  0  0  0  0
 34 35  1  0  0  0  0
 35 36  1  0  0  0  0
 36 37  1  0  0  0  0
 37 38  1  0  0  0  0
 38 40  1  0  0  0  0
 39 40  2  0  0  0  0
M  END
>  <MODEL>
6

>  <REMARK>
 VINA RESULT:      -5.9      2.629      7.080
  Name = 
  13 active torsions:
  status: ('A' for Active; 'I' for Inactive)
    1  A    between atoms: C_2  and  C_37
    2  A    between atoms: C_2  and  C_40
    3  A    between atoms: C_5  and  C_11
    4  A    between atoms: C_7  and  C_14
    5  A    between atoms: C_9  and  C_30
    6  A    between atoms: C_9  and  C_37
    7  A    between atoms: C_10  and  C_27
    8  A    between atoms: C_12  and  C_26
    9  A    between atoms: C_12  and  C_36
   10  A    between atoms: N_15  and  C_30
   11  A    between atoms: C_17  and  C_35
   12  A    between atoms: C_18  and  C_27
   13  A    between atoms: C_19  and  C_40
                            x       y       z     vdW  Elec       q    Type
                         _______ _______ _______ _____ _____    ______ ____

>  <TORSDO>
F 13

$$$$
=
 OpenBabel11042418073D

 40 48  0  0  1  0  0  0  0  0999 V2000
  190.2660  175.1900  143.6040 C   0  0  2  0  0  3  0  0  0  0  0  0
  190.4920  175.9920  142.4810 O   0  0  0  0  0  1  0  0  0  0  0  0
  189.9830  172.7680  143.0390 C   0  0  0  0  0  0  0  0  0  0  0  0
  190.2390  172.2970  141.7840 C   0  0  0  0  0  0  0  0  0  0  0  0
  189.3600  173.2430  138.2000 C   0  0  0  0  0  0  0  0  0  0  0  0
  188.4180  174.2580  138.4200 C   0  0  0  0  0  3  0  0  0  0  0  0
  188.7340  174.0430  140.8100 C   0  0  0  0  0  0  0  0  0  0  0  0
  188.4180  174.4540  142.1350 N   0  0  0  0  0  2  0  0  0  0  0  0
  189.6530  173.0030  140.6100 C   0  0  0  0  0  0  0  0  0  0  0  0
  189.9540  172.6050  139.2970 C   0  0  0  0  0  3  0  0  0  0  0  0
  189.2630  174.0770  143.2660 C   0  0  2  0  0  3  0  0  0  0  0  0
  188.1090  174.6570  139.7210 C   0  0  0  0  0  3  0  0  0  0  0  0
  190.4550  172.0900  144.2020 N   0  0  0  0  0  1  0  0  0  0  0  0
  190.5170  170.0210  142.2140 O   0  0  0  0  0  0  0  0  0  0  0  0
  192.5910  171.5900  141.5090 C   0  0  2  0  0  0  0  0  0  0  0  0
  193.2970  171.2150  140.3500 O   0  0  0  0  0  1  0  0  0  0  0  0
  191.0670  171.0510  141.4770 C   0  0  1  0  0  0  0  0  0  0  0  0
  193.0590  170.8220  142.6880 N   0  0  0  0  0  2  0  0  0  0  0  0
  191.8830  170.4890  142.4310 C   0  0  1  0  0  0  0  0  0  0  0  0
  189.6560  172.7810  136.8060 C   0  0  0  0  0  3  0  0  0  0  0  0
  190.8490  173.5320  136.2350 C   0  0  0  0  0  2  0  0  0  0  0  0
  189.4490  173.9170  135.8170 C   0  0  0  0  0  2  0  0  0  0  0  0
  190.6490  175.9390  146.0420 N   0  0  0  0  0  0  0  0  0  0  0  0
  188.3600  175.9860  145.1420 C   0  0  2  0  0  3  0  0  0  0  0  0
  189.4010  175.1740  145.8790 C   0  0  1  0  0  3  0  0  0  0  0  0
  189.8380  176.0710  144.8000 C   0  0  1  0  0  0  0  0  0  0  0  0
  186.5990  177.8280  145.6560 C   0  0  1  0  0  3  0  0  0  0  0  0
  186.6540  176.7830  146.7500 C   0  0  0  0  0  2  0  0  0  0  0  0
  187.9300  177.1580  146.0240 C   0  0  1  0  0  3  0  0  0  0  0  0
  185.9130  177.2510  144.4240 C   0  0  0  0  0  2  0  0  0  0  0  0
  185.1020  178.3060  143.7580 C   0  0  0  0  0  0  0  0  0  0  0  0
  184.1580  177.9880  142.9900 O   0  0  0  0  0  0  0  0  0  0  0  0
  185.4130  179.6780  143.9690 N   0  0  0  0  0  1  0  0  0  0  0  0
  191.7330  174.9650  145.9500 C   0  0  0  0  0  2  0  0  0  0  0  0
  192.9690  175.4810  146.6680 C   0  0  0  0  0  2  0  0  0  0  0  0
  194.2240  175.2420  145.8430 C   0  0  0  0  0  2  0  0  0  0  0  0
  194.3630  173.7680  145.5010 C   0  0  0  0  0  2  0  0  0  0  0  0
  195.8220  173.3430  145.5460 C   0  0  0  0  0  2  0  0  0  0  0  0
  196.8730  171.3080  146.1310 O   0  0  0  0  0  0  0  0  0  0  0  0
  195.9510  171.8520  145.5450 C   0  0  0  0  0  3  0  0  0  0  0  0
  1  2  1  6  0  0  0
  3 11  1  0  0  0  0
  3 13  1  0  0  0  0
  4  3  2  0  0  0  0
  5  6  2  0  0  0  0
  5 10  1  0  0  0  0
  6 12  1  0  0  0  0
  7  8  1  0  0  0  0
  8 11  1  0  0  0  0
  9  7  1  0  0  0  0
  9  4  1  0  0  0  0
 10  9  2  0  0  0  0
 11  1  1  6  0  0  0
 12  7  2  0  0  0  0
 15 16  1  6  0  0  0
 15 19  1  0  0  0  0
 15 18  1  0  0  0  0
 17 15  1  0  0  0  0
 17  4  1  1  0  0  0
 17 14  1  0  0  0  0
 17 19  1  0  0  0  0
 19 14  1  6  0  0  0
 19 18  1  0  0  0  0
 20  5  1  0  0  0  0
 21 20  1  0  0  0  0
 22 21  1  0  0  0  0
 22 20  1  0  0  0  0
 24 25  1  0  0  0  0
 24 29  1  1  0  0  0
 25 23  1  1  0  0  0
 26  1  1  6  0  0  0
 26 24  1  0  0  0  0
 26 25  1  0  0  0  0
 26 23  1  0  0  0  0
 27 30  1  6  0  0  0
 27 29  1  0  0  0  0
 27 28  1  0  0  0  0
 29 28  1  1  0  0  0
 31 33  1  0  0  0  0
 31 30  1  0  0  0  0
 32 31  2  0  0  0  0
 34 23  1  0  0  0  0
 34 35  1  0  0  0  0
 36 35  1  0  0  0  0
 37 38  1  0  0  0  0
 37 36  1  0  0  0  0
 40 38  1  0  0  0  0
 40 39  2  0  0  0  0
M  END
>  <MODEL>
7

>  <REMARK>
 VINA RESULT:      -5.9      1.703      1.915
  Name = 
  13 active torsions:
  status: ('A' for Active; 'I' for Inactive)
    1  A    between atoms: C_2  and  C_37
    2  A    between atoms: C_2  and  C_40
    3  A    between atoms: C_5  and  C_11
    4  A    between atoms: C_7  and  C_14
    5  A    between atoms: C_9  and  C_30
    6  A    between atoms: C_9  and  C_37
    7  A    between atoms: C_10  and  C_27
    8  A    between atoms: C_12  and  C_26
    9  A    between atoms: C_12  and  C_36
   10  A    between atoms: N_15  and  C_30
   11  A    between atoms: C_17  and  C_35
   12  A    between atoms: C_18  and  C_27
   13  A    between atoms: C_19  and  C_40
                            x       y       z     vdW  Elec       q    Type
                         _______ _______ _______ _____ _____    ______ ____

>  <TORSDO>
F 13

$$$$
=
 OpenBabel11042418073D

 40 48  0  0  1  0  0  0  0  0999 V2000
  192.2180  175.5250  145.3300 C   0  0  2  0  0  3  0  0  0  0  0  0
  191.9650  176.3030  146.4650 O   0  0  0  0  0  1  0  0  0  0  0  0
  190.4700  175.2440  143.5610 C   0  0  0  0  0  0  0  0  0  0  0  0
  189.4390  176.1280  143.4350 C   0  0  0  0  0  0  0  0  0  0  0  0
  186.8780  177.7950  145.7100 C   0  0  0  0  0  0  0  0  0  0  0  0
  187.1020  177.1020  146.9080 C   0  0  0  0  0  3  0  0  0  0  0  0
  188.8890  175.8520  145.8600 C   0  0  0  0  0  0  0  0  0  0  0  0
  189.9150  174.8680  145.9400 N   0  0  0  0  0  2  0  0  0  0  0  0
  188.6570  176.5100  144.6440 C   0  0  0  0  0  0  0  0  0  0  0  0
  187.6410  177.4770  144.5780 C   0  0  0  0  0  3  0  0  0  0  0  0
  190.9490  174.7680  144.9130 C   0  0  2  0  0  3  0  0  0  0  0  0
  188.1060  176.1360  146.9820 C   0  0  0  0  0  3  0  0  0  0  0  0
  191.2040  174.7860  142.4270 N   0  0  0  0  0  1  0  0  0  0  0  0
  188.8220  178.0980  142.3480 O   0  0  0  0  0  0  0  0  0  0  0  0
  187.8850  175.6980  141.5620 C   0  0  2  0  0  0  0  0  0  0  0  0
  188.1500  175.3270  140.2290 O   0  0  0  0  0  1  0  0  0  0  0  0
  188.9840  176.7470  142.1150 C   0  0  1  0  0  0  0  0  0  0  0  0
  186.6960  176.5790  141.6420 N   0  0  0  0  0  2  0  0  0  0  0  0
  187.7070  177.2370  141.9650 C   0  0  1  0  0  0  0  0  0  0  0  0
  185.7680  178.7970  145.6170 C   0  0  0  0  0  3  0  0  0  0  0  0
  184.6710  178.2950  144.6900 C   0  0  0  0  0  2  0  0  0  0  0  0
  185.6560  179.3310  144.1980 C   0  0  0  0  0  2  0  0  0  0  0  0
  194.7560  175.1130  145.1180 N   0  0  0  0  0  0  0  0  0  0  0  0
  193.2440  173.1720  145.1210 C   0  0  2  0  0  3  0  0  0  0  0  0
  193.9660  174.1980  144.2770 C   0  0  1  0  0  3  0  0  0  0  0  0
  193.4360  174.6070  145.5850 C   0  0  1  0  0  0  0  0  0  0  0  0
  194.1990  170.7660  145.3550 C   0  0  1  0  0  3  0  0  0  0  0  0
  195.1820  171.6970  144.6780 C   0  0  0  0  0  2  0  0  0  0  0  0
  194.2750  172.2440  145.7620 C   0  0  1  0  0  3  0  0  0  0  0  0
  193.0650  170.4250  144.3970 C   0  0  0  0  0  2  0  0  0  0  0  0
  193.0080  168.9530  144.1860 C   0  0  0  0  0  0  0  0  0  0  0  0
  192.8700  168.1780  145.1670 O   0  0  0  0  0  0  0  0  0  0  0  0
  193.1380  168.4200  142.8730 N   0  0  0  0  0  1  0  0  0  0  0  0
  194.6990  176.4150  144.4590 C   0  0  0  0  0  2  0  0  0  0  0  0
  196.0670  176.7880  143.9100 C   0  0  0  0  0  2  0  0  0  0  0  0
  196.5170  175.8050  142.8410 C   0  0  0  0  0  2  0  0  0  0  0  0
  196.4170  176.4360  141.4620 C   0  0  0  0  0  2  0  0  0  0  0  0
  194.9790  176.4210  140.9680 C   0  0  0  0  0  2  0  0  0  0  0  0
  194.4530  175.1480  139.0480 O   0  0  0  0  0  0  0  0  0  0  0  0
  194.6670  175.1470  140.2490 C   0  0  0  0  0  3  0  0  0  0  0  0
  1  2  1  1  0  0  0
  3 11  1  0  0  0  0
  4  3  2  0  0  0  0
  4  9  1  0  0  0  0
  5  6  1  0  0  0  0
  6 12  2  0  0  0  0
  7  8  1  0  0  0  0
  7 12  1  0  0  0  0
  9  7  2  0  0  0  0
 10  9  1  0  0  0  0
 10  5  2  0  0  0  0
 11  1  1  1  0  0  0
 11  8  1  0  0  0  0
 13  3  1  0  0  0  0
 15 16  1  6  0  0  0
 15 18  1  0  0  0  0
 15 19  1  0  0  0  0
 15 17  1  0  0  0  0
 17 14  1  0  0  0  0
 17  4  1  1  0  0  0
 19 18  1  1  0  0  0
 19 17  1  0  0  0  0
 19 14  1  0  0  0  0
 20  5  1  0  0  0  0
 21 20  1  0  0  0  0
 22 21  1  0  0  0  0
 22 20  1  0  0  0  0
 23 26  1  0  0  0  0
 24 26  1  0  0  0  0
 24 29  1  1  0  0  0
 25 23  1  1  0  0  0
 25 24  1  0  0  0  0
 25 26  1  0  0  0  0
 26  1  1  1  0  0  0
 27 30  1  6  0  0  0
 27 29  1  0  0  0  0
 28 27  1  0  0  0  0
 29 28  1  6  0  0  0
 31 30  1  0  0  0  0
 31 32  2  0  0  0  0
 33 31  1  0  0  0  0
 34 23  1  0  0  0  0
 35 34  1  0  0  0  0
 36 35  1  0  0  0  0
 37 36  1  0  0  0  0
 38 37  1  0  0  0  0
 39 40  2  0  0  0  0
 40 38  1  0  0  0  0
M  END
>  <MODEL>
8

>  <REMARK>
 VINA RESULT:      -5.9      2.747      7.639
  Name = 
  13 active torsions:
  status: ('A' for Active; 'I' for Inactive)
    1  A    between atoms: C_2  and  C_37
    2  A    between atoms: C_2  and  C_40
    3  A    between atoms: C_5  and  C_11
    4  A    between atoms: C_7  and  C_14
    5  A    between atoms: C_9  and  C_30
    6  A    between atoms: C_9  and  C_37
    7  A    between atoms: C_10  and  C_27
    8  A    between atoms: C_12  and  C_26
    9  A    between atoms: C_12  and  C_36
   10  A    between atoms: N_15  and  C_30
   11  A    between atoms: C_17  and  C_35
   12  A    between atoms: C_18  and  C_27
   13  A    between atoms: C_19  and  C_40
                            x       y       z     vdW  Elec       q    Type
                         _______ _______ _______ _____ _____    ______ ____

>  <TORSDO>
F 13

$$$$
=
 OpenBabel11042418073D

 40 48  0  0  1  0  0  0  0  0999 V2000
  192.8710  175.3580  143.3970 C   0  0  2  0  0  3  0  0  0  0  0  0
  192.7340  176.6670  143.8700 O   0  0  0  0  0  1  0  0  0  0  0  0
  190.7340  174.0620  143.2760 C   0  0  0  0  0  0  0  0  0  0  0  0
  189.5230  174.6740  143.4180 C   0  0  0  0  0  0  0  0  0  0  0  0
  187.8940  177.1480  145.8140 C   0  0  0  0  0  0  0  0  0  0  0  0
  188.8730  177.2270  146.8140 C   0  0  0  0  0  3  0  0  0  0  0  0
  190.2890  175.7180  145.5590 C   0  0  0  0  0  0  0  0  0  0  0  0
  191.5090  174.9970  145.4280 N   0  0  0  0  0  2  0  0  0  0  0  0
  189.3070  175.6000  144.5650 C   0  0  0  0  0  0  0  0  0  0  0  0
  188.1070  176.3160  144.7060 C   0  0  0  0  0  3  0  0  0  0  0  0
  191.9140  174.4210  144.1470 C   0  0  2  0  0  3  0  0  0  0  0  0
  190.0680  176.5160  146.6850 C   0  0  0  0  0  3  0  0  0  0  0  0
  190.9710  173.1080  142.2410 N   0  0  0  0  0  1  0  0  0  0  0  0
  188.1410  173.0880  142.4080 O   0  0  0  0  0  0  0  0  0  0  0  0
  188.5760  175.5000  141.2890 C   0  0  2  0  0  0  0  0  0  0  0  0
  187.4390  176.2950  141.0490 O   0  0  0  0  0  1  0  0  0  0  0  0
  188.3250  174.4530  142.4960 C   0  0  1  0  0  0  0  0  0  0  0  0
  188.7770  174.5170  140.1990 N   0  0  0  0  0  2  0  0  0  0  0  0
  188.4850  173.9030  141.2450 C   0  0  1  0  0  0  0  0  0  0  0  0
  186.5930  177.8720  145.9760 C   0  0  0  0  0  3  0  0  0  0  0  0
  185.6200  177.0450  146.8040 C   0  0  0  0  0  2  0  0  0  0  0  0
  185.4710  177.1000  145.3010 C   0  0  0  0  0  2  0  0  0  0  0  0
  195.1370  175.0250  142.2100 N   0  0  0  0  0  0  0  0  0  0  0  0
  194.5740  173.5620  144.1060 C   0  0  2  0  0  3  0  0  0  0  0  0
  194.5170  173.7490  142.6070 C   0  0  1  0  0  3  0  0  0  0  0  0
  194.3530  174.9250  143.4720 C   0  0  1  0  0  0  0  0  0  0  0  0
  196.3370  172.1530  145.3980 C   0  0  1  0  0  3  0  0  0  0  0  0
  196.5690  172.1090  143.9020 C   0  0  0  0  0  2  0  0  0  0  0  0
  196.0320  173.3810  144.5280 C   0  0  1  0  0  3  0  0  0  0  0  0
  195.1210  171.3090  145.7580 C   0  0  0  0  0  2  0  0  0  0  0  0
  195.5090  169.8740  145.8360 C   0  0  0  0  0  0  0  0  0  0  0  0
  194.9400  169.0240  145.1030 O   0  0  0  0  0  0  0  0  0  0  0  0
  196.5070  169.4590  146.7600 N   0  0  0  0  0  1  0  0  0  0  0  0
  194.3690  175.5050  141.0640 C   0  0  0  0  0  2  0  0  0  0  0  0
  195.1530  175.2940  139.7790 C   0  0  0  0  0  2  0  0  0  0  0  0
  194.2910  174.6420  138.7100 C   0  0  0  0  0  2  0  0  0  0  0  0
  192.9800  174.1560  139.3060 C   0  0  0  0  0  2  0  0  0  0  0  0
  192.0580  173.6290  138.2180 C   0  0  0  0  0  2  0  0  0  0  0  0
  191.3140  174.9290  136.3900 O   0  0  0  0  0  0  0  0  0  0  0  0
  192.2540  174.3740  136.9360 C   0  0  0  0  0  3  0  0  0  0  0  0
  1  2  1  1  0  0  0
  3  4  2  0  0  0  0
  3 11  1  0  0  0  0
  4  9  1  0  0  0  0
  5 20  1  0  0  0  0
  5  6  1  0  0  0  0
  7 12  1  0  0  0  0
  8  7  1  0  0  0  0
  9 10  1  0  0  0  0
  9  7  2  0  0  0  0
 10  5  2  0  0  0  0
 11  1  1  6  0  0  0
 11  8  1  0  0  0  0
 12  6  2  0  0  0  0
 13  3  1  0  0  0  0
 14 17  1  0  0  0  0
 15 16  1  6  0  0  0
 15 17  1  0  0  0  0
 17  4  1  1  0  0  0
 18 15  1  0  0  0  0
 19 18  1  1  0  0  0
 19 15  1  0  0  0  0
 19 14  1  0  0  0  0
 19 17  1  0  0  0  0
 20 21  1  0  0  0  0
 22 20  1  0  0  0  0
 22 21  1  0  0  0  0
 23 26  1  0  0  0  0
 24 29  1  6  0  0  0
 25 23  1  6  0  0  0
 25 26  1  0  0  0  0
 25 24  1  0  0  0  0
 26  1  1  1  0  0  0
 26 24  1  0  0  0  0
 27 30  1  6  0  0  0
 28 27  1  0  0  0  0
 29 28  1  6  0  0  0
 29 27  1  0  0  0  0
 30 31  1  0  0  0  0
 31 33  1  0  0  0  0
 32 31  2  0  0  0  0
 34 23  1  0  0  0  0
 35 34  1  0  0  0  0
 36 37  1  0  0  0  0
 36 35  1  0  0  0  0
 38 37  1  0  0  0  0
 39 40  2  0  0  0  0
 40 38  1  0  0  0  0
M  END
>  <MODEL>
9

>  <REMARK>
 VINA RESULT:      -5.7      2.689      8.276
  Name = 
  13 active torsions:
  status: ('A' for Active; 'I' for Inactive)
    1  A    between atoms: C_2  and  C_37
    2  A    between atoms: C_2  and  C_40
    3  A    between atoms: C_5  and  C_11
    4  A    between atoms: C_7  and  C_14
    5  A    between atoms: C_9  and  C_30
    6  A    between atoms: C_9  and  C_37
    7  A    between atoms: C_10  and  C_27
    8  A    between atoms: C_12  and  C_26
    9  A    between atoms: C_12  and  C_36
   10  A    between atoms: N_15  and  C_30
   11  A    between atoms: C_17  and  C_35
   12  A    between atoms: C_18  and  C_27
   13  A    between atoms: C_19  and  C_40
                            x       y       z     vdW  Elec       q    Type
                         _______ _______ _______ _____ _____    ______ ____

>  <TORSDO>
F 13

$$$$
