=
 OpenBabel11042418313D

 70 78  0  0  1  0  0  0  0  0999 V2000
  188.8470  175.5470  142.9280 C   0  0  0  0  0  0  0  0  0  0  0  0
  188.5020  175.3870  141.5700 N   0  0  0  0  0  0  0  0  0  0  0  0
  188.6780  174.0890  139.5410 C   0  0  0  0  0  3  0  0  0  0  0  0
  189.5450  173.1190  141.6160 C   0  0  0  0  0  0  0  0  0  0  0  0
  189.8460  171.8100  140.9320 C   0  0  0  0  0  3  0  0  0  0  0  0
  188.5640  176.9110  143.4330 C   0  0  1  0  0  3  0  0  0  0  0  0
  189.1690  172.9110  138.7940 C   0  0  0  0  0  0  0  0  0  0  0  0
  189.5090  174.5960  143.5890 C   0  0  0  0  0  3  0  0  0  0  0  0
  188.1420  177.6660  142.1600 C   0  0  0  0  0  3  0  0  0  0  0  0
  189.7600  171.8980  139.4330 C   0  0  0  0  0  3  0  0  0  0  0  0
  189.8460  173.3150  142.9200 C   0  0  0  0  0  0  0  0  0  0  0  0
  188.8570  174.1950  140.8590 C   0  0  1  0  0  3  0  0  0  0  0  0
  188.0120  176.6360  141.0200 C   0  0  0  0  0  3  0  0  0  0  0  0
  190.2280  173.3050  136.5160 C   0  0  0  0  0  0  0  0  0  0  0  0
  189.1500  172.8910  137.3630 N   0  0  0  0  0  2  0  0  0  0  0  0
  190.2030  172.9870  135.2980 O   0  0  0  0  0  0  0  0  0  0  0  0
  191.2790  174.1340  137.0350 N   0  0  0  0  0  2  0  0  0  0  0  0
  192.4400  174.6320  136.2980 C   0  0  1  0  0  3  0  0  0  0  0  0
  193.0290  176.4580  134.8210 O   0  0  0  0  0  1  0  0  0  0  0  0
  192.3610  176.1300  136.0030 C   0  0  0  0  0  2  0  0  0  0  0  0
  194.0930  173.0000  136.8070 O   0  0  0  0  0  0  0  0  0  0  0  0
  193.7530  174.1730  136.8780 C   0  0  0  0  0  0  0  0  0  0  0  0
  194.6580  175.1530  137.5550 C   0  0  0  0  0  2  0  0  0  0  0  0
  196.0390  175.1550  136.9170 C   0  0  0  0  0  3  0  0  0  0  0  0
  196.9810  175.5020  137.8800 O   0  0  0  0  0  1  0  0  0  0  0  0
  196.0810  176.0870  135.8760 O   0  0  0  0  0  1  0  0  0  0  0  0
  190.5870  172.2800  143.7060 C   0  0  0  0  0  2  0  0  0  0  0  0
  192.0430  172.6640  143.8850 C   0  0  0  0  0  2  0  0  0  0  0  0
  192.8750  171.5370  143.6400 O   0  0  0  0  0  0  0  0  0  0  0  0
  193.6760  169.2590  144.6270 S   0  0  0  0  0  0  0  0  0  0  0  0
  193.5750  170.8940  144.6600 C   0  0  0  0  0  0  0  0  0  0  0  0
  194.1860  171.6590  145.7060 N   0  0  0  0  0  2  0  0  0  0  0  0
  195.4860  172.3060  145.6010 C   0  0  0  0  0  2  0  0  0  0  0  0
  195.0720  174.7420  145.9480 C   0  0  0  0  0  3  0  0  0  0  0  0
  194.9520  176.0480  145.4790 C   0  0  0  0  0  3  0  0  0  0  0  0
  195.3780  175.2720  143.2110 C   0  0  0  0  0  0  0  0  0  0  0  0
  195.3400  173.6950  145.0640 C   0  0  0  0  0  0  0  0  0  0  0  0
  196.2580  176.8110  141.4720 C   0  0  0  0  0  1  0  0  0  0  0  0
  195.7170  172.9010  142.8080 O   0  0  0  0  0  0  0  0  0  0  0  0
  197.3270  173.9060  141.3100 C   0  0  0  0  0  2  0  0  0  0  0  0
  195.4810  173.9570  143.6890 C   0  0  0  0  0  0  0  0  0  0  0  0
  195.4200  175.5670  141.7300 C   0  0  2  0  0  0  0  0  0  0  0  0
  195.0980  176.3100  144.1160 C   0  0  0  0  0  3  0  0  0  0  0  0
  196.0880  173.0310  141.4350 C   0  0  2  0  0  3  0  0  0  0  0  0
  194.1170  175.8350  141.3060 O   0  0  0  0  0  1  0  0  0  0  0  0
  195.9780  174.4370  140.8390 C   0  0  2  0  0  3  0  0  0  0  0  0
  187.4800  176.8910  144.4190 N   0  0  0  0  0  0  0  0  0  0  0  0
  186.5500  179.0380  145.1570 C   0  0  0  0  0  3  0  0  0  0  0  0
  184.4280  179.8310  144.3290 C   0  0  0  0  0  3  0  0  0  0  0  0
  185.3220  177.7200  143.5300 C   0  0  0  0  0  0  0  0  0  0  0  0
  184.3030  178.7030  143.5040 C   0  0  0  0  0  0  0  0  0  0  0  0
  185.2200  176.5790  142.7350 O   0  0  0  0  0  1  0  0  0  0  0  0
  185.5440  179.9990  145.1460 C   0  0  0  0  0  3  0  0  0  0  0  0
  186.4500  177.8920  144.3570 C   0  0  0  0  0  0  0  0  0  0  0  0
  182.1120  178.0740  140.4620 C   0  0  0  0  0  3  0  0  0  0  0  0
  183.1120  178.5970  142.6190 C   0  0  0  0  0  0  0  0  0  0  0  0
  181.8540  179.0220  143.0740 C   0  0  0  0  0  3  0  0  0  0  0  0
  180.7360  178.9680  142.2370 C   0  0  0  0  0  3  0  0  0  0  0  0
  183.2270  178.1220  141.3010 C   0  0  0  0  0  3  0  0  0  0  0  0
  180.8640  178.4950  140.9270 C   0  0  0  0  0  0  0  0  0  0  0  0
  179.0110  177.4480  139.3260 C   0  0  0  0  0  2  0  0  0  0  0  0
  179.7300  178.4660  140.0600 N   0  0  0  0  0  0  0  0  0  0  0  0
  178.0560  178.3800  138.8040 C   0  0  0  0  0  2  0  0  0  0  0  0
  178.7660  179.4620  139.5480 C   0  0  0  0  0  0  0  0  0  0  0  0
  178.6130  180.7030  139.6820 O   0  0  0  0  0  0  0  0  0  0  0  0
  187.3880  175.8330  145.3420 N   0  0  0  0  0  2  0  0  0  0  0  0
  187.7830  176.3360  146.6500 C   0  0  0  0  0  2  0  0  0  0  0  0
  190.3260  175.6610  147.1070 C   0  0  0  0  0  0  0  0  0  0  0  0
  189.1780  175.9660  146.9040 C   0  0  0  0  0  0  0  0  0  0  0  0
  191.7190  175.2800  147.3490 C   0  0  0  0  0  1  0  0  0  0  0  0
  1  6  1  0  0  0  0
  1  8  2  0  0  0  0
  2  1  1  0  0  0  0
  4 11  2  0  0  0  0
  5  4  1  0  0  0  0
  6 47  1  1  0  0  0
  7 10  1  0  0  0  0
  7  3  2  0  0  0  0
  9  6  1  0  0  0  0
 10  5  2  0  0  0  0
 11  8  1  0  0  0  0
 11 27  1  0  0  0  0
 12  3  1  6  0  0  0
 12  2  1  0  0  0  0
 12  4  1  0  0  0  0
 13  2  1  0  0  0  0
 13  9  2  0  0  0  0
 14 17  1  0  0  0  0
 14 15  1  0  0  0  0
 15  7  1  0  0  0  0
 16 14  2  0  0  0  0
 18 20  1  1  0  0  0
 18 22  1  0  0  0  0
 18 17  1  0  0  0  0
 19 20  1  0  0  0  0
 21 22  2  0  0  0  0
 22 23  1  0  0  0  0
 24 23  1  0  0  0  0
 24 25  1  0  0  0  0
 26 24  1  0  0  0  0
 27 28  1  0  0  0  0
 29 28  1  0  0  0  0
 29 31  1  0  0  0  0
 30 31  2  0  0  0  0
 31 32  1  0  0  0  0
 33 32  1  0  0  0  0
 35 34  1  0  0  0  0
 36 41  2  0  0  0  0
 36 43  1  0  0  0  0
 37 33  1  0  0  0  0
 37 34  2  0  0  0  0
 39 41  1  0  0  0  0
 41 37  1  0  0  0  0
 42 38  1  6  0  0  0
 42 36  1  0  0  0  0
 43 35  2  0  0  0  0
 44 40  1  1  0  0  0
 44 39  1  0  0  0  0
 45 42  1  0  0  0  0
 46 40  1  1  0  0  0
 46 44  1  0  0  0  0
 46 42  1  0  0  0  0
 47 66  1  0  0  0  0
 49 53  2  0  0  0  0
 50 54  1  0  0  0  0
 51 50  2  0  0  0  0
 51 49  1  0  0  0  0
 52 50  1  0  0  0  0
 53 48  1  0  0  0  0
 54 47  1  0  0  0  0
 54 48  2  0  0  0  0
 55 60  2  0  0  0  0
 55 59  1  0  0  0  0
 56 57  1  0  0  0  0
 56 51  1  0  0  0  0
 58 57  2  0  0  0  0
 59 56  2  0  0  0  0
 60 58  1  0  0  0  0
 61 62  1  0  0  0  0
 62 60  1  0  0  0  0
 63 61  1  0  0  0  0
 63 64  1  0  0  0  0
 64 65  2  0  0  0  0
 64 62  1  0  0  0  0
 66 67  1  0  0  0  0
 67 69  1  0  0  0  0
 68 70  1  0  0  0  0
 69 68  3  0  0  0  0
M  END
>  <MODEL>
1

>  <REMARK>
 VINA RESULT:      -7.3      0.000      0.000
  Name = 
  20 active torsions:
  status: ('A' for Active; 'I' for Inactive)
    1  A    between atoms: O_7  and  C_47
    2  A    between atoms: O_7  and  C_62
    3  A    between atoms: N_8  and  C_39
    4  A    between atoms: N_8  and  N_53
    5  A    between atoms: N_12  and  C_69
    6  A    between atoms: C_13  and  C_15
    7  A    between atoms: C_13  and  C_27
    8  A    between atoms: C_18  and  C_44
    9  A    between atoms: C_19  and  C_67
   10  A    between atoms: C_20  and  CA_60
   11  A    between atoms: C_25  and  C_47
   12  A    between atoms: C_25  and  C_52
   13  A    between atoms: C_27  and  CA_60
   14  A    between atoms: C_29  and  N_53
   15  A    between atoms: C_30  and  C_39
   16  A    between atoms: N_32  and  C_40
   17  A    between atoms: N_38  and  C_62
   18  A    between atoms: N_38  and  C_67
   19  A    between atoms: N_50  and  CA_60
   20  A    between atoms: N_53  and  C_58
                            x       y       z     vdW  Elec       q    Type
                         _______ _______ _______ _____ _____    ______ ____

>  <TORSDO>
F 20

$$$$
=
 OpenBabel11042418313D

 70 78  0  0  1  0  0  0  0  0999 V2000
  188.3490  175.6650  142.7330 C   0  0  0  0  0  0  0  0  0  0  0  0
  188.0580  176.0090  141.3970 N   0  0  0  0  0  0  0  0  0  0  0  0
  187.9510  175.3440  139.0770 C   0  0  0  0  0  3  0  0  0  0  0  0
  188.3420  173.6110  140.7620 C   0  0  0  0  0  0  0  0  0  0  0  0
  188.2650  172.5210  139.7240 C   0  0  0  0  0  2  0  0  0  0  0  0
  188.4700  176.8500  143.6140 C   0  0  1  0  0  3  0  0  0  0  0  0
  188.0980  174.3310  138.0100 C   0  0  0  0  0  0  0  0  0  0  0  0
  188.6410  174.4090  143.0750 C   0  0  0  0  0  3  0  0  0  0  0  0
  188.3840  178.0240  142.6230 C   0  0  0  0  0  3  0  0  0  0  0  0
  188.3060  173.0480  138.3160 C   0  0  0  0  0  3  0  0  0  0  0  0
  188.6050  173.3290  142.0580 C   0  0  0  0  0  0  0  0  0  0  0  0
  188.0700  175.0160  140.3650 C   0  0  0  0  0  0  0  0  0  0  0  0
  188.0140  177.4500  141.2410 C   0  0  0  0  0  3  0  0  0  0  0  0
  189.3260  174.6220  135.8030 C   0  0  0  0  0  0  0  0  0  0  0  0
  188.1650  174.7210  136.6340 N   0  0  0  0  0  2  0  0  0  0  0  0
  189.1940  174.7310  134.5550 O   0  0  0  0  0  0  0  0  0  0  0  0
  190.6280  174.4790  136.3910 N   0  0  0  0  0  2  0  0  0  0  0  0
  191.8990  174.3650  135.6760 C   0  0  1  0  0  3  0  0  0  0  0  0
  193.2400  175.2930  137.4660 O   0  0  0  0  0  1  0  0  0  0  0  0
  192.9230  175.4130  136.1100 C   0  0  0  0  0  2  0  0  0  0  0  0
  193.3450  172.6560  134.8740 O   0  0  0  0  0  0  0  0  0  0  0  0
  192.4260  172.9540  135.6230 C   0  0  0  0  0  0  0  0  0  0  0  0
  191.8200  171.8940  136.4890 C   0  0  0  0  0  2  0  0  0  0  0  0
  192.2930  172.0280  137.9290 C   0  0  0  0  0  3  0  0  0  0  0  0
  193.6130  171.5990  138.0120 O   0  0  0  0  0  1  0  0  0  0  0  0
  191.4990  171.2380  138.7650 O   0  0  0  0  0  1  0  0  0  0  0  0
  188.9380  171.9370  142.4940 C   0  0  0  0  0  2  0  0  0  0  0  0
  190.2830  171.8870  143.1940 C   0  0  0  0  0  2  0  0  0  0  0  0
  191.3090  172.3030  142.3030 O   0  0  0  0  0  0  0  0  0  0  0  0
  192.7590  170.2790  143.0830 S   0  0  0  0  0  0  0  0  0  0  0  0
  192.5610  171.6900  142.2730 C   0  0  0  0  0  0  0  0  0  0  0  0
  193.6400  172.2910  141.5450 N   0  0  0  0  0  2  0  0  0  0  0  0
  193.5920  173.6180  140.9490 C   0  0  0  0  0  2  0  0  0  0  0  0
  192.2130  175.4570  141.9190 C   0  0  0  0  0  3  0  0  0  0  0  0
  191.9560  176.4190  142.8940 C   0  0  0  0  0  3  0  0  0  0  0  0
  193.9970  175.7820  144.0590 C   0  0  0  0  0  0  0  0  0  0  0  0
  193.3550  174.6580  141.9990 C   0  0  0  0  0  0  0  0  0  0  0  0
  194.2820  176.2270  146.4860 C   0  0  0  0  0  1  0  0  0  0  0  0
  195.4120  174.0460  143.1190 O   0  0  0  0  0  0  0  0  0  0  0  0
  195.5310  173.5720  145.4870 C   0  0  0  0  0  2  0  0  0  0  0  0
  194.2570  174.8280  143.0650 C   0  0  0  0  0  0  0  0  0  0  0  0
  195.0010  176.0580  145.1540 C   0  0  2  0  0  0  0  0  0  0  0  0
  192.8480  176.5840  143.9550 C   0  0  0  0  0  3  0  0  0  0  0  0
  196.3030  173.9550  144.2330 C   0  0  2  0  0  3  0  0  0  0  0  0
  195.6420  177.2620  144.8590 O   0  0  0  0  0  1  0  0  0  0  0  0
  196.0910  174.9830  145.3480 C   0  0  2  0  0  3  0  0  0  0  0  0
  187.3740  176.8960  144.5860 N   0  0  0  0  0  0  0  0  0  0  0  0
  186.5220  179.1110  145.2090 C   0  0  0  0  0  3  0  0  0  0  0  0
  184.4190  179.9270  144.3560 C   0  0  0  0  0  3  0  0  0  0  0  0
  185.2350  177.7450  143.6680 C   0  0  0  0  0  0  0  0  0  0  0  0
  184.2490  178.7590  143.5960 C   0  0  0  0  0  0  0  0  0  0  0  0
  185.0880  176.5670  142.9390 O   0  0  0  0  0  1  0  0  0  0  0  0
  185.5480  180.1020  145.1530 C   0  0  0  0  0  3  0  0  0  0  0  0
  186.3760  177.9260  144.4760 C   0  0  0  0  0  0  0  0  0  0  0  0
  182.0240  178.1470  140.5750 C   0  0  0  0  0  3  0  0  0  0  0  0
  183.0470  178.6430  142.7270 C   0  0  0  0  0  0  0  0  0  0  0  0
  181.7860  179.0250  143.2120 C   0  0  0  0  0  3  0  0  0  0  0  0
  180.6560  178.9630  142.3920 C   0  0  0  0  0  3  0  0  0  0  0  0
  183.1520  178.2030  141.3970 C   0  0  0  0  0  3  0  0  0  0  0  0
  180.7740  178.5250  141.0690 C   0  0  0  0  0  0  0  0  0  0  0  0
  179.1360  179.2660  139.1050 C   0  0  0  0  0  2  0  0  0  0  0  0
  179.6270  178.4870  140.2200 N   0  0  0  0  0  0  0  0  0  0  0  0
  177.9700  178.4490  138.9390 C   0  0  0  0  0  2  0  0  0  0  0  0
  178.4410  177.6160  140.0850 C   0  0  0  0  0  0  0  0  0  0  0  0
  178.0090  176.6000  140.6870 O   0  0  0  0  0  0  0  0  0  0  0  0
  187.2360  175.8730  145.5410 N   0  0  0  0  0  2  0  0  0  0  0  0
  188.1780  176.1310  146.6210 C   0  0  0  0  0  2  0  0  0  0  0  0
  190.4040  174.7200  146.1880 C   0  0  0  0  0  0  0  0  0  0  0  0
  189.4020  175.3590  146.3840 C   0  0  0  0  0  0  0  0  0  0  0  0
  191.6190  173.9370  145.9580 C   0  0  0  0  0  1  0  0  0  0  0  0
  1  8  2  0  0  0  0
  1  6  1  0  0  0  0
  2  1  1  0  0  0  0
  3 12  2  0  0  0  0
  4 11  2  0  0  0  0
  5  4  1  0  0  0  0
  6 47  1  1  0  0  0
  7 10  2  0  0  0  0
  7  3  1  0  0  0  0
  9  6  1  0  0  0  0
 10  5  1  0  0  0  0
 11 27  1  0  0  0  0
 11  8  1  0  0  0  0
 12  4  1  0  0  0  0
 12  2  1  0  0  0  0
 13  2  1  0  0  0  0
 13  9  2  0  0  0  0
 14 17  1  0  0  0  0
 14 15  1  0  0  0  0
 15  7  1  0  0  0  0
 16 14  2  0  0  0  0
 18 20  1  1  0  0  0
 18 17  1  0  0  0  0
 20 19  1  0  0  0  0
 21 22  2  0  0  0  0
 22 18  1  0  0  0  0
 22 23  1  0  0  0  0
 23 24  1  0  0  0  0
 24 25  1  0  0  0  0
 24 26  1  0  0  0  0
 27 28  1  0  0  0  0
 29 28  1  0  0  0  0
 31 29  1  0  0  0  0
 31 30  2  0  0  0  0
 32 31  1  0  0  0  0
 33 32  1  0  0  0  0
 33 37  1  0  0  0  0
 34 37  2  0  0  0  0
 34 35  1  0  0  0  0
 35 43  2  0  0  0  0
 36 42  1  0  0  0  0
 37 41  1  0  0  0  0
 39 44  1  0  0  0  0
 41 39  1  0  0  0  0
 41 36  2  0  0  0  0
 42 46  1  0  0  0  0
 42 38  1  1  0  0  0
 43 36  1  0  0  0  0
 44 46  1  0  0  0  0
 44 40  1  1  0  0  0
 45 42  1  0  0  0  0
 46 40  1  1  0  0  0
 47 66  1  0  0  0  0
 49 53  2  0  0  0  0
 50 54  1  0  0  0  0
 51 50  2  0  0  0  0
 51 49  1  0  0  0  0
 52 50  1  0  0  0  0
 53 48  1  0  0  0  0
 54 47  1  0  0  0  0
 54 48  2  0  0  0  0
 55 60  2  0  0  0  0
 55 59  1  0  0  0  0
 56 57  1  0  0  0  0
 56 51  1  0  0  0  0
 58 57  2  0  0  0  0
 59 56  2  0  0  0  0
 60 58  1  0  0  0  0
 61 62  1  0  0  0  0
 62 60  1  0  0  0  0
 63 61  1  0  0  0  0
 63 64  1  0  0  0  0
 64 62  1  0  0  0  0
 64 65  2  0  0  0  0
 66 67  1  0  0  0  0
 68 69  3  0  0  0  0
 69 67  1  0  0  0  0
 70 68  1  0  0  0  0
M  END
>  <MODEL>
2

>  <REMARK>
 VINA RESULT:      -6.8      1.711      2.562
  Name = 
  20 active torsions:
  status: ('A' for Active; 'I' for Inactive)
    1  A    between atoms: O_7  and  C_47
    2  A    between atoms: O_7  and  C_62
    3  A    between atoms: N_8  and  C_39
    4  A    between atoms: N_8  and  N_53
    5  A    between atoms: N_12  and  C_69
    6  A    between atoms: C_13  and  C_15
    7  A    between atoms: C_13  and  C_27
    8  A    between atoms: C_18  and  C_44
    9  A    between atoms: C_19  and  C_67
   10  A    between atoms: C_20  and  CA_60
   11  A    between atoms: C_25  and  C_47
   12  A    between atoms: C_25  and  C_52
   13  A    between atoms: C_27  and  CA_60
   14  A    between atoms: C_29  and  N_53
   15  A    between atoms: C_30  and  C_39
   16  A    between atoms: N_32  and  C_40
   17  A    between atoms: N_38  and  C_62
   18  A    between atoms: N_38  and  C_67
   19  A    between atoms: N_50  and  CA_60
   20  A    between atoms: N_53  and  C_58
                            x       y       z     vdW  Elec       q    Type
                         _______ _______ _______ _____ _____    ______ ____

>  <TORSDO>
F 20

$$$$
=
 OpenBabel11042418313D

 70 78  0  0  1  0  0  0  0  0999 V2000
  188.6930  175.4850  142.8270 C   0  0  0  0  0  0  0  0  0  0  0  0
  188.3770  175.5990  141.4580 N   0  0  0  0  0  0  0  0  0  0  0  0
  188.4040  174.6180  139.2500 C   0  0  0  0  0  3  0  0  0  0  0  0
  189.0140  173.2040  141.1540 C   0  0  0  0  0  0  0  0  0  0  0  0
  189.1110  171.9840  140.2740 C   0  0  0  0  0  2  0  0  0  0  0  0
  188.6290  176.7830  143.5380 C   0  0  1  0  0  3  0  0  0  0  0  0
  188.7130  173.5030  138.3310 C   0  0  0  0  0  0  0  0  0  0  0  0
  189.1580  174.3420  143.3360 C   0  0  0  0  0  3  0  0  0  0  0  0
  188.3900  177.7880  142.3970 C   0  0  0  0  0  3  0  0  0  0  0  0
  189.0980  172.3160  138.8080 C   0  0  0  0  0  3  0  0  0  0  0  0
  189.2940  173.1410  142.4750 C   0  0  0  0  0  0  0  0  0  0  0  0
  188.5490  174.4880  140.5710 C   0  0  0  0  0  0  0  0  0  0  0  0
  188.1290  176.9840  141.1070 C   0  0  0  0  0  3  0  0  0  0  0  0
  189.9200  173.9830  136.1450 C   0  0  0  0  0  0  0  0  0  0  0  0
  188.7440  173.7080  136.9150 N   0  0  0  0  0  2  0  0  0  0  0  0
  189.8690  173.8700  134.8920 O   0  0  0  0  0  0  0  0  0  0  0  0
  191.1140  174.4540  136.7900 N   0  0  0  0  0  2  0  0  0  0  0  0
  192.3850  174.7740  136.1420 C   0  0  1  0  0  3  0  0  0  0  0  0
  191.7380  176.8760  135.1290 O   0  0  0  0  0  1  0  0  0  0  0  0
  192.6310  176.2780  136.0220 C   0  0  0  0  0  2  0  0  0  0  0  0
  193.4600  172.7810  136.8670 O   0  0  0  0  0  0  0  0  0  0  0  0
  193.5470  173.9880  136.6930 C   0  0  0  0  0  0  0  0  0  0  0  0
  194.8250  174.6830  137.0410 C   0  0  0  0  0  2  0  0  0  0  0  0
  195.9340  174.3090  136.0690 C   0  0  0  0  0  3  0  0  0  0  0  0
  197.0180  173.8160  136.7890 O   0  0  0  0  0  1  0  0  0  0  0  0
  196.3350  175.4370  135.3480 O   0  0  0  0  0  1  0  0  0  0  0  0
  189.8170  171.8830  143.0950 C   0  0  0  0  0  2  0  0  0  0  0  0
  191.3060  171.7280  142.8500 C   0  0  0  0  0  2  0  0  0  0  0  0
  191.5860  170.4110  142.3910 O   0  0  0  0  0  0  0  0  0  0  0  0
  192.8720  169.0310  140.5890 S   0  0  0  0  0  0  0  0  0  0  0  0
  192.8290  170.0560  141.8660 C   0  0  0  0  0  0  0  0  0  0  0  0
  194.0300  170.5840  142.4410 N   0  0  0  0  0  2  0  0  0  0  0  0
  194.9920  171.4100  141.7250 C   0  0  0  0  0  2  0  0  0  0  0  0
  194.1180  173.4420  140.5700 C   0  0  0  0  0  3  0  0  0  0  0  0
  193.7000  174.7710  140.5670 C   0  0  0  0  0  3  0  0  0  0  0  0
  194.1830  174.9270  142.9480 C   0  0  0  0  0  0  0  0  0  0  0  0
  194.5720  172.8460  141.7490 C   0  0  0  0  0  0  0  0  0  0  0  0
  193.0690  176.6280  144.3750 C   0  0  0  0  0  1  0  0  0  0  0  0
  195.1030  173.0000  144.1060 O   0  0  0  0  0  0  0  0  0  0  0  0
  193.5670  173.8920  145.7460 C   0  0  0  0  0  2  0  0  0  0  0  0
  194.6170  173.5930  142.9400 C   0  0  0  0  0  0  0  0  0  0  0  0
  194.3210  175.7820  144.1860 C   0  0  2  0  0  0  0  0  0  0  0  0
  193.7400  175.5110  141.7490 C   0  0  0  0  0  3  0  0  0  0  0  0
  195.0140  173.5540  145.4200 C   0  0  2  0  0  3  0  0  0  0  0  0
  195.3970  176.6500  143.9950 O   0  0  0  0  0  1  0  0  0  0  0  0
  194.5670  175.0160  145.5030 C   0  0  2  0  0  3  0  0  0  0  0  0
  187.5220  176.8010  144.4980 N   0  0  0  0  0  0  0  0  0  0  0  0
  186.6470  178.9950  145.1620 C   0  0  0  0  0  3  0  0  0  0  0  0
  184.5480  179.8150  144.3010 C   0  0  0  0  0  3  0  0  0  0  0  0
  185.3880  177.6560  143.5740 C   0  0  0  0  0  0  0  0  0  0  0  0
  184.3960  178.6640  143.5130 C   0  0  0  0  0  0  0  0  0  0  0  0
  185.2590  176.4940  142.8170 O   0  0  0  0  0  1  0  0  0  0  0  0
  185.6660  179.9810  145.1160 C   0  0  0  0  0  3  0  0  0  0  0  0
  186.5180  177.8260  144.4000 C   0  0  0  0  0  0  0  0  0  0  0  0
  182.2080  178.0640  140.4620 C   0  0  0  0  0  3  0  0  0  0  0  0
  183.2050  178.5600  142.6270 C   0  0  0  0  0  0  0  0  0  0  0  0
  181.9430  178.9630  143.0910 C   0  0  0  0  0  3  0  0  0  0  0  0
  180.8250  178.9110  142.2540 C   0  0  0  0  0  3  0  0  0  0  0  0
  183.3240  178.1100  141.3010 C   0  0  0  0  0  3  0  0  0  0  0  0
  180.9570  178.4630  140.9360 C   0  0  0  0  0  0  0  0  0  0  0  0
  179.1700  177.4440  139.2440 C   0  0  0  0  0  2  0  0  0  0  0  0
  179.8220  178.4360  140.0700 N   0  0  0  0  0  0  0  0  0  0  0  0
  178.1490  178.3520  138.8110 C   0  0  0  0  0  2  0  0  0  0  0  0
  178.7880  179.4070  139.6520 C   0  0  0  0  0  0  0  0  0  0  0  0
  178.5500  180.6160  139.9020 O   0  0  0  0  0  0  0  0  0  0  0  0
  187.3820  175.7570  145.4310 N   0  0  0  0  0  2  0  0  0  0  0  0
  187.5840  176.3080  146.7630 C   0  0  0  0  0  2  0  0  0  0  0  0
  190.1940  176.2880  147.3310 C   0  0  0  0  0  0  0  0  0  0  0  0
  189.0170  176.2980  147.0720 C   0  0  0  0  0  0  0  0  0  0  0  0
  191.6220  176.2810  147.6540 C   0  0  0  0  0  1  0  0  0  0  0  0
  1  8  2  0  0  0  0
  1  6  1  0  0  0  0
  2  1  1  0  0  0  0
  3 12  2  0  0  0  0
  4 11  2  0  0  0  0
  5  4  1  0  0  0  0
  6 47  1  1  0  0  0
  7 10  2  0  0  0  0
  7  3  1  0  0  0  0
  9  6  1  0  0  0  0
 10  5  1  0  0  0  0
 11 27  1  0  0  0  0
 11  8  1  0  0  0  0
 12  4  1  0  0  0  0
 12  2  1  0  0  0  0
 13  2  1  0  0  0  0
 13  9  2  0  0  0  0
 14 17  1  0  0  0  0
 14 15  1  0  0  0  0
 15  7  1  0  0  0  0
 16 14  2  0  0  0  0
 18 20  1  1  0  0  0
 18 22  1  0  0  0  0
 18 17  1  0  0  0  0
 19 20  1  0  0  0  0
 22 21  2  0  0  0  0
 22 23  1  0  0  0  0
 24 25  1  0  0  0  0
 24 23  1  0  0  0  0
 26 24  1  0  0  0  0
 28 27  1  0  0  0  0
 29 28  1  0  0  0  0
 30 31  2  0  0  0  0
 31 29  1  0  0  0  0
 31 32  1  0  0  0  0
 33 37  1  0  0  0  0
 33 32  1  0  0  0  0
 34 37  1  0  0  0  0
 35 34  2  0  0  0  0
 35 43  1  0  0  0  0
 36 42  1  0  0  0  0
 37 41  2  0  0  0  0
 39 44  1  0  0  0  0
 41 36  1  0  0  0  0
 41 39  1  0  0  0  0
 42 38  1  1  0  0  0
 42 46  1  0  0  0  0
 43 36  2  0  0  0  0
 44 46  1  0  0  0  0
 44 40  1  1  0  0  0
 45 42  1  0  0  0  0
 46 40  1  1  0  0  0
 47 66  1  0  0  0  0
 49 53  2  0  0  0  0
 50 54  1  0  0  0  0
 51 50  2  0  0  0  0
 51 49  1  0  0  0  0
 52 50  1  0  0  0  0
 53 48  1  0  0  0  0
 54 47  1  0  0  0  0
 54 48  2  0  0  0  0
 55 60  2  0  0  0  0
 55 59  1  0  0  0  0
 56 57  1  0  0  0  0
 56 51  1  0  0  0  0
 58 57  2  0  0  0  0
 59 56  2  0  0  0  0
 60 58  1  0  0  0  0
 61 62  1  0  0  0  0
 62 60  1  0  0  0  0
 63 61  1  0  0  0  0
 63 64  1  0  0  0  0
 64 65  2  0  0  0  0
 64 62  1  0  0  0  0
 66 67  1  0  0  0  0
 67 69  1  0  0  0  0
 68 70  1  0  0  0  0
 69 68  3  0  0  0  0
M  END
>  <MODEL>
3

>  <REMARK>
 VINA RESULT:      -6.8      1.262      1.988
  Name = 
  20 active torsions:
  status: ('A' for Active; 'I' for Inactive)
    1  A    between atoms: O_7  and  C_47
    2  A    between atoms: O_7  and  C_62
    3  A    between atoms: N_8  and  C_39
    4  A    between atoms: N_8  and  N_53
    5  A    between atoms: N_12  and  C_69
    6  A    between atoms: C_13  and  C_15
    7  A    between atoms: C_13  and  C_27
    8  A    between atoms: C_18  and  C_44
    9  A    between atoms: C_19  and  C_67
   10  A    between atoms: C_20  and  CA_60
   11  A    between atoms: C_25  and  C_47
   12  A    between atoms: C_25  and  C_52
   13  A    between atoms: C_27  and  CA_60
   14  A    between atoms: C_29  and  N_53
   15  A    between atoms: C_30  and  C_39
   16  A    between atoms: N_32  and  C_40
   17  A    between atoms: N_38  and  C_62
   18  A    between atoms: N_38  and  C_67
   19  A    between atoms: N_50  and  CA_60
   20  A    between atoms: N_53  and  C_58
                            x       y       z     vdW  Elec       q    Type
                         _______ _______ _______ _____ _____    ______ ____

>  <TORSDO>
F 20

$$$$
=
 OpenBabel11042418313D

 70 78  0  0  1  0  0  0  0  0999 V2000
  188.4660  175.6600  142.7360 C   0  0  0  0  0  0  0  0  0  0  0  0
  188.1290  175.9620  141.4010 N   0  0  0  0  0  0  0  0  0  0  0  0
  188.0060  175.2480  139.0970 C   0  0  0  0  0  3  0  0  0  0  0  0
  188.5250  173.5700  140.8040 C   0  0  0  0  0  0  0  0  0  0  0  0
  188.4830  172.4580  139.7880 C   0  0  0  0  0  2  0  0  0  0  0  0
  188.5440  176.8670  143.5930 C   0  0  1  0  0  3  0  0  0  0  0  0
  188.1840  174.2240  138.0460 C   0  0  0  0  0  0  0  0  0  0  0  0
  188.8310  174.4280  143.0950 C   0  0  0  0  0  3  0  0  0  0  0  0
  188.3750  178.0150  142.5830 C   0  0  0  0  0  3  0  0  0  0  0  0
  188.4650  172.9590  138.3700 C   0  0  0  0  0  3  0  0  0  0  0  0
  188.8310  173.3280  142.0990 C   0  0  0  0  0  0  0  0  0  0  0  0
  188.1710  174.9510  140.3880 C   0  0  0  0  0  0  0  0  0  0  0  0
  188.0060  177.3960  141.2200 C   0  0  0  0  0  3  0  0  0  0  0  0
  189.3150  174.4300  135.7780 C   0  0  0  0  0  0  0  0  0  0  0  0
  188.2000  174.5890  136.6620 N   0  0  0  0  0  2  0  0  0  0  0  0
  189.1270  174.5260  134.5360 O   0  0  0  0  0  0  0  0  0  0  0  0
  190.6370  174.2420  136.3070 N   0  0  0  0  0  2  0  0  0  0  0  0
  191.8660  174.0640  135.5340 C   0  0  1  0  0  3  0  0  0  0  0  0
  192.9690  175.5720  137.0750 O   0  0  0  0  0  1  0  0  0  0  0  0
  192.8630  175.2060  135.7310 C   0  0  0  0  0  2  0  0  0  0  0  0
  193.3070  172.4430  136.5100 O   0  0  0  0  0  0  0  0  0  0  0  0
  192.4560  172.6830  135.6650 C   0  0  0  0  0  0  0  0  0  0  0  0
  192.0070  171.5870  134.7520 C   0  0  0  0  0  2  0  0  0  0  0  0
  191.2490  170.5130  135.5180 C   0  0  0  0  0  3  0  0  0  0  0  0
  191.3030  169.3230  134.8000 O   0  0  0  0  0  1  0  0  0  0  0  0
  189.9130  170.8950  135.6760 O   0  0  0  0  0  1  0  0  0  0  0  0
  189.2460  171.9630  142.5520 C   0  0  0  0  0  2  0  0  0  0  0  0
  190.7030  171.6970  142.2280 C   0  0  0  0  0  2  0  0  0  0  0  0
  190.8340  170.4340  141.5880 O   0  0  0  0  0  0  0  0  0  0  0  0
  192.4930  169.2030  139.9940 S   0  0  0  0  0  0  0  0  0  0  0  0
  192.0640  169.7870  141.4630 C   0  0  0  0  0  0  0  0  0  0  0  0
  192.9210  169.6470  142.6030 N   0  0  0  0  0  2  0  0  0  0  0  0
  194.2680  170.1920  142.6930 C   0  0  0  0  0  2  0  0  0  0  0  0
  194.1660  171.3780  144.8850 C   0  0  0  0  0  3  0  0  0  0  0  0
  194.1890  172.5360  145.6590 C   0  0  0  0  0  3  0  0  0  0  0  0
  194.4320  173.8780  143.6420 C   0  0  0  0  0  0  0  0  0  0  0  0
  194.2720  171.4550  143.4950 C   0  0  0  0  0  0  0  0  0  0  0  0
  195.4270  176.1530  143.7260 C   0  0  0  0  0  1  0  0  0  0  0  0
  194.4650  172.7780  141.4770 O   0  0  0  0  0  0  0  0  0  0  0  0
  196.1280  174.5100  141.1920 C   0  0  0  0  0  2  0  0  0  0  0  0
  194.3920  172.7090  142.8690 C   0  0  0  0  0  0  0  0  0  0  0  0
  194.4540  175.2410  142.9910 C   0  0  2  0  0  0  0  0  0  0  0  0
  194.3140  173.7800  145.0390 C   0  0  0  0  0  3  0  0  0  0  0  0
  194.7980  173.9430  140.7190 C   0  0  2  0  0  3  0  0  0  0  0  0
  193.1780  175.7970  143.1080 O   0  0  0  0  0  1  0  0  0  0  0  0
  194.8370  175.2620  141.4960 C   0  0  2  0  0  3  0  0  0  0  0  0
  187.4680  176.8740  144.5880 N   0  0  0  0  0  0  0  0  0  0  0  0
  186.5400  179.0260  145.3140 C   0  0  0  0  0  3  0  0  0  0  0  0
  184.4330  179.8300  144.4590 C   0  0  0  0  0  3  0  0  0  0  0  0
  185.3260  177.7150  143.6700 C   0  0  0  0  0  0  0  0  0  0  0  0
  184.3130  178.7030  143.6310 C   0  0  0  0  0  0  0  0  0  0  0  0
  185.2290  176.5750  142.8730 O   0  0  0  0  0  1  0  0  0  0  0  0
  185.5390  179.9920  145.2910 C   0  0  0  0  0  3  0  0  0  0  0  0
  186.4440  177.8810  144.5130 C   0  0  0  0  0  0  0  0  0  0  0  0
  182.1500  178.0330  140.5780 C   0  0  0  0  0  3  0  0  0  0  0  0
  183.1340  178.6040  142.7300 C   0  0  0  0  0  0  0  0  0  0  0  0
  181.8840  179.0890  143.1460 C   0  0  0  0  0  3  0  0  0  0  0  0
  180.7790  179.0420  142.2920 C   0  0  0  0  0  3  0  0  0  0  0  0
  183.2530  178.0750  141.4340 C   0  0  0  0  0  3  0  0  0  0  0  0
  180.9110  178.5140  141.0040 C   0  0  0  0  0  0  0  0  0  0  0  0
  179.1780  177.5130  139.2470 C   0  0  0  0  0  2  0  0  0  0  0  0
  179.7910  178.4900  140.1190 N   0  0  0  0  0  0  0  0  0  0  0  0
  178.1410  178.4100  138.8310 C   0  0  0  0  0  2  0  0  0  0  0  0
  178.7390  179.4490  139.7200 C   0  0  0  0  0  0  0  0  0  0  0  0
  178.4660  180.6420  140.0090 O   0  0  0  0  0  0  0  0  0  0  0  0
  187.3760  175.8360  145.5330 N   0  0  0  0  0  2  0  0  0  0  0  0
  187.8770  176.3350  146.8060 C   0  0  0  0  0  2  0  0  0  0  0  0
  190.4410  175.6350  147.0630 C   0  0  0  0  0  0  0  0  0  0  0  0
  189.2850  175.9540  146.9480 C   0  0  0  0  0  0  0  0  0  0  0  0
  191.8430  175.2390  147.2090 C   0  0  0  0  0  1  0  0  0  0  0  0
  1  8  2  0  0  0  0
  1  6  1  0  0  0  0
  2  1  1  0  0  0  0
  3 12  2  0  0  0  0
  4 11  2  0  0  0  0
  5  4  1  0  0  0  0
  6 47  1  1  0  0  0
  7 10  2  0  0  0  0
  7  3  1  0  0  0  0
  9  6  1  0  0  0  0
 10  5  1  0  0  0  0
 11 27  1  0  0  0  0
 11  8  1  0  0  0  0
 12  4  1  0  0  0  0
 12  2  1  0  0  0  0
 13  2  1  0  0  0  0
 13  9  2  0  0  0  0
 14 17  1  0  0  0  0
 14 15  1  0  0  0  0
 15  7  1  0  0  0  0
 16 14  2  0  0  0  0
 18 22  1  0  0  0  0
 18 20  1  1  0  0  0
 18 17  1  0  0  0  0
 20 19  1  0  0  0  0
 22 21  2  0  0  0  0
 23 24  1  0  0  0  0
 23 22  1  0  0  0  0
 24 26  1  0  0  0  0
 25 24  1  0  0  0  0
 28 27  1  0  0  0  0
 29 28  1  0  0  0  0
 30 31  2  0  0  0  0
 31 29  1  0  0  0  0
 31 32  1  0  0  0  0
 32 33  1  0  0  0  0
 33 37  1  0  0  0  0
 34 35  1  0  0  0  0
 36 43  1  0  0  0  0
 37 34  2  0  0  0  0
 39 41  1  0  0  0  0
 41 37  1  0  0  0  0
 41 36  2  0  0  0  0
 42 45  1  0  0  0  0
 42 36  1  0  0  0  0
 42 38  1  1  0  0  0
 43 35  2  0  0  0  0
 44 40  1  1  0  0  0
 44 39  1  0  0  0  0
 44 46  1  0  0  0  0
 46 40  1  1  0  0  0
 46 42  1  0  0  0  0
 47 66  1  0  0  0  0
 49 53  2  0  0  0  0
 50 54  1  0  0  0  0
 51 50  2  0  0  0  0
 51 49  1  0  0  0  0
 52 50  1  0  0  0  0
 53 48  1  0  0  0  0
 54 47  1  0  0  0  0
 54 48  2  0  0  0  0
 55 60  2  0  0  0  0
 55 59  1  0  0  0  0
 56 57  1  0  0  0  0
 56 51  1  0  0  0  0
 58 57  2  0  0  0  0
 59 56  2  0  0  0  0
 60 58  1  0  0  0  0
 61 62  1  0  0  0  0
 62 60  1  0  0  0  0
 63 61  1  0  0  0  0
 63 64  1  0  0  0  0
 64 65  2  0  0  0  0
 64 62  1  0  0  0  0
 66 67  1  0  0  0  0
 67 69  1  0  0  0  0
 68 70  1  0  0  0  0
 69 68  3  0  0  0  0
M  END
>  <MODEL>
4

>  <REMARK>
 VINA RESULT:      -6.6      1.540      2.460
  Name = 
  20 active torsions:
  status: ('A' for Active; 'I' for Inactive)
    1  A    between atoms: O_7  and  C_47
    2  A    between atoms: O_7  and  C_62
    3  A    between atoms: N_8  and  C_39
    4  A    between atoms: N_8  and  N_53
    5  A    between atoms: N_12  and  C_69
    6  A    between atoms: C_13  and  C_15
    7  A    between atoms: C_13  and  C_27
    8  A    between atoms: C_18  and  C_44
    9  A    between atoms: C_19  and  C_67
   10  A    between atoms: C_20  and  CA_60
   11  A    between atoms: C_25  and  C_47
   12  A    between atoms: C_25  and  C_52
   13  A    between atoms: C_27  and  CA_60
   14  A    between atoms: C_29  and  N_53
   15  A    between atoms: C_30  and  C_39
   16  A    between atoms: N_32  and  C_40
   17  A    between atoms: N_38  and  C_62
   18  A    between atoms: N_38  and  C_67
   19  A    between atoms: N_50  and  CA_60
   20  A    between atoms: N_53  and  C_58
                            x       y       z     vdW  Elec       q    Type
                         _______ _______ _______ _____ _____    ______ ____

>  <TORSDO>
F 20

$$$$
=
 OpenBabel11042418313D

 70 78  0  0  1  0  0  0  0  0999 V2000
  190.3860  175.9170  142.7390 C   0  0  0  0  0  0  0  0  0  0  0  0
  190.0740  174.5430  142.6850 N   0  0  0  0  0  0  0  0  0  0  0  0
  190.8440  172.2650  142.4620 C   0  0  0  0  0  3  0  0  0  0  0  0
  192.5160  174.0290  142.7690 C   0  0  0  0  0  0  0  0  0  0  0  0
  193.6310  173.0190  142.8550 C   0  0  0  0  0  3  0  0  0  0  0  0
  189.1950  176.7810  142.5590 C   0  0  1  0  0  3  0  0  0  0  0  0
  191.9290  171.2720  142.3130 C   0  0  0  0  0  0  0  0  0  0  0  0
  191.6520  176.3370  142.7790 C   0  0  0  0  0  3  0  0  0  0  0  0
  188.0890  175.7700  142.2100 C   0  0  0  0  0  3  0  0  0  0  0  0
  193.2080  171.6390  142.4320 C   0  0  0  0  0  3  0  0  0  0  0  0
  192.7640  175.3560  142.8290 C   0  0  0  0  0  0  0  0  0  0  0  0
  191.1110  173.5560  142.6690 C   0  0  1  0  0  3  0  0  0  0  0  0
  188.6640  174.3530  142.4070 C   0  0  0  0  0  3  0  0  0  0  0  0
  191.8030  169.4260  140.5690 C   0  0  0  0  0  0  0  0  0  0  0  0
  191.6440  169.9310  141.8990 N   0  0  0  0  0  2  0  0  0  0  0  0
  191.7880  168.1800  140.3840 O   0  0  0  0  0  0  0  0  0  0  0  0
  191.9000  170.3300  139.4570 N   0  0  0  0  0  2  0  0  0  0  0  0
  192.0650  169.9650  138.0510 C   0  0  1  0  0  3  0  0  0  0  0  0
  190.3460  169.3850  136.4480 O   0  0  0  0  0  1  0  0  0  0  0  0
  190.9070  170.4390  137.1730 C   0  0  0  0  0  2  0  0  0  0  0  0
  193.5740  171.0180  136.5440 O   0  0  0  0  0  0  0  0  0  0  0  0
  193.4360  170.2840  137.5120 C   0  0  0  0  0  0  0  0  0  0  0  0
  194.6500  169.6950  138.1570 C   0  0  0  0  0  2  0  0  0  0  0  0
  195.5070  170.7760  138.8000 C   0  0  0  0  0  3  0  0  0  0  0  0
  196.5230  171.1300  137.9190 O   0  0  0  0  0  1  0  0  0  0  0  0
  196.0720  170.2930  139.9840 O   0  0  0  0  0  1  0  0  0  0  0  0
  194.1660  175.8790  142.8750 C   0  0  0  0  0  2  0  0  0  0  0  0
  194.6980  176.1470  141.4800 C   0  0  0  0  0  2  0  0  0  0  0  0
  195.0680  174.9230  140.8590 O   0  0  0  0  0  0  0  0  0  0  0  0
  197.2980  175.7170  139.7600 S   0  0  0  0  0  0  0  0  0  0  0  0
  196.3960  174.6110  140.5650 C   0  0  0  0  0  0  0  0  0  0  0  0
  196.9430  173.3480  140.9660 N   0  0  0  0  0  2  0  0  0  0  0  0
  197.9410  173.1780  142.0120 C   0  0  0  0  0  2  0  0  0  0  0  0
  196.9030  174.0060  144.1240 C   0  0  0  0  0  3  0  0  0  0  0  0
  196.2690  173.7970  145.3470 C   0  0  0  0  0  3  0  0  0  0  0  0
  196.3790  171.3900  144.9910 C   0  0  0  0  0  0  0  0  0  0  0  0
  197.2830  172.9220  143.3300 C   0  0  0  0  0  0  0  0  0  0  0  0
  194.8000  169.8510  146.1350 C   0  0  0  0  0  1  0  0  0  0  0  0
  197.4430  170.5310  142.9850 O   0  0  0  0  0  0  0  0  0  0  0  0
  195.5610  169.0340  143.2430 C   0  0  0  0  0  2  0  0  0  0  0  0
  197.0310  171.6090  143.7690 C   0  0  0  0  0  0  0  0  0  0  0  0
  196.1920  169.9930  145.5350 C   0  0  2  0  0  0  0  0  0  0  0  0
  196.0140  172.4950  145.7810 C   0  0  0  0  0  3  0  0  0  0  0  0
  197.0770  169.1650  143.1910 C   0  0  2  0  0  3  0  0  0  0  0  0
  197.1200  169.8010  146.5610 O   0  0  0  0  0  1  0  0  0  0  0  0
  196.3780  168.8490  144.5170 C   0  0  2  0  0  3  0  0  0  0  0  0
  188.8810  177.5050  143.7940 N   0  0  0  0  0  0  0  0  0  0  0  0
  187.3480  176.8570  145.5970 C   0  0  0  0  0  3  0  0  0  0  0  0
  184.9680  177.1950  145.3960 C   0  0  0  0  0  3  0  0  0  0  0  0
  186.4420  177.8970  143.5990 C   0  0  0  0  0  0  0  0  0  0  0  0
  185.1370  177.7900  144.1360 C   0  0  0  0  0  0  0  0  0  0  0  0
  186.6420  178.4670  142.3430 O   0  0  0  0  0  1  0  0  0  0  0  0
  186.0650  176.7360  146.1220 C   0  0  0  0  0  3  0  0  0  0  0  0
  187.5500  177.4320  144.3350 C   0  0  0  0  0  0  0  0  0  0  0  0
  181.8220  179.5120  143.4300 C   0  0  0  0  0  3  0  0  0  0  0  0
  183.9350  178.3040  143.4250 C   0  0  0  0  0  0  0  0  0  0  0  0
  183.7190  177.9770  142.0770 C   0  0  0  0  0  3  0  0  0  0  0  0
  182.5720  178.4170  141.4110 C   0  0  0  0  0  3  0  0  0  0  0  0
  182.9720  179.0770  144.0940 C   0  0  0  0  0  3  0  0  0  0  0  0
  181.6190  179.1850  142.0890 C   0  0  0  0  0  0  0  0  0  0  0  0
  180.1300  180.4350  140.2690 C   0  0  0  0  0  2  0  0  0  0  0  0
  180.4330  179.6120  141.4190 N   0  0  0  0  0  0  0  0  0  0  0  0
  178.7160  180.2380  140.3950 C   0  0  0  0  0  2  0  0  0  0  0  0
  178.9830  179.3800  141.5870 C   0  0  0  0  0  0  0  0  0  0  0  0
  178.2730  178.7310  142.3980 O   0  0  0  0  0  0  0  0  0  0  0  0
  189.9010  178.1650  144.5020 N   0  0  0  0  0  2  0  0  0  0  0  0
  189.8530  177.7180  145.8870 C   0  0  0  0  0  2  0  0  0  0  0  0
  191.8900  176.0480  146.3320 C   0  0  0  0  0  0  0  0  0  0  0  0
  190.9690  176.7990  146.1320 C   0  0  0  0  0  0  0  0  0  0  0  0
  193.0120  175.1380  146.5650 C   0  0  0  0  0  1  0  0  0  0  0  0
  1  8  2  0  0  0  0
  2  1  1  0  0  0  0
  4 11  2  0  0  0  0
  4  5  1  0  0  0  0
  6  1  1  0  0  0  0
  6 47  1  1  0  0  0
  7 10  1  0  0  0  0
  7  3  2  0  0  0  0
  8 11  1  0  0  0  0
  9 13  2  0  0  0  0
  9  6  1  0  0  0  0
 10  5  2  0  0  0  0
 11 27  1  0  0  0  0
 12  3  1  6  0  0  0
 12  2  1  0  0  0  0
 12  4  1  0  0  0  0
 13  2  1  0  0  0  0
 14 15  1  0  0  0  0
 15  7  1  0  0  0  0
 16 14  2  0  0  0  0
 17 14  1  0  0  0  0
 18 20  1  6  0  0  0
 18 17  1  0  0  0  0
 19 20  1  0  0  0  0
 21 22  2  0  0  0  0
 22 18  1  0  0  0  0
 22 23  1  0  0  0  0
 23 24  1  0  0  0  0
 24 26  1  0  0  0  0
 25 24  1  0  0  0  0
 28 27  1  0  0  0  0
 29 28  1  0  0  0  0
 30 31  2  0  0  0  0
 31 29  1  0  0  0  0
 31 32  1  0  0  0  0
 32 33  1  0  0  0  0
 33 37  1  0  0  0  0
 34 35  1  0  0  0  0
 35 43  2  0  0  0  0
 36 42  1  0  0  0  0
 36 43  1  0  0  0  0
 37 41  1  0  0  0  0
 37 34  2  0  0  0  0
 39 44  1  0  0  0  0
 39 41  1  0  0  0  0
 41 36  2  0  0  0  0
 42 38  1  1  0  0  0
 42 45  1  0  0  0  0
 44 40  1  6  0  0  0
 44 46  1  0  0  0  0
 46 40  1  6  0  0  0
 46 42  1  0  0  0  0
 47 54  1  0  0  0  0
 47 66  1  0  0  0  0
 48 53  1  0  0  0  0
 49 53  2  0  0  0  0
 50 51  2  0  0  0  0
 50 54  1  0  0  0  0
 51 49  1  0  0  0  0
 52 50  1  0  0  0  0
 54 48  2  0  0  0  0
 55 59  1  0  0  0  0
 56 59  2  0  0  0  0
 56 51  1  0  0  0  0
 57 56  1  0  0  0  0
 58 57  2  0  0  0  0
 58 60  1  0  0  0  0
 60 55  2  0  0  0  0
 61 63  1  0  0  0  0
 61 62  1  0  0  0  0
 62 64  1  0  0  0  0
 62 60  1  0  0  0  0
 63 64  1  0  0  0  0
 64 65  2  0  0  0  0
 66 67  1  0  0  0  0
 67 69  1  0  0  0  0
 68 70  1  0  0  0  0
 69 68  3  0  0  0  0
M  END
>  <MODEL>
5

>  <REMARK>
 VINA RESULT:      -6.2      2.773      4.293
  Name = 
  20 active torsions:
  status: ('A' for Active; 'I' for Inactive)
    1  A    between atoms: O_7  and  C_47
    2  A    between atoms: O_7  and  C_62
    3  A    between atoms: N_8  and  C_39
    4  A    between atoms: N_8  and  N_53
    5  A    between atoms: N_12  and  C_69
    6  A    between atoms: C_13  and  C_15
    7  A    between atoms: C_13  and  C_27
    8  A    between atoms: C_18  and  C_44
    9  A    between atoms: C_19  and  C_67
   10  A    between atoms: C_20  and  CA_60
   11  A    between atoms: C_25  and  C_47
   12  A    between atoms: C_25  and  C_52
   13  A    between atoms: C_27  and  CA_60
   14  A    between atoms: C_29  and  N_53
   15  A    between atoms: C_30  and  C_39
   16  A    between atoms: N_32  and  C_40
   17  A    between atoms: N_38  and  C_62
   18  A    between atoms: N_38  and  C_67
   19  A    between atoms: N_50  and  CA_60
   20  A    between atoms: N_53  and  C_58
                            x       y       z     vdW  Elec       q    Type
                         _______ _______ _______ _____ _____    ______ ____

>  <TORSDO>
F 20

$$$$
=
 OpenBabel11042418313D

 70 78  0  0  1  0  0  0  0  0999 V2000
  189.2130  175.4540  142.3960 C   0  0  0  0  0  0  0  0  0  0  0  0
  188.8250  174.7170  141.2590 N   0  0  0  0  0  0  0  0  0  0  0  0
  189.2950  172.9260  139.7070 C   0  0  0  0  0  3  0  0  0  0  0  0
  190.6810  173.1110  141.7180 C   0  0  0  0  0  0  0  0  0  0  0  0
  191.4060  171.8310  141.3900 C   0  0  0  0  0  3  0  0  0  0  0  0
  188.4650  176.7250  142.5360 C   0  0  1  0  0  3  0  0  0  0  0  0
  190.1340  171.8020  139.2400 C   0  0  0  0  0  0  0  0  0  0  0  0
  190.2620  175.0850  143.1340 C   0  0  0  0  0  3  0  0  0  0  0  0
  187.6500  176.7880  141.2310 C   0  0  0  0  0  3  0  0  0  0  0  0
  191.1410  171.3480  139.9910 C   0  0  0  0  0  3  0  0  0  0  0  0
  191.0100  173.8460  142.8040 C   0  0  0  0  0  0  0  0  0  0  0  0
  189.5490  173.5470  140.8610 C   0  0  1  0  0  3  0  0  0  0  0  0
  187.8260  175.4430  140.4990 C   0  0  0  0  0  3  0  0  0  0  0  0
  190.9290  171.4100  136.8570 C   0  0  0  0  0  0  0  0  0  0  0  0
  189.9800  171.2720  137.9200 N   0  0  0  0  0  2  0  0  0  0  0  0
  190.8170  170.6770  135.8390 O   0  0  0  0  0  0  0  0  0  0  0  0
  191.9460  172.4220  136.9210 N   0  0  0  0  0  2  0  0  0  0  0  0
  192.9810  172.6820  135.9210 C   0  0  1  0  0  3  0  0  0  0  0  0
  191.7880  174.7290  135.4220 O   0  0  0  0  0  1  0  0  0  0  0  0
  193.0570  174.1530  135.5110 C   0  0  0  0  0  2  0  0  0  0  0  0
  195.3150  172.3370  135.6300 O   0  0  0  0  0  0  0  0  0  0  0  0
  194.3080  172.0530  136.2610 C   0  0  0  0  0  0  0  0  0  0  0  0
  194.4030  171.0630  137.3790 C   0  0  0  0  0  2  0  0  0  0  0  0
  194.2290  169.6410  136.8670 C   0  0  0  0  0  3  0  0  0  0  0  0
  193.6120  168.8790  137.8530 O   0  0  0  0  0  1  0  0  0  0  0  0
  195.4770  169.0860  136.5700 O   0  0  0  0  0  1  0  0  0  0  0  0
  192.1760  173.4750  143.6640 C   0  0  0  0  0  2  0  0  0  0  0  0
  192.9890  174.6970  144.0450 C   0  0  0  0  0  2  0  0  0  0  0  0
  193.3340  174.6390  145.4240 O   0  0  0  0  0  0  0  0  0  0  0  0
  194.5200  176.7990  146.2820 S   0  0  0  0  0  0  0  0  0  0  0  0
  194.5110  175.2010  145.9190 C   0  0  0  0  0  0  0  0  0  0  0  0
  195.6750  174.3860  146.1030 N   0  0  0  0  0  2  0  0  0  0  0  0
  196.7860  174.3130  145.1650 C   0  0  0  0  0  2  0  0  0  0  0  0
  196.0290  172.2390  144.0030 C   0  0  0  0  0  3  0  0  0  0  0  0
  195.6230  171.5450  142.8650 C   0  0  0  0  0  3  0  0  0  0  0  0
  195.9040  173.5650  141.5350 C   0  0  0  0  0  0  0  0  0  0  0  0
  196.3770  173.5890  143.9210 C   0  0  0  0  0  0  0  0  0  0  0  0
  194.6850  173.8690  139.3910 C   0  0  0  0  0  1  0  0  0  0  0  0
  196.7060  175.5920  142.6030 O   0  0  0  0  0  0  0  0  0  0  0  0
  195.0430  176.4500  141.0710 C   0  0  0  0  0  2  0  0  0  0  0  0
  196.3260  174.2520  142.6820 C   0  0  0  0  0  0  0  0  0  0  0  0
  195.9420  174.2220  140.1750 C   0  0  2  0  0  0  0  0  0  0  0  0
  195.5680  172.2040  141.6360 C   0  0  0  0  0  3  0  0  0  0  0  0
  196.5110  176.4480  141.4750 C   0  0  2  0  0  3  0  0  0  0  0  0
  197.0380  173.7100  139.4770 O   0  0  0  0  0  1  0  0  0  0  0  0
  196.0700  175.7600  140.1800 C   0  0  2  0  0  3  0  0  0  0  0  0
  187.5840  176.6890  143.7070 N   0  0  0  0  0  0  0  0  0  0  0  0
  186.7830  178.7360  144.7980 C   0  0  0  0  0  3  0  0  0  0  0  0
  184.6210  179.6660  144.2740 C   0  0  0  0  0  3  0  0  0  0  0  0
  185.3810  177.6640  143.1310 C   0  0  0  0  0  0  0  0  0  0  0  0
  184.3920  178.6580  143.3240 C   0  0  0  0  0  0  0  0  0  0  0  0
  185.1780  176.6400  142.2070 O   0  0  0  0  0  1  0  0  0  0  0  0
  185.8080  179.7060  145.0020 C   0  0  0  0  0  3  0  0  0  0  0  0
  186.5810  177.7070  143.8680 C   0  0  0  0  0  0  0  0  0  0  0  0
  180.7250  179.0690  142.4090 C   0  0  0  0  0  3  0  0  0  0  0  0
  183.1260  178.6900  142.5440 C   0  0  0  0  0  0  0  0  0  0  0  0
  183.1120  178.2670  141.2050 C   0  0  0  0  0  3  0  0  0  0  0  0
  181.9210  178.2510  140.4740 C   0  0  0  0  0  3  0  0  0  0  0  0
  181.9180  179.0900  143.1370 C   0  0  0  0  0  3  0  0  0  0  0  0
  180.7230  178.6510  141.0770 C   0  0  0  0  0  0  0  0  0  0  0  0
  178.7480  177.5930  139.6370 C   0  0  0  0  0  2  0  0  0  0  0  0
  179.5000  178.6080  140.3420 N   0  0  0  0  0  0  0  0  0  0  0  0
  177.6990  178.5020  139.2780 C   0  0  0  0  0  2  0  0  0  0  0  0
  178.4410  179.5790  139.9960 C   0  0  0  0  0  0  0  0  0  0  0  0
  178.2490  180.8030  140.2150 O   0  0  0  0  0  0  0  0  0  0  0  0
  187.6440  175.6030  144.6000 N   0  0  0  0  0  2  0  0  0  0  0  0
  187.5500  176.1240  145.9560 C   0  0  0  0  0  2  0  0  0  0  0  0
  189.9020  175.8010  147.1810 C   0  0  0  0  0  0  0  0  0  0  0  0
  188.8420  175.9480  146.6260 C   0  0  0  0  0  0  0  0  0  0  0  0
  191.1840  175.6250  147.8640 C   0  0  0  0  0  1  0  0  0  0  0  0
  1  6  1  0  0  0  0
  1  8  2  0  0  0  0
  2  1  1  0  0  0  0
  4 11  2  0  0  0  0
  5  4  1  0  0  0  0
  6 47  1  1  0  0  0
  7  3  2  0  0  0  0
  7 10  1  0  0  0  0
  9  6  1  0  0  0  0
 10  5  2  0  0  0  0
 11  8  1  0  0  0  0
 11 27  1  0  0  0  0
 12  3  1  6  0  0  0
 12  2  1  0  0  0  0
 12  4  1  0  0  0  0
 13  9  2  0  0  0  0
 13  2  1  0  0  0  0
 14 17  1  0  0  0  0
 14 15  1  0  0  0  0
 15  7  1  0  0  0  0
 16 14  2  0  0  0  0
 18 20  1  1  0  0  0
 18 22  1  0  0  0  0
 18 17  1  0  0  0  0
 19 20  1  0  0  0  0
 21 22  2  0  0  0  0
 22 23  1  0  0  0  0
 24 23  1  0  0  0  0
 24 25  1  0  0  0  0
 26 24  1  0  0  0  0
 27 28  1  0  0  0  0
 28 29  1  0  0  0  0
 29 31  1  0  0  0  0
 31 32  1  0  0  0  0
 31 30  2  0  0  0  0
 33 32  1  0  0  0  0
 35 34  2  0  0  0  0
 36 43  2  0  0  0  0
 36 41  1  0  0  0  0
 37 34  1  0  0  0  0
 37 33  1  0  0  0  0
 39 41  1  0  0  0  0
 41 37  2  0  0  0  0
 42 38  1  6  0  0  0
 42 46  1  0  0  0  0
 42 36  1  0  0  0  0
 43 35  1  0  0  0  0
 44 40  1  1  0  0  0
 44 39  1  0  0  0  0
 45 42  1  0  0  0  0
 46 40  1  1  0  0  0
 46 44  1  0  0  0  0
 47 54  1  0  0  0  0
 47 66  1  0  0  0  0
 48 53  1  0  0  0  0
 49 53  2  0  0  0  0
 50 51  2  0  0  0  0
 50 54  1  0  0  0  0
 51 49  1  0  0  0  0
 52 50  1  0  0  0  0
 54 48  2  0  0  0  0
 55 59  1  0  0  0  0
 56 59  2  0  0  0  0
 56 51  1  0  0  0  0
 57 56  1  0  0  0  0
 58 60  1  0  0  0  0
 58 57  2  0  0  0  0
 60 55  2  0  0  0  0
 61 62  1  0  0  0  0
 62 60  1  0  0  0  0
 63 61  1  0  0  0  0
 63 64  1  0  0  0  0
 64 65  2  0  0  0  0
 64 62  1  0  0  0  0
 66 67  1  0  0  0  0
 67 69  1  0  0  0  0
 68 70  1  0  0  0  0
 69 68  3  0  0  0  0
M  END
>  <MODEL>
6

>  <REMARK>
 VINA RESULT:      -6.0      1.885      2.687
  Name = 
  20 active torsions:
  status: ('A' for Active; 'I' for Inactive)
    1  A    between atoms: O_7  and  C_47
    2  A    between atoms: O_7  and  C_62
    3  A    between atoms: N_8  and  C_39
    4  A    between atoms: N_8  and  N_53
    5  A    between atoms: N_12  and  C_69
    6  A    between atoms: C_13  and  C_15
    7  A    between atoms: C_13  and  C_27
    8  A    between atoms: C_18  and  C_44
    9  A    between atoms: C_19  and  C_67
   10  A    between atoms: C_20  and  CA_60
   11  A    between atoms: C_25  and  C_47
   12  A    between atoms: C_25  and  C_52
   13  A    between atoms: C_27  and  CA_60
   14  A    between atoms: C_29  and  N_53
   15  A    between atoms: C_30  and  C_39
   16  A    between atoms: N_32  and  C_40
   17  A    between atoms: N_38  and  C_62
   18  A    between atoms: N_38  and  C_67
   19  A    between atoms: N_50  and  CA_60
   20  A    between atoms: N_53  and  C_58
                            x       y       z     vdW  Elec       q    Type
                         _______ _______ _______ _____ _____    ______ ____

>  <TORSDO>
F 20

$$$$
=
 OpenBabel11042418313D

 70 78  0  0  1  0  0  0  0  0999 V2000
  189.2600  175.1550  142.9330 C   0  0  0  0  0  0  0  0  0  0  0  0
  188.7000  175.6910  141.7560 N   0  0  0  0  0  0  0  0  0  0  0  0
  188.1090  175.3870  139.4340 C   0  0  0  0  0  3  0  0  0  0  0  0
  188.8320  173.4270  140.7120 C   0  0  0  0  0  0  0  0  0  0  0  0
  188.5340  172.5070  139.5560 C   0  0  0  0  0  2  0  0  0  0  0  0
  189.5700  176.1940  143.9430 C   0  0  1  0  0  3  0  0  0  0  0  0
  188.0250  174.5530  138.2160 C   0  0  0  0  0  0  0  0  0  0  0  0
  189.6100  173.8700  143.0090 C   0  0  0  0  0  3  0  0  0  0  0  0
  189.2860  177.5040  143.1860 C   0  0  0  0  0  3  0  0  0  0  0  0
  188.2840  173.2430  138.2690 C   0  0  0  0  0  3  0  0  0  0  0  0
  189.3570  172.9570  141.8660 C   0  0  0  0  0  0  0  0  0  0  0  0
  188.4910  174.8680  140.6020 C   0  0  0  0  0  0  0  0  0  0  0  0
  188.6330  177.1370  141.8370 C   0  0  0  0  0  3  0  0  0  0  0  0
  188.6580  174.9940  135.7930 C   0  0  0  0  0  0  0  0  0  0  0  0
  187.8060  175.1490  136.9330 N   0  0  0  0  0  2  0  0  0  0  0  0
  188.2270  175.3310  134.6590 O   0  0  0  0  0  0  0  0  0  0  0  0
  190.0090  174.5340  135.9560 N   0  0  0  0  0  2  0  0  0  0  0  0
  190.9920  174.3250  134.8930 C   0  0  1  0  0  3  0  0  0  0  0  0
  191.8680  176.4680  135.6040 O   0  0  0  0  0  1  0  0  0  0  0  0
  191.7400  175.6030  134.5150 C   0  0  0  0  0  2  0  0  0  0  0  0
  191.5330  172.0150  134.7400 O   0  0  0  0  0  0  0  0  0  0  0  0
  191.8730  173.1250  135.1260 C   0  0  0  0  0  0  0  0  0  0  0  0
  193.1770  173.2790  135.8420 C   0  0  0  0  0  2  0  0  0  0  0  0
  193.0050  173.0810  137.3410 C   0  0  0  0  0  3  0  0  0  0  0  0
  191.9840  172.1630  137.5610 O   0  0  0  0  0  1  0  0  0  0  0  0
  192.6700  174.2960  137.9450 O   0  0  0  0  0  1  0  0  0  0  0  0
  189.7650  171.5240  142.0030 C   0  0  0  0  0  2  0  0  0  0  0  0
  191.2730  171.3720  141.9240 C   0  0  0  0  0  2  0  0  0  0  0  0
  191.7170  170.4390  142.9010 O   0  0  0  0  0  0  0  0  0  0  0  0
  193.8210  169.7730  144.2930 S   0  0  0  0  0  0  0  0  0  0  0  0
  192.5950  170.7960  143.9240 C   0  0  0  0  0  0  0  0  0  0  0  0
  192.4170  172.0330  144.6260 N   0  0  0  0  0  2  0  0  0  0  0  0
  193.5040  172.9090  145.0400 C   0  0  0  0  0  2  0  0  0  0  0  0
  192.9220  175.0930  143.9850 C   0  0  0  0  0  3  0  0  0  0  0  0
  193.1390  176.1050  143.0510 C   0  0  0  0  0  3  0  0  0  0  0  0
  195.0340  174.8680  142.1530 C   0  0  0  0  0  0  0  0  0  0  0  0
  193.7470  173.9670  144.0110 C   0  0  0  0  0  0  0  0  0  0  0  0
  196.8490  176.0240  140.9110 C   0  0  0  0  0  1  0  0  0  0  0  0
  195.5990  172.7030  143.0980 O   0  0  0  0  0  0  0  0  0  0  0  0
  197.7800  173.6660  142.6960 C   0  0  0  0  0  2  0  0  0  0  0  0
  194.8000  173.8470  143.0850 C   0  0  0  0  0  0  0  0  0  0  0  0
  196.0880  174.7160  141.0810 C   0  0  2  0  0  0  0  0  0  0  0  0
  194.1860  175.9890  142.1360 C   0  0  0  0  0  3  0  0  0  0  0  0
  196.8180  172.5330  142.3720 C   0  0  2  0  0  3  0  0  0  0  0  0
  195.4410  174.4390  139.8750 O   0  0  0  0  0  1  0  0  0  0  0  0
  197.1280  173.6010  141.3190 C   0  0  2  0  0  3  0  0  0  0  0  0
  188.7000  176.0620  145.1150 N   0  0  0  0  0  0  0  0  0  0  0  0
  187.8780  177.9200  146.4920 C   0  0  0  0  0  3  0  0  0  0  0  0
  185.7890  179.0170  145.9910 C   0  0  0  0  0  3  0  0  0  0  0  0
  186.5760  177.2150  144.5670 C   0  0  0  0  0  0  0  0  0  0  0  0
  185.6050  178.2010  144.8640 C   0  0  0  0  0  0  0  0  0  0  0  0
  186.4140  176.3770  143.4650 O   0  0  0  0  0  1  0  0  0  0  0  0
  186.9180  178.8800  146.7960 C   0  0  0  0  0  3  0  0  0  0  0  0
  187.7170  177.0780  145.3830 C   0  0  0  0  0  0  0  0  0  0  0  0
  182.1090  179.1860  143.7420 C   0  0  0  0  0  3  0  0  0  0  0  0
  184.4040  178.4220  144.0150 C   0  0  0  0  0  0  0  0  0  0  0  0
  184.3890  177.9760  142.6840 C   0  0  0  0  0  3  0  0  0  0  0  0
  183.2510  178.1380  141.8880 C   0  0  0  0  0  3  0  0  0  0  0  0
  183.2490  179.0290  144.5350 C   0  0  0  0  0  3  0  0  0  0  0  0
  182.1070  178.7430  142.4190 C   0  0  0  0  0  0  0  0  0  0  0  0
  180.5170  179.7400  140.5280 C   0  0  0  0  0  2  0  0  0  0  0  0
  180.9330  178.8850  141.6180 N   0  0  0  0  0  0  0  0  0  0  0  0
  179.2380  179.1050  140.4070 C   0  0  0  0  0  2  0  0  0  0  0  0
  179.6270  178.1990  141.5280 C   0  0  0  0  0  0  0  0  0  0  0  0
  179.0750  177.2500  142.1420 O   0  0  0  0  0  0  0  0  0  0  0  0
  188.7470  174.8950  145.8990 N   0  0  0  0  0  2  0  0  0  0  0  0
  190.1420  174.6110  146.2060 C   0  0  0  0  0  2  0  0  0  0  0  0
  191.0650  176.4890  147.8650 C   0  0  0  0  0  0  0  0  0  0  0  0
  190.6510  175.6400  147.1170 C   0  0  0  0  0  0  0  0  0  0  0  0
  191.5680  177.5280  148.7650 C   0  0  0  0  0  1  0  0  0  0  0  0
  1  8  2  0  0  0  0
  1  6  1  0  0  0  0
  2 13  1  0  0  0  0
  2  1  1  0  0  0  0
  3 12  2  0  0  0  0
  4 11  2  0  0  0  0
  5  4  1  0  0  0  0
  6 47  1  1  0  0  0
  7 10  2  0  0  0  0
  7  3  1  0  0  0  0
  9  6  1  0  0  0  0
 10  5  1  0  0  0  0
 11 27  1  0  0  0  0
 11  8  1  0  0  0  0
 12  4  1  0  0  0  0
 12  2  1  0  0  0  0
 13  9  2  0  0  0  0
 14 17  1  0  0  0  0
 14 15  1  0  0  0  0
 15  7  1  0  0  0  0
 16 14  2  0  0  0  0
 18 20  1  1  0  0  0
 18 22  1  0  0  0  0
 18 17  1  0  0  0  0
 20 19  1  0  0  0  0
 21 22  2  0  0  0  0
 22 23  1  0  0  0  0
 23 24  1  0  0  0  0
 24 25  1  0  0  0  0
 24 26  1  0  0  0  0
 28 27  1  0  0  0  0
 28 29  1  0  0  0  0
 29 31  1  0  0  0  0
 31 30  2  0  0  0  0
 31 32  1  0  0  0  0
 32 33  1  0  0  0  0
 34 37  1  0  0  0  0
 35 34  2  0  0  0  0
 36 41  1  0  0  0  0
 37 33  1  0  0  0  0
 41 39  1  0  0  0  0
 41 37  2  0  0  0  0
 42 38  1  6  0  0  0
 42 46  1  0  0  0  0
 42 36  1  0  0  0  0
 43 36  2  0  0  0  0
 43 35  1  0  0  0  0
 44 40  1  1  0  0  0
 44 39  1  0  0  0  0
 45 42  1  0  0  0  0
 46 44  1  0  0  0  0
 46 40  1  1  0  0  0
 47 54  1  0  0  0  0
 47 66  1  0  0  0  0
 48 53  1  0  0  0  0
 49 53  2  0  0  0  0
 50 51  2  0  0  0  0
 50 54  1  0  0  0  0
 51 49  1  0  0  0  0
 52 50  1  0  0  0  0
 54 48  2  0  0  0  0
 55 59  1  0  0  0  0
 56 59  2  0  0  0  0
 56 51  1  0  0  0  0
 57 56  1  0  0  0  0
 58 60  1  0  0  0  0
 58 57  2  0  0  0  0
 60 55  2  0  0  0  0
 61 62  1  0  0  0  0
 62 60  1  0  0  0  0
 63 61  1  0  0  0  0
 63 64  1  0  0  0  0
 64 62  1  0  0  0  0
 64 65  2  0  0  0  0
 66 67  1  0  0  0  0
 67 69  1  0  0  0  0
 68 70  1  0  0  0  0
 69 68  3  0  0  0  0
M  END
>  <MODEL>
7

>  <REMARK>
 VINA RESULT:      -5.9      1.701      2.289
  Name = 
  20 active torsions:
  status: ('A' for Active; 'I' for Inactive)
    1  A    between atoms: O_7  and  C_47
    2  A    between atoms: O_7  and  C_62
    3  A    between atoms: N_8  and  C_39
    4  A    between atoms: N_8  and  N_53
    5  A    between atoms: N_12  and  C_69
    6  A    between atoms: C_13  and  C_15
    7  A    between atoms: C_13  and  C_27
    8  A    between atoms: C_18  and  C_44
    9  A    between atoms: C_19  and  C_67
   10  A    between atoms: C_20  and  CA_60
   11  A    between atoms: C_25  and  C_47
   12  A    between atoms: C_25  and  C_52
   13  A    between atoms: C_27  and  CA_60
   14  A    between atoms: C_29  and  N_53
   15  A    between atoms: C_30  and  C_39
   16  A    between atoms: N_32  and  C_40
   17  A    between atoms: N_38  and  C_62
   18  A    between atoms: N_38  and  C_67
   19  A    between atoms: N_50  and  CA_60
   20  A    between atoms: N_53  and  C_58
                            x       y       z     vdW  Elec       q    Type
                         _______ _______ _______ _____ _____    ______ ____

>  <TORSDO>
F 20

$$$$
=
 OpenBabel11042418313D

 70 78  0  0  1  0  0  0  0  0999 V2000
  190.5690  175.5100  144.2000 C   0  0  0  0  0  0  0  0  0  0  0  0
  190.0150  175.8220  142.9420 N   0  0  0  0  0  0  0  0  0  0  0  0
  189.0080  175.0500  140.8870 C   0  0  0  0  0  3  0  0  0  0  0  0
  189.3130  173.4380  142.7060 C   0  0  0  0  0  0  0  0  0  0  0  0
  188.5830  172.3660  141.9380 C   0  0  0  0  0  2  0  0  0  0  0  0
  191.3220  176.6410  144.7900 C   0  0  1  0  0  3  0  0  0  0  0  0
  188.4960  173.9660  140.0210 C   0  0  0  0  0  0  0  0  0  0  0  0
  190.5320  174.2660  144.6810 C   0  0  0  0  0  3  0  0  0  0  0  0
  191.3210  177.6810  143.6560 C   0  0  0  0  0  3  0  0  0  0  0  0
  188.3640  172.7240  140.4940 C   0  0  0  0  0  3  0  0  0  0  0  0
  189.8490  173.1890  143.9210 C   0  0  0  0  0  0  0  0  0  0  0  0
  189.3980  174.8090  142.1400 C   0  0  0  0  0  0  0  0  0  0  0  0
  190.3890  177.1650  142.5420 C   0  0  0  0  0  3  0  0  0  0  0  0
  189.2320  173.9960  137.5880 C   0  0  0  0  0  0  0  0  0  0  0  0
  188.2660  174.1900  138.6260 N   0  0  0  0  0  2  0  0  0  0  0  0
  188.8420  173.9560  136.3910 O   0  0  0  0  0  0  0  0  0  0  0  0
  190.6320  173.9270  137.9040 N   0  0  0  0  0  2  0  0  0  0  0  0
  191.7300  173.7310  136.9580 C   0  0  1  0  0  3  0  0  0  0  0  0
  193.4200  175.0650  135.8500 O   0  0  0  0  0  1  0  0  0  0  0  0
  192.8190  174.7960  137.0830 C   0  0  0  0  0  2  0  0  0  0  0  0
  192.5400  171.7840  135.8610 O   0  0  0  0  0  0  0  0  0  0  0  0
  192.2370  172.3130  136.9210 C   0  0  0  0  0  0  0  0  0  0  0  0
  192.3680  171.5300  138.1890 C   0  0  0  0  0  2  0  0  0  0  0  0
  191.1920  170.5820  138.3710 C   0  0  0  0  0  3  0  0  0  0  0  0
  190.9430  170.4270  139.7310 O   0  0  0  0  0  1  0  0  0  0  0  0
  191.4960  169.3360  137.8150 O   0  0  0  0  0  1  0  0  0  0  0  0
  189.8350  171.8120  144.5050 C   0  0  0  0  0  2  0  0  0  0  0  0
  190.9530  170.9610  143.9340 C   0  0  0  0  0  2  0  0  0  0  0  0
  192.1480  171.7260  143.8480 O   0  0  0  0  0  0  0  0  0  0  0  0
  194.0660  169.9560  143.8670 S   0  0  0  0  0  0  0  0  0  0  0  0
  193.3400  171.3100  144.4410 C   0  0  0  0  0  0  0  0  0  0  0  0
  193.9060  172.0590  145.5230 N   0  0  0  0  0  2  0  0  0  0  0  0
  194.0060  173.5110  145.5560 C   0  0  0  0  0  2  0  0  0  0  0  0
  196.4490  173.8840  145.2180 C   0  0  0  0  0  3  0  0  0  0  0  0
  197.5370  174.2910  144.4480 C   0  0  0  0  0  3  0  0  0  0  0  0
  196.0260  174.8930  142.6360 C   0  0  0  0  0  0  0  0  0  0  0  0
  195.1510  173.9780  144.7140 C   0  0  0  0  0  0  0  0  0  0  0  0
  196.8210  175.0060  140.2850 C   0  0  0  0  0  1  0  0  0  0  0  0
  193.6320  174.6170  142.9400 O   0  0  0  0  0  0  0  0  0  0  0  0
  193.9330  173.9370  140.6390 C   0  0  0  0  0  2  0  0  0  0  0  0
  194.9350  174.4960  143.4240 C   0  0  0  0  0  0  0  0  0  0  0  0
  195.8160  175.5500  141.2920 C   0  0  2  0  0  0  0  0  0  0  0  0
  197.3240  174.8000  143.1650 C   0  0  0  0  0  3  0  0  0  0  0  0
  193.2700  174.9210  141.5920 C   0  0  2  0  0  3  0  0  0  0  0  0
  196.0550  176.9180  141.4370 O   0  0  0  0  0  1  0  0  0  0  0  0
  194.4090  175.3840  140.6780 C   0  0  2  0  0  3  0  0  0  0  0  0
  190.6440  177.1580  145.9820 N   0  0  0  0  0  0  0  0  0  0  0  0
  188.8750  176.0690  147.2890 C   0  0  0  0  0  3  0  0  0  0  0  0
  186.5670  176.1690  146.5950 C   0  0  0  0  0  3  0  0  0  0  0  0
  188.2700  177.3050  145.2880 C   0  0  0  0  0  0  0  0  0  0  0  0
  186.9100  176.9700  145.4940 C   0  0  0  0  0  0  0  0  0  0  0  0
  188.6460  178.0840  144.1950 O   0  0  0  0  0  1  0  0  0  0  0  0
  187.5420  175.7250  147.4870 C   0  0  0  0  0  3  0  0  0  0  0  0
  189.2540  176.8540  146.1910 C   0  0  0  0  0  0  0  0  0  0  0  0
  183.7690  178.7090  144.2460 C   0  0  0  0  0  3  0  0  0  0  0  0
  185.8240  177.4540  144.6000 C   0  0  0  0  0  0  0  0  0  0  0  0
  185.7640  177.0240  143.2650 C   0  0  0  0  0  3  0  0  0  0  0  0
  184.7240  177.4360  142.4280 C   0  0  0  0  0  3  0  0  0  0  0  0
  184.8120  178.3020  145.0810 C   0  0  0  0  0  3  0  0  0  0  0  0
  183.7220  178.2800  142.9190 C   0  0  0  0  0  0  0  0  0  0  0  0
  182.3930  178.7000  140.6490 C   0  0  0  0  0  2  0  0  0  0  0  0
  182.6430  178.6790  142.0740 N   0  0  0  0  0  0  0  0  0  0  0  0
  181.0710  179.2320  140.8040 C   0  0  0  0  0  2  0  0  0  0  0  0
  181.2860  179.2260  142.2810 C   0  0  0  0  0  0  0  0  0  0  0  0
  180.6000  179.5510  143.2840 O   0  0  0  0  0  0  0  0  0  0  0  0
  191.3770  177.8430  146.9680 N   0  0  0  0  0  2  0  0  0  0  0  0
  192.4370  176.9630  147.4390 C   0  0  0  0  0  2  0  0  0  0  0  0
  194.6270  177.3730  145.9650 C   0  0  0  0  0  0  0  0  0  0  0  0
  193.6380  177.1850  146.6280 C   0  0  0  0  0  0  0  0  0  0  0  0
  195.8230  177.6100  145.1550 C   0  0  0  0  0  1  0  0  0  0  0  0
  1  8  2  0  0  0  0
  1  6  1  0  0  0  0
  2  1  1  0  0  0  0
  3 12  2  0  0  0  0
  4 11  2  0  0  0  0
  5  4  1  0  0  0  0
  6 47  1  1  0  0  0
  7 10  2  0  0  0  0
  7  3  1  0  0  0  0
  9  6  1  0  0  0  0
 10  5  1  0  0  0  0
 11 27  1  0  0  0  0
 11  8  1  0  0  0  0
 12  4  1  0  0  0  0
 12  2  1  0  0  0  0
 13  2  1  0  0  0  0
 13  9  2  0  0  0  0
 14 17  1  0  0  0  0
 14 15  1  0  0  0  0
 15  7  1  0  0  0  0
 16 14  2  0  0  0  0
 18 20  1  1  0  0  0
 18 17  1  0  0  0  0
 19 20  1  0  0  0  0
 21 22  2  0  0  0  0
 22 18  1  0  0  0  0
 22 23  1  0  0  0  0
 23 24  1  0  0  0  0
 24 25  1  0  0  0  0
 26 24  1  0  0  0  0
 28 27  1  0  0  0  0
 29 28  1  0  0  0  0
 29 31  1  0  0  0  0
 30 31  2  0  0  0  0
 31 32  1  0  0  0  0
 32 33  1  0  0  0  0
 35 34  2  0  0  0  0
 36 43  2  0  0  0  0
 36 41  1  0  0  0  0
 37 34  1  0  0  0  0
 37 33  1  0  0  0  0
 39 41  1  0  0  0  0
 41 37  2  0  0  0  0
 42 38  1  6  0  0  0
 42 45  1  0  0  0  0
 42 36  1  0  0  0  0
 43 35  1  0  0  0  0
 44 40  1  6  0  0  0
 44 39  1  0  0  0  0
 46 40  1  6  0  0  0
 46 42  1  0  0  0  0
 46 44  1  0  0  0  0
 47 54  1  0  0  0  0
 47 66  1  0  0  0  0
 48 53  1  0  0  0  0
 49 53  2  0  0  0  0
 50 51  2  0  0  0  0
 50 54  1  0  0  0  0
 51 49  1  0  0  0  0
 52 50  1  0  0  0  0
 54 48  2  0  0  0  0
 55 59  1  0  0  0  0
 56 59  2  0  0  0  0
 56 51  1  0  0  0  0
 57 56  1  0  0  0  0
 58 60  1  0  0  0  0
 58 57  2  0  0  0  0
 60 55  2  0  0  0  0
 61 63  1  0  0  0  0
 61 62  1  0  0  0  0
 62 64  1  0  0  0  0
 62 60  1  0  0  0  0
 63 64  1  0  0  0  0
 64 65  2  0  0  0  0
 66 67  1  0  0  0  0
 68 69  3  0  0  0  0
 69 67  1  0  0  0  0
 70 68  1  0  0  0  0
M  END
>  <MODEL>
8

>  <REMARK>
 VINA RESULT:      -5.8      1.983      3.366
  Name = 
  20 active torsions:
  status: ('A' for Active; 'I' for Inactive)
    1  A    between atoms: O_7  and  C_47
    2  A    between atoms: O_7  and  C_62
    3  A    between atoms: N_8  and  C_39
    4  A    between atoms: N_8  and  N_53
    5  A    between atoms: N_12  and  C_69
    6  A    between atoms: C_13  and  C_15
    7  A    between atoms: C_13  and  C_27
    8  A    between atoms: C_18  and  C_44
    9  A    between atoms: C_19  and  C_67
   10  A    between atoms: C_20  and  CA_60
   11  A    between atoms: C_25  and  C_47
   12  A    between atoms: C_25  and  C_52
   13  A    between atoms: C_27  and  CA_60
   14  A    between atoms: C_29  and  N_53
   15  A    between atoms: C_30  and  C_39
   16  A    between atoms: N_32  and  C_40
   17  A    between atoms: N_38  and  C_62
   18  A    between atoms: N_38  and  C_67
   19  A    between atoms: N_50  and  CA_60
   20  A    between atoms: N_53  and  C_58
                            x       y       z     vdW  Elec       q    Type
                         _______ _______ _______ _____ _____    ______ ____

>  <TORSDO>
F 20

$$$$
=
 OpenBabel11042418313D

 70 78  0  0  1  0  0  0  0  0999 V2000
  186.2350  177.9810  142.4680 C   0  0  0  0  0  0  0  0  0  0  0  0
  184.9660  178.2770  143.0070 N   0  0  0  0  0  0  0  0  0  0  0  0
  182.6080  178.6460  142.6380 C   0  0  0  0  0  3  0  0  0  0  0  0
  183.9520  177.7890  140.7790 C   0  0  0  0  0  0  0  0  0  0  0  0
  182.7290  177.6210  139.9130 C   0  0  0  0  0  2  0  0  0  0  0  0
  187.3390  178.2740  143.4120 C   0  0  1  0  0  3  0  0  0  0  0  0
  181.4290  178.7120  141.7470 C   0  0  0  0  0  0  0  0  0  0  0  0
  186.3780  177.6400  141.1860 C   0  0  0  0  0  3  0  0  0  0  0  0
  186.6160  178.9620  144.5830 C   0  0  0  0  0  3  0  0  0  0  0  0
  181.5120  178.2980  140.4800 C   0  0  0  0  0  3  0  0  0  0  0  0
  185.1880  177.5060  140.3100 C   0  0  0  0  0  0  0  0  0  0  0  0
  183.7910  178.2220  142.1900 C   0  0  0  0  0  0  0  0  0  0  0  0
  185.0980  178.8470  144.3340 C   0  0  0  0  0  3  0  0  0  0  0  0
  179.0550  179.5370  141.3680 C   0  0  0  0  0  0  0  0  0  0  0  0
  180.2210  179.3470  142.1770 N   0  0  0  0  0  2  0  0  0  0  0  0
  177.9710  179.8530  141.9250 O   0  0  0  0  0  0  0  0  0  0  0  0
  179.1430  179.4440  139.9370 N   0  0  0  0  0  2  0  0  0  0  0  0
  178.0450  179.6100  138.9850 C   0  0  1  0  0  3  0  0  0  0  0  0
  179.2120  181.5620  138.1530 O   0  0  0  0  0  1  0  0  0  0  0  0
  177.9490  181.0310  138.4290 C   0  0  0  0  0  2  0  0  0  0  0  0
  177.7460  178.7830  136.7760 O   0  0  0  0  0  0  0  0  0  0  0  0
  177.9910  178.5210  137.9450 C   0  0  0  0  0  0  0  0  0  0  0  0
  178.2320  177.0980  138.3370 C   0  0  0  0  0  2  0  0  0  0  0  0
  178.9650  176.3440  137.2370 C   0  0  0  0  0  3  0  0  0  0  0  0
  178.2020  175.2450  136.8580 O   0  0  0  0  0  1  0  0  0  0  0  0
  180.2050  175.9030  137.7070 O   0  0  0  0  0  1  0  0  0  0  0  0
  185.4030  177.1190  138.8810 C   0  0  0  0  0  2  0  0  0  0  0  0
  186.8630  176.8090  138.6080 C   0  0  0  0  0  2  0  0  0  0  0  0
  186.9650  175.7320  137.6860 O   0  0  0  0  0  0  0  0  0  0  0  0
  185.6960  176.1430  135.4440 S   0  0  0  0  0  0  0  0  0  0  0  0
  187.0720  175.9390  136.3110 C   0  0  0  0  0  0  0  0  0  0  0  0
  188.3610  175.9700  135.6860 N   0  0  0  0  0  2  0  0  0  0  0  0
  188.9160  174.8860  134.8880 C   0  0  0  0  0  2  0  0  0  0  0  0
  191.4080  174.8470  134.7620 C   0  0  0  0  0  3  0  0  0  0  0  0
  192.6590  174.4850  135.2560 C   0  0  0  0  0  3  0  0  0  0  0  0
  191.5890  173.3400  137.1210 C   0  0  0  0  0  0  0  0  0  0  0  0
  190.2440  174.4620  135.4310 C   0  0  0  0  0  0  0  0  0  0  0  0
  192.8060  172.9360  139.2480 C   0  0  0  0  0  1  0  0  0  0  0  0
  189.1650  173.2880  137.2520 O   0  0  0  0  0  0  0  0  0  0  0  0
  189.7920  173.5860  139.5680 C   0  0  0  0  0  2  0  0  0  0  0  0
  190.3330  173.6960  136.6070 C   0  0  0  0  0  0  0  0  0  0  0  0
  191.7100  172.4300  138.3200 C   0  0  2  0  0  0  0  0  0  0  0  0
  192.7480  173.7290  136.4260 C   0  0  0  0  0  3  0  0  0  0  0  0
  189.0940  172.6960  138.5510 C   0  0  2  0  0  3  0  0  0  0  0  0
  192.0870  171.1640  137.8660 O   0  0  0  0  0  1  0  0  0  0  0  0
  190.4290  172.2620  139.1640 C   0  0  2  0  0  3  0  0  0  0  0  0
  187.9960  177.0390  143.8490 N   0  0  0  0  0  0  0  0  0  0  0  0
  190.2140  178.0260  143.4900 C   0  0  0  0  0  3  0  0  0  0  0  0
  192.1670  176.6400  143.2060 C   0  0  0  0  0  3  0  0  0  0  0  0
  190.0050  175.6090  143.6040 C   0  0  0  0  0  0  0  0  0  0  0  0
  191.3980  175.4800  143.3870 C   0  0  0  0  0  0  0  0  0  0  0  0
  189.2100  174.4770  143.7710 O   0  0  0  0  0  1  0  0  0  0  0  0
  191.5800  177.9020  143.2610 C   0  0  0  0  0  3  0  0  0  0  0  0
  189.4140  176.8880  143.6590 C   0  0  0  0  0  0  0  0  0  0  0  0
  192.1250  171.8000  142.7690 C   0  0  0  0  0  3  0  0  0  0  0  0
  192.0840  174.1600  143.3640 C   0  0  0  0  0  0  0  0  0  0  0  0
  193.3170  173.9940  144.0150 C   0  0  0  0  0  3  0  0  0  0  0  0
  193.9500  172.7480  144.0370 C   0  0  0  0  0  3  0  0  0  0  0  0
  191.4950  173.0470  142.7410 C   0  0  0  0  0  3  0  0  0  0  0  0
  193.3530  171.6470  143.4150 C   0  0  0  0  0  0  0  0  0  0  0  0
  195.3320  169.8690  143.3010 C   0  0  0  0  0  2  0  0  0  0  0  0
  193.9830  170.3670  143.4610 N   0  0  0  0  0  0  0  0  0  0  0  0
  194.9480  168.5090  143.5450 C   0  0  0  0  0  2  0  0  0  0  0  0
  193.5420  168.9810  143.7200 C   0  0  0  0  0  0  0  0  0  0  0  0
  192.4410  168.4300  143.9790 O   0  0  0  0  0  0  0  0  0  0  0  0
  187.2660  176.0640  144.5540 N   0  0  0  0  0  2  0  0  0  0  0  0
  187.2600  176.4320  145.9630 C   0  0  0  0  0  2  0  0  0  0  0  0
  189.5630  175.6660  147.0780 C   0  0  0  0  0  0  0  0  0  0  0  0
  188.5250  176.0110  146.5720 C   0  0  0  0  0  0  0  0  0  0  0  0
  190.8250  175.2570  147.6970 C   0  0  0  0  0  1  0  0  0  0  0  0
  1  2  1  0  0  0  0
  1  6  1  0  0  0  0
  2 13  1  0  0  0  0
  4 12  1  0  0  0  0
  5 10  1  0  0  0  0
  5  4  1  0  0  0  0
  6 47  1  1  0  0  0
  6  9  1  0  0  0  0
  7 15  1  0  0  0  0
  7  3  1  0  0  0  0
  8  1  2  0  0  0  0
 10  7  2  0  0  0  0
 11  4  2  0  0  0  0
 11  8  1  0  0  0  0
 12  3  2  0  0  0  0
 12  2  1  0  0  0  0
 13  9  2  0  0  0  0
 14 16  2  0  0  0  0
 14 15  1  0  0  0  0
 17 14  1  0  0  0  0
 18 20  1  6  0  0  0
 18 17  1  0  0  0  0
 19 20  1  0  0  0  0
 21 22  2  0  0  0  0
 22 23  1  0  0  0  0
 22 18  1  0  0  0  0
 24 26  1  0  0  0  0
 24 23  1  0  0  0  0
 25 24  1  0  0  0  0
 27 11  1  0  0  0  0
 28 27  1  0  0  0  0
 29 28  1  0  0  0  0
 30 31  2  0  0  0  0
 31 29  1  0  0  0  0
 32 31  1  0  0  0  0
 33 37  1  0  0  0  0
 33 32  1  0  0  0  0
 34 35  2  0  0  0  0
 34 37  1  0  0  0  0
 35 43  1  0  0  0  0
 36 42  1  0  0  0  0
 37 41  2  0  0  0  0
 39 44  1  0  0  0  0
 41 36  1  0  0  0  0
 41 39  1  0  0  0  0
 42 46  1  0  0  0  0
 42 38  1  1  0  0  0
 43 36  2  0  0  0  0
 44 46  1  0  0  0  0
 44 40  1  1  0  0  0
 45 42  1  0  0  0  0
 46 40  1  1  0  0  0
 47 66  1  0  0  0  0
 48 54  1  0  0  0  0
 49 53  1  0  0  0  0
 49 51  2  0  0  0  0
 50 54  2  0  0  0  0
 50 52  1  0  0  0  0
 51 50  1  0  0  0  0
 53 48  2  0  0  0  0
 54 47  1  0  0  0  0
 55 60  1  0  0  0  0
 56 51  1  0  0  0  0
 56 57  2  0  0  0  0
 57 58  1  0  0  0  0
 59 55  2  0  0  0  0
 59 56  1  0  0  0  0
 60 62  1  0  0  0  0
 60 58  2  0  0  0  0
 61 62  1  0  0  0  0
 61 63  1  0  0  0  0
 62 64  1  0  0  0  0
 63 64  1  0  0  0  0
 64 65  2  0  0  0  0
 66 67  1  0  0  0  0
 67 69  1  0  0  0  0
 68 70  1  0  0  0  0
 69 68  3  0  0  0  0
M  END
>  <MODEL>
9

>  <REMARK>
 VINA RESULT:      -5.7      3.092     11.031
  Name = 
  20 active torsions:
  status: ('A' for Active; 'I' for Inactive)
    1  A    between atoms: O_7  and  C_47
    2  A    between atoms: O_7  and  C_62
    3  A    between atoms: N_8  and  C_39
    4  A    between atoms: N_8  and  N_53
    5  A    between atoms: N_12  and  C_69
    6  A    between atoms: C_13  and  C_15
    7  A    between atoms: C_13  and  C_27
    8  A    between atoms: C_18  and  C_44
    9  A    between atoms: C_19  and  C_67
   10  A    between atoms: C_20  and  CA_60
   11  A    between atoms: C_25  and  C_47
   12  A    between atoms: C_25  and  C_52
   13  A    between atoms: C_27  and  CA_60
   14  A    between atoms: C_29  and  N_53
   15  A    between atoms: C_30  and  C_39
   16  A    between atoms: N_32  and  C_40
   17  A    between atoms: N_38  and  C_62
   18  A    between atoms: N_38  and  C_67
   19  A    between atoms: N_50  and  CA_60
   20  A    between atoms: N_53  and  C_58
                            x       y       z     vdW  Elec       q    Type
                         _______ _______ _______ _____ _____    ______ ____

>  <TORSDO>
F 20

$$$$
