=
 OpenBabel11042413373D

 42 46  0  0  1  0  0  0  0  0999 V2000
  184.5260  178.4200  144.3170 C   0  0  0  0  0  0  0  0  0  0  0  0
  188.6290  177.3910  146.7830 C   0  0  0  0  0  2  0  0  0  0  0  0
  184.1370  178.3790  142.9800 C   0  0  0  0  0  0  0  0  0  0  0  0
  186.4960  177.6500  143.3330 C   0  0  0  0  0  0  0  0  0  0  0  0
  186.5150  177.9570  145.7460 C   0  0  0  0  0  3  0  0  0  0  0  0
  188.4880  177.1530  144.5600 C   0  0  0  0  0  0  0  0  0  0  0  0
  187.8440  177.5190  145.7310 C   0  0  0  0  0  0  0  0  0  0  0  0
  185.4310  177.8260  142.0400 S   0  0  0  0  0  0  0  0  0  0  0  0
  183.6820  178.8190  145.3470 O   0  0  0  0  0  1  0  0  0  0  0  0
  189.9570  176.8870  146.2930 C   0  0  2  0  0  3  0  0  0  0  0  0
  185.8490  178.0170  144.5150 C   0  0  0  0  0  0  0  0  0  0  0  0
  187.8290  177.2090  143.3100 C   0  0  0  0  0  0  0  0  0  0  0  0
  189.7290  176.7690  144.8140 C   0  0  0  0  0  2  0  0  0  0  0  0
  190.2860  175.5480  146.8880 C   0  0  0  0  0  0  0  0  0  0  0  0
  191.3110  175.4090  147.6070 O   0  0  0  0  0  0  0  0  0  0  0  0
  189.7540  173.4910  145.7390 N   0  0  0  0  0  1  0  0  0  0  0  0
  189.4520  174.4520  146.6780 O   0  0  0  0  0  0  0  0  0  0  0  0
  188.4360  176.8410  142.0620 N   0  0  0  0  0  2  0  0  0  0  0  0
  188.0650  175.6810  141.2630 C   0  0  0  0  0  2  0  0  0  0  0  0
  187.9270  174.4600  142.1530 C   0  0  0  0  0  2  0  0  0  0  0  0
  188.5650  173.2480  141.4940 C   0  0  0  0  0  2  0  0  0  0  0  0
  188.8900  172.1930  142.5380 C   0  0  0  0  0  2  0  0  0  0  0  0
  190.1730  171.4680  142.1730 C   0  0  0  0  0  2  0  0  0  0  0  0
  191.1890  172.4680  141.6560 C   0  0  0  0  0  2  0  0  0  0  0  0
  192.1030  174.3550  142.9870 C   0  0  0  0  0  0  0  0  0  0  0  0
  191.5020  175.2520  142.1050 O   0  0  0  0  0  1  0  0  0  0  0  0
  191.9730  173.0410  142.7910 C   0  0  0  0  0  3  0  0  0  0  0  0
  192.8810  174.8710  144.1320 C   0  0  0  0  0  0  0  0  0  0  0  0
  194.9010  175.7610  145.9380 C   0  0  0  0  0  2  0  0  0  0  0  0
  193.8500  176.7470  145.4260 C   0  0  0  0  0  2  0  0  0  0  0  0
  194.3150  174.3800  146.0590 C   0  0  0  0  0  3  0  0  0  0  0  0
  193.3970  173.9580  145.1820 C   0  0  0  0  0  3  0  0  0  0  0  0
  193.1350  176.1840  144.2260 C   0  0  0  0  0  3  0  0  0  0  0  0
  182.7810  178.7160  142.4590 C   0  0  0  0  0  2  0  0  0  0  0  0
  182.5950  178.1790  141.0500 C   0  0  0  0  0  2  0  0  0  0  0  0
  181.1440  178.3240  140.6210 C   0  0  0  0  0  2  0  0  0  0  0  0
  180.2730  178.7230  141.8040 C   0  0  0  0  0  2  0  0  0  0  0  0
  178.9140  179.2450  141.3550 C   0  0  0  0  0  2  0  0  0  0  0  0
  178.4300  178.8060  143.6250 O   0  0  0  0  0  0  0  0  0  0  0  0
  177.9930  177.6280  142.8100 C   0  0  0  0  0  0  0  0  0  0  0  0
  177.8700  176.3880  142.6380 O   0  0  0  0  0  0  0  0  0  0  0  0
  177.8480  178.9330  142.3930 C   0  0  2  0  0  3  0  0  0  0  0  0
  1 11  1  0  0  0  0
  1  9  1  0  0  0  0
  3  1  2  0  0  0  0
  4 11  1  0  0  0  0
  6 13  1  0  0  0  0
  6  7  2  0  0  0  0
  7  5  1  0  0  0  0
  7  2  1  0  0  0  0
  8  3  1  0  0  0  0
  8  4  1  0  0  0  0
 10  2  1  0  0  0  0
 10 14  1  1  0  0  0
 11  5  2  0  0  0  0
 12  4  2  0  0  0  0
 12  6  1  0  0  0  0
 13 10  1  0  0  0  0
 14 15  2  0  0  0  0
 16 17  1  0  0  0  0
 17 14  1  0  0  0  0
 18 12  1  0  0  0  0
 19 18  1  0  0  0  0
 19 20  1  0  0  0  0
 21 20  1  0  0  0  0
 21 22  1  0  0  0  0
 23 22  1  0  0  0  0
 24 23  1  0  0  0  0
 24 27  1  0  0  0  0
 25 28  1  0  0  0  0
 26 25  1  0  0  0  0
 27 25  2  0  0  0  0
 28 33  2  0  0  0  0
 28 32  1  0  0  0  0
 29 31  1  0  0  0  0
 30 29  1  0  0  0  0
 32 31  2  0  0  0  0
 33 30  1  0  0  0  0
 34  3  1  0  0  0  0
 35 34  1  0  0  0  0
 36 35  1  0  0  0  0
 36 37  1  0  0  0  0
 38 37  1  0  0  0  0
 40 39  1  0  0  0  0
 41 40  2  0  0  0  0
 42 38  1  6  0  0  0
 42 40  1  0  0  0  0
 42 39  1  0  0  0  0
M  END
>  <MODEL>
1

>  <REMARK>
 VINA RESULT:      -7.0      0.000      0.000
  Name = 
  17 active torsions:
  status: ('A' for Active; 'I' for Inactive)
    1  A    between atoms: C_1  and  C_5
    2  A    between atoms: C_1  and  C_33
    3  A    between atoms: C_4  and  C_7
    4  A    between atoms: C_5  and  C_6
    5  A    between atoms: C_6  and  C_21
    6  A    between atoms: C_8  and  C_33
    7  A    between atoms: C_8  and  C_41
    8  A    between atoms: C_14  and  C_24
    9  A    between atoms: C_16  and  C_36
   10  A    between atoms: C_16  and  O_37
   11  A    between atoms: C_17  and  C_24
   12  A    between atoms: C_17  and  C_38
   13  A    between atoms: C_21  and  N_28
   14  A    between atoms: C_22  and  C_27
   15  A    between atoms: C_27  and  C_31
   16  A    between atoms: N_28  and  C_40
   17  A    between atoms: C_31  and  C_38
                            x       y       z     vdW  Elec       q    Type
                         _______ _______ _______ _____ _____    ______ ____

>  <TORSDO>
F 17

$$$$
=
 OpenBabel11042413373D

 42 46  0  0  1  0  0  0  0  0999 V2000
  191.6750  176.5330  146.2680 C   0  0  0  0  0  0  0  0  0  0  0  0
  186.8310  176.6170  146.9850 C   0  0  0  0  0  2  0  0  0  0  0  0
  192.5190  176.7470  145.1810 C   0  0  0  0  0  0  0  0  0  0  0  0
  190.1050  177.0120  144.6090 C   0  0  0  0  0  0  0  0  0  0  0  0
  189.2470  176.5210  146.8320 C   0  0  0  0  0  3  0  0  0  0  0  0
  187.7440  177.0490  144.9850 C   0  0  0  0  0  0  0  0  0  0  0  0
  187.9620  176.7140  146.3120 C   0  0  0  0  0  0  0  0  0  0  0  0
  191.5890  177.1310  143.8200 S   0  0  0  0  0  0  0  0  0  0  0  0
  192.1330  176.2130  147.5410 O   0  0  0  0  0  1  0  0  0  0  0  0
  185.7120  176.9110  146.0270 C   0  0  2  0  0  3  0  0  0  0  0  0
  190.3220  176.6770  145.9480 C   0  0  0  0  0  0  0  0  0  0  0  0
  188.8200  177.2080  144.0810 C   0  0  0  0  0  0  0  0  0  0  0  0
  186.4490  177.1830  144.7480 C   0  0  0  0  0  2  0  0  0  0  0  0
  184.9300  178.1200  146.4560 C   0  0  0  0  0  0  0  0  0  0  0  0
  185.2720  178.7660  147.4820 O   0  0  0  0  0  0  0  0  0  0  0  0
  184.0060  179.2780  144.5480 N   0  0  0  0  0  1  0  0  0  0  0  0
  183.8370  178.5600  145.7110 O   0  0  0  0  0  0  0  0  0  0  0  0
  188.6630  177.5580  142.6970 N   0  0  0  0  0  2  0  0  0  0  0  0
  188.1170  176.6810  141.6710 C   0  0  0  0  0  2  0  0  0  0  0  0
  188.8910  175.3750  141.6380 C   0  0  0  0  0  2  0  0  0  0  0  0
  188.0370  174.2390  142.1770 C   0  0  0  0  0  2  0  0  0  0  0  0
  188.9200  173.1520  142.7670 C   0  0  0  0  0  2  0  0  0  0  0  0
  190.2420  173.7380  143.2280 C   0  0  0  0  0  2  0  0  0  0  0  0
  190.6430  173.1060  144.5470 C   0  0  0  0  0  2  0  0  0  0  0  0
  192.9770  172.3630  144.1360 C   0  0  0  0  0  0  0  0  0  0  0  0
  192.4960  171.3530  143.3060 O   0  0  0  0  0  1  0  0  0  0  0  0
  192.1220  173.1960  144.7340 C   0  0  0  0  0  3  0  0  0  0  0  0
  194.4330  172.5020  144.3460 C   0  0  0  0  0  0  0  0  0  0  0  0
  197.1160  173.4170  144.6540 C   0  0  0  0  0  2  0  0  0  0  0  0
  196.3910  172.7720  145.8380 C   0  0  0  0  0  2  0  0  0  0  0  0
  196.6550  172.8090  143.3580 C   0  0  0  0  0  3  0  0  0  0  0  0
  195.3840  172.4200  143.2100 C   0  0  0  0  0  3  0  0  0  0  0  0
  194.9080  172.7130  145.5820 C   0  0  0  0  0  3  0  0  0  0  0  0
  194.0090  176.6990  145.2150 C   0  0  0  0  0  2  0  0  0  0  0  0
  194.5620  176.1530  143.9090 C   0  0  0  0  0  2  0  0  0  0  0  0
  196.0040  176.5970  143.7260 C   0  0  0  0  0  2  0  0  0  0  0  0
  196.4350  176.4350  142.2750 C   0  0  0  0  0  2  0  0  0  0  0  0
  195.2460  176.1660  141.3590 C   0  0  0  0  0  2  0  0  0  0  0  0
  195.9800  175.4360  139.2360 O   0  0  0  0  0  0  0  0  0  0  0  0
  194.5790  174.9500  139.4470 C   0  0  0  0  0  0  0  0  0  0  0  0
  193.4190  174.7100  139.0280 O   0  0  0  0  0  0  0  0  0  0  0  0
  195.5270  174.9840  140.4460 C   0  0  2  0  0  3  0  0  0  0  0  0
  1  9  1  0  0  0  0
  3 34  1  0  0  0  0
  3  1  2  0  0  0  0
  4 11  1  0  0  0  0
  6  7  2  0  0  0  0
  7  5  1  0  0  0  0
  7  2  1  0  0  0  0
  8  4  1  0  0  0  0
  8  3  1  0  0  0  0
 10 14  1  1  0  0  0
 10  2  1  0  0  0  0
 11  1  1  0  0  0  0
 11  5  2  0  0  0  0
 12  4  2  0  0  0  0
 12  6  1  0  0  0  0
 13  6  1  0  0  0  0
 13 10  1  0  0  0  0
 14 15  2  0  0  0  0
 16 17  1  0  0  0  0
 17 14  1  0  0  0  0
 18 12  1  0  0  0  0
 19 18  1  0  0  0  0
 20 19  1  0  0  0  0
 20 21  1  0  0  0  0
 21 22  1  0  0  0  0
 22 23  1  0  0  0  0
 23 24  1  0  0  0  0
 24 27  1  0  0  0  0
 25 28  1  0  0  0  0
 25 27  2  0  0  0  0
 26 25  1  0  0  0  0
 28 33  2  0  0  0  0
 29 30  1  0  0  0  0
 31 29  1  0  0  0  0
 32 31  2  0  0  0  0
 32 28  1  0  0  0  0
 33 30  1  0  0  0  0
 35 34  1  0  0  0  0
 36 35  1  0  0  0  0
 37 36  1  0  0  0  0
 38 37  1  0  0  0  0
 39 40  1  0  0  0  0
 39 42  1  0  0  0  0
 40 42  1  0  0  0  0
 41 40  2  0  0  0  0
 42 38  1  1  0  0  0
M  END
>  <MODEL>
2

>  <REMARK>
 VINA RESULT:      -7.0      3.691      8.414
  Name = 
  17 active torsions:
  status: ('A' for Active; 'I' for Inactive)
    1  A    between atoms: C_1  and  C_5
    2  A    between atoms: C_1  and  C_33
    3  A    between atoms: C_4  and  C_7
    4  A    between atoms: C_5  and  C_6
    5  A    between atoms: C_6  and  C_21
    6  A    between atoms: C_8  and  C_33
    7  A    between atoms: C_8  and  C_41
    8  A    between atoms: C_14  and  C_24
    9  A    between atoms: C_16  and  C_36
   10  A    between atoms: C_16  and  O_37
   11  A    between atoms: C_17  and  C_24
   12  A    between atoms: C_17  and  C_38
   13  A    between atoms: C_21  and  N_28
   14  A    between atoms: C_22  and  C_27
   15  A    between atoms: C_27  and  C_31
   16  A    between atoms: N_28  and  C_40
   17  A    between atoms: C_31  and  C_38
                            x       y       z     vdW  Elec       q    Type
                         _______ _______ _______ _____ _____    ______ ____

>  <TORSDO>
F 17

$$$$
=
 OpenBabel11042413373D

 42 46  0  0  1  0  0  0  0  0999 V2000
  191.1940  175.7670  146.7810 C   0  0  0  0  0  0  0  0  0  0  0  0
  195.3020  173.4600  145.4500 C   0  0  0  0  0  2  0  0  0  0  0  0
  189.8320  175.5760  146.5550 C   0  0  0  0  0  0  0  0  0  0  0  0
  191.2570  173.8510  145.4510 C   0  0  0  0  0  0  0  0  0  0  0  0
  193.3910  174.7410  146.2070 C   0  0  0  0  0  3  0  0  0  0  0  0
  193.2780  172.7410  144.8160 C   0  0  0  0  0  0  0  0  0  0  0  0
  194.0060  173.6890  145.5180 C   0  0  0  0  0  0  0  0  0  0  0  0
  189.6150  174.2000  145.5940 S   0  0  0  0  0  0  0  0  0  0  0  0
  191.7020  176.8080  147.5500 O   0  0  0  0  0  1  0  0  0  0  0  0
  195.4980  172.2280  144.6130 C   0  0  2  0  0  3  0  0  0  0  0  0
  191.9930  174.8040  146.1600 C   0  0  0  0  0  0  0  0  0  0  0  0
  191.8650  172.7930  144.7580 C   0  0  0  0  0  0  0  0  0  0  0  0
  194.0870  171.8520  144.2630 C   0  0  0  0  0  2  0  0  0  0  0  0
  196.1590  171.1330  145.3990 C   0  0  0  0  0  0  0  0  0  0  0  0
  197.3990  171.1700  145.6200 O   0  0  0  0  0  0  0  0  0  0  0  0
  195.6000  168.7840  145.4900 N   0  0  0  0  0  1  0  0  0  0  0  0
  195.4090  170.0780  145.9190 O   0  0  0  0  0  0  0  0  0  0  0  0
  191.0530  171.8420  144.0540 N   0  0  0  0  0  2  0  0  0  0  0  0
  190.6700  171.9460  142.6520 C   0  0  0  0  0  2  0  0  0  0  0  0
  191.0500  170.6740  141.9160 C   0  0  0  0  0  2  0  0  0  0  0  0
  192.3740  170.8580  141.1900 C   0  0  0  0  0  2  0  0  0  0  0  0
  192.5430  172.3060  140.7630 C   0  0  0  0  0  2  0  0  0  0  0  0
  194.0150  172.6550  140.6540 C   0  0  0  0  0  2  0  0  0  0  0  0
  194.2570  174.0230  141.2640 C   0  0  0  0  0  2  0  0  0  0  0  0
  192.8770  175.6880  142.4850 C   0  0  0  0  0  0  0  0  0  0  0  0
  194.0350  176.2080  143.0600 O   0  0  0  0  0  1  0  0  0  0  0  0
  192.9580  174.6560  141.6420 C   0  0  0  0  0  3  0  0  0  0  0  0
  191.5670  176.2850  142.8180 C   0  0  0  0  0  0  0  0  0  0  0  0
  189.1530  177.8000  142.9130 C   0  0  0  0  0  2  0  0  0  0  0  0
  189.0930  176.2850  142.7040 C   0  0  0  0  0  2  0  0  0  0  0  0
  190.3260  178.1670  143.7810 C   0  0  0  0  0  3  0  0  0  0  0  0
  191.4680  177.4750  143.6990 C   0  0  0  0  0  3  0  0  0  0  0  0
  190.4450  175.7510  142.3130 C   0  0  0  0  0  3  0  0  0  0  0  0
  188.7320  176.4150  147.1120 C   0  0  0  0  0  2  0  0  0  0  0  0
  187.6000  176.5560  146.1090 C   0  0  0  0  0  2  0  0  0  0  0  0
  186.3990  177.2180  146.7650 C   0  0  0  0  0  2  0  0  0  0  0  0
  185.1860  177.1580  145.8490 C   0  0  0  0  0  2  0  0  0  0  0  0
  185.5860  177.2020  144.3780 C   0  0  0  0  0  2  0  0  0  0  0  0
  184.1310  178.6720  143.2370 O   0  0  0  0  0  0  0  0  0  0  0  0
  185.3830  178.5190  142.4290 C   0  0  0  0  0  0  0  0  0  0  0  0
  185.9790  178.4010  141.3280 O   0  0  0  0  0  0  0  0  0  0  0  0
  185.3750  178.5930  143.8040 C   0  0  2  0  0  3  0  0  0  0  0  0
  1  9  1  0  0  0  0
  2  7  1  0  0  0  0
  3  1  2  0  0  0  0
  3 34  1  0  0  0  0
  4  8  1  0  0  0  0
  4 11  1  0  0  0  0
  6  7  2  0  0  0  0
  7  5  1  0  0  0  0
  8  3  1  0  0  0  0
 10 14  1  1  0  0  0
 10  2  1  0  0  0  0
 11  5  2  0  0  0  0
 11  1  1  0  0  0  0
 12  6  1  0  0  0  0
 12  4  2  0  0  0  0
 13 10  1  0  0  0  0
 13  6  1  0  0  0  0
 14 15  2  0  0  0  0
 14 17  1  0  0  0  0
 16 17  1  0  0  0  0
 18 12  1  0  0  0  0
 19 18  1  0  0  0  0
 20 19  1  0  0  0  0
 21 20  1  0  0  0  0
 22 21  1  0  0  0  0
 23 22  1  0  0  0  0
 23 24  1  0  0  0  0
 24 27  1  0  0  0  0
 25 28  1  0  0  0  0
 25 26  1  0  0  0  0
 27 25  2  0  0  0  0
 28 32  1  0  0  0  0
 29 31  1  0  0  0  0
 30 29  1  0  0  0  0
 32 31  2  0  0  0  0
 33 30  1  0  0  0  0
 33 28  2  0  0  0  0
 35 36  1  0  0  0  0
 35 34  1  0  0  0  0
 37 36  1  0  0  0  0
 38 37  1  0  0  0  0
 39 42  1  0  0  0  0
 40 39  1  0  0  0  0
 40 42  1  0  0  0  0
 41 40  2  0  0  0  0
 42 38  1  1  0  0  0
M  END
>  <MODEL>
3

>  <REMARK>
 VINA RESULT:      -6.8      3.363      6.384
  Name = 
  17 active torsions:
  status: ('A' for Active; 'I' for Inactive)
    1  A    between atoms: C_1  and  C_5
    2  A    between atoms: C_1  and  C_33
    3  A    between atoms: C_4  and  C_7
    4  A    between atoms: C_5  and  C_6
    5  A    between atoms: C_6  and  C_21
    6  A    between atoms: C_8  and  C_33
    7  A    between atoms: C_8  and  C_41
    8  A    between atoms: C_14  and  C_24
    9  A    between atoms: C_16  and  C_36
   10  A    between atoms: C_16  and  O_37
   11  A    between atoms: C_17  and  C_24
   12  A    between atoms: C_17  and  C_38
   13  A    between atoms: C_21  and  N_28
   14  A    between atoms: C_22  and  C_27
   15  A    between atoms: C_27  and  C_31
   16  A    between atoms: N_28  and  C_40
   17  A    between atoms: C_31  and  C_38
                            x       y       z     vdW  Elec       q    Type
                         _______ _______ _______ _____ _____    ______ ____

>  <TORSDO>
F 17

$$$$
=
 OpenBabel11042413373D

 42 46  0  0  1  0  0  0  0  0999 V2000
  191.9760  175.6260  146.6050 C   0  0  0  0  0  0  0  0  0  0  0  0
  195.9970  173.1280  145.3530 C   0  0  0  0  0  2  0  0  0  0  0  0
  190.6070  175.4650  146.4020 C   0  0  0  0  0  0  0  0  0  0  0  0
  191.9660  173.6440  145.3730 C   0  0  0  0  0  0  0  0  0  0  0  0
  194.1350  174.5040  146.0630 C   0  0  0  0  0  3  0  0  0  0  0  0
  193.9450  172.4410  144.7760 C   0  0  0  0  0  0  0  0  0  0  0  0
  194.7090  173.4000  145.4220 C   0  0  0  0  0  0  0  0  0  0  0  0
  190.3370  174.0500  145.5140 S   0  0  0  0  0  0  0  0  0  0  0  0
  192.5250  176.6880  147.3140 O   0  0  0  0  0  1  0  0  0  0  0  0
  196.1460  171.8500  144.5790 C   0  0  2  0  0  3  0  0  0  0  0  0
  192.7390  174.6080  146.0250 C   0  0  0  0  0  0  0  0  0  0  0  0
  192.5340  172.5340  144.7290 C   0  0  0  0  0  0  0  0  0  0  0  0
  194.7200  171.5010  144.2610 C   0  0  0  0  0  2  0  0  0  0  0  0
  196.7810  170.7750  145.4130 C   0  0  0  0  0  0  0  0  0  0  0  0
  197.9380  170.3590  145.1370 O   0  0  0  0  0  0  0  0  0  0  0  0
  196.6740  169.2380  147.2730 N   0  0  0  0  0  1  0  0  0  0  0  0
  196.1170  170.2460  146.5180 O   0  0  0  0  0  0  0  0  0  0  0  0
  191.6860  171.5740  144.0820 N   0  0  0  0  0  2  0  0  0  0  0  0
  191.1660  171.6970  142.7270 C   0  0  0  0  0  2  0  0  0  0  0  0
  189.6510  171.6040  142.7420 C   0  0  0  0  0  2  0  0  0  0  0  0
  189.0490  172.5800  141.7440 C   0  0  0  0  0  2  0  0  0  0  0  0
  189.9180  173.8210  141.6330 C   0  0  0  0  0  2  0  0  0  0  0  0
  189.1750  175.0350  142.1590 C   0  0  0  0  0  2  0  0  0  0  0  0
  190.1730  176.1100  142.5450 C   0  0  0  0  0  2  0  0  0  0  0  0
  192.6350  176.2410  142.8420 C   0  0  0  0  0  0  0  0  0  0  0  0
  192.4710  177.4070  143.5880 O   0  0  0  0  0  1  0  0  0  0  0  0
  191.5680  175.6180  142.3380 C   0  0  0  0  0  3  0  0  0  0  0  0
  193.9940  175.7070  142.6170 C   0  0  0  0  0  0  0  0  0  0  0  0
  196.5850  175.0420  141.6260 C   0  0  0  0  0  2  0  0  0  0  0  0
  196.4470  175.8130  142.9410 C   0  0  0  0  0  2  0  0  0  0  0  0
  195.4260  174.0990  141.4430 C   0  0  0  0  0  3  0  0  0  0  0  0
  194.2060  174.4380  141.8760 C   0  0  0  0  0  3  0  0  0  0  0  0
  195.0580  176.3780  143.0810 C   0  0  0  0  0  3  0  0  0  0  0  0
  189.5400  176.3660  146.9260 C   0  0  0  0  0  2  0  0  0  0  0  0
  188.1850  175.6800  146.8800 C   0  0  0  0  0  2  0  0  0  0  0  0
  187.1540  176.6000  146.2440 C   0  0  0  0  0  2  0  0  0  0  0  0
  187.8070  177.4970  145.2030 C   0  0  0  0  0  2  0  0  0  0  0  0
  186.7760  178.1280  144.2750 C   0  0  0  0  0  2  0  0  0  0  0  0
  186.0170  176.4070  142.8450 O   0  0  0  0  0  0  0  0  0  0  0  0
  185.0350  177.5370  142.7910 C   0  0  0  0  0  0  0  0  0  0  0  0
  184.2460  178.2850  142.1590 O   0  0  0  0  0  0  0  0  0  0  0  0
  185.6680  177.1390  143.9480 C   0  0  2  0  0  3  0  0  0  0  0  0
  1  9  1  0  0  0  0
  2  7  1  0  0  0  0
  3  1  2  0  0  0  0
  3 34  1  0  0  0  0
  4  8  1  0  0  0  0
  4 11  1  0  0  0  0
  6  7  2  0  0  0  0
  7  5  1  0  0  0  0
  8  3  1  0  0  0  0
 10  2  1  0  0  0  0
 10 14  1  1  0  0  0
 11  5  2  0  0  0  0
 11  1  1  0  0  0  0
 12  6  1  0  0  0  0
 12  4  2  0  0  0  0
 13 10  1  0  0  0  0
 13  6  1  0  0  0  0
 14 17  1  0  0  0  0
 15 14  2  0  0  0  0
 17 16  1  0  0  0  0
 18 12  1  0  0  0  0
 19 20  1  0  0  0  0
 19 18  1  0  0  0  0
 21 20  1  0  0  0  0
 22 21  1  0  0  0  0
 22 23  1  0  0  0  0
 23 24  1  0  0  0  0
 25 26  1  0  0  0  0
 27 24  1  0  0  0  0
 27 25  2  0  0  0  0
 28 25  1  0  0  0  0
 28 33  2  0  0  0  0
 29 30  1  0  0  0  0
 30 33  1  0  0  0  0
 31 29  1  0  0  0  0
 31 32  2  0  0  0  0
 32 28  1  0  0  0  0
 35 34  1  0  0  0  0
 36 35  1  0  0  0  0
 37 36  1  0  0  0  0
 38 37  1  0  0  0  0
 39 42  1  0  0  0  0
 40 39  1  0  0  0  0
 40 42  1  0  0  0  0
 41 40  2  0  0  0  0
 42 38  1  6  0  0  0
M  END
>  <MODEL>
4

>  <REMARK>
 VINA RESULT:      -6.8      3.367      6.676
  Name = 
  17 active torsions:
  status: ('A' for Active; 'I' for Inactive)
    1  A    between atoms: C_1  and  C_5
    2  A    between atoms: C_1  and  C_33
    3  A    between atoms: C_4  and  C_7
    4  A    between atoms: C_5  and  C_6
    5  A    between atoms: C_6  and  C_21
    6  A    between atoms: C_8  and  C_33
    7  A    between atoms: C_8  and  C_41
    8  A    between atoms: C_14  and  C_24
    9  A    between atoms: C_16  and  C_36
   10  A    between atoms: C_16  and  O_37
   11  A    between atoms: C_17  and  C_24
   12  A    between atoms: C_17  and  C_38
   13  A    between atoms: C_21  and  N_28
   14  A    between atoms: C_22  and  C_27
   15  A    between atoms: C_27  and  C_31
   16  A    between atoms: N_28  and  C_40
   17  A    between atoms: C_31  and  C_38
                            x       y       z     vdW  Elec       q    Type
                         _______ _______ _______ _____ _____    ______ ____

>  <TORSDO>
F 17

$$$$
=
 OpenBabel11042413373D

 42 46  0  0  1  0  0  0  0  0999 V2000
  189.9800  173.2680  143.4300 C   0  0  0  0  0  0  0  0  0  0  0  0
  194.0380  171.1020  145.1100 C   0  0  0  0  0  2  0  0  0  0  0  0
  189.6830  174.4970  142.8450 C   0  0  0  0  0  0  0  0  0  0  0  0
  192.1010  174.2390  143.3980 C   0  0  0  0  0  0  0  0  0  0  0  0
  191.9250  172.0030  144.3400 C   0  0  0  0  0  3  0  0  0  0  0  0
  194.0690  173.1590  144.2230 C   0  0  0  0  0  0  0  0  0  0  0  0
  193.3050  172.0550  144.5680 C   0  0  0  0  0  0  0  0  0  0  0  0
  191.1040  175.4040  142.7020 S   0  0  0  0  0  0  0  0  0  0  0  0
  189.0260  172.2860  143.6730 O   0  0  0  0  0  1  0  0  0  0  0  0
  195.4560  171.5940  145.1490 C   0  0  2  0  0  3  0  0  0  0  0  0
  191.3340  173.1240  143.7440 C   0  0  0  0  0  0  0  0  0  0  0  0
  193.4860  174.2990  143.6230 C   0  0  0  0  0  0  0  0  0  0  0  0
  195.3400  172.9580  144.5330 C   0  0  0  0  0  2  0  0  0  0  0  0
  196.3610  170.7180  144.3320 C   0  0  0  0  0  0  0  0  0  0  0  0
  197.6120  170.8420  144.4180 O   0  0  0  0  0  0  0  0  0  0  0  0
  195.9160  168.4010  143.8120 N   0  0  0  0  0  1  0  0  0  0  0  0
  195.8350  169.7380  143.4920 O   0  0  0  0  0  0  0  0  0  0  0  0
  194.2200  175.4710  143.2380 N   0  0  0  0  0  2  0  0  0  0  0  0
  194.9980  176.3050  144.1450 C   0  0  0  0  0  2  0  0  0  0  0  0
  194.0860  176.9320  145.1830 C   0  0  0  0  0  2  0  0  0  0  0  0
  194.2050  176.1950  146.5080 C   0  0  0  0  0  2  0  0  0  0  0  0
  192.8910  175.5130  146.8490 C   0  0  0  0  0  2  0  0  0  0  0  0
  191.7200  176.3610  146.3880 C   0  0  0  0  0  2  0  0  0  0  0  0
  190.8840  176.7630  147.5880 C   0  0  0  0  0  2  0  0  0  0  0  0
  188.5150  176.3020  147.0030 C   0  0  0  0  0  0  0  0  0  0  0  0
  188.7300  174.9480  147.2500 O   0  0  0  0  0  1  0  0  0  0  0  0
  189.5160  177.1730  147.1500 C   0  0  0  0  0  3  0  0  0  0  0  0
  187.1770  176.7620  146.5770 C   0  0  0  0  0  0  0  0  0  0  0  0
  184.9080  178.2280  145.6630 C   0  0  0  0  0  2  0  0  0  0  0  0
  185.4340  177.0500  144.8410 C   0  0  0  0  0  2  0  0  0  0  0  0
  185.1260  177.9870  147.1320 C   0  0  0  0  0  3  0  0  0  0  0  0
  186.2150  177.3330  147.5530 C   0  0  0  0  0  3  0  0  0  0  0  0
  186.8210  176.6700  145.2880 C   0  0  0  0  0  3  0  0  0  0  0  0
  188.3370  174.9310  142.3700 C   0  0  0  0  0  2  0  0  0  0  0  0
  188.3210  175.0770  140.8580 C   0  0  0  0  0  2  0  0  0  0  0  0
  187.5280  176.3120  140.4610 C   0  0  0  0  0  2  0  0  0  0  0  0
  187.8230  177.4660  141.4080 C   0  0  0  0  0  2  0  0  0  0  0  0
  186.5650  178.2580  141.7430 C   0  0  0  0  0  2  0  0  0  0  0  0
  184.7930  178.6730  140.2370 O   0  0  0  0  0  0  0  0  0  0  0  0
  184.2110  178.2300  141.5440 C   0  0  0  0  0  0  0  0  0  0  0  0
  183.3400  178.3070  142.4470 O   0  0  0  0  0  0  0  0  0  0  0  0
  185.3610  177.6940  141.0070 C   0  0  2  0  0  3  0  0  0  0  0  0
  1  9  1  0  0  0  0
  1 11  1  0  0  0  0
  2 10  1  0  0  0  0
  3  1  2  0  0  0  0
  4 12  2  0  0  0  0
  4 11  1  0  0  0  0
  5  7  1  0  0  0  0
  6 13  1  0  0  0  0
  6  7  2  0  0  0  0
  7  2  1  0  0  0  0
  8  3  1  0  0  0  0
  8  4  1  0  0  0  0
 10 14  1  6  0  0  0
 11  5  2  0  0  0  0
 12  6  1  0  0  0  0
 13 10  1  0  0  0  0
 14 15  2  0  0  0  0
 17 16  1  0  0  0  0
 17 14  1  0  0  0  0
 18 12  1  0  0  0  0
 18 19  1  0  0  0  0
 19 20  1  0  0  0  0
 20 21  1  0  0  0  0
 21 22  1  0  0  0  0
 23 22  1  0  0  0  0
 23 24  1  0  0  0  0
 25 27  2  0  0  0  0
 25 26  1  0  0  0  0
 27 24  1  0  0  0  0
 28 25  1  0  0  0  0
 28 32  1  0  0  0  0
 29 31  1  0  0  0  0
 30 33  1  0  0  0  0
 30 29  1  0  0  0  0
 31 32  2  0  0  0  0
 33 28  2  0  0  0  0
 34  3  1  0  0  0  0
 35 34  1  0  0  0  0
 36 35  1  0  0  0  0
 36 37  1  0  0  0  0
 37 38  1  0  0  0  0
 39 42  1  0  0  0  0
 39 40  1  0  0  0  0
 40 41  2  0  0  0  0
 42 40  1  0  0  0  0
 42 38  1  1  0  0  0
M  END
>  <MODEL>
5

>  <REMARK>
 VINA RESULT:      -6.7      3.123      7.423
  Name = 
  17 active torsions:
  status: ('A' for Active; 'I' for Inactive)
    1  A    between atoms: C_1  and  C_5
    2  A    between atoms: C_1  and  C_33
    3  A    between atoms: C_4  and  C_7
    4  A    between atoms: C_5  and  C_6
    5  A    between atoms: C_6  and  C_21
    6  A    between atoms: C_8  and  C_33
    7  A    between atoms: C_8  and  C_41
    8  A    between atoms: C_14  and  C_24
    9  A    between atoms: C_16  and  C_36
   10  A    between atoms: C_16  and  O_37
   11  A    between atoms: C_17  and  C_24
   12  A    between atoms: C_17  and  C_38
   13  A    between atoms: C_21  and  N_28
   14  A    between atoms: C_22  and  C_27
   15  A    between atoms: C_27  and  C_31
   16  A    between atoms: N_28  and  C_40
   17  A    between atoms: C_31  and  C_38
                            x       y       z     vdW  Elec       q    Type
                         _______ _______ _______ _____ _____    ______ ____

>  <TORSDO>
F 17

$$$$
=
 OpenBabel11042413373D

 42 46  0  0  1  0  0  0  0  0999 V2000
  191.6660  177.1580  142.8490 C   0  0  0  0  0  0  0  0  0  0  0  0
  186.9070  178.2140  143.3080 C   0  0  0  0  0  2  0  0  0  0  0  0
  192.3990  176.0420  142.4520 C   0  0  0  0  0  0  0  0  0  0  0  0
  189.9340  175.6700  142.3710 C   0  0  0  0  0  0  0  0  0  0  0  0
  189.3010  177.8850  143.1530 C   0  0  0  0  0  3  0  0  0  0  0  0
  187.6160  176.2100  142.6020 C   0  0  0  0  0  0  0  0  0  0  0  0
  187.9670  177.4780  143.0380 C   0  0  0  0  0  0  0  0  0  0  0  0
  191.3340  174.7950  142.0340 S   0  0  0  0  0  0  0  0  0  0  0  0
  192.2510  178.3570  143.2430 O   0  0  0  0  0  1  0  0  0  0  0  0
  185.6940  177.3720  143.0350 C   0  0  2  0  0  3  0  0  0  0  0  0
  190.2850  176.9490  142.8090 C   0  0  0  0  0  0  0  0  0  0  0  0
  188.5990  175.2550  142.2530 C   0  0  0  0  0  0  0  0  0  0  0  0
  186.3000  176.0790  142.5720 C   0  0  0  0  0  2  0  0  0  0  0  0
  184.8420  177.9740  141.9550 C   0  0  0  0  0  0  0  0  0  0  0  0
  185.3160  178.1590  140.8020 O   0  0  0  0  0  0  0  0  0  0  0  0
  182.5180  178.0050  141.2980 N   0  0  0  0  0  1  0  0  0  0  0  0
  183.5110  178.3090  142.2020 O   0  0  0  0  0  0  0  0  0  0  0  0
  188.3030  173.9280  141.7910 N   0  0  0  0  0  2  0  0  0  0  0  0
  189.2670  173.0190  141.1860 C   0  0  0  0  0  2  0  0  0  0  0  0
  189.5320  171.8500  142.1170 C   0  0  0  0  0  2  0  0  0  0  0  0
  189.0390  172.1670  143.5200 C   0  0  0  0  0  2  0  0  0  0  0  0
  190.2100  172.5190  144.4220 C   0  0  0  0  0  2  0  0  0  0  0  0
  189.7110  173.0990  145.7330 C   0  0  0  0  0  2  0  0  0  0  0  0
  189.8960  174.6040  145.7210 C   0  0  0  0  0  2  0  0  0  0  0  0
  188.5030  176.5030  146.5120 C   0  0  0  0  0  0  0  0  0  0  0  0
  189.6620  177.1830  146.8820 O   0  0  0  0  0  1  0  0  0  0  0  0
  188.5900  175.2860  145.9690 C   0  0  0  0  0  3  0  0  0  0  0  0
  187.1860  177.1380  146.7260 C   0  0  0  0  0  0  0  0  0  0  0  0
  184.7500  178.6080  146.5290 C   0  0  0  0  0  2  0  0  0  0  0  0
  184.7120  177.0810  146.6340 C   0  0  0  0  0  2  0  0  0  0  0  0
  185.9220  179.1600  147.2950 C   0  0  0  0  0  3  0  0  0  0  0  0
  187.0740  178.4810  147.3470 C   0  0  0  0  0  3  0  0  0  0  0  0
  186.0700  176.4970  146.3490 C   0  0  0  0  0  3  0  0  0  0  0  0
  193.8860  175.9680  142.3570 C   0  0  0  0  0  2  0  0  0  0  0  0
  194.4040  174.6900  142.9960 C   0  0  0  0  0  2  0  0  0  0  0  0
  193.5210  174.2970  144.1690 C   0  0  0  0  0  2  0  0  0  0  0  0
  194.3630  174.0270  145.4080 C   0  0  0  0  0  2  0  0  0  0  0  0
  194.9970  175.3030  145.9500 C   0  0  0  0  0  2  0  0  0  0  0  0
  194.3400  177.3800  146.8640 O   0  0  0  0  0  0  0  0  0  0  0  0
  193.2160  176.4060  147.0410 C   0  0  0  0  0  0  0  0  0  0  0  0
  192.2770  175.9150  147.7180 O   0  0  0  0  0  0  0  0  0  0  0  0
  194.0050  176.4540  145.9120 C   0  0  2  0  0  3  0  0  0  0  0  0
  1  9  1  0  0  0  0
  3  1  2  0  0  0  0
  4 11  1  0  0  0  0
  6  7  2  0  0  0  0
  7  5  1  0  0  0  0
  7  2  1  0  0  0  0
  8  4  1  0  0  0  0
  8  3  1  0  0  0  0
 10 14  1  6  0  0  0
 10  2  1  0  0  0  0
 11  1  1  0  0  0  0
 11  5  2  0  0  0  0
 12  4  2  0  0  0  0
 12  6  1  0  0  0  0
 13  6  1  0  0  0  0
 13 10  1  0  0  0  0
 14 17  1  0  0  0  0
 15 14  2  0  0  0  0
 16 17  1  0  0  0  0
 18 12  1  0  0  0  0
 19 18  1  0  0  0  0
 19 20  1  0  0  0  0
 20 21  1  0  0  0  0
 21 22  1  0  0  0  0
 22 23  1  0  0  0  0
 24 23  1  0  0  0  0
 24 27  1  0  0  0  0
 25 28  1  0  0  0  0
 25 26  1  0  0  0  0
 27 25  2  0  0  0  0
 28 32  1  0  0  0  0
 29 30  1  0  0  0  0
 29 31  1  0  0  0  0
 31 32  2  0  0  0  0
 33 30  1  0  0  0  0
 33 28  2  0  0  0  0
 34  3  1  0  0  0  0
 34 35  1  0  0  0  0
 35 36  1  0  0  0  0
 36 37  1  0  0  0  0
 37 38  1  0  0  0  0
 39 40  1  0  0  0  0
 40 41  2  0  0  0  0
 42 38  1  1  0  0  0
 42 39  1  0  0  0  0
 42 40  1  0  0  0  0
M  END
>  <MODEL>
6

>  <REMARK>
 VINA RESULT:      -6.6      3.071      8.922
  Name = 
  17 active torsions:
  status: ('A' for Active; 'I' for Inactive)
    1  A    between atoms: C_1  and  C_5
    2  A    between atoms: C_1  and  C_33
    3  A    between atoms: C_4  and  C_7
    4  A    between atoms: C_5  and  C_6
    5  A    between atoms: C_6  and  C_21
    6  A    between atoms: C_8  and  C_33
    7  A    between atoms: C_8  and  C_41
    8  A    between atoms: C_14  and  C_24
    9  A    between atoms: C_16  and  C_36
   10  A    between atoms: C_16  and  O_37
   11  A    between atoms: C_17  and  C_24
   12  A    between atoms: C_17  and  C_38
   13  A    between atoms: C_21  and  N_28
   14  A    between atoms: C_22  and  C_27
   15  A    between atoms: C_27  and  C_31
   16  A    between atoms: N_28  and  C_40
   17  A    between atoms: C_31  and  C_38
                            x       y       z     vdW  Elec       q    Type
                         _______ _______ _______ _____ _____    ______ ____

>  <TORSDO>
F 17

$$$$
=
 OpenBabel11042413373D

 42 46  0  0  1  0  0  0  0  0999 V2000
  190.5130  176.9900  143.6900 C   0  0  0  0  0  0  0  0  0  0  0  0
  194.8800  175.8220  141.8060 C   0  0  0  0  0  2  0  0  0  0  0  0
  189.2990  176.3280  143.8600 C   0  0  0  0  0  0  0  0  0  0  0  0
  191.0390  174.9100  142.7710 C   0  0  0  0  0  0  0  0  0  0  0  0
  192.7970  176.5920  142.7740 C   0  0  0  0  0  3  0  0  0  0  0  0
  193.1810  174.3640  141.8590 C   0  0  0  0  0  0  0  0  0  0  0  0
  193.6220  175.6430  142.1600 C   0  0  0  0  0  0  0  0  0  0  0  0
  189.4350  174.7510  143.2620 S   0  0  0  0  0  0  0  0  0  0  0  0
  190.7320  178.3030  144.0920 O   0  0  0  0  0  1  0  0  0  0  0  0
  195.3620  174.5390  141.1930 C   0  0  2  0  0  3  0  0  0  0  0  0
  191.4870  176.1980  143.0750 C   0  0  0  0  0  0  0  0  0  0  0  0
  191.8600  173.9530  142.1560 C   0  0  0  0  0  0  0  0  0  0  0  0
  194.1490  173.6610  141.2930 C   0  0  0  0  0  2  0  0  0  0  0  0
  196.5040  173.9560  141.9750 C   0  0  0  0  0  0  0  0  0  0  0  0
  197.1950  173.0210  141.4870 O   0  0  0  0  0  0  0  0  0  0  0  0
  197.9410  175.2550  143.4170 N   0  0  0  0  0  1  0  0  0  0  0  0
  196.8350  174.4560  143.2330 O   0  0  0  0  0  0  0  0  0  0  0  0
  191.3420  172.6440  141.8750 N   0  0  0  0  0  2  0  0  0  0  0  0
  191.4050  171.5070  142.7830 C   0  0  0  0  0  2  0  0  0  0  0  0
  191.8710  170.2710  142.0360 C   0  0  0  0  0  2  0  0  0  0  0  0
  192.6280  169.3410  142.9690 C   0  0  0  0  0  2  0  0  0  0  0  0
  192.9750  170.0600  144.2610 C   0  0  0  0  0  2  0  0  0  0  0  0
  194.4280  169.8190  144.6270 C   0  0  0  0  0  2  0  0  0  0  0  0
  195.2370  171.0680  144.3340 C   0  0  0  0  0  2  0  0  0  0  0  0
  194.9340  173.2410  145.4980 C   0  0  0  0  0  0  0  0  0  0  0  0
  196.2120  173.1150  146.0390 O   0  0  0  0  0  1  0  0  0  0  0  0
  194.4540  172.2870  144.6970 C   0  0  0  0  0  3  0  0  0  0  0  0
  194.1220  174.4330  145.8180 C   0  0  0  0  0  0  0  0  0  0  0  0
  192.7050  176.5720  147.0630 C   0  0  0  0  0  2  0  0  0  0  0  0
  193.8980  176.8770  146.1550 C   0  0  0  0  0  2  0  0  0  0  0  0
  191.9790  175.3430  146.5870 C   0  0  0  0  0  3  0  0  0  0  0  0
  192.6590  174.3280  146.0410 C   0  0  0  0  0  3  0  0  0  0  0  0
  194.7130  175.6330  145.9160 C   0  0  0  0  0  3  0  0  0  0  0  0
  188.0840  176.8970  144.5130 C   0  0  0  0  0  2  0  0  0  0  0  0
  188.3640  177.2400  145.9660 C   0  0  0  0  0  2  0  0  0  0  0  0
  187.5090  176.3780  146.8810 C   0  0  0  0  0  2  0  0  0  0  0  0
  186.3200  177.1690  147.4060 C   0  0  0  0  0  2  0  0  0  0  0  0
  185.2460  177.3520  146.3390 C   0  0  0  0  0  2  0  0  0  0  0  0
  183.7320  179.0080  145.6010 O   0  0  0  0  0  0  0  0  0  0  0  0
  184.9300  179.0230  144.7000 C   0  0  0  0  0  0  0  0  0  0  0  0
  185.4540  179.1240  143.5620 O   0  0  0  0  0  0  0  0  0  0  0  0
  185.0090  178.8270  146.0620 C   0  0  2  0  0  3  0  0  0  0  0  0
  1  3  2  0  0  0  0
  1  9  1  0  0  0  0
  2  7  1  0  0  0  0
  3 34  1  0  0  0  0
  4 11  1  0  0  0  0
  4  8  1  0  0  0  0
  5 11  2  0  0  0  0
  6 12  1  0  0  0  0
  6  7  2  0  0  0  0
  7  5  1  0  0  0  0
  8  3  1  0  0  0  0
 10 13  1  0  0  0  0
 10  2  1  0  0  0  0
 10 14  1  1  0  0  0
 11  1  1  0  0  0  0
 12  4  2  0  0  0  0
 13  6  1  0  0  0  0
 14 17  1  0  0  0  0
 15 14  2  0  0  0  0
 17 16  1  0  0  0  0
 18 12  1  0  0  0  0
 18 19  1  0  0  0  0
 20 19  1  0  0  0  0
 20 21  1  0  0  0  0
 21 22  1  0  0  0  0
 22 23  1  0  0  0  0
 24 23  1  0  0  0  0
 24 27  1  0  0  0  0
 25 28  1  0  0  0  0
 25 26  1  0  0  0  0
 27 25  2  0  0  0  0
 28 33  2  0  0  0  0
 28 32  1  0  0  0  0
 30 29  1  0  0  0  0
 31 29  1  0  0  0  0
 32 31  2  0  0  0  0
 33 30  1  0  0  0  0
 34 35  1  0  0  0  0
 35 36  1  0  0  0  0
 36 37  1  0  0  0  0
 38 37  1  0  0  0  0
 39 42  1  0  0  0  0
 40 39  1  0  0  0  0
 40 42  1  0  0  0  0
 41 40  2  0  0  0  0
 42 38  1  6  0  0  0
M  END
>  <MODEL>
7

>  <REMARK>
 VINA RESULT:      -6.5      3.556      6.287
  Name = 
  17 active torsions:
  status: ('A' for Active; 'I' for Inactive)
    1  A    between atoms: C_1  and  C_5
    2  A    between atoms: C_1  and  C_33
    3  A    between atoms: C_4  and  C_7
    4  A    between atoms: C_5  and  C_6
    5  A    between atoms: C_6  and  C_21
    6  A    between atoms: C_8  and  C_33
    7  A    between atoms: C_8  and  C_41
    8  A    between atoms: C_14  and  C_24
    9  A    between atoms: C_16  and  C_36
   10  A    between atoms: C_16  and  O_37
   11  A    between atoms: C_17  and  C_24
   12  A    between atoms: C_17  and  C_38
   13  A    between atoms: C_21  and  N_28
   14  A    between atoms: C_22  and  C_27
   15  A    between atoms: C_27  and  C_31
   16  A    between atoms: N_28  and  C_40
   17  A    between atoms: C_31  and  C_38
                            x       y       z     vdW  Elec       q    Type
                         _______ _______ _______ _____ _____    ______ ____

>  <TORSDO>
F 17

$$$$
=
 OpenBabel11042413373D

 42 46  0  0  1  0  0  0  0  0999 V2000
  190.0150  172.7650  141.8080 C   0  0  0  0  0  0  0  0  0  0  0  0
  193.1120  174.7900  145.0160 C   0  0  0  0  0  2  0  0  0  0  0  0
  188.9810  173.2320  141.0000 C   0  0  0  0  0  0  0  0  0  0  0  0
  190.0480  175.0330  142.3560 C   0  0  0  0  0  0  0  0  0  0  0  0
  191.6700  173.6040  143.4730 C   0  0  0  0  0  3  0  0  0  0  0  0
  191.5730  175.9980  143.9260 C   0  0  0  0  0  0  0  0  0  0  0  0
  192.1280  174.7460  144.1390 C   0  0  0  0  0  0  0  0  0  0  0  0
  188.8120  174.9010  141.2200 S   0  0  0  0  0  0  0  0  0  0  0  0
  190.4150  171.4340  141.8460 O   0  0  0  0  0  1  0  0  0  0  0  0
  193.2550  176.2170  145.4610 C   0  0  2  0  0  3  0  0  0  0  0  0
  190.6110  173.7720  142.5720 C   0  0  0  0  0  0  0  0  0  0  0  0
  190.5020  176.1830  143.0200 C   0  0  0  0  0  0  0  0  0  0  0  0
  192.1860  176.9090  144.6650 C   0  0  0  0  0  2  0  0  0  0  0  0
  194.6100  176.7640  145.1150 C   0  0  0  0  0  0  0  0  0  0  0  0
  194.9510  177.9110  145.5110 O   0  0  0  0  0  0  0  0  0  0  0  0
  195.9880  176.4310  143.1600 N   0  0  0  0  0  1  0  0  0  0  0  0
  195.5190  176.0030  144.3810 O   0  0  0  0  0  0  0  0  0  0  0  0
  189.8860  177.4510  142.7510 N   0  0  0  0  0  2  0  0  0  0  0  0
  188.6350  177.9140  143.3360 C   0  0  0  0  0  2  0  0  0  0  0  0
  187.6870  178.3660  142.2400 C   0  0  0  0  0  2  0  0  0  0  0  0
  186.2530  178.0090  142.5990 C   0  0  0  0  0  2  0  0  0  0  0  0
  185.6500  179.0840  143.4870 C   0  0  0  0  0  2  0  0  0  0  0  0
  184.4650  178.5300  144.2570 C   0  0  0  0  0  2  0  0  0  0  0  0
  184.8470  178.3550  145.7140 C   0  0  0  0  0  2  0  0  0  0  0  0
  186.9900  177.7570  146.8190 C   0  0  0  0  0  0  0  0  0  0  0  0
  186.7350  178.7120  147.8020 O   0  0  0  0  0  1  0  0  0  0  0  0
  186.1180  177.5770  145.8250 C   0  0  0  0  0  3  0  0  0  0  0  0
  188.2270  176.9530  146.8880 C   0  0  0  0  0  0  0  0  0  0  0  0
  190.4170  175.2910  147.6470 C   0  0  0  0  0  2  0  0  0  0  0  0
  189.4520  174.8270  146.5530 C   0  0  0  0  0  2  0  0  0  0  0  0
  190.5600  176.7890  147.6240 C   0  0  0  0  0  3  0  0  0  0  0  0
  189.5150  177.5610  147.3060 C   0  0  0  0  0  3  0  0  0  0  0  0
  188.1910  175.6500  146.5760 C   0  0  0  0  0  3  0  0  0  0  0  0
  188.1800  172.4060  140.0500 C   0  0  0  0  0  2  0  0  0  0  0  0
  188.5800  172.6970  138.6130 C   0  0  0  0  0  2  0  0  0  0  0  0
  189.6970  171.7600  138.1820 C   0  0  0  0  0  2  0  0  0  0  0  0
  190.9640  172.5440  137.8700 C   0  0  0  0  0  2  0  0  0  0  0  0
  192.1850  171.9400  138.5540 C   0  0  0  0  0  2  0  0  0  0  0  0
  192.1580  174.1390  139.4170 O   0  0  0  0  0  0  0  0  0  0  0  0
  193.4740  173.9110  138.7390 C   0  0  0  0  0  0  0  0  0  0  0  0
  194.4280  174.3030  138.0200 O   0  0  0  0  0  0  0  0  0  0  0  0
  192.8320  172.9500  139.4880 C   0  0  2  0  0  3  0  0  0  0  0  0
  1  9  1  0  0  0  0
  1 11  1  0  0  0  0
  2 10  1  0  0  0  0
  3  8  1  0  0  0  0
  3  1  2  0  0  0  0
  4 11  2  0  0  0  0
  4 12  1  0  0  0  0
  5  7  2  0  0  0  0
  6  7  1  0  0  0  0
  6 13  1  0  0  0  0
  7  2  1  0  0  0  0
  8  4  1  0  0  0  0
 10 14  1  6  0  0  0
 11  5  1  0  0  0  0
 12  6  2  0  0  0  0
 13 10  1  0  0  0  0
 14 15  2  0  0  0  0
 16 17  1  0  0  0  0
 17 14  1  0  0  0  0
 18 12  1  0  0  0  0
 18 19  1  0  0  0  0
 20 21  1  0  0  0  0
 20 19  1  0  0  0  0
 21 22  1  0  0  0  0
 22 23  1  0  0  0  0
 23 24  1  0  0  0  0
 24 27  1  0  0  0  0
 25 28  1  0  0  0  0
 25 26  1  0  0  0  0
 27 25  2  0  0  0  0
 28 32  1  0  0  0  0
 30 33  1  0  0  0  0
 30 29  1  0  0  0  0
 31 29  1  0  0  0  0
 32 31  2  0  0  0  0
 33 28  2  0  0  0  0
 34  3  1  0  0  0  0
 35 34  1  0  0  0  0
 36 35  1  0  0  0  0
 37 36  1  0  0  0  0
 37 38  1  0  0  0  0
 39 42  1  0  0  0  0
 40 39  1  0  0  0  0
 40 42  1  0  0  0  0
 41 40  2  0  0  0  0
 42 38  1  6  0  0  0
M  END
>  <MODEL>
8

>  <REMARK>
 VINA RESULT:      -6.5      3.658      8.448
  Name = 
  17 active torsions:
  status: ('A' for Active; 'I' for Inactive)
    1  A    between atoms: C_1  and  C_5
    2  A    between atoms: C_1  and  C_33
    3  A    between atoms: C_4  and  C_7
    4  A    between atoms: C_5  and  C_6
    5  A    between atoms: C_6  and  C_21
    6  A    between atoms: C_8  and  C_33
    7  A    between atoms: C_8  and  C_41
    8  A    between atoms: C_14  and  C_24
    9  A    between atoms: C_16  and  C_36
   10  A    between atoms: C_16  and  O_37
   11  A    between atoms: C_17  and  C_24
   12  A    between atoms: C_17  and  C_38
   13  A    between atoms: C_21  and  N_28
   14  A    between atoms: C_22  and  C_27
   15  A    between atoms: C_27  and  C_31
   16  A    between atoms: N_28  and  C_40
   17  A    between atoms: C_31  and  C_38
                            x       y       z     vdW  Elec       q    Type
                         _______ _______ _______ _____ _____    ______ ____

>  <TORSDO>
F 17

$$$$
=
 OpenBabel11042413373D

 42 46  0  0  1  0  0  0  0  0999 V2000
  188.7830  173.2540  142.3710 C   0  0  0  0  0  0  0  0  0  0  0  0
  185.8490  177.1510  141.9380 C   0  0  0  0  0  2  0  0  0  0  0  0
  190.1350  173.0580  142.6400 C   0  0  0  0  0  0  0  0  0  0  0  0
  189.4850  175.4660  142.6140 C   0  0  0  0  0  0  0  0  0  0  0  0
  187.1330  175.1040  142.1070 C   0  0  0  0  0  3  0  0  0  0  0  0
  188.0320  177.3530  142.3990 C   0  0  0  0  0  0  0  0  0  0  0  0
  186.9750  176.4950  142.1370 C   0  0  0  0  0  0  0  0  0  0  0  0
  190.8810  174.5590  142.8700 S   0  0  0  0  0  0  0  0  0  0  0  0
  187.8880  172.2130  142.1480 O   0  0  0  0  0  1  0  0  0  0  0  0
  186.1530  178.6160  142.0720 C   0  0  2  0  0  3  0  0  0  0  0  0
  188.4180  174.6030  142.3510 C   0  0  0  0  0  0  0  0  0  0  0  0
  189.3350  176.8610  142.6470 C   0  0  0  0  0  0  0  0  0  0  0  0
  187.6220  178.6110  142.3800 C   0  0  0  0  0  2  0  0  0  0  0  0
  185.3770  179.2340  143.1990 C   0  0  0  0  0  0  0  0  0  0  0  0
  185.9400  180.0330  143.9940 O   0  0  0  0  0  0  0  0  0  0  0  0
  183.3730  179.2330  144.5480 N   0  0  0  0  0  1  0  0  0  0  0  0
  184.0200  178.9580  143.3650 O   0  0  0  0  0  0  0  0  0  0  0  0
  190.4690  177.6940  142.9280 N   0  0  0  0  0  2  0  0  0  0  0  0
  190.9840  177.9830  144.2600 C   0  0  0  0  0  2  0  0  0  0  0  0
  192.5010  177.9650  144.2440 C   0  0  0  0  0  2  0  0  0  0  0  0
  193.0200  176.6050  144.6850 C   0  0  0  0  0  2  0  0  0  0  0  0
  192.7830  176.4090  146.1730 C   0  0  0  0  0  2  0  0  0  0  0  0
  192.0040  175.1300  146.4190 C   0  0  0  0  0  2  0  0  0  0  0  0
  191.1410  175.2950  147.6550 C   0  0  0  0  0  2  0  0  0  0  0  0
  189.2570  176.8700  147.2810 C   0  0  0  0  0  0  0  0  0  0  0  0
  190.0740  177.9240  147.6860 O   0  0  0  0  0  1  0  0  0  0  0  0
  189.7370  175.6240  147.2640 C   0  0  0  0  0  3  0  0  0  0  0  0
  187.8640  177.1430  146.8740 C   0  0  0  0  0  0  0  0  0  0  0  0
  185.0330  177.1950  146.5320 C   0  0  0  0  0  2  0  0  0  0  0  0
  185.7550  178.4240  147.0870 C   0  0  0  0  0  2  0  0  0  0  0  0
  185.9120  176.4620  145.5560 C   0  0  0  0  0  3  0  0  0  0  0  0
  187.2350  176.4100  145.7470 C   0  0  0  0  0  3  0  0  0  0  0  0
  187.1470  178.0640  147.5350 C   0  0  0  0  0  3  0  0  0  0  0  0
  190.8140  171.7350  142.7610 C   0  0  0  0  0  2  0  0  0  0  0  0
  191.4650  171.5850  144.1250 C   0  0  0  0  0  2  0  0  0  0  0  0
  192.9620  171.3660  143.9690 C   0  0  0  0  0  2  0  0  0  0  0  0
  193.7280  172.1030  145.0590 C   0  0  0  0  0  2  0  0  0  0  0  0
  195.2100  171.7470  145.0460 C   0  0  0  0  0  2  0  0  0  0  0  0
  195.3300  173.9960  145.7600 O   0  0  0  0  0  0  0  0  0  0  0  0
  195.6120  173.9490  144.2900 C   0  0  0  0  0  0  0  0  0  0  0  0
  195.5020  174.4190  143.1290 O   0  0  0  0  0  0  0  0  0  0  0  0
  196.0640  172.9980  145.1780 C   0  0  2  0  0  3  0  0  0  0  0  0
  1  3  2  0  0  0  0
  2 10  1  0  0  0  0
  2  7  1  0  0  0  0
  3 34  1  0  0  0  0
  3  8  1  0  0  0  0
  4 12  1  0  0  0  0
  4  8  1  0  0  0  0
  5  7  2  0  0  0  0
  5 11  1  0  0  0  0
  6 12  2  0  0  0  0
  7  6  1  0  0  0  0
  9  1  1  0  0  0  0
 10 13  1  0  0  0  0
 10 14  1  1  0  0  0
 11  1  1  0  0  0  0
 11  4  2  0  0  0  0
 12 18  1  0  0  0  0
 13  6  1  0  0  0  0
 14 17  1  0  0  0  0
 14 15  2  0  0  0  0
 17 16  1  0  0  0  0
 18 19  1  0  0  0  0
 20 19  1  0  0  0  0
 20 21  1  0  0  0  0
 21 22  1  0  0  0  0
 22 23  1  0  0  0  0
 23 24  1  0  0  0  0
 25 26  1  0  0  0  0
 27 25  2  0  0  0  0
 27 24  1  0  0  0  0
 28 25  1  0  0  0  0
 28 33  2  0  0  0  0
 29 30  1  0  0  0  0
 30 33  1  0  0  0  0
 31 32  2  0  0  0  0
 31 29  1  0  0  0  0
 32 28  1  0  0  0  0
 34 35  1  0  0  0  0
 36 35  1  0  0  0  0
 36 37  1  0  0  0  0
 38 37  1  0  0  0  0
 40 42  1  0  0  0  0
 40 39  1  0  0  0  0
 41 40  2  0  0  0  0
 42 38  1  6  0  0  0
 42 39  1  0  0  0  0
M  END
>  <MODEL>
9

>  <REMARK>
 VINA RESULT:      -6.5      3.399      9.383
  Name = 
  17 active torsions:
  status: ('A' for Active; 'I' for Inactive)
    1  A    between atoms: C_1  and  C_5
    2  A    between atoms: C_1  and  C_33
    3  A    between atoms: C_4  and  C_7
    4  A    between atoms: C_5  and  C_6
    5  A    between atoms: C_6  and  C_21
    6  A    between atoms: C_8  and  C_33
    7  A    between atoms: C_8  and  C_41
    8  A    between atoms: C_14  and  C_24
    9  A    between atoms: C_16  and  C_36
   10  A    between atoms: C_16  and  O_37
   11  A    between atoms: C_17  and  C_24
   12  A    between atoms: C_17  and  C_38
   13  A    between atoms: C_21  and  N_28
   14  A    between atoms: C_22  and  C_27
   15  A    between atoms: C_27  and  C_31
   16  A    between atoms: N_28  and  C_40
   17  A    between atoms: C_31  and  C_38
                            x       y       z     vdW  Elec       q    Type
                         _______ _______ _______ _____ _____    ______ ____

>  <TORSDO>
F 17

$$$$
