=
 OpenBabel11042418403D

 34 39  0  0  0  0  0  0  0  0999 V2000
  193.6880  173.7110  144.5200 C   0  0  0  0  0  0  0  0  0  0  0  0
  196.8260  172.5460  146.1000 C   0  0  0  0  0  3  0  0  0  0  0  0
  195.9160  174.6510  145.9420 N   0  0  0  0  0  0  0  0  0  0  0  0
  191.6480  174.4110  143.4770 C   0  0  0  0  0  0  0  0  0  0  0  0
  192.5040  173.4110  143.8970 N   0  0  0  0  0  0  0  0  0  0  0  0
  193.1710  176.0470  144.3420 C   0  0  0  0  0  0  0  0  0  0  0  0
  193.7250  177.2730  144.8330 N   0  0  0  0  0  0  0  0  0  0  0  0
  191.9570  175.7810  143.7100 C   0  0  0  0  0  3  0  0  0  0  0  0
  195.0000  175.4970  145.4100 C   0  0  0  0  0  0  0  0  0  0  0  0
  193.9730  175.0330  144.7010 C   0  0  0  0  0  0  0  0  0  0  0  0
  194.9120  176.9170  145.5220 N   0  0  0  0  0  0  0  0  0  0  0  0
  197.0500  171.1240  145.7100 C   0  0  0  0  0  2  0  0  0  0  0  0
  196.0100  170.2040  146.2400 C   0  0  0  0  0  0  0  0  0  0  0  0
  194.7350  170.3540  145.8880 C   0  0  0  0  0  3  0  0  0  0  0  0
  195.7740  173.2930  145.7520 C   0  0  0  0  0  0  0  0  0  0  0  0
  194.1540  171.4950  145.1590 C   0  0  0  0  0  3  0  0  0  0  0  0
  194.5810  172.7720  145.0980 C   0  0  0  0  0  0  0  0  0  0  0  0
  196.4150  169.0550  147.0010 N   0  0  0  0  0  0  0  0  0  0  0  0
  197.7310  168.6560  146.9990 O   0  0  0  0  0  0  0  0  0  0  0  0
  195.5870  168.4160  147.6830 O   0  0  0  0  0  0  0  0  0  0  0  0
  190.3840  174.0530  142.7730 C   0  0  0  0  0  2  0  0  0  0  0  0
  187.3310  176.2030  142.8430 C   0  0  0  0  0  3  0  0  0  0  0  0
  189.1430  175.1290  144.6600 C   0  0  0  0  0  3  0  0  0  0  0  0
  185.9890  177.5480  146.0260 C   0  0  0  0  0  0  0  0  0  0  0  0
  186.1300  177.2790  144.6570 C   0  0  0  0  0  3  0  0  0  0  0  0
  187.1770  176.4740  144.2040 C   0  0  0  0  0  0  0  0  0  0  0  0
  187.9590  176.1960  146.4870 C   0  0  0  0  0  3  0  0  0  0  0  0
  188.0970  175.9290  145.1230 C   0  0  0  0  0  0  0  0  0  0  0  0
  186.9090  177.0020  146.9360 C   0  0  0  0  0  3  0  0  0  0  0  0
  189.2550  174.8790  143.2890 C   0  0  0  0  0  0  0  0  0  0  0  0
  188.3590  175.4210  142.4190 N   0  0  0  0  0  0  0  0  0  0  0  0
  184.8860  178.3980  146.5000 C   0  0  0  0  0  0  0  0  0  0  0  0
  184.7250  178.6110  147.7320 O   0  0  0  0  0  1  0  0  0  0  0  0
  184.0070  178.9760  145.5900 O   0  0  0  0  0  0  0  0  0  0  0  0
  1 10  1  0  0  0  0
  1 17  1  0  0  0  0
  4  8  2  0  0  0  0
  4  5  1  0  0  0  0
  5  1  2  0  0  0  0
  6 10  2  0  0  0  0
  6  7  1  0  0  0  0
  7 11  2  0  0  0  0
  8  6  1  0  0  0  0
  9 11  1  0  0  0  0
  9  3  2  0  0  0  0
 10  9  1  0  0  0  0
 12  2  1  0  0  0  0
 12 13  1  0  0  0  0
 13 18  1  0  0  0  0
 14 13  2  0  0  0  0
 15  3  1  0  0  0  0
 15  2  2  0  0  0  0
 16 14  1  0  0  0  0
 17 16  2  0  0  0  0
 17 15  1  0  0  0  0
 18 20  2  0  0  0  0
 19 18  2  0  0  0  0
 21 30  1  0  0  0  0
 21  4  1  0  0  0  0
 22 26  1  0  0  0  0
 23 28  1  0  0  0  0
 24 32  1  0  0  0  0
 24 29  1  0  0  0  0
 25 24  2  0  0  0  0
 26 25  1  0  0  0  0
 26 28  2  0  0  0  0
 27 29  2  0  0  0  0
 28 27  1  0  0  0  0
 30 23  2  0  0  0  0
 31 22  2  0  0  0  0
 31 30  1  0  0  0  0
 32 33  1  0  0  0  0
 34 32  2  0  0  0  0
M  END
>  <MODEL>
1

>  <REMARK>
 VINA RESULT:      -8.7      0.000      0.000
  Name = 
  4 active torsions:
  status: ('A' for Active; 'I' for Inactive)
    1  A    between atoms: N_3  and  C_25
    2  A    between atoms: C_7  and  C_11
    3  A    between atoms: C_8  and  C_18
    4  A    between atoms: C_18  and  C_30
                            x       y       z     vdW  Elec       q    Type
                         _______ _______ _______ _____ _____    ______ ____

>  <TORSDO>
F 4

$$$$
=
 OpenBabel11042418403D

 34 39  0  0  0  0  0  0  0  0999 V2000
  191.9940  175.0690  145.2400 C   0  0  0  0  0  0  0  0  0  0  0  0
  195.2020  173.6470  144.0600 C   0  0  0  0  0  3  0  0  0  0  0  0
  193.0940  172.7330  144.1430 N   0  0  0  0  0  0  0  0  0  0  0  0
  189.9480  176.0370  146.0220 C   0  0  0  0  0  0  0  0  0  0  0  0
  191.2860  176.1500  145.6960 N   0  0  0  0  0  0  0  0  0  0  0  0
  190.0150  173.7240  145.3990 C   0  0  0  0  0  0  0  0  0  0  0  0
  189.6250  172.4020  145.0120 N   0  0  0  0  0  0  0  0  0  0  0  0
  189.2600  174.8010  145.8620 C   0  0  0  0  0  3  0  0  0  0  0  0
  191.8090  172.7850  144.5680 C   0  0  0  0  0  0  0  0  0  0  0  0
  191.3180  173.8900  145.1270 C   0  0  0  0  0  0  0  0  0  0  0  0
  190.7870  171.7920  144.4770 N   0  0  0  0  0  0  0  0  0  0  0  0
  196.3010  174.5790  144.4450 C   0  0  0  0  0  2  0  0  0  0  0  0
  196.2120  175.8970  143.7630 C   0  0  0  0  0  0  0  0  0  0  0  0
  195.1520  176.6820  143.9490 C   0  0  0  0  0  3  0  0  0  0  0  0
  193.8990  173.8440  144.2830 C   0  0  0  0  0  0  0  0  0  0  0  0
  193.8930  176.3120  144.6200 C   0  0  0  0  0  3  0  0  0  0  0  0
  193.3310  175.0960  144.7640 C   0  0  0  0  0  0  0  0  0  0  0  0
  197.3500  176.3870  143.0380 N   0  0  0  0  0  0  0  0  0  0  0  0
  197.9410  175.6050  142.0730 O   0  0  0  0  0  0  0  0  0  0  0  0
  197.8070  177.5280  143.2590 O   0  0  0  0  0  0  0  0  0  0  0  0
  189.2130  177.2220  146.5470 C   0  0  0  0  0  2  0  0  0  0  0  0
  185.5900  177.5990  145.7200 C   0  0  0  0  0  3  0  0  0  0  0  0
  188.0270  177.6160  144.3790 C   0  0  0  0  0  3  0  0  0  0  0  0
  184.4510  178.1290  142.2330 C   0  0  0  0  0  0  0  0  0  0  0  0
  184.4190  177.9500  143.6230 C   0  0  0  0  0  3  0  0  0  0  0  0
  185.6090  177.7810  144.3360 C   0  0  0  0  0  0  0  0  0  0  0  0
  186.8780  177.9660  142.2740 C   0  0  0  0  0  3  0  0  0  0  0  0
  186.8450  177.7900  143.6590 C   0  0  0  0  0  0  0  0  0  0  0  0
  185.6850  178.1350  141.5640 C   0  0  0  0  0  3  0  0  0  0  0  0
  187.9630  177.4420  145.7650 C   0  0  0  0  0  0  0  0  0  0  0  0
  186.7570  177.4310  146.3980 N   0  0  0  0  0  0  0  0  0  0  0  0
  183.1960  178.3040  141.4850 C   0  0  0  0  0  0  0  0  0  0  0  0
  182.1630  178.7400  142.0610 O   0  0  0  0  0  1  0  0  0  0  0  0
  183.1370  177.9880  140.1320 O   0  0  0  0  0  0  0  0  0  0  0  0
  1  5  1  0  0  0  0
  2 15  2  0  0  0  0
  2 12  1  0  0  0  0
  3 15  1  0  0  0  0
  3  9  2  0  0  0  0
  4 21  1  0  0  0  0
  5  4  2  0  0  0  0
  6  8  2  0  0  0  0
  7  6  1  0  0  0  0
  8  4  1  0  0  0  0
  9 10  1  0  0  0  0
 10  1  2  0  0  0  0
 10  6  1  0  0  0  0
 11  9  1  0  0  0  0
 11  7  2  0  0  0  0
 13 14  2  0  0  0  0
 13 12  1  0  0  0  0
 14 16  1  0  0  0  0
 15 17  1  0  0  0  0
 16 17  2  0  0  0  0
 17  1  1  0  0  0  0
 18 20  2  0  0  0  0
 18 13  1  0  0  0  0
 19 18  2  0  0  0  0
 22 31  1  0  0  0  0
 23 30  1  0  0  0  0
 24 25  2  0  0  0  0
 25 26  1  0  0  0  0
 26 22  2  0  0  0  0
 27 28  1  0  0  0  0
 28 26  1  0  0  0  0
 28 23  2  0  0  0  0
 29 24  1  0  0  0  0
 29 27  2  0  0  0  0
 30 31  2  0  0  0  0
 30 21  1  0  0  0  0
 32 33  1  0  0  0  0
 32 24  1  0  0  0  0
 34 32  2  0  0  0  0
M  END
>  <MODEL>
2

>  <REMARK>
 VINA RESULT:      -8.6      3.446      4.986
  Name = 
  4 active torsions:
  status: ('A' for Active; 'I' for Inactive)
    1  A    between atoms: N_3  and  C_25
    2  A    between atoms: C_7  and  C_11
    3  A    between atoms: C_8  and  C_18
    4  A    between atoms: C_18  and  C_30
                            x       y       z     vdW  Elec       q    Type
                         _______ _______ _______ _____ _____    ______ ____

>  <TORSDO>
F 4

$$$$
=
 OpenBabel11042418403D

 34 39  0  0  0  0  0  0  0  0999 V2000
  190.2780  176.2970  143.8310 C   0  0  0  0  0  0  0  0  0  0  0  0
  186.5960  176.6540  143.7070 C   0  0  0  0  0  3  0  0  0  0  0  0
  188.0180  175.3260  142.4820 N   0  0  0  0  0  0  0  0  0  0  0  0
  192.6630  176.1100  143.9500 C   0  0  0  0  0  0  0  0  0  0  0  0
  191.4680  176.5980  144.4420 N   0  0  0  0  0  0  0  0  0  0  0  0
  191.4600  174.9710  142.2180 C   0  0  0  0  0  0  0  0  0  0  0  0
  191.1130  174.0670  141.1640 N   0  0  0  0  0  0  0  0  0  0  0  0
  192.6890  175.2520  142.8150 C   0  0  0  0  0  3  0  0  0  0  0  0
  189.2740  174.9930  142.1000 C   0  0  0  0  0  0  0  0  0  0  0  0
  190.3350  175.5000  142.7260 C   0  0  0  0  0  0  0  0  0  0  0  0
  189.6980  174.0830  141.0840 N   0  0  0  0  0  0  0  0  0  0  0  0
  186.2060  177.8190  144.5510 C   0  0  0  0  0  2  0  0  0  0  0  0
  186.5060  177.6190  145.9940 C   0  0  0  0  0  0  0  0  0  0  0  0
  187.7600  177.4320  146.4020 C   0  0  0  0  0  3  0  0  0  0  0  0
  187.8390  176.1940  143.5390 C   0  0  0  0  0  0  0  0  0  0  0  0
  188.9330  177.1840  145.5460 C   0  0  0  0  0  3  0  0  0  0  0  0
  188.9890  176.6410  144.3140 C   0  0  0  0  0  0  0  0  0  0  0  0
  185.4560  177.7950  146.9570 N   0  0  0  0  0  0  0  0  0  0  0  0
  184.1580  177.9760  146.5370 O   0  0  0  0  0  0  0  0  0  0  0  0
  185.7010  177.7700  148.1810 O   0  0  0  0  0  0  0  0  0  0  0  0
  193.9420  176.4830  144.6170 C   0  0  0  0  0  2  0  0  0  0  0  0
  196.8860  174.2270  145.0620 C   0  0  0  0  0  3  0  0  0  0  0  0
  194.1130  174.0520  145.1850 C   0  0  0  0  0  3  0  0  0  0  0  0
  196.4610  170.6360  145.8730 C   0  0  0  0  0  0  0  0  0  0  0  0
  197.0710  171.8640  145.5830 C   0  0  0  0  0  3  0  0  0  0  0  0
  196.2900  173.0000  145.3560 C   0  0  0  0  0  0  0  0  0  0  0  0
  194.2750  171.6900  145.7040 C   0  0  0  0  0  3  0  0  0  0  0  0
  194.8840  172.9140  145.4170 C   0  0  0  0  0  0  0  0  0  0  0  0
  195.0600  170.5560  145.9310 C   0  0  0  0  0  3  0  0  0  0  0  0
  194.7510  175.2630  144.9000 C   0  0  0  0  0  0  0  0  0  0  0  0
  196.1100  175.3220  144.8390 N   0  0  0  0  0  0  0  0  0  0  0  0
  197.2870  169.4410  146.1090 C   0  0  0  0  0  0  0  0  0  0  0  0
  197.9410  168.9190  145.1660 O   0  0  0  0  0  0  0  0  0  0  0  0
  197.3520  168.8750  147.3770 O   0  0  0  0  0  1  0  0  0  0  0  0
  1 17  1  0  0  0  0
  1  5  1  0  0  0  0
  2 12  1  0  0  0  0
  3 15  1  0  0  0  0
  4  5  2  0  0  0  0
  4 21  1  0  0  0  0
  6 10  1  0  0  0  0
  6  8  2  0  0  0  0
  7  6  1  0  0  0  0
  8  4  1  0  0  0  0
  9  3  2  0  0  0  0
  9 10  1  0  0  0  0
 10  1  2  0  0  0  0
 11  7  2  0  0  0  0
 11  9  1  0  0  0  0
 12 13  1  0  0  0  0
 13 14  2  0  0  0  0
 13 18  1  0  0  0  0
 15  2  2  0  0  0  0
 15 17  1  0  0  0  0
 16 14  1  0  0  0  0
 17 16  2  0  0  0  0
 18 20  2  0  0  0  0
 19 18  2  0  0  0  0
 21 30  1  0  0  0  0
 22 26  1  0  0  0  0
 23 28  1  0  0  0  0
 24 29  1  0  0  0  0
 24 32  1  0  0  0  0
 25 24  2  0  0  0  0
 26 28  2  0  0  0  0
 26 25  1  0  0  0  0
 27 29  2  0  0  0  0
 28 27  1  0  0  0  0
 30 23  2  0  0  0  0
 31 30  1  0  0  0  0
 31 22  2  0  0  0  0
 32 34  1  0  0  0  0
 33 32  2  0  0  0  0
M  END
>  <MODEL>
3

>  <REMARK>
 VINA RESULT:      -8.4      1.693      9.861
  Name = 
  4 active torsions:
  status: ('A' for Active; 'I' for Inactive)
    1  A    between atoms: N_3  and  C_25
    2  A    between atoms: C_7  and  C_11
    3  A    between atoms: C_8  and  C_18
    4  A    between atoms: C_18  and  C_30
                            x       y       z     vdW  Elec       q    Type
                         _______ _______ _______ _____ _____    ______ ____

>  <TORSDO>
F 4

$$$$
=
 OpenBabel11042418403D

 34 39  0  0  0  0  0  0  0  0999 V2000
  193.7880  174.1220  145.5750 C   0  0  0  0  0  0  0  0  0  0  0  0
  196.7650  172.5250  144.0600 C   0  0  0  0  0  3  0  0  0  0  0  0
  196.3200  174.7320  144.5320 N   0  0  0  0  0  0  0  0  0  0  0  0
  191.8350  175.1030  146.5540 C   0  0  0  0  0  0  0  0  0  0  0  0
  192.5700  173.9920  146.1910 N   0  0  0  0  0  0  0  0  0  0  0  0
  193.5770  176.5090  145.6990 C   0  0  0  0  0  0  0  0  0  0  0  0
  194.4160  177.6390  145.4400 N   0  0  0  0  0  0  0  0  0  0  0  0
  192.3370  176.4160  146.3300 C   0  0  0  0  0  3  0  0  0  0  0  0
  195.4440  175.7010  144.8910 C   0  0  0  0  0  0  0  0  0  0  0  0
  194.2300  175.3910  145.3430 C   0  0  0  0  0  0  0  0  0  0  0  0
  195.6250  177.1170  144.9130 N   0  0  0  0  0  0  0  0  0  0  0  0
  196.4370  171.1010  143.7670 C   0  0  0  0  0  2  0  0  0  0  0  0
  196.1750  170.2990  144.9910 C   0  0  0  0  0  0  0  0  0  0  0  0
  195.1680  170.6170  145.8030 C   0  0  0  0  0  3  0  0  0  0  0  0
  195.9490  173.4080  144.6460 C   0  0  0  0  0  0  0  0  0  0  0  0
  194.3550  171.8460  145.7520 C   0  0  0  0  0  3  0  0  0  0  0  0
  194.6780  173.0610  145.2680 C   0  0  0  0  0  0  0  0  0  0  0  0
  196.9110  169.0850  145.2030 N   0  0  0  0  0  0  0  0  0  0  0  0
  197.5890  168.8850  146.3830 O   0  0  0  0  0  0  0  0  0  0  0  0
  196.9340  168.1910  144.3300 O   0  0  0  0  0  0  0  0  0  0  0  0
  190.4990  174.9280  147.1920 C   0  0  0  0  0  2  0  0  0  0  0  0
  188.6460  175.9710  144.1200 C   0  0  0  0  0  3  0  0  0  0  0  0
  188.2970  176.0730  146.8780 C   0  0  0  0  0  3  0  0  0  0  0  0
  185.3770  177.7040  144.3330 C   0  0  0  0  0  0  0  0  0  0  0  0
  186.5260  177.1070  143.7970 C   0  0  0  0  0  3  0  0  0  0  0  0
  187.4960  176.5630  144.6430 C   0  0  0  0  0  0  0  0  0  0  0  0
  186.1770  177.2090  146.5780 C   0  0  0  0  0  3  0  0  0  0  0  0
  187.3210  176.6140  146.0410 C   0  0  0  0  0  0  0  0  0  0  0  0
  185.2090  177.7510  145.7270 C   0  0  0  0  0  3  0  0  0  0  0  0
  189.4310  175.4830  146.3120 C   0  0  0  0  0  0  0  0  0  0  0  0
  189.5820  175.4510  144.9590 N   0  0  0  0  0  0  0  0  0  0  0  0
  184.3590  178.2770  143.4390 C   0  0  0  0  0  0  0  0  0  0  0  0
  183.4740  179.0530  143.8910 O   0  0  0  0  0  1  0  0  0  0  0  0
  184.3630  177.9660  142.0840 O   0  0  0  0  0  0  0  0  0  0  0  0
  1  5  1  0  0  0  0
  2 15  2  0  0  0  0
  3 15  1  0  0  0  0
  3  9  2  0  0  0  0
  4 21  1  0  0  0  0
  5  4  2  0  0  0  0
  6  8  2  0  0  0  0
  7  6  1  0  0  0  0
  8  4  1  0  0  0  0
  9 11  1  0  0  0  0
  9 10  1  0  0  0  0
 10  1  2  0  0  0  0
 10  6  1  0  0  0  0
 11  7  2  0  0  0  0
 12  2  1  0  0  0  0
 12 13  1  0  0  0  0
 13 18  1  0  0  0  0
 13 14  2  0  0  0  0
 15 17  1  0  0  0  0
 16 14  1  0  0  0  0
 17  1  1  0  0  0  0
 17 16  2  0  0  0  0
 18 19  2  0  0  0  0
 20 18  2  0  0  0  0
 22 26  2  0  0  0  0
 22 31  1  0  0  0  0
 24 29  1  0  0  0  0
 25 24  2  0  0  0  0
 25 26  1  0  0  0  0
 26 28  1  0  0  0  0
 28 27  1  0  0  0  0
 28 23  2  0  0  0  0
 29 27  2  0  0  0  0
 30 23  1  0  0  0  0
 30 21  1  0  0  0  0
 31 30  2  0  0  0  0
 32 33  1  0  0  0  0
 32 24  1  0  0  0  0
 34 32  2  0  0  0  0
M  END
>  <MODEL>
4

>  <REMARK>
 VINA RESULT:      -8.4      1.691      2.194
  Name = 
  4 active torsions:
  status: ('A' for Active; 'I' for Inactive)
    1  A    between atoms: N_3  and  C_25
    2  A    between atoms: C_7  and  C_11
    3  A    between atoms: C_8  and  C_18
    4  A    between atoms: C_18  and  C_30
                            x       y       z     vdW  Elec       q    Type
                         _______ _______ _______ _____ _____    ______ ____

>  <TORSDO>
F 4

$$$$
=
 OpenBabel11042418403D

 34 39  0  0  0  0  0  0  0  0999 V2000
  190.1320  176.5160  144.4010 C   0  0  0  0  0  0  0  0  0  0  0  0
  186.4880  177.1530  144.5250 C   0  0  0  0  0  3  0  0  0  0  0  0
  188.1100  177.3920  146.1370 N   0  0  0  0  0  0  0  0  0  0  0  0
  192.4840  176.0820  144.2670 C   0  0  0  0  0  0  0  0  0  0  0  0
  191.2440  176.1940  143.6680 N   0  0  0  0  0  0  0  0  0  0  0  0
  191.4920  176.6530  146.3730 C   0  0  0  0  0  0  0  0  0  0  0  0
  191.3150  177.0790  147.7280 N   0  0  0  0  0  0  0  0  0  0  0  0
  192.6460  176.3320  145.6590 C   0  0  0  0  0  3  0  0  0  0  0  0
  189.3760  177.1760  146.5680 C   0  0  0  0  0  0  0  0  0  0  0  0
  190.3110  176.7180  145.7380 C   0  0  0  0  0  0  0  0  0  0  0  0
  189.9430  177.4140  147.8560 N   0  0  0  0  0  0  0  0  0  0  0  0
  185.8720  176.6120  143.2790 C   0  0  0  0  0  2  0  0  0  0  0  0
  186.3260  177.3180  142.0520 C   0  0  0  0  0  0  0  0  0  0  0  0
  187.6120  177.3140  141.7080 C   0  0  0  0  0  3  0  0  0  0  0  0
  187.7920  177.1420  144.8190 C   0  0  0  0  0  0  0  0  0  0  0  0
  188.7390  176.8450  142.5340 C   0  0  0  0  0  3  0  0  0  0  0  0
  188.8400  176.7750  143.8760 C   0  0  0  0  0  0  0  0  0  0  0  0
  185.3450  177.8610  141.1550 N   0  0  0  0  0  0  0  0  0  0  0  0
  184.0500  178.0500  141.5810 O   0  0  0  0  0  0  0  0  0  0  0  0
  185.6530  178.1830  139.9890 O   0  0  0  0  0  0  0  0  0  0  0  0
  193.6680  175.6970  143.4480 C   0  0  0  0  0  2  0  0  0  0  0  0
  196.4130  173.9460  145.2780 C   0  0  0  0  0  3  0  0  0  0  0  0
  193.9340  173.3210  144.1830 C   0  0  0  0  0  3  0  0  0  0  0  0
  196.2210  170.3240  146.0410 C   0  0  0  0  0  0  0  0  0  0  0  0
  196.7030  171.6390  145.9730 C   0  0  0  0  0  3  0  0  0  0  0  0
  195.9420  172.6350  145.3560 C   0  0  0  0  0  0  0  0  0  0  0  0
  194.2040  171.0110  144.8660 C   0  0  0  0  0  3  0  0  0  0  0  0
  194.6850  172.3200  144.8000 C   0  0  0  0  0  0  0  0  0  0  0  0
  194.9690  170.0170  145.4850 C   0  0  0  0  0  3  0  0  0  0  0  0
  194.4420  174.6220  144.1320 C   0  0  0  0  0  0  0  0  0  0  0  0
  195.6610  174.9020  144.6700 N   0  0  0  0  0  0  0  0  0  0  0  0
  197.0260  169.2770  146.6890 C   0  0  0  0  0  0  0  0  0  0  0  0
  197.9410  168.6880  146.0530 O   0  0  0  0  0  0  0  0  0  0  0  0
  196.7840  168.9270  148.0130 O   0  0  0  0  0  1  0  0  0  0  0  0
  1 10  1  0  0  0  0
  2 15  2  0  0  0  0
  3  9  2  0  0  0  0
  4  8  2  0  0  0  0
  5  4  1  0  0  0  0
  5  1  2  0  0  0  0
  6  7  1  0  0  0  0
  7 11  2  0  0  0  0
  8  6  1  0  0  0  0
  9 11  1  0  0  0  0
 10  6  2  0  0  0  0
 10  9  1  0  0  0  0
 12  2  1  0  0  0  0
 13 12  1  0  0  0  0
 14 13  2  0  0  0  0
 14 16  1  0  0  0  0
 15  3  1  0  0  0  0
 16 17  2  0  0  0  0
 17  1  1  0  0  0  0
 17 15  1  0  0  0  0
 18 19  2  0  0  0  0
 18 13  1  0  0  0  0
 20 18  2  0  0  0  0
 21 30  1  0  0  0  0
 21  4  1  0  0  0  0
 22 26  1  0  0  0  0
 23 28  1  0  0  0  0
 24 32  1  0  0  0  0
 25 24  1  0  0  0  0
 26 25  2  0  0  0  0
 27 29  1  0  0  0  0
 28 27  2  0  0  0  0
 28 26  1  0  0  0  0
 29 24  2  0  0  0  0
 30 23  2  0  0  0  0
 30 31  1  0  0  0  0
 31 22  2  0  0  0  0
 32 34  1  0  0  0  0
 33 32  2  0  0  0  0
M  END
>  <MODEL>
5

>  <REMARK>
 VINA RESULT:      -8.2      2.340     10.003
  Name = 
  4 active torsions:
  status: ('A' for Active; 'I' for Inactive)
    1  A    between atoms: N_3  and  C_25
    2  A    between atoms: C_7  and  C_11
    3  A    between atoms: C_8  and  C_18
    4  A    between atoms: C_18  and  C_30
                            x       y       z     vdW  Elec       q    Type
                         _______ _______ _______ _____ _____    ______ ____

>  <TORSDO>
F 4

$$$$
=
 OpenBabel11042418403D

 34 39  0  0  0  0  0  0  0  0999 V2000
  192.6510  172.1240  144.0390 C   0  0  0  0  0  0  0  0  0  0  0  0
  193.7630  168.7400  145.0470 C   0  0  0  0  0  3  0  0  0  0  0  0
  192.4260  169.4250  143.3060 N   0  0  0  0  0  0  0  0  0  0  0  0
  191.9570  174.3350  143.4350 C   0  0  0  0  0  0  0  0  0  0  0  0
  192.7240  173.4830  144.2050 N   0  0  0  0  0  0  0  0  0  0  0  0
  191.0440  172.4410  142.2860 C   0  0  0  0  0  0  0  0  0  0  0  0
  190.3970  171.6170  141.3100 N   0  0  0  0  0  0  0  0  0  0  0  0
  191.0940  173.8280  142.4230 C   0  0  0  0  0  3  0  0  0  0  0  0
  191.7040  170.3940  142.6930 C   0  0  0  0  0  0  0  0  0  0  0  0
  191.7920  171.6640  143.0840 C   0  0  0  0  0  0  0  0  0  0  0  0
  190.8210  170.2900  141.5750 N   0  0  0  0  0  0  0  0  0  0  0  0
  194.4240  168.8380  146.3790 C   0  0  0  0  0  2  0  0  0  0  0  0
  195.6750  169.6420  146.3510 C   0  0  0  0  0  0  0  0  0  0  0  0
  195.6440  170.9260  146.0010 C   0  0  0  0  0  3  0  0  0  0  0  0
  193.2680  169.7640  144.3440 C   0  0  0  0  0  0  0  0  0  0  0  0
  194.5020  171.6470  145.4110 C   0  0  0  0  0  3  0  0  0  0  0  0
  193.4740  171.1660  144.6840 C   0  0  0  0  0  0  0  0  0  0  0  0
  196.8870  169.0660  146.8640 N   0  0  0  0  0  0  0  0  0  0  0  0
  196.8930  168.4570  148.0970 O   0  0  0  0  0  0  0  0  0  0  0  0
  197.9410  169.0960  146.1950 O   0  0  0  0  0  0  0  0  0  0  0  0
  192.0340  175.8060  143.6630 C   0  0  0  0  0  2  0  0  0  0  0  0
  188.8900  177.7810  143.2500 C   0  0  0  0  0  3  0  0  0  0  0  0
  189.9950  176.0180  145.0980 C   0  0  0  0  0  3  0  0  0  0  0  0
  186.2100  177.6990  145.8090 C   0  0  0  0  0  0  0  0  0  0  0  0
  186.9170  178.0230  144.6430 C   0  0  0  0  0  3  0  0  0  0  0  0
  188.1750  177.4630  144.4060 C   0  0  0  0  0  0  0  0  0  0  0  0
  188.0340  176.2470  146.5040 C   0  0  0  0  0  3  0  0  0  0  0  0
  188.7370  176.5700  145.3400 C   0  0  0  0  0  0  0  0  0  0  0  0
  186.7760  176.8100  146.7360 C   0  0  0  0  0  3  0  0  0  0  0  0
  190.6750  176.3600  143.9240 C   0  0  0  0  0  0  0  0  0  0  0  0
  190.1150  177.2300  143.0380 N   0  0  0  0  0  0  0  0  0  0  0  0
  184.8870  178.2930  146.0560 C   0  0  0  0  0  0  0  0  0  0  0  0
  184.4090  178.3300  147.2220 O   0  0  0  0  0  1  0  0  0  0  0  0
  184.1480  178.8200  145.0020 O   0  0  0  0  0  0  0  0  0  0  0  0
  1  5  1  0  0  0  0
  1 17  1  0  0  0  0
  2 12  1  0  0  0  0
  3 15  1  0  0  0  0
  4 21  1  0  0  0  0
  4  5  2  0  0  0  0
  6  8  2  0  0  0  0
  6 10  1  0  0  0  0
  7 11  2  0  0  0  0
  7  6  1  0  0  0  0
  8  4  1  0  0  0  0
  9 10  1  0  0  0  0
  9  3  2  0  0  0  0
 10  1  2  0  0  0  0
 11  9  1  0  0  0  0
 13 12  1  0  0  0  0
 13 18  1  0  0  0  0
 14 13  2  0  0  0  0
 15 17  1  0  0  0  0
 15  2  2  0  0  0  0
 16 14  1  0  0  0  0
 17 16  2  0  0  0  0
 18 19  2  0  0  0  0
 20 18  2  0  0  0  0
 21 30  1  0  0  0  0
 22 26  1  0  0  0  0
 23 28  1  0  0  0  0
 24 32  1  0  0  0  0
 24 29  1  0  0  0  0
 25 24  2  0  0  0  0
 26 25  1  0  0  0  0
 26 28  2  0  0  0  0
 27 29  2  0  0  0  0
 28 27  1  0  0  0  0
 30 23  2  0  0  0  0
 31 22  2  0  0  0  0
 31 30  1  0  0  0  0
 32 33  1  0  0  0  0
 34 32  2  0  0  0  0
M  END
>  <MODEL>
6

>  <REMARK>
 VINA RESULT:      -8.2      1.839      3.333
  Name = 
  4 active torsions:
  status: ('A' for Active; 'I' for Inactive)
    1  A    between atoms: N_3  and  C_25
    2  A    between atoms: C_7  and  C_11
    3  A    between atoms: C_8  and  C_18
    4  A    between atoms: C_18  and  C_30
                            x       y       z     vdW  Elec       q    Type
                         _______ _______ _______ _____ _____    ______ ____

>  <TORSDO>
F 4

$$$$
=
 OpenBabel11042418403D

 34 39  0  0  0  0  0  0  0  0999 V2000
  190.7610  176.7210  144.5250 C   0  0  0  0  0  0  0  0  0  0  0  0
  193.7410  175.5980  146.4110 C   0  0  0  0  0  3  0  0  0  0  0  0
  191.4990  175.3000  146.8280 N   0  0  0  0  0  0  0  0  0  0  0  0
  188.8680  177.4780  143.2680 C   0  0  0  0  0  0  0  0  0  0  0  0
  190.2320  177.3090  143.4050 N   0  0  0  0  0  0  0  0  0  0  0  0
  188.5450  176.4260  145.3970 C   0  0  0  0  0  0  0  0  0  0  0  0
  187.9500  175.7540  146.5110 N   0  0  0  0  0  0  0  0  0  0  0  0
  187.9700  177.0160  144.2710 C   0  0  0  0  0  3  0  0  0  0  0  0
  190.2060  175.6030  146.5610 C   0  0  0  0  0  0  0  0  0  0  0  0
  189.8800  176.3170  145.4850 C   0  0  0  0  0  0  0  0  0  0  0  0
  189.0260  175.2230  147.2680 N   0  0  0  0  0  0  0  0  0  0  0  0
  194.9440  176.2590  145.8300 C   0  0  0  0  0  2  0  0  0  0  0  0
  195.2180  175.8420  144.4300 C   0  0  0  0  0  0  0  0  0  0  0  0
  194.3260  176.0750  143.4690 C   0  0  0  0  0  3  0  0  0  0  0  0
  192.4870  175.7300  145.9670 C   0  0  0  0  0  0  0  0  0  0  0  0
  192.9390  176.5390  143.6550 C   0  0  0  0  0  3  0  0  0  0  0  0
  192.1260  176.3890  144.7190 C   0  0  0  0  0  0  0  0  0  0  0  0
  196.5200  175.3380  144.0930 N   0  0  0  0  0  0  0  0  0  0  0  0
  197.1530  175.7700  142.9510 O   0  0  0  0  0  0  0  0  0  0  0  0
  197.0990  174.5170  144.8350 O   0  0  0  0  0  0  0  0  0  0  0  0
  188.3260  178.1510  142.0540 C   0  0  0  0  0  2  0  0  0  0  0  0
  184.9490  178.8370  143.4940 C   0  0  0  0  0  3  0  0  0  0  0  0
  186.0290  177.9860  141.0760 C   0  0  0  0  0  3  0  0  0  0  0  0
  181.8630  178.3460  141.5000 C   0  0  0  0  0  0  0  0  0  0  0  0
  182.7110  178.6550  142.5730 C   0  0  0  0  0  3  0  0  0  0  0  0
  184.0950  178.5370  142.4320 C   0  0  0  0  0  0  0  0  0  0  0  0
  183.8020  177.7960  140.1370 C   0  0  0  0  0  3  0  0  0  0  0  0
  184.6450  178.1050  141.2070 C   0  0  0  0  0  0  0  0  0  0  0  0
  182.4170  177.9160  140.2830 C   0  0  0  0  0  3  0  0  0  0  0  0
  186.8470  178.3040  142.1640 C   0  0  0  0  0  0  0  0  0  0  0  0
  186.2940  178.7120  143.3400 N   0  0  0  0  0  0  0  0  0  0  0  0
  180.4050  178.4700  141.6540 C   0  0  0  0  0  0  0  0  0  0  0  0
  179.9160  179.0810  142.6420 O   0  0  0  0  0  1  0  0  0  0  0  0
  179.5520  177.9100  140.7100 O   0  0  0  0  0  0  0  0  0  0  0  0
  1 17  1  0  0  0  0
  1 10  1  0  0  0  0
  4  5  1  0  0  0  0
  4  8  2  0  0  0  0
  5  1  2  0  0  0  0
  6 10  2  0  0  0  0
  6  7  1  0  0  0  0
  7 11  2  0  0  0  0
  8  6  1  0  0  0  0
  9  3  2  0  0  0  0
  9 11  1  0  0  0  0
 10  9  1  0  0  0  0
 12  2  1  0  0  0  0
 13 12  1  0  0  0  0
 14 16  1  0  0  0  0
 14 13  2  0  0  0  0
 15  2  2  0  0  0  0
 15  3  1  0  0  0  0
 16 17  2  0  0  0  0
 17 15  1  0  0  0  0
 18 13  1  0  0  0  0
 18 20  2  0  0  0  0
 19 18  2  0  0  0  0
 21 30  1  0  0  0  0
 21  4  1  0  0  0  0
 23 28  2  0  0  0  0
 23 30  1  0  0  0  0
 24 32  1  0  0  0  0
 24 25  2  0  0  0  0
 26 25  1  0  0  0  0
 26 22  2  0  0  0  0
 27 29  2  0  0  0  0
 27 28  1  0  0  0  0
 28 26  1  0  0  0  0
 29 24  1  0  0  0  0
 30 31  2  0  0  0  0
 31 22  1  0  0  0  0
 32 33  1  0  0  0  0
 34 32  2  0  0  0  0
M  END
>  <MODEL>
7

>  <REMARK>
 VINA RESULT:      -8.2      3.762      5.581
  Name = 
  4 active torsions:
  status: ('A' for Active; 'I' for Inactive)
    1  A    between atoms: N_3  and  C_25
    2  A    between atoms: C_7  and  C_11
    3  A    between atoms: C_8  and  C_18
    4  A    between atoms: C_18  and  C_30
                            x       y       z     vdW  Elec       q    Type
                         _______ _______ _______ _____ _____    ______ ____

>  <TORSDO>
F 4

$$$$
=
 OpenBabel11042418403D

 34 39  0  0  0  0  0  0  0  0999 V2000
  188.1280  175.8790  143.1570 C   0  0  0  0  0  0  0  0  0  0  0  0
  187.8180  175.0380  139.5650 C   0  0  0  0  0  3  0  0  0  0  0  0
  187.0490  176.8490  140.7550 N   0  0  0  0  0  0  0  0  0  0  0  0
  188.3540  176.3710  145.4900 C   0  0  0  0  0  0  0  0  0  0  0  0
  188.6600  175.5960  144.3880 N   0  0  0  0  0  0  0  0  0  0  0  0
  186.9810  177.7610  144.1030 C   0  0  0  0  0  0  0  0  0  0  0  0
  186.2130  178.8650  143.6090 N   0  0  0  0  0  0  0  0  0  0  0  0
  187.5050  177.5070  145.3700 C   0  0  0  0  0  3  0  0  0  0  0  0
  186.8070  177.4550  141.9430 C   0  0  0  0  0  0  0  0  0  0  0  0
  187.2920  176.9540  143.0770 C   0  0  0  0  0  0  0  0  0  0  0  0
  186.0970  178.6650  142.2100 N   0  0  0  0  0  0  0  0  0  0  0  0
  188.2920  173.6390  139.3650 C   0  0  0  0  0  2  0  0  0  0  0  0
  189.7400  173.4690  139.6580 C   0  0  0  0  0  0  0  0  0  0  0  0
  190.2160  173.7150  140.8770 C   0  0  0  0  0  3  0  0  0  0  0  0
  187.8160  175.7040  140.7250 C   0  0  0  0  0  0  0  0  0  0  0  0
  189.4930  174.3610  141.9860 C   0  0  0  0  0  3  0  0  0  0  0  0
  188.4640  175.2300  141.9410 C   0  0  0  0  0  0  0  0  0  0  0  0
  190.5890  172.8790  138.6620 N   0  0  0  0  0  0  0  0  0  0  0  0
  191.3540  171.7770  138.9710 O   0  0  0  0  0  0  0  0  0  0  0  0
  190.6350  173.3440  137.5030 O   0  0  0  0  0  0  0  0  0  0  0  0
  188.9220  176.0170  146.8210 C   0  0  0  0  0  2  0  0  0  0  0  0
  192.5880  176.6750  147.0990 C   0  0  0  0  0  3  0  0  0  0  0  0
  190.9160  174.6890  146.1000 C   0  0  0  0  0  3  0  0  0  0  0  0
  195.0850  174.2820  145.7650 C   0  0  0  0  0  0  0  0  0  0  0  0
  194.5340  175.4150  146.3800 C   0  0  0  0  0  3  0  0  0  0  0  0
  193.1480  175.5490  146.4930 C   0  0  0  0  0  0  0  0  0  0  0  0
  192.8460  173.4160  145.3720 C   0  0  0  0  0  3  0  0  0  0  0  0
  192.2990  174.5450  145.9870 C   0  0  0  0  0  0  0  0  0  0  0  0
  194.2330  173.2850  145.2630 C   0  0  0  0  0  3  0  0  0  0  0  0
  190.3970  175.8300  146.7210 C   0  0  0  0  0  0  0  0  0  0  0  0
  191.2370  176.7910  147.1960 N   0  0  0  0  0  0  0  0  0  0  0  0
  196.5450  174.1460  145.6460 C   0  0  0  0  0  0  0  0  0  0  0  0
  197.1910  173.4450  146.4710 O   0  0  0  0  0  1  0  0  0  0  0  0
  197.2270  174.7920  144.6210 O   0  0  0  0  0  0  0  0  0  0  0  0
  1  5  1  0  0  0  0
  2 15  2  0  0  0  0
  3  9  2  0  0  0  0
  4 21  1  0  0  0  0
  5  4  2  0  0  0  0
  6  8  2  0  0  0  0
  7  6  1  0  0  0  0
  8  4  1  0  0  0  0
  9 11  1  0  0  0  0
  9 10  1  0  0  0  0
 10  1  2  0  0  0  0
 10  6  1  0  0  0  0
 11  7  2  0  0  0  0
 12  2  1  0  0  0  0
 12 13  1  0  0  0  0
 13 14  2  0  0  0  0
 14 16  1  0  0  0  0
 15  3  1  0  0  0  0
 15 17  1  0  0  0  0
 17 16  2  0  0  0  0
 17  1  1  0  0  0  0
 18 19  2  0  0  0  0
 18 13  1  0  0  0  0
 20 18  2  0  0  0  0
 22 31  1  0  0  0  0
 23 30  1  0  0  0  0
 24 25  2  0  0  0  0
 25 26  1  0  0  0  0
 26 22  2  0  0  0  0
 27 28  1  0  0  0  0
 28 23  2  0  0  0  0
 28 26  1  0  0  0  0
 29 27  2  0  0  0  0
 29 24  1  0  0  0  0
 30 21  1  0  0  0  0
 30 31  2  0  0  0  0
 32 24  1  0  0  0  0
 32 33  1  0  0  0  0
 34 32  2  0  0  0  0
M  END
>  <MODEL>
8

>  <REMARK>
 VINA RESULT:      -8.1      4.260      8.582
  Name = 
  4 active torsions:
  status: ('A' for Active; 'I' for Inactive)
    1  A    between atoms: N_3  and  C_25
    2  A    between atoms: C_7  and  C_11
    3  A    between atoms: C_8  and  C_18
    4  A    between atoms: C_18  and  C_30
                            x       y       z     vdW  Elec       q    Type
                         _______ _______ _______ _____ _____    ______ ____

>  <TORSDO>
F 4

$$$$
=
 OpenBabel11042418403D

 34 39  0  0  0  0  0  0  0  0999 V2000
  190.9030  174.9850  143.4280 C   0  0  0  0  0  0  0  0  0  0  0  0
  193.3850  172.7050  144.9610 C   0  0  0  0  0  3  0  0  0  0  0  0
  191.4290  172.2600  143.8360 N   0  0  0  0  0  0  0  0  0  0  0  0
  189.3270  176.5060  142.4590 C   0  0  0  0  0  0  0  0  0  0  0  0
  190.5410  176.2580  143.0710 N   0  0  0  0  0  0  0  0  0  0  0  0
  188.8350  174.1620  142.5330 C   0  0  0  0  0  0  0  0  0  0  0  0
  188.2550  172.8790  142.2720 N   0  0  0  0  0  0  0  0  0  0  0  0
  188.4340  175.4420  142.1510 C   0  0  0  0  0  3  0  0  0  0  0  0
  190.2630  172.6880  143.2960 C   0  0  0  0  0  0  0  0  0  0  0  0
  190.0140  173.9890  143.1510 C   0  0  0  0  0  0  0  0  0  0  0  0
  189.1780  171.9240  142.7700 N   0  0  0  0  0  0  0  0  0  0  0  0
  194.3410  173.5200  145.7630 C   0  0  0  0  0  2  0  0  0  0  0  0
  195.1570  174.4450  144.9330 C   0  0  0  0  0  0  0  0  0  0  0  0
  194.5710  175.3990  144.2120 C   0  0  0  0  0  3  0  0  0  0  0  0
  192.3720  173.1850  144.2310 C   0  0  0  0  0  0  0  0  0  0  0  0
  193.1270  175.5430  143.9570 C   0  0  0  0  0  3  0  0  0  0  0  0
  192.1660  174.5990  143.9490 C   0  0  0  0  0  0  0  0  0  0  0  0
  196.5880  174.4070  145.0460 N   0  0  0  0  0  0  0  0  0  0  0  0
  197.1790  173.7770  146.1170 O   0  0  0  0  0  0  0  0  0  0  0  0
  197.3120  174.9260  144.1710 O   0  0  0  0  0  0  0  0  0  0  0  0
  188.9480  177.9050  142.1130 C   0  0  0  0  0  2  0  0  0  0  0  0
  185.7550  177.9150  140.1740 C   0  0  0  0  0  3  0  0  0  0  0  0
  186.5710  178.2570  142.8110 C   0  0  0  0  0  3  0  0  0  0  0  0
  182.4980  178.5570  141.8210 C   0  0  0  0  0  0  0  0  0  0  0  0
  183.4470  178.2840  140.8260 C   0  0  0  0  0  3  0  0  0  0  0  0
  184.8010  178.1830  141.1560 C   0  0  0  0  0  0  0  0  0  0  0  0
  184.2730  178.6300  143.4840 C   0  0  0  0  0  3  0  0  0  0  0  0
  185.2170  178.3560  142.4920 C   0  0  0  0  0  0  0  0  0  0  0  0
  182.9190  178.7290  143.1500 C   0  0  0  0  0  3  0  0  0  0  0  0
  187.4930  177.9820  141.7960 C   0  0  0  0  0  0  0  0  0  0  0  0
  187.0700  177.8250  140.5120 N   0  0  0  0  0  0  0  0  0  0  0  0
  181.0730  178.6650  141.4700 C   0  0  0  0  0  0  0  0  0  0  0  0
  180.2540  179.1890  142.2720 O   0  0  0  0  0  1  0  0  0  0  0  0
  180.6170  178.1880  140.2460 O   0  0  0  0  0  0  0  0  0  0  0  0
  1 17  1  0  0  0  0
  2 12  1  0  0  0  0
  3 15  1  0  0  0  0
  4  5  1  0  0  0  0
  5  1  2  0  0  0  0
  6 10  2  0  0  0  0
  7  6  1  0  0  0  0
  7 11  2  0  0  0  0
  8  4  2  0  0  0  0
  8  6  1  0  0  0  0
  9  3  2  0  0  0  0
 10  9  1  0  0  0  0
 10  1  1  0  0  0  0
 11  9  1  0  0  0  0
 13 18  1  0  0  0  0
 13 12  1  0  0  0  0
 14 13  2  0  0  0  0
 15  2  2  0  0  0  0
 16 14  1  0  0  0  0
 17 16  2  0  0  0  0
 17 15  1  0  0  0  0
 18 19  2  0  0  0  0
 20 18  2  0  0  0  0
 21  4  1  0  0  0  0
 22 31  2  0  0  0  0
 22 26  1  0  0  0  0
 24 29  1  0  0  0  0
 25 26  1  0  0  0  0
 25 24  2  0  0  0  0
 26 28  2  0  0  0  0
 28 23  1  0  0  0  0
 28 27  1  0  0  0  0
 29 27  2  0  0  0  0
 30 21  1  0  0  0  0
 30 23  2  0  0  0  0
 31 30  1  0  0  0  0
 32 24  1  0  0  0  0
 32 33  1  0  0  0  0
 34 32  2  0  0  0  0
M  END
>  <MODEL>
9

>  <REMARK>
 VINA RESULT:      -8.1      3.211      5.078
  Name = 
  4 active torsions:
  status: ('A' for Active; 'I' for Inactive)
    1  A    between atoms: N_3  and  C_25
    2  A    between atoms: C_7  and  C_11
    3  A    between atoms: C_8  and  C_18
    4  A    between atoms: C_18  and  C_30
                            x       y       z     vdW  Elec       q    Type
                         _______ _______ _______ _____ _____    ______ ____

>  <TORSDO>
F 4

$$$$
