=
 OpenBabel11042417543D

 55 59  0  0  1  0  0  0  0  0999 V2000
  190.1280  176.8920  146.3900 C   0  0  2  0  0  3  0  0  0  0  0  0
  189.1830  175.7560  146.2680 N   0  0  2  0  0  0  0  0  0  0  0  0
  189.5870  174.7440  145.2640 C   0  0  0  0  0  2  0  0  0  0  0  0
  192.1910  175.3340  146.0650 C   0  0  2  0  0  3  0  0  0  0  0  0
  191.9770  175.3610  144.5390 C   0  0  0  0  0  2  0  0  0  0  0  0
  191.5260  176.4680  146.8780 C   0  0  0  0  0  2  0  0  0  0  0  0
  189.6340  177.8370  147.2790 F   0  0  0  0  0  0  0  0  0  0  0  0
  190.4880  175.3350  144.1620 C   0  0  1  0  0  3  0  0  0  0  0  0
  191.6290  172.7800  138.2370 C   0  0  0  0  0  0  0  0  0  0  0  0
  188.3450  173.9230  141.4090 C   0  0  0  0  0  3  0  0  0  0  0  0
  189.0830  172.7080  140.9520 C   0  0  0  0  0  2  0  0  0  0  0  0
  190.2310  174.7170  142.8310 C   0  0  0  0  0  0  0  0  0  0  0  0
  190.4830  172.5940  138.9440 N   0  0  0  0  0  0  0  0  0  0  0  0
  191.3530  173.8230  140.8100 C   0  0  0  0  0  0  0  0  0  0  0  0
  192.5410  174.0130  140.0970 C   0  0  0  0  0  3  0  0  0  0  0  0
  190.3160  173.0860  140.2020 C   0  0  0  0  0  0  0  0  0  0  0  0
  191.2800  174.3500  142.1430 N   0  0  0  0  0  0  0  0  0  0  0  0
  188.8660  174.7890  142.2760 C   0  0  0  0  0  3  0  0  0  0  0  0
  192.6850  173.5020  138.8080 C   0  0  0  0  0  3  0  0  0  0  0  0
  191.7440  172.2380  136.9580 O   0  0  0  0  0  0  0  0  0  0  0  0
  191.3830  170.9750  136.7050 O   0  0  0  0  0  1  0  0  0  0  0  0
  187.8400  176.2780  145.9530 C   0  0  1  0  0  3  0  0  0  0  0  0
  185.7360  177.8220  148.4760 O   0  0  0  0  0  0  0  0  0  0  0  0
  187.0380  176.4950  147.1300 O   0  0  0  0  0  0  0  0  0  0  0  0
  186.3000  177.6660  147.3640 C   0  0  0  0  0  0  0  0  0  0  0  0
  185.0060  179.3750  146.3510 F   0  0  0  0  0  0  0  0  0  0  0  0
  186.2510  178.7670  146.3510 C   0  0  2  0  0  3  0  0  0  0  0  0
  186.6160  178.2480  144.9590 C   0  0  1  0  0  3  0  0  0  0  0  0
  187.9540  177.5120  145.0550 C   0  0  0  0  0  2  0  0  0  0  0  0
  185.5360  177.3340  144.3660 C   0  0  0  0  0  2  0  0  0  0  0  0
  184.5790  178.0830  143.4440 C   0  0  0  0  0  2  0  0  0  0  0  0
  185.1560  178.2980  142.0500 C   0  0  2  0  0  3  0  0  0  0  0  0
  184.0040  178.4630  141.0730 C   0  0  0  0  0  2  0  0  0  0  0  0
  182.6790  178.1340  141.7350 C   0  0  0  0  0  2  0  0  0  0  0  0
  181.5470  178.4700  140.7820 C   0  0  0  0  0  2  0  0  0  0  0  0
  180.5580  179.2930  141.4640 N   0  0  0  0  0  0  0  0  0  0  0  0
  180.0980  180.2820  140.5060 C   0  0  0  0  0  1  0  0  0  0  0  0
  179.4210  178.4370  141.7710 C   0  0  0  0  0  2  0  0  0  0  0  0
  178.8810  178.7950  143.0060 O   0  0  0  0  0  1  0  0  0  0  0  0
  186.0290  177.1200  141.6330 C   0  0  0  0  0  2  0  0  0  0  0  0
  187.0320  177.4920  139.5020 O   0  0  0  0  0  0  0  0  0  0  0  0
  188.2710  178.1720  141.3100 O   0  0  0  0  0  1  0  0  0  0  0  0
  187.1370  177.5930  140.7530 C   0  0  0  0  0  0  0  0  0  0  0  0
  193.5990  175.1390  146.4170 N   0  0  0  0  0  2  0  0  0  0  0  0
  194.3510  174.6170  145.2760 C   0  0  0  0  0  2  0  0  0  0  0  0
  194.2160  172.1760  143.4550 O   0  0  0  0  0  0  0  0  0  0  0  0
  194.5880  173.1140  145.4270 C   0  0  1  0  0  3  0  0  0  0  0  0
  197.0220  173.5080  146.0750 C   0  0  0  0  0  1  0  0  0  0  0  0
  194.5730  170.8120  143.3860 C   0  0  0  0  0  2  0  0  0  0  0  0
  196.3540  171.2000  145.2470 C   0  0  1  0  0  3  0  0  0  0  0  0
  194.3250  169.9030  145.5990 O   0  0  0  0  0  1  0  0  0  0  0  0
  193.6610  172.3780  144.6430 O   0  0  0  0  0  0  0  0  0  0  0  0
  196.0670  172.7200  145.1830 C   0  0  1  0  0  3  0  0  0  0  0  0
  196.6670  170.7980  146.5500 O   0  0  0  0  0  1  0  0  0  0  0  0
  195.2790  170.2700  144.6420 C   0  0  1  0  0  3  0  0  0  0  0  0
  1  6  1  0  0  0  0
  1  7  1  1  0  0  0
  2  3  1  6  0  0  0
  2  1  1  0  0  0  0
  4 44  1  6  0  0  0
  4  6  1  0  0  0  0
  5  4  1  0  0  0  0
  8 12  1  6  0  0  0
  8  5  1  0  0  0  0
  8  3  1  0  0  0  0
  9 19  1  0  0  0  0
  9 13  2  0  0  0  0
 10 18  2  0  0  0  0
 11 10  1  0  0  0  0
 13 16  1  0  0  0  0
 14 17  1  0  0  0  0
 15 14  1  0  0  0  0
 16 14  2  0  0  0  0
 16 11  1  0  0  0  0
 17 12  2  0  0  0  0
 18 12  1  0  0  0  0
 19 15  2  0  0  0  0
 20  9  1  0  0  0  0
 21 20  1  0  0  0  0
 22 29  1  1  0  0  0
 22  2  1  0  0  0  0
 22 24  1  0  0  0  0
 24 25  1  0  0  0  0
 25 23  2  0  0  0  0
 27 26  1  6  0  0  0
 27 25  1  0  0  0  0
 28 30  1  1  0  0  0
 28 29  1  0  0  0  0
 28 27  1  0  0  0  0
 31 30  1  0  0  0  0
 32 33  1  6  0  0  0
 32 31  1  0  0  0  0
 33 34  1  0  0  0  0
 35 36  1  0  0  0  0
 35 34  1  0  0  0  0
 36 38  1  0  0  0  0
 37 36  1  0  0  0  0
 38 39  1  0  0  0  0
 40 32  1  0  0  0  0
 41 43  2  0  0  0  0
 43 42  1  0  0  0  0
 43 40  1  0  0  0  0
 45 44  1  0  0  0  0
 46 52  1  0  0  0  0
 47 45  1  6  0  0  0
 49 46  1  0  0  0  0
 49 55  1  0  0  0  0
 50 54  1  1  0  0  0
 52 47  1  0  0  0  0
 53 50  1  0  0  0  0
 53 47  1  0  0  0  0
 53 48  1  1  0  0  0
 55 50  1  0  0  0  0
 55 51  1  1  0  0  0
M  END
>  <MODEL>
1

>  <REMARK>
 VINA RESULT:      -8.2      0.000      0.000
  Name = 
  16 active torsions:
  status: ('A' for Active; 'I' for Inactive)
    1  A    between atoms: C_1  and  O_4
    2  A    between atoms: C_2  and  C_26
    3  A    between atoms: C_2  and  C_34
    4  A    between atoms: C_3  and  C_25
    5  A    between atoms: C_3  and  C_37
    6  A    between atoms: C_6  and  C_30
    7  A    between atoms: C_7  and  C_25
    8  A    between atoms: C_7  and  C_39
    9  A    between atoms: C_8  and  N_28
   10  A    between atoms: N_12  and  C_15
   11  A    between atoms: C_23  and  C_53
   12  A    between atoms: C_24  and  N_32
   13  A    between atoms: C_25  and  C_34
   14  A    between atoms: C_26  and  N_28
   15  A    between atoms: C_30  and  N_32
   16  A    between atoms: C_39  and  C_49
                            x       y       z     vdW  Elec       q    Type
                         _______ _______ _______ _____ _____    ______ ____

>  <TORSDO>
F 16

$$$$
=
 OpenBabel11042417543D

 55 59  0  0  1  0  0  0  0  0999 V2000
  190.1500  176.7150  146.3900 C   0  0  2  0  0  3  0  0  0  0  0  0
  189.1440  175.6330  146.2580 N   0  0  2  0  0  0  0  0  0  0  0  0
  189.4890  174.6140  145.2400 C   0  0  0  0  0  2  0  0  0  0  0  0
  192.1240  175.0520  146.0360 C   0  0  2  0  0  3  0  0  0  0  0  0
  191.9060  175.1100  144.5120 C   0  0  0  0  0  2  0  0  0  0  0  0
  191.5250  176.2090  146.8660 C   0  0  0  0  0  2  0  0  0  0  0  0
  189.7110  177.6740  147.2930 F   0  0  0  0  0  0  0  0  0  0  0  0
  190.4170  175.1700  144.1410 C   0  0  1  0  0  3  0  0  0  0  0  0
  191.3890  172.7220  138.1410 C   0  0  0  0  0  0  0  0  0  0  0  0
  188.1930  173.8510  141.4070 C   0  0  0  0  0  3  0  0  0  0  0  0
  188.9010  172.6340  140.9080 C   0  0  0  0  0  2  0  0  0  0  0  0
  190.1210  174.5840  142.8030 C   0  0  0  0  0  0  0  0  0  0  0  0
  190.2550  172.5400  138.8680 N   0  0  0  0  0  0  0  0  0  0  0  0
  191.1850  173.7150  140.7400 C   0  0  0  0  0  0  0  0  0  0  0  0
  192.3610  173.9020  140.0060 C   0  0  0  0  0  3  0  0  0  0  0  0
  190.1230  173.0070  140.1400 C   0  0  0  0  0  0  0  0  0  0  0  0
  191.1490  174.2150  142.0860 N   0  0  0  0  0  0  0  0  0  0  0  0
  188.7460  174.6900  142.2790 C   0  0  0  0  0  3  0  0  0  0  0  0
  192.4690  173.4150  138.7040 C   0  0  0  0  0  3  0  0  0  0  0  0
  191.4680  172.2060  136.8490 O   0  0  0  0  0  0  0  0  0  0  0  0
  192.4950  171.4360  136.4710 O   0  0  0  0  0  1  0  0  0  0  0  0
  187.8300  176.2320  145.9560 C   0  0  1  0  0  3  0  0  0  0  0  0
  185.7890  177.7870  148.5230 O   0  0  0  0  0  0  0  0  0  0  0  0
  187.0320  176.4470  147.1360 O   0  0  0  0  0  0  0  0  0  0  0  0
  186.3510  177.6430  147.4080 C   0  0  0  0  0  0  0  0  0  0  0  0
  185.1490  179.4480  146.4510 F   0  0  0  0  0  0  0  0  0  0  0  0
  186.3620  178.7800  146.4350 C   0  0  2  0  0  3  0  0  0  0  0  0
  186.7110  178.2940  145.0270 C   0  0  1  0  0  3  0  0  0  0  0  0
  188.0100  177.4900  145.1020 C   0  0  0  0  0  2  0  0  0  0  0  0
  185.5910  177.4560  144.3960 C   0  0  0  0  0  2  0  0  0  0  0  0
  184.6310  178.2970  143.5620 C   0  0  0  0  0  2  0  0  0  0  0  0
  184.9970  178.3100  142.0830 C   0  0  2  0  0  3  0  0  0  0  0  0
  183.7160  178.2220  141.2700 C   0  0  0  0  0  2  0  0  0  0  0  0
  182.5090  178.5860  142.1150 C   0  0  0  0  0  2  0  0  0  0  0  0
  181.2440  178.3080  141.3260 C   0  0  0  0  0  2  0  0  0  0  0  0
  180.2510  179.3340  141.6120 N   0  0  0  0  0  0  0  0  0  0  0  0
  179.8440  179.8960  140.3360 C   0  0  0  0  0  1  0  0  0  0  0  0
  179.0860  178.6640  142.1730 C   0  0  0  0  0  2  0  0  0  0  0  0
  179.0000  177.3680  141.6680 O   0  0  0  0  0  1  0  0  0  0  0  0
  185.9160  177.1440  141.7380 C   0  0  0  0  0  2  0  0  0  0  0  0
  188.0850  178.0050  141.2480 O   0  0  0  0  0  1  0  0  0  0  0  0
  186.7710  177.5380  139.4250 O   0  0  0  0  0  0  0  0  0  0  0  0
  186.9820  177.5960  140.7980 C   0  0  0  0  0  0  0  0  0  0  0  0
  193.5210  174.7760  146.3790 N   0  0  0  0  0  2  0  0  0  0  0  0
  194.4030  175.8030  145.8270 C   0  0  0  0  0  2  0  0  0  0  0  0
  196.2730  176.9570  143.7140 O   0  0  0  0  0  0  0  0  0  0  0  0
  195.1820  175.2600  144.6290 C   0  0  1  0  0  3  0  0  0  0  0  0
  196.5260  173.7050  146.1380 C   0  0  0  0  0  1  0  0  0  0  0  0
  197.1860  176.5820  142.7050 C   0  0  0  0  0  2  0  0  0  0  0  0
  197.4550  174.2510  143.8360 C   0  0  1  0  0  3  0  0  0  0  0  0
  196.3390  174.5690  141.6970 O   0  0  0  0  0  1  0  0  0  0  0  0
  195.1920  176.2020  143.5670 O   0  0  0  0  0  0  0  0  0  0  0  0
  196.5900  174.7440  145.0220 C   0  0  1  0  0  3  0  0  0  0  0  0
  197.2430  172.8920  143.5850 O   0  0  0  0  0  1  0  0  0  0  0  0
  197.3550  175.0620  142.5250 C   0  0  1  0  0  3  0  0  0  0  0  0
  1  6  1  0  0  0  0
  1  7  1  1  0  0  0
  2  3  1  6  0  0  0
  2  1  1  0  0  0  0
  4 44  1  6  0  0  0
  4  6  1  0  0  0  0
  5  4  1  0  0  0  0
  8 12  1  6  0  0  0
  8  5  1  0  0  0  0
  8  3  1  0  0  0  0
  9 19  1  0  0  0  0
  9 13  2  0  0  0  0
 10 18  2  0  0  0  0
 11 10  1  0  0  0  0
 13 16  1  0  0  0  0
 14 17  1  0  0  0  0
 15 14  1  0  0  0  0
 16 14  2  0  0  0  0
 16 11  1  0  0  0  0
 17 12  2  0  0  0  0
 18 12  1  0  0  0  0
 19 15  2  0  0  0  0
 20  9  1  0  0  0  0
 21 20  1  0  0  0  0
 22 29  1  1  0  0  0
 22  2  1  0  0  0  0
 22 24  1  0  0  0  0
 24 25  1  0  0  0  0
 25 23  2  0  0  0  0
 27 26  1  6  0  0  0
 27 25  1  0  0  0  0
 28 30  1  1  0  0  0
 28 29  1  0  0  0  0
 28 27  1  0  0  0  0
 31 30  1  0  0  0  0
 32 33  1  6  0  0  0
 32 31  1  0  0  0  0
 33 34  1  0  0  0  0
 35 36  1  0  0  0  0
 35 34  1  0  0  0  0
 36 38  1  0  0  0  0
 37 36  1  0  0  0  0
 39 38  1  0  0  0  0
 40 32  1  0  0  0  0
 42 43  2  0  0  0  0
 43 41  1  0  0  0  0
 43 40  1  0  0  0  0
 45 44  1  0  0  0  0
 47 53  1  0  0  0  0
 47 45  1  1  0  0  0
 49 46  1  0  0  0  0
 50 54  1  6  0  0  0
 50 53  1  0  0  0  0
 52 46  1  0  0  0  0
 52 47  1  0  0  0  0
 53 48  1  1  0  0  0
 55 51  1  1  0  0  0
 55 49  1  0  0  0  0
 55 50  1  0  0  0  0
M  END
>  <MODEL>
2

>  <REMARK>
 VINA RESULT:      -8.1      1.481      1.980
  Name = 
  16 active torsions:
  status: ('A' for Active; 'I' for Inactive)
    1  A    between atoms: C_1  and  O_4
    2  A    between atoms: C_2  and  C_26
    3  A    between atoms: C_2  and  C_34
    4  A    between atoms: C_3  and  C_25
    5  A    between atoms: C_3  and  C_37
    6  A    between atoms: C_6  and  C_30
    7  A    between atoms: C_7  and  C_25
    8  A    between atoms: C_7  and  C_39
    9  A    between atoms: C_8  and  N_28
   10  A    between atoms: N_12  and  C_15
   11  A    between atoms: C_23  and  C_53
   12  A    between atoms: C_24  and  N_32
   13  A    between atoms: C_25  and  C_34
   14  A    between atoms: C_26  and  N_28
   15  A    between atoms: C_30  and  N_32
   16  A    between atoms: C_39  and  C_49
                            x       y       z     vdW  Elec       q    Type
                         _______ _______ _______ _____ _____    ______ ____

>  <TORSDO>
F 16

$$$$
=
 OpenBabel11042417543D

 55 59  0  0  1  0  0  0  0  0999 V2000
  191.8650  172.4740  144.1530 C   0  0  2  0  0  3  0  0  0  0  0  0
  191.8180  173.1930  142.8580 N   0  0  2  0  0  0  0  0  0  0  0  0
  191.3280  174.5870  142.9620 C   0  0  0  0  0  2  0  0  0  0  0  0
  192.6410  174.6140  145.4200 C   0  0  2  0  0  3  0  0  0  0  0  0
  191.1850  175.1160  145.4750 C   0  0  0  0  0  2  0  0  0  0  0  0
  192.8450  173.1050  145.1610 C   0  0  0  0  0  2  0  0  0  0  0  0
  192.2440  171.1520  143.9590 F   0  0  0  0  0  0  0  0  0  0  0  0
  190.4140  174.8000  144.1850 C   0  0  1  0  0  3  0  0  0  0  0  0
  185.7050  177.9990  140.9390 C   0  0  0  0  0  0  0  0  0  0  0  0
  188.0220  177.5840  145.0150 C   0  0  0  0  0  3  0  0  0  0  0  0
  186.7240  177.1490  144.4170 C   0  0  0  0  0  2  0  0  0  0  0  0
  189.3160  175.7680  143.9060 C   0  0  0  0  0  0  0  0  0  0  0  0
  185.8170  177.9690  142.2930 N   0  0  0  0  0  0  0  0  0  0  0  0
  187.6890  176.4750  142.1740 C   0  0  0  0  0  0  0  0  0  0  0  0
  187.5790  176.4880  140.7800 C   0  0  0  0  0  3  0  0  0  0  0  0
  186.7710  177.2340  142.9290 C   0  0  0  0  0  0  0  0  0  0  0  0
  188.7040  175.6440  142.7570 N   0  0  0  0  0  0  0  0  0  0  0  0
  189.1610  176.9320  144.7990 C   0  0  0  0  0  3  0  0  0  0  0  0
  186.5950  177.2540  140.1540 C   0  0  0  0  0  3  0  0  0  0  0  0
  184.6980  178.7600  140.3490 O   0  0  0  0  0  0  0  0  0  0  0  0
  183.4060  178.4660  140.5370 O   0  0  0  0  0  1  0  0  0  0  0  0
  190.9820  172.4290  141.9130 C   0  0  1  0  0  3  0  0  0  0  0  0
  187.3570  172.6000  141.9800 O   0  0  0  0  0  0  0  0  0  0  0  0
  189.6080  172.3350  142.3360 O   0  0  0  0  0  0  0  0  0  0  0  0
  188.5140  172.5760  141.4910 C   0  0  0  0  0  0  0  0  0  0  0  0
  187.6900  172.3540  139.2790 F   0  0  0  0  0  0  0  0  0  0  0  0
  188.7100  172.8970  140.0420 C   0  0  2  0  0  3  0  0  0  0  0  0
  190.0810  172.4220  139.5550 C   0  0  1  0  0  3  0  0  0  0  0  0
  191.1470  172.9850  140.4960 C   0  0  0  0  0  2  0  0  0  0  0  0
  190.1820  170.8930  139.4740 C   0  0  0  0  0  2  0  0  0  0  0  0
  189.9030  170.3640  138.0710 C   0  0  0  0  0  2  0  0  0  0  0  0
  190.4790  171.2610  136.9810 C   0  0  2  0  0  3  0  0  0  0  0  0
  189.4650  171.3590  135.8530 C   0  0  0  0  0  2  0  0  0  0  0  0
  189.8600  172.4370  134.8610 C   0  0  0  0  0  2  0  0  0  0  0  0
  190.1030  173.7370  135.6050 C   0  0  0  0  0  2  0  0  0  0  0  0
  188.9330  174.5950  135.4920 N   0  0  0  0  0  0  0  0  0  0  0  0
  188.4260  174.8000  136.8370 C   0  0  0  0  0  1  0  0  0  0  0  0
  189.3910  175.8900  135.0080 C   0  0  0  0  0  2  0  0  0  0  0  0
  190.7530  176.0340  135.2650 O   0  0  0  0  0  1  0  0  0  0  0  0
  191.7950  170.7010  136.4530 C   0  0  0  0  0  2  0  0  0  0  0  0
  193.0560  172.5860  137.1880 O   0  0  0  0  0  0  0  0  0  0  0  0
  193.8660  170.5400  137.8390 O   0  0  0  0  0  1  0  0  0  0  0  0
  192.9410  171.3320  137.1680 C   0  0  0  0  0  0  0  0  0  0  0  0
  193.4320  175.1040  146.5510 N   0  0  0  0  0  2  0  0  0  0  0  0
  194.5600  175.9100  146.0840 C   0  0  0  0  0  2  0  0  0  0  0  0
  196.2300  176.9850  143.7720 O   0  0  0  0  0  0  0  0  0  0  0  0
  195.1150  175.3530  144.7730 C   0  0  1  0  0  3  0  0  0  0  0  0
  196.4960  173.6180  146.0310 C   0  0  0  0  0  1  0  0  0  0  0  0
  196.9590  176.5760  142.6350 C   0  0  0  0  0  2  0  0  0  0  0  0
  197.1550  174.1820  143.6420 C   0  0  1  0  0  3  0  0  0  0  0  0
  195.7970  174.6940  141.6890 O   0  0  0  0  0  1  0  0  0  0  0  0
  195.0720  176.3380  143.7510 O   0  0  0  0  0  0  0  0  0  0  0  0
  196.5080  174.6960  144.9520 C   0  0  1  0  0  3  0  0  0  0  0  0
  196.7830  172.8590  143.3790 O   0  0  0  0  0  1  0  0  0  0  0  0
  196.9570  175.0570  142.3850 C   0  0  1  0  0  3  0  0  0  0  0  0
  1  7  1  6  0  0  0
  1  6  1  0  0  0  0
  2  3  1  1  0  0  0
  2  1  1  0  0  0  0
  3  8  1  0  0  0  0
  4  5  1  0  0  0  0
  4 44  1  1  0  0  0
  6  4  1  0  0  0  0
  8 12  1  6  0  0  0
  8  5  1  0  0  0  0
  9 13  2  0  0  0  0
 11 10  1  0  0  0  0
 12 18  1  0  0  0  0
 13 16  1  0  0  0  0
 14 17  1  0  0  0  0
 14 16  2  0  0  0  0
 15 14  1  0  0  0  0
 16 11  1  0  0  0  0
 17 12  2  0  0  0  0
 18 10  2  0  0  0  0
 19 15  2  0  0  0  0
 19  9  1  0  0  0  0
 20 21  1  0  0  0  0
 20  9  1  0  0  0  0
 22 29  1  6  0  0  0
 22 24  1  0  0  0  0
 22  2  1  0  0  0  0
 25 23  2  0  0  0  0
 25 24  1  0  0  0  0
 27 26  1  6  0  0  0
 27 25  1  0  0  0  0
 28 30  1  1  0  0  0
 28 27  1  0  0  0  0
 28 29  1  0  0  0  0
 31 30  1  0  0  0  0
 32 33  1  6  0  0  0
 32 31  1  0  0  0  0
 34 35  1  0  0  0  0
 34 33  1  0  0  0  0
 36 35  1  0  0  0  0
 36 37  1  0  0  0  0
 38 39  1  0  0  0  0
 38 36  1  0  0  0  0
 40 32  1  0  0  0  0
 40 43  1  0  0  0  0
 43 41  2  0  0  0  0
 43 42  1  0  0  0  0
 45 44  1  0  0  0  0
 47 53  1  0  0  0  0
 47 45  1  1  0  0  0
 49 46  1  0  0  0  0
 50 54  1  6  0  0  0
 50 53  1  0  0  0  0
 52 46  1  0  0  0  0
 52 47  1  0  0  0  0
 53 48  1  1  0  0  0
 55 51  1  1  0  0  0
 55 49  1  0  0  0  0
 55 50  1  0  0  0  0
M  END
>  <MODEL>
3

>  <REMARK>
 VINA RESULT:      -7.4      3.463      7.508
  Name = 
  16 active torsions:
  status: ('A' for Active; 'I' for Inactive)
    1  A    between atoms: C_1  and  O_4
    2  A    between atoms: C_2  and  C_26
    3  A    between atoms: C_2  and  C_34
    4  A    between atoms: C_3  and  C_25
    5  A    between atoms: C_3  and  C_37
    6  A    between atoms: C_6  and  C_30
    7  A    between atoms: C_7  and  C_25
    8  A    between atoms: C_7  and  C_39
    9  A    between atoms: C_8  and  N_28
   10  A    between atoms: N_12  and  C_15
   11  A    between atoms: C_23  and  C_53
   12  A    between atoms: C_24  and  N_32
   13  A    between atoms: C_25  and  C_34
   14  A    between atoms: C_26  and  N_28
   15  A    between atoms: C_30  and  N_32
   16  A    between atoms: C_39  and  C_49
                            x       y       z     vdW  Elec       q    Type
                         _______ _______ _______ _____ _____    ______ ____

>  <TORSDO>
F 16

$$$$
=
 OpenBabel11042417543D

 55 59  0  0  1  0  0  0  0  0999 V2000
  192.4890  175.1580  146.0090 C   0  0  2  0  0  3  0  0  0  0  0  0
  193.0410  175.6390  144.7200 N   0  0  2  0  0  0  0  0  0  0  0  0
  192.0310  175.7650  143.6440 C   0  0  0  0  0  2  0  0  0  0  0  0
  190.2940  176.5240  145.6870 C   0  0  2  0  0  3  0  0  0  0  0  0
  189.7390  175.4240  144.7610 C   0  0  0  0  0  2  0  0  0  0  0  0
  191.4560  176.1220  146.6230 C   0  0  0  0  0  2  0  0  0  0  0  0
  193.5090  174.9800  146.9350 F   0  0  0  0  0  0  0  0  0  0  0  0
  190.8260  174.8270  143.8550 C   0  0  1  0  0  3  0  0  0  0  0  0
  190.2140  171.0590  138.5290 C   0  0  0  0  0  0  0  0  0  0  0  0
  188.4820  174.7290  140.9120 C   0  0  0  0  0  3  0  0  0  0  0  0
  188.1850  173.2780  140.7230 C   0  0  0  0  0  2  0  0  0  0  0  0
  190.2910  174.2970  142.5690 C   0  0  0  0  0  0  0  0  0  0  0  0
  189.2250  171.8460  139.0280 N   0  0  0  0  0  0  0  0  0  0  0  0
  190.5890  172.4990  140.8890 C   0  0  0  0  0  0  0  0  0  0  0  0
  191.6120  171.6860  140.3910 C   0  0  0  0  0  3  0  0  0  0  0  0
  189.3730  172.5590  140.1780 C   0  0  0  0  0  0  0  0  0  0  0  0
  190.8240  173.1890  142.1260 N   0  0  0  0  0  0  0  0  0  0  0  0
  189.4050  175.1620  141.7680 C   0  0  0  0  0  3  0  0  0  0  0  0
  191.4360  170.9680  139.2090 C   0  0  0  0  0  3  0  0  0  0  0  0
  189.9960  170.3410  137.3540 O   0  0  0  0  0  0  0  0  0  0  0  0
  189.5360  170.9430  136.2510 O   0  0  0  0  0  1  0  0  0  0  0  0
  194.1280  174.7370  144.2960 C   0  0  1  0  0  3  0  0  0  0  0  0
  196.9650  174.0030  146.4380 O   0  0  0  0  0  0  0  0  0  0  0  0
  195.3120  174.8740  145.1060 O   0  0  0  0  0  0  0  0  0  0  0  0
  196.0230  173.7860  145.6360 C   0  0  0  0  0  0  0  0  0  0  0  0
  196.7330  171.5590  145.2400 F   0  0  0  0  0  0  0  0  0  0  0  0
  195.6190  172.3760  145.3360 C   0  0  2  0  0  3  0  0  0  0  0  0
  194.7690  172.3070  144.0660 C   0  0  1  0  0  3  0  0  0  0  0  0
  193.6120  173.2980  144.2060 C   0  0  0  0  0  2  0  0  0  0  0  0
  195.5790  172.5950  142.7950 C   0  0  0  0  0  2  0  0  0  0  0  0
  194.7080  172.6320  141.5430 C   0  0  0  0  0  2  0  0  0  0  0  0
  194.9130  173.9010  140.7250 C   0  0  2  0  0  3  0  0  0  0  0  0
  195.0480  173.5130  139.2620 C   0  0  0  0  0  2  0  0  0  0  0  0
  194.4170  174.5600  138.3620 C   0  0  0  0  0  2  0  0  0  0  0  0
  192.9190  174.3310  138.3030 C   0  0  0  0  0  2  0  0  0  0  0  0
  192.3980  174.8120  137.0320 N   0  0  0  0  0  0  0  0  0  0  0  0
  193.3090  175.8420  136.5640 C   0  0  0  0  0  1  0  0  0  0  0  0
  192.4810  173.7090  136.0850 C   0  0  0  0  0  2  0  0  0  0  0  0
  191.3070  173.6410  135.3350 O   0  0  0  0  0  1  0  0  0  0  0  0
  196.1580  174.6520  141.1840 C   0  0  0  0  0  2  0  0  0  0  0  0
  194.7150  176.5500  141.1400 O   0  0  0  0  0  0  0  0  0  0  0  0
  196.6610  176.8130  142.3290 O   0  0  0  0  0  1  0  0  0  0  0  0
  195.8050  176.0570  141.5370 C   0  0  0  0  0  0  0  0  0  0  0  0
  189.2260  177.2400  146.3890 N   0  0  0  0  0  2  0  0  0  0  0  0
  187.9200  176.6640  146.0690 C   0  0  0  0  0  2  0  0  0  0  0  0
  187.0740  177.5570  143.2790 O   0  0  0  0  0  0  0  0  0  0  0  0
  186.9880  177.7280  145.4870 C   0  0  1  0  0  3  0  0  0  0  0  0
  184.9750  176.6770  146.6460 C   0  0  0  0  0  1  0  0  0  0  0  0
  186.1250  178.3520  142.6000 C   0  0  0  0  0  2  0  0  0  0  0  0
  184.5580  178.2290  144.6770 C   0  0  1  0  0  3  0  0  0  0  0  0
  185.6880  180.2700  143.9850 O   0  0  0  0  0  1  0  0  0  0  0  0
  187.5330  178.2760  144.2960 O   0  0  0  0  0  0  0  0  0  0  0  0
  185.5320  177.2190  145.3340 C   0  0  1  0  0  3  0  0  0  0  0  0
  183.9610  179.0530  145.6370 O   0  0  0  0  0  1  0  0  0  0  0  0
  185.1230  179.0770  143.5160 C   0  0  1  0  0  3  0  0  0  0  0  0
  1  6  1  0  0  0  0
  1  7  1  1  0  0  0
  2  3  1  6  0  0  0
  2  1  1  0  0  0  0
  3  8  1  0  0  0  0
  4 44  1  1  0  0  0
  4  6  1  0  0  0  0
  5  4  1  0  0  0  0
  8 12  1  6  0  0  0
  8  5  1  0  0  0  0
  9 13  2  0  0  0  0
  9 19  1  0  0  0  0
 10 18  2  0  0  0  0
 11 10  1  0  0  0  0
 13 16  1  0  0  0  0
 14 17  1  0  0  0  0
 15 14  1  0  0  0  0
 16 11  1  0  0  0  0
 16 14  2  0  0  0  0
 17 12  2  0  0  0  0
 18 12  1  0  0  0  0
 19 15  2  0  0  0  0
 20  9  1  0  0  0  0
 21 20  1  0  0  0  0
 22 29  1  1  0  0  0
 22  2  1  0  0  0  0
 22 24  1  0  0  0  0
 24 25  1  0  0  0  0
 25 23  2  0  0  0  0
 27 26  1  6  0  0  0
 27 25  1  0  0  0  0
 28 30  1  6  0  0  0
 28 29  1  0  0  0  0
 28 27  1  0  0  0  0
 31 30  1  0  0  0  0
 32 33  1  6  0  0  0
 32 40  1  0  0  0  0
 32 31  1  0  0  0  0
 34 33  1  0  0  0  0
 35 34  1  0  0  0  0
 36 35  1  0  0  0  0
 37 36  1  0  0  0  0
 38 36  1  0  0  0  0
 39 38  1  0  0  0  0
 40 43  1  0  0  0  0
 41 43  2  0  0  0  0
 43 42  1  0  0  0  0
 45 44  1  0  0  0  0
 46 52  1  0  0  0  0
 47 45  1  6  0  0  0
 49 46  1  0  0  0  0
 49 55  1  0  0  0  0
 50 53  1  0  0  0  0
 50 54  1  1  0  0  0
 52 47  1  0  0  0  0
 53 47  1  0  0  0  0
 53 48  1  1  0  0  0
 55 51  1  1  0  0  0
 55 50  1  0  0  0  0
M  END
>  <MODEL>
4

>  <REMARK>
 VINA RESULT:      -7.3      3.092      9.038
  Name = 
  16 active torsions:
  status: ('A' for Active; 'I' for Inactive)
    1  A    between atoms: C_1  and  O_4
    2  A    between atoms: C_2  and  C_26
    3  A    between atoms: C_2  and  C_34
    4  A    between atoms: C_3  and  C_25
    5  A    between atoms: C_3  and  C_37
    6  A    between atoms: C_6  and  C_30
    7  A    between atoms: C_7  and  C_25
    8  A    between atoms: C_7  and  C_39
    9  A    between atoms: C_8  and  N_28
   10  A    between atoms: N_12  and  C_15
   11  A    between atoms: C_23  and  C_53
   12  A    between atoms: C_24  and  N_32
   13  A    between atoms: C_25  and  C_34
   14  A    between atoms: C_26  and  N_28
   15  A    between atoms: C_30  and  N_32
   16  A    between atoms: C_39  and  C_49
                            x       y       z     vdW  Elec       q    Type
                         _______ _______ _______ _____ _____    ______ ____

>  <TORSDO>
F 16

$$$$
=
 OpenBabel11042417543D

 55 59  0  0  1  0  0  0  0  0999 V2000
  192.5510  175.6940  145.9610 C   0  0  2  0  0  3  0  0  0  0  0  0
  192.9800  176.3810  144.7200 N   0  0  2  0  0  0  0  0  0  0  0  0
  191.9210  176.4750  143.6880 C   0  0  0  0  0  2  0  0  0  0  0  0
  190.1770  176.7620  145.8430 C   0  0  2  0  0  3  0  0  0  0  0  0
  189.7440  175.6980  144.8170 C   0  0  0  0  0  2  0  0  0  0  0  0
  191.4190  176.4310  146.7020 C   0  0  0  0  0  2  0  0  0  0  0  0
  193.6210  175.5640  146.8370 F   0  0  0  0  0  0  0  0  0  0  0  0
  190.8660  175.3590  143.8240 C   0  0  1  0  0  3  0  0  0  0  0  0
  190.8310  172.7220  137.8260 C   0  0  0  0  0  0  0  0  0  0  0  0
  188.2600  174.8230  141.1620 C   0  0  0  0  0  3  0  0  0  0  0  0
  188.5240  173.4420  140.6570 C   0  0  0  0  0  2  0  0  0  0  0  0
  190.3600  174.8980  142.5010 C   0  0  0  0  0  0  0  0  0  0  0  0
  189.7190  172.9150  138.5840 N   0  0  0  0  0  0  0  0  0  0  0  0
  191.0300  173.7310  140.4190 C   0  0  0  0  0  0  0  0  0  0  0  0
  192.1820  173.5280  139.6530 C   0  0  0  0  0  3  0  0  0  0  0  0
  189.7800  173.4020  139.8540 C   0  0  0  0  0  0  0  0  0  0  0  0
  191.1940  174.2170  141.7600 N   0  0  0  0  0  0  0  0  0  0  0  0
  189.0780  175.4410  142.0110 C   0  0  0  0  0  3  0  0  0  0  0  0
  192.0910  173.0310  138.3530 C   0  0  0  0  0  3  0  0  0  0  0  0
  190.7030  172.2070  136.5370 O   0  0  0  0  0  0  0  0  0  0  0  0
  191.4010  171.1330  136.1480 O   0  0  0  0  0  1  0  0  0  0  0  0
  194.1640  175.6910  144.1730 C   0  0  1  0  0  3  0  0  0  0  0  0
  195.2670  176.1870  140.7500 O   0  0  0  0  0  0  0  0  0  0  0  0
  194.2090  175.7220  142.7330 O   0  0  0  0  0  0  0  0  0  0  0  0
  195.3560  176.0580  141.9970 C   0  0  0  0  0  0  0  0  0  0  0  0
  197.7200  175.9040  141.9180 F   0  0  0  0  0  0  0  0  0  0  0  0
  196.6550  176.3560  142.6780 C   0  0  2  0  0  3  0  0  0  0  0  0
  196.6850  175.7590  144.0870 C   0  0  1  0  0  3  0  0  0  0  0  0
  195.4360  176.2270  144.8350 C   0  0  0  0  0  2  0  0  0  0  0  0
  196.7700  174.2260  144.0780 C   0  0  0  0  0  2  0  0  0  0  0  0
  197.1290  173.6540  145.4450 C   0  0  0  0  0  2  0  0  0  0  0  0
  196.5590  172.2570  145.6640 C   0  0  2  0  0  3  0  0  0  0  0  0
  197.5860  171.2400  145.1950 C   0  0  0  0  0  2  0  0  0  0  0  0
  197.8800  171.4080  143.7150 C   0  0  0  0  0  2  0  0  0  0  0  0
  197.8940  170.0440  143.0510 C   0  0  0  0  0  2  0  0  0  0  0  0
  196.9290  170.0190  141.9600 N   0  0  0  0  0  0  0  0  0  0  0  0
  196.7730  171.3890  141.5030 C   0  0  0  0  0  1  0  0  0  0  0  0
  197.5330  169.2720  140.8660 C   0  0  0  0  0  2  0  0  0  0  0  0
  196.7290  169.3660  139.7310 O   0  0  0  0  0  1  0  0  0  0  0  0
  195.2540  172.0750  144.8960 C   0  0  0  0  0  2  0  0  0  0  0  0
  194.5700  170.2880  146.3200 O   0  0  0  0  0  1  0  0  0  0  0  0
  194.3180  169.9120  144.0700 O   0  0  0  0  0  0  0  0  0  0  0  0
  194.7070  170.7090  145.1410 C   0  0  0  0  0  0  0  0  0  0  0  0
  189.0490  177.2410  146.6450 N   0  0  0  0  0  2  0  0  0  0  0  0
  187.7920  176.6670  146.1660 C   0  0  0  0  0  2  0  0  0  0  0  0
  187.0160  177.6090  143.3720 O   0  0  0  0  0  0  0  0  0  0  0  0
  186.8900  177.7540  145.5790 C   0  0  1  0  0  3  0  0  0  0  0  0
  184.8370  176.7240  146.6860 C   0  0  0  0  0  1  0  0  0  0  0  0
  186.0950  178.4280  142.6840 C   0  0  0  0  0  2  0  0  0  0  0  0
  184.4850  178.3070  144.7290 C   0  0  1  0  0  3  0  0  0  0  0  0
  185.6640  180.3360  144.0840 O   0  0  0  0  0  1  0  0  0  0  0  0
  187.4680  178.3070  144.4070 O   0  0  0  0  0  0  0  0  0  0  0  0
  185.4290  177.2730  145.3910 C   0  0  1  0  0  3  0  0  0  0  0  0
  183.8840  179.1290  145.6870 O   0  0  0  0  0  1  0  0  0  0  0  0
  185.0880  179.1590  143.5900 C   0  0  1  0  0  3  0  0  0  0  0  0
  1  6  1  0  0  0  0
  1  7  1  1  0  0  0
  2  3  1  6  0  0  0
  2  1  1  0  0  0  0
  3  8  1  0  0  0  0
  4 44  1  1  0  0  0
  4  6  1  0  0  0  0
  5  4  1  0  0  0  0
  8 12  1  6  0  0  0
  8  5  1  0  0  0  0
  9 19  1  0  0  0  0
  9 13  2  0  0  0  0
 10 18  2  0  0  0  0
 11 10  1  0  0  0  0
 13 16  1  0  0  0  0
 14 17  1  0  0  0  0
 15 14  1  0  0  0  0
 16 14  2  0  0  0  0
 16 11  1  0  0  0  0
 17 12  2  0  0  0  0
 18 12  1  0  0  0  0
 19 15  2  0  0  0  0
 20  9  1  0  0  0  0
 21 20  1  0  0  0  0
 22  2  1  0  0  0  0
 22 29  1  1  0  0  0
 23 25  2  0  0  0  0
 24 22  1  0  0  0  0
 25 27  1  0  0  0  0
 25 24  1  0  0  0  0
 27 26  1  6  0  0  0
 27 28  1  0  0  0  0
 28 30  1  6  0  0  0
 28 29  1  0  0  0  0
 30 31  1  0  0  0  0
 31 32  1  0  0  0  0
 32 40  1  6  0  0  0
 33 32  1  0  0  0  0
 34 33  1  0  0  0  0
 35 34  1  0  0  0  0
 36 35  1  0  0  0  0
 37 36  1  0  0  0  0
 38 36  1  0  0  0  0
 39 38  1  0  0  0  0
 40 43  1  0  0  0  0
 42 43  2  0  0  0  0
 43 41  1  0  0  0  0
 45 44  1  0  0  0  0
 46 52  1  0  0  0  0
 47 45  1  6  0  0  0
 49 46  1  0  0  0  0
 49 55  1  0  0  0  0
 50 53  1  0  0  0  0
 50 54  1  1  0  0  0
 52 47  1  0  0  0  0
 53 47  1  0  0  0  0
 53 48  1  1  0  0  0
 55 51  1  1  0  0  0
 55 50  1  0  0  0  0
M  END
>  <MODEL>
5

>  <REMARK>
 VINA RESULT:      -7.1      2.910     10.360
  Name = 
  16 active torsions:
  status: ('A' for Active; 'I' for Inactive)
    1  A    between atoms: C_1  and  O_4
    2  A    between atoms: C_2  and  C_26
    3  A    between atoms: C_2  and  C_34
    4  A    between atoms: C_3  and  C_25
    5  A    between atoms: C_3  and  C_37
    6  A    between atoms: C_6  and  C_30
    7  A    between atoms: C_7  and  C_25
    8  A    between atoms: C_7  and  C_39
    9  A    between atoms: C_8  and  N_28
   10  A    between atoms: N_12  and  C_15
   11  A    between atoms: C_23  and  C_53
   12  A    between atoms: C_24  and  N_32
   13  A    between atoms: C_25  and  C_34
   14  A    between atoms: C_26  and  N_28
   15  A    between atoms: C_30  and  N_32
   16  A    between atoms: C_39  and  C_49
                            x       y       z     vdW  Elec       q    Type
                         _______ _______ _______ _____ _____    ______ ____

>  <TORSDO>
F 16

$$$$
=
 OpenBabel11042417543D

 55 59  0  0  1  0  0  0  0  0999 V2000
  192.1620  172.1900  144.0100 C   0  0  2  0  0  3  0  0  0  0  0  0
  192.0140  173.0030  142.7800 N   0  0  2  0  0  0  0  0  0  0  0  0
  191.4920  174.3680  143.0220 C   0  0  0  0  0  2  0  0  0  0  0  0
  192.9520  174.2520  145.3930 C   0  0  2  0  0  3  0  0  0  0  0  0
  191.4880  174.6990  145.5730 C   0  0  0  0  0  2  0  0  0  0  0  0
  193.1830  172.7740  145.0050 C   0  0  0  0  0  2  0  0  0  0  0  0
  192.5660  170.9000  143.6910 F   0  0  0  0  0  0  0  0  0  0  0  0
  190.6490  174.4570  144.3090 C   0  0  1  0  0  3  0  0  0  0  0  0
  185.5410  178.2200  145.9480 C   0  0  0  0  0  0  0  0  0  0  0  0
  188.3070  176.7350  142.4410 C   0  0  0  0  0  3  0  0  0  0  0  0
  188.1670  177.9290  143.3260 C   0  0  0  0  0  2  0  0  0  0  0  0
  189.5080  175.4050  144.1720 C   0  0  0  0  0  0  0  0  0  0  0  0
  186.2610  178.3620  144.8040 N   0  0  0  0  0  0  0  0  0  0  0  0
  187.7770  176.6240  145.4610 C   0  0  0  0  0  0  0  0  0  0  0  0
  187.0510  176.4750  146.6470 C   0  0  0  0  0  3  0  0  0  0  0  0
  187.3590  177.6030  144.5360 C   0  0  0  0  0  0  0  0  0  0  0  0
  188.9400  175.8030  145.2800 N   0  0  0  0  0  0  0  0  0  0  0  0
  188.9390  175.6290  142.8290 C   0  0  0  0  0  3  0  0  0  0  0  0
  185.9270  177.2630  146.8950 C   0  0  0  0  0  3  0  0  0  0  0  0
  184.4340  179.0380  146.1700 O   0  0  0  0  0  0  0  0  0  0  0  0
  183.3940  179.0410  145.3280 O   0  0  0  0  0  1  0  0  0  0  0  0
  191.1440  172.2860  141.8290 C   0  0  1  0  0  3  0  0  0  0  0  0
  187.5280  172.5690  141.9420 O   0  0  0  0  0  0  0  0  0  0  0  0
  189.7730  172.2260  142.2670 O   0  0  0  0  0  0  0  0  0  0  0  0
  188.6780  172.5190  141.4390 C   0  0  0  0  0  0  0  0  0  0  0  0
  187.8230  172.3700  139.2330 F   0  0  0  0  0  0  0  0  0  0  0  0
  188.8680  172.8650  139.9950 C   0  0  2  0  0  3  0  0  0  0  0  0
  190.2180  172.3570  139.4830 C   0  0  1  0  0  3  0  0  0  0  0  0
  191.3120  172.8670  140.4220 C   0  0  0  0  0  2  0  0  0  0  0  0
  190.2700  170.8280  139.3680 C   0  0  0  0  0  2  0  0  0  0  0  0
  189.6610  170.3190  138.0660 C   0  0  0  0  0  2  0  0  0  0  0  0
  190.3660  170.8710  136.8340 C   0  0  2  0  0  3  0  0  0  0  0  0
  189.3160  171.1950  135.7840 C   0  0  0  0  0  2  0  0  0  0  0  0
  189.7950  172.3000  134.8600 C   0  0  0  0  0  2  0  0  0  0  0  0
  190.4140  173.4110  135.6880 C   0  0  0  0  0  2  0  0  0  0  0  0
  190.1780  174.6940  135.0420 N   0  0  0  0  0  0  0  0  0  0  0  0
  188.9750  175.2520  135.6340 C   0  0  0  0  0  1  0  0  0  0  0  0
  191.2800  175.5730  135.4090 C   0  0  0  0  0  2  0  0  0  0  0  0
  191.9220  175.0740  136.5420 O   0  0  0  0  0  1  0  0  0  0  0  0
  191.3650  169.8630  136.2790 C   0  0  0  0  0  2  0  0  0  0  0  0
  192.9870  171.4310  137.0530 O   0  0  0  0  0  1  0  0  0  0  0  0
  193.7790  169.3210  136.6180 O   0  0  0  0  0  0  0  0  0  0  0  0
  192.7520  170.2560  136.6620 C   0  0  0  0  0  0  0  0  0  0  0  0
  193.7960  174.6800  146.5100 N   0  0  0  0  0  2  0  0  0  0  0  0
  194.7750  175.6730  146.0680 C   0  0  0  0  0  2  0  0  0  0  0  0
  196.4100  177.0410  143.8880 O   0  0  0  0  0  0  0  0  0  0  0  0
  195.4000  175.2600  144.7350 C   0  0  1  0  0  3  0  0  0  0  0  0
  196.8810  173.5420  145.9000 C   0  0  0  0  0  1  0  0  0  0  0  0
  197.1930  176.7740  142.7440 C   0  0  0  0  0  2  0  0  0  0  0  0
  197.5480  174.3310  143.5780 C   0  0  1  0  0  3  0  0  0  0  0  0
  196.1980  174.8880  141.6310 O   0  0  0  0  0  1  0  0  0  0  0  0
  195.3050  176.3130  143.7880 O   0  0  0  0  0  0  0  0  0  0  0  0
  196.8340  174.6960  144.9030 C   0  0  1  0  0  3  0  0  0  0  0  0
  197.2820  173.0090  143.2070 O   0  0  0  0  0  1  0  0  0  0  0  0
  197.3110  175.2820  142.3830 C   0  0  1  0  0  3  0  0  0  0  0  0
  1  7  1  6  0  0  0
  1  6  1  0  0  0  0
  2  3  1  1  0  0  0
  2  1  1  0  0  0  0
  3  8  1  0  0  0  0
  4  5  1  0  0  0  0
  4 44  1  1  0  0  0
  6  4  1  0  0  0  0
  8 12  1  6  0  0  0
  8  5  1  0  0  0  0
  9 20  1  0  0  0  0
  9 19  1  0  0  0  0
 10 18  2  0  0  0  0
 10 11  1  0  0  0  0
 11 16  1  0  0  0  0
 12 17  2  0  0  0  0
 13  9  2  0  0  0  0
 14 15  1  0  0  0  0
 15 19  2  0  0  0  0
 16 13  1  0  0  0  0
 16 14  2  0  0  0  0
 17 14  1  0  0  0  0
 18 12  1  0  0  0  0
 21 20  1  0  0  0  0
 22 29  1  6  0  0  0
 22 24  1  0  0  0  0
 22  2  1  0  0  0  0
 25 23  2  0  0  0  0
 25 24  1  0  0  0  0
 27 26  1  6  0  0  0
 27 25  1  0  0  0  0
 28 30  1  1  0  0  0
 28 27  1  0  0  0  0
 28 29  1  0  0  0  0
 31 30  1  0  0  0  0
 32 33  1  6  0  0  0
 32 31  1  0  0  0  0
 34 35  1  0  0  0  0
 34 33  1  0  0  0  0
 36 38  1  0  0  0  0
 36 37  1  0  0  0  0
 36 35  1  0  0  0  0
 38 39  1  0  0  0  0
 40 43  1  0  0  0  0
 40 32  1  0  0  0  0
 42 43  2  0  0  0  0
 43 41  1  0  0  0  0
 45 44  1  0  0  0  0
 47 53  1  0  0  0  0
 47 45  1  1  0  0  0
 49 46  1  0  0  0  0
 50 54  1  6  0  0  0
 50 53  1  0  0  0  0
 52 46  1  0  0  0  0
 52 47  1  0  0  0  0
 53 48  1  1  0  0  0
 55 51  1  1  0  0  0
 55 49  1  0  0  0  0
 55 50  1  0  0  0  0
M  END
>  <MODEL>
6

>  <REMARK>
 VINA RESULT:      -7.1      3.663      8.193
  Name = 
  16 active torsions:
  status: ('A' for Active; 'I' for Inactive)
    1  A    between atoms: C_1  and  O_4
    2  A    between atoms: C_2  and  C_26
    3  A    between atoms: C_2  and  C_34
    4  A    between atoms: C_3  and  C_25
    5  A    between atoms: C_3  and  C_37
    6  A    between atoms: C_6  and  C_30
    7  A    between atoms: C_7  and  C_25
    8  A    between atoms: C_7  and  C_39
    9  A    between atoms: C_8  and  N_28
   10  A    between atoms: N_12  and  C_15
   11  A    between atoms: C_23  and  C_53
   12  A    between atoms: C_24  and  N_32
   13  A    between atoms: C_25  and  C_34
   14  A    between atoms: C_26  and  N_28
   15  A    between atoms: C_30  and  N_32
   16  A    between atoms: C_39  and  C_49
                            x       y       z     vdW  Elec       q    Type
                         _______ _______ _______ _____ _____    ______ ____

>  <TORSDO>
F 16

$$$$
=
 OpenBabel11042417543D

 55 59  0  0  1  0  0  0  0  0999 V2000
  189.4180  173.9830  139.9430 C   0  0  2  0  0  3  0  0  0  0  0  0
  189.5880  172.5510  140.2890 N   0  0  2  0  0  0  0  0  0  0  0  0
  189.8410  172.3070  141.7280 C   0  0  0  0  0  2  0  0  0  0  0  0
  188.1240  174.4610  142.1530 C   0  0  2  0  0  3  0  0  0  0  0  0
  189.4570  174.5540  142.9200 C   0  0  0  0  0  2  0  0  0  0  0  0
  188.1940  174.6280  140.6190 C   0  0  0  0  0  2  0  0  0  0  0  0
  189.2780  174.1340  138.5700 F   0  0  0  0  0  0  0  0  0  0  0  0
  190.4830  173.5220  142.4280 C   0  0  1  0  0  3  0  0  0  0  0  0
  194.5910  169.7800  145.8990 C   0  0  0  0  0  0  0  0  0  0  0  0
  192.6620  174.0500  145.4500 C   0  0  0  0  0  3  0  0  0  0  0  0
  193.9420  173.3590  145.1100 C   0  0  0  0  0  2  0  0  0  0  0  0
  191.4590  173.1180  143.4780 C   0  0  0  0  0  0  0  0  0  0  0  0
  194.5920  171.1390  145.9180 N   0  0  0  0  0  0  0  0  0  0  0  0
  192.8660  171.2310  144.2550 C   0  0  0  0  0  0  0  0  0  0  0  0
  192.8620  169.8330  144.2200 C   0  0  0  0  0  3  0  0  0  0  0  0
  193.7670  171.8780  145.1260 C   0  0  0  0  0  0  0  0  0  0  0  0
  191.9840  171.9270  143.3610 N   0  0  0  0  0  0  0  0  0  0  0  0
  191.5750  173.9540  144.6880 C   0  0  0  0  0  3  0  0  0  0  0  0
  193.7150  169.0990  145.0440 C   0  0  0  0  0  3  0  0  0  0  0  0
  195.4710  169.0800  146.7240 O   0  0  0  0  0  0  0  0  0  0  0  0
  196.5620  169.6670  147.2290 O   0  0  0  0  0  1  0  0  0  0  0  0
  190.6810  171.9860  139.4770 C   0  0  1  0  0  3  0  0  0  0  0  0
  190.1460  170.8070  136.0860 O   0  0  0  0  0  0  0  0  0  0  0  0
  190.2020  171.2450  138.3370 O   0  0  0  0  0  0  0  0  0  0  0  0
  190.7130  171.3960  137.0390 C   0  0  0  0  0  0  0  0  0  0  0  0
  192.6700  171.7990  135.7630 F   0  0  0  0  0  0  0  0  0  0  0  0
  191.8600  172.3170  136.7590 C   0  0  2  0  0  3  0  0  0  0  0  0
  192.6580  172.6020  138.0340 C   0  0  1  0  0  3  0  0  0  0  0  0
  191.6870  173.0820  139.1140 C   0  0  0  0  0  2  0  0  0  0  0  0
  193.4500  171.3810  138.5200 C   0  0  0  0  0  2  0  0  0  0  0  0
  194.6540  171.7680  139.3730 C   0  0  0  0  0  2  0  0  0  0  0  0
  194.4280  171.5070  140.8580 C   0  0  2  0  0  3  0  0  0  0  0  0
  195.1670  172.5720  141.6510 C   0  0  0  0  0  2  0  0  0  0  0  0
  194.5370  173.9380  141.4440 C   0  0  0  0  0  2  0  0  0  0  0  0
  195.6290  174.9910  141.4060 C   0  0  0  0  0  2  0  0  0  0  0  0
  195.2050  176.1650  142.1560 N   0  0  0  0  0  0  0  0  0  0  0  0
  193.7870  176.0060  142.4240 C   0  0  0  0  0  1  0  0  0  0  0  0
  195.8880  176.1260  143.4410 C   0  0  0  0  0  2  0  0  0  0  0  0
  196.8160  177.1640  143.5130 O   0  0  0  0  0  1  0  0  0  0  0  0
  194.9290  170.1220  141.2510 C   0  0  0  0  0  2  0  0  0  0  0  0
  196.5020  170.2000  143.0420 O   0  0  0  0  0  1  0  0  0  0  0  0
  197.4000  170.2940  140.9320 O   0  0  0  0  0  0  0  0  0  0  0  0
  196.3140  170.2170  141.7960 C   0  0  0  0  0  0  0  0  0  0  0  0
  187.0820  175.2890  142.7640 N   0  0  0  0  0  2  0  0  0  0  0  0
  187.6570  176.2020  143.7510 C   0  0  0  0  0  2  0  0  0  0  0  0
  187.3410  177.4380  146.5200 O   0  0  0  0  0  0  0  0  0  0  0  0
  186.5550  176.9450  144.5080 C   0  0  1  0  0  3  0  0  0  0  0  0
  186.5560  178.8180  142.7790 C   0  0  0  0  0  1  0  0  0  0  0  0
  186.5040  178.2880  147.2760 C   0  0  0  0  0  2  0  0  0  0  0  0
  185.5530  179.2890  145.0670 C   0  0  1  0  0  3  0  0  0  0  0  0
  184.2460  177.8780  146.5580 O   0  0  0  0  0  1  0  0  0  0  0  0
  186.5560  176.5810  145.8800 O   0  0  0  0  0  0  0  0  0  0  0  0
  186.5980  178.4750  144.2650 C   0  0  1  0  0  3  0  0  0  0  0  0
  184.3530  179.4080  144.3580 O   0  0  0  0  0  1  0  0  0  0  0  0
  185.2780  178.8230  146.5140 C   0  0  1  0  0  3  0  0  0  0  0  0
  1  7  1  6  0  0  0
  1  2  1  0  0  0  0
  1  6  1  0  0  0  0
  2  3  1  1  0  0  0
  3  8  1  0  0  0  0
  4 44  1  1  0  0  0
  4  5  1  0  0  0  0
  6  4  1  0  0  0  0
  8  5  1  0  0  0  0
  8 12  1  1  0  0  0
  9 13  2  0  0  0  0
  9 20  1  0  0  0  0
 11 16  1  0  0  0  0
 11 10  1  0  0  0  0
 12 18  1  0  0  0  0
 14 16  2  0  0  0  0
 15 14  1  0  0  0  0
 15 19  2  0  0  0  0
 16 13  1  0  0  0  0
 17 12  2  0  0  0  0
 17 14  1  0  0  0  0
 18 10  2  0  0  0  0
 19  9  1  0  0  0  0
 20 21  1  0  0  0  0
 22 29  1  6  0  0  0
 22  2  1  0  0  0  0
 23 25  2  0  0  0  0
 24 22  1  0  0  0  0
 25 24  1  0  0  0  0
 27 26  1  6  0  0  0
 27 25  1  0  0  0  0
 27 28  1  0  0  0  0
 28 30  1  1  0  0  0
 28 29  1  0  0  0  0
 30 31  1  0  0  0  0
 32 31  1  6  0  0  0
 32 40  1  0  0  0  0
 32 33  1  0  0  0  0
 34 33  1  0  0  0  0
 35 34  1  0  0  0  0
 35 36  1  0  0  0  0
 36 37  1  0  0  0  0
 36 38  1  0  0  0  0
 38 39  1  0  0  0  0
 40 43  1  0  0  0  0
 42 43  2  0  0  0  0
 43 41  1  0  0  0  0
 44 45  1  0  0  0  0
 46 49  1  0  0  0  0
 47 45  1  6  0  0  0
 47 52  1  0  0  0  0
 50 54  1  6  0  0  0
 50 55  1  0  0  0  0
 52 46  1  0  0  0  0
 53 48  1  6  0  0  0
 53 47  1  0  0  0  0
 53 50  1  0  0  0  0
 55 51  1  6  0  0  0
 55 49  1  0  0  0  0
M  END
>  <MODEL>
7

>  <REMARK>
 VINA RESULT:      -7.0      3.561     10.597
  Name = 
  16 active torsions:
  status: ('A' for Active; 'I' for Inactive)
    1  A    between atoms: C_1  and  O_4
    2  A    between atoms: C_2  and  C_26
    3  A    between atoms: C_2  and  C_34
    4  A    between atoms: C_3  and  C_25
    5  A    between atoms: C_3  and  C_37
    6  A    between atoms: C_6  and  C_30
    7  A    between atoms: C_7  and  C_25
    8  A    between atoms: C_7  and  C_39
    9  A    between atoms: C_8  and  N_28
   10  A    between atoms: N_12  and  C_15
   11  A    between atoms: C_23  and  C_53
   12  A    between atoms: C_24  and  N_32
   13  A    between atoms: C_25  and  C_34
   14  A    between atoms: C_26  and  N_28
   15  A    between atoms: C_30  and  N_32
   16  A    between atoms: C_39  and  C_49
                            x       y       z     vdW  Elec       q    Type
                         _______ _______ _______ _____ _____    ______ ____

>  <TORSDO>
F 16

$$$$
=
 OpenBabel11042417543D

 55 59  0  0  1  0  0  0  0  0999 V2000
  192.8630  175.2330  145.7180 C   0  0  2  0  0  3  0  0  0  0  0  0
  193.4470  175.5960  144.4050 N   0  0  2  0  0  0  0  0  0  0  0  0
  192.4440  175.7690  143.3280 C   0  0  0  0  0  2  0  0  0  0  0  0
  190.8090  176.7910  145.3410 C   0  0  2  0  0  3  0  0  0  0  0  0
  190.1400  175.7080  144.4720 C   0  0  0  0  0  2  0  0  0  0  0  0
  191.9340  176.3210  146.2900 C   0  0  0  0  0  2  0  0  0  0  0  0
  193.8690  174.9980  146.6460 F   0  0  0  0  0  0  0  0  0  0  0  0
  191.1540  174.9650  143.5900 C   0  0  1  0  0  3  0  0  0  0  0  0
  190.7520  172.4480  137.5540 C   0  0  0  0  0  0  0  0  0  0  0  0
  188.3400  173.9640  141.3000 C   0  0  0  0  0  3  0  0  0  0  0  0
  188.7880  172.6680  140.7080 C   0  0  0  0  0  2  0  0  0  0  0  0
  190.5590  174.4310  142.3330 C   0  0  0  0  0  0  0  0  0  0  0  0
  189.7470  172.4110  138.4670 N   0  0  0  0  0  0  0  0  0  0  0  0
  191.1300  173.4430  140.1320 C   0  0  0  0  0  0  0  0  0  0  0  0
  192.1750  173.4790  139.2050 C   0  0  0  0  0  3  0  0  0  0  0  0
  189.8980  172.8840  139.7350 C   0  0  0  0  0  0  0  0  0  0  0  0
  191.3910  173.9350  141.4560 N   0  0  0  0  0  0  0  0  0  0  0  0
  189.1400  174.7190  142.0510 C   0  0  0  0  0  3  0  0  0  0  0  0
  191.9930  172.9910  137.9110 C   0  0  0  0  0  3  0  0  0  0  0  0
  190.5390  171.9340  136.2750 O   0  0  0  0  0  0  0  0  0  0  0  0
  189.3280  171.9690  135.7070 O   0  0  0  0  0  1  0  0  0  0  0  0
  194.4370  174.5720  144.0180 C   0  0  1  0  0  3  0  0  0  0  0  0
  197.5750  174.1650  145.7970 O   0  0  0  0  0  0  0  0  0  0  0  0
  195.7390  174.8170  144.5840 O   0  0  0  0  0  0  0  0  0  0  0  0
  196.5100  173.8310  145.2170 C   0  0  0  0  0  0  0  0  0  0  0  0
  197.1140  171.5380  145.2030 F   0  0  0  0  0  0  0  0  0  0  0  0
  196.0430  172.4110  145.2950 C   0  0  2  0  0  3  0  0  0  0  0  0
  194.9950  172.1190  144.2180 C   0  0  1  0  0  3  0  0  0  0  0  0
  193.8920  173.1740  144.3220 C   0  0  0  0  0  2  0  0  0  0  0  0
  195.5900  172.0950  142.8040 C   0  0  0  0  0  2  0  0  0  0  0  0
  194.5190  172.1030  141.7190 C   0  0  0  0  0  2  0  0  0  0  0  0
  194.2630  170.7180  141.1380 C   0  0  2  0  0  3  0  0  0  0  0  0
  194.7910  170.6890  139.7130 C   0  0  0  0  0  2  0  0  0  0  0  0
  195.6210  171.9250  139.4170 C   0  0  0  0  0  2  0  0  0  0  0  0
  195.6340  172.1720  137.9200 C   0  0  0  0  0  2  0  0  0  0  0  0
  196.2930  173.4380  137.6360 N   0  0  0  0  0  0  0  0  0  0  0  0
  195.8840  173.8390  136.3010 C   0  0  0  0  0  1  0  0  0  0  0  0
  195.7520  174.4240  138.5610 C   0  0  0  0  0  2  0  0  0  0  0  0
  194.8860  175.2810  137.8830 O   0  0  0  0  0  1  0  0  0  0  0  0
  192.7750  170.3870  141.1490 C   0  0  0  0  0  2  0  0  0  0  0  0
  191.3150  170.9040  142.9620 O   0  0  0  0  0  0  0  0  0  0  0  0
  192.9190  169.3230  143.4040 O   0  0  0  0  0  1  0  0  0  0  0  0
  192.2980  170.2310  142.5540 C   0  0  0  0  0  0  0  0  0  0  0  0
  189.8220  177.6400  146.0130 N   0  0  0  0  0  2  0  0  0  0  0  0
  188.5660  176.9180  146.2100 C   0  0  0  0  0  2  0  0  0  0  0  0
  186.8150  176.7560  143.7190 O   0  0  0  0  0  0  0  0  0  0  0  0
  187.3910  177.7100  145.6340 C   0  0  1  0  0  3  0  0  0  0  0  0
  185.9560  177.1670  147.6700 C   0  0  0  0  0  1  0  0  0  0  0  0
  185.6240  177.2620  143.1550 C   0  0  0  0  0  2  0  0  0  0  0  0
  184.7910  177.9100  145.5360 C   0  0  1  0  0  3  0  0  0  0  0  0
  185.4270  179.5540  143.8590 O   0  0  0  0  0  1  0  0  0  0  0  0
  187.4830  177.7870  144.2190 O   0  0  0  0  0  0  0  0  0  0  0  0
  186.0220  177.1950  146.1460 C   0  0  1  0  0  3  0  0  0  0  0  0
  184.4310  179.0300  146.2930 O   0  0  0  0  0  1  0  0  0  0  0  0
  184.8780  178.2780  144.0390 C   0  0  1  0  0  3  0  0  0  0  0  0
  1  6  1  0  0  0  0
  1  7  1  1  0  0  0
  2  3  1  6  0  0  0
  2  1  1  0  0  0  0
  3  8  1  0  0  0  0
  4 44  1  1  0  0  0
  4  6  1  0  0  0  0
  5  4  1  0  0  0  0
  8 12  1  6  0  0  0
  8  5  1  0  0  0  0
  9 19  1  0  0  0  0
  9 13  2  0  0  0  0
 10 18  2  0  0  0  0
 11 10  1  0  0  0  0
 13 16  1  0  0  0  0
 14 17  1  0  0  0  0
 15 14  1  0  0  0  0
 16 14  2  0  0  0  0
 16 11  1  0  0  0  0
 17 12  2  0  0  0  0
 18 12  1  0  0  0  0
 19 15  2  0  0  0  0
 20  9  1  0  0  0  0
 21 20  1  0  0  0  0
 22 29  1  1  0  0  0
 22  2  1  0  0  0  0
 22 24  1  0  0  0  0
 24 25  1  0  0  0  0
 25 27  1  0  0  0  0
 25 23  2  0  0  0  0
 27 26  1  6  0  0  0
 28 30  1  6  0  0  0
 28 29  1  0  0  0  0
 28 27  1  0  0  0  0
 31 30  1  0  0  0  0
 32 33  1  6  0  0  0
 32 40  1  0  0  0  0
 32 31  1  0  0  0  0
 34 33  1  0  0  0  0
 35 34  1  0  0  0  0
 36 35  1  0  0  0  0
 36 38  1  0  0  0  0
 37 36  1  0  0  0  0
 39 38  1  0  0  0  0
 40 43  1  0  0  0  0
 43 41  2  0  0  0  0
 43 42  1  0  0  0  0
 44 45  1  0  0  0  0
 46 52  1  0  0  0  0
 47 53  1  0  0  0  0
 47 45  1  6  0  0  0
 49 46  1  0  0  0  0
 49 55  1  0  0  0  0
 50 53  1  0  0  0  0
 50 54  1  1  0  0  0
 52 47  1  0  0  0  0
 53 48  1  1  0  0  0
 55 51  1  1  0  0  0
 55 50  1  0  0  0  0
M  END
>  <MODEL>
8

>  <REMARK>
 VINA RESULT:      -6.9      3.113      9.555
  Name = 
  16 active torsions:
  status: ('A' for Active; 'I' for Inactive)
    1  A    between atoms: C_1  and  O_4
    2  A    between atoms: C_2  and  C_26
    3  A    between atoms: C_2  and  C_34
    4  A    between atoms: C_3  and  C_25
    5  A    between atoms: C_3  and  C_37
    6  A    between atoms: C_6  and  C_30
    7  A    between atoms: C_7  and  C_25
    8  A    between atoms: C_7  and  C_39
    9  A    between atoms: C_8  and  N_28
   10  A    between atoms: N_12  and  C_15
   11  A    between atoms: C_23  and  C_53
   12  A    between atoms: C_24  and  N_32
   13  A    between atoms: C_25  and  C_34
   14  A    between atoms: C_26  and  N_28
   15  A    between atoms: C_30  and  N_32
   16  A    between atoms: C_39  and  C_49
                            x       y       z     vdW  Elec       q    Type
                         _______ _______ _______ _____ _____    ______ ____

>  <TORSDO>
F 16

$$$$
=
 OpenBabel11042417543D

 55 59  0  0  1  0  0  0  0  0999 V2000
  190.0660  174.2490  142.3310 C   0  0  2  0  0  3  0  0  0  0  0  0
  190.3250  172.8000  142.5060 N   0  0  2  0  0  0  0  0  0  0  0  0
  191.0770  172.4690  143.7390 C   0  0  0  0  0  2  0  0  0  0  0  0
  189.6630  174.5800  144.8840 C   0  0  2  0  0  3  0  0  0  0  0  0
  191.1850  174.6350  145.1220 C   0  0  0  0  0  2  0  0  0  0  0  0
  189.1770  174.8430  143.4410 C   0  0  0  0  0  2  0  0  0  0  0  0
  189.4420  174.4850  141.1130 F   0  0  0  0  0  0  0  0  0  0  0  0
  191.9470  173.6420  144.2320 C   0  0  1  0  0  3  0  0  0  0  0  0
  196.5980  169.5960  146.4500 C   0  0  0  0  0  0  0  0  0  0  0  0
  195.3390  174.0840  145.8010 C   0  0  0  0  0  3  0  0  0  0  0  0
  196.1920  173.0540  145.1350 C   0  0  0  0  0  2  0  0  0  0  0  0
  193.2290  173.1800  144.8320 C   0  0  0  0  0  0  0  0  0  0  0  0
  196.8090  170.8980  146.1220 N   0  0  0  0  0  0  0  0  0  0  0  0
  194.5400  171.1500  145.3870 C   0  0  0  0  0  0  0  0  0  0  0  0
  194.3130  169.8090  145.7110 C   0  0  0  0  0  3  0  0  0  0  0  0
  195.8280  171.6840  145.5980 C   0  0  0  0  0  0  0  0  0  0  0  0
  193.4560  171.8930  144.8080 N   0  0  0  0  0  0  0  0  0  0  0  0
  194.0210  174.1410  145.6240 C   0  0  0  0  0  3  0  0  0  0  0  0
  195.3340  169.0270  146.2500 C   0  0  0  0  0  3  0  0  0  0  0  0
  197.6470  168.8390  146.9700 O   0  0  0  0  0  0  0  0  0  0  0  0
  197.5190  168.1800  148.1280 O   0  0  0  0  0  1  0  0  0  0  0  0
  191.0430  172.2930  141.3210 C   0  0  1  0  0  3  0  0  0  0  0  0
  194.3990  170.9280  141.5430 O   0  0  0  0  0  0  0  0  0  0  0  0
  192.4590  172.1540  141.5460 O   0  0  0  0  0  0  0  0  0  0  0  0
  193.1960  171.0150  141.1890 C   0  0  0  0  0  0  0  0  0  0  0  0
  193.4340  169.2860  139.5840 F   0  0  0  0  0  0  0  0  0  0  0  0
  192.5510  169.8640  140.4800 C   0  0  2  0  0  3  0  0  0  0  0  0
  191.2610  170.3030  139.7840 C   0  0  1  0  0  3  0  0  0  0  0  0
  190.3770  171.0120  140.8110 C   0  0  0  0  0  2  0  0  0  0  0  0
  191.5200  171.2100  138.5740 C   0  0  0  0  0  2  0  0  0  0  0  0
  190.2760  171.4060  137.7140 C   0  0  0  0  0  2  0  0  0  0  0  0
  189.9620  172.8760  137.4640 C   0  0  2  0  0  3  0  0  0  0  0  0
  191.1100  173.7120  138.0060 C   0  0  0  0  0  2  0  0  0  0  0  0
  191.8460  174.4180  136.8820 C   0  0  0  0  0  2  0  0  0  0  0  0
  193.0920  173.6280  136.5280 C   0  0  0  0  0  2  0  0  0  0  0  0
  194.2690  174.4720  136.6830 N   0  0  0  0  0  0  0  0  0  0  0  0
  193.8470  175.8380  136.4280 C   0  0  0  0  0  1  0  0  0  0  0  0
  194.6680  174.4040  138.0820 C   0  0  0  0  0  2  0  0  0  0  0  0
  195.7590  175.2440  138.3020 O   0  0  0  0  0  1  0  0  0  0  0  0
  188.6580  173.2790  138.1430 C   0  0  0  0  0  2  0  0  0  0  0  0
  187.3470  175.2710  138.1490 O   0  0  0  0  0  1  0  0  0  0  0  0
  188.4470  174.8160  136.1860 O   0  0  0  0  0  0  0  0  0  0  0  0
  188.1040  174.5040  137.4970 C   0  0  0  0  0  0  0  0  0  0  0  0
  188.9250  175.3620  145.8790 N   0  0  0  0  0  2  0  0  0  0  0  0
  188.6290  176.7010  145.3700 C   0  0  0  0  0  2  0  0  0  0  0  0
  187.0020  178.3470  147.3550 O   0  0  0  0  0  0  0  0  0  0  0  0
  187.1520  177.0410  145.5710 C   0  0  1  0  0  3  0  0  0  0  0  0
  187.0500  178.1850  143.2950 C   0  0  0  0  0  1  0  0  0  0  0  0
  185.7190  178.8980  147.5630 C   0  0  0  0  0  2  0  0  0  0  0  0
  185.2540  178.7420  145.0050 C   0  0  1  0  0  3  0  0  0  0  0  0
  184.1260  177.3450  146.6490 O   0  0  0  0  0  1  0  0  0  0  0  0
  186.8320  177.0940  146.9530 O   0  0  0  0  0  0  0  0  0  0  0  0
  186.7220  178.3030  144.7800 C   0  0  1  0  0  3  0  0  0  0  0  0
  184.3950  178.1180  144.0940 O   0  0  0  0  0  1  0  0  0  0  0  0
  184.7060  178.6030  146.4430 C   0  0  1  0  0  3  0  0  0  0  0  0
  1  7  1  6  0  0  0
  1  2  1  0  0  0  0
  1  6  1  0  0  0  0
  2  3  1  1  0  0  0
  3  8  1  0  0  0  0
  4  5  1  0  0  0  0
  4 44  1  1  0  0  0
  6  4  1  0  0  0  0
  8 12  1  1  0  0  0
  8  5  1  0  0  0  0
  9 20  1  0  0  0  0
 11 16  1  0  0  0  0
 11 10  1  0  0  0  0
 12 18  1  0  0  0  0
 13  9  2  0  0  0  0
 14 16  2  0  0  0  0
 14 15  1  0  0  0  0
 15 19  2  0  0  0  0
 16 13  1  0  0  0  0
 17 12  2  0  0  0  0
 17 14  1  0  0  0  0
 18 10  2  0  0  0  0
 19  9  1  0  0  0  0
 20 21  1  0  0  0  0
 22 29  1  1  0  0  0
 22 24  1  0  0  0  0
 22  2  1  0  0  0  0
 25 23  2  0  0  0  0
 25 24  1  0  0  0  0
 27 26  1  6  0  0  0
 27 25  1  0  0  0  0
 28 30  1  6  0  0  0
 28 27  1  0  0  0  0
 28 29  1  0  0  0  0
 31 30  1  0  0  0  0
 32 31  1  1  0  0  0
 32 33  1  0  0  0  0
 32 40  1  0  0  0  0
 34 33  1  0  0  0  0
 35 36  1  0  0  0  0
 35 34  1  0  0  0  0
 36 38  1  0  0  0  0
 37 36  1  0  0  0  0
 38 39  1  0  0  0  0
 42 43  2  0  0  0  0
 43 40  1  0  0  0  0
 43 41  1  0  0  0  0
 45 44  1  0  0  0  0
 46 49  1  0  0  0  0
 47 45  1  1  0  0  0
 47 52  1  0  0  0  0
 50 54  1  6  0  0  0
 50 55  1  0  0  0  0
 52 46  1  0  0  0  0
 53 48  1  6  0  0  0
 53 50  1  0  0  0  0
 53 47  1  0  0  0  0
 55 51  1  1  0  0  0
 55 49  1  0  0  0  0
M  END
>  <MODEL>
9

>  <REMARK>
 VINA RESULT:      -6.8      3.390      9.857
  Name = 
  16 active torsions:
  status: ('A' for Active; 'I' for Inactive)
    1  A    between atoms: C_1  and  O_4
    2  A    between atoms: C_2  and  C_26
    3  A    between atoms: C_2  and  C_34
    4  A    between atoms: C_3  and  C_25
    5  A    between atoms: C_3  and  C_37
    6  A    between atoms: C_6  and  C_30
    7  A    between atoms: C_7  and  C_25
    8  A    between atoms: C_7  and  C_39
    9  A    between atoms: C_8  and  N_28
   10  A    between atoms: N_12  and  C_15
   11  A    between atoms: C_23  and  C_53
   12  A    between atoms: C_24  and  N_32
   13  A    between atoms: C_25  and  C_34
   14  A    between atoms: C_26  and  N_28
   15  A    between atoms: C_30  and  N_32
   16  A    between atoms: C_39  and  C_49
                            x       y       z     vdW  Elec       q    Type
                         _______ _______ _______ _____ _____    ______ ____

>  <TORSDO>
F 16

$$$$
