=
 OpenBabel11042415393D

 46 52  0  0  1  0  0  0  0  0999 V2000
  191.5400  175.4660  141.9740 N   0  0  0  0  0  2  0  0  0  0  0  0
  190.7140  175.6240  143.1610 C   0  0  1  0  0  3  0  0  0  0  0  0
  189.7320  178.0980  142.2620 O   0  0  0  0  0  1  0  0  0  0  0  0
  189.1880  175.7650  142.8690 C   0  0  2  0  0  3  0  0  0  0  0  0
  187.8000  177.3680  145.8990 C   0  0  0  0  0  2  0  0  0  0  0  0
  188.7410  177.1090  142.2360 C   0  0  1  0  0  3  0  0  0  0  0  0
  188.3120  176.7550  143.6510 C   0  0  1  0  0  0  0  0  0  0  0  0
  186.4720  177.0300  145.2070 C   0  0  2  0  0  3  0  0  0  0  0  0
  186.8720  176.3250  143.8940 C   0  0  1  0  0  3  0  0  0  0  0  0
  188.8360  177.5770  144.8080 C   0  0  0  0  0  2  0  0  0  0  0  0
  185.9970  176.6570  142.7720 N   0  0  0  0  0  1  0  0  0  0  0  0
  185.9290  179.3360  146.0980 C   0  0  0  0  0  1  0  0  0  0  0  0
  185.6220  178.3040  145.0230 C   0  0  2  0  0  3  0  0  0  0  0  0
  184.2650  177.9870  145.1060 O   0  0  0  0  0  1  0  0  0  0  0  0
  190.3730  174.8790  146.4730 C   0  0  0  0  0  0  0  0  0  0  0  0
  191.4070  176.0930  148.1860 C   0  0  0  0  0  3  0  0  0  0  0  0
  191.0710  174.6310  144.2800 C   0  0  2  0  0  3  0  0  0  0  0  0
  190.4060  175.2610  147.7730 N   0  0  0  0  0  0  0  0  0  0  0  0
  192.3890  176.5210  147.2660 C   0  0  0  0  0  3  0  0  0  0  0  0
  189.8490  173.8130  144.6560 C   0  0  0  0  0  3  0  0  0  0  0  0
  191.3100  175.2970  145.5870 C   0  0  0  0  0  0  0  0  0  0  0  0
  192.3320  176.1050  145.9660 N   0  0  0  0  0  0  0  0  0  0  0  0
  189.4700  173.9610  145.8920 N   0  0  0  0  0  0  0  0  0  0  0  0
  192.8030  174.8950  142.4120 C   0  0  0  0  0  2  0  0  0  0  0  0
  193.9420  175.8840  142.2030 C   0  0  0  0  0  2  0  0  0  0  0  0
  194.8460  175.9620  143.4230 C   0  0  0  0  0  2  0  0  0  0  0  0
  197.3740  174.0980  145.1370 C   0  0  0  0  0  3  0  0  0  0  0  0
  196.7440  174.6500  144.1400 C   0  0  0  0  0  0  0  0  0  0  0  0
  196.0980  175.2050  143.1560 C   0  0  0  0  0  3  0  0  0  0  0  0
  196.6990  173.0400  145.9390 C   0  0  0  0  0  2  0  0  0  0  0  0
  196.5890  171.7580  145.1270 C   0  0  0  0  0  2  0  0  0  0  0  0
  193.5250  171.3670  143.2970 C   0  0  0  0  0  0  0  0  0  0  0  0
  194.1560  171.6410  145.3910 N   0  0  0  0  0  0  0  0  0  0  0  0
  195.2340  171.5920  144.6260 N   0  0  0  0  0  0  0  0  0  0  0  0
  193.0750  171.5170  144.5980 C   0  0  0  0  0  3  0  0  0  0  0  0
  194.9000  171.4480  143.3330 C   0  0  0  0  0  3  0  0  0  0  0  0
  192.6920  171.3160  142.0590 C   0  0  0  0  0  2  0  0  0  0  0  0
  191.2000  171.3430  142.3940 C   0  0  1  0  0  3  0  0  0  0  0  0
  190.3110  171.9530  141.3560 C   0  0  2  0  0  3  0  0  0  0  0  0
  190.4990  170.5630  141.4530 O   0  0  0  0  0  0  0  0  0  0  0  0
  190.9950  172.4640  140.0870 C   0  0  0  0  0  2  0  0  0  0  0  0
  189.9860  173.0630  139.1170 C   0  0  0  0  0  0  0  0  0  0  0  0
  188.9260  173.8840  139.8080 C   0  0  0  0  0  2  0  0  0  0  0  0
  188.5690  172.5390  139.1920 C   0  0  0  0  0  2  0  0  0  0  0  0
  190.0200  172.8530  136.7330 O   0  0  0  0  0  1  0  0  0  0  0  0
  190.4230  173.6650  137.7940 C   0  0  0  0  0  2  0  0  0  0  0  0
  1 24  1  0  0  0  0
  2  1  1  6  0  0  0
  4  2  1  1  0  0  0
  4  7  1  0  0  0  0
  6  3  1  1  0  0  0
  6  4  1  0  0  0  0
  6  7  1  0  0  0  0
  7  9  1  0  0  0  0
  7 10  1  1  0  0  0
  8 13  1  6  0  0  0
  8  5  1  0  0  0  0
  9 11  1  6  0  0  0
  9  8  1  0  0  0  0
 10  5  1  0  0  0  0
 13 14  1  0  0  0  0
 13 12  1  1  0  0  0
 15 18  2  0  0  0  0
 17  2  1  6  0  0  0
 17 20  1  0  0  0  0
 17 21  1  0  0  0  0
 18 16  1  0  0  0  0
 19 16  2  0  0  0  0
 20 23  2  0  0  0  0
 21 22  2  0  0  0  0
 21 15  1  0  0  0  0
 22 19  1  0  0  0  0
 23 15  1  0  0  0  0
 25 24  1  0  0  0  0
 25 26  1  0  0  0  0
 27 30  1  0  0  0  0
 28 27  2  0  0  0  0
 29 26  1  0  0  0  0
 29 28  2  0  0  0  0
 31 30  1  0  0  0  0
 32 36  2  0  0  0  0
 32 35  1  0  0  0  0
 34 31  1  0  0  0  0
 34 33  1  0  0  0  0
 35 33  2  0  0  0  0
 36 34  1  0  0  0  0
 37 32  1  0  0  0  0
 38 37  1  6  0  0  0
 39 41  1  6  0  0  0
 39 40  1  0  0  0  0
 39 38  1  0  0  0  0
 40 38  1  0  0  0  0
 42 44  1  0  0  0  0
 42 43  1  0  0  0  0
 42 41  1  0  0  0  0
 44 43  1  0  0  0  0
 45 46  1  0  0  0  0
 46 42  1  0  0  0  0
M  END
>  <MODEL>
1

>  <REMARK>
 VINA RESULT:      -6.2      0.000      0.000
  Name = 
  16 active torsions:
  status: ('A' for Active; 'I' for Inactive)
    1  A    between atoms: C_1  and  C_12
    2  A    between atoms: C_3  and  C_42
    3  A    between atoms: C_6  and  C_41
    4  A    between atoms: C_7  and  C_42
    5  A    between atoms: C_9  and  C_19
    6  A    between atoms: C_9  and  C_26
    7  A    between atoms: C_10  and  C_41
    8  A    between atoms: C_12  and  C_40
    9  A    between atoms: N_15  and  C_21
   10  A    between atoms: N_15  and  C_42
   11  A    between atoms: C_21  and  C_23
   12  A    between atoms: C_23  and  C_31
   13  A    between atoms: C_25  and  C_38
   14  A    between atoms: C_26  and  C_39
   15  A    between atoms: N_27  and  C_40
   16  A    between atoms: C_28  and  C_31
                            x       y       z     vdW  Elec       q    Type
                         _______ _______ _______ _____ _____    ______ ____

>  <TORSDO>
F 16

$$$$
=
 OpenBabel11042415393D

 46 52  0  0  1  0  0  0  0  0999 V2000
  188.6520  175.5390  144.8770 N   0  0  0  0  0  2  0  0  0  0  0  0
  190.0690  175.2660  144.6920 C   0  0  1  0  0  3  0  0  0  0  0  0
  189.6520  172.6530  145.6340 O   0  0  0  0  0  1  0  0  0  0  0  0
  190.3760  174.0680  143.7420 C   0  0  2  0  0  3  0  0  0  0  0  0
  193.7340  172.9030  144.7600 C   0  0  0  0  0  2  0  0  0  0  0  0
  189.9830  172.6640  144.2740 C   0  0  1  0  0  3  0  0  0  0  0  0
  191.4480  173.0250  144.0900 C   0  0  1  0  0  0  0  0  0  0  0  0
  193.5880  172.0520  143.4900 C   0  0  2  0  0  3  0  0  0  0  0  0
  192.2080  172.4290  142.9120 C   0  0  1  0  0  3  0  0  0  0  0  0
  192.3380  173.1400  145.3080 C   0  0  0  0  0  2  0  0  0  0  0  0
  191.5040  171.2980  142.3150 N   0  0  0  0  0  1  0  0  0  0  0  0
  194.4870  170.3620  145.1470 C   0  0  0  0  0  1  0  0  0  0  0  0
  193.7610  170.5560  143.8240 C   0  0  2  0  0  3  0  0  0  0  0  0
  194.5100  169.9300  142.8250 O   0  0  0  0  0  1  0  0  0  0  0  0
  193.1890  176.5180  144.1050 C   0  0  0  0  0  0  0  0  0  0  0  0
  194.8690  176.6200  145.7310 C   0  0  0  0  0  3  0  0  0  0  0  0
  190.8950  176.5360  144.4230 C   0  0  2  0  0  3  0  0  0  0  0  0
  194.5070  176.5820  144.4150 N   0  0  0  0  0  0  0  0  0  0  0  0
  193.8760  176.6100  146.7340 C   0  0  0  0  0  3  0  0  0  0  0  0
  191.3370  176.5670  142.9700 C   0  0  0  0  0  3  0  0  0  0  0  0
  192.2340  176.4990  145.0680 C   0  0  0  0  0  0  0  0  0  0  0  0
  192.5560  176.5590  146.3850 N   0  0  0  0  0  0  0  0  0  0  0  0
  192.6290  176.5590  142.8080 N   0  0  0  0  0  0  0  0  0  0  0  0
  188.5500  176.5960  145.8690 C   0  0  0  0  0  2  0  0  0  0  0  0
  187.0930  176.8780  146.2080 C   0  0  0  0  0  2  0  0  0  0  0  0
  186.9590  178.0410  147.1790 C   0  0  0  0  0  2  0  0  0  0  0  0
  185.4640  179.6850  144.3750 C   0  0  0  0  0  3  0  0  0  0  0  0
  185.6040  179.2710  145.6010 C   0  0  0  0  0  0  0  0  0  0  0  0
  185.7600  178.8440  146.8200 C   0  0  0  0  0  3  0  0  0  0  0  0
  185.3450  178.6930  143.2700 C   0  0  0  0  0  2  0  0  0  0  0  0
  186.6410  178.6360  142.4770 C   0  0  0  0  0  2  0  0  0  0  0  0
  187.9690  175.4850  141.3800 C   0  0  0  0  0  0  0  0  0  0  0  0
  186.3610  176.2110  142.7000 N   0  0  0  0  0  0  0  0  0  0  0  0
  187.0090  177.2550  142.2080 N   0  0  0  0  0  0  0  0  0  0  0  0
  186.9230  175.0950  142.1990 C   0  0  0  0  0  3  0  0  0  0  0  0
  187.9880  176.8640  141.3760 C   0  0  0  0  0  3  0  0  0  0  0  0
  188.8070  174.6050  140.5130 C   0  0  0  0  0  2  0  0  0  0  0  0
  188.1750  174.4240  139.1330 C   0  0  1  0  0  3  0  0  0  0  0  0
  189.0510  173.8000  138.0910 C   0  0  2  0  0  3  0  0  0  0  0  0
  188.1150  173.0500  138.8260 O   0  0  0  0  0  0  0  0  0  0  0  0
  190.4620  173.4110  138.5320 C   0  0  0  0  0  2  0  0  0  0  0  0
  190.9290  172.1400  137.8360 C   0  0  0  0  0  0  0  0  0  0  0  0
  190.9320  170.9400  138.7510 C   0  0  0  0  0  2  0  0  0  0  0  0
  192.2470  171.5540  138.2930 C   0  0  0  0  0  2  0  0  0  0  0  0
  189.7030  170.6400  136.4310 O   0  0  0  0  0  1  0  0  0  0  0  0
  190.4810  171.8000  136.4270 C   0  0  0  0  0  2  0  0  0  0  0  0
  1 24  1  0  0  0  0
  2  1  1  6  0  0  0
  4  7  1  0  0  0  0
  4  6  1  0  0  0  0
  4  2  1  1  0  0  0
  5 10  1  0  0  0  0
  6  3  1  1  0  0  0
  7  6  1  0  0  0  0
  7 10  1  1  0  0  0
  8 13  1  1  0  0  0
  8  5  1  0  0  0  0
  9 11  1  1  0  0  0
  9  8  1  0  0  0  0
  9  7  1  0  0  0  0
 13 12  1  1  0  0  0
 14 13  1  0  0  0  0
 15 18  2  0  0  0  0
 15 21  1  0  0  0  0
 16 19  2  0  0  0  0
 17  2  1  6  0  0  0
 17 21  1  0  0  0  0
 18 16  1  0  0  0  0
 20 17  1  0  0  0  0
 21 22  2  0  0  0  0
 22 19  1  0  0  0  0
 23 20  2  0  0  0  0
 23 15  1  0  0  0  0
 24 25  1  0  0  0  0
 25 26  1  0  0  0  0
 27 28  2  0  0  0  0
 28 29  2  0  0  0  0
 29 26  1  0  0  0  0
 30 27  1  0  0  0  0
 31 30  1  0  0  0  0
 32 35  1  0  0  0  0
 34 31  1  0  0  0  0
 34 33  1  0  0  0  0
 35 33  2  0  0  0  0
 36 32  2  0  0  0  0
 36 34  1  0  0  0  0
 37 32  1  0  0  0  0
 38 37  1  1  0  0  0
 39 41  1  1  0  0  0
 39 40  1  0  0  0  0
 39 38  1  0  0  0  0
 40 38  1  0  0  0  0
 42 44  1  0  0  0  0
 42 41  1  0  0  0  0
 42 43  1  0  0  0  0
 44 43  1  0  0  0  0
 46 45  1  0  0  0  0
 46 42  1  0  0  0  0
M  END
>  <MODEL>
2

>  <REMARK>
 VINA RESULT:      -6.1      2.560      7.270
  Name = 
  16 active torsions:
  status: ('A' for Active; 'I' for Inactive)
    1  A    between atoms: C_1  and  C_12
    2  A    between atoms: C_3  and  C_42
    3  A    between atoms: C_6  and  C_41
    4  A    between atoms: C_7  and  C_42
    5  A    between atoms: C_9  and  C_19
    6  A    between atoms: C_9  and  C_26
    7  A    between atoms: C_10  and  C_41
    8  A    between atoms: C_12  and  C_40
    9  A    between atoms: N_15  and  C_21
   10  A    between atoms: N_15  and  C_42
   11  A    between atoms: C_21  and  C_23
   12  A    between atoms: C_23  and  C_31
   13  A    between atoms: C_25  and  C_38
   14  A    between atoms: C_26  and  C_39
   15  A    between atoms: N_27  and  C_40
   16  A    between atoms: C_28  and  C_31
                            x       y       z     vdW  Elec       q    Type
                         _______ _______ _______ _____ _____    ______ ____

>  <TORSDO>
F 16

$$$$
=
 OpenBabel11042415393D

 46 52  0  0  1  0  0  0  0  0999 V2000
  188.4380  177.4120  145.3410 N   0  0  0  0  0  2  0  0  0  0  0  0
  188.2450  176.5630  144.1760 C   0  0  1  0  0  3  0  0  0  0  0  0
  190.8580  176.3520  143.1680 O   0  0  0  0  0  1  0  0  0  0  0  0
  188.9710  175.1850  144.2560 C   0  0  2  0  0  3  0  0  0  0  0  0
  188.5510  173.7100  140.8910 C   0  0  0  0  0  2  0  0  0  0  0  0
  190.4600  175.1780  143.8180 C   0  0  1  0  0  3  0  0  0  0  0  0
  189.4200  174.4420  142.9880 C   0  0  1  0  0  0  0  0  0  0  0  0
  189.1390  172.4780  141.5930 C   0  0  2  0  0  3  0  0  0  0  0  0
  189.3720  172.9220  143.0530 C   0  0  1  0  0  3  0  0  0  0  0  0
  189.1040  174.9370  141.5930 C   0  0  0  0  0  2  0  0  0  0  0  0
  190.5820  172.3540  143.6420 N   0  0  0  0  0  1  0  0  0  0  0  0
  190.4770  172.5600  139.4460 C   0  0  0  0  0  1  0  0  0  0  0  0
  190.4040  171.9920  140.8560 C   0  0  2  0  0  3  0  0  0  0  0  0
  190.3930  170.5990  140.7600 O   0  0  0  0  0  1  0  0  0  0  0  0
  185.3000  178.2680  143.9160 C   0  0  0  0  0  0  0  0  0  0  0  0
  183.9610  178.8270  145.7520 C   0  0  0  0  0  3  0  0  0  0  0  0
  186.7780  176.4970  143.7150 C   0  0  2  0  0  3  0  0  0  0  0  0
  184.3510  179.0640  144.4650 N   0  0  0  0  0  0  0  0  0  0  0  0
  184.5350  177.7570  146.4730 C   0  0  0  0  0  3  0  0  0  0  0  0
  186.5950  177.3200  142.4530 C   0  0  0  0  0  3  0  0  0  0  0  0
  185.8590  177.2470  144.6110 C   0  0  0  0  0  0  0  0  0  0  0  0
  185.4800  176.9670  145.8840 N   0  0  0  0  0  0  0  0  0  0  0  0
  185.7600  178.3110  142.5810 N   0  0  0  0  0  0  0  0  0  0  0  0
  188.8460  176.5440  146.4340 C   0  0  0  0  0  2  0  0  0  0  0  0
  189.8830  177.2330  147.3100 C   0  0  0  0  0  2  0  0  0  0  0  0
  191.2970  176.9620  146.8220 C   0  0  0  0  0  2  0  0  0  0  0  0
  193.5870  174.3490  145.9650 C   0  0  0  0  0  3  0  0  0  0  0  0
  192.6510  174.9700  146.6250 C   0  0  0  0  0  0  0  0  0  0  0  0
  191.7210  175.6080  147.2720 C   0  0  0  0  0  3  0  0  0  0  0  0
  194.9510  174.9410  145.8890 C   0  0  0  0  0  2  0  0  0  0  0  0
  194.8720  176.3750  145.3880 C   0  0  0  0  0  2  0  0  0  0  0  0
  195.2630  176.2730  141.8200 C   0  0  0  0  0  0  0  0  0  0  0  0
  196.4780  176.7910  143.5840 N   0  0  0  0  0  0  0  0  0  0  0  0
  195.2670  176.4450  143.9900 N   0  0  0  0  0  0  0  0  0  0  0  0
  196.5150  176.6850  142.2420 C   0  0  0  0  0  3  0  0  0  0  0  0
  194.4920  176.0980  142.9490 C   0  0  0  0  0  3  0  0  0  0  0  0
  194.8590  175.9050  140.4300 C   0  0  0  0  0  2  0  0  0  0  0  0
  195.9680  175.1270  139.7200 C   0  0  1  0  0  3  0  0  0  0  0  0
  195.7630  173.6490  139.6160 C   0  0  2  0  0  3  0  0  0  0  0  0
  195.4420  174.5220  138.5620 O   0  0  0  0  0  0  0  0  0  0  0  0
  194.4720  173.0950  140.2190 C   0  0  0  0  0  2  0  0  0  0  0  0
  194.7610  172.0370  141.2750 C   0  0  0  0  0  0  0  0  0  0  0  0
  194.9840  172.6250  142.6470 C   0  0  0  0  0  2  0  0  0  0  0  0
  196.1510  172.0290  141.8730 C   0  0  0  0  0  2  0  0  0  0  0  0
  193.5890  170.3620  140.0310 O   0  0  0  0  0  1  0  0  0  0  0  0
  193.9910  170.7310  141.3160 C   0  0  0  0  0  2  0  0  0  0  0  0
  1 24  1  0  0  0  0
  2  1  1  1  0  0  0
  4  2  1  6  0  0  0
  5  8  1  0  0  0  0
  5 10  1  0  0  0  0
  6  3  1  6  0  0  0
  6  4  1  0  0  0  0
  7 10  1  6  0  0  0
  7  9  1  0  0  0  0
  7  6  1  0  0  0  0
  7  4  1  0  0  0  0
  8 13  1  6  0  0  0
  8  9  1  0  0  0  0
  9 11  1  6  0  0  0
 13 12  1  6  0  0  0
 14 13  1  0  0  0  0
 15 18  2  0  0  0  0
 15 21  1  0  0  0  0
 16 19  2  0  0  0  0
 17  2  1  1  0  0  0
 17 21  1  0  0  0  0
 18 16  1  0  0  0  0
 20 23  2  0  0  0  0
 20 17  1  0  0  0  0
 21 22  2  0  0  0  0
 22 19  1  0  0  0  0
 23 15  1  0  0  0  0
 24 25  1  0  0  0  0
 26 29  1  0  0  0  0
 26 25  1  0  0  0  0
 27 28  2  0  0  0  0
 28 29  2  0  0  0  0
 30 27  1  0  0  0  0
 31 30  1  0  0  0  0
 32 35  1  0  0  0  0
 32 36  2  0  0  0  0
 33 34  1  0  0  0  0
 34 31  1  0  0  0  0
 35 33  2  0  0  0  0
 36 34  1  0  0  0  0
 37 32  1  0  0  0  0
 38 37  1  1  0  0  0
 39 38  1  0  0  0  0
 39 41  1  1  0  0  0
 40 39  1  0  0  0  0
 40 38  1  0  0  0  0
 41 42  1  0  0  0  0
 42 46  1  0  0  0  0
 42 44  1  0  0  0  0
 42 43  1  0  0  0  0
 44 43  1  0  0  0  0
 45 46  1  0  0  0  0
M  END
>  <MODEL>
3

>  <REMARK>
 VINA RESULT:      -6.1      2.414      6.017
  Name = 
  16 active torsions:
  status: ('A' for Active; 'I' for Inactive)
    1  A    between atoms: C_1  and  C_12
    2  A    between atoms: C_3  and  C_42
    3  A    between atoms: C_6  and  C_41
    4  A    between atoms: C_7  and  C_42
    5  A    between atoms: C_9  and  C_19
    6  A    between atoms: C_9  and  C_26
    7  A    between atoms: C_10  and  C_41
    8  A    between atoms: C_12  and  C_40
    9  A    between atoms: N_15  and  C_21
   10  A    between atoms: N_15  and  C_42
   11  A    between atoms: C_21  and  C_23
   12  A    between atoms: C_23  and  C_31
   13  A    between atoms: C_25  and  C_38
   14  A    between atoms: C_26  and  C_39
   15  A    between atoms: N_27  and  C_40
   16  A    between atoms: C_28  and  C_31
                            x       y       z     vdW  Elec       q    Type
                         _______ _______ _______ _____ _____    ______ ____

>  <TORSDO>
F 16

$$$$
=
 OpenBabel11042415393D

 46 52  0  0  1  0  0  0  0  0999 V2000
  192.0180  176.3670  144.5620 N   0  0  0  0  0  2  0  0  0  0  0  0
  193.1680  175.4970  144.3770 C   0  0  1  0  0  3  0  0  0  0  0  0
  192.8470  175.5570  141.5860 O   0  0  0  0  0  1  0  0  0  0  0  0
  194.3060  176.1100  143.5030 C   0  0  2  0  0  3  0  0  0  0  0  0
  196.2270  173.1940  142.2860 C   0  0  0  0  0  2  0  0  0  0  0  0
  193.9980  176.2460  141.9880 C   0  0  1  0  0  3  0  0  0  0  0  0
  195.0600  175.2670  142.4640 C   0  0  1  0  0  0  0  0  0  0  0  0
  197.1840  174.2960  141.8100 C   0  0  2  0  0  3  0  0  0  0  0  0
  196.5270  175.6180  142.2560 C   0  0  1  0  0  3  0  0  0  0  0  0
  194.8270  173.7820  142.2880 C   0  0  0  0  0  2  0  0  0  0  0  0
  196.7050  176.7040  141.2960 N   0  0  0  0  0  1  0  0  0  0  0  0
  196.1390  174.3730  139.5050 C   0  0  0  0  0  1  0  0  0  0  0  0
  197.4270  174.1760  140.2910 C   0  0  2  0  0  3  0  0  0  0  0  0
  197.9270  172.9080  139.9880 O   0  0  0  0  0  1  0  0  0  0  0  0
  195.3900  173.3240  145.7870 C   0  0  0  0  0  0  0  0  0  0  0  0
  195.3150  171.0070  145.4680 C   0  0  0  0  0  3  0  0  0  0  0  0
  193.6390  174.8350  145.6830 C   0  0  2  0  0  3  0  0  0  0  0  0
  196.0280  172.1280  145.7830 N   0  0  0  0  0  0  0  0  0  0  0  0
  193.9390  171.1100  145.1720 C   0  0  0  0  0  3  0  0  0  0  0  0
  194.9680  175.4290  146.1150 C   0  0  0  0  0  3  0  0  0  0  0  0
  194.0710  173.4260  145.4930 C   0  0  0  0  0  0  0  0  0  0  0  0
  193.3250  172.3310  145.1970 N   0  0  0  0  0  0  0  0  0  0  0  0
  195.9420  174.5670  146.1700 N   0  0  0  0  0  0  0  0  0  0  0  0
  191.4550  176.0520  145.8650 C   0  0  0  0  0  2  0  0  0  0  0  0
  190.0210  176.5560  145.9670 C   0  0  0  0  0  2  0  0  0  0  0  0
  189.0210  175.4120  145.9060 C   0  0  0  0  0  2  0  0  0  0  0  0
  189.7620  172.2110  144.4900 C   0  0  0  0  0  3  0  0  0  0  0  0
  189.7400  173.1680  145.3730 C   0  0  0  0  0  0  0  0  0  0  0  0
  189.7110  174.1370  146.2400 C   0  0  0  0  0  3  0  0  0  0  0  0
  190.4320  172.4330  143.1780 C   0  0  0  0  0  2  0  0  0  0  0  0
  189.3960  172.7170  142.1030 C   0  0  0  0  0  2  0  0  0  0  0  0
  187.6560  175.8550  142.2470 C   0  0  0  0  0  0  0  0  0  0  0  0
  189.7400  175.1400  142.2320 N   0  0  0  0  0  0  0  0  0  0  0  0
  188.9330  174.0920  142.1970 N   0  0  0  0  0  0  0  0  0  0  0  0
  188.9820  176.2520  142.2520 C   0  0  0  0  0  3  0  0  0  0  0  0
  187.6460  174.4780  142.1810 C   0  0  0  0  0  3  0  0  0  0  0  0
  186.4550  176.7350  142.1420 C   0  0  0  0  0  2  0  0  0  0  0  0
  186.8240  178.2030  142.3600 C   0  0  1  0  0  3  0  0  0  0  0  0
  185.9650  178.9520  143.3300 C   0  0  2  0  0  3  0  0  0  0  0  0
  187.1990  178.3920  143.7050 O   0  0  0  0  0  0  0  0  0  0  0  0
  184.8350  178.1630  143.9910 C   0  0  0  0  0  2  0  0  0  0  0  0
  185.0840  177.9810  145.4820 C   0  0  0  0  0  0  0  0  0  0  0  0
  184.0460  178.6650  146.3370 C   0  0  0  0  0  2  0  0  0  0  0  0
  185.4620  179.2160  146.2700 C   0  0  0  0  0  2  0  0  0  0  0  0
  186.0800  176.8180  147.3210 O   0  0  0  0  0  1  0  0  0  0  0  0
  185.5240  176.6450  146.0530 C   0  0  0  0  0  2  0  0  0  0  0  0
  1 24  1  0  0  0  0
  2  1  1  1  0  0  0
  4  2  1  1  0  0  0
  5 10  1  0  0  0  0
  6  3  1  1  0  0  0
  6  7  1  0  0  0  0
  6  4  1  0  0  0  0
  7 10  1  6  0  0  0
  7  4  1  0  0  0  0
  8 13  1  6  0  0  0
  8  9  1  0  0  0  0
  8  5  1  0  0  0  0
  9 11  1  6  0  0  0
  9  7  1  0  0  0  0
 13 12  1  6  0  0  0
 14 13  1  0  0  0  0
 15 23  1  0  0  0  0
 16 18  1  0  0  0  0
 17  2  1  6  0  0  0
 17 20  1  0  0  0  0
 18 15  2  0  0  0  0
 19 22  1  0  0  0  0
 19 16  2  0  0  0  0
 20 23  2  0  0  0  0
 21 17  1  0  0  0  0
 21 15  1  0  0  0  0
 22 21  2  0  0  0  0
 24 25  1  0  0  0  0
 26 25  1  0  0  0  0
 26 29  1  0  0  0  0
 27 28  2  0  0  0  0
 28 29  2  0  0  0  0
 30 27  1  0  0  0  0
 31 34  1  0  0  0  0
 31 30  1  0  0  0  0
 32 35  1  0  0  0  0
 33 35  2  0  0  0  0
 34 33  1  0  0  0  0
 36 34  1  0  0  0  0
 36 32  2  0  0  0  0
 37 32  1  0  0  0  0
 38 37  1  1  0  0  0
 38 39  1  0  0  0  0
 38 40  1  0  0  0  0
 39 40  1  0  0  0  0
 39 41  1  1  0  0  0
 41 42  1  0  0  0  0
 42 46  1  0  0  0  0
 42 44  1  0  0  0  0
 42 43  1  0  0  0  0
 44 43  1  0  0  0  0
 46 45  1  0  0  0  0
M  END
>  <MODEL>
4

>  <REMARK>
 VINA RESULT:      -6.1      2.432      8.092
  Name = 
  16 active torsions:
  status: ('A' for Active; 'I' for Inactive)
    1  A    between atoms: C_1  and  C_12
    2  A    between atoms: C_3  and  C_42
    3  A    between atoms: C_6  and  C_41
    4  A    between atoms: C_7  and  C_42
    5  A    between atoms: C_9  and  C_19
    6  A    between atoms: C_9  and  C_26
    7  A    between atoms: C_10  and  C_41
    8  A    between atoms: C_12  and  C_40
    9  A    between atoms: N_15  and  C_21
   10  A    between atoms: N_15  and  C_42
   11  A    between atoms: C_21  and  C_23
   12  A    between atoms: C_23  and  C_31
   13  A    between atoms: C_25  and  C_38
   14  A    between atoms: C_26  and  C_39
   15  A    between atoms: N_27  and  C_40
   16  A    between atoms: C_28  and  C_31
                            x       y       z     vdW  Elec       q    Type
                         _______ _______ _______ _____ _____    ______ ____

>  <TORSDO>
F 16

$$$$
=
 OpenBabel11042415393D

 46 52  0  0  1  0  0  0  0  0999 V2000
  192.5850  171.3660  144.2400 N   0  0  0  0  0  2  0  0  0  0  0  0
  192.4870  172.1470  143.0170 C   0  0  1  0  0  3  0  0  0  0  0  0
  190.8530  170.1620  141.8840 O   0  0  0  0  0  1  0  0  0  0  0  0
  191.0280  172.5190  142.6060 C   0  0  2  0  0  3  0  0  0  0  0  0
  191.2110  173.1350  138.9640 C   0  0  0  0  0  2  0  0  0  0  0  0
  190.1390  171.3420  142.1270 C   0  0  1  0  0  3  0  0  0  0  0  0
  190.5590  172.4250  141.1460 C   0  0  1  0  0  0  0  0  0  0  0  0
  189.7780  173.6340  139.1940 C   0  0  2  0  0  3  0  0  0  0  0  0
  189.5300  173.4570  140.7070 C   0  0  1  0  0  3  0  0  0  0  0  0
  191.4900  172.0670  140.0070 C   0  0  0  0  0  2  0  0  0  0  0  0
  188.1650  173.0460  141.0240 N   0  0  0  0  0  1  0  0  0  0  0  0
  189.5080  172.2170  137.1150 C   0  0  0  0  0  1  0  0  0  0  0  0
  188.7910  172.8740  138.2850 C   0  0  2  0  0  3  0  0  0  0  0  0
  187.8420  173.7590  137.7680 O   0  0  0  0  0  1  0  0  0  0  0  0
  194.0720  174.4020  141.0050 C   0  0  0  0  0  0  0  0  0  0  0  0
  195.7390  173.8190  139.4690 C   0  0  0  0  0  3  0  0  0  0  0  0
  193.4930  173.3100  142.9620 C   0  0  2  0  0  3  0  0  0  0  0  0
  194.7650  174.6850  139.8750 N   0  0  0  0  0  0  0  0  0  0  0  0
  196.0170  172.6650  140.2350 C   0  0  0  0  0  3  0  0  0  0  0  0
  192.7590  174.6180  142.7220 C   0  0  0  0  0  3  0  0  0  0  0  0
  194.3310  173.2900  141.7360 C   0  0  0  0  0  0  0  0  0  0  0  0
  195.3070  172.4180  141.3760 N   0  0  0  0  0  0  0  0  0  0  0  0
  193.0980  175.2210  141.6180 N   0  0  0  0  0  0  0  0  0  0  0  0
  193.8650  170.6770  144.1990 C   0  0  0  0  0  2  0  0  0  0  0  0
  194.7000  171.0210  145.4240 C   0  0  0  0  0  2  0  0  0  0  0  0
  196.1700  171.1840  145.0710 C   0  0  0  0  0  2  0  0  0  0  0  0
  195.6460  174.6730  145.6680 C   0  0  0  0  0  3  0  0  0  0  0  0
  196.2010  173.4990  145.7630 C   0  0  0  0  0  0  0  0  0  0  0  0
  196.7400  172.3180  145.8480 C   0  0  0  0  0  3  0  0  0  0  0  0
  194.2330  174.8570  146.1020 C   0  0  0  0  0  2  0  0  0  0  0  0
  193.8900  176.3380  146.1510 C   0  0  0  0  0  2  0  0  0  0  0  0
  190.3510  176.9350  146.2710 C   0  0  0  0  0  0  0  0  0  0  0  0
  191.9850  176.5040  147.6850 N   0  0  0  0  0  0  0  0  0  0  0  0
  192.4800  176.5200  146.4580 N   0  0  0  0  0  0  0  0  0  0  0  0
  190.6680  176.7700  147.6080 C   0  0  0  0  0  3  0  0  0  0  0  0
  191.5230  176.8020  145.5580 C   0  0  0  0  0  3  0  0  0  0  0  0
  189.0370  177.3610  145.7050 C   0  0  0  0  0  2  0  0  0  0  0  0
  188.4740  176.3030  144.7550 C   0  0  1  0  0  3  0  0  0  0  0  0
  187.3370  176.7450  143.8880 C   0  0  2  0  0  3  0  0  0  0  0  0
  188.6640  176.7260  143.4250 O   0  0  0  0  0  0  0  0  0  0  0  0
  186.8830  178.1960  144.0470 C   0  0  0  0  0  2  0  0  0  0  0  0
  185.4750  178.2770  144.6220 C   0  0  0  0  0  0  0  0  0  0  0  0
  185.4470  178.8370  146.0220 C   0  0  0  0  0  2  0  0  0  0  0  0
  185.1570  177.3630  145.7840 C   0  0  0  0  0  2  0  0  0  0  0  0
  184.0980  177.8790  142.7050 O   0  0  0  0  0  1  0  0  0  0  0  0
  184.3030  178.7460  143.7800 C   0  0  0  0  0  2  0  0  0  0  0  0
  2  1  1  1  0  0  0
  4  2  1  6  0  0  0
  5  8  1  0  0  0  0
  5 10  1  0  0  0  0
  6  3  1  6  0  0  0
  6  4  1  0  0  0  0
  7 10  1  6  0  0  0
  7  6  1  0  0  0  0
  7  4  1  0  0  0  0
  8 13  1  6  0  0  0
  8  9  1  0  0  0  0
  9 11  1  6  0  0  0
  9  7  1  0  0  0  0
 13 12  1  6  0  0  0
 14 13  1  0  0  0  0
 15 23  1  0  0  0  0
 15 21  1  0  0  0  0
 16 18  1  0  0  0  0
 16 19  2  0  0  0  0
 17  2  1  6  0  0  0
 18 15  2  0  0  0  0
 19 22  1  0  0  0  0
 20 17  1  0  0  0  0
 21 17  1  0  0  0  0
 22 21  2  0  0  0  0
 23 20  2  0  0  0  0
 24  1  1  0  0  0  0
 24 25  1  0  0  0  0
 26 25  1  0  0  0  0
 26 29  1  0  0  0  0
 27 28  2  0  0  0  0
 27 30  1  0  0  0  0
 28 29  2  0  0  0  0
 30 31  1  0  0  0  0
 31 34  1  0  0  0  0
 32 35  1  0  0  0  0
 34 33  1  0  0  0  0
 35 33  2  0  0  0  0
 36 32  2  0  0  0  0
 36 34  1  0  0  0  0
 37 32  1  0  0  0  0
 38 37  1  1  0  0  0
 39 41  1  1  0  0  0
 39 38  1  0  0  0  0
 40 39  1  0  0  0  0
 40 38  1  0  0  0  0
 41 42  1  0  0  0  0
 42 44  1  0  0  0  0
 42 43  1  0  0  0  0
 44 43  1  0  0  0  0
 45 46  1  0  0  0  0
 46 42  1  0  0  0  0
M  END
>  <MODEL>
5

>  <REMARK>
 VINA RESULT:      -5.9      1.891      6.911
  Name = 
  16 active torsions:
  status: ('A' for Active; 'I' for Inactive)
    1  A    between atoms: C_1  and  C_12
    2  A    between atoms: C_3  and  C_42
    3  A    between atoms: C_6  and  C_41
    4  A    between atoms: C_7  and  C_42
    5  A    between atoms: C_9  and  C_19
    6  A    between atoms: C_9  and  C_26
    7  A    between atoms: C_10  and  C_41
    8  A    between atoms: C_12  and  C_40
    9  A    between atoms: N_15  and  C_21
   10  A    between atoms: N_15  and  C_42
   11  A    between atoms: C_21  and  C_23
   12  A    between atoms: C_23  and  C_31
   13  A    between atoms: C_25  and  C_38
   14  A    between atoms: C_26  and  C_39
   15  A    between atoms: N_27  and  C_40
   16  A    between atoms: C_28  and  C_31
                            x       y       z     vdW  Elec       q    Type
                         _______ _______ _______ _____ _____    ______ ____

>  <TORSDO>
F 16

$$$$
=
 OpenBabel11042415393D

 46 52  0  0  1  0  0  0  0  0999 V2000
  188.5600  177.5060  145.4150 N   0  0  0  0  0  2  0  0  0  0  0  0
  188.4110  176.7680  144.1700 C   0  0  1  0  0  3  0  0  0  0  0  0
  190.9670  176.6030  143.0170 O   0  0  0  0  0  1  0  0  0  0  0  0
  189.1370  175.3880  144.1480 C   0  0  2  0  0  3  0  0  0  0  0  0
  188.5350  174.0670  140.7470 C   0  0  0  0  0  2  0  0  0  0  0  0
  190.6000  175.4010  143.6330 C   0  0  1  0  0  3  0  0  0  0  0  0
  189.5150  174.7030  142.8260 C   0  0  1  0  0  0  0  0  0  0  0  0
  189.1560  172.8050  141.3610 C   0  0  2  0  0  3  0  0  0  0  0  0
  189.4680  173.1820  142.8240 C   0  0  1  0  0  3  0  0  0  0  0  0
  189.1280  175.2610  141.4740 C   0  0  0  0  0  2  0  0  0  0  0  0
  190.7050  172.5880  143.3220 N   0  0  0  0  0  1  0  0  0  0  0  0
  190.3020  172.8620  139.1040 C   0  0  0  0  0  1  0  0  0  0  0  0
  190.3800  172.3530  140.5360 C   0  0  2  0  0  3  0  0  0  0  0  0
  190.4370  170.9580  140.4960 O   0  0  0  0  0  1  0  0  0  0  0  0
  185.4320  178.4320  144.0820 C   0  0  0  0  0  0  0  0  0  0  0  0
  184.0210  178.6600  145.9340 C   0  0  0  0  0  3  0  0  0  0  0  0
  186.9620  176.7470  143.6530 C   0  0  2  0  0  3  0  0  0  0  0  0
  184.4450  179.1090  144.7170 N   0  0  0  0  0  0  0  0  0  0  0  0
  184.5990  177.5000  146.4950 C   0  0  0  0  0  3  0  0  0  0  0  0
  186.7970  177.7580  142.5320 C   0  0  0  0  0  3  0  0  0  0  0  0
  185.9950  177.3240  144.6240 C   0  0  0  0  0  0  0  0  0  0  0  0
  185.5830  176.8350  145.8210 N   0  0  0  0  0  0  0  0  0  0  0  0
  185.9330  178.6980  142.7870 N   0  0  0  0  0  0  0  0  0  0  0  0
  188.9020  176.5360  146.4430 C   0  0  0  0  0  2  0  0  0  0  0  0
  189.9880  177.0840  147.3590 C   0  0  0  0  0  2  0  0  0  0  0  0
  191.3780  176.7820  146.8220 C   0  0  0  0  0  2  0  0  0  0  0  0
  193.4960  174.0790  145.8180 C   0  0  0  0  0  3  0  0  0  0  0  0
  192.6380  174.7400  146.5410 C   0  0  0  0  0  0  0  0  0  0  0  0
  191.7850  175.4170  147.2520 C   0  0  0  0  0  3  0  0  0  0  0  0
  194.8710  174.6180  145.6300 C   0  0  0  0  0  2  0  0  0  0  0  0
  194.8070  176.0790  145.2130 C   0  0  0  0  0  2  0  0  0  0  0  0
  195.5570  176.2380  141.7050 C   0  0  0  0  0  0  0  0  0  0  0  0
  196.5920  176.6000  143.6170 N   0  0  0  0  0  0  0  0  0  0  0  0
  195.3430  176.2460  143.8720 N   0  0  0  0  0  0  0  0  0  0  0  0
  196.7640  176.5940  142.2810 C   0  0  0  0  0  3  0  0  0  0  0  0
  194.6740  175.9920  142.7350 C   0  0  0  0  0  3  0  0  0  0  0  0
  195.2920  175.9810  140.2590 C   0  0  0  0  0  2  0  0  0  0  0  0
  194.7520  174.5680  140.0370 C   0  0  1  0  0  3  0  0  0  0  0  0
  194.9090  174.0200  138.6530 C   0  0  2  0  0  3  0  0  0  0  0  0
  195.8150  173.7140  139.6840 O   0  0  0  0  0  0  0  0  0  0  0  0
  195.5970  174.9290  137.6350 C   0  0  0  0  0  2  0  0  0  0  0  0
  194.7180  175.1580  136.4130 C   0  0  0  0  0  0  0  0  0  0  0  0
  193.4350  175.8800  136.7430 C   0  0  0  0  0  2  0  0  0  0  0  0
  193.4060  174.4070  136.3630 C   0  0  0  0  0  2  0  0  0  0  0  0
  196.0330  176.7750  135.2380 O   0  0  0  0  0  1  0  0  0  0  0  0
  195.3090  175.5920  135.0840 C   0  0  0  0  0  2  0  0  0  0  0  0
  1 24  1  0  0  0  0
  2  1  1  1  0  0  0
  4  2  1  6  0  0  0
  5  8  1  0  0  0  0
  5 10  1  0  0  0  0
  6  3  1  6  0  0  0
  6  4  1  0  0  0  0
  7 10  1  6  0  0  0
  7  6  1  0  0  0  0
  7  4  1  0  0  0  0
  8 13  1  6  0  0  0
  8  9  1  0  0  0  0
  9  7  1  0  0  0  0
  9 11  1  6  0  0  0
 13 12  1  6  0  0  0
 14 13  1  0  0  0  0
 15 21  1  0  0  0  0
 15 18  2  0  0  0  0
 16 19  2  0  0  0  0
 17  2  1  1  0  0  0
 17 21  1  0  0  0  0
 18 16  1  0  0  0  0
 20 23  2  0  0  0  0
 20 17  1  0  0  0  0
 21 22  2  0  0  0  0
 22 19  1  0  0  0  0
 23 15  1  0  0  0  0
 24 25  1  0  0  0  0
 26 29  1  0  0  0  0
 26 25  1  0  0  0  0
 27 28  2  0  0  0  0
 28 29  2  0  0  0  0
 30 27  1  0  0  0  0
 31 30  1  0  0  0  0
 32 35  1  0  0  0  0
 32 36  2  0  0  0  0
 33 34  1  0  0  0  0
 34 31  1  0  0  0  0
 35 33  2  0  0  0  0
 36 34  1  0  0  0  0
 37 32  1  0  0  0  0
 38 37  1  6  0  0  0
 39 41  1  6  0  0  0
 39 40  1  0  0  0  0
 39 38  1  0  0  0  0
 40 38  1  0  0  0  0
 42 43  1  0  0  0  0
 42 41  1  0  0  0  0
 44 42  1  0  0  0  0
 44 43  1  0  0  0  0
 46 45  1  0  0  0  0
 46 42  1  0  0  0  0
M  END
>  <MODEL>
6

>  <REMARK>
 VINA RESULT:      -5.9      2.896      5.938
  Name = 
  16 active torsions:
  status: ('A' for Active; 'I' for Inactive)
    1  A    between atoms: C_1  and  C_12
    2  A    between atoms: C_3  and  C_42
    3  A    between atoms: C_6  and  C_41
    4  A    between atoms: C_7  and  C_42
    5  A    between atoms: C_9  and  C_19
    6  A    between atoms: C_9  and  C_26
    7  A    between atoms: C_10  and  C_41
    8  A    between atoms: C_12  and  C_40
    9  A    between atoms: N_15  and  C_21
   10  A    between atoms: N_15  and  C_42
   11  A    between atoms: C_21  and  C_23
   12  A    between atoms: C_23  and  C_31
   13  A    between atoms: C_25  and  C_38
   14  A    between atoms: C_26  and  C_39
   15  A    between atoms: N_27  and  C_40
   16  A    between atoms: C_28  and  C_31
                            x       y       z     vdW  Elec       q    Type
                         _______ _______ _______ _____ _____    ______ ____

>  <TORSDO>
F 16

$$$$
=
 OpenBabel11042415393D

 46 52  0  0  1  0  0  0  0  0999 V2000
  190.6850  175.1460  141.6170 N   0  0  0  0  0  2  0  0  0  0  0  0
  189.5090  175.2140  142.4700 C   0  0  1  0  0  3  0  0  0  0  0  0
  189.6160  178.0100  142.7280 O   0  0  0  0  0  1  0  0  0  0  0  0
  188.3400  176.0670  141.8890 C   0  0  2  0  0  3  0  0  0  0  0  0
  186.1870  176.8130  144.8020 C   0  0  0  0  0  2  0  0  0  0  0  0
  188.5360  177.6060  141.9340 C   0  0  1  0  0  3  0  0  0  0  0  0
  187.4660  176.9500  142.7930 C   0  0  1  0  0  0  0  0  0  0  0  0
  185.2520  177.3390  143.7040 C   0  0  2  0  0  3  0  0  0  0  0  0
  186.0070  177.0900  142.3810 C   0  0  1  0  0  3  0  0  0  0  0  0
  187.6110  176.9760  144.2990 C   0  0  0  0  0  2  0  0  0  0  0  0
  185.8100  178.1500  141.3960 N   0  0  0  0  0  1  0  0  0  0  0  0
  185.2160  179.2170  145.4010 C   0  0  0  0  0  1  0  0  0  0  0  0
  184.8870  178.8140  143.9710 C   0  0  2  0  0  3  0  0  0  0  0  0
  183.5180  179.0080  143.7730 O   0  0  0  0  0  1  0  0  0  0  0  0
  190.5660  172.0750  143.2900 C   0  0  0  0  0  0  0  0  0  0  0  0
  191.1600  170.4540  141.7090 C   0  0  0  0  0  3  0  0  0  0  0  0
  189.0950  173.8440  143.0350 C   0  0  2  0  0  3  0  0  0  0  0  0
  191.2500  170.9470  142.9800 N   0  0  0  0  0  0  0  0  0  0  0  0
  190.3510  171.1130  140.7570 C   0  0  0  0  0  3  0  0  0  0  0  0
  189.6490  173.6740  144.4380 C   0  0  0  0  0  3  0  0  0  0  0  0
  189.7970  172.7130  142.3740 C   0  0  0  0  0  0  0  0  0  0  0  0
  189.6650  172.2410  141.1080 N   0  0  0  0  0  0  0  0  0  0  0  0
  190.4730  172.6740  144.5660 N   0  0  0  0  0  0  0  0  0  0  0  0
  191.8160  175.5840  142.4190 C   0  0  0  0  0  2  0  0  0  0  0  0
  193.1300  175.1950  141.7550 C   0  0  0  0  0  2  0  0  0  0  0  0
  192.9210  174.1430  140.6770 C   0  0  0  0  0  2  0  0  0  0  0  0
  196.0320  172.7760  139.5570 C   0  0  0  0  0  3  0  0  0  0  0  0
  194.9320  172.8750  140.2470 C   0  0  0  0  0  0  0  0  0  0  0  0
  193.8310  172.9930  140.9290 C   0  0  0  0  0  3  0  0  0  0  0  0
  197.0660  173.8420  139.6610 C   0  0  0  0  0  2  0  0  0  0  0  0
  197.6710  173.8480  141.0570 C   0  0  0  0  0  2  0  0  0  0  0  0
  196.2460  176.0440  143.5140 C   0  0  0  0  0  0  0  0  0  0  0  0
  196.6770  176.0690  141.3530 N   0  0  0  0  0  0  0  0  0  0  0  0
  197.0900  174.9160  141.8550 N   0  0  0  0  0  0  0  0  0  0  0  0
  196.1370  176.7900  142.3530 C   0  0  0  0  0  3  0  0  0  0  0  0
  196.8280  174.8430  143.1700 C   0  0  0  0  0  3  0  0  0  0  0  0
  195.6800  176.3800  144.8540 C   0  0  0  0  0  2  0  0  0  0  0  0
  195.2530  175.1180  145.6060 C   0  0  1  0  0  3  0  0  0  0  0  0
  193.9870  175.2280  146.3960 C   0  0  2  0  0  3  0  0  0  0  0  0
  194.0140  174.6750  145.1030 O   0  0  0  0  0  0  0  0  0  0  0  0
  193.2690  176.5770  146.3490 C   0  0  0  0  0  2  0  0  0  0  0  0
  191.8150  176.4470  146.7830 C   0  0  0  0  0  0  0  0  0  0  0  0
  191.6350  176.5910  148.2740 C   0  0  0  0  0  2  0  0  0  0  0  0
  191.4540  175.2340  147.6100 C   0  0  0  0  0  2  0  0  0  0  0  0
  189.6870  177.5380  146.8520 O   0  0  0  0  0  1  0  0  0  0  0  0
  190.6940  177.0950  145.9920 C   0  0  0  0  0  2  0  0  0  0  0  0
  1 24  1  0  0  0  0
  2  1  1  6  0  0  0
  4  6  1  0  0  0  0
  4  2  1  1  0  0  0
  4  7  1  0  0  0  0
  6  3  1  1  0  0  0
  6  7  1  0  0  0  0
  7 10  1  1  0  0  0
  8 13  1  1  0  0  0
  8  5  1  0  0  0  0
  9 11  1  6  0  0  0
  9  7  1  0  0  0  0
  9  8  1  0  0  0  0
 10  5  1  0  0  0  0
 13 12  1  1  0  0  0
 14 13  1  0  0  0  0
 15 23  1  0  0  0  0
 16 18  1  0  0  0  0
 17  2  1  6  0  0  0
 17 20  1  0  0  0  0
 18 15  2  0  0  0  0
 19 22  1  0  0  0  0
 19 16  2  0  0  0  0
 20 23  2  0  0  0  0
 21 17  1  0  0  0  0
 21 15  1  0  0  0  0
 22 21  2  0  0  0  0
 25 24  1  0  0  0  0
 26 29  1  0  0  0  0
 26 25  1  0  0  0  0
 27 30  1  0  0  0  0
 27 28  2  0  0  0  0
 28 29  2  0  0  0  0
 30 31  1  0  0  0  0
 31 34  1  0  0  0  0
 32 37  1  0  0  0  0
 33 34  1  0  0  0  0
 33 35  2  0  0  0  0
 34 36  1  0  0  0  0
 35 32  1  0  0  0  0
 36 32  2  0  0  0  0
 38 37  1  6  0  0  0
 38 39  1  0  0  0  0
 39 41  1  6  0  0  0
 40 38  1  0  0  0  0
 40 39  1  0  0  0  0
 41 42  1  0  0  0  0
 42 44  1  0  0  0  0
 42 43  1  0  0  0  0
 44 43  1  0  0  0  0
 46 42  1  0  0  0  0
 46 45  1  0  0  0  0
M  END
>  <MODEL>
7

>  <REMARK>
 VINA RESULT:      -5.8      2.597      5.327
  Name = 
  16 active torsions:
  status: ('A' for Active; 'I' for Inactive)
    1  A    between atoms: C_1  and  C_12
    2  A    between atoms: C_3  and  C_42
    3  A    between atoms: C_6  and  C_41
    4  A    between atoms: C_7  and  C_42
    5  A    between atoms: C_9  and  C_19
    6  A    between atoms: C_9  and  C_26
    7  A    between atoms: C_10  and  C_41
    8  A    between atoms: C_12  and  C_40
    9  A    between atoms: N_15  and  C_21
   10  A    between atoms: N_15  and  C_42
   11  A    between atoms: C_21  and  C_23
   12  A    between atoms: C_23  and  C_31
   13  A    between atoms: C_25  and  C_38
   14  A    between atoms: C_26  and  C_39
   15  A    between atoms: N_27  and  C_40
   16  A    between atoms: C_28  and  C_31
                            x       y       z     vdW  Elec       q    Type
                         _______ _______ _______ _____ _____    ______ ____

>  <TORSDO>
F 16

$$$$
=
 OpenBabel11042415393D

 46 52  0  0  1  0  0  0  0  0999 V2000
  194.0660  171.0660  143.6370 N   0  0  0  0  0  2  0  0  0  0  0  0
  194.0910  172.5010  143.8710 C   0  0  1  0  0  3  0  0  0  0  0  0
  191.3610  172.6460  143.2250 O   0  0  0  0  0  1  0  0  0  0  0  0
  193.0870  172.9950  144.9580 C   0  0  2  0  0  3  0  0  0  0  0  0
  192.5120  176.5580  144.1530 C   0  0  0  0  0  2  0  0  0  0  0  0
  191.5850  172.9080  144.5820 C   0  0  1  0  0  3  0  0  0  0  0  0
  192.2480  174.2650  144.7550 C   0  0  1  0  0  0  0  0  0  0  0  0
  191.7910  176.5250  145.5080 C   0  0  2  0  0  3  0  0  0  0  0  0
  191.9460  175.0740  146.0090 C   0  0  1  0  0  3  0  0  0  0  0  0
  192.4050  175.1680  143.5510 C   0  0  0  0  0  2  0  0  0  0  0  0
  190.7680  174.5790  146.7170 N   0  0  0  0  0  1  0  0  0  0  0  0
  190.1980  178.0180  144.2280 C   0  0  0  0  0  1  0  0  0  0  0  0
  190.3330  177.0020  145.3520 C   0  0  2  0  0  3  0  0  0  0  0  0
  189.9010  177.6070  146.5350 O   0  0  0  0  0  1  0  0  0  0  0  0
  195.9920  175.3320  144.0210 C   0  0  0  0  0  0  0  0  0  0  0  0
  196.3570  176.7450  142.1910 C   0  0  0  0  0  3  0  0  0  0  0  0
  195.5160  173.0660  143.9990 C   0  0  2  0  0  3  0  0  0  0  0  0
  196.3120  176.5590  143.5440 N   0  0  0  0  0  0  0  0  0  0  0  0
  196.0890  175.6630  141.3250 C   0  0  0  0  0  3  0  0  0  0  0  0
  195.7140  173.6620  145.3820 C   0  0  0  0  0  3  0  0  0  0  0  0
  195.7250  174.2940  143.1890 C   0  0  0  0  0  0  0  0  0  0  0  0
  195.7820  174.4350  141.8410 N   0  0  0  0  0  0  0  0  0  0  0  0
  195.9820  174.9360  145.3770 N   0  0  0  0  0  0  0  0  0  0  0  0
  194.6420  170.8410  142.3210 C   0  0  0  0  0  2  0  0  0  0  0  0
  193.5620  170.8810  141.2480 C   0  0  0  0  0  2  0  0  0  0  0  0
  193.9430  171.8090  140.1050 C   0  0  0  0  0  2  0  0  0  0  0  0
  190.9120  170.4650  138.7610 C   0  0  0  0  0  3  0  0  0  0  0  0
  192.1510  170.8670  138.7880 C   0  0  0  0  0  0  0  0  0  0  0  0
  193.3840  171.2780  138.8340 C   0  0  0  0  0  3  0  0  0  0  0  0
  189.8160  171.4340  139.0410 C   0  0  0  0  0  2  0  0  0  0  0  0
  190.3840  172.7000  139.6640 C   0  0  0  0  0  2  0  0  0  0  0  0
  188.3200  174.7770  141.7420 C   0  0  0  0  0  0  0  0  0  0  0  0
  188.4270  172.6600  141.1380 N   0  0  0  0  0  0  0  0  0  0  0  0
  189.3970  173.3230  140.5310 N   0  0  0  0  0  0  0  0  0  0  0  0
  187.7440  173.5280  141.9070 C   0  0  0  0  0  3  0  0  0  0  0  0
  189.3880  174.6190  140.8850 C   0  0  0  0  0  3  0  0  0  0  0  0
  187.9810  176.0280  142.4830 C   0  0  0  0  0  2  0  0  0  0  0  0
  186.8650  176.8020  141.7810 C   0  0  1  0  0  3  0  0  0  0  0  0
  185.6930  177.1730  142.6350 C   0  0  2  0  0  3  0  0  0  0  0  0
  186.7400  178.0750  142.3710 O   0  0  0  0  0  0  0  0  0  0  0  0
  185.7570  176.7480  144.1010 C   0  0  0  0  0  2  0  0  0  0  0  0
  185.2510  177.8500  145.0210 C   0  0  0  0  0  0  0  0  0  0  0  0
  186.2920  178.3080  146.0130 C   0  0  0  0  0  2  0  0  0  0  0  0
  185.0910  177.5010  146.4850 C   0  0  0  0  0  2  0  0  0  0  0  0
  185.1690  180.1520  144.3730 O   0  0  0  0  0  1  0  0  0  0  0  0
  184.4020  178.9920  144.4940 C   0  0  0  0  0  2  0  0  0  0  0  0
  2  1  1  1  0  0  0
  4  2  1  6  0  0  0
  5  8  1  0  0  0  0
  6  3  1  6  0  0  0
  6  7  1  0  0  0  0
  6  4  1  0  0  0  0
  7 10  1  6  0  0  0
  7  4  1  0  0  0  0
  7  9  1  0  0  0  0
  8 13  1  6  0  0  0
  8  9  1  0  0  0  0
  9 11  1  6  0  0  0
 10  5  1  0  0  0  0
 13 12  1  6  0  0  0
 13 14  1  0  0  0  0
 15 23  1  0  0  0  0
 16 18  1  0  0  0  0
 17  2  1  1  0  0  0
 17 20  1  0  0  0  0
 18 15  2  0  0  0  0
 19 22  1  0  0  0  0
 19 16  2  0  0  0  0
 21 17  1  0  0  0  0
 21 15  1  0  0  0  0
 22 21  2  0  0  0  0
 23 20  2  0  0  0  0
 24  1  1  0  0  0  0
 25 24  1  0  0  0  0
 26 25  1  0  0  0  0
 27 28  2  0  0  0  0
 27 30  1  0  0  0  0
 28 29  2  0  0  0  0
 29 26  1  0  0  0  0
 30 31  1  0  0  0  0
 31 34  1  0  0  0  0
 32 35  1  0  0  0  0
 32 37  1  0  0  0  0
 33 35  2  0  0  0  0
 34 36  1  0  0  0  0
 34 33  1  0  0  0  0
 36 32  2  0  0  0  0
 38 40  1  0  0  0  0
 38 37  1  1  0  0  0
 38 39  1  0  0  0  0
 39 41  1  1  0  0  0
 40 39  1  0  0  0  0
 41 42  1  0  0  0  0
 42 43  1  0  0  0  0
 42 44  1  0  0  0  0
 43 44  1  0  0  0  0
 45 46  1  0  0  0  0
 46 42  1  0  0  0  0
M  END
>  <MODEL>
8

>  <REMARK>
 VINA RESULT:      -5.8      2.205      6.900
  Name = 
  16 active torsions:
  status: ('A' for Active; 'I' for Inactive)
    1  A    between atoms: C_1  and  C_12
    2  A    between atoms: C_3  and  C_42
    3  A    between atoms: C_6  and  C_41
    4  A    between atoms: C_7  and  C_42
    5  A    between atoms: C_9  and  C_19
    6  A    between atoms: C_9  and  C_26
    7  A    between atoms: C_10  and  C_41
    8  A    between atoms: C_12  and  C_40
    9  A    between atoms: N_15  and  C_21
   10  A    between atoms: N_15  and  C_42
   11  A    between atoms: C_21  and  C_23
   12  A    between atoms: C_23  and  C_31
   13  A    between atoms: C_25  and  C_38
   14  A    between atoms: C_26  and  C_39
   15  A    between atoms: N_27  and  C_40
   16  A    between atoms: C_28  and  C_31
                            x       y       z     vdW  Elec       q    Type
                         _______ _______ _______ _____ _____    ______ ____

>  <TORSDO>
F 16

$$$$
=
 OpenBabel11042415393D

 46 52  0  0  1  0  0  0  0  0999 V2000
  191.8290  174.3400  144.7350 N   0  0  0  0  0  2  0  0  0  0  0  0
  190.7370  175.2530  144.4370 C   0  0  1  0  0  3  0  0  0  0  0  0
  189.2240  174.1670  146.5400 O   0  0  0  0  0  1  0  0  0  0  0  0
  190.3280  176.1790  145.6240 C   0  0  2  0  0  3  0  0  0  0  0  0
  186.8480  177.1800  144.8750 C   0  0  0  0  0  2  0  0  0  0  0  0
  189.6240  175.4790  146.8170 C   0  0  1  0  0  3  0  0  0  0  0  0
  188.8540  176.4610  145.9480 C   0  0  1  0  0  0  0  0  0  0  0  0
  187.0940  178.1270  146.0590 C   0  0  2  0  0  3  0  0  0  0  0  0
  188.5450  177.8450  146.5030 C   0  0  1  0  0  3  0  0  0  0  0  0
  187.7140  175.9520  145.0920 C   0  0  0  0  0  2  0  0  0  0  0  0
  188.7290  177.9150  147.9500 N   0  0  0  0  0  1  0  0  0  0  0  0
  184.8180  177.1650  146.6070 C   0  0  0  0  0  1  0  0  0  0  0  0
  186.0300  177.9060  147.1530 C   0  0  2  0  0  3  0  0  0  0  0  0
  185.5950  179.1370  147.6490 O   0  0  0  0  0  1  0  0  0  0  0  0
  189.4210  177.5630  142.2970 C   0  0  0  0  0  0  0  0  0  0  0  0
  187.4520  177.2250  141.0780 C   0  0  0  0  0  3  0  0  0  0  0  0
  190.9020  175.9670  143.0840 C   0  0  2  0  0  3  0  0  0  0  0  0
  188.3570  178.0820  141.6370 N   0  0  0  0  0  0  0  0  0  0  0  0
  187.6490  175.8310  141.1810 C   0  0  0  0  0  3  0  0  0  0  0  0
  191.3370  177.4050  143.3080 C   0  0  0  0  0  3  0  0  0  0  0  0
  189.6050  176.2250  142.4060 C   0  0  0  0  0  0  0  0  0  0  0  0
  188.7400  175.3430  141.8440 N   0  0  0  0  0  0  0  0  0  0  0  0
  190.4950  178.2900  142.8590 N   0  0  0  0  0  0  0  0  0  0  0  0
  191.7620  173.2670  143.7570 C   0  0  0  0  0  2  0  0  0  0  0  0
  192.3720  171.9890  144.3170 C   0  0  0  0  0  2  0  0  0  0  0  0
  193.8780  171.9490  144.1060 C   0  0  0  0  0  2  0  0  0  0  0  0
  196.2020  174.3210  145.4390 C   0  0  0  0  0  3  0  0  0  0  0  0
  195.3840  173.3070  145.4190 C   0  0  0  0  0  0  0  0  0  0  0  0
  194.5610  172.3000  145.3800 C   0  0  0  0  0  3  0  0  0  0  0  0
  195.6900  175.6860  145.1350 C   0  0  0  0  0  2  0  0  0  0  0  0
  196.3660  176.2310  143.8860 C   0  0  0  0  0  2  0  0  0  0  0  0
  194.3520  174.8870  141.2350 C   0  0  0  0  0  0  0  0  0  0  0  0
  196.4880  175.0220  141.7580 N   0  0  0  0  0  0  0  0  0  0  0  0
  195.7830  175.6350  142.6950 N   0  0  0  0  0  0  0  0  0  0  0  0
  195.6310  174.5350  140.8410 C   0  0  0  0  0  3  0  0  0  0  0  0
  194.4680  175.5610  142.4320 C   0  0  0  0  0  3  0  0  0  0  0  0
  193.0680  174.4670  140.5990 C   0  0  0  0  0  2  0  0  0  0  0  0
  193.3200  173.6390  139.3380 C   0  0  1  0  0  3  0  0  0  0  0  0
  192.1020  173.2390  138.5670 C   0  0  2  0  0  3  0  0  0  0  0  0
  192.8750  174.3590  138.2130 O   0  0  0  0  0  0  0  0  0  0  0  0
  190.7580  173.7140  139.1210 C   0  0  0  0  0  2  0  0  0  0  0  0
  189.8480  172.5380  139.4500 C   0  0  0  0  0  0  0  0  0  0  0  0
  190.3090  171.7610  140.6580 C   0  0  0  0  0  2  0  0  0  0  0  0
  190.4260  171.1520  139.2690 C   0  0  0  0  0  2  0  0  0  0  0  0
  187.9660  173.4220  138.2650 O   0  0  0  0  0  1  0  0  0  0  0  0
  188.3370  172.6640  139.3770 C   0  0  0  0  0  2  0  0  0  0  0  0
  2  1  1  1  0  0  0
  4  2  1  6  0  0  0
  4  7  1  0  0  0  0
  4  6  1  0  0  0  0
  5 10  1  0  0  0  0
  5  8  1  0  0  0  0
  6  3  1  6  0  0  0
  7 10  1  6  0  0  0
  7  9  1  0  0  0  0
  7  6  1  0  0  0  0
  8  9  1  0  0  0  0
  8 13  1  1  0  0  0
  9 11  1  1  0  0  0
 13 12  1  6  0  0  0
 13 14  1  0  0  0  0
 15 21  1  0  0  0  0
 15 23  1  0  0  0  0
 16 19  2  0  0  0  0
 16 18  1  0  0  0  0
 17 20  1  0  0  0  0
 17  2  1  1  0  0  0
 18 15  2  0  0  0  0
 19 22  1  0  0  0  0
 21 17  1  0  0  0  0
 22 21  2  0  0  0  0
 23 20  2  0  0  0  0
 24 25  1  0  0  0  0
 24  1  1  0  0  0  0
 26 25  1  0  0  0  0
 26 29  1  0  0  0  0
 28 27  2  0  0  0  0
 29 28  2  0  0  0  0
 30 27  1  0  0  0  0
 31 30  1  0  0  0  0
 32 36  2  0  0  0  0
 33 34  1  0  0  0  0
 34 31  1  0  0  0  0
 35 32  1  0  0  0  0
 35 33  2  0  0  0  0
 36 34  1  0  0  0  0
 37 32  1  0  0  0  0
 38 37  1  1  0  0  0
 39 41  1  1  0  0  0
 39 38  1  0  0  0  0
 40 39  1  0  0  0  0
 40 38  1  0  0  0  0
 41 42  1  0  0  0  0
 42 43  1  0  0  0  0
 44 42  1  0  0  0  0
 44 43  1  0  0  0  0
 45 46  1  0  0  0  0
 46 42  1  0  0  0  0
M  END
>  <MODEL>
9

>  <REMARK>
 VINA RESULT:      -5.7      2.179      4.105
  Name = 
  16 active torsions:
  status: ('A' for Active; 'I' for Inactive)
    1  A    between atoms: C_1  and  C_12
    2  A    between atoms: C_3  and  C_42
    3  A    between atoms: C_6  and  C_41
    4  A    between atoms: C_7  and  C_42
    5  A    between atoms: C_9  and  C_19
    6  A    between atoms: C_9  and  C_26
    7  A    between atoms: C_10  and  C_41
    8  A    between atoms: C_12  and  C_40
    9  A    between atoms: N_15  and  C_21
   10  A    between atoms: N_15  and  C_42
   11  A    between atoms: C_21  and  C_23
   12  A    between atoms: C_23  and  C_31
   13  A    between atoms: C_25  and  C_38
   14  A    between atoms: C_26  and  C_39
   15  A    between atoms: N_27  and  C_40
   16  A    between atoms: C_28  and  C_31
                            x       y       z     vdW  Elec       q    Type
                         _______ _______ _______ _____ _____    ______ ____

>  <TORSDO>
F 16

$$$$
