=
 OpenBabel11042416053D

 34 37  0  0  1  0  0  0  0  0999 V2000
  191.6060  174.6290  145.3760 C   0  0  0  0  0  0  0  0  0  0  0  0
  191.2440  176.2470  147.0920 N   0  0  0  0  0  0  0  0  0  0  0  0
  192.9890  174.8390  145.5010 C   0  0  0  0  0  0  0  0  0  0  0  0
  194.6830  175.9020  146.6780 O   0  0  0  0  0  0  0  0  0  0  0  0
  193.4500  175.7390  146.4760 C   0  0  0  0  0  0  0  0  0  0  0  0
  192.5570  176.4220  147.2340 N   0  0  0  0  0  2  0  0  0  0  0  0
  190.7280  175.3690  146.1910 C   0  0  0  0  0  0  0  0  0  0  0  0
  189.0220  172.4940  142.8080 N   0  0  0  0  0  0  0  0  0  0  0  0
  189.1970  173.9240  142.6620 C   0  0  0  0  0  2  0  0  0  0  0  0
  190.0930  172.6550  144.9690 C   0  0  0  0  0  2  0  0  0  0  0  0
  189.4190  171.8850  143.8720 C   0  0  0  0  0  3  0  0  0  0  0  0
  190.6160  174.3410  143.0700 C   0  0  0  0  0  2  0  0  0  0  0  0
  191.0980  173.6430  144.3600 C   0  0  1  0  0  3  0  0  0  0  0  0
  193.8970  174.0820  144.6830 N   0  0  0  0  0  2  0  0  0  0  0  0
  194.2560  171.7970  145.4600 C   0  0  0  0  0  3  0  0  0  0  0  0
  194.7810  173.0540  145.1440 C   0  0  0  0  0  0  0  0  0  0  0  0
  195.0960  170.7550  145.8750 C   0  0  0  0  0  0  0  0  0  0  0  0
  197.0120  172.2280  145.6340 C   0  0  0  0  0  3  0  0  0  0  0  0
  196.1680  173.2610  145.2200 C   0  0  0  0  0  3  0  0  0  0  0  0
  196.4780  170.9790  145.9630 C   0  0  0  0  0  3  0  0  0  0  0  0
  194.6980  168.9130  147.4890 O   0  0  0  0  0  1  0  0  0  0  0  0
  194.5300  169.4410  146.2140 C   0  0  0  0  0  0  0  0  0  0  0  0
  193.8870  168.7810  145.3540 O   0  0  0  0  0  0  0  0  0  0  0  0
  189.3080  175.1930  146.0670 N   0  0  0  0  0  2  0  0  0  0  0  0
  187.2940  176.4300  146.8290 C   0  0  0  0  0  3  0  0  0  0  0  0
  188.3560  176.9930  144.7300 C   0  0  0  0  0  3  0  0  0  0  0  0
  187.4020  177.9910  144.5150 C   0  0  0  0  0  3  0  0  0  0  0  0
  186.3390  177.4280  146.6150 C   0  0  0  0  0  3  0  0  0  0  0  0
  186.3900  178.2100  145.4560 C   0  0  0  0  0  0  0  0  0  0  0  0
  188.3100  176.2060  145.8860 C   0  0  0  0  0  0  0  0  0  0  0  0
  185.3720  179.2750  145.2200 C   0  0  0  0  0  2  0  0  0  0  0  0
  185.0770  179.4520  143.7350 C   0  0  0  0  0  2  0  0  0  0  0  0
  184.0050  178.4830  143.2610 C   0  0  0  0  0  2  0  0  0  0  0  0
  184.3920  177.8880  142.0600 O   0  0  0  0  0  1  0  0  0  0  0  0
  1  3  2  0  0  0  0
  1  7  1  0  0  0  0
  2  6  1  0  0  0  0
  3  5  1  0  0  0  0
  5  4  2  0  0  0  0
  5  6  1  0  0  0  0
  7  2  2  0  0  0  0
  8 11  2  0  0  0  0
  9  8  1  0  0  0  0
  9 12  1  0  0  0  0
 11 10  1  0  0  0  0
 12 13  1  0  0  0  0
 13 10  1  0  0  0  0
 13  1  1  1  0  0  0
 14 16  1  0  0  0  0
 14  3  1  0  0  0  0
 15 17  1  0  0  0  0
 16 19  1  0  0  0  0
 16 15  2  0  0  0  0
 17 20  2  0  0  0  0
 17 22  1  0  0  0  0
 18 20  1  0  0  0  0
 19 18  2  0  0  0  0
 22 21  1  0  0  0  0
 23 22  2  0  0  0  0
 24  7  1  0  0  0  0
 26 30  1  0  0  0  0
 27 26  2  0  0  0  0
 27 29  1  0  0  0  0
 28 25  1  0  0  0  0
 29 28  2  0  0  0  0
 30 24  1  0  0  0  0
 30 25  2  0  0  0  0
 31 29  1  0  0  0  0
 32 31  1  0  0  0  0
 33 32  1  0  0  0  0
 34 33  1  0  0  0  0
M  END
>  <MODEL>
1

>  <REMARK>
 VINA RESULT:      -7.6      0.000      0.000
  Name = 
  9 active torsions:
  status: ('A' for Active; 'I' for Inactive)
    1  A    between atoms: C_2  and  C_33
    2  A    between atoms: C_7  and  N_25
    3  A    between atoms: C_8  and  N_25
    4  A    between atoms: C_11  and  C_27
    5  A    between atoms: C_12  and  C_26
    6  A    between atoms: C_12  and  C_34
    7  A    between atoms: C_23  and  C_34
    8  A    between atoms: C_29  and  N_32
    9  A    between atoms: C_31  and  N_32
                            x       y       z     vdW  Elec       q    Type
                         _______ _______ _______ _____ _____    ______ ____

>  <TORSDO>
F 9

$$$$
=
 OpenBabel11042416053D

 34 37  0  0  1  0  0  0  0  0999 V2000
  189.7980  174.9170  143.3860 C   0  0  0  0  0  0  0  0  0  0  0  0
  191.5300  174.2920  141.8700 N   0  0  0  0  0  0  0  0  0  0  0  0
  188.8680  174.7920  142.3420 C   0  0  0  0  0  0  0  0  0  0  0  0
  188.5140  174.1640  140.1360 O   0  0  0  0  0  0  0  0  0  0  0  0
  189.3210  174.3660  141.0820 C   0  0  0  0  0  0  0  0  0  0  0  0
  190.6440  174.1400  140.8870 N   0  0  0  0  0  2  0  0  0  0  0  0
  191.1580  174.6700  143.1210 C   0  0  0  0  0  0  0  0  0  0  0  0
  189.7920  176.0590  147.4520 N   0  0  0  0  0  0  0  0  0  0  0  0
  190.4920  176.8500  146.4610 C   0  0  0  0  0  2  0  0  0  0  0  0
  189.6340  174.2830  145.8200 C   0  0  0  0  0  2  0  0  0  0  0  0
  189.3940  174.8630  147.1830 C   0  0  0  0  0  3  0  0  0  0  0  0
  189.7810  176.7700  145.1040 C   0  0  0  0  0  2  0  0  0  0  0  0
  189.3220  175.3390  144.7510 C   0  0  1  0  0  3  0  0  0  0  0  0
  187.4750  175.0310  142.6000 N   0  0  0  0  0  2  0  0  0  0  0  0
  186.1100  176.5270  143.9620 C   0  0  0  0  0  3  0  0  0  0  0  0
  186.8670  176.3120  142.8070 C   0  0  0  0  0  0  0  0  0  0  0  0
  185.5340  177.7790  144.2160 C   0  0  0  0  0  0  0  0  0  0  0  0
  186.5000  178.6220  142.1540 C   0  0  0  0  0  3  0  0  0  0  0  0
  187.0710  177.3710  141.9080 C   0  0  0  0  0  3  0  0  0  0  0  0
  185.7320  178.8250  143.3030 C   0  0  0  0  0  3  0  0  0  0  0  0
  184.6990  177.0190  146.4260 O   0  0  0  0  0  1  0  0  0  0  0  0
  184.7320  177.9900  145.4310 C   0  0  0  0  0  0  0  0  0  0  0  0
  184.0680  179.0500  145.5830 O   0  0  0  0  0  0  0  0  0  0  0  0
  192.1340  174.8150  144.1660 N   0  0  0  0  0  2  0  0  0  0  0  0
  192.8210  172.4890  144.6990 C   0  0  0  0  0  3  0  0  0  0  0  0
  194.3990  174.3100  144.9080 C   0  0  0  0  0  3  0  0  0  0  0  0
  195.3820  173.4100  145.3270 C   0  0  0  0  0  3  0  0  0  0  0  0
  193.8030  171.5880  145.1190 C   0  0  0  0  0  3  0  0  0  0  0  0
  195.0860  172.0470  145.4360 C   0  0  0  0  0  0  0  0  0  0  0  0
  193.1130  173.8580  144.5920 C   0  0  0  0  0  0  0  0  0  0  0  0
  196.1390  171.0910  145.8870 C   0  0  0  0  0  2  0  0  0  0  0  0
  195.6010  169.6680  145.9850 C   0  0  0  0  0  2  0  0  0  0  0  0
  196.0330  168.9970  147.2790 C   0  0  0  0  0  2  0  0  0  0  0  0
  194.9320  168.4230  147.9140 O   0  0  0  0  0  1  0  0  0  0  0  0
  2  7  2  0  0  0  0
  3 14  1  0  0  0  0
  3  1  2  0  0  0  0
  4  5  2  0  0  0  0
  5  3  1  0  0  0  0
  6  5  1  0  0  0  0
  6  2  1  0  0  0  0
  7  1  1  0  0  0  0
  7 24  1  0  0  0  0
  9  8  1  0  0  0  0
 10 11  1  0  0  0  0
 11  8  2  0  0  0  0
 12  9  1  0  0  0  0
 13  1  1  6  0  0  0
 13 12  1  0  0  0  0
 13 10  1  0  0  0  0
 14 16  1  0  0  0  0
 15 17  1  0  0  0  0
 16 15  2  0  0  0  0
 17 22  1  0  0  0  0
 18 20  1  0  0  0  0
 19 18  2  0  0  0  0
 19 16  1  0  0  0  0
 20 17  2  0  0  0  0
 22 23  2  0  0  0  0
 22 21  1  0  0  0  0
 24 30  1  0  0  0  0
 25 28  1  0  0  0  0
 26 27  2  0  0  0  0
 27 29  1  0  0  0  0
 28 29  2  0  0  0  0
 29 31  1  0  0  0  0
 30 25  2  0  0  0  0
 30 26  1  0  0  0  0
 31 32  1  0  0  0  0
 32 33  1  0  0  0  0
 33 34  1  0  0  0  0
M  END
>  <MODEL>
2

>  <REMARK>
 VINA RESULT:      -7.1      2.240      9.426
  Name = 
  9 active torsions:
  status: ('A' for Active; 'I' for Inactive)
    1  A    between atoms: C_2  and  C_33
    2  A    between atoms: C_7  and  N_25
    3  A    between atoms: C_8  and  N_25
    4  A    between atoms: C_11  and  C_27
    5  A    between atoms: C_12  and  C_26
    6  A    between atoms: C_12  and  C_34
    7  A    between atoms: C_23  and  C_34
    8  A    between atoms: C_29  and  N_32
    9  A    between atoms: C_31  and  N_32
                            x       y       z     vdW  Elec       q    Type
                         _______ _______ _______ _____ _____    ______ ____

>  <TORSDO>
F 9

$$$$
=
 OpenBabel11042416053D

 34 37  0  0  1  0  0  0  0  0999 V2000
  190.5110  175.0700  145.4460 C   0  0  0  0  0  0  0  0  0  0  0  0
  192.5710  175.8540  146.3590 N   0  0  0  0  0  0  0  0  0  0  0  0
  189.8230  175.9340  146.3130 C   0  0  0  0  0  0  0  0  0  0  0  0
  189.9970  177.6210  147.8970 O   0  0  0  0  0  0  0  0  0  0  0  0
  190.5670  176.7750  147.1580 C   0  0  0  0  0  0  0  0  0  0  0  0
  191.9200  176.6970  147.1580 N   0  0  0  0  0  2  0  0  0  0  0  0
  191.9170  175.0340  145.4930 C   0  0  0  0  0  0  0  0  0  0  0  0
  189.5660  172.1950  142.5010 N   0  0  0  0  0  0  0  0  0  0  0  0
  190.2820  171.8180  143.7020 C   0  0  0  0  0  2  0  0  0  0  0  0
  190.0250  174.5060  143.0370 C   0  0  0  0  0  2  0  0  0  0  0  0
  189.4420  173.4330  142.1660 C   0  0  0  0  0  3  0  0  0  0  0  0
  189.8540  172.6960  144.8860 C   0  0  0  0  0  2  0  0  0  0  0  0
  189.7290  174.1880  144.5100 C   0  0  1  0  0  3  0  0  0  0  0  0
  188.3880  175.9890  146.2680 N   0  0  0  0  0  2  0  0  0  0  0  0
  187.7180  177.1470  144.2270 C   0  0  0  0  0  3  0  0  0  0  0  0
  187.6080  176.9960  145.6130 C   0  0  0  0  0  0  0  0  0  0  0  0
  186.9420  178.0950  143.5470 C   0  0  0  0  0  0  0  0  0  0  0  0
  185.9110  178.7330  145.6510 C   0  0  0  0  0  3  0  0  0  0  0  0
  186.6890  177.7860  146.3220 C   0  0  0  0  0  3  0  0  0  0  0  0
  186.0390  178.8890  144.2690 C   0  0  0  0  0  3  0  0  0  0  0  0
  185.9520  178.4830  141.3050 O   0  0  0  0  0  0  0  0  0  0  0  0
  187.0750  178.2510  142.0910 C   0  0  0  0  0  0  0  0  0  0  0  0
  188.2060  178.1760  141.5400 O   0  0  0  0  0  1  0  0  0  0  0  0
  192.6450  174.1420  144.6340 N   0  0  0  0  0  2  0  0  0  0  0  0
  195.0630  173.8320  145.1080 C   0  0  0  0  0  3  0  0  0  0  0  0
  193.5500  171.9470  145.1810 C   0  0  0  0  0  3  0  0  0  0  0  0
  194.6140  171.1050  145.5140 C   0  0  0  0  0  3  0  0  0  0  0  0
  196.1290  172.9910  145.4420 C   0  0  0  0  0  3  0  0  0  0  0  0
  195.9060  171.6250  145.6430 C   0  0  0  0  0  0  0  0  0  0  0  0
  193.7650  173.3140  144.9750 C   0  0  0  0  0  0  0  0  0  0  0  0
  197.0400  170.7210  145.9970 C   0  0  0  0  0  2  0  0  0  0  0  0
  196.5870  169.2700  146.1120 C   0  0  0  0  0  2  0  0  0  0  0  0
  196.6720  168.7730  147.5470 C   0  0  0  0  0  2  0  0  0  0  0  0
  195.4240  168.3180  147.9730 O   0  0  0  0  0  1  0  0  0  0  0  0
  1  7  1  0  0  0  0
  1  3  2  0  0  0  0
  2  6  1  0  0  0  0
  3  5  1  0  0  0  0
  5  4  2  0  0  0  0
  6  5  1  0  0  0  0
  7  2  2  0  0  0  0
  8  9  1  0  0  0  0
  9 12  1  0  0  0  0
 10 13  1  0  0  0  0
 11  8  2  0  0  0  0
 11 10  1  0  0  0  0
 13 12  1  0  0  0  0
 13  1  1  1  0  0  0
 14  3  1  0  0  0  0
 15 16  1  0  0  0  0
 16 14  1  0  0  0  0
 16 19  2  0  0  0  0
 17 15  2  0  0  0  0
 17 20  1  0  0  0  0
 18 19  1  0  0  0  0
 20 18  2  0  0  0  0
 21 22  2  0  0  0  0
 22 17  1  0  0  0  0
 23 22  1  0  0  0  0
 24 30  1  0  0  0  0
 24  7  1  0  0  0  0
 25 28  1  0  0  0  0
 26 27  2  0  0  0  0
 27 29  1  0  0  0  0
 28 29  2  0  0  0  0
 29 31  1  0  0  0  0
 30 25  2  0  0  0  0
 30 26  1  0  0  0  0
 31 32  1  0  0  0  0
 32 33  1  0  0  0  0
 33 34  1  0  0  0  0
M  END
>  <MODEL>
3

>  <REMARK>
 VINA RESULT:      -7.1      1.585      9.121
  Name = 
  9 active torsions:
  status: ('A' for Active; 'I' for Inactive)
    1  A    between atoms: C_2  and  C_33
    2  A    between atoms: C_7  and  N_25
    3  A    between atoms: C_8  and  N_25
    4  A    between atoms: C_11  and  C_27
    5  A    between atoms: C_12  and  C_26
    6  A    between atoms: C_12  and  C_34
    7  A    between atoms: C_23  and  C_34
    8  A    between atoms: C_29  and  N_32
    9  A    between atoms: C_31  and  N_32
                            x       y       z     vdW  Elec       q    Type
                         _______ _______ _______ _____ _____    ______ ____

>  <TORSDO>
F 9

$$$$
=
 OpenBabel11042416053D

 34 37  0  0  1  0  0  0  0  0999 V2000
  188.8380  176.3040  142.8490 C   0  0  0  0  0  0  0  0  0  0  0  0
  188.7980  174.7090  141.0750 N   0  0  0  0  0  0  0  0  0  0  0  0
  187.9380  177.1000  142.1230 C   0  0  0  0  0  0  0  0  0  0  0  0
  186.5930  177.2700  140.2400 O   0  0  0  0  0  0  0  0  0  0  0  0
  187.4610  176.6280  140.8890 C   0  0  0  0  0  0  0  0  0  0  0  0
  187.9180  175.4480  140.4020 N   0  0  0  0  0  2  0  0  0  0  0  0
  189.2770  175.0890  142.2890 C   0  0  0  0  0  0  0  0  0  0  0  0
  191.1370  176.6770  146.3710 N   0  0  0  0  0  0  0  0  0  0  0  0
  191.7380  176.8810  145.0690 C   0  0  0  0  0  2  0  0  0  0  0  0
  189.2330  175.6860  145.2600 C   0  0  0  0  0  2  0  0  0  0  0  0
  189.9830  176.1170  146.4860 C   0  0  0  0  0  3  0  0  0  0  0  0
  190.7130  177.4610  144.0850 C   0  0  0  0  0  2  0  0  0  0  0  0
  189.3310  176.7810  144.1880 C   0  0  1  0  0  3  0  0  0  0  0  0
  187.4720  178.3380  142.6870 N   0  0  0  0  0  2  0  0  0  0  0  0
  186.6030  178.5070  144.9610 C   0  0  0  0  0  3  0  0  0  0  0  0
  186.3650  178.4870  143.5830 C   0  0  0  0  0  0  0  0  0  0  0  0
  185.5490  178.6910  145.8660 C   0  0  0  0  0  0  0  0  0  0  0  0
  184.0030  178.8640  144.0020 C   0  0  0  0  0  3  0  0  0  0  0  0
  185.0590  178.6800  143.1060 C   0  0  0  0  0  3  0  0  0  0  0  0
  184.2460  178.8670  145.3780 C   0  0  0  0  0  3  0  0  0  0  0  0
  186.0770  179.8960  147.9700 O   0  0  0  0  0  0  0  0  0  0  0  0
  185.8110  178.7000  147.3130 C   0  0  0  0  0  0  0  0  0  0  0  0
  185.7980  177.6250  147.9720 O   0  0  0  0  0  1  0  0  0  0  0  0
  190.2180  174.2660  142.9980 N   0  0  0  0  0  2  0  0  0  0  0  0
  192.4790  173.5550  143.7370 C   0  0  0  0  0  3  0  0  0  0  0  0
  192.1980  174.8040  141.6850 C   0  0  0  0  0  3  0  0  0  0  0  0
  193.5780  174.7640  141.4710 C   0  0  0  0  0  3  0  0  0  0  0  0
  193.8600  173.5150  143.5250 C   0  0  0  0  0  3  0  0  0  0  0  0
  194.4130  174.1210  142.3920 C   0  0  0  0  0  0  0  0  0  0  0  0
  191.6390  174.2020  142.8170 C   0  0  0  0  0  0  0  0  0  0  0  0
  195.8870  174.0840  142.1600 C   0  0  0  0  0  2  0  0  0  0  0  0
  196.6610  174.5410  143.3910 C   0  0  0  0  0  2  0  0  0  0  0  0
  197.1030  175.9910  143.2630 C   0  0  0  0  0  2  0  0  0  0  0  0
  196.1410  176.8370  143.8160 O   0  0  0  0  0  1  0  0  0  0  0  0
  2  7  2  0  0  0  0
  3 14  1  0  0  0  0
  3  1  2  0  0  0  0
  4  5  2  0  0  0  0
  5  3  1  0  0  0  0
  6  5  1  0  0  0  0
  6  2  1  0  0  0  0
  7  1  1  0  0  0  0
  7 24  1  0  0  0  0
  8 11  2  0  0  0  0
  9  8  1  0  0  0  0
 10 11  1  0  0  0  0
 12 13  1  0  0  0  0
 12  9  1  0  0  0  0
 13  1  1  6  0  0  0
 13 10  1  0  0  0  0
 14 16  1  0  0  0  0
 15 17  1  0  0  0  0
 16 15  2  0  0  0  0
 17 22  1  0  0  0  0
 18 20  1  0  0  0  0
 19 16  1  0  0  0  0
 19 18  2  0  0  0  0
 20 17  2  0  0  0  0
 22 21  2  0  0  0  0
 22 23  1  0  0  0  0
 26 30  1  0  0  0  0
 27 26  2  0  0  0  0
 27 29  1  0  0  0  0
 28 25  1  0  0  0  0
 29 28  2  0  0  0  0
 30 24  1  0  0  0  0
 30 25  2  0  0  0  0
 31 29  1  0  0  0  0
 31 32  1  0  0  0  0
 33 32  1  0  0  0  0
 33 34  1  0  0  0  0
M  END
>  <MODEL>
4

>  <REMARK>
 VINA RESULT:      -7.0      3.174      9.336
  Name = 
  9 active torsions:
  status: ('A' for Active; 'I' for Inactive)
    1  A    between atoms: C_2  and  C_33
    2  A    between atoms: C_7  and  N_25
    3  A    between atoms: C_8  and  N_25
    4  A    between atoms: C_11  and  C_27
    5  A    between atoms: C_12  and  C_26
    6  A    between atoms: C_12  and  C_34
    7  A    between atoms: C_23  and  C_34
    8  A    between atoms: C_29  and  N_32
    9  A    between atoms: C_31  and  N_32
                            x       y       z     vdW  Elec       q    Type
                         _______ _______ _______ _____ _____    ______ ____

>  <TORSDO>
F 9

$$$$
=
 OpenBabel11042416053D

 34 37  0  0  1  0  0  0  0  0999 V2000
  191.7810  174.7300  145.1550 C   0  0  0  0  0  0  0  0  0  0  0  0
  191.4190  176.1840  147.0110 N   0  0  0  0  0  0  0  0  0  0  0  0
  193.1590  174.9810  145.2550 C   0  0  0  0  0  0  0  0  0  0  0  0
  194.8530  176.0060  146.4660 O   0  0  0  0  0  0  0  0  0  0  0  0
  193.6200  175.8130  146.2880 C   0  0  0  0  0  0  0  0  0  0  0  0
  192.7290  176.3960  147.1270 N   0  0  0  0  0  2  0  0  0  0  0  0
  190.9050  175.3650  146.0550 C   0  0  0  0  0  0  0  0  0  0  0  0
  189.1820  172.6530  142.5540 N   0  0  0  0  0  0  0  0  0  0  0  0
  189.2310  174.1000  142.5530 C   0  0  0  0  0  2  0  0  0  0  0  0
  190.4020  172.6830  144.6400 C   0  0  0  0  0  2  0  0  0  0  0  0
  189.7090  171.9740  143.5140 C   0  0  0  0  0  3  0  0  0  0  0  0
  190.6400  174.5950  142.9050 C   0  0  0  0  0  2  0  0  0  0  0  0
  191.2750  173.8130  144.0740 C   0  0  1  0  0  3  0  0  0  0  0  0
  194.0660  174.3300  144.3490 N   0  0  0  0  0  2  0  0  0  0  0  0
  194.1740  174.6390  141.9310 C   0  0  0  0  0  3  0  0  0  0  0  0
  194.6800  174.9290  143.2020 C   0  0  0  0  0  0  0  0  0  0  0  0
  194.7240  175.2370  140.7890 C   0  0  0  0  0  0  0  0  0  0  0  0
  196.2850  176.4500  142.1980 C   0  0  0  0  0  3  0  0  0  0  0  0
  195.7320  175.8500  143.3320 C   0  0  0  0  0  3  0  0  0  0  0  0
  195.7850  176.1430  140.9310 C   0  0  0  0  0  3  0  0  0  0  0  0
  194.9210  175.2200  138.3160 O   0  0  0  0  0  0  0  0  0  0  0  0
  194.1890  174.9160  139.4570 C   0  0  0  0  0  0  0  0  0  0  0  0
  193.0630  174.3620  139.3370 O   0  0  0  0  0  1  0  0  0  0  0  0
  189.4890  175.1460  145.9590 N   0  0  0  0  0  2  0  0  0  0  0  0
  188.3440  176.9710  144.7240 C   0  0  0  0  0  3  0  0  0  0  0  0
  187.5250  176.2530  146.8830 C   0  0  0  0  0  3  0  0  0  0  0  0
  186.5010  177.2010  146.8100 C   0  0  0  0  0  3  0  0  0  0  0  0
  187.3210  177.9190  144.6490 C   0  0  0  0  0  3  0  0  0  0  0  0
  186.3980  178.0380  145.6940 C   0  0  0  0  0  0  0  0  0  0  0  0
  188.4530  176.1310  145.8430 C   0  0  0  0  0  0  0  0  0  0  0  0
  185.3040  179.0500  145.6220 C   0  0  0  0  0  2  0  0  0  0  0  0
  185.0390  179.4910  144.1870 C   0  0  0  0  0  2  0  0  0  0  0  0
  183.8570  178.7470  143.5860 C   0  0  0  0  0  2  0  0  0  0  0  0
  184.2650  178.0160  142.4700 O   0  0  0  0  0  1  0  0  0  0  0  0
  1  3  2  0  0  0  0
  1  7  1  0  0  0  0
  2  6  1  0  0  0  0
  3  5  1  0  0  0  0
  5  4  2  0  0  0  0
  5  6  1  0  0  0  0
  7  2  2  0  0  0  0
  8 11  2  0  0  0  0
  9  8  1  0  0  0  0
  9 12  1  0  0  0  0
 11 10  1  0  0  0  0
 12 13  1  0  0  0  0
 13 10  1  0  0  0  0
 13  1  1  1  0  0  0
 14  3  1  0  0  0  0
 15 16  1  0  0  0  0
 16 19  2  0  0  0  0
 16 14  1  0  0  0  0
 17 20  1  0  0  0  0
 17 15  2  0  0  0  0
 18 19  1  0  0  0  0
 20 18  2  0  0  0  0
 21 22  2  0  0  0  0
 22 17  1  0  0  0  0
 23 22  1  0  0  0  0
 24  7  1  0  0  0  0
 25 30  1  0  0  0  0
 27 26  1  0  0  0  0
 28 25  2  0  0  0  0
 28 29  1  0  0  0  0
 29 27  2  0  0  0  0
 30 24  1  0  0  0  0
 30 26  2  0  0  0  0
 31 29  1  0  0  0  0
 32 31  1  0  0  0  0
 33 32  1  0  0  0  0
 34 33  1  0  0  0  0
M  END
>  <MODEL>
5

>  <REMARK>
 VINA RESULT:      -7.0      2.756      3.681
  Name = 
  9 active torsions:
  status: ('A' for Active; 'I' for Inactive)
    1  A    between atoms: C_2  and  C_33
    2  A    between atoms: C_7  and  N_25
    3  A    between atoms: C_8  and  N_25
    4  A    between atoms: C_11  and  C_27
    5  A    between atoms: C_12  and  C_26
    6  A    between atoms: C_12  and  C_34
    7  A    between atoms: C_23  and  C_34
    8  A    between atoms: C_29  and  N_32
    9  A    between atoms: C_31  and  N_32
                            x       y       z     vdW  Elec       q    Type
                         _______ _______ _______ _____ _____    ______ ____

>  <TORSDO>
F 9

$$$$
=
 OpenBabel11042416053D

 34 37  0  0  1  0  0  0  0  0999 V2000
  191.1480  173.9060  143.7750 C   0  0  0  0  0  0  0  0  0  0  0  0
  190.7350  174.5720  141.5210 N   0  0  0  0  0  0  0  0  0  0  0  0
  191.6050  172.6660  143.3020 C   0  0  0  0  0  0  0  0  0  0  0  0
  192.1230  171.3800  141.4400 O   0  0  0  0  0  0  0  0  0  0  0  0
  191.6480  172.4460  141.9150 C   0  0  0  0  0  0  0  0  0  0  0  0
  191.2000  173.4080  141.0700 N   0  0  0  0  0  2  0  0  0  0  0  0
  190.6940  174.8640  142.8490 C   0  0  0  0  0  0  0  0  0  0  0  0
  190.3140  175.6660  147.5220 N   0  0  0  0  0  0  0  0  0  0  0  0
  189.2450  175.1610  146.6860 C   0  0  0  0  0  2  0  0  0  0  0  0
  191.7870  175.5090  145.6120 C   0  0  0  0  0  2  0  0  0  0  0  0
  191.4980  175.8450  147.0450 C   0  0  0  0  0  3  0  0  0  0  0  0
  189.7240  173.9590  145.8610 C   0  0  0  0  0  2  0  0  0  0  0  0
  191.1280  174.1680  145.2570 C   0  0  1  0  0  3  0  0  0  0  0  0
  192.0820  171.6820  144.2350 N   0  0  0  0  0  2  0  0  0  0  0  0
  194.1690  172.7280  144.9430 C   0  0  0  0  0  3  0  0  0  0  0  0
  193.4250  171.5660  144.7190 C   0  0  0  0  0  0  0  0  0  0  0  0
  195.4730  172.6550  145.4520 C   0  0  0  0  0  0  0  0  0  0  0  0
  195.2830  170.2360  145.5420 C   0  0  0  0  0  3  0  0  0  0  0  0
  193.9840  170.3180  145.0340 C   0  0  0  0  0  3  0  0  0  0  0  0
  196.0260  171.4010  145.7480 C   0  0  0  0  0  3  0  0  0  0  0  0
  197.6060  173.9210  145.3750 O   0  0  0  0  0  0  0  0  0  0  0  0
  196.2490  173.8850  145.6740 C   0  0  0  0  0  0  0  0  0  0  0  0
  195.6930  174.9170  146.1380 O   0  0  0  0  0  1  0  0  0  0  0  0
  190.1980  176.1320  143.3070 N   0  0  0  0  0  2  0  0  0  0  0  0
  187.7830  175.8520  142.8030 C   0  0  0  0  0  3  0  0  0  0  0  0
  188.5410  177.6900  144.1800 C   0  0  0  0  0  3  0  0  0  0  0  0
  187.2220  178.1310  144.3170 C   0  0  0  0  0  3  0  0  0  0  0  0
  186.4630  176.2920  142.9400 C   0  0  0  0  0  3  0  0  0  0  0  0
  186.1810  177.4340  143.6960 C   0  0  0  0  0  0  0  0  0  0  0  0
  188.8310  176.5500  143.4230 C   0  0  0  0  0  0  0  0  0  0  0  0
  184.7740  177.9110  143.8440 C   0  0  0  0  0  2  0  0  0  0  0  0
  184.6770  179.0840  144.8130 C   0  0  0  0  0  2  0  0  0  0  0  0
  184.0660  178.6600  146.1390 C   0  0  0  0  0  2  0  0  0  0  0  0
  185.0190  178.7390  147.1550 O   0  0  0  0  0  1  0  0  0  0  0  0
  2  7  2  0  0  0  0
  3  1  2  0  0  0  0
  3 14  1  0  0  0  0
  4  5  2  0  0  0  0
  5  3  1  0  0  0  0
  6  2  1  0  0  0  0
  6  5  1  0  0  0  0
  7 24  1  0  0  0  0
  7  1  1  0  0  0  0
  9  8  1  0  0  0  0
 10 11  1  0  0  0  0
 11  8  2  0  0  0  0
 12  9  1  0  0  0  0
 13  1  1  6  0  0  0
 13 10  1  0  0  0  0
 13 12  1  0  0  0  0
 14 16  1  0  0  0  0
 15 17  1  0  0  0  0
 16 15  2  0  0  0  0
 16 19  1  0  0  0  0
 17 22  1  0  0  0  0
 17 20  2  0  0  0  0
 18 20  1  0  0  0  0
 19 18  2  0  0  0  0
 21 22  2  0  0  0  0
 22 23  1  0  0  0  0
 24 30  1  0  0  0  0
 25 28  2  0  0  0  0
 25 30  1  0  0  0  0
 26 27  1  0  0  0  0
 28 29  1  0  0  0  0
 29 31  1  0  0  0  0
 29 27  2  0  0  0  0
 30 26  2  0  0  0  0
 31 32  1  0  0  0  0
 32 33  1  0  0  0  0
 33 34  1  0  0  0  0
M  END
>  <MODEL>
6

>  <REMARK>
 VINA RESULT:      -6.8      2.222      3.972
  Name = 
  9 active torsions:
  status: ('A' for Active; 'I' for Inactive)
    1  A    between atoms: C_2  and  C_33
    2  A    between atoms: C_7  and  N_25
    3  A    between atoms: C_8  and  N_25
    4  A    between atoms: C_11  and  C_27
    5  A    between atoms: C_12  and  C_26
    6  A    between atoms: C_12  and  C_34
    7  A    between atoms: C_23  and  C_34
    8  A    between atoms: C_29  and  N_32
    9  A    between atoms: C_31  and  N_32
                            x       y       z     vdW  Elec       q    Type
                         _______ _______ _______ _____ _____    ______ ____

>  <TORSDO>
F 9

$$$$
=
 OpenBabel11042416053D

 34 37  0  0  1  0  0  0  0  0999 V2000
  186.7880  177.4970  145.2210 C   0  0  0  0  0  0  0  0  0  0  0  0
  185.3770  179.2950  145.9050 N   0  0  0  0  0  0  0  0  0  0  0  0
  186.9770  177.1610  146.5720 C   0  0  0  0  0  0  0  0  0  0  0  0
  186.3780  177.5920  148.7720 O   0  0  0  0  0  0  0  0  0  0  0  0
  186.3010  177.9040  147.5540 C   0  0  0  0  0  0  0  0  0  0  0  0
  185.5290  178.9560  147.1840 N   0  0  0  0  0  2  0  0  0  0  0  0
  185.9760  178.6000  144.9010 C   0  0  0  0  0  0  0  0  0  0  0  0
  188.1090  176.1380  141.4480 N   0  0  0  0  0  0  0  0  0  0  0  0
  188.4260  177.4740  141.9070 C   0  0  0  0  0  2  0  0  0  0  0  0
  186.4770  175.9900  143.2250 C   0  0  0  0  0  2  0  0  0  0  0  0
  187.2030  175.4340  142.0350 C   0  0  0  0  0  3  0  0  0  0  0  0
  188.5730  177.5020  143.4340 C   0  0  0  0  0  2  0  0  0  0  0  0
  187.4780  176.6880  144.1560 C   0  0  1  0  0  3  0  0  0  0  0  0
  187.7950  176.0290  146.9130 N   0  0  0  0  0  2  0  0  0  0  0  0
  189.8490  174.9680  146.1320 C   0  0  0  0  0  3  0  0  0  0  0  0
  189.2260  175.9830  146.8640 C   0  0  0  0  0  0  0  0  0  0  0  0
  191.2460  174.9150  146.0290 C   0  0  0  0  0  0  0  0  0  0  0  0
  191.4040  176.9250  147.3800 C   0  0  0  0  0  3  0  0  0  0  0  0
  190.0110  176.9720  147.4780 C   0  0  0  0  0  3  0  0  0  0  0  0
  192.0200  175.8990  146.6600 C   0  0  0  0  0  3  0  0  0  0  0  0
  191.1510  173.0840  144.3570 O   0  0  0  0  0  0  0  0  0  0  0  0
  191.8890  173.8350  145.2640 C   0  0  0  0  0  0  0  0  0  0  0  0
  193.1130  173.5810  145.4220 O   0  0  0  0  0  1  0  0  0  0  0  0
  185.7850  178.9820  143.5290 N   0  0  0  0  0  2  0  0  0  0  0  0
  183.3260  178.8550  143.2090 C   0  0  0  0  0  3  0  0  0  0  0  0
  184.8240  178.4230  141.3610 C   0  0  0  0  0  3  0  0  0  0  0  0
  183.7280  178.1930  140.5260 C   0  0  0  0  0  3  0  0  0  0  0  0
  182.2280  178.6250  142.3750 C   0  0  0  0  0  3  0  0  0  0  0  0
  182.4270  178.2910  141.0310 C   0  0  0  0  0  0  0  0  0  0  0  0
  184.6320  178.7540  142.7070 C   0  0  0  0  0  0  0  0  0  0  0  0
  181.2600  178.0420  140.1360 C   0  0  0  0  0  2  0  0  0  0  0  0
  180.0510  178.8760  140.5430 C   0  0  0  0  0  2  0  0  0  0  0  0
  178.8670  177.9960  140.9130 C   0  0  0  0  0  2  0  0  0  0  0  0
  178.6620  178.0210  142.2920 O   0  0  0  0  0  1  0  0  0  0  0  0
  1  3  2  0  0  0  0
  2  6  1  0  0  0  0
  3 14  1  0  0  0  0
  3  5  1  0  0  0  0
  5  4  2  0  0  0  0
  6  5  1  0  0  0  0
  7  1  1  0  0  0  0
  7  2  2  0  0  0  0
  8  9  1  0  0  0  0
  8 11  2  0  0  0  0
  9 12  1  0  0  0  0
 10 13  1  0  0  0  0
 11 10  1  0  0  0  0
 12 13  1  0  0  0  0
 13  1  1  1  0  0  0
 15 16  1  0  0  0  0
 16 14  1  0  0  0  0
 16 19  2  0  0  0  0
 17 15  2  0  0  0  0
 17 20  1  0  0  0  0
 18 19  1  0  0  0  0
 20 18  2  0  0  0  0
 21 22  2  0  0  0  0
 22 23  1  0  0  0  0
 22 17  1  0  0  0  0
 24  7  1  0  0  0  0
 26 30  2  0  0  0  0
 27 29  2  0  0  0  0
 27 26  1  0  0  0  0
 28 25  2  0  0  0  0
 29 28  1  0  0  0  0
 30 25  1  0  0  0  0
 30 24  1  0  0  0  0
 31 32  1  0  0  0  0
 31 29  1  0  0  0  0
 32 33  1  0  0  0  0
 33 34  1  0  0  0  0
M  END
>  <MODEL>
7

>  <REMARK>
 VINA RESULT:      -6.8      3.364      6.006
  Name = 
  9 active torsions:
  status: ('A' for Active; 'I' for Inactive)
    1  A    between atoms: C_2  and  C_33
    2  A    between atoms: C_7  and  N_25
    3  A    between atoms: C_8  and  N_25
    4  A    between atoms: C_11  and  C_27
    5  A    between atoms: C_12  and  C_26
    6  A    between atoms: C_12  and  C_34
    7  A    between atoms: C_23  and  C_34
    8  A    between atoms: C_29  and  N_32
    9  A    between atoms: C_31  and  N_32
                            x       y       z     vdW  Elec       q    Type
                         _______ _______ _______ _____ _____    ______ ____

>  <TORSDO>
F 9

$$$$
=
 OpenBabel11042416053D

 34 37  0  0  1  0  0  0  0  0999 V2000
  192.3240  173.8060  144.5000 C   0  0  0  0  0  0  0  0  0  0  0  0
  189.9960  173.3050  144.3560 N   0  0  0  0  0  0  0  0  0  0  0  0
  192.6060  172.5540  143.9300 C   0  0  0  0  0  0  0  0  0  0  0  0
  191.7370  170.6330  142.9610 O   0  0  0  0  0  0  0  0  0  0  0  0
  191.5350  171.7290  143.5470 C   0  0  0  0  0  0  0  0  0  0  0  0
  190.2620  172.1320  143.7850 N   0  0  0  0  0  2  0  0  0  0  0  0
  190.9820  174.1670  144.7220 C   0  0  0  0  0  0  0  0  0  0  0  0
  194.4770  177.1350  145.9530 N   0  0  0  0  0  0  0  0  0  0  0  0
  193.5950  176.3860  146.8230 C   0  0  0  0  0  2  0  0  0  0  0  0
  193.4550  176.0170  144.0700 C   0  0  0  0  0  2  0  0  0  0  0  0
  194.4250  176.9890  144.6740 C   0  0  0  0  0  3  0  0  0  0  0  0
  193.5540  174.9080  146.4110 C   0  0  0  0  0  2  0  0  0  0  0  0
  193.4610  174.7150  144.8830 C   0  0  1  0  0  3  0  0  0  0  0  0
  193.9720  172.1770  143.6860 N   0  0  0  0  0  2  0  0  0  0  0  0
  194.4840  170.4960  145.3800 C   0  0  0  0  0  3  0  0  0  0  0  0
  194.8740  171.6240  144.6520 C   0  0  0  0  0  0  0  0  0  0  0  0
  195.3550  169.9050  146.3040 C   0  0  0  0  0  0  0  0  0  0  0  0
  197.0370  171.5670  145.7540 C   0  0  0  0  0  3  0  0  0  0  0  0
  196.1630  172.1500  144.8340 C   0  0  0  0  0  3  0  0  0  0  0  0
  196.6350  170.4490  146.4880 C   0  0  0  0  0  3  0  0  0  0  0  0
  195.7390  168.2110  148.0760 O   0  0  0  0  0  1  0  0  0  0  0  0
  194.9280  168.7240  147.0700 C   0  0  0  0  0  0  0  0  0  0  0  0
  193.8250  168.1660  146.8240 O   0  0  0  0  0  0  0  0  0  0  0  0
  190.6660  175.4310  145.3270 N   0  0  0  0  0  2  0  0  0  0  0  0
  188.7120  176.8110  144.6610 C   0  0  0  0  0  3  0  0  0  0  0  0
  188.7380  175.6760  146.7960 C   0  0  0  0  0  3  0  0  0  0  0  0
  187.4720  176.1910  147.0860 C   0  0  0  0  0  3  0  0  0  0  0  0
  187.4460  177.3270  144.9490 C   0  0  0  0  0  3  0  0  0  0  0  0
  186.8240  177.0200  146.1640 C   0  0  0  0  0  0  0  0  0  0  0  0
  189.3670  175.9810  145.5840 C   0  0  0  0  0  0  0  0  0  0  0  0
  185.4730  177.5700  146.4800 C   0  0  0  0  0  2  0  0  0  0  0  0
  185.2340  178.9060  145.7860 C   0  0  0  0  0  2  0  0  0  0  0  0
  184.0880  178.8180  144.7900 C   0  0  0  0  0  2  0  0  0  0  0  0
  184.5720  178.9370  143.4870 O   0  0  0  0  0  1  0  0  0  0  0  0
  1  7  1  0  0  0  0
  2  7  2  0  0  0  0
  3  1  2  0  0  0  0
  4  5  2  0  0  0  0
  5  6  1  0  0  0  0
  5  3  1  0  0  0  0
  6  2  1  0  0  0  0
  7 24  1  0  0  0  0
  8  9  1  0  0  0  0
 10 11  1  0  0  0  0
 10 13  1  0  0  0  0
 11  8  2  0  0  0  0
 12  9  1  0  0  0  0
 13  1  1  1  0  0  0
 13 12  1  0  0  0  0
 14  3  1  0  0  0  0
 14 16  1  0  0  0  0
 15 17  1  0  0  0  0
 16 19  1  0  0  0  0
 16 15  2  0  0  0  0
 17 20  2  0  0  0  0
 17 22  1  0  0  0  0
 18 20  1  0  0  0  0
 19 18  2  0  0  0  0
 22 21  1  0  0  0  0
 23 22  2  0  0  0  0
 24 30  1  0  0  0  0
 25 28  2  0  0  0  0
 25 30  1  0  0  0  0
 26 27  1  0  0  0  0
 28 29  1  0  0  0  0
 29 31  1  0  0  0  0
 29 27  2  0  0  0  0
 30 26  2  0  0  0  0
 32 31  1  0  0  0  0
 33 32  1  0  0  0  0
 34 33  1  0  0  0  0
M  END
>  <MODEL>
8

>  <REMARK>
 VINA RESULT:      -6.8      1.865      3.501
  Name = 
  9 active torsions:
  status: ('A' for Active; 'I' for Inactive)
    1  A    between atoms: C_2  and  C_33
    2  A    between atoms: C_7  and  N_25
    3  A    between atoms: C_8  and  N_25
    4  A    between atoms: C_11  and  C_27
    5  A    between atoms: C_12  and  C_26
    6  A    between atoms: C_12  and  C_34
    7  A    between atoms: C_23  and  C_34
    8  A    between atoms: C_29  and  N_32
    9  A    between atoms: C_31  and  N_32
                            x       y       z     vdW  Elec       q    Type
                         _______ _______ _______ _____ _____    ______ ____

>  <TORSDO>
F 9

$$$$
=
 OpenBabel11042416053D

 34 37  0  0  1  0  0  0  0  0999 V2000
  190.8530  175.3620  145.6530 C   0  0  0  0  0  0  0  0  0  0  0  0
  190.8690  176.5150  147.7420 N   0  0  0  0  0  0  0  0  0  0  0  0
  192.2300  175.6100  145.5300 C   0  0  0  0  0  0  0  0  0  0  0  0
  194.1380  176.4560  146.5450 O   0  0  0  0  0  0  0  0  0  0  0  0
  192.8910  176.2800  146.5730 C   0  0  0  0  0  0  0  0  0  0  0  0
  192.1820  176.7200  147.6420 N   0  0  0  0  0  2  0  0  0  0  0  0
  190.1720  175.8460  146.7860 C   0  0  0  0  0  0  0  0  0  0  0  0
  190.1160  172.9070  142.2970 N   0  0  0  0  0  0  0  0  0  0  0  0
  190.7540  172.3720  143.4810 C   0  0  0  0  0  2  0  0  0  0  0  0
  190.5260  175.1250  143.1650 C   0  0  0  0  0  2  0  0  0  0  0  0
  190.0070  174.1800  142.1230 C   0  0  0  0  0  3  0  0  0  0  0  0
  190.2460  173.0860  144.7410 C   0  0  0  0  0  2  0  0  0  0  0  0
  190.1380  174.6150  144.5600 C   0  0  1  0  0  3  0  0  0  0  0  0
  192.9400  175.1130  144.3840 N   0  0  0  0  0  2  0  0  0  0  0  0
  194.8210  173.9380  143.3660 C   0  0  0  0  0  3  0  0  0  0  0  0
  193.8610  174.0150  144.3790 C   0  0  0  0  0  0  0  0  0  0  0  0
  195.7630  172.9000  143.3510 C   0  0  0  0  0  0  0  0  0  0  0  0
  194.7950  172.0170  145.3950 C   0  0  0  0  0  3  0  0  0  0  0  0
  193.8600  173.0550  145.4040 C   0  0  0  0  0  3  0  0  0  0  0  0
  195.7420  171.9380  144.3720 C   0  0  0  0  0  3  0  0  0  0  0  0
  197.0340  171.6110  141.6530 O   0  0  0  0  0  0  0  0  0  0  0  0
  196.7620  172.8250  142.2740 C   0  0  0  0  0  0  0  0  0  0  0  0
  197.3810  173.8580  141.9040 O   0  0  0  0  0  1  0  0  0  0  0  0
  188.7580  175.6290  146.9240 N   0  0  0  0  0  2  0  0  0  0  0  0
  187.7930  177.3010  145.3630 C   0  0  0  0  0  3  0  0  0  0  0  0
  186.5180  176.5230  147.2650 C   0  0  0  0  0  3  0  0  0  0  0  0
  185.4550  177.3510  146.8910 C   0  0  0  0  0  3  0  0  0  0  0  0
  186.7320  178.1300  144.9880 C   0  0  0  0  0  3  0  0  0  0  0  0
  185.5610  178.1570  145.7530 C   0  0  0  0  0  0  0  0  0  0  0  0
  187.6920  176.4920  146.5050 C   0  0  0  0  0  0  0  0  0  0  0  0
  184.4250  179.0420  145.3600 C   0  0  0  0  0  2  0  0  0  0  0  0
  184.5090  179.4470  143.8930 C   0  0  0  0  0  2  0  0  0  0  0  0
  183.7310  178.4890  143.0050 C   0  0  0  0  0  2  0  0  0  0  0  0
  184.5960  177.8430  142.1210 O   0  0  0  0  0  1  0  0  0  0  0  0
  1  7  1  0  0  0  0
  3  1  2  0  0  0  0
  3  5  1  0  0  0  0
  4  5  2  0  0  0  0
  5  6  1  0  0  0  0
  6  2  1  0  0  0  0
  7 24  1  0  0  0  0
  7  2  2  0  0  0  0
  8  9  1  0  0  0  0
  9 12  1  0  0  0  0
 10 13  1  0  0  0  0
 11  8  2  0  0  0  0
 11 10  1  0  0  0  0
 13 12  1  0  0  0  0
 13  1  1  1  0  0  0
 14  3  1  0  0  0  0
 15 16  1  0  0  0  0
 16 14  1  0  0  0  0
 16 19  2  0  0  0  0
 17 15  2  0  0  0  0
 17 20  1  0  0  0  0
 18 19  1  0  0  0  0
 20 18  2  0  0  0  0
 21 22  2  0  0  0  0
 22 17  1  0  0  0  0
 23 22  1  0  0  0  0
 25 30  1  0  0  0  0
 27 26  1  0  0  0  0
 28 25  2  0  0  0  0
 28 29  1  0  0  0  0
 29 27  2  0  0  0  0
 30 24  1  0  0  0  0
 30 26  2  0  0  0  0
 31 29  1  0  0  0  0
 32 31  1  0  0  0  0
 33 32  1  0  0  0  0
 34 33  1  0  0  0  0
M  END
>  <MODEL>
9

>  <REMARK>
 VINA RESULT:      -6.7      1.873      2.635
  Name = 
  9 active torsions:
  status: ('A' for Active; 'I' for Inactive)
    1  A    between atoms: C_2  and  C_33
    2  A    between atoms: C_7  and  N_25
    3  A    between atoms: C_8  and  N_25
    4  A    between atoms: C_11  and  C_27
    5  A    between atoms: C_12  and  C_26
    6  A    between atoms: C_12  and  C_34
    7  A    between atoms: C_23  and  C_34
    8  A    between atoms: C_29  and  N_32
    9  A    between atoms: C_31  and  N_32
                            x       y       z     vdW  Elec       q    Type
                         _______ _______ _______ _____ _____    ______ ____

>  <TORSDO>
F 9

$$$$
