=
 OpenBabel11042415583D

 52 55  0  0  1  0  0  0  0  0999 V2000
  195.5000  175.0960  143.8600 C   0  0  0  0  0  0  0  0  0  0  0  0
  191.1020  174.4550  143.9950 C   0  0  1  0  0  3  0  0  0  0  0  0
  195.5620  173.9530  145.9570 N   0  0  0  0  0  0  0  0  0  0  0  0
  197.5670  174.3260  144.7810 N   0  0  0  0  0  0  0  0  0  0  0  0
  191.7110  176.8100  144.0390 O   0  0  0  0  0  1  0  0  0  0  0  0
  192.5590  174.1080  144.0950 C   0  0  0  0  0  0  0  0  0  0  0  0
  191.7310  175.4560  146.8100 C   0  0  0  0  0  3  0  0  0  0  0  0
  190.5740  175.9320  145.9640 C   0  0  1  0  0  3  0  0  0  0  0  0
  190.7640  175.8700  144.4560 C   0  0  2  0  0  3  0  0  0  0  0  0
  196.8880  174.9570  143.7880 C   0  0  0  0  0  3  0  0  0  0  0  0
  193.0390  173.2620  143.2880 O   0  0  0  0  0  0  0  0  0  0  0  0
  192.9190  174.9470  146.4560 C   0  0  0  0  0  3  0  0  0  0  0  0
  194.8320  174.5700  144.9850 C   0  0  0  0  0  0  0  0  0  0  0  0
  193.4020  174.6650  145.1280 N   0  0  0  0  0  0  0  0  0  0  0  0
  196.9110  173.8290  145.8610 C   0  0  0  0  0  3  0  0  0  0  0  0
  190.5380  174.1600  142.7120 O   0  0  0  0  0  0  0  0  0  0  0  0
  189.4630  171.9820  143.2630 C   0  0  0  0  0  1  0  0  0  0  0  0
  188.6050  173.4760  141.6310 O   0  0  0  0  0  0  0  0  0  0  0  0
  189.5010  173.2480  142.4850 C   0  0  0  0  0  0  0  0  0  0  0  0
  194.7800  175.8380  142.7820 C   0  0  0  0  0  2  0  0  0  0  0  0
  195.7440  176.2500  141.6820 C   0  0  0  0  0  2  0  0  0  0  0  0
  195.1260  175.9470  140.3320 C   0  0  0  0  0  2  0  0  0  0  0  0
  193.9720  175.0770  140.4960 N   0  0  0  0  0  2  0  0  0  0  0  0
  193.4140  174.3230  139.4190 C   0  0  0  0  0  0  0  0  0  0  0  0
  193.9890  174.3010  138.2970 O   0  0  0  0  0  0  0  0  0  0  0  0
  192.2340  173.6100  139.6320 O   0  0  0  0  0  0  0  0  0  0  0  0
  190.7590  171.2860  140.0080 O   0  0  0  0  0  1  0  0  0  0  0  0
  193.3270  171.2260  139.4800 O   0  0  0  0  0  0  0  0  0  0  0  0
  192.0510  171.9700  139.1500 P   0  0  2  0  0  0  0  0  0  0  0  0
  191.7610  171.9280  137.4700 O   0  0  0  0  0  0  0  0  0  0  0  0
  189.5170  173.2390  138.4890 O   0  0  0  0  0  1  0  0  0  0  0  0
  190.5020  173.0240  137.1290 P   0  0  0  0  0  0  0  0  0  0  0  0
  191.1840  174.5170  136.7180 O   0  0  0  0  0  1  0  0  0  0  0  0
  189.6660  172.5360  135.9650 O   0  0  0  0  0  0  0  0  0  0  0  0
  189.2890  175.2180  146.3600 C   0  0  0  0  0  2  0  0  0  0  0  0
  187.3110  176.1970  147.3120 N   0  0  0  0  0  0  0  0  0  0  0  0
  188.1250  176.1440  146.3100 C   0  0  0  0  0  3  0  0  0  0  0  0
  185.8630  177.6980  148.3790 O   0  0  0  0  0  0  0  0  0  0  0  0
  186.1710  177.0600  147.3370 C   0  0  0  0  0  0  0  0  0  0  0  0
  185.3590  177.2280  146.0940 C   0  0  0  0  0  2  0  0  0  0  0  0
  185.7250  179.5510  146.5230 O   0  0  0  0  0  1  0  0  0  0  0  0
  186.5780  178.6820  144.5660 O   0  0  0  0  0  0  0  0  0  0  0  0
  185.4910  178.6330  145.4990 C   0  0  1  0  0  0  0  0  0  0  0  0
  186.9830  177.5270  140.3380 N   0  0  0  0  0  0  0  0  0  0  0  0
  184.1770  178.9950  144.7990 C   0  0  0  0  0  2  0  0  0  0  0  0
  185.7840  178.0170  140.2740 C   0  0  0  0  0  3  0  0  0  0  0  0
  184.0220  178.2670  143.5780 O   0  0  0  0  0  0  0  0  0  0  0  0
  187.5140  176.7970  141.4760 C   0  0  0  0  0  2  0  0  0  0  0  0
  185.0930  178.0990  142.6970 C   0  0  0  0  0  0  0  0  0  0  0  0
  187.5440  177.6300  142.7120 C   0  0  0  0  0  3  0  0  0  0  0  0
  184.8170  178.0340  141.3890 C   0  0  0  0  0  3  0  0  0  0  0  0
  186.4550  178.1450  143.2820 C   0  0  0  0  0  0  0  0  0  0  0  0
  1 13  1  0  0  0  0
  2 16  1  6  0  0  0
  2  6  1  0  0  0  0
  2  9  1  0  0  0  0
  4 15  2  0  0  0  0
  6 14  1  0  0  0  0
  8 35  1  6  0  0  0
  8  7  1  0  0  0  0
  9  5  1  1  0  0  0
  9  8  1  0  0  0  0
 10  1  2  0  0  0  0
 10  4  1  0  0  0  0
 11  6  2  0  0  0  0
 12  7  2  0  0  0  0
 13 14  1  0  0  0  0
 13  3  2  0  0  0  0
 14 12  1  0  0  0  0
 15  3  1  0  0  0  0
 18 19  2  0  0  0  0
 19 16  1  0  0  0  0
 19 17  1  0  0  0  0
 20  1  1  0  0  0  0
 21 20  1  0  0  0  0
 22 23  1  0  0  0  0
 22 21  1  0  0  0  0
 24 26  1  0  0  0  0
 24 23  1  0  0  0  0
 25 24  2  0  0  0  0
 29 28  2  1  0  0  0
 29 26  1  0  0  0  0
 29 27  1  0  0  0  0
 30 29  1  0  0  0  0
 32 30  1  0  0  0  0
 32 31  1  0  0  0  0
 33 32  1  0  0  0  0
 34 32  2  0  0  0  0
 36 39  1  0  0  0  0
 37 35  1  0  0  0  0
 37 36  2  0  0  0  0
 39 38  2  0  0  0  0
 40 39  1  0  0  0  0
 42 43  1  0  0  0  0
 43 40  1  0  0  0  0
 43 41  1  1  0  0  0
 44 48  1  0  0  0  0
 45 43  1  0  0  0  0
 46 44  2  0  0  0  0
 46 51  1  0  0  0  0
 47 45  1  0  0  0  0
 48 50  1  0  0  0  0
 49 52  1  0  0  0  0
 49 47  1  0  0  0  0
 50 52  2  0  0  0  0
 51 49  2  0  0  0  0
 52 42  1  0  0  0  0
M  END
>  <MODEL>
1

>  <REMARK>
 VINA RESULT:      -7.6      0.000      0.000
  Name = 
  15 active torsions:
  status: ('A' for Active; 'I' for Inactive)
    1  A    between atoms: C_1  and  C_22
    2  A    between atoms: C_2  and  O_13
    3  A    between atoms: C_6  and  C_45
    4  A    between atoms: N_11  and  C_21
    5  A    between atoms: O_12  and  P_18
    6  A    between atoms: O_12  and  P_31
    7  A    between atoms: O_13  and  C_49
    8  A    between atoms: C_16  and  O_34
    9  A    between atoms: C_21  and  C_25
   10  A    between atoms: C_22  and  C_25
   11  A    between atoms: N_29  and  C_41
   12  A    between atoms: C_30  and  C_44
   13  A    between atoms: P_31  and  O_34
   14  A    between atoms: C_41  and  C_45
   15  A    between atoms: C_44  and  C_52
                            x       y       z     vdW  Elec       q    Type
                         _______ _______ _______ _____ _____    ______ ____

>  <TORSDO>
F 15

$$$$
=
 OpenBabel11042415583D

 52 55  0  0  1  0  0  0  0  0999 V2000
  195.8360  173.2000  144.3310 C   0  0  0  0  0  0  0  0  0  0  0  0
  192.7810  176.0910  145.7730 C   0  0  1  0  0  3  0  0  0  0  0  0
  196.6000  174.9680  142.9180 N   0  0  0  0  0  0  0  0  0  0  0  0
  197.9390  173.0540  143.2040 N   0  0  0  0  0  0  0  0  0  0  0  0
  191.8000  174.1690  144.6510 O   0  0  0  0  0  1  0  0  0  0  0  0
  194.1400  175.5860  145.3830 C   0  0  0  0  0  0  0  0  0  0  0  0
  192.6640  176.4320  142.7410 C   0  0  0  0  0  3  0  0  0  0  0  0
  191.4590  176.3230  143.6440 C   0  0  1  0  0  3  0  0  0  0  0  0
  191.6410  175.5290  144.9280 C   0  0  2  0  0  3  0  0  0  0  0  0
  197.0120  172.5070  144.0320 C   0  0  0  0  0  3  0  0  0  0  0  0
  195.0380  175.5140  146.2690 O   0  0  0  0  0  0  0  0  0  0  0  0
  193.9110  175.9640  142.8900 C   0  0  0  0  0  3  0  0  0  0  0  0
  195.6410  174.4690  143.7490 C   0  0  0  0  0  0  0  0  0  0  0  0
  194.4600  175.2500  144.0150 N   0  0  0  0  0  0  0  0  0  0  0  0
  197.7360  174.2740  142.6470 C   0  0  0  0  0  3  0  0  0  0  0  0
  192.5170  175.9760  147.1760 O   0  0  0  0  0  0  0  0  0  0  0  0
  190.7780  177.4740  148.1390 C   0  0  0  0  0  1  0  0  0  0  0  0
  190.5240  175.1190  147.9940 O   0  0  0  0  0  0  0  0  0  0  0  0
  191.2560  176.1180  147.7660 C   0  0  0  0  0  0  0  0  0  0  0  0
  194.8080  172.5580  145.2040 C   0  0  0  0  0  2  0  0  0  0  0  0
  195.3330  171.2530  145.7760 C   0  0  0  0  0  2  0  0  0  0  0  0
  194.4480  170.1100  145.3180 C   0  0  0  0  0  2  0  0  0  0  0  0
  193.3020  170.6300  144.5890 N   0  0  0  0  0  2  0  0  0  0  0  0
  192.5780  169.8530  143.6340 C   0  0  0  0  0  0  0  0  0  0  0  0
  192.8460  168.6310  143.4780 O   0  0  0  0  0  0  0  0  0  0  0  0
  191.5690  170.4650  142.8890 O   0  0  0  0  0  0  0  0  0  0  0  0
  192.9600  170.2980  140.4900 O   0  0  0  0  0  0  0  0  0  0  0  0
  192.5050  172.5950  141.6710 O   0  0  0  0  0  1  0  0  0  0  0  0
  191.8800  171.2460  141.3900 P   0  0  2  0  0  0  0  0  0  0  0  0
  190.4010  171.4410  140.5630 O   0  0  0  0  0  0  0  0  0  0  0  0
  190.3090  174.1900  141.0360 O   0  0  0  0  0  1  0  0  0  0  0  0
  189.5440  172.7060  141.3160 P   0  0  0  0  0  0  0  0  0  0  0  0
  187.9870  172.7690  140.6570 O   0  0  0  0  0  0  0  0  0  0  0  0
  189.4290  172.4640  142.8060 O   0  0  0  0  0  1  0  0  0  0  0  0
  190.8930  177.7010  143.9550 C   0  0  0  0  0  2  0  0  0  0  0  0
  189.2170  177.1710  142.3160 N   0  0  0  0  0  0  0  0  0  0  0  0
  189.5470  177.8780  143.3460 C   0  0  0  0  0  3  0  0  0  0  0  0
  187.5450  176.4090  140.8620 O   0  0  0  0  0  0  0  0  0  0  0  0
  187.9430  177.2850  141.6760 C   0  0  0  0  0  0  0  0  0  0  0  0
  187.0640  178.4460  142.0080 C   0  0  0  0  0  2  0  0  0  0  0  0
  184.9380  177.5360  141.4050 O   0  0  0  0  0  1  0  0  0  0  0  0
  185.7930  176.9670  143.4680 O   0  0  0  0  0  0  0  0  0  0  0  0
  185.6780  178.0070  142.4900 C   0  0  1  0  0  0  0  0  0  0  0  0
  186.6130  176.9650  147.7930 N   0  0  0  0  0  0  0  0  0  0  0  0
  184.9610  179.2200  143.0900 C   0  0  0  0  0  2  0  0  0  0  0  0
  185.8560  178.0180  147.7550 C   0  0  0  0  0  3  0  0  0  0  0  0
  185.5160  179.5760  144.3590 O   0  0  0  0  0  0  0  0  0  0  0  0
  187.5480  176.5860  146.7480 C   0  0  0  0  0  2  0  0  0  0  0  0
  185.8430  178.6000  145.3030 C   0  0  0  0  0  0  0  0  0  0  0  0
  186.8620  176.3270  145.4500 C   0  0  0  0  0  3  0  0  0  0  0  0
  185.7210  178.9220  146.5960 C   0  0  0  0  0  3  0  0  0  0  0  0
  186.1660  177.2480  144.7850 C   0  0  0  0  0  0  0  0  0  0  0  0
  1 20  1  0  0  0  0
  2 16  1  1  0  0  0
  3 13  1  0  0  0  0
  4 10  2  0  0  0  0
  6  2  1  0  0  0  0
  6 11  2  0  0  0  0
  7 12  2  0  0  0  0
  7  8  1  0  0  0  0
  8 35  1  1  0  0  0
  8  9  1  0  0  0  0
  9  5  1  6  0  0  0
  9  2  1  0  0  0  0
 10  1  1  0  0  0  0
 12 14  1  0  0  0  0
 13 14  1  0  0  0  0
 13  1  2  0  0  0  0
 14  6  1  0  0  0  0
 15  3  2  0  0  0  0
 15  4  1  0  0  0  0
 16 19  1  0  0  0  0
 19 18  2  0  0  0  0
 19 17  1  0  0  0  0
 20 21  1  0  0  0  0
 22 21  1  0  0  0  0
 23 22  1  0  0  0  0
 24 23  1  0  0  0  0
 25 24  2  0  0  0  0
 26 24  1  0  0  0  0
 29 27  2  6  0  0  0
 29 28  1  0  0  0  0
 29 26  1  0  0  0  0
 30 32  1  0  0  0  0
 30 29  1  0  0  0  0
 31 32  1  0  0  0  0
 32 34  1  0  0  0  0
 33 32  2  0  0  0  0
 36 37  2  0  0  0  0
 37 35  1  0  0  0  0
 38 39  2  0  0  0  0
 39 40  1  0  0  0  0
 39 36  1  0  0  0  0
 40 43  1  0  0  0  0
 42 52  1  0  0  0  0
 43 41  1  6  0  0  0
 43 45  1  0  0  0  0
 43 42  1  0  0  0  0
 45 47  1  0  0  0  0
 46 44  2  0  0  0  0
 47 49  1  0  0  0  0
 48 44  1  0  0  0  0
 49 51  2  0  0  0  0
 50 48  1  0  0  0  0
 51 46  1  0  0  0  0
 52 49  1  0  0  0  0
 52 50  2  0  0  0  0
M  END
>  <MODEL>
2

>  <REMARK>
 VINA RESULT:      -7.5      2.377      4.633
  Name = 
  15 active torsions:
  status: ('A' for Active; 'I' for Inactive)
    1  A    between atoms: C_1  and  C_22
    2  A    between atoms: C_2  and  O_13
    3  A    between atoms: C_6  and  C_45
    4  A    between atoms: N_11  and  C_21
    5  A    between atoms: O_12  and  P_18
    6  A    between atoms: O_12  and  P_31
    7  A    between atoms: O_13  and  C_49
    8  A    between atoms: C_16  and  O_34
    9  A    between atoms: C_21  and  C_25
   10  A    between atoms: C_22  and  C_25
   11  A    between atoms: N_29  and  C_41
   12  A    between atoms: C_30  and  C_44
   13  A    between atoms: P_31  and  O_34
   14  A    between atoms: C_41  and  C_45
   15  A    between atoms: C_44  and  C_52
                            x       y       z     vdW  Elec       q    Type
                         _______ _______ _______ _____ _____    ______ ____

>  <TORSDO>
F 15

$$$$
=
 OpenBabel11042415583D

 52 55  0  0  1  0  0  0  0  0999 V2000
  194.7470  175.6150  141.9420 C   0  0  0  0  0  0  0  0  0  0  0  0
  191.2900  174.0160  144.2370 C   0  0  1  0  0  3  0  0  0  0  0  0
  195.5130  176.4900  144.0290 N   0  0  0  0  0  0  0  0  0  0  0  0
  196.9750  176.4450  142.1850 N   0  0  0  0  0  0  0  0  0  0  0  0
  190.6310  175.6560  142.5640 O   0  0  0  0  0  1  0  0  0  0  0  0
  192.7260  174.3150  143.9170 C   0  0  0  0  0  0  0  0  0  0  0  0
  191.5120  176.8880  145.2510 C   0  0  0  0  0  3  0  0  0  0  0  0
  190.2200  176.2070  144.8660 C   0  0  1  0  0  3  0  0  0  0  0  0
  190.3160  175.1130  143.8130 C   0  0  2  0  0  3  0  0  0  0  0  0
  196.0080  175.8920  141.4080 C   0  0  0  0  0  3  0  0  0  0  0  0
  193.5120  173.3500  143.7000 O   0  0  0  0  0  0  0  0  0  0  0  0
  192.7680  176.6730  144.8390 C   0  0  0  0  0  3  0  0  0  0  0  0
  194.5100  175.9280  143.2960 C   0  0  0  0  0  0  0  0  0  0  0  0
  193.2390  175.6650  143.9220 N   0  0  0  0  0  0  0  0  0  0  0  0
  196.7310  176.7450  143.4850 C   0  0  0  0  0  3  0  0  0  0  0  0
  190.8690  172.7230  143.7890 O   0  0  0  0  0  0  0  0  0  0  0  0
  188.7950  172.2150  142.5070 C   0  0  0  0  0  1  0  0  0  0  0  0
  190.9280  172.4300  141.4890 O   0  0  0  0  0  0  0  0  0  0  0  0
  190.2590  172.4640  142.5550 C   0  0  0  0  0  0  0  0  0  0  0  0
  193.6820  175.0550  141.0560 C   0  0  0  0  0  2  0  0  0  0  0  0
  194.2990  174.3100  139.8850 C   0  0  0  0  0  2  0  0  0  0  0  0
  193.9680  175.0350  138.5960 C   0  0  0  0  0  2  0  0  0  0  0  0
  193.1570  174.1850  137.7400 N   0  0  0  0  0  2  0  0  0  0  0  0
  192.3650  174.6990  136.6680 C   0  0  0  0  0  0  0  0  0  0  0  0
  192.4380  175.9190  136.3560 O   0  0  0  0  0  0  0  0  0  0  0  0
  191.5210  173.8320  135.9740 O   0  0  0  0  0  0  0  0  0  0  0  0
  188.9230  174.5580  135.3090 O   0  0  0  0  0  0  0  0  0  0  0  0
  189.6530  174.1450  137.7940 O   0  0  0  0  0  1  0  0  0  0  0  0
  189.8620  173.6410  136.3820 P   0  0  2  0  0  0  0  0  0  0  0  0
  189.4660  171.9860  136.2820 O   0  0  0  0  0  0  0  0  0  0  0  0
  188.7840  171.8720  138.9860 O   0  0  0  0  0  1  0  0  0  0  0  0
  189.8180  171.2710  137.7870 P   0  0  0  0  0  0  0  0  0  0  0  0
  189.5810  169.6010  137.6590 O   0  0  0  0  0  0  0  0  0  0  0  0
  191.2570  171.5280  138.1790 O   0  0  0  0  0  1  0  0  0  0  0  0
  189.4990  175.6840  146.1000 C   0  0  0  0  0  2  0  0  0  0  0  0
  187.5850  176.7020  147.1410 N   0  0  0  0  0  0  0  0  0  0  0  0
  188.0710  176.1040  146.1030 C   0  0  0  0  0  3  0  0  0  0  0  0
  185.7030  177.4410  148.3230 O   0  0  0  0  0  0  0  0  0  0  0  0
  186.2240  177.1330  147.2180 C   0  0  0  0  0  0  0  0  0  0  0  0
  185.4250  177.2490  145.9610 C   0  0  0  0  0  2  0  0  0  0  0  0
  185.7360  179.5850  146.3540 O   0  0  0  0  0  1  0  0  0  0  0  0
  186.5780  178.7140  144.3920 O   0  0  0  0  0  0  0  0  0  0  0  0
  185.5100  178.6480  145.3450 C   0  0  1  0  0  0  0  0  0  0  0  0
  186.9400  177.5150  140.1730 N   0  0  0  0  0  0  0  0  0  0  0  0
  184.1750  178.9660  144.6650 C   0  0  0  0  0  2  0  0  0  0  0  0
  185.7270  177.9730  140.1250 C   0  0  0  0  0  3  0  0  0  0  0  0
  184.0170  178.2190  143.4550 O   0  0  0  0  0  0  0  0  0  0  0  0
  187.5100  176.8140  141.3110 C   0  0  0  0  0  2  0  0  0  0  0  0
  185.0770  178.0680  142.5580 C   0  0  0  0  0  0  0  0  0  0  0  0
  187.5400  177.6650  142.5350 C   0  0  0  0  0  3  0  0  0  0  0  0
  184.7790  177.9780  141.2560 C   0  0  0  0  0  3  0  0  0  0  0  0
  186.4470  178.1580  143.1180 C   0  0  0  0  0  0  0  0  0  0  0  0
  1 13  1  0  0  0  0
  2 16  1  6  0  0  0
  4 15  2  0  0  0  0
  6 14  1  0  0  0  0
  6  2  1  0  0  0  0
  8  7  1  0  0  0  0
  8 35  1  1  0  0  0
  9  5  1  6  0  0  0
  9  2  1  0  0  0  0
  9  8  1  0  0  0  0
 10  1  2  0  0  0  0
 10  4  1  0  0  0  0
 11  6  2  0  0  0  0
 12  7  2  0  0  0  0
 13 14  1  0  0  0  0
 13  3  2  0  0  0  0
 14 12  1  0  0  0  0
 15  3  1  0  0  0  0
 17 19  1  0  0  0  0
 18 19  2  0  0  0  0
 19 16  1  0  0  0  0
 20  1  1  0  0  0  0
 21 20  1  0  0  0  0
 22 21  1  0  0  0  0
 23 22  1  0  0  0  0
 24 23  1  0  0  0  0
 25 24  2  0  0  0  0
 26 29  1  0  0  0  0
 26 24  1  0  0  0  0
 29 27  2  6  0  0  0
 29 28  1  0  0  0  0
 30 29  1  0  0  0  0
 30 32  1  0  0  0  0
 32 34  1  0  0  0  0
 32 31  1  0  0  0  0
 33 32  2  0  0  0  0
 35 37  1  0  0  0  0
 36 39  1  0  0  0  0
 37 36  2  0  0  0  0
 39 38  2  0  0  0  0
 40 39  1  0  0  0  0
 42 43  1  0  0  0  0
 43 40  1  0  0  0  0
 43 41  1  1  0  0  0
 44 48  1  0  0  0  0
 45 43  1  0  0  0  0
 46 44  2  0  0  0  0
 46 51  1  0  0  0  0
 47 45  1  0  0  0  0
 48 50  1  0  0  0  0
 49 52  1  0  0  0  0
 49 47  1  0  0  0  0
 50 52  2  0  0  0  0
 51 49  2  0  0  0  0
 52 42  1  0  0  0  0
M  END
>  <MODEL>
3

>  <REMARK>
 VINA RESULT:      -7.5      1.557      2.286
  Name = 
  15 active torsions:
  status: ('A' for Active; 'I' for Inactive)
    1  A    between atoms: C_1  and  C_22
    2  A    between atoms: C_2  and  O_13
    3  A    between atoms: C_6  and  C_45
    4  A    between atoms: N_11  and  C_21
    5  A    between atoms: O_12  and  P_18
    6  A    between atoms: O_12  and  P_31
    7  A    between atoms: O_13  and  C_49
    8  A    between atoms: C_16  and  O_34
    9  A    between atoms: C_21  and  C_25
   10  A    between atoms: C_22  and  C_25
   11  A    between atoms: N_29  and  C_41
   12  A    between atoms: C_30  and  C_44
   13  A    between atoms: P_31  and  O_34
   14  A    between atoms: C_41  and  C_45
   15  A    between atoms: C_44  and  C_52
                            x       y       z     vdW  Elec       q    Type
                         _______ _______ _______ _____ _____    ______ ____

>  <TORSDO>
F 15

$$$$
=
 OpenBabel11042415583D

 52 55  0  0  1  0  0  0  0  0999 V2000
  190.4250  176.5920  145.5620 C   0  0  0  0  0  0  0  0  0  0  0  0
  194.1380  174.2850  144.7420 C   0  0  1  0  0  3  0  0  0  0  0  0
  189.5980  174.5830  146.5560 N   0  0  0  0  0  0  0  0  0  0  0  0
  188.4520  176.6090  146.9100 N   0  0  0  0  0  0  0  0  0  0  0  0
  193.0170  175.0160  142.7100 O   0  0  0  0  0  1  0  0  0  0  0  0
  192.9760  174.8110  145.5340 C   0  0  0  0  0  0  0  0  0  0  0  0
  191.9340  172.3660  143.8570 C   0  0  0  0  0  3  0  0  0  0  0  0
  193.1960  172.6490  143.0770 C   0  0  1  0  0  3  0  0  0  0  0  0
  193.8220  174.0220  143.2720 C   0  0  2  0  0  3  0  0  0  0  0  0
  189.3550  177.2750  146.1440 C   0  0  0  0  0  3  0  0  0  0  0  0
  193.2060  175.5540  146.5290 O   0  0  0  0  0  0  0  0  0  0  0  0
  191.2660  173.1210  144.7390 C   0  0  0  0  0  3  0  0  0  0  0  0
  190.5360  175.2040  145.7860 C   0  0  0  0  0  0  0  0  0  0  0  0
  191.6160  174.4310  145.2280 N   0  0  0  0  0  0  0  0  0  0  0  0
  188.5680  175.2730  147.1140 C   0  0  0  0  0  3  0  0  0  0  0  0
  195.3290  175.0640  144.9030 O   0  0  0  0  0  0  0  0  0  0  0  0
  197.0890  173.5630  145.8260 C   0  0  0  0  0  1  0  0  0  0  0  0
  197.4240  174.9350  143.9190 O   0  0  0  0  0  0  0  0  0  0  0  0
  196.6320  174.5580  144.8210 C   0  0  0  0  0  0  0  0  0  0  0  0
  191.3780  177.3340  144.6820 C   0  0  0  0  0  2  0  0  0  0  0  0
  190.6250  178.1040  143.6100 C   0  0  0  0  0  2  0  0  0  0  0  0
  190.0240  177.1270  142.6180 C   0  0  0  0  0  2  0  0  0  0  0  0
  188.5850  177.3190  142.5410 N   0  0  0  0  0  2  0  0  0  0  0  0
  187.6500  176.3110  142.9280 C   0  0  0  0  0  0  0  0  0  0  0  0
  188.0540  175.2450  143.4670 O   0  0  0  0  0  0  0  0  0  0  0  0
  186.2890  176.5280  142.7060 O   0  0  0  0  0  0  0  0  0  0  0  0
  183.8970  177.9250  142.9140 O   0  0  0  0  0  1  0  0  0  0  0  0
  185.9300  178.8550  141.5430 O   0  0  0  0  0  0  0  0  0  0  0  0
  185.5800  178.0910  142.8010 P   0  0  2  0  0  0  0  0  0  0  0  0
  186.2100  178.8890  144.1710 O   0  0  0  0  0  0  0  0  0  0  0  0
  185.3090  176.7170  145.6740 O   0  0  0  0  0  1  0  0  0  0  0  0
  185.2980  178.4040  145.5250 P   0  0  0  0  0  0  0  0  0  0  0  0
  185.9970  179.0720  146.9130 O   0  0  0  0  0  1  0  0  0  0  0  0
  183.8710  178.8970  145.4160 O   0  0  0  0  0  0  0  0  0  0  0  0
  194.2320  171.5610  143.3170 C   0  0  0  0  0  2  0  0  0  0  0  0
  193.6180  170.7520  141.1370 N   0  0  0  0  0  0  0  0  0  0  0  0
  194.1230  170.4830  142.2960 C   0  0  0  0  0  3  0  0  0  0  0  0
  193.8070  168.5690  140.3090 O   0  0  0  0  0  0  0  0  0  0  0  0
  193.4800  169.7700  140.1080 C   0  0  0  0  0  0  0  0  0  0  0  0
  192.9080  170.1740  138.7880 C   0  0  0  0  0  2  0  0  0  0  0  0
  191.3650  168.3510  138.7070 O   0  0  0  0  0  1  0  0  0  0  0  0
  190.6390  170.3190  139.6620 O   0  0  0  0  0  0  0  0  0  0  0  0
  191.4480  169.7420  138.6310 C   0  0  1  0  0  0  0  0  0  0  0  0
  188.7640  174.2690  140.1770 N   0  0  0  0  0  0  0  0  0  0  0  0
  190.9490  170.1930  137.2540 C   0  0  0  0  0  2  0  0  0  0  0  0
  188.5520  174.1350  138.9040 C   0  0  0  0  0  3  0  0  0  0  0  0
  190.7500  171.6080  137.2120 O   0  0  0  0  0  0  0  0  0  0  0  0
  189.9490  173.7900  140.8680 C   0  0  0  0  0  2  0  0  0  0  0  0
  190.1410  172.2830  138.2720 C   0  0  0  0  0  0  0  0  0  0  0  0
  190.0980  172.3110  140.7670 C   0  0  0  0  0  3  0  0  0  0  0  0
  189.4070  173.3640  137.9810 C   0  0  0  0  0  3  0  0  0  0  0  0
  190.2510  171.6600  139.6140 C   0  0  0  0  0  0  0  0  0  0  0  0
  1 13  2  0  0  0  0
  1 10  1  0  0  0  0
  2 16  1  6  0  0  0
  2  6  1  0  0  0  0
  3 15  2  0  0  0  0
  4 15  1  0  0  0  0
  6 11  2  0  0  0  0
  7 12  2  0  0  0  0
  8  9  1  0  0  0  0
  8 35  1  1  0  0  0
  8  7  1  0  0  0  0
  9  5  1  1  0  0  0
  9  2  1  0  0  0  0
 10  4  2  0  0  0  0
 12 14  1  0  0  0  0
 13  3  1  0  0  0  0
 14  6  1  0  0  0  0
 14 13  1  0  0  0  0
 18 19  2  0  0  0  0
 19 16  1  0  0  0  0
 19 17  1  0  0  0  0
 20  1  1  0  0  0  0
 21 20  1  0  0  0  0
 22 21  1  0  0  0  0
 23 22  1  0  0  0  0
 23 24  1  0  0  0  0
 24 25  2  0  0  0  0
 26 29  1  0  0  0  0
 26 24  1  0  0  0  0
 29 28  2  6  0  0  0
 29 27  1  0  0  0  0
 29 30  1  0  0  0  0
 30 32  1  0  0  0  0
 32 31  1  0  0  0  0
 32 33  1  0  0  0  0
 34 32  2  0  0  0  0
 36 37  2  0  0  0  0
 37 35  1  0  0  0  0
 39 38  2  0  0  0  0
 39 36  1  0  0  0  0
 40 39  1  0  0  0  0
 43 41  1  1  0  0  0
 43 40  1  0  0  0  0
 43 42  1  0  0  0  0
 44 48  1  0  0  0  0
 45 43  1  0  0  0  0
 46 44  2  0  0  0  0
 47 45  1  0  0  0  0
 47 49  1  0  0  0  0
 49 52  1  0  0  0  0
 50 48  1  0  0  0  0
 51 49  2  0  0  0  0
 51 46  1  0  0  0  0
 52 42  1  0  0  0  0
 52 50  2  0  0  0  0
M  END
>  <MODEL>
4

>  <REMARK>
 VINA RESULT:      -7.3      3.368      8.520
  Name = 
  15 active torsions:
  status: ('A' for Active; 'I' for Inactive)
    1  A    between atoms: C_1  and  C_22
    2  A    between atoms: C_2  and  O_13
    3  A    between atoms: C_6  and  C_45
    4  A    between atoms: N_11  and  C_21
    5  A    between atoms: O_12  and  P_18
    6  A    between atoms: O_12  and  P_31
    7  A    between atoms: O_13  and  C_49
    8  A    between atoms: C_16  and  O_34
    9  A    between atoms: C_21  and  C_25
   10  A    between atoms: C_22  and  C_25
   11  A    between atoms: N_29  and  C_41
   12  A    between atoms: C_30  and  C_44
   13  A    between atoms: P_31  and  O_34
   14  A    between atoms: C_41  and  C_45
   15  A    between atoms: C_44  and  C_52
                            x       y       z     vdW  Elec       q    Type
                         _______ _______ _______ _____ _____    ______ ____

>  <TORSDO>
F 15

$$$$
=
 OpenBabel11042415583D

 52 55  0  0  1  0  0  0  0  0999 V2000
  195.2240  171.6670  143.4930 C   0  0  0  0  0  0  0  0  0  0  0  0
  191.6760  172.0050  140.8330 C   0  0  1  0  0  3  0  0  0  0  0  0
  193.8260  170.3490  144.9120 N   0  0  0  0  0  0  0  0  0  0  0  0
  196.1510  170.3770  145.2790 N   0  0  0  0  0  0  0  0  0  0  0  0
  192.3900  174.1520  141.7260 O   0  0  0  0  0  1  0  0  0  0  0  0
  192.6970  171.3370  141.7090 C   0  0  0  0  0  0  0  0  0  0  0  0
  190.5130  172.5760  143.5980 C   0  0  0  0  0  3  0  0  0  0  0  0
  190.2060  173.3720  142.3520 C   0  0  1  0  0  3  0  0  0  0  0  0
  191.2910  173.4110  141.2860 C   0  0  2  0  0  3  0  0  0  0  0  0
  196.3230  171.2320  144.2380 C   0  0  0  0  0  3  0  0  0  0  0  0
  193.4740  170.4850  141.1940 O   0  0  0  0  0  0  0  0  0  0  0  0
  191.5910  171.8520  143.9270 C   0  0  0  0  0  3  0  0  0  0  0  0
  193.9440  171.2000  143.8530 C   0  0  0  0  0  0  0  0  0  0  0  0
  192.7630  171.5950  143.1290 N   0  0  0  0  0  0  0  0  0  0  0  0
  194.9120  169.9390  145.6180 C   0  0  0  0  0  3  0  0  0  0  0  0
  192.0120  171.9620  139.4420 O   0  0  0  0  0  0  0  0  0  0  0  0
  190.1070  171.4280  137.9300 C   0  0  0  0  0  1  0  0  0  0  0  0
  192.0170  170.0370  138.1510 O   0  0  0  0  0  0  0  0  0  0  0  0
  191.4360  171.0950  138.5070 C   0  0  0  0  0  0  0  0  0  0  0  0
  195.4320  172.6470  142.3840 C   0  0  0  0  0  2  0  0  0  0  0  0
  196.8080  173.2820  142.4830 C   0  0  0  0  0  2  0  0  0  0  0  0
  196.6600  174.7530  142.8160 C   0  0  0  0  0  2  0  0  0  0  0  0
  195.2590  175.0780  143.0270 N   0  0  0  0  0  2  0  0  0  0  0  0
  194.8300  176.0940  143.9340 C   0  0  0  0  0  0  0  0  0  0  0  0
  195.6790  176.8330  144.5050 O   0  0  0  0  0  0  0  0  0  0  0  0
  193.4650  176.2590  144.1710 O   0  0  0  0  0  0  0  0  0  0  0  0
  193.4140  174.1390  145.9650 O   0  0  0  0  0  1  0  0  0  0  0  0
  191.2280  175.3940  145.2410 O   0  0  0  0  0  0  0  0  0  0  0  0
  192.6900  175.6180  145.5640 P   0  0  2  0  0  0  0  0  0  0  0  0
  192.8470  176.7420  146.8370 O   0  0  0  0  0  0  0  0  0  0  0  0
  191.6390  177.5290  149.2270 O   0  0  0  0  0  1  0  0  0  0  0  0
  191.4400  176.6510  147.7920 P   0  0  0  0  0  0  0  0  0  0  0  0
  190.1540  177.3250  146.9230 O   0  0  0  0  0  0  0  0  0  0  0  0
  191.1030  175.2120  148.1170 O   0  0  0  0  0  1  0  0  0  0  0  0
  188.8850  172.9270  141.7410 C   0  0  0  0  0  2  0  0  0  0  0  0
  188.1940  175.0900  140.9530 N   0  0  0  0  0  0  0  0  0  0  0  0
  187.9180  174.0560  141.6760 C   0  0  0  0  0  3  0  0  0  0  0  0
  187.0510  176.7210  139.7190 O   0  0  0  0  0  0  0  0  0  0  0  0
  187.3160  176.2120  140.8420 C   0  0  0  0  0  0  0  0  0  0  0  0
  186.6800  176.7640  142.0760 C   0  0  0  0  0  2  0  0  0  0  0  0
  188.4370  178.3770  141.9330 O   0  0  0  0  0  1  0  0  0  0  0  0
  186.8560  178.6690  143.5850 O   0  0  0  0  0  0  0  0  0  0  0  0
  187.6130  177.7080  142.8390 C   0  0  1  0  0  0  0  0  0  0  0  0
  184.8160  178.5410  147.4830 N   0  0  0  0  0  0  0  0  0  0  0  0
  188.4870  176.8760  143.7830 C   0  0  0  0  0  2  0  0  0  0  0  0
  185.8630  177.8460  147.8070 C   0  0  0  0  0  3  0  0  0  0  0  0
  187.7320  176.3900  144.8960 O   0  0  0  0  0  0  0  0  0  0  0  0
  184.1720  178.5000  146.1820 C   0  0  0  0  0  2  0  0  0  0  0  0
  186.8180  177.2110  145.5620 C   0  0  0  0  0  0  0  0  0  0  0  0
  185.0850  178.9440  145.0900 C   0  0  0  0  0  3  0  0  0  0  0  0
  186.6460  177.0110  146.8740 C   0  0  0  0  0  3  0  0  0  0  0  0
  186.2230  178.3220  144.7800 C   0  0  0  0  0  0  0  0  0  0  0  0
  1 13  2  0  0  0  0
  1 10  1  0  0  0  0
  2 16  1  6  0  0  0
  2  9  1  0  0  0  0
  2  6  1  0  0  0  0
  3 15  2  0  0  0  0
  4 15  1  0  0  0  0
  6 14  1  0  0  0  0
  7 12  2  0  0  0  0
  8 35  1  6  0  0  0
  8  7  1  0  0  0  0
  9  5  1  1  0  0  0
  9  8  1  0  0  0  0
 10  4  2  0  0  0  0
 11  6  2  0  0  0  0
 13  3  1  0  0  0  0
 14 13  1  0  0  0  0
 14 12  1  0  0  0  0
 17 19  1  0  0  0  0
 18 19  2  0  0  0  0
 19 16  1  0  0  0  0
 20 21  1  0  0  0  0
 20  1  1  0  0  0  0
 21 22  1  0  0  0  0
 22 23  1  0  0  0  0
 23 24  1  0  0  0  0
 24 26  1  0  0  0  0
 24 25  2  0  0  0  0
 26 29  1  0  0  0  0
 29 28  2  6  0  0  0
 29 27  1  0  0  0  0
 29 30  1  0  0  0  0
 30 32  1  0  0  0  0
 32 34  1  0  0  0  0
 32 31  1  0  0  0  0
 33 32  2  0  0  0  0
 36 37  2  0  0  0  0
 37 35  1  0  0  0  0
 38 39  2  0  0  0  0
 39 36  1  0  0  0  0
 39 40  1  0  0  0  0
 40 43  1  0  0  0  0
 42 52  1  0  0  0  0
 43 41  1  6  0  0  0
 43 42  1  0  0  0  0
 43 45  1  0  0  0  0
 44 46  2  0  0  0  0
 45 47  1  0  0  0  0
 47 49  1  0  0  0  0
 48 44  1  0  0  0  0
 49 51  2  0  0  0  0
 50 48  1  0  0  0  0
 51 46  1  0  0  0  0
 52 50  2  0  0  0  0
 52 49  1  0  0  0  0
M  END
>  <MODEL>
5

>  <REMARK>
 VINA RESULT:      -7.2      3.173      5.927
  Name = 
  15 active torsions:
  status: ('A' for Active; 'I' for Inactive)
    1  A    between atoms: C_1  and  C_22
    2  A    between atoms: C_2  and  O_13
    3  A    between atoms: C_6  and  C_45
    4  A    between atoms: N_11  and  C_21
    5  A    between atoms: O_12  and  P_18
    6  A    between atoms: O_12  and  P_31
    7  A    between atoms: O_13  and  C_49
    8  A    between atoms: C_16  and  O_34
    9  A    between atoms: C_21  and  C_25
   10  A    between atoms: C_22  and  C_25
   11  A    between atoms: N_29  and  C_41
   12  A    between atoms: C_30  and  C_44
   13  A    between atoms: P_31  and  O_34
   14  A    between atoms: C_41  and  C_45
   15  A    between atoms: C_44  and  C_52
                            x       y       z     vdW  Elec       q    Type
                         _______ _______ _______ _____ _____    ______ ____

>  <TORSDO>
F 15

$$$$
=
 OpenBabel11042415583D

 52 55  0  0  1  0  0  0  0  0999 V2000
  188.8560  174.1740  140.8810 C   0  0  0  0  0  0  0  0  0  0  0  0
  191.1030  175.3690  144.5270 C   0  0  1  0  0  3  0  0  0  0  0  0
  190.8000  172.9130  140.3000 N   0  0  0  0  0  0  0  0  0  0  0  0
  188.7900  172.5460  139.1320 N   0  0  0  0  0  0  0  0  0  0  0  0
  190.5790  177.2570  143.0850 O   0  0  0  0  0  1  0  0  0  0  0  0
  190.5510  174.4520  143.4750 C   0  0  0  0  0  0  0  0  0  0  0  0
  193.1590  175.7570  142.3030 C   0  0  0  0  0  3  0  0  0  0  0  0
  192.9010  176.7400  143.4200 C   0  0  1  0  0  3  0  0  0  0  0  0
  191.4980  176.7490  144.0070 C   0  0  2  0  0  3  0  0  0  0  0  0
  188.1620  173.4900  139.8800 C   0  0  0  0  0  3  0  0  0  0  0  0
  189.7210  173.5640  143.8180 O   0  0  0  0  0  0  0  0  0  0  0  0
  192.3540  174.8440  141.7410 C   0  0  0  0  0  3  0  0  0  0  0  0
  190.2160  173.8620  141.0850 C   0  0  0  0  0  0  0  0  0  0  0  0
  190.9980  174.5170  142.1020 N   0  0  0  0  0  0  0  0  0  0  0  0
  190.1010  172.2600  139.3360 C   0  0  0  0  0  3  0  0  0  0  0  0
  190.2770  175.4520  145.6930 O   0  0  0  0  0  0  0  0  0  0  0  0
  191.9480  175.3540  147.5370 C   0  0  0  0  0  1  0  0  0  0  0  0
  190.0510  176.7790  147.5810 O   0  0  0  0  0  0  0  0  0  0  0  0
  190.7040  175.9100  146.9450 C   0  0  0  0  0  0  0  0  0  0  0  0
  188.1590  175.2430  141.6570 C   0  0  0  0  0  2  0  0  0  0  0  0
  187.3320  176.1210  140.7340 C   0  0  0  0  0  2  0  0  0  0  0  0
  187.7730  177.5630  140.8830 C   0  0  0  0  0  2  0  0  0  0  0  0
  187.1530  178.1550  142.0570 N   0  0  0  0  0  2  0  0  0  0  0  0
  185.8110  178.6460  142.0570 C   0  0  0  0  0  0  0  0  0  0  0  0
  185.0730  178.4710  141.0490 O   0  0  0  0  0  0  0  0  0  0  0  0
  185.3340  179.3110  143.1870 O   0  0  0  0  0  0  0  0  0  0  0  0
  185.3110  176.8540  144.4820 O   0  0  0  0  0  0  0  0  0  0  0  0
  183.7540  178.8270  145.2280 O   0  0  0  0  0  1  0  0  0  0  0  0
  185.1410  178.5260  144.7030 P   0  0  2  0  0  0  0  0  0  0  0  0
  186.3220  179.1240  145.7780 O   0  0  0  0  0  0  0  0  0  0  0  0
  186.6720  176.7300  147.1690 O   0  0  0  0  0  0  0  0  0  0  0  0
  186.1220  178.3290  147.2710 P   0  0  0  0  0  0  0  0  0  0  0  0
  187.0370  179.1400  148.4400 O   0  0  0  0  0  1  0  0  0  0  0  0
  184.6700  178.3430  147.6970 O   0  0  0  0  0  1  0  0  0  0  0  0
  193.9320  176.5770  144.5280 C   0  0  0  0  0  2  0  0  0  0  0  0
  195.7940  175.0560  144.5520 N   0  0  0  0  0  0  0  0  0  0  0  0
  195.2230  176.0680  143.9870 C   0  0  0  0  0  3  0  0  0  0  0  0
  197.9110  175.2510  143.5670 O   0  0  0  0  0  0  0  0  0  0  0  0
  197.0330  174.5120  144.0910 C   0  0  0  0  0  0  0  0  0  0  0  0
  197.2980  173.0520  144.2660 C   0  0  0  0  0  2  0  0  0  0  0  0
  197.1050  173.2290  146.6420 O   0  0  0  0  0  1  0  0  0  0  0  0
  195.2310  172.5780  145.4660 O   0  0  0  0  0  0  0  0  0  0  0  0
  196.6600  172.4950  145.5410 C   0  0  1  0  0  0  0  0  0  0  0  0
  192.1550  170.0640  143.5720 N   0  0  0  0  0  0  0  0  0  0  0  0
  197.0960  171.0360  145.7100 C   0  0  0  0  0  2  0  0  0  0  0  0
  192.9310  169.1120  143.9890 C   0  0  0  0  0  3  0  0  0  0  0  0
  196.4420  170.1860  144.7650 O   0  0  0  0  0  0  0  0  0  0  0  0
  192.6210  171.3520  143.0870 C   0  0  0  0  0  2  0  0  0  0  0  0
  195.0810  170.3310  144.4850 C   0  0  0  0  0  0  0  0  0  0  0  0
  193.3650  172.1080  144.1350 C   0  0  0  0  0  3  0  0  0  0  0  0
  194.3920  169.2280  144.1680 C   0  0  0  0  0  3  0  0  0  0  0  0
  194.4930  171.6760  144.6970 C   0  0  0  0  0  0  0  0  0  0  0  0
  1 13  1  0  0  0  0
  1 20  1  0  0  0  0
  2 16  1  1  0  0  0
  3 13  2  0  0  0  0
  4 15  2  0  0  0  0
  4 10  1  0  0  0  0
  6 11  2  0  0  0  0
  6  2  1  0  0  0  0
  7  8  1  0  0  0  0
  8  9  1  0  0  0  0
  8 35  1  1  0  0  0
  9  5  1  6  0  0  0
  9  2  1  0  0  0  0
 10  1  2  0  0  0  0
 12 14  1  0  0  0  0
 12  7  2  0  0  0  0
 13 14  1  0  0  0  0
 14  6  1  0  0  0  0
 15  3  1  0  0  0  0
 16 19  1  0  0  0  0
 19 17  1  0  0  0  0
 19 18  2  0  0  0  0
 21 22  1  0  0  0  0
 21 20  1  0  0  0  0
 22 23  1  0  0  0  0
 23 24  1  0  0  0  0
 24 26  1  0  0  0  0
 25 24  2  0  0  0  0
 26 29  1  0  0  0  0
 29 27  2  6  0  0  0
 29 28  1  0  0  0  0
 29 30  1  0  0  0  0
 30 32  1  0  0  0  0
 31 32  2  0  0  0  0
 32 34  1  0  0  0  0
 32 33  1  0  0  0  0
 37 35  1  0  0  0  0
 37 36  2  0  0  0  0
 38 39  2  0  0  0  0
 39 40  1  0  0  0  0
 39 36  1  0  0  0  0
 40 43  1  0  0  0  0
 42 43  1  0  0  0  0
 43 45  1  0  0  0  0
 43 41  1  1  0  0  0
 44 46  2  0  0  0  0
 46 51  1  0  0  0  0
 47 45  1  0  0  0  0
 48 44  1  0  0  0  0
 48 50  1  0  0  0  0
 49 52  1  0  0  0  0
 49 47  1  0  0  0  0
 50 52  2  0  0  0  0
 51 49  2  0  0  0  0
 52 42  1  0  0  0  0
M  END
>  <MODEL>
6

>  <REMARK>
 VINA RESULT:      -7.1      3.853      9.477
  Name = 
  15 active torsions:
  status: ('A' for Active; 'I' for Inactive)
    1  A    between atoms: C_1  and  C_22
    2  A    between atoms: C_2  and  O_13
    3  A    between atoms: C_6  and  C_45
    4  A    between atoms: N_11  and  C_21
    5  A    between atoms: O_12  and  P_18
    6  A    between atoms: O_12  and  P_31
    7  A    between atoms: O_13  and  C_49
    8  A    between atoms: C_16  and  O_34
    9  A    between atoms: C_21  and  C_25
   10  A    between atoms: C_22  and  C_25
   11  A    between atoms: N_29  and  C_41
   12  A    between atoms: C_30  and  C_44
   13  A    between atoms: P_31  and  O_34
   14  A    between atoms: C_41  and  C_45
   15  A    between atoms: C_44  and  C_52
                            x       y       z     vdW  Elec       q    Type
                         _______ _______ _______ _____ _____    ______ ____

>  <TORSDO>
F 15

$$$$
=
 OpenBabel11042415583D

 52 55  0  0  1  0  0  0  0  0999 V2000
  190.0460  176.2020  143.4080 C   0  0  0  0  0  0  0  0  0  0  0  0
  192.0640  172.8740  141.2580 C   0  0  1  0  0  3  0  0  0  0  0  0
  191.3900  175.5820  145.2840 N   0  0  0  0  0  0  0  0  0  0  0  0
  190.2390  177.6360  145.3110 N   0  0  0  0  0  0  0  0  0  0  0  0
  189.6680  172.5250  141.4930 O   0  0  0  0  0  1  0  0  0  0  0  0
  191.9400  174.0950  142.1220 C   0  0  0  0  0  0  0  0  0  0  0  0
  191.3160  171.6030  143.9320 C   0  0  0  0  0  3  0  0  0  0  0  0
  191.1200  170.9530  142.5830 C   0  0  1  0  0  3  0  0  0  0  0  0
  190.9080  171.8870  141.4020 C   0  0  2  0  0  3  0  0  0  0  0  0
  189.7250  177.3850  144.0790 C   0  0  0  0  0  3  0  0  0  0  0  0
  192.4680  175.1730  141.7290 O   0  0  0  0  0  0  0  0  0  0  0  0
  191.3670  172.8970  144.2770 C   0  0  0  0  0  3  0  0  0  0  0  0
  190.9080  175.2850  144.0430 C   0  0  0  0  0  0  0  0  0  0  0  0
  191.2930  174.0480  143.4130 N   0  0  0  0  0  0  0  0  0  0  0  0
  191.0640  176.7410  145.9130 C   0  0  0  0  0  3  0  0  0  0  0  0
  192.3420  173.1780  139.8870 O   0  0  0  0  0  0  0  0  0  0  0  0
  193.9010  171.3620  139.2010 C   0  0  0  0  0  1  0  0  0  0  0  0
  192.1280  172.1370  137.8260 O   0  0  0  0  0  0  0  0  0  0  0  0
  192.7360  172.2420  138.9240 C   0  0  0  0  0  0  0  0  0  0  0  0
  189.4290  175.9240  142.0760 C   0  0  0  0  0  2  0  0  0  0  0  0
  188.5150  177.0640  141.6630 C   0  0  0  0  0  2  0  0  0  0  0  0
  187.1290  176.5200  141.3790 C   0  0  0  0  0  2  0  0  0  0  0  0
  186.2610  176.7430  142.5240 N   0  0  0  0  0  2  0  0  0  0  0  0
  185.1810  177.6770  142.5040 C   0  0  0  0  0  0  0  0  0  0  0  0
  184.8710  178.2640  141.4320 O   0  0  0  0  0  0  0  0  0  0  0  0
  184.4760  177.9220  143.6830 O   0  0  0  0  0  0  0  0  0  0  0  0
  183.9380  179.0380  146.1690 O   0  0  0  0  0  1  0  0  0  0  0  0
  185.2490  180.3510  144.3160 O   0  0  0  0  0  0  0  0  0  0  0  0
  185.0700  178.9700  144.9090 P   0  0  2  0  0  0  0  0  0  0  0  0
  186.5660  178.3660  145.4600 O   0  0  0  0  0  0  0  0  0  0  0  0
  184.8330  176.4250  146.4690 O   0  0  0  0  0  0  0  0  0  0  0  0
  186.2560  177.2990  146.7510 P   0  0  0  0  0  0  0  0  0  0  0  0
  187.5430  176.2070  146.8690 O   0  0  0  0  0  1  0  0  0  0  0  0
  186.1400  178.0540  148.0570 O   0  0  0  0  0  1  0  0  0  0  0  0
  192.2530  169.9810  142.2860 C   0  0  0  0  0  2  0  0  0  0  0  0
  194.1420  169.2400  143.5760 N   0  0  0  0  0  0  0  0  0  0  0  0
  193.4230  170.2340  143.1710 C   0  0  0  0  0  3  0  0  0  0  0  0
  195.5310  168.5730  145.3400 O   0  0  0  0  0  0  0  0  0  0  0  0
  195.2790  169.4050  144.4270 C   0  0  0  0  0  0  0  0  0  0  0  0
  196.1940  170.5640  144.2030 C   0  0  0  0  0  2  0  0  0  0  0  0
  196.7070  170.7000  146.5330 O   0  0  0  0  0  1  0  0  0  0  0  0
  197.2610  172.5070  145.2130 O   0  0  0  0  0  0  0  0  0  0  0  0
  196.3050  171.4640  145.4360 C   0  0  1  0  0  0  0  0  0  0  0  0
  197.0640  176.3970  143.1620 N   0  0  0  0  0  0  0  0  0  0  0  0
  194.9270  172.0650  145.7300 C   0  0  0  0  0  2  0  0  0  0  0  0
  195.8880  176.4240  143.7090 C   0  0  0  0  0  3  0  0  0  0  0  0
  194.5840  173.0700  144.7730 O   0  0  0  0  0  0  0  0  0  0  0  0
  197.7090  175.1980  142.6560 C   0  0  0  0  0  2  0  0  0  0  0  0
  195.5230  174.0140  144.3490 C   0  0  0  0  0  0  0  0  0  0  0  0
  197.9340  174.1870  143.7280 C   0  0  0  0  0  3  0  0  0  0  0  0
  195.0760  175.2330  144.0270 C   0  0  0  0  0  3  0  0  0  0  0  0
  196.9500  173.6180  144.4250 C   0  0  0  0  0  0  0  0  0  0  0  0
  1 13  2  0  0  0  0
  1 10  1  0  0  0  0
  2 16  1  6  0  0  0
  2  9  1  0  0  0  0
  2  6  1  0  0  0  0
  3 15  2  0  0  0  0
  4 15  1  0  0  0  0
  6 14  1  0  0  0  0
  7 12  2  0  0  0  0
  8 35  1  6  0  0  0
  8  7  1  0  0  0  0
  9  5  1  1  0  0  0
  9  8  1  0  0  0  0
 10  4  2  0  0  0  0
 11  6  2  0  0  0  0
 13  3  1  0  0  0  0
 14 13  1  0  0  0  0
 14 12  1  0  0  0  0
 18 19  2  0  0  0  0
 19 17  1  0  0  0  0
 19 16  1  0  0  0  0
 20  1  1  0  0  0  0
 21 20  1  0  0  0  0
 22 21  1  0  0  0  0
 22 23  1  0  0  0  0
 24 23  1  0  0  0  0
 24 26  1  0  0  0  0
 25 24  2  0  0  0  0
 26 29  1  0  0  0  0
 29 28  2  6  0  0  0
 29 30  1  0  0  0  0
 29 27  1  0  0  0  0
 30 32  1  0  0  0  0
 31 32  2  0  0  0  0
 32 33  1  0  0  0  0
 32 34  1  0  0  0  0
 35 37  1  0  0  0  0
 36 39  1  0  0  0  0
 37 36  2  0  0  0  0
 39 38  2  0  0  0  0
 40 39  1  0  0  0  0
 40 43  1  0  0  0  0
 42 43  1  0  0  0  0
 43 45  1  0  0  0  0
 43 41  1  1  0  0  0
 44 46  2  0  0  0  0
 46 51  1  0  0  0  0
 47 45  1  0  0  0  0
 48 44  1  0  0  0  0
 48 50  1  0  0  0  0
 49 52  1  0  0  0  0
 49 47  1  0  0  0  0
 50 52  2  0  0  0  0
 51 49  2  0  0  0  0
 52 42  1  0  0  0  0
M  END
>  <MODEL>
7

>  <REMARK>
 VINA RESULT:      -6.9      3.358      9.308
  Name = 
  15 active torsions:
  status: ('A' for Active; 'I' for Inactive)
    1  A    between atoms: C_1  and  C_22
    2  A    between atoms: C_2  and  O_13
    3  A    between atoms: C_6  and  C_45
    4  A    between atoms: N_11  and  C_21
    5  A    between atoms: O_12  and  P_18
    6  A    between atoms: O_12  and  P_31
    7  A    between atoms: O_13  and  C_49
    8  A    between atoms: C_16  and  O_34
    9  A    between atoms: C_21  and  C_25
   10  A    between atoms: C_22  and  C_25
   11  A    between atoms: N_29  and  C_41
   12  A    between atoms: C_30  and  C_44
   13  A    between atoms: P_31  and  O_34
   14  A    between atoms: C_41  and  C_45
   15  A    between atoms: C_44  and  C_52
                            x       y       z     vdW  Elec       q    Type
                         _______ _______ _______ _____ _____    ______ ____

>  <TORSDO>
F 15

$$$$
=
 OpenBabel11042415583D

 52 55  0  0  1  0  0  0  0  0999 V2000
  189.5790  173.8060  138.4250 C   0  0  0  0  0  0  0  0  0  0  0  0
  192.5100  171.7450  141.0590 C   0  0  1  0  0  3  0  0  0  0  0  0
  191.1990  173.5310  136.6900 N   0  0  0  0  0  0  0  0  0  0  0  0
  189.0020  174.1670  136.1340 N   0  0  0  0  0  0  0  0  0  0  0  0
  192.0640  174.0330  141.7570 O   0  0  0  0  0  1  0  0  0  0  0  0
  191.6720  171.9880  139.8380 C   0  0  0  0  0  0  0  0  0  0  0  0
  194.2370  173.7840  139.5820 C   0  0  0  0  0  3  0  0  0  0  0  0
  194.3040  173.5100  141.0660 C   0  0  1  0  0  3  0  0  0  0  0  0
  193.0250  173.0190  141.7250 C   0  0  2  0  0  3  0  0  0  0  0  0
  188.6450  174.1480  137.4440 C   0  0  0  0  0  3  0  0  0  0  0  0
  190.7780  171.1470  139.5370 O   0  0  0  0  0  0  0  0  0  0  0  0
  193.2280  173.6380  138.7130 C   0  0  0  0  0  3  0  0  0  0  0  0
  190.8910  173.4880  138.0180 C   0  0  0  0  0  0  0  0  0  0  0  0
  191.9080  173.1160  138.9670 N   0  0  0  0  0  0  0  0  0  0  0  0
  190.2700  173.8640  135.7570 C   0  0  0  0  0  3  0  0  0  0  0  0
  191.8920  170.8600  142.0000 O   0  0  0  0  0  0  0  0  0  0  0  0
  189.7040  171.6550  142.8820 C   0  0  0  0  0  1  0  0  0  0  0  0
  191.6100  171.3200  144.2550 O   0  0  0  0  0  0  0  0  0  0  0  0
  191.1220  171.2680  143.0960 C   0  0  0  0  0  0  0  0  0  0  0  0
  189.1780  173.8410  139.8640 C   0  0  0  0  0  2  0  0  0  0  0  0
  188.1430  174.9250  140.1030 C   0  0  0  0  0  2  0  0  0  0  0  0
  188.3450  175.5190  141.4830 C   0  0  0  0  0  2  0  0  0  0  0  0
  187.3590  176.5590  141.7280 N   0  0  0  0  0  2  0  0  0  0  0  0
  187.7170  177.8880  142.1090 C   0  0  0  0  0  0  0  0  0  0  0  0
  188.9300  178.2350  142.1330 O   0  0  0  0  0  0  0  0  0  0  0  0
  186.7080  178.7910  142.4460 O   0  0  0  0  0  0  0  0  0  0  0  0
  184.2070  177.8350  141.7070 O   0  0  0  0  0  0  0  0  0  0  0  0
  184.5270  179.4360  143.7590 O   0  0  0  0  0  1  0  0  0  0  0  0
  185.1740  178.2800  143.0270 P   0  0  2  0  0  0  0  0  0  0  0  0
  185.4060  176.9650  144.0880 O   0  0  0  0  0  0  0  0  0  0  0  0
  184.0570  177.9260  146.3340 O   0  0  0  0  0  1  0  0  0  0  0  0
  185.5750  177.5880  145.6640 P   0  0  0  0  0  0  0  0  0  0  0  0
  186.3400  176.4240  146.6240 O   0  0  0  0  0  1  0  0  0  0  0  0
  186.4200  178.8430  145.6570 O   0  0  0  0  0  0  0  0  0  0  0  0
  195.4550  172.5680  141.3870 C   0  0  0  0  0  2  0  0  0  0  0  0
  195.7300  174.0010  143.2980 N   0  0  0  0  0  0  0  0  0  0  0  0
  196.0900  172.9210  142.6860 C   0  0  0  0  0  3  0  0  0  0  0  0
  197.5350  174.3220  144.7560 O   0  0  0  0  0  0  0  0  0  0  0  0
  196.2950  174.4060  144.5470 C   0  0  0  0  0  0  0  0  0  0  0  0
  195.3990  174.9670  145.6030 C   0  0  0  0  0  2  0  0  0  0  0  0
  195.5080  176.9020  144.2050 O   0  0  0  0  0  1  0  0  0  0  0  0
  193.4300  175.9800  144.5880 O   0  0  0  0  0  0  0  0  0  0  0  0
  194.7140  176.2610  145.1570 C   0  0  1  0  0  0  0  0  0  0  0  0
  189.4590  175.2100  146.3240 N   0  0  0  0  0  0  0  0  0  0  0  0
  194.5630  177.1800  146.3740 C   0  0  0  0  0  2  0  0  0  0  0  0
  189.8390  176.1340  147.1510 C   0  0  0  0  0  3  0  0  0  0  0  0
  193.5460  176.7040  147.2600 O   0  0  0  0  0  0  0  0  0  0  0  0
  190.3420  174.2150  145.7400 C   0  0  0  0  0  2  0  0  0  0  0  0
  192.3290  176.2240  146.7710 C   0  0  0  0  0  0  0  0  0  0  0  0
  191.4140  174.8350  144.9100 C   0  0  0  0  0  3  0  0  0  0  0  0
  191.2390  176.4110  147.5260 C   0  0  0  0  0  3  0  0  0  0  0  0
  192.3320  175.6720  145.3940 C   0  0  0  0  0  0  0  0  0  0  0  0
  1 20  1  0  0  0  0
  2  9  1  0  0  0  0
  2 16  1  1  0  0  0
  3 13  2  0  0  0  0
  4 10  1  0  0  0  0
  6  2  1  0  0  0  0
  7  8  1  0  0  0  0
  8 35  1  6  0  0  0
  8  9  1  0  0  0  0
  9  5  1  6  0  0  0
 10  1  2  0  0  0  0
 11  6  2  0  0  0  0
 12 14  1  0  0  0  0
 12  7  2  0  0  0  0
 13  1  1  0  0  0  0
 13 14  1  0  0  0  0
 14  6  1  0  0  0  0
 15  4  2  0  0  0  0
 15  3  1  0  0  0  0
 16 19  1  0  0  0  0
 17 19  1  0  0  0  0
 19 18  2  0  0  0  0
 20 21  1  0  0  0  0
 21 22  1  0  0  0  0
 22 23  1  0  0  0  0
 23 24  1  0  0  0  0
 24 25  2  0  0  0  0
 24 26  1  0  0  0  0
 26 29  1  0  0  0  0
 29 27  2  6  0  0  0
 29 28  1  0  0  0  0
 29 30  1  0  0  0  0
 30 32  1  0  0  0  0
 32 31  1  0  0  0  0
 32 33  1  0  0  0  0
 34 32  2  0  0  0  0
 35 37  1  0  0  0  0
 36 39  1  0  0  0  0
 37 36  2  0  0  0  0
 39 38  2  0  0  0  0
 39 40  1  0  0  0  0
 42 43  1  0  0  0  0
 42 52  1  0  0  0  0
 43 41  1  6  0  0  0
 43 40  1  0  0  0  0
 43 45  1  0  0  0  0
 44 46  2  0  0  0  0
 45 47  1  0  0  0  0
 46 51  1  0  0  0  0
 48 44  1  0  0  0  0
 49 47  1  0  0  0  0
 49 51  2  0  0  0  0
 50 52  2  0  0  0  0
 50 48  1  0  0  0  0
 52 49  1  0  0  0  0
M  END
>  <MODEL>
8

>  <REMARK>
 VINA RESULT:      -6.8      3.290      8.558
  Name = 
  15 active torsions:
  status: ('A' for Active; 'I' for Inactive)
    1  A    between atoms: C_1  and  C_22
    2  A    between atoms: C_2  and  O_13
    3  A    between atoms: C_6  and  C_45
    4  A    between atoms: N_11  and  C_21
    5  A    between atoms: O_12  and  P_18
    6  A    between atoms: O_12  and  P_31
    7  A    between atoms: O_13  and  C_49
    8  A    between atoms: C_16  and  O_34
    9  A    between atoms: C_21  and  C_25
   10  A    between atoms: C_22  and  C_25
   11  A    between atoms: N_29  and  C_41
   12  A    between atoms: C_30  and  C_44
   13  A    between atoms: P_31  and  O_34
   14  A    between atoms: C_41  and  C_45
   15  A    between atoms: C_44  and  C_52
                            x       y       z     vdW  Elec       q    Type
                         _______ _______ _______ _____ _____    ______ ____

>  <TORSDO>
F 15

$$$$
=
 OpenBabel11042415583D

 52 55  0  0  1  0  0  0  0  0999 V2000
  195.7040  172.6770  139.4910 C   0  0  0  0  0  0  0  0  0  0  0  0
  196.2840  174.3460  143.5710 C   0  0  1  0  0  3  0  0  0  0  0  0
  195.5480  174.9480  138.7660 N   0  0  0  0  0  0  0  0  0  0  0  0
  195.8110  173.2380  137.1700 N   0  0  0  0  0  0  0  0  0  0  0  0
  194.2550  173.0170  143.3790 O   0  0  0  0  0  1  0  0  0  0  0  0
  196.4870  174.1940  142.0920 C   0  0  0  0  0  0  0  0  0  0  0  0
  193.9180  175.9560  142.5060 C   0  0  0  0  0  3  0  0  0  0  0  0
  193.9970  175.3500  143.8870 C   0  0  1  0  0  3  0  0  0  0  0  0
  194.8500  174.0990  144.0330 C   0  0  2  0  0  3  0  0  0  0  0  0
  195.8250  172.2990  138.1510 C   0  0  0  0  0  3  0  0  0  0  0  0
  197.6200  173.8310  141.6680 O   0  0  0  0  0  0  0  0  0  0  0  0
  194.5070  175.5930  141.3600 C   0  0  0  0  0  3  0  0  0  0  0  0
  195.5640  174.0480  139.7900 C   0  0  0  0  0  0  0  0  0  0  0  0
  195.4430  174.5180  141.1460 N   0  0  0  0  0  0  0  0  0  0  0  0
  195.6700  174.5540  137.4720 C   0  0  0  0  0  3  0  0  0  0  0  0
  197.2320  173.6080  144.3500 O   0  0  0  0  0  0  0  0  0  0  0  0
  196.5200  171.6890  145.7680 C   0  0  0  0  0  1  0  0  0  0  0  0
  197.1530  173.7960  146.6590 O   0  0  0  0  0  0  0  0  0  0  0  0
  196.9890  173.0920  145.6280 C   0  0  0  0  0  0  0  0  0  0  0  0
  195.6710  171.6230  140.5500 C   0  0  0  0  0  2  0  0  0  0  0  0
  194.9890  170.3690  140.0330 C   0  0  0  0  0  2  0  0  0  0  0  0
  193.7760  170.0660  140.8900 C   0  0  0  0  0  2  0  0  0  0  0  0
  192.6130  170.7690  140.3730 N   0  0  0  0  0  2  0  0  0  0  0  0
  191.5210  171.1700  141.2010 C   0  0  0  0  0  0  0  0  0  0  0  0
  191.5890  171.0250  142.4520 O   0  0  0  0  0  0  0  0  0  0  0  0
  190.3890  171.7290  140.6070 O   0  0  0  0  0  0  0  0  0  0  0  0
  190.6470  172.2090  137.8830 O   0  0  0  0  0  0  0  0  0  0  0  0
  191.7140  173.7970  139.6770 O   0  0  0  0  0  1  0  0  0  0  0  0
  190.4910  172.9490  139.4000 P   0  0  2  0  0  0  0  0  0  0  0  0
  189.0810  173.9040  139.4750 O   0  0  0  0  0  0  0  0  0  0  0  0
  187.8120  175.6760  141.2180 O   0  0  0  0  0  0  0  0  0  0  0  0
  188.8110  174.3140  141.1060 P   0  0  0  0  0  0  0  0  0  0  0  0
  188.0390  173.0150  141.8660 O   0  0  0  0  0  1  0  0  0  0  0  0
  190.1210  174.5810  141.8160 O   0  0  0  0  0  1  0  0  0  0  0  0
  194.4210  176.3950  144.9100 C   0  0  0  0  0  2  0  0  0  0  0  0
  192.2140  176.4050  145.8640 N   0  0  0  0  0  0  0  0  0  0  0  0
  193.4900  176.4170  146.0710 C   0  0  0  0  0  3  0  0  0  0  0  0
  191.5510  175.9790  148.0700 O   0  0  0  0  0  0  0  0  0  0  0  0
  191.2590  176.4250  146.9270 C   0  0  0  0  0  0  0  0  0  0  0  0
  189.9090  177.0150  146.6830 C   0  0  0  0  0  2  0  0  0  0  0  0
  189.5370  174.7880  145.9000 O   0  0  0  0  0  1  0  0  0  0  0  0
  187.6860  176.0430  146.4590 O   0  0  0  0  0  0  0  0  0  0  0  0
  188.9990  176.0760  145.8870 C   0  0  1  0  0  0  0  0  0  0  0  0
  184.1850  178.6920  146.1410 N   0  0  0  0  0  0  0  0  0  0  0  0
  188.9320  176.5690  144.4380 C   0  0  0  0  0  2  0  0  0  0  0  0
  184.5730  178.7590  144.9050 C   0  0  0  0  0  3  0  0  0  0  0  0
  188.1430  177.7580  144.3310 O   0  0  0  0  0  0  0  0  0  0  0  0
  185.0810  178.5960  147.2800 C   0  0  0  0  0  2  0  0  0  0  0  0
  186.9350  177.8860  145.0190 C   0  0  0  0  0  0  0  0  0  0  0  0
  185.9150  177.3610  147.2360 C   0  0  0  0  0  3  0  0  0  0  0  0
  185.9680  178.6140  144.4460 C   0  0  0  0  0  3  0  0  0  0  0  0
  186.7840  177.0900  146.2620 C   0  0  0  0  0  0  0  0  0  0  0  0
  1 13  1  0  0  0  0
  1 20  1  0  0  0  0
  2  9  1  0  0  0  0
  2 16  1  1  0  0  0
  3 13  2  0  0  0  0
  4 15  2  0  0  0  0
  4 10  1  0  0  0  0
  6  2  1  0  0  0  0
  7  8  1  0  0  0  0
  8  9  1  0  0  0  0
  8 35  1  1  0  0  0
  9  5  1  6  0  0  0
 10  1  2  0  0  0  0
 11  6  2  0  0  0  0
 12  7  2  0  0  0  0
 13 14  1  0  0  0  0
 14 12  1  0  0  0  0
 14  6  1  0  0  0  0
 15  3  1  0  0  0  0
 16 19  1  0  0  0  0
 19 17  1  0  0  0  0
 19 18  2  0  0  0  0
 21 20  1  0  0  0  0
 21 22  1  0  0  0  0
 23 22  1  0  0  0  0
 23 24  1  0  0  0  0
 24 25  2  0  0  0  0
 26 24  1  0  0  0  0
 29 27  2  6  0  0  0
 29 30  1  0  0  0  0
 29 28  1  0  0  0  0
 29 26  1  0  0  0  0
 30 32  1  0  0  0  0
 32 31  2  0  0  0  0
 32 34  1  0  0  0  0
 32 33  1  0  0  0  0
 35 37  1  0  0  0  0
 36 37  2  0  0  0  0
 36 39  1  0  0  0  0
 39 38  2  0  0  0  0
 40 39  1  0  0  0  0
 43 41  1  1  0  0  0
 43 42  1  0  0  0  0
 43 40  1  0  0  0  0
 44 48  1  0  0  0  0
 45 43  1  0  0  0  0
 46 44  2  0  0  0  0
 47 45  1  0  0  0  0
 47 49  1  0  0  0  0
 49 52  1  0  0  0  0
 50 48  1  0  0  0  0
 51 46  1  0  0  0  0
 51 49  2  0  0  0  0
 52 42  1  0  0  0  0
 52 50  2  0  0  0  0
M  END
>  <MODEL>
9

>  <REMARK>
 VINA RESULT:      -6.8      2.625      5.403
  Name = 
  15 active torsions:
  status: ('A' for Active; 'I' for Inactive)
    1  A    between atoms: C_1  and  C_22
    2  A    between atoms: C_2  and  O_13
    3  A    between atoms: C_6  and  C_45
    4  A    between atoms: N_11  and  C_21
    5  A    between atoms: O_12  and  P_18
    6  A    between atoms: O_12  and  P_31
    7  A    between atoms: O_13  and  C_49
    8  A    between atoms: C_16  and  O_34
    9  A    between atoms: C_21  and  C_25
   10  A    between atoms: C_22  and  C_25
   11  A    between atoms: N_29  and  C_41
   12  A    between atoms: C_30  and  C_44
   13  A    between atoms: P_31  and  O_34
   14  A    between atoms: C_41  and  C_45
   15  A    between atoms: C_44  and  C_52
                            x       y       z     vdW  Elec       q    Type
                         _______ _______ _______ _____ _____    ______ ____

>  <TORSDO>
F 15

$$$$
