=
 OpenBabel11042419353D

 32 36  0  0  1  0  0  0  0  0999 V2000
  187.7970  177.2160  146.4130 C   0  0  0  0  0  0  0  0  0  0  0  0
  192.2370  175.1450  144.1440 C   0  0  0  0  0  0  0  0  0  0  0  0
  186.4410  177.5360  141.5280 C   0  0  0  0  0  0  0  0  0  0  0  0
  187.5360  176.9480  142.3150 C   0  0  0  0  0  0  0  0  0  0  0  0
  191.2990  175.7430  145.0540 N   0  0  0  0  0  2  0  0  0  0  0  0
  190.9600  175.8030  142.1080 O   0  0  0  0  0  0  0  0  0  0  0  0
  184.3200  179.2120  145.5630 O   0  0  0  0  0  0  0  0  0  0  0  0
  189.0640  175.2270  147.2610 C   0  0  2  0  0  3  0  0  0  0  0  0
  190.0070  177.5480  147.1820 N   0  0  0  0  0  2  0  0  0  0  0  0
  193.0500  174.6750  141.8990 C   0  0  0  0  0  3  0  0  0  0  0  0
  186.5200  177.7850  145.8750 C   0  0  1  0  0  3  0  0  0  0  0  0
  194.1860  174.0610  142.4250 C   0  0  0  0  0  3  0  0  0  0  0  0
  184.0930  178.1790  146.4880 C   0  0  0  0  0  2  0  0  0  0  0  0
  186.4660  177.4970  140.1010 N   0  0  0  0  0  1  0  0  0  0  0  0
  186.4100  177.6450  144.3740 C   0  0  0  0  0  0  0  0  0  0  0  0
  190.3150  176.1250  147.3220 C   0  0  2  0  0  3  0  0  0  0  0  0
  187.4690  177.0200  143.7050 O   0  0  0  0  0  0  0  0  0  0  0  0
  189.2960  174.9140  143.4500 O   0  0  0  0  0  0  0  0  0  0  0  0
  188.7550  178.0210  146.7500 N   0  0  0  0  0  0  0  0  0  0  0  0
  189.3420  173.7900  146.8510 C   0  0  0  0  0  1  0  0  0  0  0  0
  184.3380  178.6060  141.4450 O   0  0  0  0  0  1  0  0  0  0  0  0
  184.0930  178.6460  144.3040 C   0  0  0  0  0  2  0  0  0  0  0  0
  188.0090  175.8020  146.4390 N   0  0  0  0  0  2  0  0  0  0  0  0
  185.3010  177.2390  146.6120 C   0  0  0  0  0  2  0  0  0  0  0  0
  192.0610  175.2040  142.7360 C   0  0  0  0  0  0  0  0  0  0  0  0
  189.6270  175.6770  142.5020 C   0  0  0  0  0  0  0  0  0  0  0  0
  191.5350  175.7120  146.4950 C   0  0  0  0  0  2  0  0  0  0  0  0
  185.4000  178.0800  142.1740 C   0  0  0  0  0  0  0  0  0  0  0  0
  194.3530  173.9770  143.8050 C   0  0  0  0  0  3  0  0  0  0  0  0
  188.5910  176.3790  141.7330 C   0  0  0  0  0  3  0  0  0  0  0  0
  185.3660  178.1410  143.6610 C   0  0  0  0  0  0  0  0  0  0  0  0
  193.3890  174.5190  144.6560 C   0  0  0  0  0  3  0  0  0  0  0  0
  1 23  1  0  0  0  0
  1 19  2  0  0  0  0
  2 32  1  0  0  0  0
  2  5  1  0  0  0  0
  3 28  2  0  0  0  0
  3  4  1  0  0  0  0
  4 17  1  0  0  0  0
  5 27  1  0  0  0  0
  6 26  1  0  0  0  0
  6 25  1  0  0  0  0
  7 13  1  0  0  0  0
  8 20  1  6  0  0  0
  8 16  1  0  0  0  0
  9 16  1  0  0  0  0
 10 12  2  0  0  0  0
 10 25  1  0  0  0  0
 11  1  1  0  0  0  0
 11 24  1  1  0  0  0
 12 29  1  0  0  0  0
 13 24  1  0  0  0  0
 14  3  1  0  0  0  0
 15 11  1  0  0  0  0
 16 27  1  6  0  0  0
 17 15  1  0  0  0  0
 19  9  1  0  0  0  0
 21 28  1  0  0  0  0
 22  7  1  0  0  0  0
 23  8  1  0  0  0  0
 25  2  2  0  0  0  0
 26 18  2  0  0  0  0
 28 31  1  0  0  0  0
 29 32  2  0  0  0  0
 30  4  2  0  0  0  0
 30 26  1  0  0  0  0
 31 22  1  0  0  0  0
 31 15  2  0  0  0  0
M  END
>  <MODEL>
1

>  <REMARK>
 VINA RESULT:      -9.1      0.000      0.000
  Name = 
  0 active torsions:
  status: ('A' for Active; 'I' for Inactive)
                            x       y       z     vdW  Elec       q    Type
                         _______ _______ _______ _____ _____    ______ ____

>  <TORSDO>
F 0

$$$$
=
 OpenBabel11042419353D

 32 36  0  0  1  0  0  0  0  0999 V2000
  190.4630  174.1340  145.4820 C   0  0  0  0  0  0  0  0  0  0  0  0
  186.2820  177.4890  144.8400 C   0  0  0  0  0  0  0  0  0  0  0  0
  189.0330  172.7680  140.8030 C   0  0  0  0  0  0  0  0  0  0  0  0
  188.6980  173.8180  141.7780 C   0  0  0  0  0  0  0  0  0  0  0  0
  187.3360  176.6810  145.3910 N   0  0  0  0  0  2  0  0  0  0  0  0
  186.1200  176.1650  142.7350 O   0  0  0  0  0  0  0  0  0  0  0  0
  192.3150  170.8680  143.8390 O   0  0  0  0  0  0  0  0  0  0  0  0
  190.4150  176.5390  146.1840 C   0  0  2  0  0  3  0  0  0  0  0  0
  188.9470  174.7700  147.1800 N   0  0  0  0  0  2  0  0  0  0  0  0
  184.6250  177.9810  143.1260 C   0  0  0  0  0  3  0  0  0  0  0  0
  191.0760  173.0600  144.6370 C   0  0  1  0  0  3  0  0  0  0  0  0
  184.1340  179.0410  143.8880 C   0  0  0  0  0  3  0  0  0  0  0  0
  193.2560  171.8310  144.2410 C   0  0  0  0  0  2  0  0  0  0  0  0
  188.3090  172.6540  139.5780 N   0  0  0  0  0  1  0  0  0  0  0  0
  190.4540  172.9770  143.2630 C   0  0  0  0  0  0  0  0  0  0  0  0
  189.1670  176.2070  147.0260 C   0  0  2  0  0  3  0  0  0  0  0  0
  189.4300  173.8820  142.9620 O   0  0  0  0  0  0  0  0  0  0  0  0
  188.4040  176.4870  142.9230 O   0  0  0  0  0  0  0  0  0  0  0  0
  189.6200  173.8050  146.4100 N   0  0  0  0  0  0  0  0  0  0  0  0
  190.3890  177.9160  145.5400 C   0  0  0  0  0  1  0  0  0  0  0  0
  190.4080  170.9670  140.1390 O   0  0  0  0  0  1  0  0  0  0  0  0
  192.0300  171.1580  142.5000 C   0  0  0  0  0  2  0  0  0  0  0  0
  190.7030  175.5140  145.1920 N   0  0  0  0  0  2  0  0  0  0  0  0
  192.5970  173.1720  144.5940 C   0  0  0  0  0  2  0  0  0  0  0  0
  185.7040  177.2080  143.5740 C   0  0  0  0  0  0  0  0  0  0  0  0
  187.4430  175.8100  142.4680 C   0  0  0  0  0  0  0  0  0  0  0  0
  187.8730  176.9640  146.7200 C   0  0  0  0  0  2  0  0  0  0  0  0
  190.0540  171.9410  141.0680 C   0  0  0  0  0  0  0  0  0  0  0  0
  184.7130  179.3370  145.1190 C   0  0  0  0  0  3  0  0  0  0  0  0
  187.7050  174.6800  141.5660 C   0  0  0  0  0  3  0  0  0  0  0  0
  190.8100  172.0390  142.3470 C   0  0  0  0  0  0  0  0  0  0  0  0
  185.7730  178.5640  145.5920 C   0  0  0  0  0  3  0  0  0  0  0  0
  1 19  2  0  0  0  0
  2  5  1  0  0  0  0
  2 32  1  0  0  0  0
  3 28  2  0  0  0  0
  3  4  1  0  0  0  0
  4 17  1  0  0  0  0
  5 27  1  0  0  0  0
  6 25  1  0  0  0  0
  7 13  1  0  0  0  0
  8 20  1  6  0  0  0
  8 16  1  0  0  0  0
 10 25  1  0  0  0  0
 10 12  2  0  0  0  0
 11 24  1  6  0  0  0
 11  1  1  0  0  0  0
 12 29  1  0  0  0  0
 13 24  1  0  0  0  0
 14  3  1  0  0  0  0
 15 11  1  0  0  0  0
 16 27  1  6  0  0  0
 16  9  1  0  0  0  0
 17 15  1  0  0  0  0
 19  9  1  0  0  0  0
 21 28  1  0  0  0  0
 22  7  1  0  0  0  0
 23  1  1  0  0  0  0
 23  8  1  0  0  0  0
 25  2  2  0  0  0  0
 26  6  1  0  0  0  0
 26 18  2  0  0  0  0
 28 31  1  0  0  0  0
 29 32  2  0  0  0  0
 30  4  2  0  0  0  0
 30 26  1  0  0  0  0
 31 22  1  0  0  0  0
 31 15  2  0  0  0  0
M  END
>  <MODEL>
2

>  <REMARK>
 VINA RESULT:      -9.0      2.507      6.844
  Name = 
  0 active torsions:
  status: ('A' for Active; 'I' for Inactive)
                            x       y       z     vdW  Elec       q    Type
                         _______ _______ _______ _____ _____    ______ ____

>  <TORSDO>
F 0

$$$$
=
 OpenBabel11042419353D

 32 36  0  0  1  0  0  0  0  0999 V2000
  188.8650  176.7220  146.0350 C   0  0  0  0  0  0  0  0  0  0  0  0
  190.9280  173.9820  141.8650 C   0  0  0  0  0  0  0  0  0  0  0  0
  185.2360  177.6170  142.5960 C   0  0  0  0  0  0  0  0  0  0  0  0
  186.4380  176.7780  142.7120 C   0  0  0  0  0  0  0  0  0  0  0  0
  190.7510  174.6900  143.1040 N   0  0  0  0  0  2  0  0  0  0  0  0
  188.9310  175.0060  140.7830 O   0  0  0  0  0  0  0  0  0  0  0  0
  185.9410  179.4060  147.0560 O   0  0  0  0  0  0  0  0  0  0  0  0
  189.9640  174.4740  146.1800 C   0  0  2  0  0  3  0  0  0  0  0  0
  191.1620  176.5680  145.5020 N   0  0  0  0  0  2  0  0  0  0  0  0
  190.3230  173.5100  139.5550 C   0  0  0  0  0  3  0  0  0  0  0  0
  187.6400  177.5620  146.2260 C   0  0  1  0  0  3  0  0  0  0  0  0
  191.4180  172.6550  139.4300 C   0  0  0  0  0  3  0  0  0  0  0  0
  186.0360  178.3780  148.0100 C   0  0  0  0  0  2  0  0  0  0  0  0
  184.4970  177.6660  141.3760 N   0  0  0  0  0  1  0  0  0  0  0  0
  186.7300  177.5440  145.0190 C   0  0  0  0  0  0  0  0  0  0  0  0
  191.2080  175.1070  145.5270 C   0  0  2  0  0  3  0  0  0  0  0  0
  187.1280  176.7710  143.9220 O   0  0  0  0  0  0  0  0  0  0  0  0
  188.0860  174.3720  142.8420 O   0  0  0  0  0  0  0  0  0  0  0  0
  189.9950  177.3020  145.7760 N   0  0  0  0  0  0  0  0  0  0  0  0
  189.6910  173.0410  145.7550 C   0  0  0  0  0  1  0  0  0  0  0  0
  183.6660  179.0780  143.5850 O   0  0  0  0  0  1  0  0  0  0  0  0
  184.9780  178.9770  146.1360 C   0  0  0  0  0  2  0  0  0  0  0  0
  188.7730  175.2950  146.0130 N   0  0  0  0  0  2  0  0  0  0  0  0
  186.9120  177.2160  147.5220 C   0  0  0  0  0  2  0  0  0  0  0  0
  190.0520  174.1660  140.7620 C   0  0  0  0  0  0  0  0  0  0  0  0
  188.0110  175.1160  141.8270 C   0  0  0  0  0  0  0  0  0  0  0  0
  191.6990  174.5190  144.2020 C   0  0  0  0  0  2  0  0  0  0  0  0
  184.8230  178.3090  143.6680 C   0  0  0  0  0  0  0  0  0  0  0  0
  192.2660  172.4500  140.5160 C   0  0  0  0  0  3  0  0  0  0  0  0
  186.8900  176.0540  141.6890 C   0  0  0  0  0  3  0  0  0  0  0  0
  185.5900  178.2790  144.9430 C   0  0  0  0  0  0  0  0  0  0  0  0
  192.0250  173.1120  141.7200 C   0  0  0  0  0  3  0  0  0  0  0  0
  1 11  1  0  0  0  0
  2  5  1  0  0  0  0
  3  4  1  0  0  0  0
  3 28  2  0  0  0  0
  4 17  1  0  0  0  0
  5 27  1  0  0  0  0
  6 26  1  0  0  0  0
  7 13  1  0  0  0  0
  8 20  1  6  0  0  0
  9 16  1  0  0  0  0
  9 19  1  0  0  0  0
 10 25  1  0  0  0  0
 11 24  1  1  0  0  0
 12 10  2  0  0  0  0
 12 29  1  0  0  0  0
 14  3  1  0  0  0  0
 15 11  1  0  0  0  0
 16 27  1  6  0  0  0
 16  8  1  0  0  0  0
 17 15  1  0  0  0  0
 19  1  2  0  0  0  0
 21 28  1  0  0  0  0
 22  7  1  0  0  0  0
 23  1  1  0  0  0  0
 23  8  1  0  0  0  0
 24 13  1  0  0  0  0
 25  6  1  0  0  0  0
 25  2  2  0  0  0  0
 26 18  2  0  0  0  0
 28 31  1  0  0  0  0
 29 32  2  0  0  0  0
 30 26  1  0  0  0  0
 30  4  2  0  0  0  0
 31 15  2  0  0  0  0
 31 22  1  0  0  0  0
 32  2  1  0  0  0  0
M  END
>  <MODEL>
3

>  <REMARK>
 VINA RESULT:      -8.6      1.781      2.286
  Name = 
  0 active torsions:
  status: ('A' for Active; 'I' for Inactive)
                            x       y       z     vdW  Elec       q    Type
                         _______ _______ _______ _____ _____    ______ ____

>  <TORSDO>
F 0

$$$$
=
 OpenBabel11042419353D

 32 36  0  0  1  0  0  0  0  0999 V2000
  190.7220  173.8800  144.1970 C   0  0  0  0  0  0  0  0  0  0  0  0
  186.6260  177.0920  145.6300 C   0  0  0  0  0  0  0  0  0  0  0  0
  188.5670  174.5320  139.6440 C   0  0  0  0  0  0  0  0  0  0  0  0
  188.4200  175.0770  141.0030 C   0  0  0  0  0  0  0  0  0  0  0  0
  187.7170  176.1560  145.6340 N   0  0  0  0  0  2  0  0  0  0  0  0
  186.1040  176.7520  143.2170 O   0  0  0  0  0  0  0  0  0  0  0  0
  192.1830  171.6330  141.0960 O   0  0  0  0  0  0  0  0  0  0  0  0
  190.8710  175.7790  145.8260 C   0  0  2  0  0  3  0  0  0  0  0  0
  189.4980  173.7190  146.2120 N   0  0  0  0  0  2  0  0  0  0  0  0
  184.7550  178.2060  144.5410 C   0  0  0  0  0  3  0  0  0  0  0  0
  191.1620  173.2660  142.9030 C   0  0  1  0  0  3  0  0  0  0  0  0
  184.4230  178.8430  145.7360 C   0  0  0  0  0  3  0  0  0  0  0  0
  193.2100  172.3670  141.7130 C   0  0  0  0  0  2  0  0  0  0  0  0
  187.6660  174.9160  138.6050 N   0  0  0  0  0  1  0  0  0  0  0  0
  190.3410  173.7430  141.7270 C   0  0  0  0  0  0  0  0  0  0  0  0
  189.7500  175.0960  146.6330 C   0  0  2  0  0  3  0  0  0  0  0  0
  189.3200  174.6650  141.9840 O   0  0  0  0  0  0  0  0  0  0  0  0
  188.4020  177.0260  143.1760 O   0  0  0  0  0  0  0  0  0  0  0  0
  190.0130  173.1750  145.0220 N   0  0  0  0  0  0  0  0  0  0  0  0
  190.8050  177.2970  145.8180 C   0  0  0  0  0  1  0  0  0  0  0  0
  189.7580  173.2020  138.0980 O   0  0  0  0  0  1  0  0  0  0  0  0
  191.7150  172.4430  140.0550 C   0  0  0  0  0  2  0  0  0  0  0  0
  190.9700  175.2620  144.4690 N   0  0  0  0  0  2  0  0  0  0  0  0
  192.6630  173.4250  142.6820 C   0  0  0  0  0  2  0  0  0  0  0  0
  185.8570  177.3450  144.4630 C   0  0  0  0  0  0  0  0  0  0  0  0
  187.3590  176.5730  142.6320 C   0  0  0  0  0  0  0  0  0  0  0  0
  188.4550  175.8780  146.8640 C   0  0  0  0  0  2  0  0  0  0  0  0
  189.5830  173.6960  139.3880 C   0  0  0  0  0  0  0  0  0  0  0  0
  185.1880  178.6190  146.8780 C   0  0  0  0  0  3  0  0  0  0  0  0
  187.4410  175.9240  141.3170 C   0  0  0  0  0  3  0  0  0  0  0  0
  190.5210  173.2760  140.4640 C   0  0  0  0  0  0  0  0  0  0  0  0
  186.2760  177.7470  146.8250 C   0  0  0  0  0  3  0  0  0  0  0  0
  1 23  1  0  0  0  0
  1 19  2  0  0  0  0
  2  5  1  0  0  0  0
  2 32  1  0  0  0  0
  3  4  1  0  0  0  0
  4 30  2  0  0  0  0
  4 17  1  0  0  0  0
  5 27  1  0  0  0  0
  6 25  1  0  0  0  0
  7 13  1  0  0  0  0
  8 20  1  6  0  0  0
  8 16  1  0  0  0  0
  9 16  1  0  0  0  0
 10 12  2  0  0  0  0
 11 24  1  6  0  0  0
 11  1  1  0  0  0  0
 12 29  1  0  0  0  0
 13 24  1  0  0  0  0
 14  3  1  0  0  0  0
 15 17  1  0  0  0  0
 15 11  1  0  0  0  0
 16 27  1  6  0  0  0
 19  9  1  0  0  0  0
 21 28  1  0  0  0  0
 22 31  1  0  0  0  0
 22  7  1  0  0  0  0
 23  8  1  0  0  0  0
 25 10  1  0  0  0  0
 25  2  2  0  0  0  0
 26 18  2  0  0  0  0
 26  6  1  0  0  0  0
 28  3  2  0  0  0  0
 28 31  1  0  0  0  0
 30 26  1  0  0  0  0
 31 15  2  0  0  0  0
 32 29  2  0  0  0  0
M  END
>  <MODEL>
4

>  <REMARK>
 VINA RESULT:      -8.5      2.195      6.694
  Name = 
  0 active torsions:
  status: ('A' for Active; 'I' for Inactive)
                            x       y       z     vdW  Elec       q    Type
                         _______ _______ _______ _____ _____    ______ ____

>  <TORSDO>
F 0

$$$$
=
 OpenBabel11042419353D

 32 36  0  0  1  0  0  0  0  0999 V2000
  188.8060  177.0470  145.2910 C   0  0  0  0  0  0  0  0  0  0  0  0
  192.0310  173.4830  142.8320 C   0  0  0  0  0  0  0  0  0  0  0  0
  186.6670  177.0560  140.6840 C   0  0  0  0  0  0  0  0  0  0  0  0
  187.7010  176.2920  141.4000 C   0  0  0  0  0  0  0  0  0  0  0  0
  191.4740  174.4480  143.7400 N   0  0  0  0  0  2  0  0  0  0  0  0
  190.6020  174.1880  140.9160 O   0  0  0  0  0  0  0  0  0  0  0  0
  185.8730  179.8230  144.5960 O   0  0  0  0  0  0  0  0  0  0  0  0
  189.6500  174.9160  146.3060 C   0  0  2  0  0  3  0  0  0  0  0  0
  191.1310  176.8290  145.6530 N   0  0  0  0  0  2  0  0  0  0  0  0
  192.2450  172.4860  140.6210 C   0  0  0  0  0  3  0  0  0  0  0  0
  187.6430  177.8790  144.8470 C   0  0  1  0  0  3  0  0  0  0  0  0
  193.2620  171.6510  141.0830 C   0  0  0  0  0  3  0  0  0  0  0  0
  185.5670  179.0410  145.7220 C   0  0  0  0  0  2  0  0  0  0  0  0
  186.4050  176.8100  139.3020 N   0  0  0  0  0  1  0  0  0  0  0  0
  187.2130  177.5670  143.4320 C   0  0  0  0  0  0  0  0  0  0  0  0
  191.0790  175.4130  146.0130 C   0  0  2  0  0  3  0  0  0  0  0  0
  187.9230  176.5760  142.7460 O   0  0  0  0  0  0  0  0  0  0  0  0
  189.0550  174.0170  142.6290 O   0  0  0  0  0  0  0  0  0  0  0  0
  189.9870  177.5790  145.3280 N   0  0  0  0  0  0  0  0  0  0  0  0
  189.4600  173.4180  146.1380 C   0  0  0  0  0  1  0  0  0  0  0  0
  184.9390  178.6660  140.7070 O   0  0  0  0  0  1  0  0  0  0  0  0
  185.2690  179.1750  143.5130 C   0  0  0  0  0  2  0  0  0  0  0  0
  188.6440  175.6500  145.5520 N   0  0  0  0  0  2  0  0  0  0  0  0
  186.4890  177.8190  145.8440 C   0  0  0  0  0  2  0  0  0  0  0  0
  191.6080  173.3920  141.4790 C   0  0  0  0  0  0  0  0  0  0  0  0
  189.3830  174.5100  141.5170 C   0  0  0  0  0  0  0  0  0  0  0  0
  191.9670  174.5520  145.1110 C   0  0  0  0  0  2  0  0  0  0  0  0
  185.9470  177.9630  141.3610 C   0  0  0  0  0  0  0  0  0  0  0  0
  193.6630  171.7170  142.4150 C   0  0  0  0  0  3  0  0  0  0  0  0
  188.4380  175.3670  140.7880 C   0  0  0  0  0  3  0  0  0  0  0  0
  186.2170  178.2390  142.7980 C   0  0  0  0  0  0  0  0  0  0  0  0
  193.0560  172.6290  143.2790 C   0  0  0  0  0  3  0  0  0  0  0  0
  1 19  2  0  0  0  0
  1 23  1  0  0  0  0
  2 32  1  0  0  0  0
  2  5  1  0  0  0  0
  3 28  2  0  0  0  0
  3  4  1  0  0  0  0
  4 17  1  0  0  0  0
  5 27  1  0  0  0  0
  6 25  1  0  0  0  0
  6 26  1  0  0  0  0
  7 13  1  0  0  0  0
  8 20  1  6  0  0  0
  9 16  1  0  0  0  0
 10 12  2  0  0  0  0
 10 25  1  0  0  0  0
 11  1  1  0  0  0  0
 11 24  1  1  0  0  0
 12 29  1  0  0  0  0
 13 24  1  0  0  0  0
 14  3  1  0  0  0  0
 15 11  1  0  0  0  0
 16 27  1  6  0  0  0
 16  8  1  0  0  0  0
 17 15  1  0  0  0  0
 19  9  1  0  0  0  0
 21 28  1  0  0  0  0
 22  7  1  0  0  0  0
 23  8  1  0  0  0  0
 25  2  2  0  0  0  0
 26 18  2  0  0  0  0
 28 31  1  0  0  0  0
 29 32  2  0  0  0  0
 30  4  2  0  0  0  0
 30 26  1  0  0  0  0
 31 15  2  0  0  0  0
 31 22  1  0  0  0  0
M  END
>  <MODEL>
5

>  <REMARK>
 VINA RESULT:      -8.5      1.534      1.724
  Name = 
  0 active torsions:
  status: ('A' for Active; 'I' for Inactive)
                            x       y       z     vdW  Elec       q    Type
                         _______ _______ _______ _____ _____    ______ ____

>  <TORSDO>
F 0

$$$$
=
 OpenBabel11042419353D

 32 36  0  0  1  0  0  0  0  0999 V2000
  191.7870  174.7140  144.1620 C   0  0  0  0  0  0  0  0  0  0  0  0
  187.1370  177.4560  144.2610 C   0  0  0  0  0  0  0  0  0  0  0  0
  189.5290  172.6360  140.1150 C   0  0  0  0  0  0  0  0  0  0  0  0
  189.2810  173.7490  141.0440 C   0  0  0  0  0  0  0  0  0  0  0  0
  188.3930  176.8500  144.6090 N   0  0  0  0  0  2  0  0  0  0  0  0
  186.6850  175.8780  142.3870 O   0  0  0  0  0  0  0  0  0  0  0  0
  193.6560  171.5130  142.4150 O   0  0  0  0  0  0  0  0  0  0  0  0
  191.5600  177.1650  144.6360 C   0  0  2  0  0  3  0  0  0  0  0  0
  190.6270  175.3690  146.1140 N   0  0  0  0  0  2  0  0  0  0  0  0
  185.0780  177.5410  142.9660 C   0  0  0  0  0  3  0  0  0  0  0  0
  192.3360  173.6250  143.2930 C   0  0  1  0  0  3  0  0  0  0  0  0
  184.6290  178.6200  143.7270 C   0  0  0  0  0  3  0  0  0  0  0  0
  194.5180  172.6200  142.4880 C   0  0  0  0  0  2  0  0  0  0  0  0
  188.5660  172.2910  139.1180 N   0  0  0  0  0  1  0  0  0  0  0  0
  191.4320  173.3040  142.1240 C   0  0  0  0  0  0  0  0  0  0  0  0
  190.6000  176.7930  145.7830 C   0  0  2  0  0  3  0  0  0  0  0  0
  190.2480  174.0410  142.0030 O   0  0  0  0  0  0  0  0  0  0  0  0
  188.8820  176.4840  141.9820 O   0  0  0  0  0  0  0  0  0  0  0  0
  191.2360  174.4040  145.2930 N   0  0  0  0  0  0  0  0  0  0  0  0
  191.1910  178.4410  143.8980 C   0  0  0  0  0  1  0  0  0  0  0  0
  190.9560  170.9410  139.2990 O   0  0  0  0  0  1  0  0  0  0  0  0
  193.0330  171.6030  141.1660 C   0  0  0  0  0  2  0  0  0  0  0  0
  191.7550  176.0670  143.7000 N   0  0  0  0  0  2  0  0  0  0  0  0
  193.7740  173.9080  142.8700 C   0  0  0  0  0  2  0  0  0  0  0  0
  186.3290  176.9590  143.2040 C   0  0  0  0  0  0  0  0  0  0  0  0
  187.9480  175.6500  141.8380 C   0  0  0  0  0  0  0  0  0  0  0  0
  189.1760  177.3510  145.7350 C   0  0  0  0  0  2  0  0  0  0  0  0
  190.6910  171.9720  140.1950 C   0  0  0  0  0  0  0  0  0  0  0  0
  185.4270  179.1280  144.7480 C   0  0  0  0  0  3  0  0  0  0  0  0
  188.1540  174.4580  141.0040 C   0  0  0  0  0  3  0  0  0  0  0  0
  191.6980  172.3110  141.2370 C   0  0  0  0  0  0  0  0  0  0  0  0
  186.6670  178.5470  145.0150 C   0  0  0  0  0  3  0  0  0  0  0  0
  1 19  2  0  0  0  0
  2  5  1  0  0  0  0
  2 32  1  0  0  0  0
  3 28  2  0  0  0  0
  3  4  1  0  0  0  0
  4 17  1  0  0  0  0
  5 27  1  0  0  0  0
  6 25  1  0  0  0  0
  7 13  1  0  0  0  0
  8 20  1  6  0  0  0
  8 16  1  0  0  0  0
 10 25  1  0  0  0  0
 10 12  2  0  0  0  0
 11 24  1  6  0  0  0
 11  1  1  0  0  0  0
 12 29  1  0  0  0  0
 13 24  1  0  0  0  0
 14  3  1  0  0  0  0
 15 11  1  0  0  0  0
 16 27  1  6  0  0  0
 16  9  1  0  0  0  0
 17 15  1  0  0  0  0
 19  9  1  0  0  0  0
 21 28  1  0  0  0  0
 22 31  1  0  0  0  0
 22  7  1  0  0  0  0
 23  1  1  0  0  0  0
 23  8  1  0  0  0  0
 25  2  2  0  0  0  0
 26 18  2  0  0  0  0
 26  6  1  0  0  0  0
 28 31  1  0  0  0  0
 29 32  2  0  0  0  0
 30  4  2  0  0  0  0
 30 26  1  0  0  0  0
 31 15  2  0  0  0  0
M  END
>  <MODEL>
6

>  <REMARK>
 VINA RESULT:      -8.4      2.564      7.107
  Name = 
  0 active torsions:
  status: ('A' for Active; 'I' for Inactive)
                            x       y       z     vdW  Elec       q    Type
                         _______ _______ _______ _____ _____    ______ ____

>  <TORSDO>
F 0

$$$$
=
 OpenBabel11042419353D

 32 36  0  0  1  0  0  0  0  0999 V2000
  188.8530  177.3030  144.9200 C   0  0  0  0  0  0  0  0  0  0  0  0
  192.5700  173.3930  144.7160 C   0  0  0  0  0  0  0  0  0  0  0  0
  187.9120  175.5270  140.2550 C   0  0  0  0  0  0  0  0  0  0  0  0
  188.7360  175.1510  141.4140 C   0  0  0  0  0  0  0  0  0  0  0  0
  191.8110  174.5630  145.0630 N   0  0  0  0  0  2  0  0  0  0  0  0
  191.6590  173.2640  142.4000 O   0  0  0  0  0  0  0  0  0  0  0  0
  186.1920  179.4050  142.6190 O   0  0  0  0  0  0  0  0  0  0  0  0
  189.4140  175.7380  146.7950 C   0  0  2  0  0  3  0  0  0  0  0  0
  191.0170  177.4230  145.8620 N   0  0  0  0  0  2  0  0  0  0  0  0
  193.3180  171.7110  143.1220 C   0  0  0  0  0  3  0  0  0  0  0  0
  187.8380  177.8270  143.9510 C   0  0  1  0  0  3  0  0  0  0  0  0
  194.1860  171.1780  144.0740 C   0  0  0  0  0  3  0  0  0  0  0  0
  185.6160  179.0410  143.8470 C   0  0  0  0  0  2  0  0  0  0  0  0
  187.9980  174.7950  139.0320 N   0  0  0  0  0  1  0  0  0  0  0  0
  187.7680  177.0070  142.6830 C   0  0  0  0  0  0  0  0  0  0  0  0
  190.8730  176.2210  146.6820 C   0  0  2  0  0  3  0  0  0  0  0  0
  188.6220  175.9030  142.5820 O   0  0  0  0  0  0  0  0  0  0  0  0
  189.7370  173.5690  143.6540 O   0  0  0  0  0  0  0  0  0  0  0  0
  189.9910  177.9130  145.0350 N   0  0  0  0  0  0  0  0  0  0  0  0
  189.2650  174.2650  147.1360 C   0  0  0  0  0  1  0  0  0  0  0  0
  186.2380  176.8920  139.3000 O   0  0  0  0  0  1  0  0  0  0  0  0
  185.8700  178.3720  141.7320 C   0  0  0  0  0  2  0  0  0  0  0  0
  188.6260  176.0760  145.6190 N   0  0  0  0  0  2  0  0  0  0  0  0
  186.4740  178.0200  144.6080 C   0  0  0  0  0  2  0  0  0  0  0  0
  192.4930  172.8010  143.4270 C   0  0  0  0  0  0  0  0  0  0  0  0
  190.3310  173.6700  142.5470 C   0  0  0  0  0  0  0  0  0  0  0  0
  191.9520  175.1790  146.3790 C   0  0  0  0  0  2  0  0  0  0  0  0
  187.0520  176.5480  140.3760 C   0  0  0  0  0  0  0  0  0  0  0  0
  194.2480  171.7370  145.3480 C   0  0  0  0  0  3  0  0  0  0  0  0
  189.5980  174.1360  141.3620 C   0  0  0  0  0  3  0  0  0  0  0  0
  186.9610  177.3300  141.6390 C   0  0  0  0  0  0  0  0  0  0  0  0
  193.4510  172.8370  145.6630 C   0  0  0  0  0  3  0  0  0  0  0  0
  1 19  2  0  0  0  0
  1 23  1  0  0  0  0
  2  5  1  0  0  0  0
  2 32  1  0  0  0  0
  3 28  2  0  0  0  0
  3  4  1  0  0  0  0
  4 17  1  0  0  0  0
  5 27  1  0  0  0  0
  6 26  1  0  0  0  0
  6 25  1  0  0  0  0
  7 13  1  0  0  0  0
  8 20  1  6  0  0  0
  9 16  1  0  0  0  0
 10 25  1  0  0  0  0
 10 12  2  0  0  0  0
 11 24  1  1  0  0  0
 11  1  1  0  0  0  0
 12 29  1  0  0  0  0
 13 24  1  0  0  0  0
 14  3  1  0  0  0  0
 15 11  1  0  0  0  0
 16 27  1  6  0  0  0
 16  8  1  0  0  0  0
 17 15  1  0  0  0  0
 19  9  1  0  0  0  0
 21 28  1  0  0  0  0
 22  7  1  0  0  0  0
 23  8  1  0  0  0  0
 25  2  2  0  0  0  0
 26 18  2  0  0  0  0
 28 31  1  0  0  0  0
 29 32  2  0  0  0  0
 30  4  2  0  0  0  0
 30 26  1  0  0  0  0
 31 22  1  0  0  0  0
 31 15  2  0  0  0  0
M  END
>  <MODEL>
7

>  <REMARK>
 VINA RESULT:      -8.2      1.837      2.380
  Name = 
  0 active torsions:
  status: ('A' for Active; 'I' for Inactive)
                            x       y       z     vdW  Elec       q    Type
                         _______ _______ _______ _____ _____    ______ ____

>  <TORSDO>
F 0

$$$$
=
 OpenBabel11042419353D

 32 36  0  0  1  0  0  0  0  0999 V2000
  190.3710  176.8110  142.3830 C   0  0  0  0  0  0  0  0  0  0  0  0
  185.9550  178.1870  145.1690 C   0  0  0  0  0  0  0  0  0  0  0  0
  192.2190  176.4000  147.0970 C   0  0  0  0  0  0  0  0  0  0  0  0
  190.9120  176.6200  146.4580 C   0  0  0  0  0  0  0  0  0  0  0  0
  186.9360  178.0000  144.1350 N   0  0  0  0  0  2  0  0  0  0  0  0
  187.6010  177.9570  147.0260 O   0  0  0  0  0  0  0  0  0  0  0  0
  194.3950  176.1370  142.7620 O   0  0  0  0  0  0  0  0  0  0  0  0
  188.0360  176.0690  141.8560 C   0  0  2  0  0  3  0  0  0  0  0  0
  188.8000  178.4530  141.7330 N   0  0  0  0  0  2  0  0  0  0  0  0
  185.3170  178.4500  147.5030 C   0  0  0  0  0  3  0  0  0  0  0  0
  191.7720  176.4480  142.7660 C   0  0  1  0  0  3  0  0  0  0  0  0
  183.9950  178.6890  147.1280 C   0  0  0  0  0  3  0  0  0  0  0  0
  193.7960  175.1610  141.9480 C   0  0  0  0  0  2  0  0  0  0  0  0
  192.3530  176.4490  148.5170 N   0  0  0  0  0  1  0  0  0  0  0  0
  191.9550  176.3370  144.2620 C   0  0  0  0  0  0  0  0  0  0  0  0
  187.6440  177.5580  141.7780 C   0  0  2  0  0  3  0  0  0  0  0  0
  190.8360  176.5700  145.0680 O   0  0  0  0  0  0  0  0  0  0  0  0
  188.1370  176.1490  145.6840 O   0  0  0  0  0  0  0  0  0  0  0  0
  190.1090  178.0280  142.0220 N   0  0  0  0  0  0  0  0  0  0  0  0
  186.9630  175.1680  142.4450 C   0  0  0  0  0  1  0  0  0  0  0  0
  194.5130  175.8680  146.9150 O   0  0  0  0  0  1  0  0  0  0  0  0
  194.3660  175.6140  144.0600 C   0  0  0  0  0  2  0  0  0  0  0  0
  189.3070  175.8660  142.5340 N   0  0  0  0  0  2  0  0  0  0  0  0
  192.2630  175.2140  142.0150 C   0  0  0  0  0  2  0  0  0  0  0  0
  186.3030  178.1810  146.5460 C   0  0  0  0  0  0  0  0  0  0  0  0
  188.4880  176.9860  146.5590 C   0  0  0  0  0  0  0  0  0  0  0  0
  186.5550  178.0640  142.7260 C   0  0  0  0  0  2  0  0  0  0  0  0
  193.2770  176.1170  146.3240 C   0  0  0  0  0  0  0  0  0  0  0  0
  183.6430  178.6710  145.7810 C   0  0  0  0  0  3  0  0  0  0  0  0
  189.8200  176.8900  147.1720 C   0  0  0  0  0  3  0  0  0  0  0  0
  193.1560  176.0760  144.8410 C   0  0  0  0  0  0  0  0  0  0  0  0
  184.6150  178.4270  144.8110 C   0  0  0  0  0  3  0  0  0  0  0  0
  1 23  1  0  0  0  0
  1 11  1  0  0  0  0
  2 25  1  0  0  0  0
  3 14  1  0  0  0  0
  4  3  1  0  0  0  0
  4 30  2  0  0  0  0
  5  2  1  0  0  0  0
  7 22  1  0  0  0  0
  8 20  1  1  0  0  0
  8 23  1  0  0  0  0
  9 16  1  0  0  0  0
  9 19  1  0  0  0  0
 11 24  1  6  0  0  0
 11 15  1  0  0  0  0
 12 10  1  0  0  0  0
 13 24  1  0  0  0  0
 13  7  1  0  0  0  0
 15 31  2  0  0  0  0
 15 17  1  0  0  0  0
 16  8  1  0  0  0  0
 16 27  1  1  0  0  0
 17  4  1  0  0  0  0
 18 26  2  0  0  0  0
 19  1  2  0  0  0  0
 22 31  1  0  0  0  0
 25  6  1  0  0  0  0
 25 10  2  0  0  0  0
 26  6  1  0  0  0  0
 26 30  1  0  0  0  0
 27  5  1  0  0  0  0
 28 21  1  0  0  0  0
 28  3  2  0  0  0  0
 29 12  2  0  0  0  0
 31 28  1  0  0  0  0
 32  2  2  0  0  0  0
 32 29  1  0  0  0  0
M  END
>  <MODEL>
8

>  <REMARK>
 VINA RESULT:      -7.8      2.257      7.830
  Name = 
  0 active torsions:
  status: ('A' for Active; 'I' for Inactive)
                            x       y       z     vdW  Elec       q    Type
                         _______ _______ _______ _____ _____    ______ ____

>  <TORSDO>
F 0

$$$$
=
 OpenBabel11042419353D

 32 36  0  0  1  0  0  0  0  0999 V2000
  191.6920  175.2680  144.5230 C   0  0  0  0  0  0  0  0  0  0  0  0
  190.5200  173.3270  139.6230 C   0  0  0  0  0  0  0  0  0  0  0  0
  186.8880  176.8710  144.1390 C   0  0  0  0  0  0  0  0  0  0  0  0
  187.8050  176.0010  143.3870 C   0  0  0  0  0  0  0  0  0  0  0  0
  191.2020  173.7910  140.8000 N   0  0  0  0  0  2  0  0  0  0  0  0
  188.4230  174.5780  140.1210 O   0  0  0  0  0  0  0  0  0  0  0  0
  190.3130  177.7680  147.4630 O   0  0  0  0  0  0  0  0  0  0  0  0
  192.3610  173.0120  143.6600 C   0  0  2  0  0  3  0  0  0  0  0  0
  193.1890  175.1720  142.6960 N   0  0  0  0  0  2  0  0  0  0  0  0
  188.6150  173.3140  138.1080 C   0  0  0  0  0  3  0  0  0  0  0  0
  190.9370  176.0810  145.5300 C   0  0  1  0  0  3  0  0  0  0  0  0
  189.3020  172.4760  137.2310 C   0  0  0  0  0  3  0  0  0  0  0  0
  190.8170  176.5760  148.0120 C   0  0  0  0  0  2  0  0  0  0  0  0
  185.5850  177.1660  143.6340 N   0  0  0  0  0  1  0  0  0  0  0  0
  189.4980  176.3100  145.1290 C   0  0  0  0  0  0  0  0  0  0  0  0
  193.0500  173.7320  142.4840 C   0  0  2  0  0  3  0  0  0  0  0  0
  189.0680  175.7510  143.9200 O   0  0  0  0  0  0  0  0  0  0  0  0
  188.8820  173.5820  142.1600 O   0  0  0  0  0  0  0  0  0  0  0  0
  192.5150  175.8640  143.7180 N   0  0  0  0  0  0  0  0  0  0  0  0
  191.7070  171.6910  143.2910 C   0  0  0  0  0  1  0  0  0  0  0  0
  186.4100  178.1490  146.0670 O   0  0  0  0  0  1  0  0  0  0  0  0
  188.9470  177.5410  147.2630 C   0  0  0  0  0  2  0  0  0  0  0  0
  191.4210  173.8730  144.3620 N   0  0  0  0  0  2  0  0  0  0  0  0
  191.0770  175.5100  146.9380 C   0  0  0  0  0  2  0  0  0  0  0  0
  189.1960  173.7340  139.3110 C   0  0  0  0  0  0  0  0  0  0  0  0
  188.3210  174.5060  141.5120 C   0  0  0  0  0  0  0  0  0  0  0  0
  192.5830  173.3970  141.0660 C   0  0  0  0  0  2  0  0  0  0  0  0
  187.2810  177.3560  145.3260 C   0  0  0  0  0  0  0  0  0  0  0  0
  190.5920  172.0530  137.5430 C   0  0  0  0  0  3  0  0  0  0  0  0
  187.4680  175.4760  142.2110 C   0  0  0  0  0  3  0  0  0  0  0  0
  188.6400  177.0690  145.8590 C   0  0  0  0  0  0  0  0  0  0  0  0
  191.1960  172.4790  138.7260 C   0  0  0  0  0  3  0  0  0  0  0  0
  1 11  1  0  0  0  0
  2  5  1  0  0  0  0
  3 28  2  0  0  0  0
  4 17  1  0  0  0  0
  4  3  1  0  0  0  0
  5 27  1  0  0  0  0
  6 26  1  0  0  0  0
  7 13  1  0  0  0  0
  8 20  1  6  0  0  0
  8 23  1  0  0  0  0
  9 19  1  0  0  0  0
 10 25  2  0  0  0  0
 11 24  1  1  0  0  0
 12 29  2  0  0  0  0
 12 10  1  0  0  0  0
 14  3  1  0  0  0  0
 15 11  1  0  0  0  0
 15 31  2  0  0  0  0
 16 27  1  6  0  0  0
 16  9  1  0  0  0  0
 16  8  1  0  0  0  0
 17 15  1  0  0  0  0
 19  1  2  0  0  0  0
 22  7  1  0  0  0  0
 23  1  1  0  0  0  0
 24 13  1  0  0  0  0
 25  2  1  0  0  0  0
 25  6  1  0  0  0  0
 26 18  2  0  0  0  0
 26 30  1  0  0  0  0
 28 31  1  0  0  0  0
 28 21  1  0  0  0  0
 29 32  1  0  0  0  0
 30  4  2  0  0  0  0
 31 22  1  0  0  0  0
 32  2  2  0  0  0  0
M  END
>  <MODEL>
9

>  <REMARK>
 VINA RESULT:      -7.7      2.930      4.978
  Name = 
  0 active torsions:
  status: ('A' for Active; 'I' for Inactive)
                            x       y       z     vdW  Elec       q    Type
                         _______ _______ _______ _____ _____    ______ ____

>  <TORSDO>
F 0

$$$$
