=
 OpenBabel11042416273D

 38 44  0  0  1  0  0  0  0  0999 V2000
  190.8550  174.7090  143.3610 C   0  0  2  0  0  3  0  0  0  0  0  0
  190.5000  176.3660  142.6880 S   0  0  0  0  0  0  0  0  0  0  0  0
  188.8640  174.4250  141.8610 C   0  0  2  0  0  3  0  0  0  0  0  0
  188.8820  175.8160  142.2680 N   0  0  0  0  0  0  0  0  0  0  0  0
  189.8410  173.6990  142.7950 C   0  0  1  0  0  3  0  0  0  0  0  0
  187.7040  176.4750  142.7600 C   0  0  0  0  0  0  0  0  0  0  0  0
  186.4330  177.4460  144.5830 C   0  0  0  0  0  0  0  0  0  0  0  0
  184.0020  178.7320  145.4510 C   0  0  0  0  0  2  0  0  0  0  0  0
  187.5840  176.8160  144.1120 C   0  0  0  0  0  3  0  0  0  0  0  0
  185.3880  177.7330  143.6780 C   0  0  0  0  0  0  0  0  0  0  0  0
  185.1410  178.4360  146.3800 C   0  0  0  0  0  0  0  0  0  0  0  0
  186.6420  176.7760  141.8980 C   0  0  0  0  0  3  0  0  0  0  0  0
  185.0620  178.7520  147.5950 O   0  0  0  0  0  0  0  0  0  0  0  0
  184.2920  178.3210  144.0710 N   0  0  0  0  0  0  0  0  0  0  0  0
  186.3420  177.7690  145.8720 C   0  0  0  0  0  3  0  0  0  0  0  0
  185.5250  177.3930  142.3680 N   0  0  0  0  0  0  0  0  0  0  0  0
  189.6990  171.2610  142.3170 C   0  0  0  0  0  2  0  0  0  0  0  0
  190.8980  171.4900  143.2100 C   0  0  0  0  0  2  0  0  0  0  0  0
  190.5430  172.5100  142.1480 C   0  0  0  0  0  3  0  0  0  0  0  0
  189.2670  174.3340  140.5240 O   0  0  0  0  0  0  0  0  0  0  0  0
  188.5920  172.7660  138.8780 C   0  0  0  0  0  2  0  0  0  0  0  0
  188.2890  174.1570  138.3710 C   0  0  0  0  0  2  0  0  0  0  0  0
  188.1510  173.8440  139.8460 C   0  0  0  0  0  3  0  0  0  0  0  0
  190.8410  174.7550  144.8930 C   0  0  2  0  0  3  0  0  0  0  0  0
  193.2860  174.9700  144.9820 C   0  0  1  0  0  3  0  0  0  0  0  0
  192.9450  173.7300  144.4110 O   0  0  0  0  0  0  0  0  0  0  0  0
  192.1290  174.1830  145.4630 C   0  0  2  0  0  3  0  0  0  0  0  0
  194.4710  174.7950  145.9290 C   0  0  1  0  0  3  0  0  0  0  0  0
  195.6590  174.1220  145.2100 C   0  0  2  0  0  0  0  0  0  0  0  0
  196.0630  174.6680  143.8460 C   0  0  0  0  0  1  0  0  0  0  0  0
  196.0010  172.6700  145.5600 C   0  0  2  0  0  3  0  0  0  0  0  0
  196.8490  173.8150  146.0980 C   0  0  0  0  0  2  0  0  0  0  0  0
  196.7690  171.9460  144.4650 C   0  0  0  0  0  1  0  0  0  0  0  0
  194.8300  176.1290  146.5880 C   0  0  0  0  0  2  0  0  0  0  0  0
  194.4220  177.2950  145.7070 C   0  0  0  0  0  1  0  0  0  0  0  0
  189.6960  174.0320  145.4320 N   0  0  0  0  0  2  0  0  0  0  0  0
  189.5120  175.9480  146.7430 O   0  0  0  0  0  1  0  0  0  0  0  0
  189.4380  174.5560  146.7640 C   0  0  0  0  0  2  0  0  0  0  0  0
  1 24  1  1  0  0  0
  2  1  1  0  0  0  0
  3 20  1  6  0  0  0
  3  4  1  0  0  0  0
  3  5  1  0  0  0  0
  4  2  1  0  0  0  0
  4  6  1  0  0  0  0
  5 19  1  6  0  0  0
  5  1  1  0  0  0  0
  6  9  2  0  0  0  0
  7 15  2  0  0  0  0
  8 11  1  0  0  0  0
  9  7  1  0  0  0  0
 10 14  2  0  0  0  0
 10  7  1  0  0  0  0
 11 13  2  0  0  0  0
 12 16  2  0  0  0  0
 12  6  1  0  0  0  0
 14  8  1  0  0  0  0
 15 11  1  0  0  0  0
 16 10  1  0  0  0  0
 17 18  1  0  0  0  0
 19 17  1  0  0  0  0
 19 18  1  0  0  0  0
 21 23  1  0  0  0  0
 22 21  1  0  0  0  0
 22 23  1  0  0  0  0
 23 20  1  0  0  0  0
 24 36  1  1  0  0  0
 25 27  1  0  0  0  0
 25 28  1  1  0  0  0
 26 25  1  0  0  0  0
 26 27  1  0  0  0  0
 27 24  1  6  0  0  0
 28 34  1  6  0  0  0
 29 30  1  6  0  0  0
 29 31  1  0  0  0  0
 29 28  1  0  0  0  0
 29 32  1  0  0  0  0
 31 33  1  6  0  0  0
 31 32  1  0  0  0  0
 35 34  1  0  0  0  0
 36 38  1  0  0  0  0
 37 38  1  0  0  0  0
M  END
>  <MODEL>
1

>  <REMARK>
 VINA RESULT:      -6.9      0.000      0.000
  Name = 
  11 active torsions:
  status: ('A' for Active; 'I' for Inactive)
    1  A    between atoms: C_1  and  N_31
    2  A    between atoms: C_3  and  C_24
    3  A    between atoms: C_7  and  C_24
    4  A    between atoms: O_11  and  C_22
    5  A    between atoms: O_11  and  C_29
    6  A    between atoms: C_12  and  C_24
    7  A    between atoms: C_14  and  C_26
    8  A    between atoms: N_17  and  C_26
    9  A    between atoms: N_17  and  C_38
   10  A    between atoms: C_23  and  C_26
   11  A    between atoms: C_33  and  C_34
                            x       y       z     vdW  Elec       q    Type
                         _______ _______ _______ _____ _____    ______ ____

>  <TORSDO>
F 11

$$$$
=
 OpenBabel11042416273D

 38 44  0  0  1  0  0  0  0  0999 V2000
  190.1270  176.2670  144.2410 C   0  0  2  0  0  3  0  0  0  0  0  0
  191.3150  177.1460  143.1730 S   0  0  0  0  0  0  0  0  0  0  0  0
  192.2280  174.8980  144.2860 C   0  0  2  0  0  3  0  0  0  0  0  0
  192.2590  175.6650  143.0570 N   0  0  0  0  0  0  0  0  0  0  0  0
  190.7920  175.0030  144.8130 C   0  0  1  0  0  3  0  0  0  0  0  0
  192.5650  175.0560  141.7920 C   0  0  0  0  0  0  0  0  0  0  0  0
  191.9650  173.5940  139.9520 C   0  0  0  0  0  0  0  0  0  0  0  0
  192.7140  172.4050  137.4340 C   0  0  0  0  0  2  0  0  0  0  0  0
  191.6560  174.1900  141.1750 C   0  0  0  0  0  3  0  0  0  0  0  0
  193.2100  173.8730  139.3480 C   0  0  0  0  0  0  0  0  0  0  0  0
  191.3910  172.1500  138.0910 C   0  0  0  0  0  0  0  0  0  0  0  0
  193.7890  175.3020  141.1590 C   0  0  0  0  0  3  0  0  0  0  0  0
  190.5510  171.3910  137.5430 O   0  0  0  0  0  0  0  0  0  0  0  0
  193.5440  173.3400  138.2060 N   0  0  0  0  0  0  0  0  0  0  0  0
  191.0810  172.7800  139.3770 C   0  0  0  0  0  3  0  0  0  0  0  0
  194.0790  174.7170  139.9660 N   0  0  0  0  0  0  0  0  0  0  0  0
  189.3390  174.4030  146.7430 C   0  0  0  0  0  2  0  0  0  0  0  0
  189.5880  175.8940  146.7950 C   0  0  0  0  0  2  0  0  0  0  0  0
  190.6890  174.9610  146.3340 C   0  0  0  0  0  3  0  0  0  0  0  0
  193.1490  175.4420  145.1890 O   0  0  0  0  0  0  0  0  0  0  0  0
  195.3190  175.0720  146.0720 C   0  0  0  0  0  2  0  0  0  0  0  0
  195.4560  175.6610  144.6870 C   0  0  0  0  0  2  0  0  0  0  0  0
  194.3190  174.7090  144.9930 C   0  0  0  0  0  3  0  0  0  0  0  0
  188.8510  175.9510  143.4530 C   0  0  2  0  0  3  0  0  0  0  0  0
  186.9480  177.5030  143.4690 C   0  0  1  0  0  3  0  0  0  0  0  0
  187.7720  177.7610  144.5800 O   0  0  0  0  0  0  0  0  0  0  0  0
  187.6180  176.4130  144.2120 C   0  0  2  0  0  3  0  0  0  0  0  0
  185.4810  177.5960  143.8820 C   0  0  1  0  0  3  0  0  0  0  0  0
  185.2800  178.6690  144.9730 C   0  0  2  0  0  0  0  0  0  0  0  0
  185.5380  180.1220  144.5930 C   0  0  0  0  0  1  0  0  0  0  0  0
  185.3990  178.2520  146.4430 C   0  0  2  0  0  3  0  0  0  0  0  0
  184.0320  178.4930  145.8160 C   0  0  0  0  0  2  0  0  0  0  0  0
  185.7360  179.4050  147.3750 C   0  0  0  0  0  1  0  0  0  0  0  0
  184.5910  177.7980  142.6530 C   0  0  0  0  0  2  0  0  0  0  0  0
  185.4280  177.9140  141.3930 C   0  0  0  0  0  1  0  0  0  0  0  0
  188.7500  174.5260  143.1610 N   0  0  0  0  0  2  0  0  0  0  0  0
  188.3670  175.2860  140.9930 O   0  0  0  0  0  1  0  0  0  0  0  0
  187.9360  174.3830  141.9650 C   0  0  0  0  0  2  0  0  0  0  0  0
  1 24  1  6  0  0  0
  1  5  1  0  0  0  0
  2  1  1  0  0  0  0
  3  5  1  0  0  0  0
  3 20  1  1  0  0  0
  4  2  1  0  0  0  0
  4  3  1  0  0  0  0
  5 19  1  1  0  0  0
  6  4  1  0  0  0  0
  7  9  1  0  0  0  0
  8 11  1  0  0  0  0
  8 14  1  0  0  0  0
  9  6  2  0  0  0  0
 10  7  1  0  0  0  0
 10 16  1  0  0  0  0
 11 15  1  0  0  0  0
 12  6  1  0  0  0  0
 13 11  2  0  0  0  0
 14 10  2  0  0  0  0
 15  7  2  0  0  0  0
 16 12  2  0  0  0  0
 17 18  1  0  0  0  0
 19 17  1  0  0  0  0
 19 18  1  0  0  0  0
 22 23  1  0  0  0  0
 22 21  1  0  0  0  0
 23 20  1  0  0  0  0
 23 21  1  0  0  0  0
 24 36  1  1  0  0  0
 25 28  1  1  0  0  0
 25 27  1  0  0  0  0
 25 26  1  0  0  0  0
 27 24  1  6  0  0  0
 27 26  1  0  0  0  0
 28 34  1  6  0  0  0
 28 29  1  0  0  0  0
 29 30  1  6  0  0  0
 29 32  1  0  0  0  0
 29 31  1  0  0  0  0
 31 33  1  1  0  0  0
 32 31  1  0  0  0  0
 35 34  1  0  0  0  0
 37 38  1  0  0  0  0
 38 36  1  0  0  0  0
M  END
>  <MODEL>
2

>  <REMARK>
 VINA RESULT:      -6.7      2.531      8.629
  Name = 
  11 active torsions:
  status: ('A' for Active; 'I' for Inactive)
    1  A    between atoms: C_1  and  N_31
    2  A    between atoms: C_3  and  C_24
    3  A    between atoms: C_7  and  C_24
    4  A    between atoms: O_11  and  C_22
    5  A    between atoms: O_11  and  C_29
    6  A    between atoms: C_12  and  C_24
    7  A    between atoms: C_14  and  C_26
    8  A    between atoms: N_17  and  C_26
    9  A    between atoms: N_17  and  C_38
   10  A    between atoms: C_23  and  C_26
   11  A    between atoms: C_33  and  C_34
                            x       y       z     vdW  Elec       q    Type
                         _______ _______ _______ _____ _____    ______ ____

>  <TORSDO>
F 11

$$$$
=
 OpenBabel11042416273D

 38 44  0  0  1  0  0  0  0  0999 V2000
  190.0440  176.3110  144.2020 C   0  0  2  0  0  3  0  0  0  0  0  0
  191.2420  177.1700  143.1300 S   0  0  0  0  0  0  0  0  0  0  0  0
  192.1460  174.9460  144.2960 C   0  0  2  0  0  3  0  0  0  0  0  0
  192.1890  175.6890  143.0530 N   0  0  0  0  0  0  0  0  0  0  0  0
  190.7040  175.0590  144.8060 C   0  0  1  0  0  3  0  0  0  0  0  0
  192.5100  175.0550  141.8040 C   0  0  0  0  0  0  0  0  0  0  0  0
  193.9930  174.7540  139.9080 C   0  0  0  0  0  0  0  0  0  0  0  0
  194.5010  173.4420  137.3910 C   0  0  0  0  0  2  0  0  0  0  0  0
  193.6940  175.3660  141.1260 C   0  0  0  0  0  3  0  0  0  0  0  0
  193.0820  173.8200  139.3680 C   0  0  0  0  0  0  0  0  0  0  0  0
  195.4580  174.4190  138.0060 C   0  0  0  0  0  0  0  0  0  0  0  0
  191.6340  174.1260  141.2300 C   0  0  0  0  0  3  0  0  0  0  0  0
  196.5370  174.6970  137.4220 O   0  0  0  0  0  0  0  0  0  0  0  0
  193.3170  173.2230  138.2320 N   0  0  0  0  0  0  0  0  0  0  0  0
  195.1290  175.0570  139.2830 C   0  0  0  0  0  3  0  0  0  0  0  0
  191.9370  173.5340  140.0430 N   0  0  0  0  0  0  0  0  0  0  0  0
  189.3840  174.2180  146.7420 C   0  0  0  0  0  2  0  0  0  0  0  0
  189.2970  175.7280  146.7410 C   0  0  0  0  0  2  0  0  0  0  0  0
  190.5850  175.0470  146.3260 C   0  0  0  0  0  3  0  0  0  0  0  0
  193.0560  175.5090  145.1980 O   0  0  0  0  0  0  0  0  0  0  0  0
  195.2320  175.2010  146.0930 C   0  0  0  0  0  2  0  0  0  0  0  0
  195.3580  175.5740  144.6330 C   0  0  0  0  0  2  0  0  0  0  0  0
  194.2000  174.7160  145.0950 C   0  0  0  0  0  3  0  0  0  0  0  0
  188.7770  175.9780  143.4070 C   0  0  2  0  0  3  0  0  0  0  0  0
  186.8890  177.5490  143.3860 C   0  0  1  0  0  3  0  0  0  0  0  0
  187.6970  177.8020  144.5100 O   0  0  0  0  0  0  0  0  0  0  0  0
  187.5350  176.4540  144.1430 C   0  0  2  0  0  3  0  0  0  0  0  0
  185.4160  177.6570  143.7730 C   0  0  1  0  0  3  0  0  0  0  0  0
  185.2150  178.6900  144.9020 C   0  0  2  0  0  0  0  0  0  0  0  0
  185.5320  180.1480  144.5920 C   0  0  0  0  0  1  0  0  0  0  0  0
  185.2740  178.2090  146.3560 C   0  0  2  0  0  3  0  0  0  0  0  0
  183.9370  178.5210  145.6990 C   0  0  0  0  0  2  0  0  0  0  0  0
  185.6180  179.3110  147.3460 C   0  0  0  0  0  1  0  0  0  0  0  0
  184.5560  177.9270  142.5350 C   0  0  0  0  0  2  0  0  0  0  0  0
  185.3980  177.8910  141.2740 C   0  0  0  0  0  1  0  0  0  0  0  0
  188.6800  174.5480  143.1430 N   0  0  0  0  0  2  0  0  0  0  0  0
  188.3670  175.4070  141.0010 O   0  0  0  0  0  1  0  0  0  0  0  0
  187.9910  174.3850  141.8730 C   0  0  0  0  0  2  0  0  0  0  0  0
  1 24  1  6  0  0  0
  1  5  1  0  0  0  0
  2  1  1  0  0  0  0
  3  5  1  0  0  0  0
  3 20  1  1  0  0  0
  4  2  1  0  0  0  0
  4  3  1  0  0  0  0
  5 19  1  1  0  0  0
  6  4  1  0  0  0  0
  7  9  1  0  0  0  0
  8 11  1  0  0  0  0
  8 14  1  0  0  0  0
  9  6  2  0  0  0  0
 10  7  1  0  0  0  0
 10 16  1  0  0  0  0
 11 15  1  0  0  0  0
 12  6  1  0  0  0  0
 13 11  2  0  0  0  0
 14 10  2  0  0  0  0
 15  7  2  0  0  0  0
 16 12  2  0  0  0  0
 18 17  1  0  0  0  0
 19 18  1  0  0  0  0
 19 17  1  0  0  0  0
 22 23  1  0  0  0  0
 22 21  1  0  0  0  0
 23 20  1  0  0  0  0
 23 21  1  0  0  0  0
 24 36  1  1  0  0  0
 25 28  1  1  0  0  0
 25 27  1  0  0  0  0
 25 26  1  0  0  0  0
 27 24  1  6  0  0  0
 27 26  1  0  0  0  0
 28 34  1  6  0  0  0
 28 29  1  0  0  0  0
 29 30  1  6  0  0  0
 29 32  1  0  0  0  0
 29 31  1  0  0  0  0
 31 33  1  1  0  0  0
 32 31  1  0  0  0  0
 35 34  1  0  0  0  0
 37 38  1  0  0  0  0
 38 36  1  0  0  0  0
M  END
>  <MODEL>
3

>  <REMARK>
 VINA RESULT:      -6.7      2.998      8.883
  Name = 
  11 active torsions:
  status: ('A' for Active; 'I' for Inactive)
    1  A    between atoms: C_1  and  N_31
    2  A    between atoms: C_3  and  C_24
    3  A    between atoms: C_7  and  C_24
    4  A    between atoms: O_11  and  C_22
    5  A    between atoms: O_11  and  C_29
    6  A    between atoms: C_12  and  C_24
    7  A    between atoms: C_14  and  C_26
    8  A    between atoms: N_17  and  C_26
    9  A    between atoms: N_17  and  C_38
   10  A    between atoms: C_23  and  C_26
   11  A    between atoms: C_33  and  C_34
                            x       y       z     vdW  Elec       q    Type
                         _______ _______ _______ _____ _____    ______ ____

>  <TORSDO>
F 11

$$$$
=
 OpenBabel11042416273D

 38 44  0  0  1  0  0  0  0  0999 V2000
  191.0370  174.9760  145.6080 C   0  0  2  0  0  3  0  0  0  0  0  0
  189.6800  173.9560  144.9440 S   0  0  0  0  0  0  0  0  0  0  0  0
  188.9940  176.4310  145.6720 C   0  0  2  0  0  3  0  0  0  0  0  0
  188.7570  175.4260  144.6560 N   0  0  0  0  0  0  0  0  0  0  0  0
  190.4940  176.3650  145.9880 C   0  0  1  0  0  3  0  0  0  0  0  0
  188.2670  175.7720  143.3500 C   0  0  0  0  0  0  0  0  0  0  0  0
  186.6620  176.9090  141.9300 C   0  0  0  0  0  0  0  0  0  0  0  0
  185.7570  177.5000  139.2560 C   0  0  0  0  0  2  0  0  0  0  0  0
  187.1380  176.5860  143.2000 C   0  0  0  0  0  3  0  0  0  0  0  0
  187.3330  176.4000  140.7960 C   0  0  0  0  0  0  0  0  0  0  0  0
  185.0840  178.0430  140.4800 C   0  0  0  0  0  0  0  0  0  0  0  0
  188.8990  175.2870  142.1980 C   0  0  0  0  0  3  0  0  0  0  0  0
  184.0810  178.7930  140.3670 O   0  0  0  0  0  0  0  0  0  0  0  0
  186.9260  176.6730  139.5880 N   0  0  0  0  0  0  0  0  0  0  0  0
  185.5920  177.6930  141.8090 C   0  0  0  0  0  3  0  0  0  0  0  0
  188.4270  175.6100  140.9640 N   0  0  0  0  0  0  0  0  0  0  0  0
  192.3410  176.7450  147.6120 C   0  0  0  0  0  2  0  0  0  0  0  0
  191.5430  175.5520  148.0870 C   0  0  0  0  0  2  0  0  0  0  0  0
  190.8350  176.7190  147.4320 C   0  0  0  0  0  3  0  0  0  0  0  0
  188.2180  176.1360  146.7980 O   0  0  0  0  0  0  0  0  0  0  0  0
  186.2380  176.8450  147.8960 C   0  0  0  0  0  2  0  0  0  0  0  0
  185.9690  176.7810  146.4100 C   0  0  0  0  0  2  0  0  0  0  0  0
  187.3320  177.2080  146.9130 C   0  0  0  0  0  3  0  0  0  0  0  0
  192.1790  175.0540  144.5890 C   0  0  2  0  0  3  0  0  0  0  0  0
  193.9980  173.4090  144.4700 C   0  0  1  0  0  3  0  0  0  0  0  0
  193.3310  173.2810  145.7010 O   0  0  0  0  0  0  0  0  0  0  0  0
  193.4870  174.5870  145.2050 C   0  0  2  0  0  3  0  0  0  0  0  0
  195.5040  173.2700  144.6810 C   0  0  1  0  0  3  0  0  0  0  0  0
  195.8990  171.7940  144.8960 C   0  0  2  0  0  0  0  0  0  0  0  0
  195.0680  170.7290  144.1910 C   0  0  0  0  0  1  0  0  0  0  0  0
  196.6650  171.4170  146.1680 C   0  0  2  0  0  3  0  0  0  0  0  0
  197.3880  171.5170  144.8320 C   0  0  0  0  0  2  0  0  0  0  0  0
  196.5200  169.9530  146.5530 C   0  0  0  0  0  1  0  0  0  0  0  0
  196.2690  173.9500  143.5420 C   0  0  0  0  0  2  0  0  0  0  0  0
  196.8820  175.2570  144.0070 C   0  0  0  0  0  1  0  0  0  0  0  0
  192.3300  176.4070  144.0680 N   0  0  0  0  0  2  0  0  0  0  0  0
  192.3680  175.4270  141.9560 O   0  0  0  0  0  1  0  0  0  0  0  0
  193.0390  176.3110  142.8020 C   0  0  0  0  0  2  0  0  0  0  0  0
  1 24  1  6  0  0  0
  1  5  1  0  0  0  0
  2  1  1  0  0  0  0
  3  5  1  0  0  0  0
  3 20  1  1  0  0  0
  4  2  1  0  0  0  0
  4  3  1  0  0  0  0
  5 19  1  1  0  0  0
  6  4  1  0  0  0  0
  7  9  1  0  0  0  0
  8 14  1  0  0  0  0
  8 11  1  0  0  0  0
  9  6  2  0  0  0  0
 10 16  1  0  0  0  0
 10  7  1  0  0  0  0
 11 15  1  0  0  0  0
 12  6  1  0  0  0  0
 13 11  2  0  0  0  0
 14 10  2  0  0  0  0
 15  7  2  0  0  0  0
 16 12  2  0  0  0  0
 17 18  1  0  0  0  0
 19 17  1  0  0  0  0
 19 18  1  0  0  0  0
 20 23  1  0  0  0  0
 22 23  1  0  0  0  0
 22 21  1  0  0  0  0
 23 21  1  0  0  0  0
 24 36  1  1  0  0  0
 25 28  1  1  0  0  0
 25 27  1  0  0  0  0
 25 26  1  0  0  0  0
 27 24  1  6  0  0  0
 27 26  1  0  0  0  0
 28 34  1  6  0  0  0
 28 29  1  0  0  0  0
 29 30  1  6  0  0  0
 29 31  1  0  0  0  0
 31 33  1  6  0  0  0
 32 29  1  0  0  0  0
 32 31  1  0  0  0  0
 34 35  1  0  0  0  0
 37 38  1  0  0  0  0
 38 36  1  0  0  0  0
M  END
>  <MODEL>
4

>  <REMARK>
 VINA RESULT:      -6.4      2.456      4.812
  Name = 
  11 active torsions:
  status: ('A' for Active; 'I' for Inactive)
    1  A    between atoms: C_1  and  N_31
    2  A    between atoms: C_3  and  C_24
    3  A    between atoms: C_7  and  C_24
    4  A    between atoms: O_11  and  C_22
    5  A    between atoms: O_11  and  C_29
    6  A    between atoms: C_12  and  C_24
    7  A    between atoms: C_14  and  C_26
    8  A    between atoms: N_17  and  C_26
    9  A    between atoms: N_17  and  C_38
   10  A    between atoms: C_23  and  C_26
   11  A    between atoms: C_33  and  C_34
                            x       y       z     vdW  Elec       q    Type
                         _______ _______ _______ _____ _____    ______ ____

>  <TORSDO>
F 11

$$$$
=
 OpenBabel11042416273D

 38 44  0  0  1  0  0  0  0  0999 V2000
  191.3640  173.3770  142.6020 C   0  0  2  0  0  3  0  0  0  0  0  0
  190.6950  172.8470  144.2130 S   0  0  0  0  0  0  0  0  0  0  0  0
  191.9980  175.1770  144.2310 C   0  0  2  0  0  3  0  0  0  0  0  0
  190.8400  174.5050  144.7840 N   0  0  0  0  0  0  0  0  0  0  0  0
  192.0890  174.7240  142.7680 C   0  0  1  0  0  3  0  0  0  0  0  0
  189.7100  175.2370  145.2880 C   0  0  0  0  0  0  0  0  0  0  0  0
  188.0230  176.9600  145.0250 C   0  0  0  0  0  0  0  0  0  0  0  0
  185.7870  178.3810  146.1640 C   0  0  0  0  0  2  0  0  0  0  0  0
  189.1130  176.2470  144.5250 C   0  0  0  0  0  3  0  0  0  0  0  0
  187.5330  176.6510  146.3130 C   0  0  0  0  0  0  0  0  0  0  0  0
  186.3160  178.6660  144.7910 C   0  0  0  0  0  0  0  0  0  0  0  0
  189.1930  174.9660  146.5610 C   0  0  0  0  0  3  0  0  0  0  0  0
  185.7810  179.5560  144.0810 O   0  0  0  0  0  0  0  0  0  0  0  0
  186.5180  177.2900  146.8240 N   0  0  0  0  0  0  0  0  0  0  0  0
  187.4640  177.9120  144.2800 C   0  0  0  0  0  3  0  0  0  0  0  0
  188.1290  175.6660  147.0370 N   0  0  0  0  0  0  0  0  0  0  0  0
  193.9420  176.0260  141.7340 C   0  0  0  0  0  2  0  0  0  0  0  0
  193.5150  174.9620  140.7480 C   0  0  0  0  0  2  0  0  0  0  0  0
  193.5160  174.6570  142.2320 C   0  0  0  0  0  3  0  0  0  0  0  0
  193.1350  174.8030  144.9570 O   0  0  0  0  0  0  0  0  0  0  0  0
  194.5700  176.6460  145.3700 C   0  0  0  0  0  2  0  0  0  0  0  0
  194.7030  175.6650  146.5130 C   0  0  0  0  0  2  0  0  0  0  0  0
  193.3620  175.8600  145.8380 C   0  0  0  0  0  3  0  0  0  0  0  0
  190.2380  173.4430  141.5650 C   0  0  2  0  0  3  0  0  0  0  0  0
  190.0220  172.1050  139.5170 C   0  0  1  0  0  3  0  0  0  0  0  0
  191.2940  171.8960  140.0820 O   0  0  0  0  0  0  0  0  0  0  0  0
  190.7770  173.2010  140.1650 C   0  0  2  0  0  3  0  0  0  0  0  0
  190.1420  172.2100  137.9990 C   0  0  1  0  0  3  0  0  0  0  0  0
  190.3670  170.8210  137.3630 C   0  0  2  0  0  0  0  0  0  0  0  0
  189.6920  169.6250  138.0220 C   0  0  0  0  0  1  0  0  0  0  0  0
  191.6290  170.5950  136.5240 C   0  0  2  0  0  3  0  0  0  0  0  0
  190.2760  170.7910  135.8510 C   0  0  0  0  0  2  0  0  0  0  0  0
  192.0340  169.1320  136.4210 C   0  0  0  0  0  1  0  0  0  0  0  0
  188.9420  172.9620  137.4180 C   0  0  0  0  0  2  0  0  0  0  0  0
  189.3840  174.2430  136.7370 C   0  0  0  0  0  1  0  0  0  0  0  0
  189.5480  174.7260  141.6170 N   0  0  0  0  0  2  0  0  0  0  0  0
  187.8160  173.2220  142.0130 O   0  0  0  0  0  1  0  0  0  0  0  0
  188.1260  174.4640  141.4590 C   0  0  0  0  0  2  0  0  0  0  0  0
  1 24  1  6  0  0  0
  1  5  1  0  0  0  0
  1  2  1  0  0  0  0
  2  4  1  0  0  0  0
  3  4  1  0  0  0  0
  3 20  1  1  0  0  0
  4  6  1  0  0  0  0
  5 19  1  1  0  0  0
  5  3  1  0  0  0  0
  6 12  1  0  0  0  0
  7 10  1  0  0  0  0
  8 14  1  0  0  0  0
  9  7  1  0  0  0  0
  9  6  2  0  0  0  0
 10 14  2  0  0  0  0
 10 16  1  0  0  0  0
 11  8  1  0  0  0  0
 12 16  2  0  0  0  0
 13 11  2  0  0  0  0
 15 11  1  0  0  0  0
 15  7  2  0  0  0  0
 17 19  1  0  0  0  0
 18 17  1  0  0  0  0
 18 19  1  0  0  0  0
 20 23  1  0  0  0  0
 21 23  1  0  0  0  0
 21 22  1  0  0  0  0
 23 22  1  0  0  0  0
 24 36  1  6  0  0  0
 25 28  1  6  0  0  0
 25 26  1  0  0  0  0
 25 27  1  0  0  0  0
 26 27  1  0  0  0  0
 27 24  1  1  0  0  0
 28 34  1  6  0  0  0
 29 28  1  0  0  0  0
 29 30  1  1  0  0  0
 31 33  1  1  0  0  0
 31 29  1  0  0  0  0
 32 31  1  0  0  0  0
 32 29  1  0  0  0  0
 35 34  1  0  0  0  0
 38 36  1  0  0  0  0
 38 37  1  0  0  0  0
M  END
>  <MODEL>
5

>  <REMARK>
 VINA RESULT:      -6.2      2.458      6.595
  Name = 
  11 active torsions:
  status: ('A' for Active; 'I' for Inactive)
    1  A    between atoms: C_1  and  N_31
    2  A    between atoms: C_3  and  C_24
    3  A    between atoms: C_7  and  C_24
    4  A    between atoms: O_11  and  C_22
    5  A    between atoms: O_11  and  C_29
    6  A    between atoms: C_12  and  C_24
    7  A    between atoms: C_14  and  C_26
    8  A    between atoms: N_17  and  C_26
    9  A    between atoms: N_17  and  C_38
   10  A    between atoms: C_23  and  C_26
   11  A    between atoms: C_33  and  C_34
                            x       y       z     vdW  Elec       q    Type
                         _______ _______ _______ _____ _____    ______ ____

>  <TORSDO>
F 11

$$$$
=
 OpenBabel11042416273D

 38 44  0  0  1  0  0  0  0  0999 V2000
  191.4680  176.2780  144.2210 C   0  0  2  0  0  3  0  0  0  0  0  0
  191.3370  175.8940  142.4440 S   0  0  0  0  0  0  0  0  0  0  0  0
  193.5350  174.9750  143.6490 C   0  0  2  0  0  3  0  0  0  0  0  0
  192.5350  174.6240  142.6600 N   0  0  0  0  0  0  0  0  0  0  0  0
  192.7800  175.6940  144.7750 C   0  0  1  0  0  3  0  0  0  0  0  0
  192.2650  173.2560  142.3120 C   0  0  0  0  0  0  0  0  0  0  0  0
  191.3320  171.6080  140.7970 C   0  0  0  0  0  0  0  0  0  0  0  0
  190.8150  168.8280  140.2310 C   0  0  0  0  0  2  0  0  0  0  0  0
  191.6000  172.9370  141.1230 C   0  0  0  0  0  3  0  0  0  0  0  0
  191.7370  170.5880  141.6860 C   0  0  0  0  0  0  0  0  0  0  0  0
  190.4210  169.9330  139.2980 C   0  0  0  0  0  0  0  0  0  0  0  0
  192.6450  172.2130  143.1660 C   0  0  0  0  0  3  0  0  0  0  0  0
  189.8410  169.6670  138.2150 O   0  0  0  0  0  0  0  0  0  0  0  0
  191.5080  169.3310  141.4250 N   0  0  0  0  0  0  0  0  0  0  0  0
  190.7060  171.3250  139.6550 C   0  0  0  0  0  3  0  0  0  0  0  0
  192.3800  170.9200  142.8370 N   0  0  0  0  0  0  0  0  0  0  0  0
  194.5140  176.1080  146.5120 C   0  0  0  0  0  2  0  0  0  0  0  0
  193.2390  176.7900  146.9560 C   0  0  0  0  0  2  0  0  0  0  0  0
  193.6060  176.7600  145.4870 C   0  0  0  0  0  3  0  0  0  0  0  0
  194.4910  175.8090  143.0570 O   0  0  0  0  0  0  0  0  0  0  0  0
  196.8370  175.8470  143.4060 C   0  0  0  0  0  2  0  0  0  0  0  0
  196.5720  175.6270  141.9340 C   0  0  0  0  0  2  0  0  0  0  0  0
  195.6420  175.0260  142.9670 C   0  0  0  0  0  3  0  0  0  0  0  0
  190.2350  175.7490  144.9620 C   0  0  2  0  0  3  0  0  0  0  0  0
  188.2130  177.0830  144.5550 C   0  0  1  0  0  3  0  0  0  0  0  0
  189.3450  177.9170  144.4930 O   0  0  0  0  0  0  0  0  0  0  0  0
  189.3700  176.8960  145.4590 C   0  0  2  0  0  3  0  0  0  0  0  0
  187.0830  177.8000  145.2900 C   0  0  1  0  0  3  0  0  0  0  0  0
  186.1240  178.4870  144.2940 C   0  0  2  0  0  0  0  0  0  0  0  0
  185.5690  179.8540  144.6760 C   0  0  0  0  0  1  0  0  0  0  0  0
  185.3400  177.6140  143.3090 C   0  0  2  0  0  3  0  0  0  0  0  0
  186.5520  178.4090  142.8420 C   0  0  0  0  0  2  0  0  0  0  0  0
  184.0730  178.2750  142.7880 C   0  0  0  0  0  1  0  0  0  0  0  0
  186.3810  176.8430  146.2560 C   0  0  0  0  0  2  0  0  0  0  0  0
  185.9460  177.5690  147.5150 C   0  0  0  0  0  1  0  0  0  0  0  0
  190.6170  174.8940  146.0790 N   0  0  0  0  0  2  0  0  0  0  0  0
  188.9370  174.4900  147.6400 O   0  0  0  0  0  1  0  0  0  0  0  0
  189.9320  175.3910  147.2620 C   0  0  0  0  0  2  0  0  0  0  0  0
  1  5  1  0  0  0  0
  1 24  1  1  0  0  0
  2  4  1  0  0  0  0
  2  1  1  0  0  0  0
  3 20  1  6  0  0  0
  3  5  1  0  0  0  0
  4  3  1  0  0  0  0
  5 19  1  6  0  0  0
  6  4  1  0  0  0  0
  6 12  1  0  0  0  0
  7  9  1  0  0  0  0
  7 10  1  0  0  0  0
  8 14  1  0  0  0  0
  9  6  2  0  0  0  0
 10 16  1  0  0  0  0
 11 15  1  0  0  0  0
 11  8  1  0  0  0  0
 13 11  2  0  0  0  0
 14 10  2  0  0  0  0
 15  7  2  0  0  0  0
 16 12  2  0  0  0  0
 17 18  1  0  0  0  0
 19 17  1  0  0  0  0
 19 18  1  0  0  0  0
 22 23  1  0  0  0  0
 22 21  1  0  0  0  0
 23 20  1  0  0  0  0
 23 21  1  0  0  0  0
 24 36  1  1  0  0  0
 25 28  1  1  0  0  0
 25 27  1  0  0  0  0
 26 25  1  0  0  0  0
 26 27  1  0  0  0  0
 27 24  1  6  0  0  0
 28 34  1  6  0  0  0
 29 30  1  1  0  0  0
 29 28  1  0  0  0  0
 31 33  1  6  0  0  0
 31 29  1  0  0  0  0
 32 31  1  0  0  0  0
 32 29  1  0  0  0  0
 34 35  1  0  0  0  0
 36 38  1  0  0  0  0
 38 37  1  0  0  0  0
M  END
>  <MODEL>
6

>  <REMARK>
 VINA RESULT:      -6.2      2.921      8.376
  Name = 
  11 active torsions:
  status: ('A' for Active; 'I' for Inactive)
    1  A    between atoms: C_1  and  N_31
    2  A    between atoms: C_3  and  C_24
    3  A    between atoms: C_7  and  C_24
    4  A    between atoms: O_11  and  C_22
    5  A    between atoms: O_11  and  C_29
    6  A    between atoms: C_12  and  C_24
    7  A    between atoms: C_14  and  C_26
    8  A    between atoms: N_17  and  C_26
    9  A    between atoms: N_17  and  C_38
   10  A    between atoms: C_23  and  C_26
   11  A    between atoms: C_33  and  C_34
                            x       y       z     vdW  Elec       q    Type
                         _______ _______ _______ _____ _____    ______ ____

>  <TORSDO>
F 11

$$$$
=
 OpenBabel11042416273D

 38 44  0  0  1  0  0  0  0  0999 V2000
  192.0890  177.1590  144.5120 C   0  0  2  0  0  3  0  0  0  0  0  0
  191.6710  177.4580  142.7630 S   0  0  0  0  0  0  0  0  0  0  0  0
  193.5310  175.5900  143.1870 C   0  0  2  0  0  3  0  0  0  0  0  0
  192.3840  175.9010  142.3570 N   0  0  0  0  0  0  0  0  0  0  0  0
  193.1710  176.0690  144.6000 C   0  0  1  0  0  3  0  0  0  0  0  0
  191.6370  174.8740  141.6860 C   0  0  0  0  0  0  0  0  0  0  0  0
  191.4640  173.1660  139.9730 C   0  0  0  0  0  0  0  0  0  0  0  0
  189.8460  171.1570  138.6830 C   0  0  0  0  0  2  0  0  0  0  0  0
  192.2000  174.1540  140.6260 C   0  0  0  0  0  3  0  0  0  0  0  0
  190.1410  172.9050  140.3920 C   0  0  0  0  0  0  0  0  0  0  0  0
  191.2620  171.4420  138.2790 C   0  0  0  0  0  0  0  0  0  0  0  0
  190.3210  174.5840  142.0670 C   0  0  0  0  0  3  0  0  0  0  0  0
  191.7940  170.7920  137.3440 O   0  0  0  0  0  0  0  0  0  0  0  0
  189.4130  171.9920  139.8120 N   0  0  0  0  0  0  0  0  0  0  0  0
  192.0220  172.4860  138.9730 C   0  0  0  0  0  3  0  0  0  0  0  0
  189.6130  173.6170  141.4230 N   0  0  0  0  0  0  0  0  0  0  0  0
  194.9970  175.3650  146.1380 C   0  0  0  0  0  2  0  0  0  0  0  0
  194.1020  176.3250  146.8890 C   0  0  0  0  0  2  0  0  0  0  0  0
  194.3710  176.5420  145.4140 C   0  0  0  0  0  3  0  0  0  0  0  0
  194.6530  176.2610  142.6870 O   0  0  0  0  0  0  0  0  0  0  0  0
  196.9080  175.6940  142.2210 C   0  0  0  0  0  2  0  0  0  0  0  0
  196.1550  175.7900  140.9140 C   0  0  0  0  0  2  0  0  0  0  0  0
  195.4600  175.2580  142.1490 C   0  0  0  0  0  3  0  0  0  0  0  0
  190.8230  176.7900  145.2950 C   0  0  2  0  0  3  0  0  0  0  0  0
  188.3980  176.9980  144.9680 C   0  0  1  0  0  3  0  0  0  0  0  0
  189.0610  177.3060  143.7660 O   0  0  0  0  0  0  0  0  0  0  0  0
  189.6820  177.7330  144.9530 C   0  0  2  0  0  3  0  0  0  0  0  0
  187.2390  177.9670  145.1830 C   0  0  1  0  0  3  0  0  0  0  0  0
  186.1750  177.8130  144.0750 C   0  0  2  0  0  0  0  0  0  0  0  0
  185.9350  176.4160  143.5160 C   0  0  0  0  0  1  0  0  0  0  0  0
  185.8380  179.0300  143.2080 C   0  0  2  0  0  3  0  0  0  0  0  0
  184.8920  178.5820  144.3130 C   0  0  0  0  0  2  0  0  0  0  0  0
  185.2410  178.6660  141.8570 C   0  0  0  0  0  1  0  0  0  0  0  0
  186.6740  177.8210  146.5990 C   0  0  0  0  0  2  0  0  0  0  0  0
  186.9100  176.4210  147.1330 C   0  0  0  0  0  1  0  0  0  0  0  0
  191.0690  176.8070  146.7320 N   0  0  0  0  0  2  0  0  0  0  0  0
  190.6490  174.5400  146.4040 O   0  0  0  0  0  1  0  0  0  0  0  0
  190.4730  175.6030  147.2900 C   0  0  0  0  0  2  0  0  0  0  0  0
  1  5  1  0  0  0  0
  1 24  1  1  0  0  0
  2  1  1  0  0  0  0
  3 20  1  6  0  0  0
  3  5  1  0  0  0  0
  4  2  1  0  0  0  0
  4  3  1  0  0  0  0
  5 19  1  6  0  0  0
  6 12  1  0  0  0  0
  6  4  1  0  0  0  0
  7 10  1  0  0  0  0
  7  9  1  0  0  0  0
  8 14  1  0  0  0  0
  9  6  2  0  0  0  0
 10 16  1  0  0  0  0
 11  8  1  0  0  0  0
 11 15  1  0  0  0  0
 13 11  2  0  0  0  0
 14 10  2  0  0  0  0
 15  7  2  0  0  0  0
 16 12  2  0  0  0  0
 17 18  1  0  0  0  0
 19 17  1  0  0  0  0
 19 18  1  0  0  0  0
 22 23  1  0  0  0  0
 22 21  1  0  0  0  0
 23 21  1  0  0  0  0
 23 20  1  0  0  0  0
 24 36  1  1  0  0  0
 25 28  1  6  0  0  0
 26 27  1  0  0  0  0
 26 25  1  0  0  0  0
 27 25  1  0  0  0  0
 27 24  1  1  0  0  0
 28 34  1  1  0  0  0
 29 30  1  6  0  0  0
 29 32  1  0  0  0  0
 29 28  1  0  0  0  0
 31 33  1  6  0  0  0
 31 29  1  0  0  0  0
 31 32  1  0  0  0  0
 34 35  1  0  0  0  0
 36 38  1  0  0  0  0
 37 38  1  0  0  0  0
M  END
>  <MODEL>
7

>  <REMARK>
 VINA RESULT:      -6.1      2.745      7.953
  Name = 
  11 active torsions:
  status: ('A' for Active; 'I' for Inactive)
    1  A    between atoms: C_1  and  N_31
    2  A    between atoms: C_3  and  C_24
    3  A    between atoms: C_7  and  C_24
    4  A    between atoms: O_11  and  C_22
    5  A    between atoms: O_11  and  C_29
    6  A    between atoms: C_12  and  C_24
    7  A    between atoms: C_14  and  C_26
    8  A    between atoms: N_17  and  C_26
    9  A    between atoms: N_17  and  C_38
   10  A    between atoms: C_23  and  C_26
   11  A    between atoms: C_33  and  C_34
                            x       y       z     vdW  Elec       q    Type
                         _______ _______ _______ _____ _____    ______ ____

>  <TORSDO>
F 11

$$$$
=
 OpenBabel11042416273D

 38 44  0  0  1  0  0  0  0  0999 V2000
  192.2920  174.7570  143.4870 C   0  0  2  0  0  3  0  0  0  0  0  0
  193.5680  176.0550  143.5820 S   0  0  0  0  0  0  0  0  0  0  0  0
  194.4910  173.5510  143.5670 C   0  0  2  0  0  3  0  0  0  0  0  0
  194.7630  174.8770  143.0530 N   0  0  0  0  0  0  0  0  0  0  0  0
  192.9680  173.3750  143.4940 C   0  0  1  0  0  3  0  0  0  0  0  0
  195.5650  175.0830  141.8790 C   0  0  0  0  0  0  0  0  0  0  0  0
  195.8130  175.0910  139.4660 C   0  0  0  0  0  0  0  0  0  0  0  0
  197.5370  175.4970  137.1900 C   0  0  0  0  0  2  0  0  0  0  0  0
  195.0250  174.8990  140.6010 C   0  0  0  0  0  3  0  0  0  0  0  0
  197.1650  175.4690  139.6240 C   0  0  0  0  0  0  0  0  0  0  0  0
  196.0920  175.1200  137.0580 C   0  0  0  0  0  0  0  0  0  0  0  0
  196.9110  175.4550  141.9890 C   0  0  0  0  0  3  0  0  0  0  0  0
  195.5820  174.9700  135.9180 O   0  0  0  0  0  0  0  0  0  0  0  0
  197.9410  175.6580  138.5940 N   0  0  0  0  0  0  0  0  0  0  0  0
  195.2770  174.9190  138.2590 C   0  0  0  0  0  3  0  0  0  0  0  0
  197.6690  175.6410  140.8750 N   0  0  0  0  0  0  0  0  0  0  0  0
  192.2940  171.0540  144.0910 C   0  0  0  0  0  2  0  0  0  0  0  0
  191.0600  171.9260  144.1500 C   0  0  0  0  0  2  0  0  0  0  0  0
  192.3980  172.4820  144.5920 C   0  0  0  0  0  3  0  0  0  0  0  0
  194.9550  173.4660  144.8850 O   0  0  0  0  0  0  0  0  0  0  0  0
  196.5040  171.9210  145.8020 C   0  0  0  0  0  2  0  0  0  0  0  0
  197.0140  173.3220  146.0530 C   0  0  0  0  0  2  0  0  0  0  0  0
  196.2680  173.0070  144.7730 C   0  0  0  0  0  3  0  0  0  0  0  0
  191.4170  174.9740  142.2480 C   0  0  2  0  0  3  0  0  0  0  0  0
  189.7600  176.4300  143.3260 C   0  0  1  0  0  3  0  0  0  0  0  0
  189.8530  175.2200  144.0370 O   0  0  0  0  0  0  0  0  0  0  0  0
  189.9570  175.1350  142.6380 C   0  0  2  0  0  3  0  0  0  0  0  0
  188.2980  176.8600  143.2270 C   0  0  1  0  0  3  0  0  0  0  0  0
  187.7470  177.2690  144.6100 C   0  0  2  0  0  0  0  0  0  0  0  0
  188.7550  177.5630  145.7140 C   0  0  0  0  0  1  0  0  0  0  0  0
  186.3290  176.8310  144.9930 C   0  0  2  0  0  3  0  0  0  0  0  0
  186.6070  178.2680  144.5700 C   0  0  0  0  0  2  0  0  0  0  0  0
  186.0940  176.7860  146.4950 C   0  0  0  0  0  1  0  0  0  0  0  0
  188.1300  177.9410  142.1560 C   0  0  0  0  0  2  0  0  0  0  0  0
  187.1640  177.4860  141.0770 C   0  0  0  0  0  1  0  0  0  0  0  0
  191.5600  173.8730  141.3020 N   0  0  0  0  0  2  0  0  0  0  0  0
  190.1790  173.5580  139.4540 O   0  0  0  0  0  1  0  0  0  0  0  0
  190.2260  173.5130  140.8470 C   0  0  0  0  0  2  0  0  0  0  0  0
  1 24  1  6  0  0  0
  1  5  1  0  0  0  0
  1  2  1  0  0  0  0
  3 20  1  1  0  0  0
  4  3  1  0  0  0  0
  4  2  1  0  0  0  0
  5  3  1  0  0  0  0
  5 19  1  1  0  0  0
  6 12  1  0  0  0  0
  6  4  1  0  0  0  0
  7 10  1  0  0  0  0
  7  9  1  0  0  0  0
  8 14  1  0  0  0  0
  9  6  2  0  0  0  0
 10 16  1  0  0  0  0
 11  8  1  0  0  0  0
 11 15  1  0  0  0  0
 13 11  2  0  0  0  0
 14 10  2  0  0  0  0
 15  7  2  0  0  0  0
 16 12  2  0  0  0  0
 17 18  1  0  0  0  0
 17 19  1  0  0  0  0
 18 19  1  0  0  0  0
 21 22  1  0  0  0  0
 23 20  1  0  0  0  0
 23 21  1  0  0  0  0
 23 22  1  0  0  0  0
 24 36  1  6  0  0  0
 25 28  1  6  0  0  0
 25 26  1  0  0  0  0
 27 24  1  1  0  0  0
 27 25  1  0  0  0  0
 27 26  1  0  0  0  0
 28 34  1  6  0  0  0
 28 29  1  0  0  0  0
 29 31  1  0  0  0  0
 29 30  1  1  0  0  0
 31 33  1  1  0  0  0
 32 29  1  0  0  0  0
 32 31  1  0  0  0  0
 35 34  1  0  0  0  0
 37 38  1  0  0  0  0
 38 36  1  0  0  0  0
M  END
>  <MODEL>
8

>  <REMARK>
 VINA RESULT:      -6.1      3.747      9.130
  Name = 
  11 active torsions:
  status: ('A' for Active; 'I' for Inactive)
    1  A    between atoms: C_1  and  N_31
    2  A    between atoms: C_3  and  C_24
    3  A    between atoms: C_7  and  C_24
    4  A    between atoms: O_11  and  C_22
    5  A    between atoms: O_11  and  C_29
    6  A    between atoms: C_12  and  C_24
    7  A    between atoms: C_14  and  C_26
    8  A    between atoms: N_17  and  C_26
    9  A    between atoms: N_17  and  C_38
   10  A    between atoms: C_23  and  C_26
   11  A    between atoms: C_33  and  C_34
                            x       y       z     vdW  Elec       q    Type
                         _______ _______ _______ _____ _____    ______ ____

>  <TORSDO>
F 11

$$$$
=
 OpenBabel11042416273D

 38 44  0  0  1  0  0  0  0  0999 V2000
  188.7690  177.6650  144.0610 C   0  0  2  0  0  3  0  0  0  0  0  0
  190.4710  178.2910  143.8720 S   0  0  0  0  0  0  0  0  0  0  0  0
  190.0870  176.6350  145.9300 C   0  0  2  0  0  3  0  0  0  0  0  0
  191.0370  176.9710  144.8890 N   0  0  0  0  0  0  0  0  0  0  0  0
  188.6990  176.7340  145.2840 C   0  0  1  0  0  3  0  0  0  0  0  0
  192.0240  176.0310  144.4340 C   0  0  0  0  0  0  0  0  0  0  0  0
  193.3860  174.0570  144.7990 C   0  0  0  0  0  0  0  0  0  0  0  0
  195.4050  172.2630  143.7880 C   0  0  0  0  0  2  0  0  0  0  0  0
  192.4190  174.9590  145.2430 C   0  0  0  0  0  3  0  0  0  0  0  0
  193.9640  174.2430  143.5240 C   0  0  0  0  0  0  0  0  0  0  0  0
  194.7520  172.0810  145.1250 C   0  0  0  0  0  0  0  0  0  0  0  0
  192.6260  176.1790  143.1790 C   0  0  0  0  0  3  0  0  0  0  0  0
  195.0780  171.1120  145.8580 O   0  0  0  0  0  0  0  0  0  0  0  0
  194.8720  173.4270  143.0660 N   0  0  0  0  0  0  0  0  0  0  0  0
  193.7410  173.0380  145.5800 C   0  0  0  0  0  3  0  0  0  0  0  0
  193.5670  175.2920  142.7550 N   0  0  0  0  0  0  0  0  0  0  0  0
  186.2540  176.6760  145.7480 C   0  0  0  0  0  2  0  0  0  0  0  0
  186.6550  178.1200  145.5490 C   0  0  0  0  0  2  0  0  0  0  0  0
  187.6000  177.1660  146.2490 C   0  0  0  0  0  3  0  0  0  0  0  0
  190.2280  177.5410  146.9880 O   0  0  0  0  0  0  0  0  0  0  0  0
  191.3120  177.7540  149.0860 C   0  0  0  0  0  2  0  0  0  0  0  0
  192.2900  177.1660  148.0960 C   0  0  0  0  0  2  0  0  0  0  0  0
  190.8220  176.8050  148.0130 C   0  0  0  0  0  3  0  0  0  0  0  0
  188.3220  176.9700  142.7700 C   0  0  2  0  0  3  0  0  0  0  0  0
  188.4860  174.6520  141.9760 C   0  0  1  0  0  3  0  0  0  0  0  0
  189.0260  174.7420  143.2720 O   0  0  0  0  0  0  0  0  0  0  0  0
  189.2640  175.8310  142.4150 C   0  0  2  0  0  3  0  0  0  0  0  0
  189.3560  173.7390  141.1160 C   0  0  1  0  0  3  0  0  0  0  0  0
  189.7790  172.4780  141.8990 C   0  0  2  0  0  0  0  0  0  0  0  0
  188.7950  171.9160  142.9180 C   0  0  0  0  0  1  0  0  0  0  0  0
  191.2740  172.1860  142.0690 C   0  0  2  0  0  3  0  0  0  0  0  0
  190.4410  171.4010  141.0630 C   0  0  0  0  0  2  0  0  0  0  0  0
  191.5870  171.2980  143.2640 C   0  0  0  0  0  1  0  0  0  0  0  0
  188.6600  173.4300  139.7880 C   0  0  0  0  0  2  0  0  0  0  0  0
  189.5500  173.7910  138.6140 C   0  0  0  0  0  1  0  0  0  0  0  0
  188.2440  177.9140  141.6620 N   0  0  0  0  0  2  0  0  0  0  0  0
  186.0730  178.6660  142.0460 O   0  0  0  0  0  1  0  0  0  0  0  0
  186.8700  177.9120  141.1850 C   0  0  0  0  0  2  0  0  0  0  0  0
  1 24  1  6  0  0  0
  1  5  1  0  0  0  0
  2  1  1  0  0  0  0
  2  4  1  0  0  0  0
  3 20  1  1  0  0  0
  4  3  1  0  0  0  0
  5  3  1  0  0  0  0
  5 19  1  1  0  0  0
  6  4  1  0  0  0  0
  6  9  2  0  0  0  0
  7  9  1  0  0  0  0
  7 15  2  0  0  0  0
  8 11  1  0  0  0  0
 10  7  1  0  0  0  0
 11 15  1  0  0  0  0
 11 13  2  0  0  0  0
 12  6  1  0  0  0  0
 14 10  2  0  0  0  0
 14  8  1  0  0  0  0
 16 12  2  0  0  0  0
 16 10  1  0  0  0  0
 17 19  1  0  0  0  0
 18 17  1  0  0  0  0
 18 19  1  0  0  0  0
 20 23  1  0  0  0  0
 22 21  1  0  0  0  0
 23 22  1  0  0  0  0
 23 21  1  0  0  0  0
 24 36  1  6  0  0  0
 25 28  1  6  0  0  0
 25 27  1  0  0  0  0
 25 26  1  0  0  0  0
 27 24  1  1  0  0  0
 27 26  1  0  0  0  0
 28 34  1  6  0  0  0
 28 29  1  0  0  0  0
 29 31  1  0  0  0  0
 29 30  1  1  0  0  0
 31 33  1  1  0  0  0
 32 29  1  0  0  0  0
 32 31  1  0  0  0  0
 35 34  1  0  0  0  0
 38 36  1  0  0  0  0
 38 37  1  0  0  0  0
M  END
>  <MODEL>
9

>  <REMARK>
 VINA RESULT:      -6.0      2.396      7.778
  Name = 
  11 active torsions:
  status: ('A' for Active; 'I' for Inactive)
    1  A    between atoms: C_1  and  N_31
    2  A    between atoms: C_3  and  C_24
    3  A    between atoms: C_7  and  C_24
    4  A    between atoms: O_11  and  C_22
    5  A    between atoms: O_11  and  C_29
    6  A    between atoms: C_12  and  C_24
    7  A    between atoms: C_14  and  C_26
    8  A    between atoms: N_17  and  C_26
    9  A    between atoms: N_17  and  C_38
   10  A    between atoms: C_23  and  C_26
   11  A    between atoms: C_33  and  C_34
                            x       y       z     vdW  Elec       q    Type
                         _______ _______ _______ _____ _____    ______ ____

>  <TORSDO>
F 11

$$$$
