=
 OpenBabel11042418193D

 35 38  0  0  0  0  0  0  0  0999 V2000
  194.8330  175.9440  146.2600 C   0  0  0  0  0  3  0  0  0  0  0  0
  195.1930  174.7220  145.6870 C   0  0  0  0  0  0  0  0  0  0  0  0
  194.2020  173.7720  145.3690 C   0  0  0  0  0  0  0  0  0  0  0  0
  196.5390  174.4590  145.4570 O   0  0  0  0  0  1  0  0  0  0  0  0
  193.4920  176.2340  146.5200 C   0  0  0  0  0  3  0  0  0  0  0  0
  192.8580  174.0810  145.6320 C   0  0  0  0  0  3  0  0  0  0  0  0
  192.4890  175.3040  146.2110 C   0  0  0  0  0  0  0  0  0  0  0  0
  190.6170  176.9370  146.5520 C   0  0  0  0  0  3  0  0  0  0  0  0
  190.1380  174.5730  146.6850 C   0  0  0  0  0  3  0  0  0  0  0  0
  188.7940  174.8600  146.9430 C   0  0  0  0  0  3  0  0  0  0  0  0
  191.0650  175.6090  146.4850 C   0  0  0  0  0  0  0  0  0  0  0  0
  188.3490  176.1830  147.0060 C   0  0  0  0  0  0  0  0  0  0  0  0
  189.2730  177.2220  146.8090 C   0  0  0  0  0  3  0  0  0  0  0  0
  186.9900  176.4170  147.2640 O   0  0  0  0  0  0  0  0  0  0  0  0
  186.3010  177.6250  147.0700 C   0  0  0  0  0  0  0  0  0  0  0  0
  186.2220  178.4850  147.9890 O   0  0  0  0  0  0  0  0  0  0  0  0
  185.2410  177.5930  143.4670 C   0  0  0  0  0  2  0  0  0  0  0  0
  185.7260  176.9110  144.7290 C   0  0  0  0  0  2  0  0  0  0  0  0
  184.1230  178.9440  143.9410 S   0  0  0  0  0  0  0  0  0  0  0  0
  185.6820  177.8830  145.8050 N   0  0  0  0  0  0  0  0  0  0  0  0
  184.9670  179.1180  145.5390 C   0  0  0  0  0  2  0  0  0  0  0  0
  194.5460  172.4780  144.7250 C   0  0  0  0  0  0  0  0  0  0  0  0
  194.8010  172.3570  143.4180 C   0  0  0  0  0  3  0  0  0  0  0  0
  194.7210  170.3350  146.1800 N   0  0  0  0  0  0  0  0  0  0  0  0
  194.6440  171.2910  145.5310 C   0  0  0  0  0  0  0  0  0  0  0  0
  194.7180  173.4810  142.4400 C   0  0  0  0  0  2  0  0  0  0  0  0
  193.3170  173.5590  141.8750 C   0  0  0  0  0  2  0  0  0  0  0  0
  188.7540  175.5020  143.3030 C   0  0  0  0  0  3  0  0  0  0  0  0
  190.9210  176.4050  142.8490 C   0  0  0  0  0  0  0  0  0  0  0  0
  189.5430  176.5360  143.2260 N   0  0  0  0  0  0  0  0  0  0  0  0
  190.5130  173.9290  142.6490 C   0  0  0  0  0  3  0  0  0  0  0  0
  191.4520  175.0630  142.5440 C   0  0  0  0  0  0  0  0  0  0  0  0
  189.2420  174.1380  143.0060 C   0  0  0  0  0  3  0  0  0  0  0  0
  191.6530  177.4280  142.7870 O   0  0  0  0  0  0  0  0  0  0  0  0
  192.7290  174.8940  142.1910 C   0  0  0  0  0  3  0  0  0  0  0  0
  1  5  1  0  0  0  0
  2  1  2  0  0  0  0
  3  6  2  0  0  0  0
  3  2  1  0  0  0  0
  4  2  1  0  0  0  0
  6  7  1  0  0  0  0
  7 11  1  0  0  0  0
  7  5  2  0  0  0  0
  8 13  1  0  0  0  0
  9 10  2  0  0  0  0
 10 12  1  0  0  0  0
 11  8  2  0  0  0  0
 11  9  1  0  0  0  0
 12 14  1  0  0  0  0
 13 12  2  0  0  0  0
 15 14  1  0  0  0  0
 15 16  2  0  0  0  0
 17 19  1  0  0  0  0
 17 18  1  0  0  0  0
 18 20  1  0  0  0  0
 19 21  1  0  0  0  0
 20 15  1  0  0  0  0
 21 20  1  0  0  0  0
 22  3  1  0  0  0  0
 22 25  1  0  0  0  0
 23 22  2  0  0  0  0
 25 24  3  0  0  0  0
 26 23  1  0  0  0  0
 27 35  1  0  0  0  0
 27 26  1  0  0  0  0
 29 30  1  0  0  0  0
 30 28  2  0  0  0  0
 31 33  2  0  0  0  0
 32 31  1  0  0  0  0
 32 29  1  0  0  0  0
 33 28  1  0  0  0  0
 34 29  2  0  0  0  0
 35 32  2  0  0  0  0
M  END
>  <MODEL>
1

>  <REMARK>
 VINA RESULT:      -7.4      0.000      0.000
  Name = 
  8 active torsions:
  status: ('A' for Active; 'I' for Inactive)
    1  A    between atoms: C_2  and  O_26
    2  A    between atoms: C_8  and  C_11
    3  A    between atoms: C_8  and  C_21
    4  A    between atoms: C_14  and  C_16
    5  A    between atoms: C_14  and  C_31
    6  A    between atoms: O_26  and  C_34
    7  A    between atoms: C_28  and  C_33
    8  A    between atoms: C_31  and  C_32
                            x       y       z     vdW  Elec       q    Type
                         _______ _______ _______ _____ _____    ______ ____

>  <TORSDO>
F 8

$$$$
=
 OpenBabel11042418193D

 35 38  0  0  0  0  0  0  0  0999 V2000
  187.3950  176.1860  147.0680 C   0  0  0  0  0  3  0  0  0  0  0  0
  186.5910  176.7780  146.0910 C   0  0  0  0  0  0  0  0  0  0  0  0
  187.1810  177.3780  144.9600 C   0  0  0  0  0  0  0  0  0  0  0  0
  185.2120  176.7790  146.2660 O   0  0  0  0  0  1  0  0  0  0  0  0
  188.7850  176.1830  146.9320 C   0  0  0  0  0  3  0  0  0  0  0  0
  188.5790  177.3620  144.8370 C   0  0  0  0  0  3  0  0  0  0  0  0
  189.3930  176.7730  145.8150 C   0  0  0  0  0  0  0  0  0  0  0  0
  191.4660  177.1380  144.4530 C   0  0  0  0  0  3  0  0  0  0  0  0
  191.6920  176.4000  146.7430 C   0  0  0  0  0  3  0  0  0  0  0  0
  193.0830  176.3990  146.6050 C   0  0  0  0  0  3  0  0  0  0  0  0
  190.8670  176.7710  145.6680 C   0  0  0  0  0  0  0  0  0  0  0  0
  193.6780  176.7680  145.3950 C   0  0  0  0  0  0  0  0  0  0  0  0
  192.8570  177.1380  144.3180 C   0  0  0  0  0  3  0  0  0  0  0  0
  195.0780  176.7530  145.3100 O   0  0  0  0  0  0  0  0  0  0  0  0
  195.8480  176.0760  144.3490 C   0  0  0  0  0  0  0  0  0  0  0  0
  196.0910  176.5960  143.2270 O   0  0  0  0  0  0  0  0  0  0  0  0
  196.9960  172.9260  146.0410 C   0  0  0  0  0  2  0  0  0  0  0  0
  196.0880  174.1320  145.9240 C   0  0  0  0  0  2  0  0  0  0  0  0
  197.4080  172.3560  144.3660 S   0  0  0  0  0  0  0  0  0  0  0  0
  196.3650  174.7770  144.6560 N   0  0  0  0  0  0  0  0  0  0  0  0
  197.1770  174.0330  143.7100 C   0  0  0  0  0  2  0  0  0  0  0  0
  186.3540  177.9840  143.8850 C   0  0  0  0  0  0  0  0  0  0  0  0
  186.0680  177.3540  142.7400 C   0  0  0  0  0  3  0  0  0  0  0  0
  185.3580  180.3570  144.2230 N   0  0  0  0  0  0  0  0  0  0  0  0
  185.8020  179.2990  144.0720 C   0  0  0  0  0  0  0  0  0  0  0  0
  186.5800  176.0010  142.3770 C   0  0  0  0  0  2  0  0  0  0  0  0
  187.8880  176.1380  141.6280 C   0  0  0  0  0  2  0  0  0  0  0  0
  190.4080  172.0280  143.4690 C   0  0  0  0  0  3  0  0  0  0  0  0
  189.4000  172.6110  141.3810 C   0  0  0  0  0  0  0  0  0  0  0  0
  190.1130  171.7110  142.2410 N   0  0  0  0  0  0  0  0  0  0  0  0
  189.3530  174.2320  143.3070 C   0  0  0  0  0  3  0  0  0  0  0  0
  188.9920  173.9270  141.9080 C   0  0  0  0  0  0  0  0  0  0  0  0
  190.0210  173.3360  144.0400 C   0  0  0  0  0  3  0  0  0  0  0  0
  189.1320  172.2690  140.1990 O   0  0  0  0  0  0  0  0  0  0  0  0
  188.3260  174.7970  141.1440 C   0  0  0  0  0  3  0  0  0  0  0  0
  2  4  1  0  0  0  0
  2  1  2  0  0  0  0
  3  2  1  0  0  0  0
  5  1  1  0  0  0  0
  6  3  2  0  0  0  0
  6  7  1  0  0  0  0
  7  5  2  0  0  0  0
  8 11  1  0  0  0  0
 10  9  1  0  0  0  0
 11  7  1  0  0  0  0
 11  9  2  0  0  0  0
 12 10  2  0  0  0  0
 13  8  2  0  0  0  0
 13 12  1  0  0  0  0
 14 12  1  0  0  0  0
 15 20  1  0  0  0  0
 15 14  1  0  0  0  0
 16 15  2  0  0  0  0
 18 17  1  0  0  0  0
 19 17  1  0  0  0  0
 20 18  1  0  0  0  0
 21 19  1  0  0  0  0
 21 20  1  0  0  0  0
 22 25  1  0  0  0  0
 22  3  1  0  0  0  0
 23 22  2  0  0  0  0
 25 24  3  0  0  0  0
 26 23  1  0  0  0  0
 27 26  1  0  0  0  0
 28 33  1  0  0  0  0
 29 32  1  0  0  0  0
 29 30  1  0  0  0  0
 30 28  2  0  0  0  0
 31 33  2  0  0  0  0
 32 31  1  0  0  0  0
 34 29  2  0  0  0  0
 35 27  1  0  0  0  0
 35 32  2  0  0  0  0
M  END
>  <MODEL>
2

>  <REMARK>
 VINA RESULT:      -7.4      3.451      8.203
  Name = 
  8 active torsions:
  status: ('A' for Active; 'I' for Inactive)
    1  A    between atoms: C_2  and  O_26
    2  A    between atoms: C_8  and  C_11
    3  A    between atoms: C_8  and  C_21
    4  A    between atoms: C_14  and  C_16
    5  A    between atoms: C_14  and  C_31
    6  A    between atoms: O_26  and  C_34
    7  A    between atoms: C_28  and  C_33
    8  A    between atoms: C_31  and  C_32
                            x       y       z     vdW  Elec       q    Type
                         _______ _______ _______ _____ _____    ______ ____

>  <TORSDO>
F 8

$$$$
=
 OpenBabel11042418193D

 35 38  0  0  0  0  0  0  0  0999 V2000
  187.2750  176.2030  147.1300 C   0  0  0  0  0  3  0  0  0  0  0  0
  186.5170  176.8000  146.1190 C   0  0  0  0  0  0  0  0  0  0  0  0
  187.1560  177.3610  144.9950 C   0  0  0  0  0  0  0  0  0  0  0  0
  185.1340  176.8440  146.2540 O   0  0  0  0  0  1  0  0  0  0  0  0
  188.6670  176.1560  147.0340 C   0  0  0  0  0  3  0  0  0  0  0  0
  188.5560  177.3010  144.9130 C   0  0  0  0  0  3  0  0  0  0  0  0
  189.3240  176.7070  145.9250 C   0  0  0  0  0  0  0  0  0  0  0  0
  191.5910  176.3960  146.9510 C   0  0  0  0  0  3  0  0  0  0  0  0
  191.4380  176.8770  144.5880 C   0  0  0  0  0  3  0  0  0  0  0  0
  192.8320  176.8310  144.4890 C   0  0  0  0  0  3  0  0  0  0  0  0
  190.8020  176.6590  145.8200 C   0  0  0  0  0  0  0  0  0  0  0  0
  193.6160  176.5650  145.6150 C   0  0  0  0  0  0  0  0  0  0  0  0
  192.9840  176.3480  146.8490 C   0  0  0  0  0  3  0  0  0  0  0  0
  195.0100  176.5270  145.4610 O   0  0  0  0  0  0  0  0  0  0  0  0
  195.7720  175.4230  145.0430 C   0  0  0  0  0  0  0  0  0  0  0  0
  195.9340  174.4220  145.7930 O   0  0  0  0  0  0  0  0  0  0  0  0
  196.7240  176.1650  141.4870 C   0  0  0  0  0  2  0  0  0  0  0  0
  196.2310  176.5780  142.8580 C   0  0  0  0  0  2  0  0  0  0  0  0
  197.9410  174.8330  141.6940 S   0  0  0  0  0  0  0  0  0  0  0  0
  196.3700  175.4370  143.7430 N   0  0  0  0  0  0  0  0  0  0  0  0
  197.1570  174.3210  143.2490 C   0  0  0  0  0  2  0  0  0  0  0  0
  186.3790  177.9700  143.8850 C   0  0  0  0  0  0  0  0  0  0  0  0
  186.1330  177.3380  142.7330 C   0  0  0  0  0  3  0  0  0  0  0  0
  185.3910  180.3530  144.1770 N   0  0  0  0  0  0  0  0  0  0  0  0
  185.8320  179.2900  144.0470 C   0  0  0  0  0  0  0  0  0  0  0  0
  186.6480  175.9790  142.3950 C   0  0  0  0  0  2  0  0  0  0  0  0
  187.9390  176.1060  141.6170 C   0  0  0  0  0  2  0  0  0  0  0  0
  190.3310  171.9530  143.5310 C   0  0  0  0  0  3  0  0  0  0  0  0
  189.3980  172.5530  141.4140 C   0  0  0  0  0  0  0  0  0  0  0  0
  190.0680  171.6410  142.2940 N   0  0  0  0  0  0  0  0  0  0  0  0
  189.3200  174.1740  143.3380 C   0  0  0  0  0  3  0  0  0  0  0  0
  188.9960  173.8760  141.9290 C   0  0  0  0  0  0  0  0  0  0  0  0
  189.9490  173.2660  144.0910 C   0  0  0  0  0  3  0  0  0  0  0  0
  189.1600  172.2160  140.2240 O   0  0  0  0  0  0  0  0  0  0  0  0
  188.3690  174.7570  141.1460 C   0  0  0  0  0  3  0  0  0  0  0  0
  2  4  1  0  0  0  0
  2  1  2  0  0  0  0
  3  2  1  0  0  0  0
  5  1  1  0  0  0  0
  6  3  2  0  0  0  0
  6  7  1  0  0  0  0
  7  5  2  0  0  0  0
  9 11  1  0  0  0  0
 10  9  2  0  0  0  0
 10 12  1  0  0  0  0
 11  7  1  0  0  0  0
 11  8  2  0  0  0  0
 12 13  2  0  0  0  0
 13  8  1  0  0  0  0
 14 12  1  0  0  0  0
 15 14  1  0  0  0  0
 15 16  2  0  0  0  0
 17 19  1  0  0  0  0
 17 18  1  0  0  0  0
 18 20  1  0  0  0  0
 19 21  1  0  0  0  0
 20 15  1  0  0  0  0
 21 20  1  0  0  0  0
 22 25  1  0  0  0  0
 22  3  1  0  0  0  0
 23 22  2  0  0  0  0
 25 24  3  0  0  0  0
 26 23  1  0  0  0  0
 27 26  1  0  0  0  0
 28 33  1  0  0  0  0
 29 32  1  0  0  0  0
 29 30  1  0  0  0  0
 30 28  2  0  0  0  0
 31 33  2  0  0  0  0
 32 31  1  0  0  0  0
 34 29  2  0  0  0  0
 35 27  1  0  0  0  0
 35 32  2  0  0  0  0
M  END
>  <MODEL>
3

>  <REMARK>
 VINA RESULT:      -6.9      3.508      8.118
  Name = 
  8 active torsions:
  status: ('A' for Active; 'I' for Inactive)
    1  A    between atoms: C_2  and  O_26
    2  A    between atoms: C_8  and  C_11
    3  A    between atoms: C_8  and  C_21
    4  A    between atoms: C_14  and  C_16
    5  A    between atoms: C_14  and  C_31
    6  A    between atoms: O_26  and  C_34
    7  A    between atoms: C_28  and  C_33
    8  A    between atoms: C_31  and  C_32
                            x       y       z     vdW  Elec       q    Type
                         _______ _______ _______ _____ _____    ______ ____

>  <TORSDO>
F 8

$$$$
=
 OpenBabel11042418193D

 35 38  0  0  0  0  0  0  0  0999 V2000
  191.2330  177.9220  143.1700 C   0  0  0  0  0  3  0  0  0  0  0  0
  191.6550  177.3130  144.3530 C   0  0  0  0  0  0  0  0  0  0  0  0
  190.7080  176.8920  145.3080 C   0  0  0  0  0  0  0  0  0  0  0  0
  193.0180  177.1490  144.5750 O   0  0  0  0  0  1  0  0  0  0  0  0
  189.8720  178.1180  142.9220 C   0  0  0  0  0  3  0  0  0  0  0  0
  189.3440  177.0920  145.0420 C   0  0  0  0  0  3  0  0  0  0  0  0
  188.9120  177.7060  143.8580 C   0  0  0  0  0  0  0  0  0  0  0  0
  186.5100  177.5680  144.5650 C   0  0  0  0  0  3  0  0  0  0  0  0
  187.0310  178.4560  142.3790 C   0  0  0  0  0  3  0  0  0  0  0  0
  185.6680  178.6510  142.1340 C   0  0  0  0  0  3  0  0  0  0  0  0
  187.4670  177.9120  143.5980 C   0  0  0  0  0  0  0  0  0  0  0  0
  184.7170  178.3100  143.1000 C   0  0  0  0  0  0  0  0  0  0  0  0
  185.1490  177.7650  144.3190 C   0  0  0  0  0  3  0  0  0  0  0  0
  183.3630  178.5300  142.8050 O   0  0  0  0  0  0  0  0  0  0  0  0
  182.7280  178.2910  141.5750 C   0  0  0  0  0  0  0  0  0  0  0  0
  183.3760  177.8680  140.5800 O   0  0  0  0  0  0  0  0  0  0  0  0
  179.0780  178.9080  142.2070 C   0  0  0  0  0  2  0  0  0  0  0  0
  180.5430  179.0400  142.5660 C   0  0  0  0  0  2  0  0  0  0  0  0
  178.9270  178.9530  140.3970 S   0  0  0  0  0  0  0  0  0  0  0  0
  181.3220  178.5290  141.4550 N   0  0  0  0  0  0  0  0  0  0  0  0
  180.6070  178.2890  140.2140 C   0  0  0  0  0  2  0  0  0  0  0  0
  191.1200  176.2070  146.5600 C   0  0  0  0  0  0  0  0  0  0  0  0
  191.4920  174.9240  146.6030 C   0  0  0  0  0  3  0  0  0  0  0  0
  191.1810  177.5440  148.7850 N   0  0  0  0  0  0  0  0  0  0  0  0
  191.1540  176.9480  147.7930 C   0  0  0  0  0  0  0  0  0  0  0  0
  191.4890  174.0100  145.4240 C   0  0  0  0  0  2  0  0  0  0  0  0
  190.1150  173.3980  145.2610 C   0  0  0  0  0  2  0  0  0  0  0  0
  188.5770  173.8740  140.3580 C   0  0  0  0  0  3  0  0  0  0  0  0
  189.5940  172.1470  141.6620 C   0  0  0  0  0  0  0  0  0  0  0  0
  189.0590  172.6660  140.4370 N   0  0  0  0  0  0  0  0  0  0  0  0
  189.0390  174.3670  142.7110 C   0  0  0  0  0  3  0  0  0  0  0  0
  189.5970  173.0090  142.8600 C   0  0  0  0  0  0  0  0  0  0  0  0
  188.5590  174.7720  141.5310 C   0  0  0  0  0  3  0  0  0  0  0  0
  190.0520  170.9750  141.6990 O   0  0  0  0  0  0  0  0  0  0  0  0
  190.0860  172.5680  144.0220 C   0  0  0  0  0  3  0  0  0  0  0  0
  1  2  1  0  0  0  0
  2  4  1  0  0  0  0
  2  3  2  0  0  0  0
  3 22  1  0  0  0  0
  5  1  2  0  0  0  0
  5  7  1  0  0  0  0
  6  3  1  0  0  0  0
  7  6  2  0  0  0  0
  9 11  1  0  0  0  0
 10  9  2  0  0  0  0
 10 12  1  0  0  0  0
 11  7  1  0  0  0  0
 11  8  2  0  0  0  0
 12 13  2  0  0  0  0
 13  8  1  0  0  0  0
 14 12  1  0  0  0  0
 15 14  1  0  0  0  0
 16 15  2  0  0  0  0
 17 18  1  0  0  0  0
 19 17  1  0  0  0  0
 20 15  1  0  0  0  0
 20 18  1  0  0  0  0
 21 19  1  0  0  0  0
 21 20  1  0  0  0  0
 22 23  2  0  0  0  0
 22 25  1  0  0  0  0
 25 24  3  0  0  0  0
 26 23  1  0  0  0  0
 27 26  1  0  0  0  0
 28 30  2  0  0  0  0
 28 33  1  0  0  0  0
 29 34  2  0  0  0  0
 29 32  1  0  0  0  0
 30 29  1  0  0  0  0
 31 32  1  0  0  0  0
 32 35  2  0  0  0  0
 33 31  2  0  0  0  0
 35 27  1  0  0  0  0
M  END
>  <MODEL>
4

>  <REMARK>
 VINA RESULT:      -6.8      3.608      5.494
  Name = 
  8 active torsions:
  status: ('A' for Active; 'I' for Inactive)
    1  A    between atoms: C_2  and  O_26
    2  A    between atoms: C_8  and  C_11
    3  A    between atoms: C_8  and  C_21
    4  A    between atoms: C_14  and  C_16
    5  A    between atoms: C_14  and  C_31
    6  A    between atoms: O_26  and  C_34
    7  A    between atoms: C_28  and  C_33
    8  A    between atoms: C_31  and  C_32
                            x       y       z     vdW  Elec       q    Type
                         _______ _______ _______ _____ _____    ______ ____

>  <TORSDO>
F 8

$$$$
=
 OpenBabel11042418193D

 35 38  0  0  0  0  0  0  0  0999 V2000
  196.6420  173.6460  145.7560 C   0  0  0  0  0  3  0  0  0  0  0  0
  196.4020  172.2730  145.6630 C   0  0  0  0  0  0  0  0  0  0  0  0
  195.0820  171.7920  145.5570 C   0  0  0  0  0  0  0  0  0  0  0  0
  197.4830  171.3990  145.6950 O   0  0  0  0  0  1  0  0  0  0  0  0
  195.5780  174.5510  145.7430 C   0  0  0  0  0  3  0  0  0  0  0  0
  194.0240  172.7150  145.5410 C   0  0  0  0  0  3  0  0  0  0  0  0
  194.2560  174.0950  145.6380 C   0  0  0  0  0  0  0  0  0  0  0  0
  193.0570  176.0670  144.6560 C   0  0  0  0  0  3  0  0  0  0  0  0
  192.1010  174.9620  146.5810 C   0  0  0  0  0  3  0  0  0  0  0  0
  191.0340  175.8650  146.5680 C   0  0  0  0  0  3  0  0  0  0  0  0
  193.1250  175.0520  145.6240 C   0  0  0  0  0  0  0  0  0  0  0  0
  190.9660  176.8720  145.6010 C   0  0  0  0  0  0  0  0  0  0  0  0
  191.9890  176.9670  144.6440 C   0  0  0  0  0  3  0  0  0  0  0  0
  189.8720  177.7500  145.6300 O   0  0  0  0  0  0  0  0  0  0  0  0
  188.6630  177.5980  144.9300 C   0  0  0  0  0  0  0  0  0  0  0  0
  188.6460  177.5080  143.6730 O   0  0  0  0  0  0  0  0  0  0  0  0
  186.0190  177.2820  147.5790 C   0  0  0  0  0  2  0  0  0  0  0  0
  187.4060  177.6660  147.1060 C   0  0  0  0  0  2  0  0  0  0  0  0
  184.8450  177.6100  146.2320 S   0  0  0  0  0  0  0  0  0  0  0  0
  187.4340  177.5410  145.6610 N   0  0  0  0  0  0  0  0  0  0  0  0
  186.1540  177.3720  144.9970 C   0  0  0  0  0  2  0  0  0  0  0  0
  194.7940  170.3410  145.4190 C   0  0  0  0  0  0  0  0  0  0  0  0
  194.6020  169.7430  144.2390 C   0  0  0  0  0  3  0  0  0  0  0  0
  194.6980  168.8520  147.5440 N   0  0  0  0  0  0  0  0  0  0  0  0
  194.7400  169.5160  146.5960 C   0  0  0  0  0  0  0  0  0  0  0  0
  194.5990  170.4560  142.9280 C   0  0  0  0  0  2  0  0  0  0  0  0
  193.2160  170.3850  142.3170 C   0  0  0  0  0  2  0  0  0  0  0  0
  189.6660  173.7070  144.0500 C   0  0  0  0  0  3  0  0  0  0  0  0
  191.3240  173.7330  142.3270 C   0  0  0  0  0  0  0  0  0  0  0  0
  190.2600  174.3360  143.0760 N   0  0  0  0  0  0  0  0  0  0  0  0
  191.0460  171.7010  143.7860 C   0  0  0  0  0  3  0  0  0  0  0  0
  191.7540  172.3650  142.6740 C   0  0  0  0  0  0  0  0  0  0  0  0
  190.0630  172.3350  144.4330 C   0  0  0  0  0  3  0  0  0  0  0  0
  191.8740  174.3730  141.3920 O   0  0  0  0  0  0  0  0  0  0  0  0
  192.7410  171.7640  142.0050 C   0  0  0  0  0  3  0  0  0  0  0  0
  2  4  1  0  0  0  0
  2  1  2  0  0  0  0
  3  2  1  0  0  0  0
  5  1  1  0  0  0  0
  6  3  2  0  0  0  0
  6  7  1  0  0  0  0
  7  5  2  0  0  0  0
  8 11  1  0  0  0  0
 10  9  1  0  0  0  0
 11  7  1  0  0  0  0
 11  9  2  0  0  0  0
 12 14  1  0  0  0  0
 12 10  2  0  0  0  0
 13  8  2  0  0  0  0
 13 12  1  0  0  0  0
 15 14  1  0  0  0  0
 15 20  1  0  0  0  0
 16 15  2  0  0  0  0
 18 17  1  0  0  0  0
 19 17  1  0  0  0  0
 20 18  1  0  0  0  0
 21 20  1  0  0  0  0
 21 19  1  0  0  0  0
 22  3  1  0  0  0  0
 22 25  1  0  0  0  0
 23 22  2  0  0  0  0
 25 24  3  0  0  0  0
 26 23  1  0  0  0  0
 27 26  1  0  0  0  0
 28 33  1  0  0  0  0
 29 32  1  0  0  0  0
 29 30  1  0  0  0  0
 30 28  2  0  0  0  0
 31 33  2  0  0  0  0
 32 31  1  0  0  0  0
 34 29  2  0  0  0  0
 35 27  1  0  0  0  0
 35 32  2  0  0  0  0
M  END
>  <MODEL>
5

>  <REMARK>
 VINA RESULT:      -6.8      1.983      2.850
  Name = 
  8 active torsions:
  status: ('A' for Active; 'I' for Inactive)
    1  A    between atoms: C_2  and  O_26
    2  A    between atoms: C_8  and  C_11
    3  A    between atoms: C_8  and  C_21
    4  A    between atoms: C_14  and  C_16
    5  A    between atoms: C_14  and  C_31
    6  A    between atoms: O_26  and  C_34
    7  A    between atoms: C_28  and  C_33
    8  A    between atoms: C_31  and  C_32
                            x       y       z     vdW  Elec       q    Type
                         _______ _______ _______ _____ _____    ______ ____

>  <TORSDO>
F 8

$$$$
=
 OpenBabel11042418193D

 35 38  0  0  0  0  0  0  0  0999 V2000
  195.0260  175.4590  146.2850 C   0  0  0  0  0  3  0  0  0  0  0  0
  195.4080  175.1660  144.9740 C   0  0  0  0  0  0  0  0  0  0  0  0
  194.4370  175.0920  143.9560 C   0  0  0  0  0  0  0  0  0  0  0  0
  196.7520  174.9350  144.7020 O   0  0  0  0  0  1  0  0  0  0  0  0
  193.6830  175.6810  146.5970 C   0  0  0  0  0  3  0  0  0  0  0  0
  193.0920  175.3220  144.2850 C   0  0  0  0  0  3  0  0  0  0  0  0
  192.7000  175.6120  145.6000 C   0  0  0  0  0  0  0  0  0  0  0  0
  190.5830  176.9390  145.3780 C   0  0  0  0  0  3  0  0  0  0  0  0
  190.5880  174.9810  146.7940 C   0  0  0  0  0  3  0  0  0  0  0  0
  189.2420  175.2020  147.1030 C   0  0  0  0  0  3  0  0  0  0  0  0
  191.2740  175.8470  145.9270 C   0  0  0  0  0  0  0  0  0  0  0  0
  188.5550  176.2880  146.5520 C   0  0  0  0  0  0  0  0  0  0  0  0
  189.2380  177.1570  145.6870 C   0  0  0  0  0  3  0  0  0  0  0  0
  187.2060  176.4630  146.8920 O   0  0  0  0  0  0  0  0  0  0  0  0
  186.4560  177.6430  146.7500 C   0  0  0  0  0  0  0  0  0  0  0  0
  186.4040  178.4950  147.6770 O   0  0  0  0  0  0  0  0  0  0  0  0
  185.1640  177.5780  143.2240 C   0  0  0  0  0  2  0  0  0  0  0  0
  185.7580  176.9130  144.4480 C   0  0  0  0  0  2  0  0  0  0  0  0
  184.0260  178.8810  143.7780 S   0  0  0  0  0  0  0  0  0  0  0  0
  185.7460  177.8790  145.5300 N   0  0  0  0  0  0  0  0  0  0  0  0
  184.9650  179.0840  145.3190 C   0  0  0  0  0  2  0  0  0  0  0  0
  194.8120  174.8190  142.5440 C   0  0  0  0  0  0  0  0  0  0  0  0
  194.7600  173.6010  141.9960 C   0  0  0  0  0  3  0  0  0  0  0  0
  195.5650  176.7840  141.0230 N   0  0  0  0  0  0  0  0  0  0  0  0
  195.2290  175.9080  141.7010 C   0  0  0  0  0  0  0  0  0  0  0  0
  194.3750  172.3640  142.7360 C   0  0  0  0  0  2  0  0  0  0  0  0
  193.1380  171.7610  142.1080 C   0  0  0  0  0  2  0  0  0  0  0  0
  189.0240  174.8180  142.7170 C   0  0  0  0  0  3  0  0  0  0  0  0
  189.9310  172.9330  143.8760 C   0  0  0  0  0  0  0  0  0  0  0  0
  188.9490  173.9630  143.6980 N   0  0  0  0  0  0  0  0  0  0  0  0
  191.0850  173.8360  141.8300 C   0  0  0  0  0  3  0  0  0  0  0  0
  191.0510  172.8430  142.9200 C   0  0  0  0  0  0  0  0  0  0  0  0
  190.1290  174.7660  141.7360 C   0  0  0  0  0  3  0  0  0  0  0  0
  189.8240  172.1250  144.8360 O   0  0  0  0  0  0  0  0  0  0  0  0
  191.9870  171.8990  143.0470 C   0  0  0  0  0  3  0  0  0  0  0  0
  1  5  1  0  0  0  0
  2  1  2  0  0  0  0
  3  6  2  0  0  0  0
  3  2  1  0  0  0  0
  4  2  1  0  0  0  0
  6  7  1  0  0  0  0
  7 11  1  0  0  0  0
  7  5  2  0  0  0  0
  8 13  2  0  0  0  0
  8 11  1  0  0  0  0
  9 10  1  0  0  0  0
 11  9  2  0  0  0  0
 12 14  1  0  0  0  0
 12 10  2  0  0  0  0
 13 12  1  0  0  0  0
 15 14  1  0  0  0  0
 15 16  2  0  0  0  0
 17 19  1  0  0  0  0
 17 18  1  0  0  0  0
 18 20  1  0  0  0  0
 19 21  1  0  0  0  0
 20 15  1  0  0  0  0
 21 20  1  0  0  0  0
 22  3  1  0  0  0  0
 23 22  2  0  0  0  0
 23 26  1  0  0  0  0
 24 25  3  0  0  0  0
 25 22  1  0  0  0  0
 27 26  1  0  0  0  0
 27 35  1  0  0  0  0
 28 30  2  0  0  0  0
 29 34  2  0  0  0  0
 30 29  1  0  0  0  0
 31 32  1  0  0  0  0
 32 35  2  0  0  0  0
 32 29  1  0  0  0  0
 33 31  2  0  0  0  0
 33 28  1  0  0  0  0
M  END
>  <MODEL>
6

>  <REMARK>
 VINA RESULT:      -6.7      1.986      2.483
  Name = 
  8 active torsions:
  status: ('A' for Active; 'I' for Inactive)
    1  A    between atoms: C_2  and  O_26
    2  A    between atoms: C_8  and  C_11
    3  A    between atoms: C_8  and  C_21
    4  A    between atoms: C_14  and  C_16
    5  A    between atoms: C_14  and  C_31
    6  A    between atoms: O_26  and  C_34
    7  A    between atoms: C_28  and  C_33
    8  A    between atoms: C_31  and  C_32
                            x       y       z     vdW  Elec       q    Type
                         _______ _______ _______ _____ _____    ______ ____

>  <TORSDO>
F 8

$$$$
=
 OpenBabel11042418193D

 35 38  0  0  0  0  0  0  0  0999 V2000
  187.9740  176.3700  147.1410 C   0  0  0  0  0  3  0  0  0  0  0  0
  189.0370  175.5920  146.6780 C   0  0  0  0  0  0  0  0  0  0  0  0
  189.1770  175.3360  145.2990 C   0  0  0  0  0  0  0  0  0  0  0  0
  189.9350  175.0650  147.5990 O   0  0  0  0  0  1  0  0  0  0  0  0
  187.0440  176.9000  146.2440 C   0  0  0  0  0  3  0  0  0  0  0  0
  188.2370  175.8800  144.4100 C   0  0  0  0  0  3  0  0  0  0  0  0
  187.1640  176.6590  144.8680 C   0  0  0  0  0  0  0  0  0  0  0  0
  185.0480  177.9120  144.3760 C   0  0  0  0  0  3  0  0  0  0  0  0
  186.3590  177.0700  142.5290 C   0  0  0  0  0  3  0  0  0  0  0  0
  185.4300  177.6000  141.6280 C   0  0  0  0  0  3  0  0  0  0  0  0
  186.1790  177.2200  143.9130 C   0  0  0  0  0  0  0  0  0  0  0  0
  184.3060  178.2910  142.0910 C   0  0  0  0  0  0  0  0  0  0  0  0
  184.1220  178.4420  143.4740 C   0  0  0  0  0  3  0  0  0  0  0  0
  183.4070  178.8060  141.1450 O   0  0  0  0  0  0  0  0  0  0  0  0
  182.3670  178.1030  140.5140 C   0  0  0  0  0  0  0  0  0  0  0  0
  182.6050  177.2860  139.5840 O   0  0  0  0  0  0  0  0  0  0  0  0
  179.2520  179.0480  142.3880 C   0  0  0  0  0  2  0  0  0  0  0  0
  180.6970  179.2670  141.9880 C   0  0  0  0  0  2  0  0  0  0  0  0
  178.3660  178.3470  140.9650 S   0  0  0  0  0  0  0  0  0  0  0  0
  181.0180  178.3170  140.9400 N   0  0  0  0  0  0  0  0  0  0  0  0
  179.9020  177.6110  140.3360 C   0  0  0  0  0  2  0  0  0  0  0  0
  190.3170  174.5440  144.7690 C   0  0  0  0  0  0  0  0  0  0  0  0
  191.5220  175.0690  144.5270 C   0  0  0  0  0  3  0  0  0  0  0  0
  190.0080  172.0050  144.3220 N   0  0  0  0  0  0  0  0  0  0  0  0
  190.1460  173.1360  144.5220 C   0  0  0  0  0  0  0  0  0  0  0  0
  191.8590  176.5110  144.7040 C   0  0  0  0  0  2  0  0  0  0  0  0
  193.1070  176.6400  145.5500 C   0  0  0  0  0  2  0  0  0  0  0  0
  197.4890  173.9880  144.9150 C   0  0  0  0  0  3  0  0  0  0  0  0
  196.4760  175.8790  143.8600 C   0  0  0  0  0  0  0  0  0  0  0  0
  197.5320  174.9200  144.0060 N   0  0  0  0  0  0  0  0  0  0  0  0
  195.3180  174.7270  145.7750 C   0  0  0  0  0  3  0  0  0  0  0  0
  195.3130  175.8030  144.7640 C   0  0  0  0  0  0  0  0  0  0  0  0
  196.3440  173.8730  145.8440 C   0  0  0  0  0  3  0  0  0  0  0  0
  196.5530  176.7650  142.9670 O   0  0  0  0  0  0  0  0  0  0  0  0
  194.3060  176.6740  144.6640 C   0  0  0  0  0  3  0  0  0  0  0  0
  2  1  1  0  0  0  0
  2  4  1  0  0  0  0
  3  2  2  0  0  0  0
  5  1  2  0  0  0  0
  6  7  2  0  0  0  0
  6  3  1  0  0  0  0
  7  5  1  0  0  0  0
  9 11  2  0  0  0  0
 10 12  2  0  0  0  0
 10  9  1  0  0  0  0
 11  8  1  0  0  0  0
 11  7  1  0  0  0  0
 12 13  1  0  0  0  0
 13  8  2  0  0  0  0
 14 12  1  0  0  0  0
 15 20  1  0  0  0  0
 15 14  1  0  0  0  0
 16 15  2  0  0  0  0
 18 17  1  0  0  0  0
 19 17  1  0  0  0  0
 20 18  1  0  0  0  0
 21 20  1  0  0  0  0
 21 19  1  0  0  0  0
 22  3  1  0  0  0  0
 23 26  1  0  0  0  0
 23 22  2  0  0  0  0
 24 25  3  0  0  0  0
 25 22  1  0  0  0  0
 26 27  1  0  0  0  0
 28 33  1  0  0  0  0
 29 30  1  0  0  0  0
 29 32  1  0  0  0  0
 30 28  2  0  0  0  0
 31 33  2  0  0  0  0
 32 31  1  0  0  0  0
 34 29  2  0  0  0  0
 35 32  2  0  0  0  0
 35 27  1  0  0  0  0
M  END
>  <MODEL>
7

>  <REMARK>
 VINA RESULT:      -6.6      3.701      6.307
  Name = 
  8 active torsions:
  status: ('A' for Active; 'I' for Inactive)
    1  A    between atoms: C_2  and  O_26
    2  A    between atoms: C_8  and  C_11
    3  A    between atoms: C_8  and  C_21
    4  A    between atoms: C_14  and  C_16
    5  A    between atoms: C_14  and  C_31
    6  A    between atoms: O_26  and  C_34
    7  A    between atoms: C_28  and  C_33
    8  A    between atoms: C_31  and  C_32
                            x       y       z     vdW  Elec       q    Type
                         _______ _______ _______ _____ _____    ______ ____

>  <TORSDO>
F 8

$$$$
=
 OpenBabel11042418193D

 35 38  0  0  0  0  0  0  0  0999 V2000
  190.3140  171.1090  141.7470 C   0  0  0  0  0  3  0  0  0  0  0  0
  191.4970  170.5090  142.1850 C   0  0  0  0  0  0  0  0  0  0  0  0
  192.1420  170.9830  143.3450 C   0  0  0  0  0  0  0  0  0  0  0  0
  192.0290  169.4570  141.4470 O   0  0  0  0  0  1  0  0  0  0  0  0
  189.7610  172.1780  142.4550 C   0  0  0  0  0  3  0  0  0  0  0  0
  191.5710  172.0550  144.0470 C   0  0  0  0  0  3  0  0  0  0  0  0
  190.3850  172.6650  143.6120 C   0  0  0  0  0  0  0  0  0  0  0  0
  189.6950  173.7530  145.7640 C   0  0  0  0  0  3  0  0  0  0  0  0
  189.3410  174.9440  143.6920 C   0  0  0  0  0  3  0  0  0  0  0  0
  188.7900  176.0150  144.4020 C   0  0  0  0  0  3  0  0  0  0  0  0
  189.8010  173.8000  144.3650 C   0  0  0  0  0  0  0  0  0  0  0  0
  188.6900  175.9670  145.7950 C   0  0  0  0  0  0  0  0  0  0  0  0
  189.1460  174.8250  146.4720 C   0  0  0  0  0  3  0  0  0  0  0  0
  188.1330  177.0700  146.4600 O   0  0  0  0  0  0  0  0  0  0  0  0
  186.7830  177.2340  146.8160 C   0  0  0  0  0  0  0  0  0  0  0  0
  186.3180  176.7070  147.8620 O   0  0  0  0  0  0  0  0  0  0  0  0
  185.3650  179.5930  144.2600 C   0  0  0  0  0  2  0  0  0  0  0  0
  186.4160  178.6180  144.7500 C   0  0  0  0  0  2  0  0  0  0  0  0
  183.7450  179.0410  144.8730 S   0  0  0  0  0  0  0  0  0  0  0  0
  185.9280  178.0160  145.9760 N   0  0  0  0  0  0  0  0  0  0  0  0
  184.5290  178.2330  146.2970 C   0  0  0  0  0  2  0  0  0  0  0  0
  193.3810  170.3440  143.8590 C   0  0  0  0  0  0  0  0  0  0  0  0
  194.6070  170.8010  143.5840 C   0  0  0  0  0  3  0  0  0  0  0  0
  193.1990  168.2690  145.4080 N   0  0  0  0  0  0  0  0  0  0  0  0
  193.2800  169.1940  144.7170 C   0  0  0  0  0  0  0  0  0  0  0  0
  194.8880  171.9640  142.6920 C   0  0  0  0  0  2  0  0  0  0  0  0
  195.3390  173.1440  143.5250 C   0  0  0  0  0  2  0  0  0  0  0  0
  192.3080  176.4150  146.1230 C   0  0  0  0  0  3  0  0  0  0  0  0
  192.9390  176.1320  143.8350 C   0  0  0  0  0  0  0  0  0  0  0  0
  192.2260  176.8040  144.8830 N   0  0  0  0  0  0  0  0  0  0  0  0
  193.8390  174.5780  145.5980 C   0  0  0  0  0  3  0  0  0  0  0  0
  193.7850  174.9730  144.1770 C   0  0  0  0  0  0  0  0  0  0  0  0
  193.1420  175.2580  146.5130 C   0  0  0  0  0  3  0  0  0  0  0  0
  192.8360  176.5390  142.6470 O   0  0  0  0  0  0  0  0  0  0  0  0
  194.4670  174.3190  143.2340 C   0  0  0  0  0  3  0  0  0  0  0  0
  1  2  2  0  0  0  0
  1  5  1  0  0  0  0
  2  3  1  0  0  0  0
  3 22  1  0  0  0  0
  3  6  2  0  0  0  0
  4  2  1  0  0  0  0
  5  7  2  0  0  0  0
  7  6  1  0  0  0  0
  7 11  1  0  0  0  0
  8 13  1  0  0  0  0
  9 11  1  0  0  0  0
  9 10  2  0  0  0  0
 10 12  1  0  0  0  0
 11  8  2  0  0  0  0
 12 14  1  0  0  0  0
 12 13  2  0  0  0  0
 14 15  1  0  0  0  0
 15 16  2  0  0  0  0
 17 18  1  0  0  0  0
 17 19  1  0  0  0  0
 18 20  1  0  0  0  0
 19 21  1  0  0  0  0
 20 21  1  0  0  0  0
 20 15  1  0  0  0  0
 22 25  1  0  0  0  0
 23 22  2  0  0  0  0
 25 24  3  0  0  0  0
 26 27  1  0  0  0  0
 26 23  1  0  0  0  0
 28 33  1  0  0  0  0
 29 32  1  0  0  0  0
 29 30  1  0  0  0  0
 30 28  2  0  0  0  0
 31 33  2  0  0  0  0
 32 31  1  0  0  0  0
 34 29  2  0  0  0  0
 35 27  1  0  0  0  0
 35 32  2  0  0  0  0
M  END
>  <MODEL>
8

>  <REMARK>
 VINA RESULT:      -6.4      2.213      3.603
  Name = 
  8 active torsions:
  status: ('A' for Active; 'I' for Inactive)
    1  A    between atoms: C_2  and  O_26
    2  A    between atoms: C_8  and  C_11
    3  A    between atoms: C_8  and  C_21
    4  A    between atoms: C_14  and  C_16
    5  A    between atoms: C_14  and  C_31
    6  A    between atoms: O_26  and  C_34
    7  A    between atoms: C_28  and  C_33
    8  A    between atoms: C_31  and  C_32
                            x       y       z     vdW  Elec       q    Type
                         _______ _______ _______ _____ _____    ______ ____

>  <TORSDO>
F 8

$$$$
=
 OpenBabel11042418193D

 35 38  0  0  0  0  0  0  0  0999 V2000
  187.7100  176.0490  147.1640 C   0  0  0  0  0  3  0  0  0  0  0  0
  188.9290  175.5480  146.7010 C   0  0  0  0  0  0  0  0  0  0  0  0
  189.2320  175.5880  145.3260 C   0  0  0  0  0  0  0  0  0  0  0  0
  189.8200  174.9990  147.6160 O   0  0  0  0  0  1  0  0  0  0  0  0
  186.7850  176.5930  146.2700 C   0  0  0  0  0  3  0  0  0  0  0  0
  188.2940  176.1420  144.4410 C   0  0  0  0  0  3  0  0  0  0  0  0
  187.0660  176.6440  144.8970 C   0  0  0  0  0  0  0  0  0  0  0  0
  186.2150  177.0020  142.5660 C   0  0  0  0  0  3  0  0  0  0  0  0
  185.0130  177.9970  144.4100 C   0  0  0  0  0  3  0  0  0  0  0  0
  184.0880  178.5400  143.5130 C   0  0  0  0  0  3  0  0  0  0  0  0
  186.0870  177.2200  143.9460 C   0  0  0  0  0  0  0  0  0  0  0  0
  184.2160  178.3180  142.1390 C   0  0  0  0  0  0  0  0  0  0  0  0
  185.2890  177.5440  141.6710 C   0  0  0  0  0  3  0  0  0  0  0  0
  183.2590  178.8830  141.2820 O   0  0  0  0  0  0  0  0  0  0  0  0
  182.2340  178.1970  140.6100 C   0  0  0  0  0  0  0  0  0  0  0  0
  182.4890  177.4330  139.6400 O   0  0  0  0  0  0  0  0  0  0  0  0
  179.0960  178.9950  142.5150 C   0  0  0  0  0  2  0  0  0  0  0  0
  180.5380  179.2570  142.1340 C   0  0  0  0  0  2  0  0  0  0  0  0
  178.2270  178.3550  141.0530 S   0  0  0  0  0  0  0  0  0  0  0  0
  180.8790  178.3680  141.0400 N   0  0  0  0  0  0  0  0  0  0  0  0
  179.7770  177.6770  140.3940 C   0  0  0  0  0  2  0  0  0  0  0  0
  190.5340  175.0980  144.8040 C   0  0  0  0  0  0  0  0  0  0  0  0
  190.7190  173.8530  144.3530 C   0  0  0  0  0  3  0  0  0  0  0  0
  192.5600  176.7190  144.7030 N   0  0  0  0  0  0  0  0  0  0  0  0
  191.6570  175.9960  144.7480 C   0  0  0  0  0  0  0  0  0  0  0  0
  189.6700  172.7920  144.3650 C   0  0  0  0  0  2  0  0  0  0  0  0
  189.5160  172.2160  142.9740 C   0  0  0  0  0  2  0  0  0  0  0  0
  189.0250  172.9630  137.8910 C   0  0  0  0  0  3  0  0  0  0  0  0
  188.5140  174.2280  139.8540 C   0  0  0  0  0  0  0  0  0  0  0  0
  188.5500  174.0490  138.4320 N   0  0  0  0  0  0  0  0  0  0  0  0
  189.5530  171.9440  140.0550 C   0  0  0  0  0  3  0  0  0  0  0  0
  189.0270  173.1510  140.7220 C   0  0  0  0  0  0  0  0  0  0  0  0
  189.5510  171.8580  138.7210 C   0  0  0  0  0  3  0  0  0  0  0  0
  188.0460  175.2920  140.3400 O   0  0  0  0  0  0  0  0  0  0  0  0
  189.0120  173.2740  142.0520 C   0  0  0  0  0  3  0  0  0  0  0  0
  2  1  1  0  0  0  0
  2  4  1  0  0  0  0
  3  2  2  0  0  0  0
  5  1  2  0  0  0  0
  6  7  2  0  0  0  0
  6  3  1  0  0  0  0
  7  5  1  0  0  0  0
  8 11  1  0  0  0  0
 10  9  1  0  0  0  0
 11  9  2  0  0  0  0
 11  7  1  0  0  0  0
 12 10  2  0  0  0  0
 13 12  1  0  0  0  0
 13  8  2  0  0  0  0
 14 12  1  0  0  0  0
 15 20  1  0  0  0  0
 15 14  1  0  0  0  0
 16 15  2  0  0  0  0
 18 17  1  0  0  0  0
 19 17  1  0  0  0  0
 20 18  1  0  0  0  0
 21 20  1  0  0  0  0
 21 19  1  0  0  0  0
 22  3  1  0  0  0  0
 23 26  1  0  0  0  0
 23 22  2  0  0  0  0
 24 25  3  0  0  0  0
 25 22  1  0  0  0  0
 27 26  1  0  0  0  0
 28 30  2  0  0  0  0
 28 33  1  0  0  0  0
 29 34  2  0  0  0  0
 29 32  1  0  0  0  0
 30 29  1  0  0  0  0
 31 32  1  0  0  0  0
 32 35  2  0  0  0  0
 33 31  2  0  0  0  0
 35 27  1  0  0  0  0
M  END
>  <MODEL>
9

>  <REMARK>
 VINA RESULT:      -6.4      3.923      6.069
  Name = 
  8 active torsions:
  status: ('A' for Active; 'I' for Inactive)
    1  A    between atoms: C_2  and  O_26
    2  A    between atoms: C_8  and  C_11
    3  A    between atoms: C_8  and  C_21
    4  A    between atoms: C_14  and  C_16
    5  A    between atoms: C_14  and  C_31
    6  A    between atoms: O_26  and  C_34
    7  A    between atoms: C_28  and  C_33
    8  A    between atoms: C_31  and  C_32
                            x       y       z     vdW  Elec       q    Type
                         _______ _______ _______ _____ _____    ______ ____

>  <TORSDO>
F 8

$$$$
