=
 OpenBabel11042417223D

 26 29  0  0  1  0  0  0  0  0999 V2000
  185.4010  178.6610  142.7740 O   0  0  0  0  0  0  0  0  0  0  0  0
  188.1670  177.2250  146.4580 N   0  0  0  0  0  2  0  0  0  0  0  0
  188.5890  175.7530  143.0940 C   0  0  0  0  0  3  0  0  0  0  0  0
  184.7650  178.1050  145.2950 C   0  0  0  0  0  3  0  0  0  0  0  0
  184.1910  178.5810  146.4760 C   0  0  0  0  0  3  0  0  0  0  0  0
  188.5310  176.1760  145.5140 C   0  0  1  0  0  3  0  0  0  0  0  0
  186.1170  177.7120  145.2510 C   0  0  0  0  0  0  0  0  0  0  0  0
  186.8520  177.7490  146.4440 C   0  0  0  0  0  0  0  0  0  0  0  0
  186.5800  177.3050  141.4950 N   0  0  0  0  0  2  0  0  0  0  0  0
  188.3610  175.7010  141.7390 C   0  0  0  0  0  3  0  0  0  0  0  0
  186.2890  178.2440  147.6240 C   0  0  0  0  0  3  0  0  0  0  0  0
  184.9580  178.6650  147.6390 C   0  0  0  0  0  3  0  0  0  0  0  0
  187.4440  176.3990  140.9950 C   0  0  0  0  0  0  0  0  0  0  0  0
  187.9600  176.4540  144.1160 C   0  0  2  0  0  3  0  0  0  0  0  0
  186.7860  177.2550  143.9740 C   0  0  2  0  0  3  0  0  0  0  0  0
  187.4320  176.1950  139.7540 O   0  0  0  0  0  0  0  0  0  0  0  0
  186.2580  177.7380  142.7380 C   0  0  0  0  0  0  0  0  0  0  0  0
  190.8760  177.1220  145.0670 C   0  0  0  0  0  2  0  0  0  0  0  0
  192.3640  176.7890  145.0840 C   0  0  0  0  0  2  0  0  0  0  0  0
  191.9840  175.2280  147.0010 C   0  0  0  0  0  2  0  0  0  0  0  0
  190.4960  175.5680  146.9750 C   0  0  0  0  0  2  0  0  0  0  0  0
  192.8010  176.4150  146.5000 C   0  0  1  0  0  3  0  0  0  0  0  0
  190.0560  175.9170  145.5510 C   0  0  1  0  0  3  0  0  0  0  0  0
  194.2750  176.0500  146.5140 C   0  0  0  0  0  2  0  0  0  0  0  0
  194.8910  176.4190  145.2510 N   0  0  0  0  0  2  0  0  0  0  0  0
  195.7140  175.2950  144.8450 C   0  0  0  0  0  1  0  0  0  0  0  0
  4  5  1  0  0  0  0
  5 12  2  0  0  0  0
  6 23  1  0  0  0  0
  6  2  1  1  0  0  0
  7  4  2  0  0  0  0
  7  8  1  0  0  0  0
  8  2  1  0  0  0  0
  8 11  2  0  0  0  0
  9 17  1  0  0  0  0
 10  3  2  0  0  0  0
 11 12  1  0  0  0  0
 13  9  1  0  0  0  0
 13 10  1  0  0  0  0
 14  3  1  1  0  0  0
 14  6  1  0  0  0  0
 15 17  1  6  0  0  0
 15 14  1  0  0  0  0
 15  7  1  0  0  0  0
 16 13  2  0  0  0  0
 17  1  2  0  0  0  0
 18 19  1  0  0  0  0
 19 22  1  0  0  0  0
 21 20  1  0  0  0  0
 22 24  1  6  0  0  0
 22 20  1  0  0  0  0
 23 18  1  1  0  0  0
 23 21  1  0  0  0  0
 25 24  1  0  0  0  0
 26 25  1  0  0  0  0
M  END
>  <MODEL>
1

>  <REMARK>
 VINA RESULT:      -8.3      0.000      0.000
  Name = 
  3 active torsions:
  status: ('A' for Active; 'I' for Inactive)
    1  A    between atoms: C_9  and  C_22
    2  A    between atoms: C_10  and  N_11
    3  A    between atoms: C_10  and  C_19
                            x       y       z     vdW  Elec       q    Type
                         _______ _______ _______ _____ _____    ______ ____

>  <TORSDO>
F 3

$$$$
=
 OpenBabel11042417223D

 26 29  0  0  1  0  0  0  0  0999 V2000
  185.9070  179.5460  143.0440 O   0  0  0  0  0  0  0  0  0  0  0  0
  188.6470  176.6610  145.7740 N   0  0  0  0  0  2  0  0  0  0  0  0
  188.0660  175.8920  142.2050 C   0  0  0  0  0  3  0  0  0  0  0  0
  185.5370  178.6510  145.5200 C   0  0  0  0  0  3  0  0  0  0  0  0
  185.3280  178.9970  146.8580 C   0  0  0  0  0  3  0  0  0  0  0  0
  188.5210  175.7810  144.6180 C   0  0  1  0  0  3  0  0  0  0  0  0
  186.6800  177.9290  145.1260 C   0  0  0  0  0  0  0  0  0  0  0  0
  187.5690  177.5090  146.1250 C   0  0  0  0  0  0  0  0  0  0  0  0
  186.4000  178.2330  141.3430 N   0  0  0  0  0  2  0  0  0  0  0  0
  187.6230  176.1960  140.9400 C   0  0  0  0  0  3  0  0  0  0  0  0
  187.3760  177.8700  147.4620 C   0  0  0  0  0  3  0  0  0  0  0  0
  186.2560  178.6190  147.8270 C   0  0  0  0  0  3  0  0  0  0  0  0
  186.8570  177.2590  140.5310 C   0  0  0  0  0  0  0  0  0  0  0  0
  187.8500  176.4980  143.4370 C   0  0  2  0  0  3  0  0  0  0  0  0
  186.9690  177.5960  143.6800 C   0  0  2  0  0  3  0  0  0  0  0  0
  186.5890  177.3380  139.3050 O   0  0  0  0  0  0  0  0  0  0  0  0
  186.4250  178.4580  142.6780 C   0  0  0  0  0  0  0  0  0  0  0  0
  191.0780  175.9520  144.7700 C   0  0  0  0  0  2  0  0  0  0  0  0
  192.3850  175.2720  144.3740 C   0  0  0  0  0  2  0  0  0  0  0  0
  191.2630  173.0420  144.5290 C   0  0  0  0  0  2  0  0  0  0  0  0
  189.9600  173.7320  144.9240 C   0  0  0  0  0  2  0  0  0  0  0  0
  192.4560  173.8740  144.9880 C   0  0  1  0  0  3  0  0  0  0  0  0
  189.8800  175.1220  144.2860 C   0  0  1  0  0  3  0  0  0  0  0  0
  193.7410  173.1820  144.5680 C   0  0  0  0  0  2  0  0  0  0  0  0
  194.0390  172.0910  145.4790 N   0  0  0  0  0  2  0  0  0  0  0  0
  195.4840  172.0450  145.6150 C   0  0  0  0  0  1  0  0  0  0  0  0
  2  8  1  0  0  0  0
  4  5  1  0  0  0  0
  5 12  2  0  0  0  0
  6  2  1  1  0  0  0
  7  4  2  0  0  0  0
  7  8  1  0  0  0  0
  8 11  2  0  0  0  0
  9 17  1  0  0  0  0
 10  3  2  0  0  0  0
 11 12  1  0  0  0  0
 13 10  1  0  0  0  0
 13  9  1  0  0  0  0
 14  3  1  1  0  0  0
 14 15  1  0  0  0  0
 14  6  1  0  0  0  0
 15 17  1  1  0  0  0
 15  7  1  0  0  0  0
 16 13  2  0  0  0  0
 17  1  2  0  0  0  0
 19 18  1  0  0  0  0
 19 22  1  0  0  0  0
 20 21  1  0  0  0  0
 20 22  1  0  0  0  0
 22 24  1  6  0  0  0
 23  6  1  0  0  0  0
 23 18  1  1  0  0  0
 23 21  1  0  0  0  0
 24 25  1  0  0  0  0
 25 26  1  0  0  0  0
M  END
>  <MODEL>
2

>  <REMARK>
 VINA RESULT:      -7.6      1.769      1.919
  Name = 
  3 active torsions:
  status: ('A' for Active; 'I' for Inactive)
    1  A    between atoms: C_9  and  C_22
    2  A    between atoms: C_10  and  N_11
    3  A    between atoms: C_10  and  C_19
                            x       y       z     vdW  Elec       q    Type
                         _______ _______ _______ _____ _____    ______ ____

>  <TORSDO>
F 3

$$$$
=
 OpenBabel11042417223D

 26 29  0  0  1  0  0  0  0  0999 V2000
  185.9700  177.5060  141.6680 O   0  0  0  0  0  0  0  0  0  0  0  0
  188.6320  177.0110  145.6620 N   0  0  0  0  0  2  0  0  0  0  0  0
  189.2690  174.9010  142.6940 C   0  0  0  0  0  3  0  0  0  0  0  0
  185.2480  177.4500  144.2260 C   0  0  0  0  0  3  0  0  0  0  0  0
  184.6010  178.1280  145.2620 C   0  0  0  0  0  3  0  0  0  0  0  0
  189.0840  175.8100  144.9700 C   0  0  1  0  0  3  0  0  0  0  0  0
  186.6170  177.1280  144.3110 C   0  0  0  0  0  0  0  0  0  0  0  0
  187.2960  177.4490  145.4940 C   0  0  0  0  0  0  0  0  0  0  0  0
  187.2650  175.9810  140.7400 N   0  0  0  0  0  2  0  0  0  0  0  0
  189.1040  174.5590  141.3740 C   0  0  0  0  0  3  0  0  0  0  0  0
  186.6590  178.1470  146.5250 C   0  0  0  0  0  3  0  0  0  0  0  0
  185.3110  178.4900  146.4070 C   0  0  0  0  0  3  0  0  0  0  0  0
  188.1900  175.0390  140.4690 C   0  0  0  0  0  0  0  0  0  0  0  0
  188.5640  175.7640  143.5260 C   0  0  2  0  0  3  0  0  0  0  0  0
  187.3630  176.4550  143.1810 C   0  0  2  0  0  3  0  0  0  0  0  0
  188.2430  174.5820  139.2980 O   0  0  0  0  0  0  0  0  0  0  0  0
  186.8690  176.6430  141.8540 C   0  0  0  0  0  0  0  0  0  0  0  0
  191.3870  176.9240  144.7490 C   0  0  0  0  0  2  0  0  0  0  0  0
  192.8890  176.6850  144.8650 C   0  0  0  0  0  2  0  0  0  0  0  0
  192.4740  175.0060  146.6730 C   0  0  0  0  0  2  0  0  0  0  0  0
  190.9720  175.2520  146.5480 C   0  0  0  0  0  2  0  0  0  0  0  0
  193.2450  176.2660  146.2920 C   0  0  1  0  0  3  0  0  0  0  0  0
  190.6160  175.6470  145.1120 C   0  0  1  0  0  3  0  0  0  0  0  0
  194.7340  175.9940  146.4020 C   0  0  0  0  0  2  0  0  0  0  0  0
  195.0390  174.6750  145.8750 N   0  0  0  0  0  2  0  0  0  0  0  0
  196.1330  174.8440  144.9360 C   0  0  0  0  0  1  0  0  0  0  0  0
  1 17  2  0  0  0  0
  4  7  2  0  0  0  0
  4  5  1  0  0  0  0
  5 12  2  0  0  0  0
  6 23  1  0  0  0  0
  6  2  1  6  0  0  0
  7  8  1  0  0  0  0
  8  2  1  0  0  0  0
  8 11  2  0  0  0  0
  9 17  1  0  0  0  0
 10  3  2  0  0  0  0
 12 11  1  0  0  0  0
 13  9  1  0  0  0  0
 13 10  1  0  0  0  0
 14  3  1  1  0  0  0
 14  6  1  0  0  0  0
 15 17  1  6  0  0  0
 15 14  1  0  0  0  0
 15  7  1  0  0  0  0
 16 13  2  0  0  0  0
 18 19  1  0  0  0  0
 19 22  1  0  0  0  0
 21 20  1  0  0  0  0
 22 24  1  6  0  0  0
 22 20  1  0  0  0  0
 23 18  1  1  0  0  0
 23 21  1  0  0  0  0
 25 24  1  0  0  0  0
 26 25  1  0  0  0  0
M  END
>  <MODEL>
3

>  <REMARK>
 VINA RESULT:      -7.6      1.080      1.206
  Name = 
  3 active torsions:
  status: ('A' for Active; 'I' for Inactive)
    1  A    between atoms: C_9  and  C_22
    2  A    between atoms: C_10  and  N_11
    3  A    between atoms: C_10  and  C_19
                            x       y       z     vdW  Elec       q    Type
                         _______ _______ _______ _____ _____    ______ ____

>  <TORSDO>
F 3

$$$$
=
 OpenBabel11042417223D

 26 29  0  0  1  0  0  0  0  0999 V2000
  184.8810  179.1320  142.7810 O   0  0  0  0  0  0  0  0  0  0  0  0
  188.0210  177.4270  146.0240 N   0  0  0  0  0  2  0  0  0  0  0  0
  188.1690  176.3340  142.4960 C   0  0  0  0  0  3  0  0  0  0  0  0
  184.5010  178.2910  145.2740 C   0  0  0  0  0  3  0  0  0  0  0  0
  184.0260  178.6180  146.5470 C   0  0  0  0  0  3  0  0  0  0  0  0
  188.3260  176.4970  144.9430 C   0  0  1  0  0  3  0  0  0  0  0  0
  185.8530  177.9570  145.0660 C   0  0  0  0  0  0  0  0  0  0  0  0
  186.6960  177.8980  146.1850 C   0  0  0  0  0  0  0  0  0  0  0  0
  185.9740  177.9650  141.2630 N   0  0  0  0  0  2  0  0  0  0  0  0
  187.8170  176.4150  141.1700 C   0  0  0  0  0  3  0  0  0  0  0  0
  186.2320  178.2440  147.4580 C   0  0  0  0  0  3  0  0  0  0  0  0
  184.8960  178.6080  147.6380 C   0  0  0  0  0  3  0  0  0  0  0  0
  186.8140  177.1510  140.5910 C   0  0  0  0  0  0  0  0  0  0  0  0
  187.6180  176.8990  143.6410 C   0  0  2  0  0  3  0  0  0  0  0  0
  186.4130  177.6640  143.6930 C   0  0  2  0  0  3  0  0  0  0  0  0
  186.6920  177.0780  139.3420 O   0  0  0  0  0  0  0  0  0  0  0  0
  185.7580  178.2520  142.5690 C   0  0  0  0  0  0  0  0  0  0  0  0
  190.2250  175.0970  143.9300 C   0  0  0  0  0  2  0  0  0  0  0  0
  191.7390  174.9260  143.8800 C   0  0  0  0  0  2  0  0  0  0  0  0
  192.0200  177.3940  144.1790 C   0  0  0  0  0  2  0  0  0  0  0  0
  190.5030  177.5540  144.2280 C   0  0  0  0  0  2  0  0  0  0  0  0
  192.3920  176.1890  143.3190 C   0  0  1  0  0  3  0  0  0  0  0  0
  189.8540  176.2970  144.8140 C   0  0  1  0  0  3  0  0  0  0  0  0
  193.9020  176.0350  143.3000 C   0  0  0  0  0  2  0  0  0  0  0  0
  194.4600  176.4450  144.5770 N   0  0  0  0  0  2  0  0  0  0  0  0
  195.4000  175.4120  144.9720 C   0  0  0  0  0  1  0  0  0  0  0  0
  2  8  1  0  0  0  0
  4  5  1  0  0  0  0
  5 12  2  0  0  0  0
  6  2  1  1  0  0  0
  7  4  2  0  0  0  0
  7  8  1  0  0  0  0
  8 11  2  0  0  0  0
  9 17  1  0  0  0  0
 10  3  2  0  0  0  0
 11 12  1  0  0  0  0
 13 10  1  0  0  0  0
 13  9  1  0  0  0  0
 14  3  1  1  0  0  0
 14 15  1  0  0  0  0
 14  6  1  0  0  0  0
 15 17  1  1  0  0  0
 15  7  1  0  0  0  0
 16 13  2  0  0  0  0
 17  1  2  0  0  0  0
 19 18  1  0  0  0  0
 20 21  1  0  0  0  0
 21 23  1  0  0  0  0
 22 24  1  1  0  0  0
 22 19  1  0  0  0  0
 22 20  1  0  0  0  0
 23 18  1  6  0  0  0
 23  6  1  0  0  0  0
 24 25  1  0  0  0  0
 25 26  1  0  0  0  0
M  END
>  <MODEL>
4

>  <REMARK>
 VINA RESULT:      -7.2      1.207      1.596
  Name = 
  3 active torsions:
  status: ('A' for Active; 'I' for Inactive)
    1  A    between atoms: C_9  and  C_22
    2  A    between atoms: C_10  and  N_11
    3  A    between atoms: C_10  and  C_19
                            x       y       z     vdW  Elec       q    Type
                         _______ _______ _______ _____ _____    ______ ____

>  <TORSDO>
F 3

$$$$
=
 OpenBabel11042417223D

 26 29  0  0  1  0  0  0  0  0999 V2000
  184.4560  177.9100  144.2860 O   0  0  0  0  0  0  0  0  0  0  0  0
  188.4490  176.0010  142.3650 N   0  0  0  0  0  2  0  0  0  0  0  0
  188.3850  177.0840  145.8980 C   0  0  0  0  0  3  0  0  0  0  0  0
  185.6120  178.3390  141.9310 C   0  0  0  0  0  3  0  0  0  0  0  0
  185.4550  178.3180  140.5430 C   0  0  0  0  0  3  0  0  0  0  0  0
  189.0390  176.4920  143.6050 C   0  0  1  0  0  3  0  0  0  0  0  0
  186.5630  177.5170  142.5680 C   0  0  0  0  0  0  0  0  0  0  0  0
  187.3930  176.7260  141.7610 C   0  0  0  0  0  0  0  0  0  0  0  0
  185.5430  177.9950  146.2030 N   0  0  0  0  0  2  0  0  0  0  0  0
  187.7500  177.5120  147.0400 C   0  0  0  0  0  3  0  0  0  0  0  0
  187.2260  176.6850  140.3740 C   0  0  0  0  0  3  0  0  0  0  0  0
  186.2530  177.4790  139.7650 C   0  0  0  0  0  3  0  0  0  0  0  0
  186.4550  177.9360  147.1950 C   0  0  0  0  0  0  0  0  0  0  0  0
  187.9630  176.9980  144.5760 C   0  0  2  0  0  3  0  0  0  0  0  0
  186.7120  177.4660  144.0710 C   0  0  2  0  0  3  0  0  0  0  0  0
  186.0900  178.2650  148.3520 O   0  0  0  0  0  0  0  0  0  0  0  0
  185.5690  177.7920  144.8640 C   0  0  0  0  0  0  0  0  0  0  0  0
  189.5170  173.9990  143.9940 C   0  0  0  0  0  2  0  0  0  0  0  0
  190.4870  173.0160  144.6400 C   0  0  0  0  0  2  0  0  0  0  0  0
  192.3710  174.6030  144.2080 C   0  0  0  0  0  2  0  0  0  0  0  0
  191.3920  175.5810  143.5630 C   0  0  0  0  0  2  0  0  0  0  0  0
  191.8780  173.1710  144.0260 C   0  0  1  0  0  3  0  0  0  0  0  0
  190.0050  175.4400  144.1990 C   0  0  1  0  0  3  0  0  0  0  0  0
  192.8540  172.2170  144.6910 C   0  0  0  0  0  2  0  0  0  0  0  0
  193.7820  172.9580  145.5280 N   0  0  0  0  0  2  0  0  0  0  0  0
  195.0400  172.2350  145.4960 C   0  0  0  0  0  1  0  0  0  0  0  0
  1 17  2  0  0  0  0
  3 10  2  0  0  0  0
  4  7  1  0  0  0  0
  5  4  2  0  0  0  0
  6  2  1  6  0  0  0
  6 23  1  0  0  0  0
  6 14  1  0  0  0  0
  8  2  1  0  0  0  0
  8  7  2  0  0  0  0
  9 13  1  0  0  0  0
 10 13  1  0  0  0  0
 11  8  1  0  0  0  0
 12 11  2  0  0  0  0
 12  5  1  0  0  0  0
 13 16  2  0  0  0  0
 14  3  1  6  0  0  0
 15  7  1  6  0  0  0
 15 14  1  0  0  0  0
 15 17  1  0  0  0  0
 17  9  1  0  0  0  0
 18 23  1  0  0  0  0
 18 19  1  0  0  0  0
 21 20  1  0  0  0  0
 22 20  1  0  0  0  0
 22 19  1  0  0  0  0
 22 24  1  1  0  0  0
 23 21  1  6  0  0  0
 24 25  1  0  0  0  0
 26 25  1  0  0  0  0
M  END
>  <MODEL>
5

>  <REMARK>
 VINA RESULT:      -7.2      2.358      4.531
  Name = 
  3 active torsions:
  status: ('A' for Active; 'I' for Inactive)
    1  A    between atoms: C_9  and  C_22
    2  A    between atoms: C_10  and  N_11
    3  A    between atoms: C_10  and  C_19
                            x       y       z     vdW  Elec       q    Type
                         _______ _______ _______ _____ _____    ______ ____

>  <TORSDO>
F 3

$$$$
=
 OpenBabel11042417223D

 26 29  0  0  1  0  0  0  0  0999 V2000
  193.2970  171.9120  144.6540 O   0  0  0  0  0  0  0  0  0  0  0  0
  190.9890  175.9580  145.9140 N   0  0  0  0  0  2  0  0  0  0  0  0
  189.5460  173.6660  143.3980 C   0  0  0  0  0  3  0  0  0  0  0  0
  194.2180  174.3770  145.0330 C   0  0  0  0  0  3  0  0  0  0  0  0
  195.1140  175.1820  145.7410 C   0  0  0  0  0  3  0  0  0  0  0  0
  190.1760  175.6170  144.7520 C   0  0  1  0  0  3  0  0  0  0  0  0
  192.8270  174.5760  145.1330 C   0  0  0  0  0  0  0  0  0  0  0  0
  192.3700  175.6490  145.9110 C   0  0  0  0  0  0  0  0  0  0  0  0
  191.5690  171.4500  143.3650 N   0  0  0  0  0  2  0  0  0  0  0  0
  189.4910  172.4780  142.7070 C   0  0  0  0  0  3  0  0  0  0  0  0
  193.2610  176.4450  146.6380 C   0  0  0  0  0  3  0  0  0  0  0  0
  194.6340  176.2080  146.5550 C   0  0  0  0  0  3  0  0  0  0  0  0
  190.4080  171.4580  142.6780 C   0  0  0  0  0  0  0  0  0  0  0  0
  190.5270  174.2250  144.2100 C   0  0  2  0  0  3  0  0  0  0  0  0
  191.8290  173.6810  144.4350 C   0  0  2  0  0  3  0  0  0  0  0  0
  190.1280  170.4500  141.9800 O   0  0  0  0  0  0  0  0  0  0  0  0
  192.2270  172.3400  144.1460 C   0  0  0  0  0  0  0  0  0  0  0  0
  188.4250  176.3430  146.4850 C   0  0  0  0  0  2  0  0  0  0  0  0
  186.9280  176.4920  146.7380 C   0  0  0  0  0  2  0  0  0  0  0  0
  186.5760  176.9890  144.3120 C   0  0  0  0  0  2  0  0  0  0  0  0
  188.0760  176.8370  144.0690 C   0  0  0  0  0  2  0  0  0  0  0  0
  186.3220  177.4740  145.7360 C   0  0  1  0  0  3  0  0  0  0  0  0
  188.6750  175.8330  145.0580 C   0  0  1  0  0  3  0  0  0  0  0  0
  184.8260  177.5980  145.9640 C   0  0  0  0  0  2  0  0  0  0  0  0
  184.4150  178.9840  145.8220 N   0  0  0  0  0  2  0  0  0  0  0  0
  183.8800  179.1250  144.4810 C   0  0  0  0  0  1  0  0  0  0  0  0
  4  7  2  0  0  0  0
  4  5  1  0  0  0  0
  5 12  2  0  0  0  0
  6 23  1  0  0  0  0
  6  2  1  1  0  0  0
  7  8  1  0  0  0  0
  8  2  1  0  0  0  0
  8 11  2  0  0  0  0
  9 17  1  0  0  0  0
 10  3  2  0  0  0  0
 12 11  1  0  0  0  0
 13 10  1  0  0  0  0
 13  9  1  0  0  0  0
 14  3  1  6  0  0  0
 14 15  1  0  0  0  0
 14  6  1  0  0  0  0
 15 17  1  1  0  0  0
 15  7  1  0  0  0  0
 16 13  2  0  0  0  0
 17  1  2  0  0  0  0
 18 19  1  0  0  0  0
 20 22  1  0  0  0  0
 21 20  1  0  0  0  0
 22 24  1  1  0  0  0
 22 19  1  0  0  0  0
 23 21  1  6  0  0  0
 23 18  1  0  0  0  0
 25 24  1  0  0  0  0
 26 25  1  0  0  0  0
M  END
>  <MODEL>
6

>  <REMARK>
 VINA RESULT:      -7.2      3.259      7.306
  Name = 
  3 active torsions:
  status: ('A' for Active; 'I' for Inactive)
    1  A    between atoms: C_9  and  C_22
    2  A    between atoms: C_10  and  N_11
    3  A    between atoms: C_10  and  C_19
                            x       y       z     vdW  Elec       q    Type
                         _______ _______ _______ _____ _____    ______ ____

>  <TORSDO>
F 3

$$$$
=
 OpenBabel11042417223D

 26 29  0  0  1  0  0  0  0  0999 V2000
  187.0530  178.0850  147.3510 O   0  0  0  0  0  0  0  0  0  0  0  0
  186.8540  176.0690  142.9720 N   0  0  0  0  0  2  0  0  0  0  0  0
  189.9940  176.0410  144.9230 C   0  0  0  0  0  3  0  0  0  0  0  0
  185.9320  178.9520  145.1020 C   0  0  0  0  0  3  0  0  0  0  0  0
  184.7530  179.3770  144.4850 C   0  0  0  0  0  3  0  0  0  0  0  0
  188.3020  176.0380  143.1400 C   0  0  1  0  0  3  0  0  0  0  0  0
  186.6140  177.8040  144.6540 C   0  0  0  0  0  0  0  0  0  0  0  0
  186.1110  177.1380  143.5280 C   0  0  0  0  0  0  0  0  0  0  0  0
  189.1380  177.3750  147.4700 N   0  0  0  0  0  2  0  0  0  0  0  0
  190.7290  176.2290  146.0690 C   0  0  0  0  0  3  0  0  0  0  0  0
  184.9200  177.5460  142.9190 C   0  0  0  0  0  3  0  0  0  0  0  0
  184.2380  178.6650  143.4010 C   0  0  0  0  0  3  0  0  0  0  0  0
  190.3540  176.8410  147.2390 C   0  0  0  0  0  0  0  0  0  0  0  0
  188.7110  176.4390  144.5650 C   0  0  2  0  0  3  0  0  0  0  0  0
  187.8550  177.2800  145.3400 C   0  0  2  0  0  3  0  0  0  0  0  0
  191.2010  176.8770  148.1680 O   0  0  0  0  0  0  0  0  0  0  0  0
  188.0230  177.5780  146.7270 C   0  0  0  0  0  0  0  0  0  0  0  0
  187.8140  173.7840  142.0130 C   0  0  0  0  0  2  0  0  0  0  0  0
  188.4320  172.4510  141.6010 C   0  0  0  0  0  2  0  0  0  0  0  0
  190.6270  173.5930  141.2300 C   0  0  0  0  0  2  0  0  0  0  0  0
  189.9990  174.9210  141.6440 C   0  0  0  0  0  2  0  0  0  0  0  0
  189.5700  172.6850  140.6080 C   0  0  1  0  0  3  0  0  0  0  0  0
  188.8770  174.6850  142.6580 C   0  0  1  0  0  3  0  0  0  0  0  0
  190.2090  171.3630  140.2230 C   0  0  0  0  0  2  0  0  0  0  0  0
  191.1670  170.9590  141.2390 N   0  0  0  0  0  2  0  0  0  0  0  0
  190.8160  169.6050  141.6260 C   0  0  0  0  0  1  0  0  0  0  0  0
  2  8  1  0  0  0  0
  3 10  2  0  0  0  0
  5  4  2  0  0  0  0
  6  2  1  1  0  0  0
  6 14  1  0  0  0  0
  7  4  1  0  0  0  0
  8  7  2  0  0  0  0
 10 13  1  0  0  0  0
 11 12  2  0  0  0  0
 11  8  1  0  0  0  0
 12  5  1  0  0  0  0
 13  9  1  0  0  0  0
 13 16  2  0  0  0  0
 14  3  1  6  0  0  0
 14 15  1  0  0  0  0
 15  7  1  1  0  0  0
 15 17  1  0  0  0  0
 17  1  2  0  0  0  0
 17  9  1  0  0  0  0
 18 23  1  0  0  0  0
 19 18  1  0  0  0  0
 20 21  1  0  0  0  0
 22 24  1  1  0  0  0
 22 20  1  0  0  0  0
 22 19  1  0  0  0  0
 23 21  1  6  0  0  0
 23  6  1  0  0  0  0
 24 25  1  0  0  0  0
 25 26  1  0  0  0  0
M  END
>  <MODEL>
7

>  <REMARK>
 VINA RESULT:      -7.1      3.296      5.375
  Name = 
  3 active torsions:
  status: ('A' for Active; 'I' for Inactive)
    1  A    between atoms: C_9  and  C_22
    2  A    between atoms: C_10  and  N_11
    3  A    between atoms: C_10  and  C_19
                            x       y       z     vdW  Elec       q    Type
                         _______ _______ _______ _____ _____    ______ ____

>  <TORSDO>
F 3

$$$$
=
 OpenBabel11042417223D

 26 29  0  0  1  0  0  0  0  0999 V2000
  192.7680  172.1240  144.0010 O   0  0  0  0  0  0  0  0  0  0  0  0
  190.8580  176.4570  144.9300 N   0  0  0  0  0  2  0  0  0  0  0  0
  189.8040  174.5270  141.9590 C   0  0  0  0  0  3  0  0  0  0  0  0
  193.9220  174.3850  144.7930 C   0  0  0  0  0  3  0  0  0  0  0  0
  194.7100  175.0030  145.7670 C   0  0  0  0  0  3  0  0  0  0  0  0
  190.3420  176.2980  143.5750 C   0  0  1  0  0  3  0  0  0  0  0  0
  192.6030  174.8120  144.5460 C   0  0  0  0  0  0  0  0  0  0  0  0
  192.1260  175.9200  145.2600 C   0  0  0  0  0  0  0  0  0  0  0  0
  191.3960  172.0030  142.2790 N   0  0  0  0  0  2  0  0  0  0  0  0
  189.7530  173.3890  141.1890 C   0  0  0  0  0  3  0  0  0  0  0  0
  192.9020  176.5290  146.2500 C   0  0  0  0  0  3  0  0  0  0  0  0
  194.1940  176.0670  146.5060 C   0  0  0  0  0  3  0  0  0  0  0  0
  190.4770  172.2300  141.3190 C   0  0  0  0  0  0  0  0  0  0  0  0
  190.6070  174.8850  143.0360 C   0  0  2  0  0  3  0  0  0  0  0  0
  191.7010  174.1220  143.5470 C   0  0  2  0  0  3  0  0  0  0  0  0
  190.2410  171.3080  140.4970 O   0  0  0  0  0  0  0  0  0  0  0  0
  191.9510  172.7430  143.2690 C   0  0  0  0  0  0  0  0  0  0  0  0
  188.3120  177.2060  144.8580 C   0  0  0  0  0  2  0  0  0  0  0  0
  186.8440  177.5990  144.7260 C   0  0  0  0  0  2  0  0  0  0  0  0
  187.2550  178.3050  142.3620 C   0  0  0  0  0  2  0  0  0  0  0  0
  188.7230  177.9090  142.5040 C   0  0  0  0  0  2  0  0  0  0  0  0
  186.6940  178.7350  143.7140 C   0  0  1  0  0  3  0  0  0  0  0  0
  188.8660  176.7540  143.5000 C   0  0  1  0  0  3  0  0  0  0  0  0
  185.2310  179.1050  143.5540 C   0  0  0  0  0  2  0  0  0  0  0  0
  184.4500  177.9200  143.2390 N   0  0  0  0  0  2  0  0  0  0  0  0
  183.5640  178.2840  142.1480 C   0  0  0  0  0  1  0  0  0  0  0  0
  2  8  1  0  0  0  0
  4  5  1  0  0  0  0
  5 12  2  0  0  0  0
  6  2  1  1  0  0  0
  7  4  2  0  0  0  0
  7  8  1  0  0  0  0
  8 11  2  0  0  0  0
  9 17  1  0  0  0  0
 10 13  1  0  0  0  0
 10  3  2  0  0  0  0
 11 12  1  0  0  0  0
 13  9  1  0  0  0  0
 14  3  1  6  0  0  0
 14 15  1  0  0  0  0
 14  6  1  0  0  0  0
 15 17  1  1  0  0  0
 15  7  1  0  0  0  0
 16 13  2  0  0  0  0
 17  1  2  0  0  0  0
 19 18  1  0  0  0  0
 20 21  1  0  0  0  0
 20 22  1  0  0  0  0
 22 24  1  6  0  0  0
 22 19  1  0  0  0  0
 23 21  1  6  0  0  0
 23  6  1  0  0  0  0
 23 18  1  0  0  0  0
 25 24  1  0  0  0  0
 26 25  1  0  0  0  0
M  END
>  <MODEL>
8

>  <REMARK>
 VINA RESULT:      -6.7      3.119      7.189
  Name = 
  3 active torsions:
  status: ('A' for Active; 'I' for Inactive)
    1  A    between atoms: C_9  and  C_22
    2  A    between atoms: C_10  and  N_11
    3  A    between atoms: C_10  and  C_19
                            x       y       z     vdW  Elec       q    Type
                         _______ _______ _______ _____ _____    ______ ____

>  <TORSDO>
F 3

$$$$
=
 OpenBabel11042417223D

 26 29  0  0  1  0  0  0  0  0999 V2000
  193.9410  174.0700  142.5190 O   0  0  0  0  0  0  0  0  0  0  0  0
  189.2900  174.3200  143.7800 N   0  0  0  0  0  2  0  0  0  0  0  0
  191.8420  176.3040  145.5730 C   0  0  0  0  0  3  0  0  0  0  0  0
  192.1250  172.1490  142.8040 C   0  0  0  0  0  3  0  0  0  0  0  0
  191.4540  171.0890  142.1890 C   0  0  0  0  0  3  0  0  0  0  0  0
  189.8470  175.0210  144.9310 C   0  0  1  0  0  3  0  0  0  0  0  0
  191.4240  173.2750  143.2810 C   0  0  0  0  0  0  0  0  0  0  0  0
  190.0260  173.2700  143.1810 C   0  0  0  0  0  0  0  0  0  0  0  0
  194.3330  175.6040  144.0540 N   0  0  0  0  0  2  0  0  0  0  0  0
  193.1060  176.8200  145.7340 C   0  0  0  0  0  3  0  0  0  0  0  0
  189.3510  172.2220  142.5480 C   0  0  0  0  0  3  0  0  0  0  0  0
  190.0670  171.1320  142.0480 C   0  0  0  0  0  3  0  0  0  0  0  0
  194.2550  176.5070  145.0520 C   0  0  0  0  0  0  0  0  0  0  0  0
  191.3450  175.3030  144.7460 C   0  0  2  0  0  3  0  0  0  0  0  0
  192.1260  174.4670  143.8910 C   0  0  2  0  0  3  0  0  0  0  0  0
  195.3000  177.1310  145.3670 O   0  0  0  0  0  0  0  0  0  0  0  0
  193.4730  174.7210  143.4910 C   0  0  0  0  0  0  0  0  0  0  0  0
  188.0360  176.6620  144.1430 C   0  0  0  0  0  2  0  0  0  0  0  0
  187.2570  177.9160  144.5260 C   0  0  0  0  0  2  0  0  0  0  0  0
  187.3870  177.2500  146.9330 C   0  0  0  0  0  2  0  0  0  0  0  0
  188.1670  175.9990  146.5400 C   0  0  0  0  0  2  0  0  0  0  0  0
  186.4520  177.6640  145.8010 C   0  0  1  0  0  3  0  0  0  0  0  0
  188.9920  176.2630  145.2760 C   0  0  1  0  0  3  0  0  0  0  0  0
  185.7020  178.9210  146.2040 C   0  0  0  0  0  2  0  0  0  0  0  0
  184.2700  178.6880  146.1380 N   0  0  0  0  0  2  0  0  0  0  0  0
  183.8520  179.0410  144.7930 C   0  0  0  0  0  1  0  0  0  0  0  0
  1 17  2  0  0  0  0
  3 10  2  0  0  0  0
  4  7  1  0  0  0  0
  5  4  2  0  0  0  0
  6  2  1  6  0  0  0
  6 23  1  0  0  0  0
  8  7  2  0  0  0  0
  8  2  1  0  0  0  0
  9 13  1  0  0  0  0
 11  8  1  0  0  0  0
 12  5  1  0  0  0  0
 12 11  2  0  0  0  0
 13 16  2  0  0  0  0
 13 10  1  0  0  0  0
 14  6  1  0  0  0  0
 14  3  1  1  0  0  0
 15  7  1  6  0  0  0
 15 14  1  0  0  0  0
 17 15  1  0  0  0  0
 17  9  1  0  0  0  0
 18 19  1  0  0  0  0
 19 22  1  0  0  0  0
 21 20  1  0  0  0  0
 22 24  1  1  0  0  0
 22 20  1  0  0  0  0
 23 18  1  6  0  0  0
 23 21  1  0  0  0  0
 25 24  1  0  0  0  0
 26 25  1  0  0  0  0
M  END
>  <MODEL>
9

>  <REMARK>
 VINA RESULT:      -6.6      3.569      7.537
  Name = 
  3 active torsions:
  status: ('A' for Active; 'I' for Inactive)
    1  A    between atoms: C_9  and  C_22
    2  A    between atoms: C_10  and  N_11
    3  A    between atoms: C_10  and  C_19
                            x       y       z     vdW  Elec       q    Type
                         _______ _______ _______ _____ _____    ______ ____

>  <TORSDO>
F 3

$$$$
