=
 OpenBabel11042414503D

 64 70  0  0  1  0  0  0  0  0999 V2000
  193.6290  176.4270  144.0550 C   0  0  2  0  0  3  0  0  0  0  0  0
  195.2490  174.5310  144.4590 N   0  0  0  0  0  0  0  0  0  0  0  0
  194.8470  175.6530  143.6750 C   0  0  0  0  0  0  0  0  0  0  0  0
  195.8780  174.7890  145.7570 C   0  0  0  0  0  2  0  0  0  0  0  0
  196.7920  173.6240  146.1540 C   0  0  0  0  0  2  0  0  0  0  0  0
  195.5180  173.2690  143.7830 C   0  0  0  0  0  2  0  0  0  0  0  0
  197.0350  173.0590  143.7600 C   0  0  1  0  0  3  0  0  0  0  0  0
  197.7140  173.2800  145.0560 N   0  0  0  0  0  2  0  0  0  0  0  0
  195.4940  175.9630  142.6400 O   0  0  0  0  0  0  0  0  0  0  0  0
  197.4320  171.7620  143.1120 C   0  0  0  0  0  0  0  0  0  0  0  0
  197.9050  171.8210  141.9840 O   0  0  0  0  0  0  0  0  0  0  0  0
  197.9140  170.4530  145.0280 O   0  0  0  0  0  1  0  0  0  0  0  0
  197.8780  169.3140  142.9480 C   0  0  0  0  0  1  0  0  0  0  0  0
  197.2400  170.4150  143.8020 C   0  0  2  0  0  0  0  0  0  0  0  0
  195.1270  169.6200  142.8620 C   0  0  0  0  0  1  0  0  0  0  0  0
  195.8000  170.1490  144.0480 N   0  0  0  0  0  0  0  0  0  0  0  0
  195.6360  169.1460  145.0970 C   0  0  0  0  0  1  0  0  0  0  0  0
  193.0740  175.8410  145.2330 O   0  0  0  0  0  0  0  0  0  0  0  0
  190.4870  173.3480  144.3540 C   0  0  0  0  0  0  0  0  0  0  0  0
  191.6450  174.1250  144.3240 C   0  0  0  0  0  3  0  0  0  0  0  0
  188.9080  174.5570  147.5750 C   0  0  0  0  0  1  0  0  0  0  0  0
  191.0190  175.1710  146.4040 C   0  0  0  0  0  3  0  0  0  0  0  0
  189.5870  173.4900  145.4190 C   0  0  0  0  0  3  0  0  0  0  0  0
  191.9220  175.0450  145.3410 C   0  0  0  0  0  0  0  0  0  0  0  0
  189.8570  174.4010  146.4420 C   0  0  0  0  0  0  0  0  0  0  0  0
  192.0380  170.8990  143.9290 O   0  0  0  0  0  0  0  0  0  0  0  0
  191.1330  171.2220  143.1100 C   0  0  0  0  0  0  0  0  0  0  0  0
  190.3000  172.3610  143.3440 N   0  0  0  0  0  2  0  0  0  0  0  0
  190.8280  170.3270  141.9640 C   0  0  0  0  0  2  0  0  0  0  0  0
  191.2720  170.9860  140.6720 C   0  0  0  0  0  2  0  0  0  0  0  0
  191.5650  168.6180  136.4880 C   0  0  0  0  0  1  0  0  0  0  0  0
  193.3250  170.3260  139.2220 C   0  0  1  0  0  3  0  0  0  0  0  0
  191.0380  169.7510  138.5780 N   0  0  0  0  0  2  0  0  0  0  0  0
  191.9100  169.9750  139.7270 C   0  0  2  0  0  3  0  0  0  0  0  0
  191.8690  169.7980  137.3830 C   0  0  0  0  0  0  0  0  0  0  0  0
  193.3150  169.7520  137.8210 C   0  0  0  0  0  2  0  0  0  0  0  0
  191.5910  171.0860  136.6360 C   0  0  0  0  0  1  0  0  0  0  0  0
  195.0090  174.0930  137.6380 C   0  0  1  0  0  3  0  0  0  0  0  0
  194.2690  172.9970  137.1560 O   0  0  0  0  0  0  0  0  0  0  0  0
  193.6430  171.8350  139.1720 C   0  0  2  0  0  3  0  0  0  0  0  0
  197.0510  173.0480  138.7290 C   0  0  0  0  0  1  0  0  0  0  0  0
  194.7620  172.1690  138.1880 C   0  0  2  0  0  3  0  0  0  0  0  0
  195.0140  173.5520  140.1990 C   0  0  0  0  0  2  0  0  0  0  0  0
  194.1270  172.3660  140.5130 C   0  0  0  0  0  2  0  0  0  0  0  0
  194.0640  175.2180  138.0450 C   0  0  0  0  0  1  0  0  0  0  0  0
  195.5560  173.2870  138.7990 C   0  0  2  0  0  0  0  0  0  0  0  0
  192.6610  176.5090  142.8820 C   0  0  0  0  0  2  0  0  0  0  0  0
  191.7490  177.7090  143.1100 C   0  0  0  0  0  2  0  0  0  0  0  0
  184.3820  178.6460  145.5070 C   0  0  2  0  0  3  0  0  0  0  0  0
  187.5610  176.8820  145.4060 N   0  0  0  0  0  0  0  0  0  0  0  0
  186.6000  178.6420  142.7310 C   0  0  0  0  0  3  0  0  0  0  0  0
  189.4890  177.4300  144.1740 N   0  0  0  0  0  2  0  0  0  0  0  0
  187.2320  177.2760  142.9870 C   0  0  0  0  0  2  0  0  0  0  0  0
  185.1700  177.4690  144.9310 C   0  0  2  0  0  3  0  0  0  0  0  0
  186.1470  176.6020  145.7360 C   0  0  0  0  0  2  0  0  0  0  0  0
  190.3010  177.3570  142.9950 C   0  0  0  0  0  0  0  0  0  0  0  0
  185.8890  179.2940  143.6030 N   0  0  0  0  0  0  0  0  0  0  0  0
  189.8310  176.9140  141.9060 O   0  0  0  0  0  0  0  0  0  0  0  0
  185.7740  178.8620  144.9710 C   0  0  1  0  0  3  0  0  0  0  0  0
  188.0800  177.1770  144.2380 C   0  0  0  0  0  0  0  0  0  0  0  0
  184.4080  178.6210  147.0240 C   0  0  0  0  0  2  0  0  0  0  0  0
  185.5060  179.5430  147.5400 C   0  0  0  0  0  2  0  0  0  0  0  0
  187.3950  179.3330  148.8330 O   0  0  0  0  0  0  0  0  0  0  0  0
  186.4850  178.7850  148.2800 N   0  0  0  0  0  0  0  0  0  0  0  0
  1 47  1  6  0  0  0
  1 18  1  0  0  0  0
  2  4  1  0  0  0  0
  3  1  1  0  0  0  0
  3  2  1  0  0  0  0
  4  5  1  0  0  0  0
  6  2  1  0  0  0  0
  7 10  1  1  0  0  0
  7  6  1  0  0  0  0
  7  8  1  0  0  0  0
  8  5  1  0  0  0  0
  9  3  2  0  0  0  0
 10 14  1  0  0  0  0
 11 10  2  0  0  0  0
 14 13  1  6  0  0  0
 14 16  1  0  0  0  0
 14 12  1  0  0  0  0
 15 16  1  0  0  0  0
 16 17  1  0  0  0  0
 18 24  1  0  0  0  0
 19 23  1  0  0  0  0
 20 19  2  0  0  0  0
 20 24  1  0  0  0  0
 22 25  1  0  0  0  0
 23 25  2  0  0  0  0
 24 22  2  0  0  0  0
 25 21  1  0  0  0  0
 27 28  1  0  0  0  0
 27 26  2  0  0  0  0
 28 19  1  0  0  0  0
 29 27  1  0  0  0  0
 30 29  1  0  0  0  0
 31 35  1  0  0  0  0
 32 36  1  6  0  0  0
 32 34  1  0  0  0  0
 33 34  1  0  0  0  0
 34 30  1  6  0  0  0
 35 36  1  0  0  0  0
 35 33  1  0  0  0  0
 37 35  1  0  0  0  0
 38 45  1  1  0  0  0
 38 46  1  0  0  0  0
 39 38  1  0  0  0  0
 40 32  1  0  0  0  0
 40 44  1  1  0  0  0
 42 39  1  6  0  0  0
 42 46  1  0  0  0  0
 42 40  1  0  0  0  0
 43 44  1  0  0  0  0
 46 41  1  6  0  0  0
 46 43  1  0  0  0  0
 47 48  1  0  0  0  0
 49 61  1  1  0  0  0
 50 55  1  0  0  0  0
 51 53  1  0  0  0  0
 51 57  2  0  0  0  0
 52 60  1  0  0  0  0
 53 60  1  0  0  0  0
 54 59  1  0  0  0  0
 54 49  1  0  0  0  0
 54 55  1  1  0  0  0
 56 48  1  0  0  0  0
 56 52  1  0  0  0  0
 58 56  2  0  0  0  0
 59 57  1  6  0  0  0
 59 49  1  0  0  0  0
 60 50  2  0  0  0  0
 61 62  1  0  0  0  0
 62 64  1  0  0  0  0
 64 63  2  0  0  0  0
M  END
>  <MODEL>
1

>  <REMARK>
 VINA RESULT:      -7.1      0.000      0.000
  Name = 
  17 active torsions:
  status: ('A' for Active; 'I' for Inactive)
    1  A    between atoms: C_3  and  C_50
    2  A    between atoms: C_7  and  N_27
    3  A    between atoms: C_8  and  C_30
    4  A    between atoms: C_8  and  C_45
    5  A    between atoms: O_9  and  C_50
    6  A    between atoms: O_9  and  C_54
    7  A    between atoms: C_10  and  C_16
    8  A    between atoms: C_11  and  C_44
    9  A    between atoms: C_12  and  C_34
   10  A    between atoms: C_12  and  C_52
   11  A    between atoms: C_21  and  C_42
   12  A    between atoms: C_30  and  C_50
   13  A    between atoms: C_31  and  C_44
   14  A    between atoms: C_31  and  N_51
   15  A    between atoms: C_34  and  N_49
   16  A    between atoms: C_42  and  C_43
   17  A    between atoms: C_43  and  C_56
                            x       y       z     vdW  Elec       q    Type
                         _______ _______ _______ _____ _____    ______ ____

>  <TORSDO>
F 17

$$$$
=
 OpenBabel11042414503D

 64 70  0  0  1  0  0  0  0  0999 V2000
  193.7970  176.3440  144.1510 C   0  0  2  0  0  3  0  0  0  0  0  0
  195.3300  174.3660  144.5030 N   0  0  0  0  0  0  0  0  0  0  0  0
  194.9150  175.4670  143.6960 C   0  0  0  0  0  0  0  0  0  0  0  0
  196.1120  174.6550  145.7080 C   0  0  0  0  0  2  0  0  0  0  0  0
  196.9900  173.4540  146.0810 C   0  0  0  0  0  2  0  0  0  0  0  0
  195.4430  173.0530  143.8850 C   0  0  0  0  0  2  0  0  0  0  0  0
  196.9330  172.7370  143.7160 C   0  0  1  0  0  3  0  0  0  0  0  0
  197.7620  172.9840  144.9150 N   0  0  0  0  0  2  0  0  0  0  0  0
  195.4630  175.6720  142.5800 O   0  0  0  0  0  0  0  0  0  0  0  0
  197.1740  171.3810  143.1140 C   0  0  0  0  0  0  0  0  0  0  0  0
  197.6520  171.3440  141.9870 O   0  0  0  0  0  0  0  0  0  0  0  0
  197.2760  170.2020  145.1680 O   0  0  0  0  0  1  0  0  0  0  0  0
  197.5630  168.9190  143.1940 C   0  0  0  0  0  1  0  0  0  0  0  0
  196.8230  170.0900  143.8480 C   0  0  2  0  0  0  0  0  0  0  0  0
  194.8780  169.2740  142.6110 C   0  0  0  0  0  1  0  0  0  0  0  0
  195.3540  169.8720  143.8580 N   0  0  0  0  0  0  0  0  0  0  0  0
  194.9800  168.9490  144.9270 C   0  0  0  0  0  1  0  0  0  0  0  0
  193.1990  175.7470  145.3020 O   0  0  0  0  0  0  0  0  0  0  0  0
  190.5400  173.3700  144.3270 C   0  0  0  0  0  0  0  0  0  0  0  0
  191.7290  174.0980  144.3380 C   0  0  0  0  0  3  0  0  0  0  0  0
  188.9160  174.6190  147.5100 C   0  0  0  0  0  1  0  0  0  0  0  0
  191.0850  175.1540  146.4070 C   0  0  0  0  0  3  0  0  0  0  0  0
  189.6140  173.5400  145.3660 C   0  0  0  0  0  3  0  0  0  0  0  0
  192.0130  174.9990  145.3700 C   0  0  0  0  0  0  0  0  0  0  0  0
  189.8910  174.4320  146.4040 C   0  0  0  0  0  0  0  0  0  0  0  0
  191.9130  170.8020  144.0010 O   0  0  0  0  0  0  0  0  0  0  0  0
  191.0950  171.1950  143.1230 C   0  0  0  0  0  0  0  0  0  0  0  0
  190.3430  172.3980  143.3030 N   0  0  0  0  0  2  0  0  0  0  0  0
  190.7980  170.3250  141.9560 C   0  0  0  0  0  2  0  0  0  0  0  0
  191.8770  170.4970  140.9060 C   0  0  0  0  0  2  0  0  0  0  0  0
  194.5180  174.3070  139.5990 C   0  0  0  0  0  1  0  0  0  0  0  0
  191.4150  172.3870  139.1840 C   0  0  1  0  0  3  0  0  0  0  0  0
  193.4670  172.3090  140.5100 N   0  0  0  0  0  2  0  0  0  0  0  0
  192.0490  171.9620  140.5250 C   0  0  2  0  0  3  0  0  0  0  0  0
  193.7200  173.0610  139.2890 C   0  0  0  0  0  0  0  0  0  0  0  0
  192.3840  173.4410  138.6920 C   0  0  0  0  0  2  0  0  0  0  0  0
  194.4940  172.1910  138.3210 C   0  0  0  0  0  1  0  0  0  0  0  0
  191.5840  170.4710  135.2040 C   0  0  1  0  0  3  0  0  0  0  0  0
  192.4040  171.2900  136.0050 O   0  0  0  0  0  0  0  0  0  0  0  0
  191.2860  171.2600  138.1380 C   0  0  2  0  0  3  0  0  0  0  0  0
  189.3790  171.7230  135.0670 C   0  0  0  0  0  1  0  0  0  0  0  0
  191.2820  171.7850  136.7040 C   0  0  2  0  0  3  0  0  0  0  0  0
  189.6580  169.9550  136.9000 C   0  0  0  0  0  2  0  0  0  0  0  0
  189.9800  170.4910  138.2790 C   0  0  0  0  0  2  0  0  0  0  0  0
  191.9460  169.0060  135.4220 C   0  0  0  0  0  1  0  0  0  0  0  0
  190.3310  170.9190  135.9290 C   0  0  2  0  0  0  0  0  0  0  0  0
  192.8250  176.6070  143.0090 C   0  0  0  0  0  2  0  0  0  0  0  0
  191.8800  177.7210  143.4450 C   0  0  0  0  0  2  0  0  0  0  0  0
  184.2880  178.5650  145.0400 C   0  0  2  0  0  3  0  0  0  0  0  0
  187.4360  176.7450  145.1150 N   0  0  0  0  0  0  0  0  0  0  0  0
  186.8260  178.8200  142.5660 C   0  0  0  0  0  3  0  0  0  0  0  0
  189.5050  177.3800  144.1930 N   0  0  0  0  0  2  0  0  0  0  0  0
  187.4070  177.4180  142.7370 C   0  0  0  0  0  2  0  0  0  0  0  0
  185.1270  177.4410  144.4300 C   0  0  2  0  0  3  0  0  0  0  0  0
  185.9890  176.4650  145.2400 C   0  0  0  0  0  2  0  0  0  0  0  0
  190.4530  177.4210  143.1180 C   0  0  0  0  0  0  0  0  0  0  0  0
  186.0210  179.3860  143.4170 N   0  0  0  0  0  0  0  0  0  0  0  0
  190.1140  177.1160  141.9380 O   0  0  0  0  0  0  0  0  0  0  0  0
  185.7380  178.8060  144.7020 C   0  0  1  0  0  3  0  0  0  0  0  0
  188.0960  177.1570  144.0600 C   0  0  0  0  0  0  0  0  0  0  0  0
  184.1300  178.3680  146.5360 C   0  0  0  0  0  2  0  0  0  0  0  0
  185.1040  179.2700  147.2850 C   0  0  0  0  0  2  0  0  0  0  0  0
  185.8310  177.4430  148.4750 O   0  0  0  0  0  0  0  0  0  0  0  0
  186.1140  178.4750  147.9400 N   0  0  0  0  0  0  0  0  0  0  0  0
  1 47  1  6  0  0  0
  1 18  1  0  0  0  0
  2  4  1  0  0  0  0
  3  1  1  0  0  0  0
  3  2  1  0  0  0  0
  4  5  1  0  0  0  0
  6  2  1  0  0  0  0
  7 10  1  1  0  0  0
  7  6  1  0  0  0  0
  7  8  1  0  0  0  0
  8  5  1  0  0  0  0
  9  3  2  0  0  0  0
 10 14  1  0  0  0  0
 11 10  2  0  0  0  0
 14 13  1  6  0  0  0
 14 16  1  0  0  0  0
 14 12  1  0  0  0  0
 15 16  1  0  0  0  0
 16 17  1  0  0  0  0
 18 24  1  0  0  0  0
 19 20  2  0  0  0  0
 19 23  1  0  0  0  0
 20 24  1  0  0  0  0
 23 25  2  0  0  0  0
 24 22  2  0  0  0  0
 25 22  1  0  0  0  0
 25 21  1  0  0  0  0
 27 28  1  0  0  0  0
 27 26  2  0  0  0  0
 28 19  1  0  0  0  0
 29 27  1  0  0  0  0
 30 29  1  0  0  0  0
 32 36  1  6  0  0  0
 32 34  1  0  0  0  0
 33 34  1  0  0  0  0
 34 30  1  6  0  0  0
 35 31  1  0  0  0  0
 35 33  1  0  0  0  0
 36 35  1  0  0  0  0
 37 35  1  0  0  0  0
 38 45  1  1  0  0  0
 38 46  1  0  0  0  0
 38 39  1  0  0  0  0
 40 44  1  1  0  0  0
 40 32  1  0  0  0  0
 42 39  1  6  0  0  0
 42 40  1  0  0  0  0
 43 44  1  0  0  0  0
 46 41  1  6  0  0  0
 46 42  1  0  0  0  0
 46 43  1  0  0  0  0
 47 48  1  0  0  0  0
 49 61  1  1  0  0  0
 50 55  1  0  0  0  0
 51 53  1  0  0  0  0
 51 57  2  0  0  0  0
 53 60  1  0  0  0  0
 54 59  1  0  0  0  0
 54 49  1  0  0  0  0
 54 55  1  1  0  0  0
 56 48  1  0  0  0  0
 56 52  1  0  0  0  0
 58 56  2  0  0  0  0
 59 57  1  6  0  0  0
 59 49  1  0  0  0  0
 60 52  1  0  0  0  0
 60 50  2  0  0  0  0
 61 62  1  0  0  0  0
 62 64  1  0  0  0  0
 64 63  2  0  0  0  0
M  END
>  <MODEL>
2

>  <REMARK>
 VINA RESULT:      -7.0      1.100      2.625
  Name = 
  17 active torsions:
  status: ('A' for Active; 'I' for Inactive)
    1  A    between atoms: C_3  and  C_50
    2  A    between atoms: C_7  and  N_27
    3  A    between atoms: C_8  and  C_30
    4  A    between atoms: C_8  and  C_45
    5  A    between atoms: O_9  and  C_50
    6  A    between atoms: O_9  and  C_54
    7  A    between atoms: C_10  and  C_16
    8  A    between atoms: C_11  and  C_44
    9  A    between atoms: C_12  and  C_34
   10  A    between atoms: C_12  and  C_52
   11  A    between atoms: C_21  and  C_42
   12  A    between atoms: C_30  and  C_50
   13  A    between atoms: C_31  and  C_44
   14  A    between atoms: C_31  and  N_51
   15  A    between atoms: C_34  and  N_49
   16  A    between atoms: C_42  and  C_43
   17  A    between atoms: C_43  and  C_56
                            x       y       z     vdW  Elec       q    Type
                         _______ _______ _______ _____ _____    ______ ____

>  <TORSDO>
F 17

$$$$
=
 OpenBabel11042414503D

 64 70  0  0  1  0  0  0  0  0999 V2000
  190.4920  171.4430  139.8630 C   0  0  2  0  0  3  0  0  0  0  0  0
  190.5060  172.7880  142.0020 N   0  0  0  0  0  0  0  0  0  0  0  0
  189.8210  172.3670  140.8230 C   0  0  0  0  0  0  0  0  0  0  0  0
  190.6410  171.8260  143.0990 C   0  0  0  0  0  2  0  0  0  0  0  0
  190.7860  172.5540  144.4400 C   0  0  0  0  0  2  0  0  0  0  0  0
  190.5700  174.2120  142.3000 C   0  0  0  0  0  2  0  0  0  0  0  0
  189.6100  174.4950  143.4600 C   0  0  1  0  0  3  0  0  0  0  0  0
  189.7270  173.5680  144.6060 N   0  0  0  0  0  2  0  0  0  0  0  0
  188.6690  172.8100  140.5720 O   0  0  0  0  0  0  0  0  0  0  0  0
  189.6170  175.9390  143.8800 C   0  0  0  0  0  0  0  0  0  0  0  0
  190.6130  176.3480  144.4630 O   0  0  0  0  0  0  0  0  0  0  0  0
  187.3910  176.1060  143.0820 O   0  0  0  0  0  1  0  0  0  0  0  0
  188.8360  177.9190  142.5810 C   0  0  0  0  0  1  0  0  0  0  0  0
  188.4350  176.8680  143.6210 C   0  0  2  0  0  0  0  0  0  0  0  0
  186.7930  178.3370  144.6820 C   0  0  0  0  0  1  0  0  0  0  0  0
  187.9730  177.4970  144.8850 N   0  0  0  0  0  0  0  0  0  0  0  0
  187.5910  176.4750  145.8560 C   0  0  0  0  0  1  0  0  0  0  0  0
  191.9000  171.6710  139.9300 O   0  0  0  0  0  0  0  0  0  0  0  0
  194.2580  174.5180  139.9780 C   0  0  0  0  0  0  0  0  0  0  0  0
  193.5590  173.3690  140.3460 C   0  0  0  0  0  3  0  0  0  0  0  0
  192.8140  175.1560  136.5370 C   0  0  0  0  0  1  0  0  0  0  0  0
  192.3860  173.3870  138.2400 C   0  0  0  0  0  3  0  0  0  0  0  0
  194.0140  175.1070  138.7290 C   0  0  0  0  0  3  0  0  0  0  0  0
  192.6160  172.7940  139.4870 C   0  0  0  0  0  0  0  0  0  0  0  0
  193.0790  174.5380  137.8630 C   0  0  0  0  0  0  0  0  0  0  0  0
  197.1620  174.2980  139.6510 O   0  0  0  0  0  0  0  0  0  0  0  0
  196.6830  174.8040  140.7050 C   0  0  0  0  0  0  0  0  0  0  0  0
  195.2750  175.0080  140.8490 N   0  0  0  0  0  2  0  0  0  0  0  0
  197.6000  175.3300  141.7480 C   0  0  0  0  0  2  0  0  0  0  0  0
  197.7600  174.3010  142.8510 C   0  0  0  0  0  2  0  0  0  0  0  0
  194.6580  176.6620  145.6790 C   0  0  0  0  0  1  0  0  0  0  0  0
  196.9270  173.8050  145.2610 C   0  0  1  0  0  3  0  0  0  0  0  0
  196.1660  175.7540  143.9970 N   0  0  0  0  0  2  0  0  0  0  0  0
  197.2980  174.8550  144.1930 C   0  0  2  0  0  3  0  0  0  0  0  0
  195.1590  175.4120  144.9930 C   0  0  0  0  0  0  0  0  0  0  0  0
  195.8010  174.4920  146.0060 C   0  0  0  0  0  2  0  0  0  0  0  0
  194.0040  174.7100  144.3100 C   0  0  0  0  0  1  0  0  0  0  0  0
  194.4980  170.1190  145.0280 C   0  0  1  0  0  3  0  0  0  0  0  0
  194.2860  171.5000  145.2070 O   0  0  0  0  0  0  0  0  0  0  0  0
  196.4410  172.4510  144.7030 C   0  0  2  0  0  3  0  0  0  0  0  0
  196.1840  169.4990  146.8250 C   0  0  0  0  0  1  0  0  0  0  0  0
  195.5960  171.6700  145.7060 C   0  0  2  0  0  3  0  0  0  0  0  0
  197.0620  170.1150  144.4980 C   0  0  0  0  0  2  0  0  0  0  0  0
  197.5970  171.5240  144.3550 C   0  0  0  0  0  2  0  0  0  0  0  0
  194.3600  169.7610  143.5530 C   0  0  0  0  0  1  0  0  0  0  0  0
  195.9310  170.2180  145.5140 C   0  0  2  0  0  0  0  0  0  0  0  0
  189.9000  171.5990  138.4690 C   0  0  0  0  0  2  0  0  0  0  0  0
  190.0230  170.2580  137.7540 C   0  0  0  0  0  2  0  0  0  0  0  0
  197.3810  172.3180  136.1710 C   0  0  2  0  0  3  0  0  0  0  0  0
  194.0890  171.0800  135.2460 N   0  0  0  0  0  0  0  0  0  0  0  0
  195.2320  170.4920  138.3320 C   0  0  0  0  0  3  0  0  0  0  0  0
  192.2330  170.7040  136.6420 N   0  0  0  0  0  2  0  0  0  0  0  0
  194.4990  169.6970  137.2540 C   0  0  0  0  0  2  0  0  0  0  0  0
  196.5250  171.0950  135.8370 C   0  0  2  0  0  3  0  0  0  0  0  0
  195.4710  171.0520  134.7230 C   0  0  0  0  0  2  0  0  0  0  0  0
  191.4440  169.8720  137.5040 C   0  0  0  0  0  0  0  0  0  0  0  0
  195.9680  171.5380  138.0960 N   0  0  0  0  0  0  0  0  0  0  0  0
  191.9060  168.7870  137.9630 O   0  0  0  0  0  0  0  0  0  0  0  0
  196.0200  172.1580  136.7990 C   0  0  1  0  0  3  0  0  0  0  0  0
  193.6190  170.5130  136.3310 C   0  0  0  0  0  0  0  0  0  0  0  0
  197.3190  173.3400  135.0510 C   0  0  0  0  0  2  0  0  0  0  0  0
  196.8040  174.6700  135.5890 C   0  0  0  0  0  2  0  0  0  0  0  0
  195.8490  176.4670  134.5220 O   0  0  0  0  0  0  0  0  0  0  0  0
  195.9060  175.2770  134.6380 N   0  0  0  0  0  0  0  0  0  0  0  0
  1 47  1  6  0  0  0
  1 18  1  0  0  0  0
  1  3  1  0  0  0  0
  2  6  1  0  0  0  0
  2  4  1  0  0  0  0
  3  2  1  0  0  0  0
  4  5  1  0  0  0  0
  5  8  1  0  0  0  0
  6  7  1  0  0  0  0
  7 10  1  1  0  0  0
  7  8  1  0  0  0  0
  9  3  2  0  0  0  0
 10 11  2  0  0  0  0
 12 14  1  0  0  0  0
 14 13  1  6  0  0  0
 14 10  1  0  0  0  0
 14 16  1  0  0  0  0
 15 16  1  0  0  0  0
 16 17  1  0  0  0  0
 19 20  1  0  0  0  0
 19 28  1  0  0  0  0
 21 25  1  0  0  0  0
 22 24  1  0  0  0  0
 23 19  2  0  0  0  0
 24 18  1  0  0  0  0
 24 20  2  0  0  0  0
 25 22  2  0  0  0  0
 25 23  1  0  0  0  0
 26 27  2  0  0  0  0
 27 28  1  0  0  0  0
 27 29  1  0  0  0  0
 29 30  1  0  0  0  0
 32 36  1  1  0  0  0
 33 34  1  0  0  0  0
 33 35  1  0  0  0  0
 34 30  1  6  0  0  0
 34 32  1  0  0  0  0
 35 31  1  0  0  0  0
 35 36  1  0  0  0  0
 37 35  1  0  0  0  0
 38 45  1  6  0  0  0
 38 39  1  0  0  0  0
 38 46  1  0  0  0  0
 40 44  1  1  0  0  0
 40 32  1  0  0  0  0
 40 42  1  0  0  0  0
 42 39  1  6  0  0  0
 43 46  1  0  0  0  0
 44 43  1  0  0  0  0
 46 42  1  0  0  0  0
 46 41  1  1  0  0  0
 48 47  1  0  0  0  0
 49 61  1  6  0  0  0
 49 59  1  0  0  0  0
 50 60  2  0  0  0  0
 52 56  1  0  0  0  0
 53 51  1  0  0  0  0
 54 55  1  6  0  0  0
 54 49  1  0  0  0  0
 54 59  1  0  0  0  0
 55 50  1  0  0  0  0
 56 48  1  0  0  0  0
 56 58  2  0  0  0  0
 57 51  2  0  0  0  0
 59 57  1  1  0  0  0
 60 52  1  0  0  0  0
 60 53  1  0  0  0  0
 61 62  1  0  0  0  0
 63 64  2  0  0  0  0
 64 62  1  0  0  0  0
M  END
>  <MODEL>
3

>  <REMARK>
 VINA RESULT:      -6.8      2.566     10.269
  Name = 
  17 active torsions:
  status: ('A' for Active; 'I' for Inactive)
    1  A    between atoms: C_3  and  C_50
    2  A    between atoms: C_7  and  N_27
    3  A    between atoms: C_8  and  C_30
    4  A    between atoms: C_8  and  C_45
    5  A    between atoms: O_9  and  C_50
    6  A    between atoms: O_9  and  C_54
    7  A    between atoms: C_10  and  C_16
    8  A    between atoms: C_11  and  C_44
    9  A    between atoms: C_12  and  C_34
   10  A    between atoms: C_12  and  C_52
   11  A    between atoms: C_21  and  C_42
   12  A    between atoms: C_30  and  C_50
   13  A    between atoms: C_31  and  C_44
   14  A    between atoms: C_31  and  N_51
   15  A    between atoms: C_34  and  N_49
   16  A    between atoms: C_42  and  C_43
   17  A    between atoms: C_43  and  C_56
                            x       y       z     vdW  Elec       q    Type
                         _______ _______ _______ _____ _____    ______ ____

>  <TORSDO>
F 17

$$$$
=
 OpenBabel11042414503D

 64 70  0  0  1  0  0  0  0  0999 V2000
  188.7030  173.4840  140.5140 C   0  0  2  0  0  3  0  0  0  0  0  0
  188.2080  175.4380  142.0380 N   0  0  0  0  0  0  0  0  0  0  0  0
  188.0370  174.0580  141.7200 C   0  0  0  0  0  0  0  0  0  0  0  0
  189.4920  175.8580  142.6070 C   0  0  0  0  0  2  0  0  0  0  0  0
  189.3170  177.1240  143.4550 C   0  0  0  0  0  2  0  0  0  0  0  0
  187.0250  176.2470  142.2940 C   0  0  0  0  0  2  0  0  0  0  0  0
  186.9490  176.5090  143.8020 C   0  0  1  0  0  3  0  0  0  0  0  0
  188.2130  176.9640  144.4190 N   0  0  0  0  0  2  0  0  0  0  0  0
  187.2910  173.3360  142.4330 O   0  0  0  0  0  0  0  0  0  0  0  0
  185.7750  177.3690  144.1830 C   0  0  0  0  0  0  0  0  0  0  0  0
  185.2170  177.1180  145.2430 O   0  0  0  0  0  0  0  0  0  0  0  0
  186.3790  179.1480  142.7360 O   0  0  0  0  0  1  0  0  0  0  0  0
  184.5060  179.5150  144.1440 C   0  0  0  0  0  1  0  0  0  0  0  0
  185.2700  178.4980  143.2890 C   0  0  2  0  0  0  0  0  0  0  0  0
  183.0160  178.3200  142.3570 C   0  0  0  0  0  1  0  0  0  0  0  0
  184.4250  177.9630  142.1920 N   0  0  0  0  0  0  0  0  0  0  0  0
  184.8430  178.5170  140.9060 C   0  0  0  0  0  1  0  0  0  0  0  0
  190.0530  173.1690  140.8550 O   0  0  0  0  0  0  0  0  0  0  0  0
  193.1080  171.3790  139.7870 C   0  0  0  0  0  0  0  0  0  0  0  0
  192.2550  172.3250  140.3560 C   0  0  0  0  0  3  0  0  0  0  0  0
  190.6000  168.8650  138.4740 C   0  0  0  0  0  1  0  0  0  0  0  0
  190.3390  171.0170  139.7020 C   0  0  0  0  0  3  0  0  0  0  0  0
  192.5670  170.2430  139.1680 C   0  0  0  0  0  3  0  0  0  0  0  0
  190.8660  172.1590  140.3170 C   0  0  0  0  0  0  0  0  0  0  0  0
  191.1820  170.0660  139.1280 C   0  0  0  0  0  0  0  0  0  0  0  0
  195.0020  169.5790  141.1130 O   0  0  0  0  0  0  0  0  0  0  0  0
  195.3970  170.6940  140.6700 C   0  0  0  0  0  0  0  0  0  0  0  0
  194.5150  171.5490  139.9370 N   0  0  0  0  0  2  0  0  0  0  0  0
  196.8320  171.0600  140.7800 C   0  0  0  0  0  2  0  0  0  0  0  0
  197.0670  171.8110  142.0760 C   0  0  0  0  0  2  0  0  0  0  0  0
  197.7770  175.7690  139.4260 C   0  0  0  0  0  1  0  0  0  0  0  0
  197.2290  174.3140  142.7530 C   0  0  1  0  0  3  0  0  0  0  0  0
  197.4570  173.5760  140.4340 N   0  0  0  0  0  2  0  0  0  0  0  0
  197.6900  173.1770  141.8180 C   0  0  2  0  0  3  0  0  0  0  0  0
  197.0100  174.9620  140.4480 C   0  0  0  0  0  0  0  0  0  0  0  0
  197.2590  175.5170  141.8330 C   0  0  0  0  0  2  0  0  0  0  0  0
  195.5310  175.0110  140.1260 C   0  0  0  0  0  1  0  0  0  0  0  0
  193.1690  175.4900  144.0500 C   0  0  1  0  0  3  0  0  0  0  0  0
  193.9970  175.6620  142.9230 O   0  0  0  0  0  0  0  0  0  0  0  0
  195.8140  174.1380  143.3440 C   0  0  2  0  0  3  0  0  0  0  0  0
  194.5780  176.3070  145.9990 C   0  0  0  0  0  1  0  0  0  0  0  0
  195.1570  175.4680  143.7040 C   0  0  2  0  0  3  0  0  0  0  0  0
  194.6240  173.8090  145.4320 C   0  0  0  0  0  2  0  0  0  0  0  0
  195.8280  173.3430  144.6410 C   0  0  0  0  0  2  0  0  0  0  0  0
  192.2630  174.2820  143.8460 C   0  0  0  0  0  1  0  0  0  0  0  0
  194.3590  175.2310  144.9540 C   0  0  2  0  0  0  0  0  0  0  0  0
  188.5620  174.4280  139.3270 C   0  0  0  0  0  2  0  0  0  0  0  0
  188.4160  173.5800  138.0690 C   0  0  0  0  0  2  0  0  0  0  0  0
  195.7920  173.1020  135.5690 C   0  0  2  0  0  3  0  0  0  0  0  0
  193.0130  174.8220  137.1630 N   0  0  0  0  0  0  0  0  0  0  0  0
  192.3700  172.5780  134.7700 C   0  0  0  0  0  3  0  0  0  0  0  0
  190.8110  174.0520  137.4710 N   0  0  0  0  0  2  0  0  0  0  0  0
  191.8660  173.9690  135.1460 C   0  0  0  0  0  2  0  0  0  0  0  0
  194.6870  174.1480  135.4220 C   0  0  2  0  0  3  0  0  0  0  0  0
  194.2970  175.1560  136.5110 C   0  0  0  0  0  2  0  0  0  0  0  0
  189.4520  173.8990  137.0410 C   0  0  0  0  0  0  0  0  0  0  0  0
  193.5320  172.1040  135.1120 N   0  0  0  0  0  0  0  0  0  0  0  0
  189.1190  174.1230  135.8400 O   0  0  0  0  0  0  0  0  0  0  0  0
  194.3940  172.7900  136.0380 C   0  0  1  0  0  3  0  0  0  0  0  0
  191.9350  174.3090  136.6200 C   0  0  0  0  0  0  0  0  0  0  0  0
  196.6800  173.4180  136.7580 C   0  0  0  0  0  2  0  0  0  0  0  0
  197.9410  172.5640  136.7080 C   0  0  0  0  0  2  0  0  0  0  0  0
  197.6360  170.3130  136.3630 O   0  0  0  0  0  0  0  0  0  0  0  0
  197.6500  171.2200  137.1430 N   0  0  0  0  0  0  0  0  0  0  0  0
  1 47  1  6  0  0  0
  1 18  1  0  0  0  0
  1  3  1  0  0  0  0
  2  6  1  0  0  0  0
  2  4  1  0  0  0  0
  3  2  1  0  0  0  0
  3  9  2  0  0  0  0
  4  5  1  0  0  0  0
  5  8  1  0  0  0  0
  6  7  1  0  0  0  0
  7 10  1  6  0  0  0
  7  8  1  0  0  0  0
 10 11  2  0  0  0  0
 12 14  1  0  0  0  0
 14 13  1  1  0  0  0
 14 10  1  0  0  0  0
 16 15  1  0  0  0  0
 16 14  1  0  0  0  0
 17 16  1  0  0  0  0
 19 28  1  0  0  0  0
 19 20  1  0  0  0  0
 21 25  1  0  0  0  0
 22 24  1  0  0  0  0
 23 19  2  0  0  0  0
 24 20  2  0  0  0  0
 24 18  1  0  0  0  0
 25 23  1  0  0  0  0
 25 22  2  0  0  0  0
 27 29  1  0  0  0  0
 27 26  2  0  0  0  0
 28 27  1  0  0  0  0
 29 30  1  0  0  0  0
 31 35  1  0  0  0  0
 32 36  1  6  0  0  0
 32 40  1  0  0  0  0
 33 35  1  0  0  0  0
 33 34  1  0  0  0  0
 34 30  1  1  0  0  0
 34 32  1  0  0  0  0
 35 36  1  0  0  0  0
 37 35  1  0  0  0  0
 38 45  1  6  0  0  0
 38 46  1  0  0  0  0
 39 38  1  0  0  0  0
 40 42  1  0  0  0  0
 40 44  1  1  0  0  0
 42 39  1  6  0  0  0
 42 46  1  0  0  0  0
 44 43  1  0  0  0  0
 46 43  1  0  0  0  0
 46 41  1  1  0  0  0
 48 47  1  0  0  0  0
 49 59  1  0  0  0  0
 49 61  1  1  0  0  0
 51 57  2  0  0  0  0
 51 53  1  0  0  0  0
 53 60  1  0  0  0  0
 54 49  1  0  0  0  0
 54 59  1  0  0  0  0
 54 55  1  1  0  0  0
 55 50  1  0  0  0  0
 56 52  1  0  0  0  0
 56 48  1  0  0  0  0
 58 56  2  0  0  0  0
 59 57  1  6  0  0  0
 60 50  2  0  0  0  0
 60 52  1  0  0  0  0
 62 61  1  0  0  0  0
 62 64  1  0  0  0  0
 63 64  2  0  0  0  0
M  END
>  <MODEL>
4

>  <REMARK>
 VINA RESULT:      -6.7      2.928     10.159
  Name = 
  17 active torsions:
  status: ('A' for Active; 'I' for Inactive)
    1  A    between atoms: C_3  and  C_50
    2  A    between atoms: C_7  and  N_27
    3  A    between atoms: C_8  and  C_30
    4  A    between atoms: C_8  and  C_45
    5  A    between atoms: O_9  and  C_50
    6  A    between atoms: O_9  and  C_54
    7  A    between atoms: C_10  and  C_16
    8  A    between atoms: C_11  and  C_44
    9  A    between atoms: C_12  and  C_34
   10  A    between atoms: C_12  and  C_52
   11  A    between atoms: C_21  and  C_42
   12  A    between atoms: C_30  and  C_50
   13  A    between atoms: C_31  and  C_44
   14  A    between atoms: C_31  and  N_51
   15  A    between atoms: C_34  and  N_49
   16  A    between atoms: C_42  and  C_43
   17  A    between atoms: C_43  and  C_56
                            x       y       z     vdW  Elec       q    Type
                         _______ _______ _______ _____ _____    ______ ____

>  <TORSDO>
F 17

$$$$
=
 OpenBabel11042414503D

 64 70  0  0  1  0  0  0  0  0999 V2000
  187.2640  176.2690  140.5040 C   0  0  2  0  0  3  0  0  0  0  0  0
  185.7690  177.1710  142.3300 N   0  0  0  0  0  0  0  0  0  0  0  0
  187.0560  177.1120  141.7170 C   0  0  0  0  0  0  0  0  0  0  0  0
  184.7280  177.9590  141.6650 C   0  0  0  0  0  2  0  0  0  0  0  0
  183.6910  178.4500  142.6820 C   0  0  0  0  0  2  0  0  0  0  0  0
  185.6680  176.9330  143.7630 C   0  0  0  0  0  2  0  0  0  0  0  0
  185.4120  178.2800  144.4480 C   0  0  1  0  0  3  0  0  0  0  0  0
  184.3480  179.1010  143.8310 N   0  0  0  0  0  2  0  0  0  0  0  0
  188.0250  177.7350  142.2260 O   0  0  0  0  0  0  0  0  0  0  0  0
  185.2550  178.1520  145.9380 C   0  0  0  0  0  0  0  0  0  0  0  0
  184.1660  178.4460  146.4150 O   0  0  0  0  0  0  0  0  0  0  0  0
  186.0750  176.4390  147.3560 O   0  0  0  0  0  1  0  0  0  0  0  0
  186.5280  178.6700  148.0190 C   0  0  0  0  0  1  0  0  0  0  0  0
  186.3990  177.6990  146.8410 C   0  0  2  0  0  0  0  0  0  0  0  0
  188.8280  177.9770  146.8800 C   0  0  0  0  0  1  0  0  0  0  0  0
  187.6670  177.5980  146.0750 N   0  0  0  0  0  0  0  0  0  0  0  0
  187.8960  176.2220  145.6420 C   0  0  0  0  0  1  0  0  0  0  0  0
  188.5630  175.6800  140.5840 O   0  0  0  0  0  0  0  0  0  0  0  0
  190.8200  174.7370  143.3570 C   0  0  0  0  0  0  0  0  0  0  0  0
  190.2030  175.4600  142.3360 C   0  0  0  0  0  3  0  0  0  0  0  0
  188.7260  171.5820  143.3540 C   0  0  0  0  0  1  0  0  0  0  0  0
  188.6330  173.6640  141.9880 C   0  0  0  0  0  3  0  0  0  0  0  0
  190.3380  173.4630  143.6910 C   0  0  0  0  0  3  0  0  0  0  0  0
  189.1100  174.9330  141.6390 C   0  0  0  0  0  0  0  0  0  0  0  0
  189.2440  172.9310  143.0060 C   0  0  0  0  0  0  0  0  0  0  0  0
  191.0480  175.0020  146.2660 O   0  0  0  0  0  0  0  0  0  0  0  0
  191.9030  175.5490  145.5140 C   0  0  0  0  0  0  0  0  0  0  0  0
  191.8680  175.3570  144.0970 N   0  0  0  0  0  2  0  0  0  0  0  0
  193.0480  176.2800  146.1160 C   0  0  0  0  0  2  0  0  0  0  0  0
  193.9530  176.8010  145.0170 C   0  0  0  0  0  2  0  0  0  0  0  0
  197.1210  173.4960  146.5140 C   0  0  0  0  0  1  0  0  0  0  0  0
  196.0040  175.7380  143.8280 C   0  0  1  0  0  3  0  0  0  0  0  0
  195.3670  175.1370  146.1100 N   0  0  0  0  0  2  0  0  0  0  0  0
  195.3590  176.2280  145.1410 C   0  0  2  0  0  3  0  0  0  0  0  0
  196.1160  174.0350  145.5210 C   0  0  0  0  0  0  0  0  0  0  0  0
  196.8330  174.5620  144.2990 C   0  0  0  0  0  2  0  0  0  0  0  0
  195.1530  172.9350  145.1270 C   0  0  0  0  0  1  0  0  0  0  0  0
  194.3240  173.1660  140.6490 C   0  0  1  0  0  3  0  0  0  0  0  0
  194.8600  173.0120  141.9430 O   0  0  0  0  0  0  0  0  0  0  0  0
  195.0060  175.2790  142.7440 C   0  0  2  0  0  3  0  0  0  0  0  0
  196.1100  174.4440  139.3720 C   0  0  0  0  0  1  0  0  0  0  0  0
  195.5900  174.2140  141.8180 C   0  0  2  0  0  3  0  0  0  0  0  0
  194.2340  175.7770  140.4980 C   0  0  0  0  0  2  0  0  0  0  0  0
  194.5950  176.4180  141.8220 C   0  0  0  0  0  2  0  0  0  0  0  0
  192.8070  173.2820  140.7280 C   0  0  0  0  0  1  0  0  0  0  0  0
  195.0420  174.4860  140.4470 C   0  0  2  0  0  0  0  0  0  0  0  0
  187.0250  177.0830  139.2400 C   0  0  0  0  0  2  0  0  0  0  0  0
  186.5150  176.1350  138.1610 C   0  0  0  0  0  2  0  0  0  0  0  0
  191.4380  170.5070  135.9300 C   0  0  2  0  0  3  0  0  0  0  0  0
  190.6030  173.5720  137.7010 N   0  0  0  0  0  0  0  0  0  0  0  0
  188.9390  172.8140  134.9020 C   0  0  0  0  0  3  0  0  0  0  0  0
  188.5380  174.6980  137.7640 N   0  0  0  0  0  2  0  0  0  0  0  0
  189.5650  174.0660  135.5120 C   0  0  0  0  0  2  0  0  0  0  0  0
  191.5040  172.0350  135.9370 C   0  0  2  0  0  3  0  0  0  0  0  0
  191.8030  172.8840  137.1790 C   0  0  0  0  0  2  0  0  0  0  0  0
  187.6050  175.6600  137.2560 C   0  0  0  0  0  0  0  0  0  0  0  0
  189.2970  171.5990  135.1980 N   0  0  0  0  0  0  0  0  0  0  0  0
  187.7540  176.1690  136.1060 O   0  0  0  0  0  0  0  0  0  0  0  0
  190.2100  171.3120  136.2720 C   0  0  1  0  0  3  0  0  0  0  0  0
  189.6100  174.0980  137.0250 C   0  0  0  0  0  0  0  0  0  0  0  0
  192.0520  169.9350  137.1940 C   0  0  0  0  0  2  0  0  0  0  0  0
  191.7870  168.4360  137.2690 C   0  0  0  0  0  2  0  0  0  0  0  0
  190.3500  168.9970  138.9720 O   0  0  0  0  0  0  0  0  0  0  0  0
  190.7100  168.1660  138.1890 N   0  0  0  0  0  0  0  0  0  0  0  0
  1 47  1  6  0  0  0
  1 18  1  0  0  0  0
  1  3  1  0  0  0  0
  2  6  1  0  0  0  0
  3  9  2  0  0  0  0
  3  2  1  0  0  0  0
  4  2  1  0  0  0  0
  4  5  1  0  0  0  0
  5  8  1  0  0  0  0
  6  7  1  0  0  0  0
  7 10  1  1  0  0  0
  8  7  1  0  0  0  0
 10 11  2  0  0  0  0
 10 14  1  0  0  0  0
 14 12  1  0  0  0  0
 14 13  1  1  0  0  0
 16 14  1  0  0  0  0
 16 15  1  0  0  0  0
 17 16  1  0  0  0  0
 18 24  1  0  0  0  0
 19 23  1  0  0  0  0
 19 28  1  0  0  0  0
 20 19  2  0  0  0  0
 22 25  1  0  0  0  0
 24 22  2  0  0  0  0
 24 20  1  0  0  0  0
 25 21  1  0  0  0  0
 25 23  2  0  0  0  0
 27 29  1  0  0  0  0
 27 26  2  0  0  0  0
 28 27  1  0  0  0  0
 30 29  1  0  0  0  0
 32 36  1  1  0  0  0
 32 34  1  0  0  0  0
 34 30  1  6  0  0  0
 34 33  1  0  0  0  0
 35 33  1  0  0  0  0
 35 31  1  0  0  0  0
 36 35  1  0  0  0  0
 37 35  1  0  0  0  0
 38 45  1  1  0  0  0
 38 39  1  0  0  0  0
 40 44  1  6  0  0  0
 40 32  1  0  0  0  0
 42 39  1  1  0  0  0
 42 40  1  0  0  0  0
 43 44  1  0  0  0  0
 46 41  1  6  0  0  0
 46 43  1  0  0  0  0
 46 38  1  0  0  0  0
 46 42  1  0  0  0  0
 48 47  1  0  0  0  0
 49 54  1  0  0  0  0
 49 59  1  0  0  0  0
 49 61  1  1  0  0  0
 51 57  2  0  0  0  0
 51 53  1  0  0  0  0
 53 60  1  0  0  0  0
 54 59  1  0  0  0  0
 54 55  1  1  0  0  0
 55 50  1  0  0  0  0
 56 52  1  0  0  0  0
 56 48  1  0  0  0  0
 58 56  2  0  0  0  0
 59 57  1  6  0  0  0
 60 50  2  0  0  0  0
 60 52  1  0  0  0  0
 61 62  1  0  0  0  0
 62 64  1  0  0  0  0
 64 63  2  0  0  0  0
M  END
>  <MODEL>
5

>  <REMARK>
 VINA RESULT:      -6.6      2.647      9.613
  Name = 
  17 active torsions:
  status: ('A' for Active; 'I' for Inactive)
    1  A    between atoms: C_3  and  C_50
    2  A    between atoms: C_7  and  N_27
    3  A    between atoms: C_8  and  C_30
    4  A    between atoms: C_8  and  C_45
    5  A    between atoms: O_9  and  C_50
    6  A    between atoms: O_9  and  C_54
    7  A    between atoms: C_10  and  C_16
    8  A    between atoms: C_11  and  C_44
    9  A    between atoms: C_12  and  C_34
   10  A    between atoms: C_12  and  C_52
   11  A    between atoms: C_21  and  C_42
   12  A    between atoms: C_30  and  C_50
   13  A    between atoms: C_31  and  C_44
   14  A    between atoms: C_31  and  N_51
   15  A    between atoms: C_34  and  N_49
   16  A    between atoms: C_42  and  C_43
   17  A    between atoms: C_43  and  C_56
                            x       y       z     vdW  Elec       q    Type
                         _______ _______ _______ _____ _____    ______ ____

>  <TORSDO>
F 17

$$$$
=
 OpenBabel11042414503D

 64 70  0  0  1  0  0  0  0  0999 V2000
  184.9150  178.2150  144.5080 C   0  0  2  0  0  3  0  0  0  0  0  0
  183.3020  178.1340  142.5640 N   0  0  0  0  0  0  0  0  0  0  0  0
  183.8000  178.8130  143.7160 C   0  0  0  0  0  0  0  0  0  0  0  0
  184.1170  178.1620  141.3460 C   0  0  0  0  0  2  0  0  0  0  0  0
  183.2340  177.9900  140.1030 C   0  0  0  0  0  2  0  0  0  0  0  0
  181.8670  177.9160  142.4490 C   0  0  0  0  0  2  0  0  0  0  0  0
  181.3250  178.8860  141.3930 C   0  0  1  0  0  3  0  0  0  0  0  0
  182.0960  178.9290  140.1320 N   0  0  0  0  0  2  0  0  0  0  0  0
  183.2700  179.8920  144.0890 O   0  0  0  0  0  0  0  0  0  0  0  0
  179.8480  178.7270  141.1640 C   0  0  0  0  0  0  0  0  0  0  0  0
  179.3320  177.6820  141.5390 O   0  0  0  0  0  0  0  0  0  0  0  0
  179.7140  181.0090  140.5370 O   0  0  0  0  0  1  0  0  0  0  0  0
  177.6940  179.9810  141.2360 C   0  0  0  0  0  1  0  0  0  0  0  0
  179.0110  179.8000  140.4750 C   0  0  2  0  0  0  0  0  0  0  0  0
  177.9580  178.2450  138.9080 C   0  0  0  0  0  1  0  0  0  0  0  0
  178.7750  179.4500  139.0510 N   0  0  0  0  0  0  0  0  0  0  0  0
  178.0500  180.5220  138.3730 C   0  0  0  0  0  1  0  0  0  0  0  0
  185.3490  177.0270  143.8440 O   0  0  0  0  0  0  0  0  0  0  0  0
  188.2480  175.1300  142.5500 C   0  0  0  0  0  0  0  0  0  0  0  0
  186.9930  175.4410  143.0740 C   0  0  0  0  0  3  0  0  0  0  0  0
  189.6720  178.5970  142.0160 C   0  0  0  0  0  1  0  0  0  0  0  0
  187.4860  177.7950  142.9040 C   0  0  0  0  0  3  0  0  0  0  0  0
  189.1290  176.1650  142.2030 C   0  0  0  0  0  3  0  0  0  0  0  0
  186.6000  176.7710  143.2610 C   0  0  0  0  0  0  0  0  0  0  0  0
  188.7440  177.4950  142.3810 C   0  0  0  0  0  0  0  0  0  0  0  0
  189.8400  173.3100  144.2050 O   0  0  0  0  0  0  0  0  0  0  0  0
  189.4170  172.9300  143.0770 C   0  0  0  0  0  0  0  0  0  0  0  0
  188.5610  173.7640  142.2920 N   0  0  0  0  0  2  0  0  0  0  0  0
  189.6890  171.5420  142.6220 C   0  0  0  0  0  2  0  0  0  0  0  0
  190.1250  171.5580  141.1700 C   0  0  0  0  0  2  0  0  0  0  0  0
  194.8460  171.6160  140.2200 C   0  0  0  0  0  1  0  0  0  0  0  0
  191.5740  173.2320  139.8100 C   0  0  1  0  0  3  0  0  0  0  0  0
  192.5360  171.2720  140.9090 N   0  0  0  0  0  2  0  0  0  0  0  0
  191.4670  172.2600  141.0030 C   0  0  2  0  0  3  0  0  0  0  0  0
  193.3950  171.6620  139.7990 C   0  0  0  0  0  0  0  0  0  0  0  0
  193.0220  173.0710  139.3960 C   0  0  0  0  0  2  0  0  0  0  0  0
  193.1720  170.7120  138.6410 C   0  0  0  0  0  1  0  0  0  0  0  0
  190.4070  172.6130  135.5910 C   0  0  1  0  0  3  0  0  0  0  0  0
  191.4490  172.2220  136.4540 O   0  0  0  0  0  0  0  0  0  0  0  0
  190.6460  172.9060  138.6200 C   0  0  2  0  0  3  0  0  0  0  0  0
  190.3630  175.1470  135.7600 C   0  0  0  0  0  1  0  0  0  0  0  0
  191.2310  173.3460  137.2800 C   0  0  2  0  0  3  0  0  0  0  0  0
  188.8190  173.8010  137.2980 C   0  0  0  0  0  2  0  0  0  0  0  0
  189.3090  173.6250  138.7200 C   0  0  0  0  0  2  0  0  0  0  0  0
  189.3210  171.5450  135.5740 C   0  0  0  0  0  1  0  0  0  0  0  0
  190.0790  173.8240  136.4420 C   0  0  2  0  0  0  0  0  0  0  0  0
  184.4890  178.0010  145.9540 C   0  0  0  0  0  2  0  0  0  0  0  0
  185.2350  176.7850  146.4880 C   0  0  0  0  0  2  0  0  0  0  0  0
  192.8800  175.4840  145.6150 C   0  0  2  0  0  3  0  0  0  0  0  0
  189.6990  175.0960  147.3350 N   0  0  0  0  0  0  0  0  0  0  0  0
  190.2880  177.9140  145.6350 C   0  0  0  0  0  3  0  0  0  0  0  0
  187.6210  176.0490  146.7810 N   0  0  0  0  0  2  0  0  0  0  0  0
  189.6820  177.5430  146.9880 C   0  0  0  0  0  2  0  0  0  0  0  0
  192.0040  175.9190  146.7910 C   0  0  2  0  0  3  0  0  0  0  0  0
  191.1420  174.9660  147.6300 C   0  0  0  0  0  2  0  0  0  0  0  0
  186.6470  177.0990  146.8620 C   0  0  0  0  0  0  0  0  0  0  0  0
  191.1240  177.1650  144.9790 N   0  0  0  0  0  0  0  0  0  0  0  0
  186.9510  178.2350  147.3310 O   0  0  0  0  0  0  0  0  0  0  0  0
  191.4280  175.8190  145.3880 C   0  0  1  0  0  3  0  0  0  0  0  0
  189.0220  176.1830  147.0530 C   0  0  0  0  0  0  0  0  0  0  0  0
  193.0710  173.9790  145.6140 C   0  0  0  0  0  2  0  0  0  0  0  0
  193.5610  173.5180  144.2460 C   0  0  0  0  0  2  0  0  0  0  0  0
  195.5040  173.7940  143.0510 O   0  0  0  0  0  0  0  0  0  0  0  0
  194.7600  174.2300  143.8810 N   0  0  0  0  0  0  0  0  0  0  0  0
  1 47  1  1  0  0  0
  2  3  1  0  0  0  0
  3  9  2  0  0  0  0
  3  1  1  0  0  0  0
  4  2  1  0  0  0  0
  5  8  1  0  0  0  0
  5  4  1  0  0  0  0
  6  2  1  0  0  0  0
  7 10  1  6  0  0  0
  7  6  1  0  0  0  0
  8  7  1  0  0  0  0
 10 11  2  0  0  0  0
 14 12  1  0  0  0  0
 14 10  1  0  0  0  0
 14 13  1  1  0  0  0
 15 16  1  0  0  0  0
 16 14  1  0  0  0  0
 17 16  1  0  0  0  0
 18  1  1  0  0  0  0
 19 20  1  0  0  0  0
 20 24  2  0  0  0  0
 21 25  1  0  0  0  0
 22 24  1  0  0  0  0
 23 25  1  0  0  0  0
 23 19  2  0  0  0  0
 24 18  1  0  0  0  0
 25 22  2  0  0  0  0
 27 26  2  0  0  0  0
 28 19  1  0  0  0  0
 28 27  1  0  0  0  0
 29 27  1  0  0  0  0
 30 29  1  0  0  0  0
 32 36  1  6  0  0  0
 32 34  1  0  0  0  0
 33 34  1  0  0  0  0
 34 30  1  6  0  0  0
 35 31  1  0  0  0  0
 35 33  1  0  0  0  0
 36 35  1  0  0  0  0
 37 35  1  0  0  0  0
 38 45  1  1  0  0  0
 38 46  1  0  0  0  0
 38 39  1  0  0  0  0
 40 44  1  1  0  0  0
 40 32  1  0  0  0  0
 42 39  1  6  0  0  0
 42 40  1  0  0  0  0
 43 44  1  0  0  0  0
 46 41  1  6  0  0  0
 46 42  1  0  0  0  0
 46 43  1  0  0  0  0
 47 48  1  0  0  0  0
 48 56  1  0  0  0  0
 49 61  1  1  0  0  0
 49 54  1  0  0  0  0
 50 55  1  0  0  0  0
 51 53  1  0  0  0  0
 52 56  1  0  0  0  0
 52 60  1  0  0  0  0
 53 60  1  0  0  0  0
 54 55  1  1  0  0  0
 56 58  2  0  0  0  0
 57 51  2  0  0  0  0
 59 57  1  6  0  0  0
 59 49  1  0  0  0  0
 59 54  1  0  0  0  0
 60 50  2  0  0  0  0
 62 61  1  0  0  0  0
 63 64  2  0  0  0  0
 64 62  1  0  0  0  0
M  END
>  <MODEL>
6

>  <REMARK>
 VINA RESULT:      -6.5      4.020     10.304
  Name = 
  17 active torsions:
  status: ('A' for Active; 'I' for Inactive)
    1  A    between atoms: C_3  and  C_50
    2  A    between atoms: C_7  and  N_27
    3  A    between atoms: C_8  and  C_30
    4  A    between atoms: C_8  and  C_45
    5  A    between atoms: O_9  and  C_50
    6  A    between atoms: O_9  and  C_54
    7  A    between atoms: C_10  and  C_16
    8  A    between atoms: C_11  and  C_44
    9  A    between atoms: C_12  and  C_34
   10  A    between atoms: C_12  and  C_52
   11  A    between atoms: C_21  and  C_42
   12  A    between atoms: C_30  and  C_50
   13  A    between atoms: C_31  and  C_44
   14  A    between atoms: C_31  and  N_51
   15  A    between atoms: C_34  and  N_49
   16  A    between atoms: C_42  and  C_43
   17  A    between atoms: C_43  and  C_56
                            x       y       z     vdW  Elec       q    Type
                         _______ _______ _______ _____ _____    ______ ____

>  <TORSDO>
F 17

$$$$
=
 OpenBabel11042414503D

 64 70  0  0  1  0  0  0  0  0999 V2000
  186.2490  178.7560  144.1450 C   0  0  2  0  0  3  0  0  0  0  0  0
  184.1260  178.4730  142.8030 N   0  0  0  0  0  0  0  0  0  0  0  0
  184.9600  179.2940  143.6210 C   0  0  0  0  0  0  0  0  0  0  0  0
  184.5380  178.2430  141.4160 C   0  0  0  0  0  2  0  0  0  0  0  0
  183.3210  177.9330  140.5370 C   0  0  0  0  0  2  0  0  0  0  0  0
  182.7190  178.3420  143.1530 C   0  0  0  0  0  2  0  0  0  0  0  0
  181.9040  179.1620  142.1470 C   0  0  1  0  0  3  0  0  0  0  0  0
  182.2620  178.9420  140.7290 N   0  0  0  0  0  2  0  0  0  0  0  0
  184.5860  180.4550  143.9340 O   0  0  0  0  0  0  0  0  0  0  0  0
  180.4230  179.0730  142.3910 C   0  0  0  0  0  0  0  0  0  0  0  0
  180.0480  179.0340  143.5560 O   0  0  0  0  0  0  0  0  0  0  0  0
  179.9140  179.7580  140.1800 O   0  0  0  0  0  1  0  0  0  0  0  0
  178.0980  179.6540  141.7020 C   0  0  0  0  0  1  0  0  0  0  0  0
  179.4120  179.0090  141.2500 C   0  0  2  0  0  0  0  0  0  0  0  0
  178.0710  176.9760  141.4770 C   0  0  0  0  0  1  0  0  0  0  0  0
  179.2080  177.6060  140.8060 N   0  0  0  0  0  0  0  0  0  0  0  0
  178.9190  177.5590  139.3750 C   0  0  0  0  0  1  0  0  0  0  0  0
  186.6410  177.6540  143.3270 O   0  0  0  0  0  0  0  0  0  0  0  0
  189.3780  175.5550  141.9940 C   0  0  0  0  0  0  0  0  0  0  0  0
  188.1070  176.0430  142.2940 C   0  0  0  0  0  3  0  0  0  0  0  0
  191.5500  178.2370  143.5500 C   0  0  0  0  0  1  0  0  0  0  0  0
  189.0790  177.9500  143.4020 C   0  0  0  0  0  3  0  0  0  0  0  0
  190.5100  176.2730  142.4060 C   0  0  0  0  0  3  0  0  0  0  0  0
  187.9420  177.2380  143.0020 C   0  0  0  0  0  0  0  0  0  0  0  0
  190.3560  177.4700  143.1090 C   0  0  0  0  0  0  0  0  0  0  0  0
  188.6810  172.8040  142.7230 O   0  0  0  0  0  0  0  0  0  0  0  0
  189.2240  173.0420  141.6080 C   0  0  0  0  0  0  0  0  0  0  0  0
  189.4890  174.3840  141.1890 N   0  0  0  0  0  2  0  0  0  0  0  0
  189.4580  171.9280  140.6540 C   0  0  0  0  0  2  0  0  0  0  0  0
  190.9390  171.6070  140.5990 C   0  0  0  0  0  2  0  0  0  0  0  0
  193.3670  169.4310  144.1430 C   0  0  0  0  0  1  0  0  0  0  0  0
  192.7290  172.5130  142.2500 C   0  0  1  0  0  3  0  0  0  0  0  0
  191.9610  170.1930  142.3080 N   0  0  0  0  0  2  0  0  0  0  0  0
  191.5450  171.5560  141.9960 C   0  0  2  0  0  3  0  0  0  0  0  0
  193.2970  170.2640  142.8840 C   0  0  0  0  0  0  0  0  0  0  0  0
  193.5860  171.7120  143.2080 C   0  0  0  0  0  2  0  0  0  0  0  0
  194.3010  169.7450  141.8760 C   0  0  0  0  0  1  0  0  0  0  0  0
  196.3150  173.4750  139.8510 C   0  0  1  0  0  3  0  0  0  0  0  0
  195.9170  172.5060  140.7920 O   0  0  0  0  0  0  0  0  0  0  0  0
  193.5480  172.8840  140.9950 C   0  0  2  0  0  3  0  0  0  0  0  0
  195.8670  175.6950  141.0010 C   0  0  0  0  0  1  0  0  0  0  0  0
  194.9510  173.3810  141.3340 C   0  0  2  0  0  3  0  0  0  0  0  0
  194.0420  174.7220  139.4900 C   0  0  0  0  0  2  0  0  0  0  0  0
  192.9080  174.0190  140.2070 C   0  0  0  0  0  2  0  0  0  0  0  0
  196.0670  172.9580  138.4390 C   0  0  0  0  0  1  0  0  0  0  0  0
  195.2770  174.4630  140.3450 C   0  0  2  0  0  0  0  0  0  0  0  0
  186.1250  178.4210  145.6250 C   0  0  0  0  0  2  0  0  0  0  0  0
  185.9550  176.9120  145.7520 C   0  0  0  0  0  2  0  0  0  0  0  0
  193.5990  175.3860  146.1220 C   0  0  2  0  0  3  0  0  0  0  0  0
  190.1560  174.5310  145.3230 N   0  0  0  0  0  0  0  0  0  0  0  0
  190.7570  176.6370  147.8490 C   0  0  0  0  0  3  0  0  0  0  0  0
  188.2210  175.8290  145.6540 N   0  0  0  0  0  2  0  0  0  0  0  0
  189.8350  175.4460  147.5970 C   0  0  0  0  0  2  0  0  0  0  0  0
  192.3420  174.6250  146.5460 C   0  0  2  0  0  3  0  0  0  0  0  0
  191.4370  173.8420  145.5860 C   0  0  0  0  0  2  0  0  0  0  0  0
  187.1080  176.2630  146.4460 C   0  0  0  0  0  0  0  0  0  0  0  0
  191.8690  176.8490  147.2080 N   0  0  0  0  0  0  0  0  0  0  0  0
  187.0560  176.0170  147.6870 O   0  0  0  0  0  0  0  0  0  0  0  0
  192.2540  176.0640  146.0660 C   0  0  1  0  0  3  0  0  0  0  0  0
  189.4260  175.2350  146.1540 C   0  0  0  0  0  0  0  0  0  0  0  0
  194.0320  174.9760  144.7270 C   0  0  0  0  0  2  0  0  0  0  0  0
  195.5410  175.1360  144.5830 C   0  0  0  0  0  2  0  0  0  0  0  0
  196.6420  174.1530  146.3450 O   0  0  0  0  0  0  0  0  0  0  0  0
  196.2220  174.0420  145.2290 N   0  0  0  0  0  0  0  0  0  0  0  0
  1 47  1  1  0  0  0
  2  6  1  0  0  0  0
  2  3  1  0  0  0  0
  3  9  2  0  0  0  0
  3  1  1  0  0  0  0
  4  2  1  0  0  0  0
  5  8  1  0  0  0  0
  5  4  1  0  0  0  0
  7 10  1  6  0  0  0
  7  6  1  0  0  0  0
  8  7  1  0  0  0  0
 10 11  2  0  0  0  0
 12 14  1  0  0  0  0
 14 13  1  1  0  0  0
 14 10  1  0  0  0  0
 16 14  1  0  0  0  0
 16 15  1  0  0  0  0
 17 16  1  0  0  0  0
 18  1  1  0  0  0  0
 19 20  2  0  0  0  0
 19 23  1  0  0  0  0
 20 24  1  0  0  0  0
 23 25  2  0  0  0  0
 24 18  1  0  0  0  0
 24 22  2  0  0  0  0
 25 22  1  0  0  0  0
 25 21  1  0  0  0  0
 27 26  2  0  0  0  0
 28 27  1  0  0  0  0
 28 19  1  0  0  0  0
 29 27  1  0  0  0  0
 30 29  1  0  0  0  0
 32 36  1  1  0  0  0
 33 35  1  0  0  0  0
 34 30  1  6  0  0  0
 34 32  1  0  0  0  0
 34 33  1  0  0  0  0
 35 36  1  0  0  0  0
 35 31  1  0  0  0  0
 37 35  1  0  0  0  0
 38 45  1  6  0  0  0
 38 46  1  0  0  0  0
 38 39  1  0  0  0  0
 40 44  1  1  0  0  0
 40 42  1  0  0  0  0
 40 32  1  0  0  0  0
 42 39  1  6  0  0  0
 43 44  1  0  0  0  0
 43 46  1  0  0  0  0
 46 41  1  1  0  0  0
 46 42  1  0  0  0  0
 47 48  1  0  0  0  0
 48 56  1  0  0  0  0
 49 61  1  6  0  0  0
 49 54  1  0  0  0  0
 50 55  1  0  0  0  0
 50 60  2  0  0  0  0
 52 60  1  0  0  0  0
 52 56  1  0  0  0  0
 53 51  1  0  0  0  0
 54 55  1  6  0  0  0
 56 58  2  0  0  0  0
 57 51  2  0  0  0  0
 59 49  1  0  0  0  0
 59 54  1  0  0  0  0
 59 57  1  1  0  0  0
 60 53  1  0  0  0  0
 62 61  1  0  0  0  0
 62 64  1  0  0  0  0
 64 63  2  0  0  0  0
M  END
>  <MODEL>
7

>  <REMARK>
 VINA RESULT:      -6.4      3.551      9.908
  Name = 
  17 active torsions:
  status: ('A' for Active; 'I' for Inactive)
    1  A    between atoms: C_3  and  C_50
    2  A    between atoms: C_7  and  N_27
    3  A    between atoms: C_8  and  C_30
    4  A    between atoms: C_8  and  C_45
    5  A    between atoms: O_9  and  C_50
    6  A    between atoms: O_9  and  C_54
    7  A    between atoms: C_10  and  C_16
    8  A    between atoms: C_11  and  C_44
    9  A    between atoms: C_12  and  C_34
   10  A    between atoms: C_12  and  C_52
   11  A    between atoms: C_21  and  C_42
   12  A    between atoms: C_30  and  C_50
   13  A    between atoms: C_31  and  C_44
   14  A    between atoms: C_31  and  N_51
   15  A    between atoms: C_34  and  N_49
   16  A    between atoms: C_42  and  C_43
   17  A    between atoms: C_43  and  C_56
                            x       y       z     vdW  Elec       q    Type
                         _______ _______ _______ _____ _____    ______ ____

>  <TORSDO>
F 17

$$$$
=
 OpenBabel11042414503D

 64 70  0  0  1  0  0  0  0  0999 V2000
  185.0340  177.8330  141.1020 C   0  0  2  0  0  3  0  0  0  0  0  0
  185.1930  177.8290  143.6240 N   0  0  0  0  0  0  0  0  0  0  0  0
  185.7830  178.1260  142.3590 C   0  0  0  0  0  0  0  0  0  0  0  0
  184.1300  178.7130  144.1100 C   0  0  0  0  0  2  0  0  0  0  0  0
  184.0620  178.6810  145.6410 C   0  0  0  0  0  2  0  0  0  0  0  0
  185.9620  177.0540  144.5860 C   0  0  0  0  0  2  0  0  0  0  0  0
  186.4390  178.0070  145.6870 C   0  0  1  0  0  3  0  0  0  0  0  0
  185.3950  178.9010  146.2330 N   0  0  0  0  0  2  0  0  0  0  0  0
  186.9510  178.5930  142.3030 O   0  0  0  0  0  0  0  0  0  0  0  0
  187.2210  177.3050  146.7630 C   0  0  0  0  0  0  0  0  0  0  0  0
  186.5890  176.8360  147.7010 O   0  0  0  0  0  0  0  0  0  0  0  0
  189.2750  178.1160  147.6260 O   0  0  0  0  0  1  0  0  0  0  0  0
  189.2380  177.5650  145.3200 C   0  0  0  0  0  1  0  0  0  0  0  0
  188.7420  177.1910  146.7200 C   0  0  2  0  0  0  0  0  0  0  0  0
  189.1720  174.9020  145.9740 C   0  0  0  0  0  1  0  0  0  0  0  0
  189.1790  175.8260  147.1090 N   0  0  0  0  0  0  0  0  0  0  0  0
  190.5500  175.8500  147.6120 C   0  0  0  0  0  1  0  0  0  0  0  0
  185.9420  177.9350  140.0040 O   0  0  0  0  0  0  0  0  0  0  0  0
  187.9860  174.9420  139.2740 C   0  0  0  0  0  0  0  0  0  0  0  0
  187.3280  175.9640  139.9570 C   0  0  0  0  0  3  0  0  0  0  0  0
  186.9080  175.6600  135.7170 C   0  0  0  0  0  1  0  0  0  0  0  0
  186.4020  176.7770  137.8860 C   0  0  0  0  0  3  0  0  0  0  0  0
  187.8510  174.8410  137.8820 C   0  0  0  0  0  3  0  0  0  0  0  0
  186.5350  176.8930  139.2740 C   0  0  0  0  0  0  0  0  0  0  0  0
  187.0570  175.7590  137.1920 C   0  0  0  0  0  0  0  0  0  0  0  0
  190.4910  173.6030  138.5530 O   0  0  0  0  0  0  0  0  0  0  0  0
  189.8770  173.2670  139.6050 C   0  0  0  0  0  0  0  0  0  0  0  0
  188.7030  173.9670  140.0270 N   0  0  0  0  0  2  0  0  0  0  0  0
  190.4590  172.2300  140.4940 C   0  0  0  0  0  2  0  0  0  0  0  0
  189.7720  172.2740  141.8450 C   0  0  0  0  0  2  0  0  0  0  0  0
  193.1640  169.1490  143.2320 C   0  0  0  0  0  1  0  0  0  0  0  0
  191.5220  172.3910  143.7620 C   0  0  1  0  0  3  0  0  0  0  0  0
  191.3530  170.4610  142.2700 N   0  0  0  0  0  2  0  0  0  0  0  0
  190.5790  171.5260  142.9000 C   0  0  2  0  0  3  0  0  0  0  0  0
  192.7040  170.5260  142.8110 C   0  0  0  0  0  0  0  0  0  0  0  0
  192.6820  171.4490  144.0080 C   0  0  0  0  0  2  0  0  0  0  0  0
  193.6380  171.0700  141.7500 C   0  0  0  0  0  1  0  0  0  0  0  0
  194.2800  175.7300  142.8750 C   0  0  1  0  0  3  0  0  0  0  0  0
  194.3440  174.3290  143.0090 O   0  0  0  0  0  0  0  0  0  0  0  0
  192.0260  173.6820  143.0830 C   0  0  2  0  0  3  0  0  0  0  0  0
  193.2070  176.5230  145.0370 C   0  0  0  0  0  1  0  0  0  0  0  0
  193.1950  174.3210  143.8280 C   0  0  2  0  0  3  0  0  0  0  0  0
  191.6900  176.0840  143.0190 C   0  0  0  0  0  2  0  0  0  0  0  0
  190.9530  174.7610  143.0330 C   0  0  0  0  0  2  0  0  0  0  0  0
  194.0830  176.1010  141.4100 C   0  0  0  0  0  1  0  0  0  0  0  0
  193.0190  175.8080  143.7130 C   0  0  2  0  0  0  0  0  0  0  0  0
  183.8120  178.7340  140.9860 C   0  0  0  0  0  2  0  0  0  0  0  0
  182.5870  177.9170  141.3810 C   0  0  0  0  0  2  0  0  0  0  0  0
  178.0080  174.0570  136.3780 C   0  0  2  0  0  3  0  0  0  0  0  0
  180.9360  176.0410  137.2280 N   0  0  0  0  0  0  0  0  0  0  0  0
  178.1430  176.4230  139.0260 C   0  0  0  0  0  3  0  0  0  0  0  0
  181.5460  176.9060  139.3290 N   0  0  0  0  0  2  0  0  0  0  0  0
  179.2000  177.3410  138.4150 C   0  0  0  0  0  2  0  0  0  0  0  0
  178.6550  175.4430  136.3730 C   0  0  2  0  0  3  0  0  0  0  0  0
  180.1280  175.7110  136.0340 C   0  0  0  0  0  2  0  0  0  0  0  0
  181.5260  177.9330  140.3290 C   0  0  0  0  0  0  0  0  0  0  0  0
  177.8860  175.2210  138.6020 N   0  0  0  0  0  0  0  0  0  0  0  0
  180.6930  178.8840  140.2700 O   0  0  0  0  0  0  0  0  0  0  0  0
  178.7030  174.5670  137.6150 C   0  0  1  0  0  3  0  0  0  0  0  0
  180.5830  176.7390  138.2800 C   0  0  0  0  0  0  0  0  0  0  0  0
  178.8890  173.0480  135.6670 C   0  0  0  0  0  2  0  0  0  0  0  0
  178.6200  171.6490  136.2080 C   0  0  0  0  0  2  0  0  0  0  0  0
  179.7170  170.5250  137.8860 O   0  0  0  0  0  0  0  0  0  0  0  0
  179.7990  171.1310  136.8570 N   0  0  0  0  0  0  0  0  0  0  0  0
  1 47  1  6  0  0  0
  1  3  1  0  0  0  0
  2  4  1  0  0  0  0
  2  6  1  0  0  0  0
  3  2  1  0  0  0  0
  4  5  1  0  0  0  0
  5  8  1  0  0  0  0
  6  7  1  0  0  0  0
  7  8  1  0  0  0  0
  7 10  1  1  0  0  0
  9  3  2  0  0  0  0
 10 11  2  0  0  0  0
 14 13  1  6  0  0  0
 14 10  1  0  0  0  0
 14 16  1  0  0  0  0
 14 12  1  0  0  0  0
 15 16  1  0  0  0  0
 16 17  1  0  0  0  0
 18  1  1  0  0  0  0
 19 20  1  0  0  0  0
 19 28  1  0  0  0  0
 21 25  1  0  0  0  0
 22 24  1  0  0  0  0
 23 19  2  0  0  0  0
 24 20  2  0  0  0  0
 24 18  1  0  0  0  0
 25 23  1  0  0  0  0
 25 22  2  0  0  0  0
 26 27  2  0  0  0  0
 27 28  1  0  0  0  0
 27 29  1  0  0  0  0
 29 30  1  0  0  0  0
 32 36  1  6  0  0  0
 33 35  1  0  0  0  0
 33 34  1  0  0  0  0
 34 30  1  6  0  0  0
 34 32  1  0  0  0  0
 35 31  1  0  0  0  0
 35 36  1  0  0  0  0
 37 35  1  0  0  0  0
 38 45  1  6  0  0  0
 38 39  1  0  0  0  0
 38 46  1  0  0  0  0
 40 44  1  1  0  0  0
 40 32  1  0  0  0  0
 40 42  1  0  0  0  0
 42 39  1  6  0  0  0
 43 44  1  0  0  0  0
 43 46  1  0  0  0  0
 46 42  1  0  0  0  0
 46 41  1  1  0  0  0
 47 48  1  0  0  0  0
 49 61  1  6  0  0  0
 49 59  1  0  0  0  0
 50 60  2  0  0  0  0
 52 56  1  0  0  0  0
 53 51  1  0  0  0  0
 54 55  1  6  0  0  0
 54 49  1  0  0  0  0
 54 59  1  0  0  0  0
 55 50  1  0  0  0  0
 56 48  1  0  0  0  0
 57 51  2  0  0  0  0
 58 56  2  0  0  0  0
 59 57  1  1  0  0  0
 60 53  1  0  0  0  0
 60 52  1  0  0  0  0
 61 62  1  0  0  0  0
 62 64  1  0  0  0  0
 64 63  2  0  0  0  0
M  END
>  <MODEL>
8

>  <REMARK>
 VINA RESULT:      -6.3      5.569      9.432
  Name = 
  17 active torsions:
  status: ('A' for Active; 'I' for Inactive)
    1  A    between atoms: C_3  and  C_50
    2  A    between atoms: C_7  and  N_27
    3  A    between atoms: C_8  and  C_30
    4  A    between atoms: C_8  and  C_45
    5  A    between atoms: O_9  and  C_50
    6  A    between atoms: O_9  and  C_54
    7  A    between atoms: C_10  and  C_16
    8  A    between atoms: C_11  and  C_44
    9  A    between atoms: C_12  and  C_34
   10  A    between atoms: C_12  and  C_52
   11  A    between atoms: C_21  and  C_42
   12  A    between atoms: C_30  and  C_50
   13  A    between atoms: C_31  and  C_44
   14  A    between atoms: C_31  and  N_51
   15  A    between atoms: C_34  and  N_49
   16  A    between atoms: C_42  and  C_43
   17  A    between atoms: C_43  and  C_56
                            x       y       z     vdW  Elec       q    Type
                         _______ _______ _______ _____ _____    ______ ____

>  <TORSDO>
F 17

$$$$
=
 OpenBabel11042414503D

 64 70  0  0  1  0  0  0  0  0999 V2000
  191.6100  174.0800  145.3010 C   0  0  2  0  0  3  0  0  0  0  0  0
  193.6880  172.9240  144.4460 N   0  0  0  0  0  0  0  0  0  0  0  0
  193.0610  174.1000  144.9550 C   0  0  0  0  0  0  0  0  0  0  0  0
  193.9770  171.8380  145.3850 C   0  0  0  0  0  2  0  0  0  0  0  0
  195.1540  170.9920  144.8860 C   0  0  0  0  0  2  0  0  0  0  0  0
  194.4700  173.0260  143.2220 C   0  0  0  0  0  2  0  0  0  0  0  0
  195.9530  172.9460  143.6010 C   0  0  1  0  0  3  0  0  0  0  0  0
  196.3010  171.8460  144.5260 N   0  0  0  0  0  2  0  0  0  0  0  0
  193.7230  175.1660  145.0720 O   0  0  0  0  0  0  0  0  0  0  0  0
  196.8610  173.0070  142.4040 C   0  0  0  0  0  0  0  0  0  0  0  0
  197.4230  171.9710  142.0740 O   0  0  0  0  0  0  0  0  0  0  0  0
  197.8880  174.0000  140.5120 O   0  0  0  0  0  1  0  0  0  0  0  0
  197.8990  175.2720  142.5130 C   0  0  0  0  0  1  0  0  0  0  0  0
  197.1060  174.3010  141.6330 C   0  0  2  0  0  0  0  0  0  0  0  0
  195.8470  176.3580  141.2280 C   0  0  0  0  0  1  0  0  0  0  0  0
  195.8220  174.8960  141.1820 N   0  0  0  0  0  0  0  0  0  0  0  0
  195.5470  174.5310  139.7950 C   0  0  0  0  0  1  0  0  0  0  0  0
  190.9400  173.2260  144.3720 O   0  0  0  0  0  0  0  0  0  0  0  0
  190.3220  173.6270  140.7480 C   0  0  0  0  0  0  0  0  0  0  0  0
  190.8940  173.2470  141.9620 C   0  0  0  0  0  3  0  0  0  0  0  0
  187.2490  175.4750  141.9610 C   0  0  0  0  0  1  0  0  0  0  0  0
  189.0950  174.3110  143.1630 C   0  0  0  0  0  3  0  0  0  0  0  0
  189.1270  174.3600  140.7460 C   0  0  0  0  0  3  0  0  0  0  0  0
  190.2930  173.5860  143.1790 C   0  0  0  0  0  0  0  0  0  0  0  0
  188.5160  174.6990  141.9550 C   0  0  0  0  0  0  0  0  0  0  0  0
  189.5010  171.3710  139.0690 O   0  0  0  0  0  0  0  0  0  0  0  0
  190.5520  172.0140  138.7910 C   0  0  0  0  0  0  0  0  0  0  0  0
  190.9240  173.1750  139.5380 N   0  0  0  0  0  2  0  0  0  0  0  0
  191.3350  171.6510  137.5820 C   0  0  0  0  0  2  0  0  0  0  0  0
  192.1820  170.4270  137.8730 C   0  0  0  0  0  2  0  0  0  0  0  0
  194.4970  168.6690  141.7130 C   0  0  0  0  0  1  0  0  0  0  0  0
  194.3250  171.2410  139.0970 C   0  0  1  0  0  3  0  0  0  0  0  0
  193.0730  169.2750  139.8330 N   0  0  0  0  0  2  0  0  0  0  0  0
  192.9350  170.5770  139.1890 C   0  0  2  0  0  3  0  0  0  0  0  0
  194.4540  169.1530  140.2810 C   0  0  0  0  0  0  0  0  0  0  0  0
  195.0970  170.5170  140.1800 C   0  0  0  0  0  2  0  0  0  0  0  0
  195.1800  168.1670  139.3910 C   0  0  0  0  0  1  0  0  0  0  0  0
  197.6990  170.6560  136.3020 C   0  0  1  0  0  3  0  0  0  0  0  0
  197.2200  170.0810  137.4950 O   0  0  0  0  0  0  0  0  0  0  0  0
  195.0380  171.0730  137.7390 C   0  0  2  0  0  3  0  0  0  0  0  0
  197.9050  173.1320  136.8290 C   0  0  0  0  0  1  0  0  0  0  0  0
  196.5490  171.2750  137.8390 C   0  0  2  0  0  3  0  0  0  0  0  0
  195.7310  172.2950  135.7610 C   0  0  0  0  0  2  0  0  0  0  0  0
  194.5720  172.0970  136.7140 C   0  0  0  0  0  2  0  0  0  0  0  0
  197.1640  169.8800  135.1040 C   0  0  0  0  0  1  0  0  0  0  0  0
  196.9770  171.9610  136.5730 C   0  0  2  0  0  0  0  0  0  0  0  0
  191.0550  175.4960  145.3590 C   0  0  0  0  0  2  0  0  0  0  0  0
  190.1110  175.5820  146.5530 C   0  0  0  0  0  2  0  0  0  0  0  0
  183.8200  178.4850  142.9630 C   0  0  2  0  0  3  0  0  0  0  0  0
  187.4030  178.2490  143.5450 N   0  0  0  0  0  0  0  0  0  0  0  0
  185.3060  177.6340  146.0760 C   0  0  0  0  0  3  0  0  0  0  0  0
  188.5360  176.9030  145.1070 N   0  0  0  0  0  2  0  0  0  0  0  0
  186.6150  178.3980  145.8840 C   0  0  0  0  0  2  0  0  0  0  0  0
  185.0490  179.1110  143.6240 C   0  0  2  0  0  3  0  0  0  0  0  0
  186.4330  179.2050  142.9680 C   0  0  0  0  0  2  0  0  0  0  0  0
  189.0990  176.6710  146.4050 C   0  0  0  0  0  0  0  0  0  0  0  0
  184.4680  177.3680  145.1180 N   0  0  0  0  0  0  0  0  0  0  0  0
  188.8220  177.4280  147.3810 O   0  0  0  0  0  0  0  0  0  0  0  0
  184.7810  177.6190  143.7370 C   0  0  1  0  0  3  0  0  0  0  0  0
  187.5220  177.8670  144.7940 C   0  0  0  0  0  0  0  0  0  0  0  0
  184.0430  178.3050  141.4730 C   0  0  0  0  0  2  0  0  0  0  0  0
  182.7690  177.7880  140.8150 C   0  0  0  0  0  2  0  0  0  0  0  0
  180.5640  178.4210  140.9520 O   0  0  0  0  0  0  0  0  0  0  0  0
  181.6110  178.2850  141.5160 N   0  0  0  0  0  0  0  0  0  0  0  0
  1 47  1  6  0  0  0
  2  3  1  0  0  0  0
  2  4  1  0  0  0  0
  3  9  2  0  0  0  0
  3  1  1  0  0  0  0
  5  4  1  0  0  0  0
  6  7  1  0  0  0  0
  6  2  1  0  0  0  0
  7 10  1  6  0  0  0
  7  8  1  0  0  0  0
  8  5  1  0  0  0  0
 11 10  2  0  0  0  0
 12 14  1  0  0  0  0
 14 10  1  0  0  0  0
 14 13  1  1  0  0  0
 16 15  1  0  0  0  0
 16 14  1  0  0  0  0
 17 16  1  0  0  0  0
 18  1  1  0  0  0  0
 19 20  1  0  0  0  0
 20 24  2  0  0  0  0
 22 24  1  0  0  0  0
 23 19  2  0  0  0  0
 23 25  1  0  0  0  0
 24 18  1  0  0  0  0
 25 21  1  0  0  0  0
 25 22  2  0  0  0  0
 27 26  2  0  0  0  0
 27 28  1  0  0  0  0
 28 19  1  0  0  0  0
 29 30  1  0  0  0  0
 29 27  1  0  0  0  0
 32 34  1  0  0  0  0
 32 36  1  1  0  0  0
 33 35  1  0  0  0  0
 34 30  1  6  0  0  0
 34 33  1  0  0  0  0
 35 31  1  0  0  0  0
 36 35  1  0  0  0  0
 37 35  1  0  0  0  0
 38 45  1  6  0  0  0
 38 46  1  0  0  0  0
 38 39  1  0  0  0  0
 40 44  1  6  0  0  0
 40 42  1  0  0  0  0
 40 32  1  0  0  0  0
 42 39  1  6  0  0  0
 43 46  1  0  0  0  0
 43 44  1  0  0  0  0
 46 41  1  1  0  0  0
 46 42  1  0  0  0  0
 47 48  1  0  0  0  0
 49 61  1  6  0  0  0
 49 54  1  0  0  0  0
 49 59  1  0  0  0  0
 50 60  2  0  0  0  0
 52 56  1  0  0  0  0
 53 51  1  0  0  0  0
 54 55  1  6  0  0  0
 54 59  1  0  0  0  0
 55 50  1  0  0  0  0
 56 48  1  0  0  0  0
 56 58  2  0  0  0  0
 57 51  2  0  0  0  0
 59 57  1  1  0  0  0
 60 52  1  0  0  0  0
 60 53  1  0  0  0  0
 62 61  1  0  0  0  0
 62 64  1  0  0  0  0
 63 64  2  0  0  0  0
M  END
>  <MODEL>
9

>  <REMARK>
 VINA RESULT:      -6.2      2.666      4.286
  Name = 
  17 active torsions:
  status: ('A' for Active; 'I' for Inactive)
    1  A    between atoms: C_3  and  C_50
    2  A    between atoms: C_7  and  N_27
    3  A    between atoms: C_8  and  C_30
    4  A    between atoms: C_8  and  C_45
    5  A    between atoms: O_9  and  C_50
    6  A    between atoms: O_9  and  C_54
    7  A    between atoms: C_10  and  C_16
    8  A    between atoms: C_11  and  C_44
    9  A    between atoms: C_12  and  C_34
   10  A    between atoms: C_12  and  C_52
   11  A    between atoms: C_21  and  C_42
   12  A    between atoms: C_30  and  C_50
   13  A    between atoms: C_31  and  C_44
   14  A    between atoms: C_31  and  N_51
   15  A    between atoms: C_34  and  N_49
   16  A    between atoms: C_42  and  C_43
   17  A    between atoms: C_43  and  C_56
                            x       y       z     vdW  Elec       q    Type
                         _______ _______ _______ _____ _____    ______ ____

>  <TORSDO>
F 17

$$$$
