=
 OpenBabel11042419433D

 40 44  0  0  1  0  0  0  0  0999 V2000
  188.1600  177.0800  144.1050 C   0  0  1  0  0  3  0  0  0  0  0  0
  188.6880  175.1210  147.1420 O   0  0  0  0  0  1  0  0  0  0  0  0
  188.8720  176.3670  146.5390 C   0  0  1  0  0  3  0  0  0  0  0  0
  190.2750  176.4380  145.9290 C   0  0  1  0  0  3  0  0  0  0  0  0
  189.6720  177.2470  143.8720 C   0  0  1  0  0  3  0  0  0  0  0  0
  190.3900  177.5360  145.0560 O   0  0  0  0  0  0  0  0  0  0  0  0
  187.8140  176.5740  145.4870 C   0  0  0  0  0  0  0  0  0  0  0  0
  186.6450  176.3530  145.7630 O   0  0  0  0  0  0  0  0  0  0  0  0
  190.2860  176.1470  143.0540 C   0  0  0  0  0  0  0  0  0  0  0  0
  189.3000  172.9830  141.5220 C   0  0  0  0  0  3  0  0  0  0  0  0
  190.0840  174.0600  141.9380 C   0  0  0  0  0  0  0  0  0  0  0  0
  191.4590  174.0700  141.6310 C   0  0  0  0  0  0  0  0  0  0  0  0
  189.8900  171.9340  140.8120 C   0  0  0  0  0  3  0  0  0  0  0  0
  191.2590  171.9780  140.5300 C   0  0  0  0  0  3  0  0  0  0  0  0
  189.5340  175.0880  142.6360 N   0  0  0  0  0  0  0  0  0  0  0  0
  192.0110  173.0360  140.9410 N   0  0  0  0  0  0  0  0  0  0  0  0
  192.2440  175.1450  142.0520 C   0  0  0  0  0  3  0  0  0  0  0  0
  191.6560  176.1880  142.7700 C   0  0  0  0  0  3  0  0  0  0  0  0
  187.4400  178.3150  143.7930 N   0  0  0  0  0  2  0  0  0  0  0  0
  187.2400  178.3890  142.4030 N   0  0  0  0  0  2  0  0  0  0  0  0
  186.2900  177.9440  139.8030 F   0  0  0  0  0  0  0  0  0  0  0  0
  183.5000  178.4690  142.8600 C   0  0  0  0  0  3  0  0  0  0  0  0
  183.0560  178.2430  141.6190 C   0  0  0  0  0  0  0  0  0  0  0  0
  185.4390  178.4650  140.7620 C   0  0  2  0  0  3  0  0  0  0  0  0
  185.8620  178.0020  142.1530 C   0  0  2  0  0  3  0  0  0  0  0  0
  184.9540  178.6690  143.1840 C   0  0  0  0  0  2  0  0  0  0  0  0
  184.0110  178.0000  140.4720 C   0  0  0  0  0  2  0  0  0  0  0  0
  180.8690  179.0210  140.6130 C   0  0  0  0  0  1  0  0  0  0  0  0
  181.6490  178.0970  141.4200 N   0  0  0  0  0  2  0  0  0  0  0  0
  191.3500  176.5380  147.0040 C   0  0  0  0  0  2  0  0  0  0  0  0
  192.4890  174.6400  146.0020 C   0  0  0  0  0  0  0  0  0  0  0  0
  192.3960  173.5510  145.4200 O   0  0  0  0  0  0  0  0  0  0  0  0
  192.5830  175.7900  146.6170 C   0  0  0  0  0  0  0  0  0  0  0  0
  193.9150  176.4490  146.7600 C   0  0  0  0  0  2  0  0  0  0  0  0
  195.9450  176.1560  143.5750 C   0  0  0  0  0  3  0  0  0  0  0  0
  195.6550  174.8040  146.0060 C   0  0  0  0  0  3  0  0  0  0  0  0
  196.5720  174.3440  145.0570 C   0  0  0  0  0  3  0  0  0  0  0  0
  195.0280  176.6170  144.5240 C   0  0  0  0  0  3  0  0  0  0  0  0
  196.7160  175.0190  143.8410 C   0  0  0  0  0  3  0  0  0  0  0  0
  194.8790  175.9390  145.7400 C   0  0  0  0  0  0  0  0  0  0  0  0
  1 19  1  1  0  0  0
  1  7  1  0  0  0  0
  3  2  1  6  0  0  0
  4  3  1  0  0  0  0
  4 30  1  1  0  0  0
  5  9  1  1  0  0  0
  5  1  1  0  0  0  0
  5  6  1  0  0  0  0
  6  4  1  0  0  0  0
  7  8  2  0  0  0  0
  7  3  1  0  0  0  0
 10 11  1  0  0  0  0
 11 15  1  0  0  0  0
 12 11  2  0  0  0  0
 12 17  1  0  0  0  0
 13 10  2  0  0  0  0
 14 13  1  0  0  0  0
 14 16  2  0  0  0  0
 15  9  2  0  0  0  0
 16 12  1  0  0  0  0
 17 18  2  0  0  0  0
 18  9  1  0  0  0  0
 20 19  1  0  0  0  0
 22 26  1  0  0  0  0
 23 22  2  0  0  0  0
 24 21  1  6  0  0  0
 24 25  1  0  0  0  0
 25 20  1  1  0  0  0
 25 26  1  0  0  0  0
 27 24  1  0  0  0  0
 27 23  1  0  0  0  0
 28 29  1  0  0  0  0
 29 23  1  0  0  0  0
 31 33  2  0  0  0  0
 32 31  2  0  0  0  0
 33 34  1  0  0  0  0
 33 30  1  0  0  0  0
 35 39  2  0  0  0  0
 35 38  1  0  0  0  0
 37 36  2  0  0  0  0
 38 40  2  0  0  0  0
 39 37  1  0  0  0  0
 40 36  1  0  0  0  0
 40 34  1  0  0  0  0
M  END
>  <MODEL>
1

>  <REMARK>
 VINA RESULT:      -8.1      0.000      0.000
  Name = 
  9 active torsions:
  status: ('A' for Active; 'I' for Inactive)
    1  A    between atoms: C_1  and  N_16
    2  A    between atoms: N_4  and  N_16
    3  A    between atoms: N_4  and  C_26
    4  A    between atoms: C_5  and  C_15
    5  A    between atoms: C_14  and  C_34
    6  A    between atoms: C_17  and  N_30
    7  A    between atoms: C_31  and  C_38
    8  A    between atoms: C_31  and  C_39
    9  A    between atoms: C_34  and  C_38
                            x       y       z     vdW  Elec       q    Type
                         _______ _______ _______ _____ _____    ______ ____

>  <TORSDO>
F 9

$$$$
=
 OpenBabel11042419433D

 40 44  0  0  1  0  0  0  0  0999 V2000
  190.1260  176.7020  145.1000 C   0  0  1  0  0  3  0  0  0  0  0  0
  192.2740  175.0760  147.5660 O   0  0  0  0  0  1  0  0  0  0  0  0
  192.0260  176.2610  146.8710 C   0  0  1  0  0  3  0  0  0  0  0  0
  192.9180  176.3210  145.6280 C   0  0  1  0  0  3  0  0  0  0  0  0
  191.2940  176.8980  144.1170 C   0  0  1  0  0  3  0  0  0  0  0  0
  192.4860  177.3300  144.7470 O   0  0  0  0  0  0  0  0  0  0  0  0
  190.5690  176.3240  146.4960 C   0  0  0  0  0  0  0  0  0  0  0  0
  189.7220  176.0910  147.3440 O   0  0  0  0  0  0  0  0  0  0  0  0
  191.4980  175.7450  143.1770 C   0  0  0  0  0  0  0  0  0  0  0  0
  189.9640  172.5240  142.4060 C   0  0  0  0  0  3  0  0  0  0  0  0
  190.8440  173.6060  142.3790 C   0  0  0  0  0  0  0  0  0  0  0  0
  191.9480  173.5740  141.5050 C   0  0  0  0  0  0  0  0  0  0  0  0
  190.1920  171.4270  141.5710 C   0  0  0  0  0  3  0  0  0  0  0  0
  191.3020  171.4310  140.7200 C   0  0  0  0  0  3  0  0  0  0  0  0
  190.6460  174.6800  143.1870 N   0  0  0  0  0  0  0  0  0  0  0  0
  192.1520  172.4940  140.7030 N   0  0  0  0  0  0  0  0  0  0  0  0
  192.8310  174.6560  141.4810 C   0  0  0  0  0  3  0  0  0  0  0  0
  192.6080  175.7460  142.3230 C   0  0  0  0  0  3  0  0  0  0  0  0
  189.2490  177.8730  145.1170 N   0  0  0  0  0  2  0  0  0  0  0  0
  187.9120  177.4420  145.1590 N   0  0  0  0  0  2  0  0  0  0  0  0
  186.0190  179.5100  145.1170 F   0  0  0  0  0  0  0  0  0  0  0  0
  186.2990  177.0250  141.7780 C   0  0  0  0  0  3  0  0  0  0  0  0
  185.4080  178.0220  141.7620 C   0  0  0  0  0  0  0  0  0  0  0  0
  185.9120  178.4680  144.2130 C   0  0  2  0  0  3  0  0  0  0  0  0
  187.2880  177.8780  143.9200 C   0  0  2  0  0  3  0  0  0  0  0  0
  187.1160  176.6790  142.9920 C   0  0  0  0  0  2  0  0  0  0  0  0
  185.2840  178.9880  142.9190 C   0  0  0  0  0  2  0  0  0  0  0  0
  183.2100  178.2670  140.5320 C   0  0  0  0  0  1  0  0  0  0  0  0
  184.6640  178.2450  140.5630 N   0  0  0  0  0  2  0  0  0  0  0  0
  194.3760  176.5660  145.9940 C   0  0  0  0  0  2  0  0  0  0  0  0
  195.8540  176.2110  144.0980 C   0  0  0  0  0  0  0  0  0  0  0  0
  196.3810  176.6770  143.0790 O   0  0  0  0  0  0  0  0  0  0  0  0
  195.2960  175.7210  145.1740 C   0  0  0  0  0  0  0  0  0  0  0  0
  195.7240  174.3890  145.6930 C   0  0  0  0  0  2  0  0  0  0  0  0
  193.1150  171.8450  144.6580 C   0  0  0  0  0  3  0  0  0  0  0  0
  195.6620  172.6770  143.8580 C   0  0  0  0  0  3  0  0  0  0  0  0
  195.0100  171.6570  143.1600 C   0  0  0  0  0  3  0  0  0  0  0  0
  193.7650  172.8660  145.3560 C   0  0  0  0  0  3  0  0  0  0  0  0
  193.7370  171.2390  143.5610 C   0  0  0  0  0  3  0  0  0  0  0  0
  195.0420  173.2820  144.9590 C   0  0  0  0  0  0  0  0  0  0  0  0
  1 19  1  1  0  0  0
  1  7  1  0  0  0  0
  3  2  1  6  0  0  0
  4 30  1  1  0  0  0
  4  3  1  0  0  0  0
  5  9  1  1  0  0  0
  5  6  1  0  0  0  0
  5  1  1  0  0  0  0
  6  4  1  0  0  0  0
  7  3  1  0  0  0  0
  7  8  2  0  0  0  0
  9 15  1  0  0  0  0
 11 10  1  0  0  0  0
 11 15  2  0  0  0  0
 12 11  1  0  0  0  0
 13 10  2  0  0  0  0
 14 13  1  0  0  0  0
 16 14  2  0  0  0  0
 16 12  1  0  0  0  0
 17 12  2  0  0  0  0
 17 18  1  0  0  0  0
 18  9  2  0  0  0  0
 19 20  1  0  0  0  0
 22 26  1  0  0  0  0
 23 22  2  0  0  0  0
 23 27  1  0  0  0  0
 24 21  1  1  0  0  0
 25 24  1  0  0  0  0
 25 20  1  1  0  0  0
 26 25  1  0  0  0  0
 27 24  1  0  0  0  0
 28 29  1  0  0  0  0
 29 23  1  0  0  0  0
 31 33  2  0  0  0  0
 32 31  2  0  0  0  0
 33 34  1  0  0  0  0
 33 30  1  0  0  0  0
 35 38  1  0  0  0  0
 36 40  1  0  0  0  0
 37 39  1  0  0  0  0
 37 36  2  0  0  0  0
 39 35  2  0  0  0  0
 40 38  2  0  0  0  0
 40 34  1  0  0  0  0
M  END
>  <MODEL>
2

>  <REMARK>
 VINA RESULT:      -8.0      2.063      2.999
  Name = 
  9 active torsions:
  status: ('A' for Active; 'I' for Inactive)
    1  A    between atoms: C_1  and  N_16
    2  A    between atoms: N_4  and  N_16
    3  A    between atoms: N_4  and  C_26
    4  A    between atoms: C_5  and  C_15
    5  A    between atoms: C_14  and  C_34
    6  A    between atoms: C_17  and  N_30
    7  A    between atoms: C_31  and  C_38
    8  A    between atoms: C_31  and  C_39
    9  A    between atoms: C_34  and  C_38
                            x       y       z     vdW  Elec       q    Type
                         _______ _______ _______ _____ _____    ______ ____

>  <TORSDO>
F 9

$$$$
=
 OpenBabel11042419433D

 40 44  0  0  1  0  0  0  0  0999 V2000
  189.9250  176.6110  145.3270 C   0  0  1  0  0  3  0  0  0  0  0  0
  192.9370  175.3270  146.9440 O   0  0  0  0  0  1  0  0  0  0  0  0
  192.3900  176.3940  146.2290 C   0  0  1  0  0  3  0  0  0  0  0  0
  192.7040  176.2270  144.7400 C   0  0  1  0  0  3  0  0  0  0  0  0
  190.5910  176.6110  143.9400 C   0  0  1  0  0  3  0  0  0  0  0  0
  191.9190  177.0970  143.9600 O   0  0  0  0  0  0  0  0  0  0  0  0
  190.9040  176.4450  146.4670 C   0  0  0  0  0  0  0  0  0  0  0  0
  190.4780  176.3770  147.6100 O   0  0  0  0  0  0  0  0  0  0  0  0
  190.4380  175.3170  143.1930 C   0  0  0  0  0  0  0  0  0  0  0  0
  191.8730  173.6370  140.2860 C   0  0  0  0  0  3  0  0  0  0  0  0
  191.0640  173.9000  141.3930 C   0  0  0  0  0  0  0  0  0  0  0  0
  190.0740  172.9670  141.7590 C   0  0  0  0  0  0  0  0  0  0  0  0
  191.6860  172.4590  139.5590 C   0  0  0  0  0  3  0  0  0  0  0  0
  190.6900  171.5590  139.9510 C   0  0  0  0  0  3  0  0  0  0  0  0
  191.2220  175.0420  142.1100 N   0  0  0  0  0  0  0  0  0  0  0  0
  189.9090  171.8280  141.0340 N   0  0  0  0  0  0  0  0  0  0  0  0
  189.2630  173.2320  142.8640 C   0  0  0  0  0  3  0  0  0  0  0  0
  189.4430  174.4140  143.5830 C   0  0  0  0  0  3  0  0  0  0  0  0
  189.0890  177.7990  145.5100 N   0  0  0  0  0  2  0  0  0  0  0  0
  187.7810  177.3930  145.8280 N   0  0  0  0  0  2  0  0  0  0  0  0
  185.8950  179.4290  146.2230 F   0  0  0  0  0  0  0  0  0  0  0  0
  185.5380  177.0420  142.8200 C   0  0  0  0  0  3  0  0  0  0  0  0
  184.6510  178.0250  143.0090 C   0  0  0  0  0  0  0  0  0  0  0  0
  185.6240  178.4110  145.3260 C   0  0  2  0  0  3  0  0  0  0  0  0
  186.9210  177.8530  144.7500 C   0  0  2  0  0  3  0  0  0  0  0  0
  186.5820  176.6760  143.8380 C   0  0  0  0  0  2  0  0  0  0  0  0
  184.7470  178.9560  144.1980 C   0  0  0  0  0  2  0  0  0  0  0  0
  184.0240  178.3160  140.5760 C   0  0  0  0  0  1  0  0  0  0  0  0
  183.6830  178.2680  141.9880 N   0  0  0  0  0  2  0  0  0  0  0  0
  194.1760  176.4800  144.4440 C   0  0  0  0  0  2  0  0  0  0  0  0
  194.7410  175.8810  142.1580 C   0  0  0  0  0  0  0  0  0  0  0  0
  194.7780  176.2150  140.9660 O   0  0  0  0  0  0  0  0  0  0  0  0
  194.6990  175.5300  143.4160 C   0  0  0  0  0  0  0  0  0  0  0  0
  195.3500  174.2610  143.8560 C   0  0  0  0  0  2  0  0  0  0  0  0
  192.5300  171.7490  144.1570 C   0  0  0  0  0  3  0  0  0  0  0  0
  194.7250  172.2450  142.4970 C   0  0  0  0  0  3  0  0  0  0  0  0
  193.8850  171.1580  142.2370 C   0  0  0  0  0  3  0  0  0  0  0  0
  193.3690  172.8360  144.4170 C   0  0  0  0  0  3  0  0  0  0  0  0
  192.7890  170.9090  143.0690 C   0  0  0  0  0  3  0  0  0  0  0  0
  194.4700  173.0840  143.5880 C   0  0  0  0  0  0  0  0  0  0  0  0
  1 19  1  1  0  0  0
  1  7  1  0  0  0  0
  3  7  1  0  0  0  0
  3  2  1  1  0  0  0
  4 30  1  1  0  0  0
  4  3  1  0  0  0  0
  5  9  1  1  0  0  0
  5  6  1  0  0  0  0
  5  1  1  0  0  0  0
  6  4  1  0  0  0  0
  7  8  2  0  0  0  0
  9 18  1  0  0  0  0
 10 11  1  0  0  0  0
 11 12  2  0  0  0  0
 11 15  1  0  0  0  0
 12 17  1  0  0  0  0
 13 14  1  0  0  0  0
 13 10  2  0  0  0  0
 14 16  2  0  0  0  0
 15  9  2  0  0  0  0
 16 12  1  0  0  0  0
 17 18  2  0  0  0  0
 19 20  1  0  0  0  0
 22 23  2  0  0  0  0
 22 26  1  0  0  0  0
 23 27  1  0  0  0  0
 24 21  1  1  0  0  0
 25 24  1  0  0  0  0
 25 20  1  1  0  0  0
 26 25  1  0  0  0  0
 27 24  1  0  0  0  0
 28 29  1  0  0  0  0
 29 23  1  0  0  0  0
 31 33  2  0  0  0  0
 32 31  2  0  0  0  0
 33 34  1  0  0  0  0
 33 30  1  0  0  0  0
 35 38  1  0  0  0  0
 36 40  1  0  0  0  0
 37 36  2  0  0  0  0
 37 39  1  0  0  0  0
 39 35  2  0  0  0  0
 40 34  1  0  0  0  0
 40 38  2  0  0  0  0
M  END
>  <MODEL>
3

>  <REMARK>
 VINA RESULT:      -7.9      2.321      3.551
  Name = 
  9 active torsions:
  status: ('A' for Active; 'I' for Inactive)
    1  A    between atoms: C_1  and  N_16
    2  A    between atoms: N_4  and  N_16
    3  A    between atoms: N_4  and  C_26
    4  A    between atoms: C_5  and  C_15
    5  A    between atoms: C_14  and  C_34
    6  A    between atoms: C_17  and  N_30
    7  A    between atoms: C_31  and  C_38
    8  A    between atoms: C_31  and  C_39
    9  A    between atoms: C_34  and  C_38
                            x       y       z     vdW  Elec       q    Type
                         _______ _______ _______ _____ _____    ______ ____

>  <TORSDO>
F 9

$$$$
=
 OpenBabel11042419433D

 40 44  0  0  1  0  0  0  0  0999 V2000
  189.8840  174.8750  142.2150 C   0  0  1  0  0  3  0  0  0  0  0  0
  191.5630  177.8840  143.4260 O   0  0  0  0  0  1  0  0  0  0  0  0
  190.9930  176.6650  143.7980 C   0  0  1  0  0  3  0  0  0  0  0  0
  189.5400  176.8880  144.2260 C   0  0  1  0  0  3  0  0  0  0  0  0
  188.5980  175.2000  142.9960 C   0  0  1  0  0  3  0  0  0  0  0  0
  188.8460  175.6670  144.3090 O   0  0  0  0  0  0  0  0  0  0  0  0
  191.0750  175.7020  142.6430 C   0  0  0  0  0  0  0  0  0  0  0  0
  192.1360  175.5650  142.0530 O   0  0  0  0  0  0  0  0  0  0  0  0
  187.6220  176.0500  142.2340 C   0  0  0  0  0  0  0  0  0  0  0  0
  184.3630  177.6160  142.7370 C   0  0  0  0  0  3  0  0  0  0  0  0
  185.5450  177.1980  142.1260 C   0  0  0  0  0  0  0  0  0  0  0  0
  185.7800  177.5340  140.7780 C   0  0  0  0  0  0  0  0  0  0  0  0
  183.4310  178.3560  142.0040 C   0  0  0  0  0  3  0  0  0  0  0  0
  183.6990  178.6660  140.6660 C   0  0  0  0  0  3  0  0  0  0  0  0
  186.4630  176.4710  142.8160 N   0  0  0  0  0  0  0  0  0  0  0  0
  184.8580  178.2530  140.0840 N   0  0  0  0  0  0  0  0  0  0  0  0
  186.9620  177.1110  140.1650 C   0  0  0  0  0  3  0  0  0  0  0  0
  187.8870  176.3630  140.8950 C   0  0  0  0  0  3  0  0  0  0  0  0
  190.1820  173.4430  142.2650 N   0  0  0  0  0  2  0  0  0  0  0  0
  189.2130  172.7480  141.5200 N   0  0  0  0  0  2  0  0  0  0  0  0
  187.9560  173.7230  139.2110 F   0  0  0  0  0  0  0  0  0  0  0  0
  190.8950  170.7940  138.7710 C   0  0  0  0  0  2  0  0  0  0  0  0
  190.2990  171.2740  137.6740 C   0  0  0  0  0  0  0  0  0  0  0  0
  188.6610  172.5330  139.1550 C   0  0  2  0  0  3  0  0  0  0  0  0
  189.7750  172.5280  140.1970 C   0  0  2  0  0  3  0  0  0  0  0  0
  190.4670  171.1680  140.1630 C   0  0  0  0  0  2  0  0  0  0  0  0
  189.2580  172.3680  137.7560 C   0  0  0  0  0  2  0  0  0  0  0  0
  191.9770  170.0390  136.2380 C   0  0  0  0  0  1  0  0  0  0  0  0
  190.7670  170.8290  136.4000 N   0  0  0  0  0  0  0  0  0  0  0  0
  189.4540  177.6050  145.5680 C   0  0  0  0  0  2  0  0  0  0  0  0
  190.4380  176.4390  147.4590 C   0  0  0  0  0  0  0  0  0  0  0  0
  191.4320  176.2540  148.1740 O   0  0  0  0  0  0  0  0  0  0  0  0
  189.3900  176.6360  146.7030 C   0  0  0  0  0  0  0  0  0  0  0  0
  188.0750  176.0430  147.0870 C   0  0  0  0  0  2  0  0  0  0  0  0
  184.8180  177.7260  146.1320 C   0  0  0  0  0  3  0  0  0  0  0  0
  187.0650  178.2550  147.7100 C   0  0  0  0  0  3  0  0  0  0  0  0
  186.0290  179.1900  147.6360 C   0  0  0  0  0  3  0  0  0  0  0  0
  185.8540  176.7910  146.2060 C   0  0  0  0  0  3  0  0  0  0  0  0
  184.9060  178.9260  146.8460 C   0  0  0  0  0  3  0  0  0  0  0  0
  186.9810  177.0550  146.9930 C   0  0  0  0  0  0  0  0  0  0  0  0
  1 19  1  1  0  0  0
  1  7  1  0  0  0  0
  1  5  1  0  0  0  0
  3  2  1  6  0  0  0
  3  4  1  0  0  0  0
  4  6  1  0  0  0  0
  4 30  1  1  0  0  0
  5  9  1  6  0  0  0
  5  6  1  0  0  0  0
  7  3  1  0  0  0  0
  8  7  2  0  0  0  0
  9 15  1  0  0  0  0
 11 10  1  0  0  0  0
 11 15  2  0  0  0  0
 12 11  1  0  0  0  0
 13 10  2  0  0  0  0
 14 13  1  0  0  0  0
 16 14  2  0  0  0  0
 16 12  1  0  0  0  0
 17 12  2  0  0  0  0
 17 18  1  0  0  0  0
 18  9  2  0  0  0  0
 20 19  1  0  0  0  0
 22 26  1  0  0  0  0
 23 27  1  0  0  0  0
 23 22  1  0  0  0  0
 24 21  1  6  0  0  0
 24 25  1  0  0  0  0
 25 20  1  1  0  0  0
 26 25  1  0  0  0  0
 27 24  1  0  0  0  0
 28 29  1  0  0  0  0
 29 23  2  0  0  0  0
 30 33  1  0  0  0  0
 31 32  2  0  0  0  0
 33 34  1  0  0  0  0
 33 31  2  0  0  0  0
 35 38  2  0  0  0  0
 35 39  1  0  0  0  0
 37 36  1  0  0  0  0
 38 40  1  0  0  0  0
 39 37  2  0  0  0  0
 40 34  1  0  0  0  0
 40 36  2  0  0  0  0
M  END
>  <MODEL>
4

>  <REMARK>
 VINA RESULT:      -7.7      2.787      7.635
  Name = 
  9 active torsions:
  status: ('A' for Active; 'I' for Inactive)
    1  A    between atoms: C_1  and  N_16
    2  A    between atoms: N_4  and  N_16
    3  A    between atoms: N_4  and  C_26
    4  A    between atoms: C_5  and  C_15
    5  A    between atoms: C_14  and  C_34
    6  A    between atoms: C_17  and  N_30
    7  A    between atoms: C_31  and  C_38
    8  A    between atoms: C_31  and  C_39
    9  A    between atoms: C_34  and  C_38
                            x       y       z     vdW  Elec       q    Type
                         _______ _______ _______ _____ _____    ______ ____

>  <TORSDO>
F 9

$$$$
=
 OpenBabel11042419433D

 40 44  0  0  1  0  0  0  0  0999 V2000
  188.5920  174.7490  141.9520 C   0  0  1  0  0  3  0  0  0  0  0  0
  190.3160  172.5380  139.6110 O   0  0  0  0  0  1  0  0  0  0  0  0
  189.4230  172.5950  140.6820 C   0  0  1  0  0  3  0  0  0  0  0  0
  190.1810  172.3640  141.9930 C   0  0  1  0  0  3  0  0  0  0  0  0
  189.3070  174.1280  143.1650 C   0  0  1  0  0  3  0  0  0  0  0  0
  189.3890  172.7170  143.1020 O   0  0  0  0  0  0  0  0  0  0  0  0
  188.7320  173.9330  140.6860 C   0  0  0  0  0  0  0  0  0  0  0  0
  188.2480  174.3600  139.6490 O   0  0  0  0  0  0  0  0  0  0  0  0
  190.6120  174.7890  143.5050 C   0  0  0  0  0  0  0  0  0  0  0  0
  192.5610  175.6630  146.4650 C   0  0  0  0  0  3  0  0  0  0  0  0
  192.1680  175.5470  145.1320 C   0  0  0  0  0  0  0  0  0  0  0  0
  192.9780  176.1050  144.1230 C   0  0  0  0  0  0  0  0  0  0  0  0
  193.7480  176.3310  146.7800 C   0  0  0  0  0  3  0  0  0  0  0  0
  194.5230  176.8750  145.7500 C   0  0  0  0  0  3  0  0  0  0  0  0
  191.0140  174.9080  144.8030 N   0  0  0  0  0  0  0  0  0  0  0  0
  194.1280  176.7530  144.4540 N   0  0  0  0  0  0  0  0  0  0  0  0
  192.5820  175.9920  142.7890 C   0  0  0  0  0  3  0  0  0  0  0  0
  191.3920  175.3340  142.4770 C   0  0  0  0  0  3  0  0  0  0  0  0
  187.1870  175.0280  142.2540 N   0  0  0  0  0  2  0  0  0  0  0  0
  187.0040  176.4200  142.3260 N   0  0  0  0  0  2  0  0  0  0  0  0
  184.4300  177.4860  142.6460 F   0  0  0  0  0  0  0  0  0  0  0  0
  187.0550  177.6630  145.8840 C   0  0  0  0  0  3  0  0  0  0  0  0
  185.8210  178.1560  146.0320 C   0  0  0  0  0  0  0  0  0  0  0  0
  185.4280  177.8290  143.5420 C   0  0  2  0  0  3  0  0  0  0  0  0
  186.4570  176.7070  143.6420 C   0  0  2  0  0  3  0  0  0  0  0  0
  187.5830  177.1610  144.5690 C   0  0  0  0  0  2  0  0  0  0  0  0
  184.8040  178.0860  144.9140 C   0  0  0  0  0  2  0  0  0  0  0  0
  186.1940  179.6320  148.0520 C   0  0  0  0  0  1  0  0  0  0  0  0
  185.4330  178.6330  147.3210 N   0  0  0  0  0  2  0  0  0  0  0  0
  190.6250  170.9140  142.1360 C   0  0  0  0  0  2  0  0  0  0  0  0
  192.6790  169.6170  142.1800 C   0  0  0  0  0  0  0  0  0  0  0  0
  193.2130  168.5000  142.2140 O   0  0  0  0  0  0  0  0  0  0  0  0
  192.1140  170.7950  142.1450 C   0  0  0  0  0  0  0  0  0  0  0  0
  192.9470  172.0130  141.9180 C   0  0  0  0  0  2  0  0  0  0  0  0
  195.6390  173.4310  144.1760 C   0  0  0  0  0  3  0  0  0  0  0  0
  193.2240  172.0410  144.4130 C   0  0  0  0  0  3  0  0  0  0  0  0
  193.9380  172.4000  145.5600 C   0  0  0  0  0  3  0  0  0  0  0  0
  194.9250  173.0720  143.0290 C   0  0  0  0  0  3  0  0  0  0  0  0
  195.1460  173.0930  145.4410 C   0  0  0  0  0  3  0  0  0  0  0  0
  193.7170  172.3730  143.1450 C   0  0  0  0  0  0  0  0  0  0  0  0
  1 19  1  1  0  0  0
  1  5  1  0  0  0  0
  3  2  1  6  0  0  0
  3  7  1  0  0  0  0
  3  4  1  0  0  0  0
  4 30  1  1  0  0  0
  4  6  1  0  0  0  0
  5  9  1  6  0  0  0
  6  5  1  0  0  0  0
  7  1  1  0  0  0  0
  8  7  2  0  0  0  0
  9 15  1  0  0  0  0
 10 13  2  0  0  0  0
 11 10  1  0  0  0  0
 12 16  1  0  0  0  0
 12 11  1  0  0  0  0
 14 13  1  0  0  0  0
 15 11  2  0  0  0  0
 16 14  2  0  0  0  0
 17 12  2  0  0  0  0
 18 17  1  0  0  0  0
 18  9  2  0  0  0  0
 19 20  1  0  0  0  0
 22 23  2  0  0  0  0
 23 29  1  0  0  0  0
 24 21  1  6  0  0  0
 24 25  1  0  0  0  0
 24 27  1  0  0  0  0
 25 20  1  6  0  0  0
 25 26  1  0  0  0  0
 26 22  1  0  0  0  0
 27 23  1  0  0  0  0
 29 28  1  0  0  0  0
 30 33  1  0  0  0  0
 31 32  2  0  0  0  0
 33 31  2  0  0  0  0
 34 33  1  0  0  0  0
 34 40  1  0  0  0  0
 35 39  1  0  0  0  0
 36 37  1  0  0  0  0
 38 40  1  0  0  0  0
 38 35  2  0  0  0  0
 39 37  2  0  0  0  0
 40 36  2  0  0  0  0
M  END
>  <MODEL>
5

>  <REMARK>
 VINA RESULT:      -7.7      2.852      5.178
  Name = 
  9 active torsions:
  status: ('A' for Active; 'I' for Inactive)
    1  A    between atoms: C_1  and  N_16
    2  A    between atoms: N_4  and  N_16
    3  A    between atoms: N_4  and  C_26
    4  A    between atoms: C_5  and  C_15
    5  A    between atoms: C_14  and  C_34
    6  A    between atoms: C_17  and  N_30
    7  A    between atoms: C_31  and  C_38
    8  A    between atoms: C_31  and  C_39
    9  A    between atoms: C_34  and  C_38
                            x       y       z     vdW  Elec       q    Type
                         _______ _______ _______ _____ _____    ______ ____

>  <TORSDO>
F 9

$$$$
=
 OpenBabel11042419433D

 40 44  0  0  1  0  0  0  0  0999 V2000
  191.2440  173.5610  143.1510 C   0  0  1  0  0  3  0  0  0  0  0  0
  193.4650  175.6580  145.1540 O   0  0  0  0  0  1  0  0  0  0  0  0
  192.6230  174.5450  145.1690 C   0  0  1  0  0  3  0  0  0  0  0  0
  191.2310  174.9630  145.6510 C   0  0  1  0  0  3  0  0  0  0  0  0
  190.0170  173.9390  143.9990 C   0  0  1  0  0  3  0  0  0  0  0  0
  190.2840  173.9560  145.3890 O   0  0  0  0  0  0  0  0  0  0  0  0
  192.5600  173.9470  143.7890 C   0  0  0  0  0  0  0  0  0  0  0  0
  193.5980  173.7430  143.1770 O   0  0  0  0  0  0  0  0  0  0  0  0
  189.2960  175.1640  143.5140 C   0  0  0  0  0  0  0  0  0  0  0  0
  185.8840  176.4470  143.3180 C   0  0  0  0  0  3  0  0  0  0  0  0
  187.2680  176.3520  143.1720 C   0  0  0  0  0  0  0  0  0  0  0  0
  187.9640  177.3880  142.5180 C   0  0  0  0  0  0  0  0  0  0  0  0
  185.2110  177.5620  142.8110 C   0  0  0  0  0  3  0  0  0  0  0  0
  185.9370  178.5670  142.1640 C   0  0  0  0  0  3  0  0  0  0  0  0
  187.9430  175.2740  143.6510 N   0  0  0  0  0  0  0  0  0  0  0  0
  187.2870  178.4620  142.0300 N   0  0  0  0  0  0  0  0  0  0  0  0
  189.3490  177.2910  142.3690 C   0  0  0  0  0  3  0  0  0  0  0  0
  190.0190  176.1720  142.8660 C   0  0  0  0  0  3  0  0  0  0  0  0
  191.2210  172.1430  142.7920 N   0  0  0  0  0  2  0  0  0  0  0  0
  190.0770  171.8870  142.0160 N   0  0  0  0  0  2  0  0  0  0  0  0
  187.8850  173.3730  141.0950 F   0  0  0  0  0  0  0  0  0  0  0  0
  191.1080  172.8000  138.5070 C   0  0  0  0  0  3  0  0  0  0  0  0
  190.0640  173.5190  138.0810 C   0  0  0  0  0  0  0  0  0  0  0  0
  188.7970  172.8650  140.1860 C   0  0  2  0  0  3  0  0  0  0  0  0
  190.1710  172.7280  140.8340 C   0  0  2  0  0  3  0  0  0  0  0  0
  191.1210  172.0820  139.8290 C   0  0  0  0  0  2  0  0  0  0  0  0
  188.8820  173.8040  138.9810 C   0  0  0  0  0  2  0  0  0  0  0  0
  189.5920  173.5300  135.5960 C   0  0  0  0  0  1  0  0  0  0  0  0
  190.1470  174.1350  136.7950 N   0  0  0  0  0  2  0  0  0  0  0  0
  191.2240  175.2800  147.1410 C   0  0  0  0  0  2  0  0  0  0  0  0
  191.1680  177.3120  148.4730 C   0  0  0  0  0  0  0  0  0  0  0  0
  191.5460  177.9080  149.4900 O   0  0  0  0  0  0  0  0  0  0  0  0
  190.7690  176.6800  147.4010 C   0  0  0  0  0  0  0  0  0  0  0  0
  190.0200  177.4150  146.3390 C   0  0  0  0  0  2  0  0  0  0  0  0
  186.3430  178.3290  146.3930 C   0  0  0  0  0  3  0  0  0  0  0  0
  187.9790  176.1820  147.1260 C   0  0  0  0  0  3  0  0  0  0  0  0
  186.5970  176.1040  147.3180 C   0  0  0  0  0  3  0  0  0  0  0  0
  187.7250  178.4080  146.2000 C   0  0  0  0  0  3  0  0  0  0  0  0
  185.7790  177.1780  146.9530 C   0  0  0  0  0  3  0  0  0  0  0  0
  188.5470  177.3350  146.5690 C   0  0  0  0  0  0  0  0  0  0  0  0
  1 19  1  1  0  0  0
  1  7  1  0  0  0  0
  1  5  1  0  0  0  0
  3  2  1  6  0  0  0
  3  4  1  0  0  0  0
  4 30  1  1  0  0  0
  5  9  1  6  0  0  0
  5  6  1  0  0  0  0
  6  4  1  0  0  0  0
  7  3  1  0  0  0  0
  8  7  2  0  0  0  0
  9 15  1  0  0  0  0
 11 10  1  0  0  0  0
 11 15  2  0  0  0  0
 12 11  1  0  0  0  0
 13 10  2  0  0  0  0
 14 13  1  0  0  0  0
 16 14  2  0  0  0  0
 16 12  1  0  0  0  0
 17 12  2  0  0  0  0
 17 18  1  0  0  0  0
 18  9  2  0  0  0  0
 20 19  1  0  0  0  0
 22 26  1  0  0  0  0
 23 22  2  0  0  0  0
 23 27  1  0  0  0  0
 24 25  1  0  0  0  0
 24 21  1  1  0  0  0
 25 20  1  1  0  0  0
 26 25  1  0  0  0  0
 27 24  1  0  0  0  0
 28 29  1  0  0  0  0
 29 23  1  0  0  0  0
 30 33  1  0  0  0  0
 31 32  2  0  0  0  0
 33 31  2  0  0  0  0
 34 40  1  0  0  0  0
 34 33  1  0  0  0  0
 35 39  1  0  0  0  0
 36 37  1  0  0  0  0
 38 35  2  0  0  0  0
 38 40  1  0  0  0  0
 39 37  2  0  0  0  0
 40 36  2  0  0  0  0
M  END
>  <MODEL>
6

>  <REMARK>
 VINA RESULT:      -7.7      2.616      6.777
  Name = 
  9 active torsions:
  status: ('A' for Active; 'I' for Inactive)
    1  A    between atoms: C_1  and  N_16
    2  A    between atoms: N_4  and  N_16
    3  A    between atoms: N_4  and  C_26
    4  A    between atoms: C_5  and  C_15
    5  A    between atoms: C_14  and  C_34
    6  A    between atoms: C_17  and  N_30
    7  A    between atoms: C_31  and  C_38
    8  A    between atoms: C_31  and  C_39
    9  A    between atoms: C_34  and  C_38
                            x       y       z     vdW  Elec       q    Type
                         _______ _______ _______ _____ _____    ______ ____

>  <TORSDO>
F 9

$$$$
=
 OpenBabel11042419433D

 40 44  0  0  1  0  0  0  0  0999 V2000
  190.5230  175.3480  142.3250 C   0  0  1  0  0  3  0  0  0  0  0  0
  191.4950  171.9870  141.2770 O   0  0  0  0  0  1  0  0  0  0  0  0
  190.7770  172.7280  142.2170 C   0  0  1  0  0  3  0  0  0  0  0  0
  191.6480  172.9660  143.4550 C   0  0  1  0  0  3  0  0  0  0  0  0
  191.2690  175.2160  143.6650 C   0  0  1  0  0  3  0  0  0  0  0  0
  191.0880  173.9560  144.2820 O   0  0  0  0  0  0  0  0  0  0  0  0
  190.3440  174.0320  141.6020 C   0  0  0  0  0  0  0  0  0  0  0  0
  189.8120  174.0270  140.5020 O   0  0  0  0  0  0  0  0  0  0  0  0
  192.7060  175.6510  143.6060 C   0  0  0  0  0  0  0  0  0  0  0  0
  195.5680  175.3840  141.3560 C   0  0  0  0  0  3  0  0  0  0  0  0
  194.7920  175.6980  142.4720 C   0  0  0  0  0  0  0  0  0  0  0  0
  195.3870  176.3730  143.5570 C   0  0  0  0  0  0  0  0  0  0  0  0
  196.9190  175.7390  141.3320 C   0  0  0  0  0  3  0  0  0  0  0  0
  197.4740  176.4050  142.4300 C   0  0  0  0  0  3  0  0  0  0  0  0
  193.4780  175.3560  142.5210 N   0  0  0  0  0  0  0  0  0  0  0  0
  196.7050  176.7060  143.5120 N   0  0  0  0  0  0  0  0  0  0  0  0
  194.6110  176.6830  144.6750 C   0  0  0  0  0  3  0  0  0  0  0  0
  193.2640  176.3180  144.7030 C   0  0  0  0  0  3  0  0  0  0  0  0
  189.2440  176.0380  142.5010 N   0  0  0  0  0  2  0  0  0  0  0  0
  189.4730  177.2680  143.1420 N   0  0  0  0  0  2  0  0  0  0  0  0
  189.6940  177.8670  145.8720 F   0  0  0  0  0  0  0  0  0  0  0  0
  185.9480  176.7880  144.3850 C   0  0  0  0  0  3  0  0  0  0  0  0
  186.0600  177.0890  145.6840 C   0  0  0  0  0  0  0  0  0  0  0  0
  188.5850  177.1780  145.4110 C   0  0  2  0  0  3  0  0  0  0  0  0
  188.3020  177.5440  143.9570 C   0  0  2  0  0  3  0  0  0  0  0  0
  187.1310  176.6980  143.4620 C   0  0  0  0  0  2  0  0  0  0  0  0
  187.3780  177.5310  146.2800 C   0  0  0  0  0  2  0  0  0  0  0  0
  184.4480  178.2960  147.2160 C   0  0  0  0  0  1  0  0  0  0  0  0
  184.8720  177.1180  146.4760 N   0  0  0  0  0  2  0  0  0  0  0  0
  191.8390  171.6880  144.2610 C   0  0  0  0  0  2  0  0  0  0  0  0
  193.5580  170.0200  144.6710 C   0  0  0  0  0  0  0  0  0  0  0  0
  193.8570  168.9220  145.1600 O   0  0  0  0  0  0  0  0  0  0  0  0
  193.2400  171.1790  144.1560 C   0  0  0  0  0  0  0  0  0  0  0  0
  194.2210  171.9050  143.2980 C   0  0  0  0  0  2  0  0  0  0  0  0
  197.5960  173.2310  144.3960 C   0  0  0  0  0  3  0  0  0  0  0  0
  194.9790  173.0980  145.3730 C   0  0  0  0  0  3  0  0  0  0  0  0
  195.9770  173.7140  146.1320 C   0  0  0  0  0  3  0  0  0  0  0  0
  196.5990  172.6140  143.6350 C   0  0  0  0  0  3  0  0  0  0  0  0
  197.2860  173.7790  145.6450 C   0  0  0  0  0  3  0  0  0  0  0  0
  195.2880  172.5440  144.1240 C   0  0  0  0  0  0  0  0  0  0  0  0
  1 19  1  1  0  0  0
  1  5  1  0  0  0  0
  3  2  1  6  0  0  0
  3  4  1  0  0  0  0
  4 30  1  1  0  0  0
  4  6  1  0  0  0  0
  5  9  1  6  0  0  0
  5  6  1  0  0  0  0
  7  3  1  0  0  0  0
  7  1  1  0  0  0  0
  8  7  2  0  0  0  0
  9 18  1  0  0  0  0
 10 11  1  0  0  0  0
 11 15  1  0  0  0  0
 11 12  2  0  0  0  0
 12 17  1  0  0  0  0
 13 10  2  0  0  0  0
 13 14  1  0  0  0  0
 14 16  2  0  0  0  0
 15  9  2  0  0  0  0
 16 12  1  0  0  0  0
 17 18  2  0  0  0  0
 19 20  1  0  0  0  0
 22 23  2  0  0  0  0
 23 27  1  0  0  0  0
 23 29  1  0  0  0  0
 24 21  1  1  0  0  0
 24 27  1  0  0  0  0
 25 20  1  6  0  0  0
 25 24  1  0  0  0  0
 26 25  1  0  0  0  0
 26 22  1  0  0  0  0
 29 28  1  0  0  0  0
 31 32  2  0  0  0  0
 33 30  1  0  0  0  0
 33 31  2  0  0  0  0
 34 40  1  0  0  0  0
 34 33  1  0  0  0  0
 35 39  1  0  0  0  0
 36 37  1  0  0  0  0
 38 40  1  0  0  0  0
 38 35  2  0  0  0  0
 39 37  2  0  0  0  0
 40 36  2  0  0  0  0
M  END
>  <MODEL>
7

>  <REMARK>
 VINA RESULT:      -7.6      2.960      5.017
  Name = 
  9 active torsions:
  status: ('A' for Active; 'I' for Inactive)
    1  A    between atoms: C_1  and  N_16
    2  A    between atoms: N_4  and  N_16
    3  A    between atoms: N_4  and  C_26
    4  A    between atoms: C_5  and  C_15
    5  A    between atoms: C_14  and  C_34
    6  A    between atoms: C_17  and  N_30
    7  A    between atoms: C_31  and  C_38
    8  A    between atoms: C_31  and  C_39
    9  A    between atoms: C_34  and  C_38
                            x       y       z     vdW  Elec       q    Type
                         _______ _______ _______ _____ _____    ______ ____

>  <TORSDO>
F 9

$$$$
=
 OpenBabel11042419433D

 40 44  0  0  1  0  0  0  0  0999 V2000
  193.7780  174.2630  144.3860 C   0  0  1  0  0  3  0  0  0  0  0  0
  192.6650  177.7410  144.3350 O   0  0  0  0  0  1  0  0  0  0  0  0
  193.0230  176.6680  145.1520 C   0  0  1  0  0  3  0  0  0  0  0  0
  191.7640  175.9120  145.5870 C   0  0  1  0  0  3  0  0  0  0  0  0
  192.4970  173.7960  145.1010 C   0  0  1  0  0  3  0  0  0  0  0  0
  192.0940  174.6630  146.1440 O   0  0  0  0  0  0  0  0  0  0  0  0
  193.9660  175.7640  144.4040 C   0  0  0  0  0  0  0  0  0  0  0  0
  194.9220  176.2480  143.8190 O   0  0  0  0  0  0  0  0  0  0  0  0
  191.3810  173.4240  144.1680 C   0  0  0  0  0  0  0  0  0  0  0  0
  190.4550  173.8900  140.6680 C   0  0  0  0  0  3  0  0  0  0  0  0
  190.3980  173.5040  142.0080 C   0  0  0  0  0  0  0  0  0  0  0  0
  189.2620  172.8170  142.4790 C   0  0  0  0  0  0  0  0  0  0  0  0
  189.3860  173.5920  139.8180 C   0  0  0  0  0  3  0  0  0  0  0  0
  188.2740  172.9120  140.3240 C   0  0  0  0  0  3  0  0  0  0  0  0
  191.4220  173.7890  142.8540 N   0  0  0  0  0  0  0  0  0  0  0  0
  188.2330  172.5410  141.6330 N   0  0  0  0  0  0  0  0  0  0  0  0
  189.2030  172.4350  143.8210 C   0  0  0  0  0  3  0  0  0  0  0  0
  190.2670  172.7420  144.6710 C   0  0  0  0  0  3  0  0  0  0  0  0
  194.9560  173.5710  144.9100 N   0  0  0  0  0  2  0  0  0  0  0  0
  195.5320  172.8060  143.8800 N   0  0  0  0  0  2  0  0  0  0  0  0
  193.5770  170.7970  143.9110 F   0  0  0  0  0  0  0  0  0  0  0  0
  196.9310  170.3240  146.3470 C   0  0  0  0  0  3  0  0  0  0  0  0
  195.9990  169.3640  146.3450 C   0  0  0  0  0  0  0  0  0  0  0  0
  194.5070  170.8620  144.9340 C   0  0  2  0  0  3  0  0  0  0  0  0
  195.8040  171.4890  144.4320 C   0  0  2  0  0  3  0  0  0  0  0  0
  196.7670  171.6240  145.6090 C   0  0  0  0  0  2  0  0  0  0  0  0
  194.7800  169.4500  145.4540 C   0  0  0  0  0  2  0  0  0  0  0  0
  197.0880  168.1690  148.2910 C   0  0  0  0  0  1  0  0  0  0  0  0
  196.2460  168.1810  147.1060 N   0  0  0  0  0  2  0  0  0  0  0  0
  190.9490  176.7110  146.5950 C   0  0  0  0  0  2  0  0  0  0  0  0
  189.0670  175.2880  147.1760 C   0  0  0  0  0  0  0  0  0  0  0  0
  188.6580  174.2860  147.7760 O   0  0  0  0  0  0  0  0  0  0  0  0
  189.5020  176.3460  146.5420 C   0  0  0  0  0  0  0  0  0  0  0  0
  188.5290  177.2970  145.9280 C   0  0  0  0  0  2  0  0  0  0  0  0
  187.2970  175.9510  142.6070 C   0  0  0  0  0  3  0  0  0  0  0  0
  189.2160  177.7510  143.5570 C   0  0  0  0  0  3  0  0  0  0  0  0
  189.0750  177.5410  142.1820 C   0  0  0  0  0  3  0  0  0  0  0  0
  187.4370  176.1610  143.9820 C   0  0  0  0  0  3  0  0  0  0  0  0
  188.1170  176.6400  141.7070 C   0  0  0  0  0  3  0  0  0  0  0  0
  188.3990  177.0590  144.4600 C   0  0  0  0  0  0  0  0  0  0  0  0
  1  7  1  0  0  0  0
  1 19  1  1  0  0  0
  1  5  1  0  0  0  0
  3  2  1  6  0  0  0
  3  4  1  0  0  0  0
  4  6  1  0  0  0  0
  4 30  1  1  0  0  0
  5  9  1  6  0  0  0
  5  6  1  0  0  0  0
  7  3  1  0  0  0  0
  8  7  2  0  0  0  0
  9 18  1  0  0  0  0
 10 11  1  0  0  0  0
 11 12  2  0  0  0  0
 11 15  1  0  0  0  0
 12 17  1  0  0  0  0
 13 14  1  0  0  0  0
 13 10  2  0  0  0  0
 14 16  2  0  0  0  0
 15  9  2  0  0  0  0
 16 12  1  0  0  0  0
 17 18  2  0  0  0  0
 20 19  1  0  0  0  0
 23 22  2  0  0  0  0
 23 29  1  0  0  0  0
 24 21  1  6  0  0  0
 24 27  1  0  0  0  0
 25 20  1  1  0  0  0
 25 24  1  0  0  0  0
 25 26  1  0  0  0  0
 26 22  1  0  0  0  0
 27 23  1  0  0  0  0
 29 28  1  0  0  0  0
 31 32  2  0  0  0  0
 33 30  1  0  0  0  0
 33 31  2  0  0  0  0
 34 33  1  0  0  0  0
 35 38  1  0  0  0  0
 36 40  1  0  0  0  0
 37 36  2  0  0  0  0
 38 40  2  0  0  0  0
 39 37  1  0  0  0  0
 39 35  2  0  0  0  0
 40 34  1  0  0  0  0
M  END
>  <MODEL>
8

>  <REMARK>
 VINA RESULT:      -7.6      3.608      8.834
  Name = 
  9 active torsions:
  status: ('A' for Active; 'I' for Inactive)
    1  A    between atoms: C_1  and  N_16
    2  A    between atoms: N_4  and  N_16
    3  A    between atoms: N_4  and  C_26
    4  A    between atoms: C_5  and  C_15
    5  A    between atoms: C_14  and  C_34
    6  A    between atoms: C_17  and  N_30
    7  A    between atoms: C_31  and  C_38
    8  A    between atoms: C_31  and  C_39
    9  A    between atoms: C_34  and  C_38
                            x       y       z     vdW  Elec       q    Type
                         _______ _______ _______ _____ _____    ______ ____

>  <TORSDO>
F 9

$$$$
=
 OpenBabel11042419433D

 40 44  0  0  1  0  0  0  0  0999 V2000
  192.6730  174.6510  144.7950 C   0  0  1  0  0  3  0  0  0  0  0  0
  191.8410  178.0320  143.6920 O   0  0  0  0  0  1  0  0  0  0  0  0
  191.6940  177.0950  144.7170 C   0  0  1  0  0  3  0  0  0  0  0  0
  190.3730  176.3420  144.5360 C   0  0  1  0  0  3  0  0  0  0  0  0
  191.1950  174.2190  144.8000 C   0  0  1  0  0  3  0  0  0  0  0  0
  190.3320  175.1950  145.3510 O   0  0  0  0  0  0  0  0  0  0  0  0
  192.8640  176.1480  144.7000 C   0  0  0  0  0  0  0  0  0  0  0  0
  193.9980  176.5980  144.6330 O   0  0  0  0  0  0  0  0  0  0  0  0
  190.7180  173.6720  143.4850 C   0  0  0  0  0  0  0  0  0  0  0  0
  191.8530  173.4550  140.0230 C   0  0  0  0  0  3  0  0  0  0  0  0
  191.0520  173.3340  141.1580 C   0  0  0  0  0  0  0  0  0  0  0  0
  189.7770  172.7460  141.0420 C   0  0  0  0  0  0  0  0  0  0  0  0
  191.3790  172.9970  138.7900 C   0  0  0  0  0  3  0  0  0  0  0  0
  190.1050  172.4240  138.7150 C   0  0  0  0  0  3  0  0  0  0  0  0
  191.4890  173.7790  142.3650 N   0  0  0  0  0  0  0  0  0  0  0  0
  189.3350  172.3100  139.8310 N   0  0  0  0  0  0  0  0  0  0  0  0
  188.9730  172.6290  142.1780 C   0  0  0  0  0  3  0  0  0  0  0  0
  189.4440  173.0960  143.4060 C   0  0  0  0  0  3  0  0  0  0  0  0
  193.3880  174.0930  145.9430 N   0  0  0  0  0  2  0  0  0  0  0  0
  194.0340  172.9080  145.5480 N   0  0  0  0  0  2  0  0  0  0  0  0
  193.6190  171.6410  143.0820 F   0  0  0  0  0  0  0  0  0  0  0  0
  197.1880  173.7260  143.6540 C   0  0  0  0  0  3  0  0  0  0  0  0
  196.9760  173.1300  142.4760 C   0  0  0  0  0  0  0  0  0  0  0  0
  194.8970  172.0320  143.4430 C   0  0  2  0  0  3  0  0  0  0  0  0
  194.8370  173.2340  144.3820 C   0  0  2  0  0  3  0  0  0  0  0  0
  196.2580  173.5750  144.8260 C   0  0  0  0  0  2  0  0  0  0  0  0
  195.6860  172.3950  142.1850 C   0  0  0  0  0  2  0  0  0  0  0  0
  197.6610  174.0790  140.2330 C   0  0  0  0  0  1  0  0  0  0  0  0
  197.9400  173.3170  141.4400 N   0  0  0  0  0  2  0  0  0  0  0  0
  189.1740  177.2260  144.8540 C   0  0  0  0  0  2  0  0  0  0  0  0
  188.5390  177.8280  142.5870 C   0  0  0  0  0  0  0  0  0  0  0  0
  188.8570  178.3640  141.5170 O   0  0  0  0  0  0  0  0  0  0  0  0
  188.2050  177.2630  143.7180 C   0  0  0  0  0  0  0  0  0  0  0  0
  186.9340  176.4870  143.8140 C   0  0  0  0  0  2  0  0  0  0  0  0
  184.6870  177.5240  146.6830 C   0  0  0  0  0  3  0  0  0  0  0  0
  185.2570  178.3370  144.0680 C   0  0  0  0  0  3  0  0  0  0  0  0
  184.3170  179.0390  144.8280 C   0  0  0  0  0  3  0  0  0  0  0  0
  185.6280  176.8220  145.9230 C   0  0  0  0  0  3  0  0  0  0  0  0
  184.0310  178.6310  146.1350 C   0  0  0  0  0  3  0  0  0  0  0  0
  185.9120  177.2250  144.6130 C   0  0  0  0  0  0  0  0  0  0  0  0
  1  5  1  0  0  0  0
  1 19  1  1  0  0  0
  3  2  1  6  0  0  0
  4  3  1  0  0  0  0
  4 30  1  1  0  0  0
  4  6  1  0  0  0  0
  5  9  1  6  0  0  0
  5  6  1  0  0  0  0
  7  3  1  0  0  0  0
  7  1  1  0  0  0  0
  8  7  2  0  0  0  0
 10 11  1  0  0  0  0
 11 15  1  0  0  0  0
 12 11  2  0  0  0  0
 12 17  1  0  0  0  0
 13 10  2  0  0  0  0
 14 13  1  0  0  0  0
 14 16  2  0  0  0  0
 15  9  2  0  0  0  0
 16 12  1  0  0  0  0
 17 18  2  0  0  0  0
 18  9  1  0  0  0  0
 20 19  1  0  0  0  0
 22 26  1  0  0  0  0
 23 22  2  0  0  0  0
 24 21  1  6  0  0  0
 24 25  1  0  0  0  0
 25 26  1  0  0  0  0
 25 20  1  1  0  0  0
 27 23  1  0  0  0  0
 27 24  1  0  0  0  0
 28 29  1  0  0  0  0
 29 23  1  0  0  0  0
 31 33  2  0  0  0  0
 32 31  2  0  0  0  0
 33 34  1  0  0  0  0
 33 30  1  0  0  0  0
 34 40  1  0  0  0  0
 36 40  2  0  0  0  0
 36 37  1  0  0  0  0
 37 39  2  0  0  0  0
 38 35  2  0  0  0  0
 39 35  1  0  0  0  0
 40 38  1  0  0  0  0
M  END
>  <MODEL>
9

>  <REMARK>
 VINA RESULT:      -7.5      3.401      8.764
  Name = 
  9 active torsions:
  status: ('A' for Active; 'I' for Inactive)
    1  A    between atoms: C_1  and  N_16
    2  A    between atoms: N_4  and  N_16
    3  A    between atoms: N_4  and  C_26
    4  A    between atoms: C_5  and  C_15
    5  A    between atoms: C_14  and  C_34
    6  A    between atoms: C_17  and  N_30
    7  A    between atoms: C_31  and  C_38
    8  A    between atoms: C_31  and  C_39
    9  A    between atoms: C_34  and  C_38
                            x       y       z     vdW  Elec       q    Type
                         _______ _______ _______ _____ _____    ______ ____

>  <TORSDO>
F 9

$$$$
