=
 OpenBabel11042419273D

 40 45  0  0  1  0  0  0  0  0999 V2000
  186.7060  175.5250  143.0000 C   0  0  0  0  0  2  0  0  0  0  0  0
  190.8640  176.0730  143.6290 C   0  0  1  0  0  0  0  0  0  0  0  0
  187.4330  177.5380  145.7550 C   0  0  0  0  0  2  0  0  0  0  0  0
  193.9260  173.5570  140.6230 C   0  0  0  0  0  2  0  0  0  0  0  0
  193.1280  175.3280  144.4320 C   0  0  0  0  0  0  0  0  0  0  0  0
  189.5200  177.6690  145.0470 C   0  0  0  0  0  2  0  0  0  0  0  0
  190.3240  177.5030  143.7640 C   0  0  1  0  0  3  0  0  0  0  0  0
  189.0070  175.7150  141.9320 C   0  0  0  0  0  2  0  0  0  0  0  0
  192.4350  174.7720  142.1730 C   0  0  1  0  0  3  0  0  0  0  0  0
  191.7010  175.5230  144.8190 C   0  0  2  0  0  3  0  0  0  0  0  0
  186.3220  176.9200  142.5890 C   0  0  0  0  0  0  0  0  0  0  0  0
  190.1830  175.1320  142.7140 C   0  0  1  0  0  3  0  0  0  0  0  0
  195.3320  175.2260  144.4050 C   0  0  0  0  0  0  0  0  0  0  0  0
  193.4730  175.0020  143.1810 N   0  0  0  0  0  0  0  0  0  0  0  0
  195.6930  174.6230  141.9910 C   0  0  0  0  0  3  0  0  0  0  0  0
  186.0800  177.1590  141.3720 O   0  0  0  0  0  0  0  0  0  0  0  0
  191.4070  175.8180  142.2590 N   0  0  1  0  0  0  0  0  0  0  0  0
  186.2090  177.9740  143.5610 N   0  0  0  0  0  0  0  0  0  0  0  0
  195.3200  174.0470  140.8450 C   0  0  0  0  0  0  0  0  0  0  0  0
  194.8300  174.9190  143.1520 C   0  0  0  0  0  0  0  0  0  0  0  0
  191.1210  174.2470  145.4040 C   0  0  0  0  0  1  0  0  0  0  0  0
  194.2440  175.4750  145.2310 C   0  0  0  0  0  0  0  0  0  0  0  0
  192.9640  174.7140  140.7510 C   0  0  0  0  0  2  0  0  0  0  0  0
  186.1720  177.6990  144.9660 C   0  0  0  0  0  0  0  0  0  0  0  0
  188.3910  176.8520  145.0120 O   0  0  0  0  0  0  0  0  0  0  0  0
  187.9530  173.5670  142.3800 O   0  0  0  0  0  1  0  0  0  0  0  0
  187.7130  174.9000  142.0350 C   0  0  1  0  0  3  0  0  0  0  0  0
  185.0700  177.7140  145.5750 O   0  0  0  0  0  0  0  0  0  0  0  0
  191.3800  178.4150  143.7610 O   0  0  0  0  0  1  0  0  0  0  0  0
  194.2590  175.9460  146.6480 C   0  0  0  0  0  2  0  0  0  0  0  0
  194.4900  177.3200  146.6770 O   0  0  0  0  0  1  0  0  0  0  0  0
  185.9420  179.3380  143.1250 C   0  0  0  0  0  2  0  0  0  0  0  0
  185.5770  180.1220  144.2190 O   0  0  0  0  0  1  0  0  0  0  0  0
  196.2960  173.9120  139.8090 N   0  0  0  0  0  2  0  0  0  0  0  0
  197.9380  175.5750  139.1720 C   0  0  0  0  0  2  0  0  0  0  0  0
  197.7910  174.5960  138.0300 C   0  0  0  0  0  2  0  0  0  0  0  0
  196.5810  174.9770  138.8620 C   0  0  0  0  0  3  0  0  0  0  0  0
  196.6930  175.2690  144.7300 O   0  0  0  0  0  0  0  0  0  0  0  0
  197.0080  173.4300  146.2510 C   0  0  0  0  0  1  0  0  0  0  0  0
  197.4750  174.1080  144.9790 C   0  0  0  0  0  2  0  0  0  0  0  0
  2  7  1  0  0  0  0
  2 10  1  0  0  0  0
  4 23  1  0  0  0  0
  4 19  1  0  0  0  0
  5 10  1  0  0  0  0
  5 22  2  0  0  0  0
  7  6  1  0  0  0  0
  8 27  1  0  0  0  0
  8 12  1  0  0  0  0
  9 17  1  0  0  0  0
  9 14  1  0  0  0  0
 10 21  1  0  0  0  0
 11  1  1  0  0  0  0
 11 18  1  0  0  0  0
 12  2  1  0  0  0  0
 13 38  1  0  0  0  0
 13 22  1  0  0  0  0
 14  5  1  0  0  0  0
 15 20  1  0  0  0  0
 16 11  2  0  0  0  0
 17 12  1  0  0  0  0
 17  2  1  0  0  0  0
 18 24  1  0  0  0  0
 19 15  2  0  0  0  0
 20 14  1  0  0  0  0
 20 13  2  0  0  0  0
 22 30  1  0  0  0  0
 23  9  1  0  0  0  0
 24 28  2  0  0  0  0
 24  3  1  0  0  0  0
 25  6  1  0  0  0  0
 25  3  1  0  0  0  0
 27 26  1  0  0  0  0
 27  1  1  0  0  0  0
 29  7  1  0  0  0  0
 30 31  1  0  0  0  0
 32 18  1  0  0  0  0
 32 33  1  0  0  0  0
 34 19  1  0  0  0  0
 36 37  1  0  0  0  0
 36 35  1  0  0  0  0
 37 35  1  0  0  0  0
 37 34  1  0  0  0  0
 38 40  1  0  0  0  0
 40 39  1  0  0  0  0
M  END
>  <MODEL>
1

>  <REMARK>
 VINA RESULT:      -8.0      0.000      0.000
  Name = 
  6 active torsions:
  status: ('A' for Active; 'I' for Inactive)
    1  A    between atoms: N_5  and  C_24
    2  A    between atoms: N_5  and  C_36
    3  A    between atoms: C_15  and  O_29
    4  A    between atoms: C_18  and  C_31
    5  A    between atoms: N_23  and  C_27
    6  A    between atoms: C_25  and  O_29
                            x       y       z     vdW  Elec       q    Type
                         _______ _______ _______ _____ _____    ______ ____

>  <TORSDO>
F 6

$$$$
=
 OpenBabel11042419273D

 40 45  0  0  1  0  0  0  0  0999 V2000
  195.6500  172.8230  144.4470 C   0  0  0  0  0  2  0  0  0  0  0  0
  192.0790  174.8100  143.3140 C   0  0  1  0  0  0  0  0  0  0  0  0
  195.4890  173.5370  141.0360 C   0  0  0  0  0  2  0  0  0  0  0  0
  188.6680  175.4740  146.8730 C   0  0  0  0  0  2  0  0  0  0  0  0
  189.6280  174.8720  142.7500 C   0  0  0  0  0  0  0  0  0  0  0  0
  193.7720  174.8640  141.4440 C   0  0  0  0  0  2  0  0  0  0  0  0
  193.1530  175.6400  142.5990 C   0  0  1  0  0  3  0  0  0  0  0  0
  193.8140  174.4450  145.1330 C   0  0  0  0  0  2  0  0  0  0  0  0
  190.3130  175.1050  145.0670 C   0  0  1  0  0  3  0  0  0  0  0  0
  190.9360  174.2310  142.4310 C   0  0  2  0  0  3  0  0  0  0  0  0
  196.6420  173.9300  144.2220 C   0  0  0  0  0  0  0  0  0  0  0  0
  192.4100  174.1650  144.6030 C   0  0  1  0  0  3  0  0  0  0  0  0
  187.6160  175.7710  142.6460 C   0  0  0  0  0  0  0  0  0  0  0  0
  189.3480  175.3070  143.9840 N   0  0  0  0  0  0  0  0  0  0  0  0
  187.3590  176.4980  145.0390 C   0  0  0  0  0  3  0  0  0  0  0  0
  197.1230  174.5370  145.2210 O   0  0  0  0  0  0  0  0  0  0  0  0
  191.6670  175.4400  144.6060 N   0  0  1  0  0  0  0  0  0  0  0  0
  197.0630  174.2900  142.8950 N   0  0  0  0  0  0  0  0  0  0  0  0
  187.6000  176.3760  146.3460 C   0  0  0  0  0  0  0  0  0  0  0  0
  188.1020  175.8510  143.9390 C   0  0  0  0  0  0  0  0  0  0  0  0
  190.8340  172.7180  142.5230 C   0  0  0  0  0  1  0  0  0  0  0  0
  188.5860  175.1330  141.8840 C   0  0  0  0  0  0  0  0  0  0  0  0
  190.0050  175.9060  146.3190 C   0  0  0  0  0  2  0  0  0  0  0  0
  196.7910  173.4500  141.7670 C   0  0  0  0  0  0  0  0  0  0  0  0
  194.4390  173.7390  141.9290 O   0  0  0  0  0  0  0  0  0  0  0  0
  193.7820  172.0970  145.7740 O   0  0  0  0  0  1  0  0  0  0  0  0
  194.6120  173.1900  145.5060 C   0  0  1  0  0  3  0  0  0  0  0  0
  197.7020  172.7150  141.3040 O   0  0  0  0  0  0  0  0  0  0  0  0
  192.5970  176.8240  142.1130 O   0  0  0  0  0  1  0  0  0  0  0  0
  188.5840  174.8980  140.4090 C   0  0  0  0  0  2  0  0  0  0  0  0
  188.2470  173.5710  140.1530 O   0  0  0  0  0  1  0  0  0  0  0  0
  197.9410  175.4350  142.6970 C   0  0  0  0  0  2  0  0  0  0  0  0
  197.1850  176.6030  142.6100 O   0  0  0  0  0  1  0  0  0  0  0  0
  186.8080  177.1460  147.2540 N   0  0  0  0  0  2  0  0  0  0  0  0
  184.6350  177.9230  146.5140 C   0  0  0  0  0  2  0  0  0  0  0  0
  184.9520  178.5920  147.8320 C   0  0  0  0  0  2  0  0  0  0  0  0
  186.0610  178.3210  146.8340 C   0  0  0  0  0  3  0  0  0  0  0  0
  186.3740  176.2630  142.2290 O   0  0  0  0  0  0  0  0  0  0  0  0
  185.9790  178.6260  142.4550 C   0  0  0  0  0  1  0  0  0  0  0  0
  186.2150  177.4730  141.5020 C   0  0  0  0  0  2  0  0  0  0  0  0
  1 27  1  0  0  0  0
  2 12  1  0  0  0  0
  2 17  1  0  0  0  0
  3 24  1  0  0  0  0
  3 25  1  0  0  0  0
  5 14  1  0  0  0  0
  6 25  1  0  0  0  0
  6  7  1  0  0  0  0
  7  2  1  0  0  0  0
  8 27  1  0  0  0  0
  9 23  1  0  0  0  0
 10 21  1  0  0  0  0
 10  5  1  0  0  0  0
 10  2  1  0  0  0  0
 11  1  1  0  0  0  0
 11 16  2  0  0  0  0
 12 17  1  0  0  0  0
 12  8  1  0  0  0  0
 13 20  2  0  0  0  0
 14  9  1  0  0  0  0
 15 19  2  0  0  0  0
 17  9  1  0  0  0  0
 18 11  1  0  0  0  0
 19  4  1  0  0  0  0
 19 34  1  0  0  0  0
 20 14  1  0  0  0  0
 20 15  1  0  0  0  0
 22 13  1  0  0  0  0
 22  5  2  0  0  0  0
 23  4  1  0  0  0  0
 24 18  1  0  0  0  0
 27 26  1  0  0  0  0
 28 24  2  0  0  0  0
 29  7  1  0  0  0  0
 30 22  1  0  0  0  0
 31 30  1  0  0  0  0
 32 18  1  0  0  0  0
 33 32  1  0  0  0  0
 35 37  1  0  0  0  0
 35 36  1  0  0  0  0
 37 34  1  0  0  0  0
 37 36  1  0  0  0  0
 38 13  1  0  0  0  0
 40 38  1  0  0  0  0
 40 39  1  0  0  0  0
M  END
>  <MODEL>
2

>  <REMARK>
 VINA RESULT:      -7.9      2.274      9.318
  Name = 
  6 active torsions:
  status: ('A' for Active; 'I' for Inactive)
    1  A    between atoms: N_5  and  C_24
    2  A    between atoms: N_5  and  C_36
    3  A    between atoms: C_15  and  O_29
    4  A    between atoms: C_18  and  C_31
    5  A    between atoms: N_23  and  C_27
    6  A    between atoms: C_25  and  O_29
                            x       y       z     vdW  Elec       q    Type
                         _______ _______ _______ _____ _____    ______ ____

>  <TORSDO>
F 6

$$$$
=
 OpenBabel11042419273D

 40 45  0  0  1  0  0  0  0  0999 V2000
  195.6720  174.3230  141.3930 C   0  0  0  0  0  2  0  0  0  0  0  0
  192.2820  174.9910  143.8530 C   0  0  1  0  0  0  0  0  0  0  0  0
  195.9000  172.7730  144.5100 C   0  0  0  0  0  2  0  0  0  0  0  0
  188.7970  178.0580  142.0650 C   0  0  0  0  0  2  0  0  0  0  0  0
  190.8770  176.3840  145.4060 C   0  0  0  0  0  0  0  0  0  0  0  0
  193.7510  173.1800  144.8150 C   0  0  0  0  0  2  0  0  0  0  0  0
  192.4990  173.4800  144.0020 C   0  0  1  0  0  3  0  0  0  0  0  0
  193.1590  174.7110  141.4850 C   0  0  0  0  0  2  0  0  0  0  0  0
  190.5370  176.5800  143.0100 C   0  0  1  0  0  3  0  0  0  0  0  0
  192.2390  175.8270  145.1640 C   0  0  2  0  0  3  0  0  0  0  0  0
  195.5070  172.8530  141.1220 C   0  0  0  0  0  0  0  0  0  0  0  0
  192.6430  175.6450  142.5760 C   0  0  1  0  0  3  0  0  0  0  0  0
  188.9970  177.0920  146.3190 C   0  0  0  0  0  0  0  0  0  0  0  0
  190.0670  176.7120  144.3910 N   0  0  0  0  0  0  0  0  0  0  0  0
  187.6910  177.6140  144.2350 C   0  0  0  0  0  3  0  0  0  0  0  0
  195.0950  172.4790  139.9880 O   0  0  0  0  0  0  0  0  0  0  0  0
  191.2320  175.2970  142.8330 N   0  0  1  0  0  0  0  0  0  0  0  0
  195.8300  171.8740  142.1260 N   0  0  0  0  0  0  0  0  0  0  0  0
  187.6000  177.9880  142.9570 C   0  0  0  0  0  0  0  0  0  0  0  0
  188.9090  177.1650  144.9400 C   0  0  0  0  0  0  0  0  0  0  0  0
  193.2860  176.9270  145.1920 C   0  0  0  0  0  1  0  0  0  0  0  0
  190.2620  176.6040  146.6210 C   0  0  0  0  0  0  0  0  0  0  0  0
  189.4320  176.6900  141.9750 C   0  0  0  0  0  2  0  0  0  0  0  0
  196.5780  172.2190  143.2970 C   0  0  0  0  0  0  0  0  0  0  0  0
  194.8800  173.6480  144.1440 O   0  0  0  0  0  0  0  0  0  0  0  0
  194.7370  176.5060  141.0250 O   0  0  0  0  0  1  0  0  0  0  0  0
  194.4930  175.1390  140.8640 C   0  0  1  0  0  3  0  0  0  0  0  0
  197.8030  171.9380  143.3600 O   0  0  0  0  0  0  0  0  0  0  0  0
  191.3940  172.8980  144.6260 O   0  0  0  0  0  1  0  0  0  0  0  0
  190.8090  176.2480  147.9640 C   0  0  0  0  0  2  0  0  0  0  0  0
  191.3640  177.3820  148.5530 O   0  0  0  0  0  1  0  0  0  0  0  0
  195.5610  170.4650  141.8770 C   0  0  0  0  0  2  0  0  0  0  0  0
  194.4500  170.0570  142.6150 O   0  0  0  0  0  1  0  0  0  0  0  0
  186.3080  178.3210  142.4410 N   0  0  0  0  0  2  0  0  0  0  0  0
  184.1690  178.6510  143.5290 C   0  0  0  0  0  2  0  0  0  0  0  0
  183.9120  178.2010  142.1100 C   0  0  0  0  0  2  0  0  0  0  0  0
  185.0960  177.6470  142.8770 C   0  0  0  0  0  3  0  0  0  0  0  0
  187.9730  177.4480  147.2040 O   0  0  0  0  0  0  0  0  0  0  0  0
  185.5700  177.5720  147.2380 C   0  0  0  0  0  1  0  0  0  0  0  0
  186.7880  176.6840  147.3780 C   0  0  0  0  0  2  0  0  0  0  0  0
  2  7  1  0  0  0  0
  2 10  1  0  0  0  0
  4 19  1  0  0  0  0
  5 22  2  0  0  0  0
  7 29  1  0  0  0  0
  7  6  1  0  0  0  0
  8 12  1  0  0  0  0
  9 14  1  0  0  0  0
 10 21  1  0  0  0  0
 10  5  1  0  0  0  0
 11  1  1  0  0  0  0
 11 18  1  0  0  0  0
 12 17  1  0  0  0  0
 12  2  1  0  0  0  0
 13 22  1  0  0  0  0
 13 38  1  0  0  0  0
 14 20  1  0  0  0  0
 14  5  1  0  0  0  0
 15 20  1  0  0  0  0
 16 11  2  0  0  0  0
 17  9  1  0  0  0  0
 17  2  1  0  0  0  0
 18 24  1  0  0  0  0
 19 15  2  0  0  0  0
 20 13  2  0  0  0  0
 22 30  1  0  0  0  0
 23  4  1  0  0  0  0
 23  9  1  0  0  0  0
 24 28  2  0  0  0  0
 24  3  1  0  0  0  0
 25  3  1  0  0  0  0
 25  6  1  0  0  0  0
 27 26  1  0  0  0  0
 27  1  1  0  0  0  0
 27  8  1  0  0  0  0
 30 31  1  0  0  0  0
 32 18  1  0  0  0  0
 32 33  1  0  0  0  0
 34 37  1  0  0  0  0
 34 19  1  0  0  0  0
 36 37  1  0  0  0  0
 36 35  1  0  0  0  0
 37 35  1  0  0  0  0
 38 40  1  0  0  0  0
 39 40  1  0  0  0  0
M  END
>  <MODEL>
3

>  <REMARK>
 VINA RESULT:      -7.6      2.561      8.633
  Name = 
  6 active torsions:
  status: ('A' for Active; 'I' for Inactive)
    1  A    between atoms: N_5  and  C_24
    2  A    between atoms: N_5  and  C_36
    3  A    between atoms: C_15  and  O_29
    4  A    between atoms: C_18  and  C_31
    5  A    between atoms: N_23  and  C_27
    6  A    between atoms: C_25  and  O_29
                            x       y       z     vdW  Elec       q    Type
                         _______ _______ _______ _____ _____    ______ ____

>  <TORSDO>
F 6

$$$$
=
 OpenBabel11042419273D

 40 45  0  0  1  0  0  0  0  0999 V2000
  193.3960  172.0750  140.6930 C   0  0  0  0  0  2  0  0  0  0  0  0
  190.4330  173.7730  143.2060 C   0  0  1  0  0  0  0  0  0  0  0  0
  193.3530  170.7020  143.8990 C   0  0  0  0  0  2  0  0  0  0  0  0
  187.8130  177.5600  141.3240 C   0  0  0  0  0  2  0  0  0  0  0  0
  189.5300  175.5810  144.7040 C   0  0  0  0  0  0  0  0  0  0  0  0
  191.4090  171.6910  144.2430 C   0  0  0  0  0  2  0  0  0  0  0  0
  190.2440  172.2710  143.4520 C   0  0  1  0  0  3  0  0  0  0  0  0
  191.0860  173.1320  140.8370 C   0  0  0  0  0  2  0  0  0  0  0  0
  189.1380  175.7240  142.3120 C   0  0  1  0  0  3  0  0  0  0  0  0
  190.6790  174.6640  144.4580 C   0  0  2  0  0  3  0  0  0  0  0  0
  192.8310  170.6910  140.5280 C   0  0  0  0  0  0  0  0  0  0  0  0
  190.8930  174.2320  141.8770 C   0  0  1  0  0  3  0  0  0  0  0  0
  187.9540  176.8220  145.6250 C   0  0  0  0  0  0  0  0  0  0  0  0
  188.7890  176.0570  143.6960 N   0  0  0  0  0  0  0  0  0  0  0  0
  186.7360  177.5570  143.5530 C   0  0  0  0  0  3  0  0  0  0  0  0
  192.2790  170.3780  139.4350 O   0  0  0  0  0  0  0  0  0  0  0  0
  189.4550  174.2940  142.2010 N   0  0  1  0  0  0  0  0  0  0  0  0
  192.9280  169.7210  141.5850 N   0  0  0  0  0  0  0  0  0  0  0  0
  186.6860  177.8680  142.2550 C   0  0  0  0  0  0  0  0  0  0  0  0
  187.8220  176.8370  144.2480 C   0  0  0  0  0  0  0  0  0  0  0  0
  191.9830  175.4400  144.3780 C   0  0  0  0  0  1  0  0  0  0  0  0
  189.0550  176.0280  145.9200 C   0  0  0  0  0  0  0  0  0  0  0  0
  188.0540  176.0690  141.3070 C   0  0  0  0  0  2  0  0  0  0  0  0
  193.7970  169.9170  142.7070 C   0  0  0  0  0  0  0  0  0  0  0  0
  192.5880  171.7980  143.5060 O   0  0  0  0  0  0  0  0  0  0  0  0
  193.0630  174.4050  140.2060 O   0  0  0  0  0  1  0  0  0  0  0  0
  192.4550  173.1470  140.1460 C   0  0  1  0  0  3  0  0  0  0  0  0
  194.9050  169.3190  142.7490 O   0  0  0  0  0  0  0  0  0  0  0  0
  189.0560  172.0460  144.1480 O   0  0  0  0  0  1  0  0  0  0  0  0
  189.5520  175.6160  147.2670 C   0  0  0  0  0  2  0  0  0  0  0  0
  188.9190  174.4360  147.6520 O   0  0  0  0  0  1  0  0  0  0  0  0
  192.2800  168.4240  141.4420 C   0  0  0  0  0  2  0  0  0  0  0  0
  190.9760  168.4910  141.9310 O   0  0  0  0  0  1  0  0  0  0  0  0
  185.5070  178.5080  141.7590 N   0  0  0  0  0  2  0  0  0  0  0  0
  183.1070  178.2950  142.0060 C   0  0  0  0  0  2  0  0  0  0  0  0
  183.4010  178.6950  140.5780 C   0  0  0  0  0  2  0  0  0  0  0  0
  184.3430  177.7610  141.3120 C   0  0  0  0  0  3  0  0  0  0  0  0
  187.1070  177.4920  146.5160 O   0  0  0  0  0  0  0  0  0  0  0  0
  184.7030  177.5520  146.6040 C   0  0  0  0  0  1  0  0  0  0  0  0
  185.9670  176.8910  147.1130 C   0  0  0  0  0  2  0  0  0  0  0  0
  2  7  1  0  0  0  0
  2 10  1  0  0  0  0
  4 19  1  0  0  0  0
  5 22  2  0  0  0  0
  7 29  1  0  0  0  0
  7  6  1  0  0  0  0
  8 12  1  0  0  0  0
  9 14  1  0  0  0  0
 10  5  1  0  0  0  0
 11  1  1  0  0  0  0
 11 18  1  0  0  0  0
 12 17  1  0  0  0  0
 12  2  1  0  0  0  0
 13 22  1  0  0  0  0
 13 38  1  0  0  0  0
 14 20  1  0  0  0  0
 14  5  1  0  0  0  0
 15 20  1  0  0  0  0
 16 11  2  0  0  0  0
 17  9  1  0  0  0  0
 17  2  1  0  0  0  0
 18 24  1  0  0  0  0
 19 15  2  0  0  0  0
 20 13  2  0  0  0  0
 21 10  1  0  0  0  0
 22 30  1  0  0  0  0
 23  4  1  0  0  0  0
 23  9  1  0  0  0  0
 24 28  2  0  0  0  0
 24  3  1  0  0  0  0
 25  3  1  0  0  0  0
 25  6  1  0  0  0  0
 27 26  1  0  0  0  0
 27  1  1  0  0  0  0
 27  8  1  0  0  0  0
 30 31  1  0  0  0  0
 32 18  1  0  0  0  0
 32 33  1  0  0  0  0
 34 19  1  0  0  0  0
 36 37  1  0  0  0  0
 36 35  1  0  0  0  0
 37 34  1  0  0  0  0
 37 35  1  0  0  0  0
 38 40  1  0  0  0  0
 39 40  1  0  0  0  0
M  END
>  <MODEL>
4

>  <REMARK>
 VINA RESULT:      -7.6      3.384      8.685
  Name = 
  6 active torsions:
  status: ('A' for Active; 'I' for Inactive)
    1  A    between atoms: N_5  and  C_24
    2  A    between atoms: N_5  and  C_36
    3  A    between atoms: C_15  and  O_29
    4  A    between atoms: C_18  and  C_31
    5  A    between atoms: N_23  and  C_27
    6  A    between atoms: C_25  and  O_29
                            x       y       z     vdW  Elec       q    Type
                         _______ _______ _______ _____ _____    ______ ____

>  <TORSDO>
F 6

$$$$
=
 OpenBabel11042419273D

 40 45  0  0  1  0  0  0  0  0999 V2000
  190.4930  177.5790  144.5770 C   0  0  0  0  0  2  0  0  0  0  0  0
  191.2770  173.5470  143.5260 C   0  0  1  0  0  0  0  0  0  0  0  0
  188.1260  176.2360  142.3950 C   0  0  0  0  0  2  0  0  0  0  0  0
  195.4970  171.5670  145.2610 C   0  0  0  0  0  2  0  0  0  0  0  0
  192.4860  171.7600  142.2310 C   0  0  0  0  0  0  0  0  0  0  0  0
  188.9590  174.2330  142.8030 C   0  0  0  0  0  2  0  0  0  0  0  0
  189.7810  173.5100  143.8620 C   0  0  1  0  0  3  0  0  0  0  0  0
  191.4600  175.3440  145.3110 C   0  0  0  0  0  2  0  0  0  0  0  0
  193.4250  172.5380  144.3310 C   0  0  1  0  0  3  0  0  0  0  0  0
  191.6940  173.0190  142.1220 C   0  0  2  0  0  3  0  0  0  0  0  0
  189.2490  177.3930  145.4010 C   0  0  0  0  0  0  0  0  0  0  0  0
  192.1500  174.5030  144.2400 C   0  0  1  0  0  3  0  0  0  0  0  0
  193.3590  169.7600  141.9110 C   0  0  0  0  0  0  0  0  0  0  0  0
  193.2780  171.5240  143.2840 N   0  0  0  0  0  0  0  0  0  0  0  0
  194.7570  169.5750  143.9920 C   0  0  0  0  0  3  0  0  0  0  0  0
  189.3250  177.4870  146.6590 O   0  0  0  0  0  0  0  0  0  0  0  0
  192.1120  173.0960  144.6820 N   0  0  1  0  0  0  0  0  0  0  0  0
  187.9800  177.1310  144.7780 N   0  0  0  0  0  0  0  0  0  0  0  0
  195.4850  170.1000  144.9810 C   0  0  0  0  0  0  0  0  0  0  0  0
  193.8370  170.2990  143.0920 C   0  0  0  0  0  0  0  0  0  0  0  0
  192.4410  174.0580  141.3040 C   0  0  0  0  0  1  0  0  0  0  0  0
  192.5040  170.6990  141.3500 C   0  0  0  0  0  0  0  0  0  0  0  0
  194.0960  172.0240  145.5920 C   0  0  0  0  0  2  0  0  0  0  0  0
  187.7820  177.3160  143.3720 C   0  0  0  0  0  0  0  0  0  0  0  0
  189.2970  175.5850  142.7780 O   0  0  0  0  0  0  0  0  0  0  0  0
  192.8540  177.1470  144.4560 O   0  0  0  0  0  1  0  0  0  0  0  0
  191.6950  176.8530  145.1800 C   0  0  1  0  0  3  0  0  0  0  0  0
  187.1950  178.3490  142.9550 O   0  0  0  0  0  0  0  0  0  0  0  0
  189.3450  172.1870  143.9590 O   0  0  0  0  0  1  0  0  0  0  0  0
  191.6600  170.5540  140.1270 C   0  0  0  0  0  2  0  0  0  0  0  0
  190.7110  169.5540  140.3350 O   0  0  0  0  0  1  0  0  0  0  0  0
  186.8120  176.8480  145.6010 C   0  0  0  0  0  2  0  0  0  0  0  0
  186.2170  178.0420  146.0040 O   0  0  0  0  0  1  0  0  0  0  0  0
  196.2640  169.2140  145.7890 N   0  0  0  0  0  2  0  0  0  0  0  0
  195.7130  168.1830  147.9110 C   0  0  0  0  0  2  0  0  0  0  0  0
  197.2180  168.2370  147.7900 C   0  0  0  0  0  2  0  0  0  0  0  0
  196.3720  169.3650  147.2310 C   0  0  0  0  0  3  0  0  0  0  0  0
  193.7000  168.4950  141.4160 O   0  0  0  0  0  0  0  0  0  0  0  0
  195.9930  168.2700  140.7200 C   0  0  0  0  0  1  0  0  0  0  0  0
  194.5410  168.2970  140.2880 C   0  0  0  0  0  2  0  0  0  0  0  0
  1 27  1  0  0  0  0
  1 11  1  0  0  0  0
  2  7  1  0  0  0  0
  2 12  1  0  0  0  0
  2 17  1  0  0  0  0
  3 25  1  0  0  0  0
  3 24  1  0  0  0  0
  4 23  1  0  0  0  0
  5 14  1  0  0  0  0
  6  7  1  0  0  0  0
  7 29  1  0  0  0  0
  9 17  1  0  0  0  0
  9 23  1  0  0  0  0
 10  5  1  0  0  0  0
 10  2  1  0  0  0  0
 11 16  2  0  0  0  0
 12 17  1  0  0  0  0
 12  8  1  0  0  0  0
 13 20  2  0  0  0  0
 14  9  1  0  0  0  0
 15 19  2  0  0  0  0
 18 11  1  0  0  0  0
 18 32  1  0  0  0  0
 19  4  1  0  0  0  0
 19 34  1  0  0  0  0
 20 14  1  0  0  0  0
 20 15  1  0  0  0  0
 21 10  1  0  0  0  0
 22 13  1  0  0  0  0
 22  5  2  0  0  0  0
 24 18  1  0  0  0  0
 25  6  1  0  0  0  0
 26 27  1  0  0  0  0
 27  8  1  0  0  0  0
 28 24  2  0  0  0  0
 30 31  1  0  0  0  0
 30 22  1  0  0  0  0
 32 33  1  0  0  0  0
 34 37  1  0  0  0  0
 36 35  1  0  0  0  0
 37 36  1  0  0  0  0
 37 35  1  0  0  0  0
 38 13  1  0  0  0  0
 40 39  1  0  0  0  0
 40 38  1  0  0  0  0
M  END
>  <MODEL>
5

>  <REMARK>
 VINA RESULT:      -7.0      3.480      6.009
  Name = 
  6 active torsions:
  status: ('A' for Active; 'I' for Inactive)
    1  A    between atoms: N_5  and  C_24
    2  A    between atoms: N_5  and  C_36
    3  A    between atoms: C_15  and  O_29
    4  A    between atoms: C_18  and  C_31
    5  A    between atoms: N_23  and  C_27
    6  A    between atoms: C_25  and  O_29
                            x       y       z     vdW  Elec       q    Type
                         _______ _______ _______ _____ _____    ______ ____

>  <TORSDO>
F 6

$$$$
=
 OpenBabel11042419273D

 40 45  0  0  1  0  0  0  0  0999 V2000
  190.9460  171.8530  137.8440 C   0  0  0  0  0  2  0  0  0  0  0  0
  191.0350  173.4720  141.7630 C   0  0  1  0  0  0  0  0  0  0  0  0
  193.4280  170.4560  139.8590 C   0  0  0  0  0  2  0  0  0  0  0  0
  187.8980  177.2170  142.7010 C   0  0  0  0  0  2  0  0  0  0  0  0
  191.6220  175.2500  143.4420 C   0  0  0  0  0  0  0  0  0  0  0  0
  192.4700  171.4030  141.6090 C   0  0  0  0  0  2  0  0  0  0  0  0
  191.1190  171.9640  142.0320 C   0  0  1  0  0  3  0  0  0  0  0  0
  189.6030  172.8600  139.7550 C   0  0  0  0  0  2  0  0  0  0  0  0
  189.5120  175.4010  142.2510 C   0  0  1  0  0  3  0  0  0  0  0  0
  192.1580  174.3580  142.3740 C   0  0  2  0  0  3  0  0  0  0  0  0
  190.4750  170.4590  138.1520 C   0  0  0  0  0  0  0  0  0  0  0  0
  190.2840  173.9490  140.5810 C   0  0  1  0  0  3  0  0  0  0  0  0
  191.3430  176.4500  145.2720 C   0  0  0  0  0  0  0  0  0  0  0  0
  190.3680  175.7170  143.3970 N   0  0  0  0  0  0  0  0  0  0  0  0
  188.9590  177.1750  144.9370 C   0  0  0  0  0  3  0  0  0  0  0  0
  189.2790  170.1420  137.8910 O   0  0  0  0  0  0  0  0  0  0  0  0
  189.6350  173.9780  141.9050 N   0  0  1  0  0  0  0  0  0  0  0  0
  191.3660  169.4830  138.7190 N   0  0  0  0  0  0  0  0  0  0  0  0
  187.9150  177.4940  144.1690 C   0  0  0  0  0  0  0  0  0  0  0  0
  190.1870  176.4730  144.5120 C   0  0  0  0  0  0  0  0  0  0  0  0
  192.9070  175.1610  141.3250 C   0  0  0  0  0  1  0  0  0  0  0  0
  192.2690  175.6780  144.5830 C   0  0  0  0  0  0  0  0  0  0  0  0
  188.0470  175.7310  142.4730 C   0  0  0  0  0  2  0  0  0  0  0  0
  192.7830  169.6890  138.7490 C   0  0  0  0  0  0  0  0  0  0  0  0
  192.6340  171.5390  140.2320 O   0  0  0  0  0  0  0  0  0  0  0  0
  190.3410  174.1790  137.8470 O   0  0  0  0  0  1  0  0  0  0  0  0
  189.9230  172.9090  138.2570 C   0  0  1  0  0  3  0  0  0  0  0  0
  193.5150  169.1140  137.9010 O   0  0  0  0  0  0  0  0  0  0  0  0
  190.9180  171.7090  143.3900 O   0  0  0  0  0  1  0  0  0  0  0  0
  193.6330  175.2660  145.0320 C   0  0  0  0  0  2  0  0  0  0  0  0
  194.5690  176.1940  144.5790 O   0  0  0  0  0  1  0  0  0  0  0  0
  190.8580  168.1750  139.1080 C   0  0  0  0  0  2  0  0  0  0  0  0
  190.5200  168.1810  140.4600 O   0  0  0  0  0  1  0  0  0  0  0  0
  186.7850  178.1130  144.7900 N   0  0  0  0  0  2  0  0  0  0  0  0
  185.3400  176.4930  145.8650 C   0  0  0  0  0  2  0  0  0  0  0  0
  184.7280  177.8630  146.0450 C   0  0  0  0  0  2  0  0  0  0  0  0
  185.4570  177.5220  144.7600 C   0  0  0  0  0  3  0  0  0  0  0  0
  191.5010  177.0970  146.5040 O   0  0  0  0  0  0  0  0  0  0  0  0
  191.7390  177.3790  148.8820 C   0  0  0  0  0  1  0  0  0  0  0  0
  191.3610  176.4400  147.7560 C   0  0  0  0  0  2  0  0  0  0  0  0
  1 11  1  0  0  0  0
  1 27  1  0  0  0  0
  2 17  1  0  0  0  0
  2  7  1  0  0  0  0
  2 10  1  0  0  0  0
  3 25  1  0  0  0  0
  4 19  1  0  0  0  0
  5 22  2  0  0  0  0
  6  7  1  0  0  0  0
  7 29  1  0  0  0  0
  8 12  1  0  0  0  0
  9 23  1  0  0  0  0
  9 14  1  0  0  0  0
 10  5  1  0  0  0  0
 11 18  1  0  0  0  0
 12  2  1  0  0  0  0
 12 17  1  0  0  0  0
 13 38  1  0  0  0  0
 14  5  1  0  0  0  0
 14 20  1  0  0  0  0
 16 11  2  0  0  0  0
 17  9  1  0  0  0  0
 18 24  1  0  0  0  0
 18 32  1  0  0  0  0
 19 34  1  0  0  0  0
 19 15  2  0  0  0  0
 20 15  1  0  0  0  0
 20 13  2  0  0  0  0
 21 10  1  0  0  0  0
 22 30  1  0  0  0  0
 22 13  1  0  0  0  0
 23  4  1  0  0  0  0
 24  3  1  0  0  0  0
 25  6  1  0  0  0  0
 26 27  1  0  0  0  0
 27  8  1  0  0  0  0
 28 24  2  0  0  0  0
 31 30  1  0  0  0  0
 32 33  1  0  0  0  0
 35 36  1  0  0  0  0
 37 34  1  0  0  0  0
 37 35  1  0  0  0  0
 37 36  1  0  0  0  0
 38 40  1  0  0  0  0
 40 39  1  0  0  0  0
M  END
>  <MODEL>
6

>  <REMARK>
 VINA RESULT:      -6.8      3.550      8.144
  Name = 
  6 active torsions:
  status: ('A' for Active; 'I' for Inactive)
    1  A    between atoms: N_5  and  C_24
    2  A    between atoms: N_5  and  C_36
    3  A    between atoms: C_15  and  O_29
    4  A    between atoms: C_18  and  C_31
    5  A    between atoms: N_23  and  C_27
    6  A    between atoms: C_25  and  O_29
                            x       y       z     vdW  Elec       q    Type
                         _______ _______ _______ _____ _____    ______ ____

>  <TORSDO>
F 6

$$$$
=
 OpenBabel11042419273D

 40 45  0  0  1  0  0  0  0  0999 V2000
  195.2700  170.7310  143.7830 C   0  0  0  0  0  2  0  0  0  0  0  0
  192.1820  173.4330  142.7120 C   0  0  1  0  0  0  0  0  0  0  0  0
  194.9620  171.1820  140.3370 C   0  0  0  0  0  2  0  0  0  0  0  0
  189.3760  175.1990  146.4210 C   0  0  0  0  0  2  0  0  0  0  0  0
  189.7730  174.0470  142.3220 C   0  0  0  0  0  0  0  0  0  0  0  0
  193.6550  172.9170  140.7300 C   0  0  0  0  0  2  0  0  0  0  0  0
  193.3490  173.9130  141.8410 C   0  0  1  0  0  3  0  0  0  0  0  0
  193.9440  172.8030  144.4300 C   0  0  0  0  0  2  0  0  0  0  0  0
  190.7090  174.2930  144.5490 C   0  0  1  0  0  3  0  0  0  0  0  0
  190.8560  173.0810  141.9770 C   0  0  2  0  0  3  0  0  0  0  0  0
  196.4710  171.5390  143.3760 C   0  0  0  0  0  0  0  0  0  0  0  0
  192.4700  172.8330  144.0330 C   0  0  1  0  0  3  0  0  0  0  0  0
  188.0320  175.4000  142.2720 C   0  0  0  0  0  0  0  0  0  0  0  0
  189.7220  174.6370  143.5230 N   0  0  0  0  0  0  0  0  0  0  0  0
  188.1810  176.3600  144.5910 C   0  0  0  0  0  3  0  0  0  0  0  0
  197.1740  172.0890  144.2700 O   0  0  0  0  0  0  0  0  0  0  0  0
  192.0550  174.2470  143.9600 N   0  0  1  0  0  0  0  0  0  0  0  0
  196.8370  171.6760  141.9920 N   0  0  0  0  0  0  0  0  0  0  0  0
  188.5080  176.2900  145.8830 C   0  0  0  0  0  0  0  0  0  0  0  0
  188.6420  175.4630  143.5120 C   0  0  0  0  0  0  0  0  0  0  0  0
  190.4070  171.6520  142.2300 C   0  0  0  0  0  1  0  0  0  0  0  0
  188.7460  174.4840  141.5110 C   0  0  0  0  0  0  0  0  0  0  0  0
  190.7200  175.2440  145.7320 C   0  0  0  0  0  2  0  0  0  0  0  0
  196.2690  170.8390  140.9780 C   0  0  0  0  0  0  0  0  0  0  0  0
  194.0790  171.7070  141.2770 O   0  0  0  0  0  0  0  0  0  0  0  0
  193.4170  170.5950  145.3070 O   0  0  0  0  0  1  0  0  0  0  0  0
  194.4530  171.4260  144.8710 C   0  0  1  0  0  3  0  0  0  0  0  0
  196.9320  169.8680  140.5280 O   0  0  0  0  0  0  0  0  0  0  0  0
  193.0470  175.1540  141.2780 O   0  0  0  0  0  1  0  0  0  0  0  0
  188.5500  174.1370  140.0720 C   0  0  0  0  0  2  0  0  0  0  0  0
  187.9510  172.8820  139.9760 O   0  0  0  0  0  1  0  0  0  0  0  0
  197.9400  172.5510  141.6160 C   0  0  0  0  0  2  0  0  0  0  0  0
  197.4440  173.7070  141.0150 O   0  0  0  0  0  1  0  0  0  0  0  0
  188.0100  177.3020  146.7620 N   0  0  0  0  0  2  0  0  0  0  0  0
  185.7520  177.2540  147.6370 C   0  0  0  0  0  2  0  0  0  0  0  0
  186.3240  178.6310  147.8820 C   0  0  0  0  0  2  0  0  0  0  0  0
  186.6830  177.8770  146.6170 C   0  0  0  0  0  3  0  0  0  0  0  0
  186.9070  176.1450  141.8970 O   0  0  0  0  0  0  0  0  0  0  0  0
  186.0090  178.3550  141.5800 C   0  0  0  0  0  1  0  0  0  0  0  0
  186.9740  177.3030  141.0760 C   0  0  0  0  0  2  0  0  0  0  0  0
  1 27  1  0  0  0  0
  2 17  1  0  0  0  0
  2 12  1  0  0  0  0
  3 24  1  0  0  0  0
  3 25  1  0  0  0  0
  5 14  1  0  0  0  0
  6 25  1  0  0  0  0
  6  7  1  0  0  0  0
  7  2  1  0  0  0  0
  8 27  1  0  0  0  0
  9 23  1  0  0  0  0
 10 21  1  0  0  0  0
 10  5  1  0  0  0  0
 10  2  1  0  0  0  0
 11  1  1  0  0  0  0
 11 16  2  0  0  0  0
 12  8  1  0  0  0  0
 13 20  2  0  0  0  0
 14  9  1  0  0  0  0
 15 19  2  0  0  0  0
 17 12  1  0  0  0  0
 17  9  1  0  0  0  0
 18 11  1  0  0  0  0
 19  4  1  0  0  0  0
 19 34  1  0  0  0  0
 20 14  1  0  0  0  0
 20 15  1  0  0  0  0
 22 13  1  0  0  0  0
 22  5  2  0  0  0  0
 23  4  1  0  0  0  0
 24 18  1  0  0  0  0
 27 26  1  0  0  0  0
 28 24  2  0  0  0  0
 29  7  1  0  0  0  0
 30 22  1  0  0  0  0
 31 30  1  0  0  0  0
 32 18  1  0  0  0  0
 33 32  1  0  0  0  0
 35 36  1  0  0  0  0
 37 34  1  0  0  0  0
 37 35  1  0  0  0  0
 37 36  1  0  0  0  0
 38 13  1  0  0  0  0
 40 39  1  0  0  0  0
 40 38  1  0  0  0  0
M  END
>  <MODEL>
7

>  <REMARK>
 VINA RESULT:      -6.7      2.940      9.490
  Name = 
  6 active torsions:
  status: ('A' for Active; 'I' for Inactive)
    1  A    between atoms: N_5  and  C_24
    2  A    between atoms: N_5  and  C_36
    3  A    between atoms: C_15  and  O_29
    4  A    between atoms: C_18  and  C_31
    5  A    between atoms: N_23  and  C_27
    6  A    between atoms: C_25  and  O_29
                            x       y       z     vdW  Elec       q    Type
                         _______ _______ _______ _____ _____    ______ ____

>  <TORSDO>
F 6

$$$$
=
 OpenBabel11042419273D

 40 45  0  0  1  0  0  0  0  0999 V2000
  192.1940  171.9710  137.8210 C   0  0  0  0  0  2  0  0  0  0  0  0
  190.8810  173.1760  141.6690 C   0  0  1  0  0  0  0  0  0  0  0  0
  193.4560  169.9830  140.3950 C   0  0  0  0  0  2  0  0  0  0  0  0
  188.1130  177.3030  141.8920 C   0  0  0  0  0  2  0  0  0  0  0  0
  190.9480  174.6600  143.6990 C   0  0  0  0  0  0  0  0  0  0  0  0
  191.9930  170.9130  141.7630 C   0  0  0  0  0  2  0  0  0  0  0  0
  190.6650  171.6580  141.7130 C   0  0  1  0  0  3  0  0  0  0  0  0
  190.3240  173.0120  139.1960 C   0  0  0  0  0  2  0  0  0  0  0  0
  189.5380  175.2860  141.8240 C   0  0  1  0  0  3  0  0  0  0  0  0
  191.7580  173.7930  142.7960 C   0  0  2  0  0  3  0  0  0  0  0  0
  191.4720  170.6570  137.7030 C   0  0  0  0  0  0  0  0  0  0  0  0
  190.7380  173.8850  140.3780 C   0  0  1  0  0  3  0  0  0  0  0  0
  190.0990  175.7140  145.4410 C   0  0  0  0  0  0  0  0  0  0  0  0
  189.8870  175.3400  143.2460 N   0  0  0  0  0  0  0  0  0  0  0  0
  188.1620  176.8690  144.3280 C   0  0  0  0  0  3  0  0  0  0  0  0
  190.4570  170.5780  136.9540 O   0  0  0  0  0  0  0  0  0  0  0  0
  189.6170  173.9020  141.3360 N   0  0  1  0  0  0  0  0  0  0  0  0
  191.9320  169.4930  138.4110 N   0  0  0  0  0  0  0  0  0  0  0  0
  187.5670  177.4350  143.2760 C   0  0  0  0  0  0  0  0  0  0  0  0
  189.3620  176.0080  144.3070 C   0  0  0  0  0  0  0  0  0  0  0  0
  192.9600  174.5490  142.2560 C   0  0  0  0  0  1  0  0  0  0  0  0
  191.1230  174.8610  145.0520 C   0  0  0  0  0  0  0  0  0  0  0  0
  188.1600  175.8420  141.5110 C   0  0  0  0  0  2  0  0  0  0  0  0
  193.2290  169.4470  139.0180 C   0  0  0  0  0  0  0  0  0  0  0  0
  192.7160  171.1480  140.5950 O   0  0  0  0  0  0  0  0  0  0  0  0
  191.9260  174.3560  137.9500 O   0  0  0  0  0  1  0  0  0  0  0  0
  191.2270  173.1450  137.9640 C   0  0  1  0  0  3  0  0  0  0  0  0
  194.1660  168.8360  138.4400 O   0  0  0  0  0  0  0  0  0  0  0  0
  189.9020  171.3160  142.8300 O   0  0  0  0  0  1  0  0  0  0  0  0
  192.1270  174.1790  145.9230 C   0  0  0  0  0  2  0  0  0  0  0  0
  193.3010  174.9290  145.9510 O   0  0  0  0  0  1  0  0  0  0  0  0
  191.1550  168.2620  138.3660 C   0  0  0  0  0  2  0  0  0  0  0  0
  190.3530  168.1660  139.5010 O   0  0  0  0  0  1  0  0  0  0  0  0
  186.3660  178.1790  143.5000 N   0  0  0  0  0  2  0  0  0  0  0  0
  184.6530  179.3810  144.7200 C   0  0  0  0  0  2  0  0  0  0  0  0
  184.7720  177.9960  145.3140 C   0  0  0  0  0  2  0  0  0  0  0  0
  186.0090  178.7100  144.8050 C   0  0  0  0  0  3  0  0  0  0  0  0
  189.8210  176.2060  146.7220 O   0  0  0  0  0  0  0  0  0  0  0  0
  191.3840  176.8970  148.4160 C   0  0  0  0  0  1  0  0  0  0  0  0
  190.4750  177.3340  147.2860 C   0  0  0  0  0  2  0  0  0  0  0  0
  1 27  1  0  0  0  0
  2  7  1  0  0  0  0
  2 10  1  0  0  0  0
  3 25  1  0  0  0  0
  4 19  1  0  0  0  0
  5 22  2  0  0  0  0
  7  6  1  0  0  0  0
  7 29  1  0  0  0  0
  8 12  1  0  0  0  0
  9 14  1  0  0  0  0
 10  5  1  0  0  0  0
 11  1  1  0  0  0  0
 11 18  1  0  0  0  0
 12 17  1  0  0  0  0
 12  2  1  0  0  0  0
 13 38  1  0  0  0  0
 14  5  1  0  0  0  0
 14 20  1  0  0  0  0
 16 11  2  0  0  0  0
 17  2  1  0  0  0  0
 17  9  1  0  0  0  0
 18 24  1  0  0  0  0
 19 34  1  0  0  0  0
 19 15  2  0  0  0  0
 20 15  1  0  0  0  0
 20 13  2  0  0  0  0
 21 10  1  0  0  0  0
 22 13  1  0  0  0  0
 22 30  1  0  0  0  0
 23  9  1  0  0  0  0
 23  4  1  0  0  0  0
 24  3  1  0  0  0  0
 25  6  1  0  0  0  0
 26 27  1  0  0  0  0
 27  8  1  0  0  0  0
 28 24  2  0  0  0  0
 30 31  1  0  0  0  0
 32 18  1  0  0  0  0
 32 33  1  0  0  0  0
 34 37  1  0  0  0  0
 35 37  1  0  0  0  0
 35 36  1  0  0  0  0
 37 36  1  0  0  0  0
 38 40  1  0  0  0  0
 40 39  1  0  0  0  0
M  END
>  <MODEL>
8

>  <REMARK>
 VINA RESULT:      -6.6      3.623      8.403
  Name = 
  6 active torsions:
  status: ('A' for Active; 'I' for Inactive)
    1  A    between atoms: N_5  and  C_24
    2  A    between atoms: N_5  and  C_36
    3  A    between atoms: C_15  and  O_29
    4  A    between atoms: C_18  and  C_31
    5  A    between atoms: N_23  and  C_27
    6  A    between atoms: C_25  and  O_29
                            x       y       z     vdW  Elec       q    Type
                         _______ _______ _______ _____ _____    ______ ____

>  <TORSDO>
F 6

$$$$
=
 OpenBabel11042419273D

 40 45  0  0  1  0  0  0  0  0999 V2000
  189.3860  177.4120  146.3630 C   0  0  0  0  0  2  0  0  0  0  0  0
  191.3400  174.7780  143.6740 C   0  0  1  0  0  0  0  0  0  0  0  0
  188.1970  177.6460  143.0920 C   0  0  0  0  0  2  0  0  0  0  0  0
  195.1180  172.1140  145.5100 C   0  0  0  0  0  2  0  0  0  0  0  0
  193.2630  174.0940  142.2050 C   0  0  0  0  0  0  0  0  0  0  0  0
  189.2810  175.7820  142.6170 C   0  0  0  0  0  2  0  0  0  0  0  0
  189.8620  174.5640  143.3220 C   0  0  1  0  0  3  0  0  0  0  0  0
  190.5410  175.1670  146.0540 C   0  0  0  0  0  2  0  0  0  0  0  0
  193.2880  173.4680  144.5500 C   0  0  1  0  0  3  0  0  0  0  0  0
  192.2880  175.1810  142.5080 C   0  0  2  0  0  3  0  0  0  0  0  0
  188.0190  176.7860  146.3880 C   0  0  0  0  0  0  0  0  0  0  0  0
  191.7050  175.1170  145.0670 C   0  0  1  0  0  3  0  0  0  0  0  0
  194.6150  172.6640  141.2070 C   0  0  0  0  0  0  0  0  0  0  0  0
  193.7110  173.2720  143.1610 N   0  0  0  0  0  0  0  0  0  0  0  0
  195.2820  171.2680  143.1890 C   0  0  0  0  0  3  0  0  0  0  0  0
  187.6680  176.1160  147.4010 O   0  0  0  0  0  0  0  0  0  0  0  0
  191.8420  173.7220  144.6070 N   0  0  1  0  0  0  0  0  0  0  0  0
  187.1060  176.9570  145.2900 N   0  0  0  0  0  0  0  0  0  0  0  0
  195.5220  171.0980  144.4920 C   0  0  0  0  0  0  0  0  0  0  0  0
  194.5600  172.3930  142.5640 C   0  0  0  0  0  0  0  0  0  0  0  0
  193.0050  176.4950  142.7620 C   0  0  0  0  0  1  0  0  0  0  0  0
  193.7960  173.7610  140.9760 C   0  0  0  0  0  0  0  0  0  0  0  0
  193.6200  172.3000  145.4620 C   0  0  0  0  0  2  0  0  0  0  0  0
  187.3290  177.9410  144.2740 C   0  0  0  0  0  0  0  0  0  0  0  0
  189.2990  176.8830  143.4720 O   0  0  0  0  0  0  0  0  0  0  0  0
  191.6970  177.1120  146.9520 O   0  0  0  0  0  1  0  0  0  0  0  0
  190.4630  176.4580  146.8770 C   0  0  1  0  0  3  0  0  0  0  0  0
  186.6910  179.0250  144.3060 O   0  0  0  0  0  0  0  0  0  0  0  0
  189.7240  173.4450  142.5000 O   0  0  0  0  0  1  0  0  0  0  0  0
  193.4390  174.3770  139.6630 C   0  0  0  0  0  2  0  0  0  0  0  0
  194.4300  175.2840  139.2940 O   0  0  0  0  0  1  0  0  0  0  0  0
  185.8310  176.2530  145.2910 C   0  0  0  0  0  2  0  0  0  0  0  0
  184.9230  176.9170  146.1140 O   0  0  0  0  0  1  0  0  0  0  0  0
  196.1800  169.8980  144.9060 N   0  0  0  0  0  2  0  0  0  0  0  0
  196.0280  168.9160  147.1150 C   0  0  0  0  0  2  0  0  0  0  0  0
  197.2370  168.3320  146.4220 C   0  0  0  0  0  2  0  0  0  0  0  0
  196.8570  169.7810  146.1870 C   0  0  0  0  0  3  0  0  0  0  0  0
  195.3680  171.9350  140.2790 O   0  0  0  0  0  0  0  0  0  0  0  0
  194.3620  171.1160  138.2520 C   0  0  0  0  0  1  0  0  0  0  0  0
  194.8880  170.7660  139.6280 C   0  0  0  0  0  2  0  0  0  0  0  0
  1 11  1  0  0  0  0
  1 27  1  0  0  0  0
  2 17  1  0  0  0  0
  2 12  1  0  0  0  0
  3 25  1  0  0  0  0
  3 24  1  0  0  0  0
  5 10  1  0  0  0  0
  5 14  1  0  0  0  0
  6  7  1  0  0  0  0
  6 25  1  0  0  0  0
  7  2  1  0  0  0  0
  8 27  1  0  0  0  0
  9 17  1  0  0  0  0
  9 23  1  0  0  0  0
 10 21  1  0  0  0  0
 10  2  1  0  0  0  0
 11 16  2  0  0  0  0
 12  8  1  0  0  0  0
 13 20  2  0  0  0  0
 14  9  1  0  0  0  0
 15 19  2  0  0  0  0
 17 12  1  0  0  0  0
 18 32  1  0  0  0  0
 18 11  1  0  0  0  0
 19 34  1  0  0  0  0
 19  4  1  0  0  0  0
 20 14  1  0  0  0  0
 20 15  1  0  0  0  0
 22 13  1  0  0  0  0
 22  5  2  0  0  0  0
 23  4  1  0  0  0  0
 24 28  2  0  0  0  0
 24 18  1  0  0  0  0
 27 26  1  0  0  0  0
 29  7  1  0  0  0  0
 30 22  1  0  0  0  0
 31 30  1  0  0  0  0
 32 33  1  0  0  0  0
 34 37  1  0  0  0  0
 36 35  1  0  0  0  0
 37 36  1  0  0  0  0
 37 35  1  0  0  0  0
 38 13  1  0  0  0  0
 39 40  1  0  0  0  0
 40 38  1  0  0  0  0
M  END
>  <MODEL>
9

>  <REMARK>
 VINA RESULT:      -6.3      2.760      5.207
  Name = 
  6 active torsions:
  status: ('A' for Active; 'I' for Inactive)
    1  A    between atoms: N_5  and  C_24
    2  A    between atoms: N_5  and  C_36
    3  A    between atoms: C_15  and  O_29
    4  A    between atoms: C_18  and  C_31
    5  A    between atoms: N_23  and  C_27
    6  A    between atoms: C_25  and  O_29
                            x       y       z     vdW  Elec       q    Type
                         _______ _______ _______ _____ _____    ______ ____

>  <TORSDO>
F 6

$$$$
