=
 OpenBabel11042416103D

 26 28  0  0  1  0  0  0  0  0999 V2000
  184.7990  178.7360  146.7100 C   0  0  0  0  0  3  0  0  0  0  0  0
  184.7580  178.3360  143.1470 C   0  0  0  0  0  0  0  0  0  0  0  0
  186.8540  177.4810  146.7670 C   0  0  0  0  0  3  0  0  0  0  0  0
  184.9820  178.8480  145.2640 C   0  0  1  0  0  3  0  0  0  0  0  0
  186.3730  178.7250  144.6910 C   0  0  2  0  0  3  0  0  0  0  0  0
  185.7100  178.0580  141.1560 C   0  0  0  0  0  3  0  0  0  0  0  0
  186.6700  178.1780  142.1650 C   0  0  0  0  0  0  0  0  0  0  0  0
  184.4720  178.1650  141.8090 C   0  0  0  0  0  0  0  0  0  0  0  0
  184.0120  178.6360  144.3600 C   0  0  0  0  0  2  0  0  0  0  0  0
  186.0550  178.2970  143.3510 N   0  0  0  0  0  0  0  0  0  0  0  0
  185.7110  178.1070  147.3950 N   0  0  0  0  0  0  0  0  0  0  0  0
  187.1520  177.7040  145.4750 C   0  0  0  0  0  3  0  0  0  0  0  0
  182.0090  178.6120  141.9050 N   0  0  0  0  0  2  0  0  0  0  0  0
  183.0210  177.7520  139.9860 O   0  0  0  0  0  0  0  0  0  0  0  0
  180.6770  178.6270  141.3240 C   0  0  0  0  0  1  0  0  0  0  0  0
  183.1480  178.1570  141.1740 C   0  0  0  0  0  0  0  0  0  0  0  0
  188.1460  178.1830  141.9720 C   0  0  0  0  0  2  0  0  0  0  0  0
  188.7320  177.0110  142.6110 N   0  0  0  0  0  0  0  0  0  0  0  0
  188.4840  175.8540  141.7620 C   0  0  0  0  0  1  0  0  0  0  0  0
  190.1770  177.2060  142.7920 C   0  0  0  0  0  2  0  0  0  0  0  0
  190.5710  177.7240  144.1790 C   0  0  0  0  0  2  0  0  0  0  0  0
  191.4050  176.6910  144.9090 C   0  0  0  0  0  2  0  0  0  0  0  0
  190.6880  176.2360  146.0890 N   0  0  0  0  0  2  0  0  0  0  0  0
  189.1330  174.6670  147.2970 C   0  0  0  0  0  1  0  0  0  0  0  0
  189.8430  175.0860  146.0620 C   0  0  0  0  0  0  0  0  0  0  0  0
  189.6930  174.4230  145.0010 O   0  0  0  0  0  0  0  0  0  0  0  0
  1 11  2  0  0  0  0
  2 10  1  0  0  0  0
  2  9  1  0  0  0  0
  3 11  1  0  0  0  0
  4  9  1  6  0  0  0
  4  1  1  0  0  0  0
  5  4  1  0  0  0  0
  5 12  1  1  0  0  0
  6  8  1  0  0  0  0
  6  7  2  0  0  0  0
  7 10  1  0  0  0  0
  8  2  2  0  0  0  0
 10  5  1  0  0  0  0
 12  3  2  0  0  0  0
 14 16  2  0  0  0  0
 15 13  1  0  0  0  0
 16  8  1  0  0  0  0
 16 13  1  0  0  0  0
 17  7  1  0  0  0  0
 17 18  1  0  0  0  0
 18 20  1  0  0  0  0
 19 18  1  0  0  0  0
 20 21  1  0  0  0  0
 21 22  1  0  0  0  0
 22 23  1  0  0  0  0
 25 23  1  0  0  0  0
 25 24  1  0  0  0  0
 26 25  2  0  0  0  0
M  END
>  <MODEL>
1

>  <REMARK>
 VINA RESULT:      -7.1      0.000      0.000
  Name = 
  7 active torsions:
  status: ('A' for Active; 'I' for Inactive)
    1  A    between atoms: C_2  and  N_10
    2  A    between atoms: C_2  and  C_24
    3  A    between atoms: N_3  and  C_17
    4  A    between atoms: N_10  and  C_13
    5  A    between atoms: C_13  and  C_15
    6  A    between atoms: C_16  and  C_19
    7  A    between atoms: C_17  and  C_24
                            x       y       z     vdW  Elec       q    Type
                         _______ _______ _______ _____ _____    ______ ____

>  <TORSDO>
F 7

$$$$
=
 OpenBabel11042416103D

 26 28  0  0  1  0  0  0  0  0999 V2000
  186.1710  177.7120  147.6910 C   0  0  0  0  0  3  0  0  0  0  0  0
  188.2490  177.6040  144.7710 C   0  0  0  0  0  0  0  0  0  0  0  0
  184.4010  178.6050  146.3250 C   0  0  0  0  0  3  0  0  0  0  0  0
  186.8670  177.3680  146.4530 C   0  0  1  0  0  3  0  0  0  0  0  0
  186.0620  177.1760  145.1900 C   0  0  2  0  0  3  0  0  0  0  0  0
  188.6150  177.4360  142.5840 C   0  0  0  0  0  3  0  0  0  0  0  0
  187.2560  177.3030  142.8830 C   0  0  0  0  0  0  0  0  0  0  0  0
  189.2490  177.6290  143.8220 C   0  0  0  0  0  0  0  0  0  0  0  0
  188.1680  177.6070  146.2250 C   0  0  0  0  0  2  0  0  0  0  0  0
  187.0750  177.4570  144.2020 N   0  0  0  0  0  0  0  0  0  0  0  0
  184.9980  178.2730  147.5990 N   0  0  0  0  0  0  0  0  0  0  0  0
  184.9190  178.1550  145.1690 C   0  0  0  0  0  3  0  0  0  0  0  0
  191.4300  176.6730  144.6010 N   0  0  0  0  0  2  0  0  0  0  0  0
  191.2780  178.8440  143.7570 O   0  0  0  0  0  0  0  0  0  0  0  0
  192.8600  176.7550  144.8460 C   0  0  0  0  0  1  0  0  0  0  0  0
  190.6930  177.7660  144.0500 C   0  0  0  0  0  0  0  0  0  0  0  0
  186.1690  177.0260  141.9050 C   0  0  0  0  0  2  0  0  0  0  0  0
  186.3100  177.9030  140.7490 N   0  0  0  0  0  0  0  0  0  0  0  0
  186.6750  177.0890  139.5970 C   0  0  0  0  0  1  0  0  0  0  0  0
  185.0440  178.6040  140.4920 C   0  0  0  0  0  2  0  0  0  0  0  0
  183.8840  178.1500  141.3840 C   0  0  0  0  0  2  0  0  0  0  0  0
  182.5930  178.1150  140.5910 C   0  0  0  0  0  2  0  0  0  0  0  0
  181.4640  178.0730  141.5060 N   0  0  0  0  0  2  0  0  0  0  0  0
  179.2960  178.9600  142.4290 C   0  0  0  0  0  1  0  0  0  0  0  0
  180.4260  179.0510  141.4700 C   0  0  0  0  0  0  0  0  0  0  0  0
  180.4580  179.9920  140.6320 O   0  0  0  0  0  0  0  0  0  0  0  0
  2  9  1  0  0  0  0
  3 11  1  0  0  0  0
  4  9  1  6  0  0  0
  4  1  1  0  0  0  0
  5 12  1  1  0  0  0
  5  4  1  0  0  0  0
  6  7  2  0  0  0  0
  6  8  1  0  0  0  0
  7 10  1  0  0  0  0
  8 16  1  0  0  0  0
  8  2  2  0  0  0  0
 10  2  1  0  0  0  0
 10  5  1  0  0  0  0
 11  1  2  0  0  0  0
 12  3  2  0  0  0  0
 13 15  1  0  0  0  0
 14 16  2  0  0  0  0
 16 13  1  0  0  0  0
 17  7  1  0  0  0  0
 18 17  1  0  0  0  0
 19 18  1  0  0  0  0
 20 18  1  0  0  0  0
 20 21  1  0  0  0  0
 22 21  1  0  0  0  0
 22 23  1  0  0  0  0
 25 23  1  0  0  0  0
 25 24  1  0  0  0  0
 26 25  2  0  0  0  0
M  END
>  <MODEL>
2

>  <REMARK>
 VINA RESULT:      -6.8      1.870      6.901
  Name = 
  7 active torsions:
  status: ('A' for Active; 'I' for Inactive)
    1  A    between atoms: C_2  and  N_10
    2  A    between atoms: C_2  and  C_24
    3  A    between atoms: N_3  and  C_17
    4  A    between atoms: N_10  and  C_13
    5  A    between atoms: C_13  and  C_15
    6  A    between atoms: C_16  and  C_19
    7  A    between atoms: C_17  and  C_24
                            x       y       z     vdW  Elec       q    Type
                         _______ _______ _______ _____ _____    ______ ____

>  <TORSDO>
F 7

$$$$
=
 OpenBabel11042416103D

 26 28  0  0  1  0  0  0  0  0999 V2000
  184.8880  177.2660  146.8110 C   0  0  0  0  0  3  0  0  0  0  0  0
  188.2280  177.1580  145.5100 C   0  0  0  0  0  0  0  0  0  0  0  0
  184.4010  179.0320  145.2490 C   0  0  0  0  0  3  0  0  0  0  0  0
  186.1100  177.0160  146.0490 C   0  0  1  0  0  3  0  0  0  0  0  0
  186.1690  177.4380  144.6010 C   0  0  2  0  0  3  0  0  0  0  0  0
  189.7630  177.4180  143.9230 C   0  0  0  0  0  3  0  0  0  0  0  0
  188.4820  177.7020  143.4410 C   0  0  0  0  0  0  0  0  0  0  0  0
  189.5820  177.0640  145.2690 C   0  0  0  0  0  0  0  0  0  0  0  0
  187.3200  176.8310  146.6010 C   0  0  0  0  0  2  0  0  0  0  0  0
  187.5950  177.5790  144.4390 N   0  0  0  0  0  0  0  0  0  0  0  0
  184.0890  178.2070  146.3950 N   0  0  0  0  0  0  0  0  0  0  0  0
  185.4170  178.7290  144.4220 C   0  0  0  0  0  3  0  0  0  0  0  0
  191.6170  175.6900  145.7690 N   0  0  0  0  0  2  0  0  0  0  0  0
  190.6470  177.0700  147.3810 O   0  0  0  0  0  0  0  0  0  0  0  0
  192.6720  175.2220  146.6510 C   0  0  0  0  0  1  0  0  0  0  0  0
  190.6260  176.6230  146.2030 C   0  0  0  0  0  0  0  0  0  0  0  0
  188.1370  178.0760  142.0420 C   0  0  0  0  0  2  0  0  0  0  0  0
  187.1740  177.1250  141.5010 N   0  0  0  0  0  0  0  0  0  0  0  0
  186.2910  177.8370  140.5870 C   0  0  0  0  0  1  0  0  0  0  0  0
  187.8750  176.0480  140.7910 C   0  0  0  0  0  2  0  0  0  0  0  0
  187.9530  174.7300  141.5690 C   0  0  0  0  0  2  0  0  0  0  0  0
  189.3990  174.3360  141.7950 C   0  0  0  0  0  2  0  0  0  0  0  0
  189.5830  173.9470  143.1830 N   0  0  0  0  0  2  0  0  0  0  0  0
  189.7330  172.2420  145.0300 C   0  0  0  0  0  1  0  0  0  0  0  0
  189.5390  172.5820  143.5970 C   0  0  0  0  0  0  0  0  0  0  0  0
  189.3360  171.6630  142.7600 O   0  0  0  0  0  0  0  0  0  0  0  0
  2  9  1  0  0  0  0
  3 11  1  0  0  0  0
  4  9  1  1  0  0  0
  4  1  1  0  0  0  0
  5 12  1  1  0  0  0
  5  4  1  0  0  0  0
  6  8  1  0  0  0  0
  7  6  2  0  0  0  0
  7 10  1  0  0  0  0
  8  2  2  0  0  0  0
  8 16  1  0  0  0  0
 10  5  1  0  0  0  0
 10  2  1  0  0  0  0
 11  1  2  0  0  0  0
 12  3  2  0  0  0  0
 13 16  1  0  0  0  0
 13 15  1  0  0  0  0
 16 14  2  0  0  0  0
 17  7  1  0  0  0  0
 18 17  1  0  0  0  0
 19 18  1  0  0  0  0
 20 18  1  0  0  0  0
 20 21  1  0  0  0  0
 21 22  1  0  0  0  0
 22 23  1  0  0  0  0
 23 25  1  0  0  0  0
 25 24  1  0  0  0  0
 26 25  2  0  0  0  0
M  END
>  <MODEL>
3

>  <REMARK>
 VINA RESULT:      -6.8      2.825      5.386
  Name = 
  7 active torsions:
  status: ('A' for Active; 'I' for Inactive)
    1  A    between atoms: C_2  and  N_10
    2  A    between atoms: C_2  and  C_24
    3  A    between atoms: N_3  and  C_17
    4  A    between atoms: N_10  and  C_13
    5  A    between atoms: C_13  and  C_15
    6  A    between atoms: C_16  and  C_19
    7  A    between atoms: C_17  and  C_24
                            x       y       z     vdW  Elec       q    Type
                         _______ _______ _______ _____ _____    ______ ____

>  <TORSDO>
F 7

$$$$
=
 OpenBabel11042416103D

 26 28  0  0  1  0  0  0  0  0999 V2000
  184.8000  178.7610  146.6820 C   0  0  0  0  0  3  0  0  0  0  0  0
  184.6740  178.3480  143.1230 C   0  0  0  0  0  0  0  0  0  0  0  0
  186.8390  177.4790  146.6980 C   0  0  0  0  0  3  0  0  0  0  0  0
  184.9520  178.8650  145.2320 C   0  0  1  0  0  3  0  0  0  0  0  0
  186.3280  178.7220  144.6280 C   0  0  2  0  0  3  0  0  0  0  0  0
  185.5770  178.0500  141.1120 C   0  0  0  0  0  3  0  0  0  0  0  0
  186.5600  178.1610  142.0990 C   0  0  0  0  0  0  0  0  0  0  0  0
  184.3550  178.1760  141.7920 C   0  0  0  0  0  0  0  0  0  0  0  0
  183.9590  178.6620  144.3520 C   0  0  0  0  0  2  0  0  0  0  0  0
  185.9740  178.2930  143.2970 N   0  0  0  0  0  0  0  0  0  0  0  0
  185.7200  178.1220  147.3500 N   0  0  0  0  0  0  0  0  0  0  0  0
  187.1110  177.6940  145.3990 C   0  0  0  0  0  3  0  0  0  0  0  0
  181.9100  178.7060  141.9220 N   0  0  0  0  0  2  0  0  0  0  0  0
  182.8500  177.7300  140.0220 O   0  0  0  0  0  0  0  0  0  0  0  0
  180.5660  178.7380  141.3700 C   0  0  0  0  0  1  0  0  0  0  0  0
  183.0170  178.1830  141.1870 C   0  0  0  0  0  0  0  0  0  0  0  0
  188.0320  178.1470  141.8720 C   0  0  0  0  0  2  0  0  0  0  0  0
  188.6090  176.9420  142.4550 N   0  0  0  0  0  0  0  0  0  0  0  0
  188.3840  175.8350  141.5360 C   0  0  0  0  0  1  0  0  0  0  0  0
  190.0490  177.1310  142.6770 C   0  0  0  0  0  2  0  0  0  0  0  0
  190.4130  177.5560  144.1040 C   0  0  0  0  0  2  0  0  0  0  0  0
  190.6720  176.3380  144.9670 C   0  0  0  0  0  2  0  0  0  0  0  0
  191.7500  176.6260  145.8980 N   0  0  0  0  0  2  0  0  0  0  0  0
  194.1800  176.7060  146.5550 C   0  0  0  0  0  1  0  0  0  0  0  0
  193.1180  176.3930  145.5640 C   0  0  0  0  0  0  0  0  0  0  0  0
  193.4350  175.9260  144.4380 O   0  0  0  0  0  0  0  0  0  0  0  0
  1 11  2  0  0  0  0
  2 10  1  0  0  0  0
  2  9  1  0  0  0  0
  3 11  1  0  0  0  0
  4  9  1  6  0  0  0
  4  1  1  0  0  0  0
  5  4  1  0  0  0  0
  5 12  1  1  0  0  0
  6  8  1  0  0  0  0
  6  7  2  0  0  0  0
  7 10  1  0  0  0  0
  8  2  2  0  0  0  0
 10  5  1  0  0  0  0
 12  3  2  0  0  0  0
 14 16  2  0  0  0  0
 15 13  1  0  0  0  0
 16  8  1  0  0  0  0
 16 13  1  0  0  0  0
 17  7  1  0  0  0  0
 17 18  1  0  0  0  0
 18 20  1  0  0  0  0
 19 18  1  0  0  0  0
 20 21  1  0  0  0  0
 21 22  1  0  0  0  0
 22 23  1  0  0  0  0
 25 23  1  0  0  0  0
 25 24  1  0  0  0  0
 26 25  2  0  0  0  0
M  END
>  <MODEL>
4

>  <REMARK>
 VINA RESULT:      -6.7      1.127      1.542
  Name = 
  7 active torsions:
  status: ('A' for Active; 'I' for Inactive)
    1  A    between atoms: C_2  and  N_10
    2  A    between atoms: C_2  and  C_24
    3  A    between atoms: N_3  and  C_17
    4  A    between atoms: N_10  and  C_13
    5  A    between atoms: C_13  and  C_15
    6  A    between atoms: C_16  and  C_19
    7  A    between atoms: C_17  and  C_24
                            x       y       z     vdW  Elec       q    Type
                         _______ _______ _______ _____ _____    ______ ____

>  <TORSDO>
F 7

$$$$
=
 OpenBabel11042416103D

 26 28  0  0  1  0  0  0  0  0999 V2000
  184.8670  177.3740  146.7570 C   0  0  0  0  0  3  0  0  0  0  0  0
  188.2420  177.2470  145.5540 C   0  0  0  0  0  0  0  0  0  0  0  0
  184.4020  179.0560  145.0970 C   0  0  0  0  0  3  0  0  0  0  0  0
  186.1120  177.1040  146.0420 C   0  0  1  0  0  3  0  0  0  0  0  0
  186.2060  177.4550  144.5770 C   0  0  2  0  0  3  0  0  0  0  0  0
  189.8180  177.4490  143.9980 C   0  0  0  0  0  3  0  0  0  0  0  0
  188.5480  177.6930  143.4690 C   0  0  0  0  0  0  0  0  0  0  0  0
  189.6030  177.1580  145.3550 C   0  0  0  0  0  0  0  0  0  0  0  0
  187.3090  176.9610  146.6340 C   0  0  0  0  0  2  0  0  0  0  0  0
  187.6350  177.6060  144.4470 N   0  0  0  0  0  0  0  0  0  0  0  0
  184.0680  178.2840  146.2730 N   0  0  0  0  0  0  0  0  0  0  0  0
  185.4450  178.7260  144.3150 C   0  0  0  0  0  3  0  0  0  0  0  0
  191.7130  175.9400  145.9400 N   0  0  0  0  0  2  0  0  0  0  0  0
  190.5440  177.1910  147.5250 O   0  0  0  0  0  0  0  0  0  0  0  0
  192.7530  175.5340  146.8700 C   0  0  0  0  0  1  0  0  0  0  0  0
  190.6270  176.7770  146.3370 C   0  0  0  0  0  0  0  0  0  0  0  0
  188.2370  177.9930  142.0440 C   0  0  0  0  0  2  0  0  0  0  0  0
  187.3280  176.9840  141.5140 N   0  0  0  0  0  0  0  0  0  0  0  0
  186.6590  177.5390  140.3450 C   0  0  0  0  0  1  0  0  0  0  0  0
  188.0780  175.7770  141.1420 C   0  0  0  0  0  2  0  0  0  0  0  0
  187.7760  174.5570  142.0180 C   0  0  0  0  0  2  0  0  0  0  0  0
  189.0560  173.8170  142.3520 C   0  0  0  0  0  2  0  0  0  0  0  0
  190.1920  174.7010  142.1480 N   0  0  0  0  0  2  0  0  0  0  0  0
  192.6240  175.3120  142.3830 C   0  0  0  0  0  1  0  0  0  0  0  0
  191.4980  174.3710  142.6180 C   0  0  0  0  0  0  0  0  0  0  0  0
  191.7070  173.2910  143.2310 O   0  0  0  0  0  0  0  0  0  0  0  0
  2  9  1  0  0  0  0
  3 11  1  0  0  0  0
  4  9  1  1  0  0  0
  4  1  1  0  0  0  0
  5 12  1  1  0  0  0
  5  4  1  0  0  0  0
  6  8  1  0  0  0  0
  7  6  2  0  0  0  0
  7 10  1  0  0  0  0
  8  2  2  0  0  0  0
  8 16  1  0  0  0  0
 10  5  1  0  0  0  0
 10  2  1  0  0  0  0
 11  1  2  0  0  0  0
 12  3  2  0  0  0  0
 13 16  1  0  0  0  0
 13 15  1  0  0  0  0
 16 14  2  0  0  0  0
 17  7  1  0  0  0  0
 18 17  1  0  0  0  0
 19 18  1  0  0  0  0
 20 18  1  0  0  0  0
 20 21  1  0  0  0  0
 21 22  1  0  0  0  0
 23 22  1  0  0  0  0
 23 25  1  0  0  0  0
 24 25  1  0  0  0  0
 25 26  2  0  0  0  0
M  END
>  <MODEL>
5

>  <REMARK>
 VINA RESULT:      -6.6      2.964      5.497
  Name = 
  7 active torsions:
  status: ('A' for Active; 'I' for Inactive)
    1  A    between atoms: C_2  and  N_10
    2  A    between atoms: C_2  and  C_24
    3  A    between atoms: N_3  and  C_17
    4  A    between atoms: N_10  and  C_13
    5  A    between atoms: C_13  and  C_15
    6  A    between atoms: C_16  and  C_19
    7  A    between atoms: C_17  and  C_24
                            x       y       z     vdW  Elec       q    Type
                         _______ _______ _______ _____ _____    ______ ____

>  <TORSDO>
F 7

$$$$
=
 OpenBabel11042416103D

 26 28  0  0  1  0  0  0  0  0999 V2000
  184.4460  178.1760  146.9600 C   0  0  0  0  0  3  0  0  0  0  0  0
  187.5600  176.6930  145.9790 C   0  0  0  0  0  0  0  0  0  0  0  0
  184.2810  179.1400  144.7590 C   0  0  0  0  0  3  0  0  0  0  0  0
  185.5140  177.3260  146.4380 C   0  0  1  0  0  3  0  0  0  0  0  0
  185.5660  177.0430  144.9560 C   0  0  2  0  0  3  0  0  0  0  0  0
  188.9920  175.8460  144.5040 C   0  0  0  0  0  3  0  0  0  0  0  0
  187.7840  176.1960  143.8950 C   0  0  0  0  0  0  0  0  0  0  0  0
  188.8310  176.1730  145.8600 C   0  0  0  0  0  0  0  0  0  0  0  0
  186.6820  177.1100  147.0630 C   0  0  0  0  0  2  0  0  0  0  0  0
  186.9690  176.7430  144.8070 N   0  0  0  0  0  0  0  0  0  0  0  0
  183.8660  179.0050  146.1380 N   0  0  0  0  0  0  0  0  0  0  0  0
  185.1320  178.2660  144.1950 C   0  0  0  0  0  3  0  0  0  0  0  0
  190.6960  176.9910  147.3180 N   0  0  0  0  0  2  0  0  0  0  0  0
  189.8510  174.8250  147.5160 O   0  0  0  0  0  0  0  0  0  0  0  0
  191.6780  176.8190  148.3750 C   0  0  0  0  0  1  0  0  0  0  0  0
  189.8050  175.9430  146.9340 C   0  0  0  0  0  0  0  0  0  0  0  0
  187.4370  175.9910  142.4610 C   0  0  0  0  0  2  0  0  0  0  0  0
  187.3130  177.2820  141.7950 N   0  0  0  0  0  0  0  0  0  0  0  0
  188.5550  178.0180  141.9870 C   0  0  0  0  0  1  0  0  0  0  0  0
  187.0560  177.0860  140.3620 C   0  0  0  0  0  2  0  0  0  0  0  0
  185.8810  177.9050  139.8170 C   0  0  0  0  0  2  0  0  0  0  0  0
  184.7820  178.0050  140.8550 C   0  0  0  0  0  2  0  0  0  0  0  0
  183.4910  178.0400  140.1900 N   0  0  0  0  0  2  0  0  0  0  0  0
  180.9840  178.2890  140.1770 C   0  0  0  0  0  1  0  0  0  0  0  0
  182.2780  178.2640  140.9080 C   0  0  0  0  0  0  0  0  0  0  0  0
  182.2920  178.4400  142.1550 O   0  0  0  0  0  0  0  0  0  0  0  0
  2  9  1  0  0  0  0
  3 11  1  0  0  0  0
  4  1  1  6  0  0  0
  4  9  1  0  0  0  0
  5 12  1  6  0  0  0
  5  4  1  0  0  0  0
  6  8  1  0  0  0  0
  7  6  2  0  0  0  0
  7 10  1  0  0  0  0
  8  2  2  0  0  0  0
  8 16  1  0  0  0  0
 10  5  1  0  0  0  0
 10  2  1  0  0  0  0
 11  1  2  0  0  0  0
 12  3  2  0  0  0  0
 13 15  1  0  0  0  0
 16 13  1  0  0  0  0
 16 14  2  0  0  0  0
 17  7  1  0  0  0  0
 18 19  1  0  0  0  0
 18 17  1  0  0  0  0
 20 18  1  0  0  0  0
 21 20  1  0  0  0  0
 21 22  1  0  0  0  0
 23 22  1  0  0  0  0
 23 25  1  0  0  0  0
 24 25  1  0  0  0  0
 25 26  2  0  0  0  0
M  END
>  <MODEL>
6

>  <REMARK>
 VINA RESULT:      -6.4      1.726      6.647
  Name = 
  7 active torsions:
  status: ('A' for Active; 'I' for Inactive)
    1  A    between atoms: C_2  and  N_10
    2  A    between atoms: C_2  and  C_24
    3  A    between atoms: N_3  and  C_17
    4  A    between atoms: N_10  and  C_13
    5  A    between atoms: C_13  and  C_15
    6  A    between atoms: C_16  and  C_19
    7  A    between atoms: C_17  and  C_24
                            x       y       z     vdW  Elec       q    Type
                         _______ _______ _______ _____ _____    ______ ____

>  <TORSDO>
F 7

$$$$
=
 OpenBabel11042416103D

 26 28  0  0  1  0  0  0  0  0999 V2000
  184.0350  178.9740  145.3010 C   0  0  0  0  0  3  0  0  0  0  0  0
  186.2900  177.9120  142.7230 C   0  0  0  0  0  0  0  0  0  0  0  0
  185.2670  177.6090  146.8570 C   0  0  0  0  0  3  0  0  0  0  0  0
  185.1450  178.7970  144.3670 C   0  0  1  0  0  3  0  0  0  0  0  0
  186.5150  178.4690  144.9100 C   0  0  2  0  0  3  0  0  0  0  0  0
  188.2480  177.1950  141.9520 C   0  0  0  0  0  3  0  0  0  0  0  0
  188.3020  177.4340  143.3280 C   0  0  0  0  0  0  0  0  0  0  0  0
  186.9350  177.5120  141.5720 C   0  0  0  0  0  0  0  0  0  0  0  0
  184.9980  178.4880  143.0690 C   0  0  0  0  0  2  0  0  0  0  0  0
  187.0920  177.8190  143.7590 N   0  0  0  0  0  0  0  0  0  0  0  0
  184.1330  178.4220  146.4780 N   0  0  0  0  0  0  0  0  0  0  0  0
  186.3790  177.5620  146.1020 C   0  0  0  0  0  3  0  0  0  0  0  0
  186.9370  176.5750  139.2490 N   0  0  0  0  0  2  0  0  0  0  0  0
  185.4390  178.2450  139.8920 O   0  0  0  0  0  0  0  0  0  0  0  0
  186.4340  176.5000  137.8880 C   0  0  0  0  0  1  0  0  0  0  0  0
  186.3890  177.4790  140.2090 C   0  0  0  0  0  0  0  0  0  0  0  0
  189.5060  177.2980  144.1940 C   0  0  0  0  0  2  0  0  0  0  0  0
  190.6910  177.1190  143.3650 N   0  0  0  0  0  0  0  0  0  0  0  0
  191.6010  178.2270  143.6220 C   0  0  0  0  0  1  0  0  0  0  0  0
  191.3430  175.8430  143.6880 C   0  0  0  0  0  2  0  0  0  0  0  0
  192.6700  175.9900  144.4410 C   0  0  0  0  0  2  0  0  0  0  0  0
  192.5950  175.2910  145.7830 C   0  0  0  0  0  2  0  0  0  0  0  0
  191.2380  174.8230  146.0090 N   0  0  0  0  0  2  0  0  0  0  0  0
  189.1090  174.6910  147.3480 C   0  0  0  0  0  1  0  0  0  0  0  0
  190.4930  175.1990  147.1670 C   0  0  0  0  0  0  0  0  0  0  0  0
  190.9980  175.9570  148.0380 O   0  0  0  0  0  0  0  0  0  0  0  0
  1 11  2  0  0  0  0
  2  9  1  0  0  0  0
  2 10  1  0  0  0  0
  4  9  1  6  0  0  0
  4  5  1  0  0  0  0
  4  1  1  0  0  0  0
  5 12  1  1  0  0  0
  6  7  2  0  0  0  0
  7 10  1  0  0  0  0
  7 17  1  0  0  0  0
  8  6  1  0  0  0  0
  8  2  2  0  0  0  0
 10  5  1  0  0  0  0
 11  3  1  0  0  0  0
 12  3  2  0  0  0  0
 13 16  1  0  0  0  0
 14 16  2  0  0  0  0
 15 13  1  0  0  0  0
 16  8  1  0  0  0  0
 18 19  1  0  0  0  0
 18 20  1  0  0  0  0
 18 17  1  0  0  0  0
 20 21  1  0  0  0  0
 21 22  1  0  0  0  0
 22 23  1  0  0  0  0
 23 25  1  0  0  0  0
 25 24  1  0  0  0  0
 25 26  2  0  0  0  0
M  END
>  <MODEL>
7

>  <REMARK>
 VINA RESULT:      -6.4      2.012      2.794
  Name = 
  7 active torsions:
  status: ('A' for Active; 'I' for Inactive)
    1  A    between atoms: C_2  and  N_10
    2  A    between atoms: C_2  and  C_24
    3  A    between atoms: N_3  and  C_17
    4  A    between atoms: N_10  and  C_13
    5  A    between atoms: C_13  and  C_15
    6  A    between atoms: C_16  and  C_19
    7  A    between atoms: C_17  and  C_24
                            x       y       z     vdW  Elec       q    Type
                         _______ _______ _______ _____ _____    ______ ____

>  <TORSDO>
F 7

$$$$
=
 OpenBabel11042416103D

 26 28  0  0  1  0  0  0  0  0999 V2000
  190.4780  175.2910  147.2320 C   0  0  0  0  0  3  0  0  0  0  0  0
  189.5570  174.4090  143.8810 C   0  0  0  0  0  0  0  0  0  0  0  0
  189.7570  177.5430  146.7740 C   0  0  0  0  0  3  0  0  0  0  0  0
  189.7950  174.8910  146.0040 C   0  0  1  0  0  3  0  0  0  0  0  0
  188.6660  175.7460  145.4820 C   0  0  2  0  0  3  0  0  0  0  0  0
  188.3670  174.6220  142.0140 C   0  0  0  0  0  3  0  0  0  0  0  0
  187.9350  175.5180  142.9960 C   0  0  0  0  0  0  0  0  0  0  0  0
  189.4210  173.9060  142.6050 C   0  0  0  0  0  0  0  0  0  0  0  0
  190.3250  174.0810  145.0730 C   0  0  0  0  0  2  0  0  0  0  0  0
  188.7060  175.3890  144.0850 N   0  0  0  0  0  0  0  0  0  0  0  0
  190.4220  176.5450  147.5830 N   0  0  0  0  0  0  0  0  0  0  0  0
  188.9750  177.1960  145.7370 C   0  0  0  0  0  3  0  0  0  0  0  0
  190.1000  171.4950  142.5610 N   0  0  0  0  0  2  0  0  0  0  0  0
  190.8850  173.0150  140.9730 O   0  0  0  0  0  0  0  0  0  0  0  0
  190.8250  170.3690  141.9970 C   0  0  0  0  0  1  0  0  0  0  0  0
  190.1760  172.8040  141.9950 C   0  0  0  0  0  0  0  0  0  0  0  0
  186.7940  176.4670  142.8730 C   0  0  0  0  0  2  0  0  0  0  0  0
  187.2940  177.8350  142.8250 N   0  0  0  0  0  0  0  0  0  0  0  0
  188.1290  177.9770  141.6400 C   0  0  0  0  0  1  0  0  0  0  0  0
  186.1700  178.7790  142.7670 C   0  0  0  0  0  2  0  0  0  0  0  0
  184.8070  178.1520  143.0830 C   0  0  0  0  0  2  0  0  0  0  0  0
  184.0710  178.9830  144.1150 C   0  0  0  0  0  2  0  0  0  0  0  0
  184.9860  179.3470  145.1840 N   0  0  0  0  0  2  0  0  0  0  0  0
  186.0680  178.9780  147.4280 C   0  0  0  0  0  1  0  0  0  0  0  0
  185.1180  178.5580  146.3660 C   0  0  0  0  0  0  0  0  0  0  0  0
  184.4370  177.5090  146.5170 O   0  0  0  0  0  0  0  0  0  0  0  0
  1 11  2  0  0  0  0
  2 10  1  0  0  0  0
  2  9  1  0  0  0  0
  3 11  1  0  0  0  0
  4  9  1  6  0  0  0
  4  1  1  0  0  0  0
  5 12  1  6  0  0  0
  5  4  1  0  0  0  0
  6  8  1  0  0  0  0
  6  7  2  0  0  0  0
  7 10  1  0  0  0  0
  8  2  2  0  0  0  0
 10  5  1  0  0  0  0
 12  3  2  0  0  0  0
 14 16  2  0  0  0  0
 15 13  1  0  0  0  0
 16 13  1  0  0  0  0
 16  8  1  0  0  0  0
 17  7  1  0  0  0  0
 18 17  1  0  0  0  0
 19 18  1  0  0  0  0
 20 18  1  0  0  0  0
 20 21  1  0  0  0  0
 21 22  1  0  0  0  0
 22 23  1  0  0  0  0
 23 25  1  0  0  0  0
 25 26  2  0  0  0  0
 25 24  1  0  0  0  0
M  END
>  <MODEL>
8

>  <REMARK>
 VINA RESULT:      -6.3      2.717      6.344
  Name = 
  7 active torsions:
  status: ('A' for Active; 'I' for Inactive)
    1  A    between atoms: C_2  and  N_10
    2  A    between atoms: C_2  and  C_24
    3  A    between atoms: N_3  and  C_17
    4  A    between atoms: N_10  and  C_13
    5  A    between atoms: C_13  and  C_15
    6  A    between atoms: C_16  and  C_19
    7  A    between atoms: C_17  and  C_24
                            x       y       z     vdW  Elec       q    Type
                         _______ _______ _______ _____ _____    ______ ____

>  <TORSDO>
F 7

$$$$
=
 OpenBabel11042416103D

 26 28  0  0  1  0  0  0  0  0999 V2000
  186.5520  177.5870  140.6250 C   0  0  0  0  0  3  0  0  0  0  0  0
  188.8510  175.2140  142.0170 C   0  0  0  0  0  0  0  0  0  0  0  0
  186.2970  178.5400  142.8220 C   0  0  0  0  0  3  0  0  0  0  0  0
  187.7150  176.8690  141.1410 C   0  0  1  0  0  3  0  0  0  0  0  0
  188.4440  177.4220  142.3420 C   0  0  2  0  0  3  0  0  0  0  0  0
  190.3760  174.5350  143.4860 C   0  0  0  0  0  3  0  0  0  0  0  0
  189.9980  175.8590  143.7230 C   0  0  0  0  0  0  0  0  0  0  0  0
  189.6240  174.1300  142.3720 C   0  0  0  0  0  0  0  0  0  0  0  0
  187.9560  175.5660  140.9240 C   0  0  0  0  0  2  0  0  0  0  0  0
  189.0470  176.2130  142.8480 N   0  0  0  0  0  0  0  0  0  0  0  0
  185.9180  178.3880  141.4350 N   0  0  0  0  0  0  0  0  0  0  0  0
  187.4530  178.0380  143.2920 C   0  0  0  0  0  3  0  0  0  0  0  0
  190.1090  172.7650  140.3280 N   0  0  0  0  0  2  0  0  0  0  0  0
  189.4100  171.7740  142.3210 O   0  0  0  0  0  0  0  0  0  0  0  0
  190.2040  171.5050  139.6110 C   0  0  0  0  0  1  0  0  0  0  0  0
  189.7010  172.8290  141.6950 C   0  0  0  0  0  0  0  0  0  0  0  0
  190.5590  176.7540  144.7730 C   0  0  0  0  0  2  0  0  0  0  0  0
  190.2180  176.2400  146.0940 N   0  0  0  0  0  0  0  0  0  0  0  0
  191.3570  176.4520  146.9770 C   0  0  0  0  0  1  0  0  0  0  0  0
  189.0360  176.9380  146.6150 C   0  0  0  0  0  2  0  0  0  0  0  0
  187.7310  176.1460  146.4840 C   0  0  0  0  0  2  0  0  0  0  0  0
  186.6530  176.7560  147.3580 C   0  0  0  0  0  2  0  0  0  0  0  0
  185.5240  177.1470  146.5320 N   0  0  0  0  0  2  0  0  0  0  0  0
  183.9330  178.8480  145.5730 C   0  0  0  0  0  1  0  0  0  0  0  0
  185.0950  178.5050  146.4330 C   0  0  0  0  0  0  0  0  0  0  0  0
  185.6920  179.4150  147.0670 O   0  0  0  0  0  0  0  0  0  0  0  0
  1 11  2  0  0  0  0
  2  8  2  0  0  0  0
  2 10  1  0  0  0  0
  3 12  2  0  0  0  0
  4  1  1  1  0  0  0
  4  5  1  0  0  0  0
  5 10  1  0  0  0  0
  5 12  1  1  0  0  0
  6  7  2  0  0  0  0
  7 17  1  0  0  0  0
  8  6  1  0  0  0  0
  9  4  1  0  0  0  0
  9  2  1  0  0  0  0
 10  7  1  0  0  0  0
 11  3  1  0  0  0  0
 13 16  1  0  0  0  0
 15 13  1  0  0  0  0
 16 14  2  0  0  0  0
 16  8  1  0  0  0  0
 17 18  1  0  0  0  0
 18 20  1  0  0  0  0
 18 19  1  0  0  0  0
 21 20  1  0  0  0  0
 21 22  1  0  0  0  0
 23 22  1  0  0  0  0
 24 25  1  0  0  0  0
 25 23  1  0  0  0  0
 25 26  2  0  0  0  0
M  END
>  <MODEL>
9

>  <REMARK>
 VINA RESULT:      -6.3      2.577      6.204
  Name = 
  7 active torsions:
  status: ('A' for Active; 'I' for Inactive)
    1  A    between atoms: C_2  and  N_10
    2  A    between atoms: C_2  and  C_24
    3  A    between atoms: N_3  and  C_17
    4  A    between atoms: N_10  and  C_13
    5  A    between atoms: C_13  and  C_15
    6  A    between atoms: C_16  and  C_19
    7  A    between atoms: C_17  and  C_24
                            x       y       z     vdW  Elec       q    Type
                         _______ _______ _______ _____ _____    ______ ____

>  <TORSDO>
F 7

$$$$
