=
 OpenBabel11042417343D

 68 74  0  0  1  0  0  0  0  0999 V2000
  193.9670  174.6580  142.1340 C   0  0  2  0  0  0  0  0  0  0  0  0
  194.0300  175.7160  141.2180 O   0  0  0  0  0  1  0  0  0  0  0  0
  195.0570  170.9700  141.5660 C   0  0  0  0  0  0  0  0  0  0  0  0
  196.8330  170.1440  139.9140 C   0  0  2  0  0  3  0  0  0  0  0  0
  195.4460  168.5330  141.1990 C   0  0  0  0  0  2  0  0  0  0  0  0
  196.9060  172.4060  140.8710 N   0  0  0  0  0  2  0  0  0  0  0  0
  195.9470  168.9080  139.8120 C   0  0  0  0  0  2  0  0  0  0  0  0
  194.7520  169.6880  141.8770 C   0  0  0  0  0  0  0  0  0  0  0  0
  196.1850  173.6240  141.2860 C   0  0  0  0  0  2  0  0  0  0  0  0
  194.3740  172.1200  142.2590 C   0  0  0  0  0  2  0  0  0  0  0  0
  194.6700  173.4300  141.5220 C   0  0  1  0  0  3  0  0  0  0  0  0
  196.0110  171.3280  140.4350 C   0  0  2  0  0  3  0  0  0  0  0  0
  193.7660  169.3680  142.9600 C   0  0  0  0  0  2  0  0  0  0  0  0
  194.3610  168.4550  143.9230 N   0  0  0  0  0  2  0  0  0  0  0  0
  195.5400  169.0620  144.3760 N   0  0  0  0  0  2  0  0  0  0  0  0
  195.2840  169.5040  145.6810 N   0  0  0  0  0  2  0  0  0  0  0  0
  195.3800  170.9540  145.6740 C   0  0  0  0  0  2  0  0  0  0  0  0
  196.8750  172.8990  145.9510 C   0  0  0  0  0  2  0  0  0  0  0  0
  196.7880  171.3890  146.0360 C   0  0  0  0  0  3  0  0  0  0  0  0
  197.4390  172.0440  144.8360 C   0  0  0  0  0  2  0  0  0  0  0  0
  197.3820  170.4840  138.5360 C   0  0  0  0  0  2  0  0  0  0  0  0
  196.2880  170.4070  137.4880 C   0  0  0  0  0  2  0  0  0  0  0  0
  196.4180  171.5320  136.5750 N   0  0  0  0  0  2  0  0  0  0  0  0
  194.1610  171.5890  137.2050 O   0  0  0  0  0  1  0  0  0  0  0  0
  195.2240  172.3590  136.7120 C   0  0  1  0  0  3  0  0  0  0  0  0
  193.3250  174.7680  138.0940 O   0  0  0  0  0  0  0  0  0  0  0  0
  195.5360  173.5750  137.6000 C   0  0  1  0  0  3  0  0  0  0  0  0
  195.6930  174.7130  136.8530 O   0  0  0  0  0  0  0  0  0  0  0  0
  194.4680  174.4470  137.6760 C   0  0  0  0  0  0  0  0  0  0  0  0
  192.5190  174.3550  142.4160 C   0  0  0  0  0  3  0  0  0  0  0  0
  192.1580  173.6680  143.5000 C   0  0  0  0  0  3  0  0  0  0  0  0
  190.7250  173.4120  143.8070 C   0  0  0  0  0  2  0  0  0  0  0  0
  190.5820  173.2130  145.3050 C   0  0  0  0  0  2  0  0  0  0  0  0
  191.2090  175.0560  146.8650 C   0  0  0  0  0  3  0  0  0  0  0  0
  188.7800  176.3960  146.3540 C   0  0  0  0  0  0  0  0  0  0  0  0
  189.7370  176.9450  147.2490 C   0  0  0  0  0  0  0  0  0  0  0  0
  189.5350  178.2050  147.8820 N   0  0  0  0  0  1  0  0  0  0  0  0
  189.0810  175.1740  145.7240 C   0  0  0  0  0  3  0  0  0  0  0  0
  190.2810  174.5050  145.9790 C   0  0  0  0  0  0  0  0  0  0  0  0
  190.9360  176.2700  147.4930 C   0  0  0  0  0  3  0  0  0  0  0  0
  186.3340  176.7220  146.8080 C   0  0  0  0  0  3  0  0  0  0  0  0
  187.4750  177.0510  146.0540 C   0  0  0  0  0  0  0  0  0  0  0  0
  184.9970  178.2830  145.5320 C   0  0  0  0  0  0  0  0  0  0  0  0
  185.1030  177.3320  146.5480 C   0  0  0  0  0  3  0  0  0  0  0  0
  186.1210  178.6240  144.7760 C   0  0  0  0  0  3  0  0  0  0  0  0
  187.3510  178.0150  145.0400 C   0  0  0  0  0  3  0  0  0  0  0  0
  183.7730  178.8820  145.2700 O   0  0  0  0  0  1  0  0  0  0  0  0
  194.6550  175.0610  143.4550 C   0  0  0  0  0  2  0  0  0  0  0  0
  193.7400  175.5420  144.5880 C   0  0  1  0  0  3  0  0  0  0  0  0
  194.2220  175.1840  145.8490 O   0  0  0  0  0  0  0  0  0  0  0  0
  194.6030  176.3940  146.4390 C   0  0  0  0  0  1  0  0  0  0  0  0
  193.5410  177.0450  144.5050 C   0  0  0  0  0  2  0  0  0  0  0  0
  192.4680  177.3490  143.5200 C   0  0  0  0  0  3  0  0  0  0  0  0
  191.2100  177.5080  143.9270 C   0  0  0  0  0  3  0  0  0  0  0  0
  190.1290  177.8070  142.9420 C   0  0  0  0  0  2  0  0  0  0  0  0
  189.5030  176.5690  142.5010 N   0  0  0  0  0  2  0  0  0  0  0  0
  187.2010  176.2730  142.0800 O   0  0  0  0  0  0  0  0  0  0  0  0
  188.3730  176.9120  141.6460 C   0  0  2  0  0  0  0  0  0  0  0  0
  187.6900  175.8900  140.8110 C   0  0  1  0  0  3  0  0  0  0  0  0
  188.1390  178.2660  141.4000 O   0  0  0  0  0  1  0  0  0  0  0  0
  188.3180  174.5020  140.9140 C   0  0  2  0  0  3  0  0  0  0  0  0
  188.8200  173.9920  139.5530 C   0  0  2  0  0  3  0  0  0  0  0  0
  188.1200  172.8570  139.1510 O   0  0  0  0  0  1  0  0  0  0  0  0
  190.3150  173.6920  139.5630 C   0  0  0  0  0  2  0  0  0  0  0  0
  190.5620  172.4240  140.0970 O   0  0  0  0  0  0  0  0  0  0  0  0
  191.3700  171.7960  139.1500 C   0  0  0  0  0  1  0  0  0  0  0  0
  188.3880  172.2490  142.5790 S   0  0  0  0  0  1  0  0  0  0  0  0
  187.4310  173.5190  141.6870 C   0  0  0  0  0  2  0  0  0  0  0  0
  1  2  1  6  0  0  0
  1 30  1  0  0  0  0
  1 48  1  0  0  0  0
  3  8  2  0  0  0  0
  3 10  1  0  0  0  0
  4 21  1  6  0  0  0
  4 12  1  0  0  0  0
  5  8  1  0  0  0  0
  6  9  1  0  0  0  0
  7  4  1  0  0  0  0
  7  5  1  0  0  0  0
  8 13  1  0  0  0  0
  9 11  1  0  0  0  0
 11  1  1  1  0  0  0
 11 10  1  0  0  0  0
 12  6  1  1  0  0  0
 12  3  1  0  0  0  0
 13 14  1  0  0  0  0
 14 15  1  0  0  0  0
 15 16  1  0  0  0  0
 17 16  1  0  0  0  0
 17 19  1  0  0  0  0
 18 19  1  0  0  0  0
 20 18  1  0  0  0  0
 20 19  1  0  0  0  0
 22 21  1  0  0  0  0
 23 25  1  0  0  0  0
 23 22  1  0  0  0  0
 25 24  1  1  0  0  0
 27 25  1  6  0  0  0
 27 29  1  0  0  0  0
 28 27  1  0  0  0  0
 28 29  1  0  0  0  0
 29 26  2  0  0  0  0
 30 31  2  0  0  0  0
 31 32  1  0  0  0  0
 32 33  1  0  0  0  0
 33 39  1  0  0  0  0
 34 40  1  0  0  0  0
 35 36  1  0  0  0  0
 36 40  2  0  0  0  0
 36 37  1  0  0  0  0
 38 39  1  0  0  0  0
 38 35  2  0  0  0  0
 39 34  2  0  0  0  0
 42 35  1  0  0  0  0
 42 41  2  0  0  0  0
 43 44  2  0  0  0  0
 44 41  1  0  0  0  0
 45 46  2  0  0  0  0
 45 43  1  0  0  0  0
 46 42  1  0  0  0  0
 47 43  1  0  0  0  0
 49 48  1  6  0  0  0
 49 50  1  0  0  0  0
 50 51  1  0  0  0  0
 52 49  1  0  0  0  0
 53 54  2  0  0  0  0
 53 52  1  0  0  0  0
 55 54  1  0  0  0  0
 56 55  1  0  0  0  0
 58 60  1  6  0  0  0
 58 57  1  0  0  0  0
 58 56  1  0  0  0  0
 59 61  1  1  0  0  0
 59 58  1  0  0  0  0
 59 57  1  0  0  0  0
 61 68  1  6  0  0  0
 62 63  1  1  0  0  0
 62 64  1  0  0  0  0
 62 61  1  0  0  0  0
 64 65  1  0  0  0  0
 66 65  1  0  0  0  0
 68 67  1  0  0  0  0
M  END
>  <MODEL>
1

>  <REMARK>
 VINA RESULT:      -5.4      0.000      0.000
  Name = 
  30 active torsions:
  status: ('A' for Active; 'I' for Inactive)
    1  A    between atoms: C_4  and  C_25
    2  A    between atoms: C_4  and  N_65
    3  A    between atoms: O_6  and  C_38
    4  A    between atoms: N_7  and  N_22
    5  A    between atoms: N_7  and  N_68
    6  A    between atoms: C_8  and  C_12
    7  A    between atoms: C_9  and  C_25
    8  A    between atoms: C_13  and  N_24
    9  A    between atoms: O_14  and  C_63
   10  A    between atoms: C_17  and  C_43
   11  A    between atoms: C_20  and  C_50
   12  A    between atoms: C_20  and  C_63
   13  A    between atoms: C_21  and  C_44
   14  A    between atoms: C_21  and  N_65
   15  A    between atoms: N_22  and  C_49
   16  A    between atoms: N_24  and  C_56
   17  A    between atoms: C_26  and  C_34
   18  A    between atoms: C_26  and  C_38
   19  A    between atoms: C_30  and  C_59
   20  A    between atoms: C_32  and  C_56
   21  A    between atoms: C_34  and  C_55
   22  A    between atoms: C_34  and  C_64
   23  A    between atoms: C_35  and  C_50
   24  A    between atoms: C_36  and  C_54
   25  A    between atoms: C_36  and  C_60
   26  A    between atoms: C_38  and  C_43
   27  A    between atoms: C_40  and  C_49
   28  A    between atoms: C_48  and  C_50
   29  A    between atoms: C_54  and  C_67
   30  A    between atoms: C_59  and  N_68
                            x       y       z     vdW  Elec       q    Type
                         _______ _______ _______ _____ _____    ______ ____

>  <TORSDO>
F 30

$$$$
=
 OpenBabel11042417343D

 68 74  0  0  1  0  0  0  0  0999 V2000
  190.3760  174.9570  142.3310 C   0  0  2  0  0  0  0  0  0  0  0  0
  191.5670  175.6720  142.1420 O   0  0  0  0  0  1  0  0  0  0  0  0
  187.3560  176.8520  140.7840 C   0  0  0  0  0  0  0  0  0  0  0  0
  186.0800  178.8070  141.8410 C   0  0  2  0  0  3  0  0  0  0  0  0
  185.2990  177.7810  139.7190 C   0  0  0  0  0  2  0  0  0  0  0  0
  188.4350  178.3530  142.3800 N   0  0  0  0  0  2  0  0  0  0  0  0
  184.8770  178.2210  141.1130 C   0  0  0  0  0  2  0  0  0  0  0  0
  186.4700  176.8320  139.7590 C   0  0  0  0  0  0  0  0  0  0  0  0
  189.4960  177.3700  142.6660 C   0  0  0  0  0  2  0  0  0  0  0  0
  188.5340  175.9140  140.8110 C   0  0  0  0  0  2  0  0  0  0  0  0
  189.1880  175.9300  142.1960 C   0  0  1  0  0  3  0  0  0  0  0  0
  187.1580  177.7310  142.0110 C   0  0  2  0  0  3  0  0  0  0  0  0
  186.6630  175.9140  138.5890 C   0  0  0  0  0  2  0  0  0  0  0  0
  186.8880  176.6900  137.3800 N   0  0  0  0  0  2  0  0  0  0  0  0
  185.9840  176.2110  136.4220 N   0  0  0  0  0  2  0  0  0  0  0  0
  186.6980  176.1000  135.2210 N   0  0  0  0  0  2  0  0  0  0  0  0
  187.9620  176.7940  135.4030 C   0  0  0  0  0  2  0  0  0  0  0  0
  190.1150  175.5850  135.3850 C   0  0  0  0  0  2  0  0  0  0  0  0
  189.0290  176.1830  134.5130 C   0  0  0  0  0  3  0  0  0  0  0  0
  190.3360  176.9220  134.7100 C   0  0  0  0  0  2  0  0  0  0  0  0
  185.6460  179.3020  143.2130 C   0  0  0  0  0  2  0  0  0  0  0  0
  185.3640  178.1340  144.1400 C   0  0  0  0  0  2  0  0  0  0  0  0
  186.4020  178.0660  145.1570 N   0  0  0  0  0  2  0  0  0  0  0  0
  187.2860  176.2760  146.3850 O   0  0  0  0  0  1  0  0  0  0  0  0
  186.1010  176.9360  146.0280 C   0  0  1  0  0  3  0  0  0  0  0  0
  186.0340  179.8200  147.7590 O   0  0  0  0  0  0  0  0  0  0  0  0
  185.3020  177.4210  147.2490 C   0  0  1  0  0  3  0  0  0  0  0  0
  186.0000  177.2270  148.4120 O   0  0  0  0  0  0  0  0  0  0  0  0
  185.8280  178.5790  147.7850 C   0  0  0  0  0  0  0  0  0  0  0  0
  190.4030  174.3380  143.7030 C   0  0  0  0  0  3  0  0  0  0  0  0
  190.2910  175.0900  144.7990 C   0  0  0  0  0  3  0  0  0  0  0  0
  190.2650  174.4770  146.1530 C   0  0  0  0  0  2  0  0  0  0  0  0
  191.2470  175.2220  147.0390 C   0  0  0  0  0  2  0  0  0  0  0  0
  193.5490  176.0520  146.5530 C   0  0  0  0  0  3  0  0  0  0  0  0
  194.3770  173.4750  145.7610 C   0  0  0  0  0  0  0  0  0  0  0  0
  195.2860  174.5670  145.7410 C   0  0  0  0  0  0  0  0  0  0  0  0
  196.6510  174.3990  145.3700 N   0  0  0  0  0  1  0  0  0  0  0  0
  193.0600  173.7130  146.1950 C   0  0  0  0  0  3  0  0  0  0  0  0
  192.6450  174.9890  146.5830 C   0  0  0  0  0  0  0  0  0  0  0  0
  194.8610  175.8390  146.1350 C   0  0  0  0  0  3  0  0  0  0  0  0
  193.9130  171.3700  144.4770 C   0  0  0  0  0  3  0  0  0  0  0  0
  194.7530  172.0940  145.3430 C   0  0  0  0  0  0  0  0  0  0  0  0
  195.4380  169.4920  144.5130 C   0  0  0  0  0  0  0  0  0  0  0  0
  194.2530  170.0770  144.0660 C   0  0  0  0  0  3  0  0  0  0  0  0
  196.2850  170.1990  145.3700 C   0  0  0  0  0  3  0  0  0  0  0  0
  195.9450  171.4920  145.7770 C   0  0  0  0  0  3  0  0  0  0  0  0
  195.7710  168.2060  144.1110 O   0  0  0  0  0  1  0  0  0  0  0  0
  190.2650  173.8320  141.2810 C   0  0  0  0  0  2  0  0  0  0  0  0
  189.5470  172.5500  141.7210 C   0  0  1  0  0  3  0  0  0  0  0  0
  188.2030  172.5360  141.3400 O   0  0  0  0  0  0  0  0  0  0  0  0
  188.2310  172.5820  139.9430 C   0  0  0  0  0  1  0  0  0  0  0  0
  190.2650  171.3280  141.1760 C   0  0  0  0  0  2  0  0  0  0  0  0
  191.7340  171.5140  141.3140 C   0  0  0  0  0  3  0  0  0  0  0  0
  192.5640  170.9890  140.4150 C   0  0  0  0  0  3  0  0  0  0  0  0
  194.0400  171.1690  140.5530 C   0  0  0  0  0  2  0  0  0  0  0  0
  194.3390  172.5400  140.9380 N   0  0  0  0  0  2  0  0  0  0  0  0
  195.9420  173.5800  142.3220 O   0  0  0  0  0  0  0  0  0  0  0  0
  195.7410  172.6040  141.3340 C   0  0  2  0  0  0  0  0  0  0  0  0
  196.5680  173.8120  141.0770 C   0  0  1  0  0  3  0  0  0  0  0  0
  196.3670  171.4060  141.6830 O   0  0  0  0  0  1  0  0  0  0  0  0
  195.8170  174.9160  140.3360 C   0  0  2  0  0  3  0  0  0  0  0  0
  195.7640  174.6630  138.8200 C   0  0  2  0  0  3  0  0  0  0  0  0
  196.7300  175.4100  138.1510 O   0  0  0  0  0  1  0  0  0  0  0  0
  194.3900  174.9620  138.2310 C   0  0  0  0  0  2  0  0  0  0  0  0
  193.7520  173.7820  137.8380 O   0  0  0  0  0  0  0  0  0  0  0  0
  192.4050  173.9990  138.1250 C   0  0  0  0  0  1  0  0  0  0  0  0
  196.3870  176.5350  142.5510 S   0  0  0  0  0  1  0  0  0  0  0  0
  196.2940  176.3160  140.7430 C   0  0  0  0  0  2  0  0  0  0  0  0
  1  2  1  6  0  0  0
  1 30  1  0  0  0  0
  3 10  1  0  0  0  0
  4 12  1  0  0  0  0
  4 21  1  1  0  0  0
  5  8  1  0  0  0  0
  5  7  1  0  0  0  0
  6  9  1  0  0  0  0
  7  4  1  0  0  0  0
  8  3  2  0  0  0  0
 10 11  1  0  0  0  0
 11  1  1  6  0  0  0
 11  9  1  0  0  0  0
 12  3  1  6  0  0  0
 12  6  1  0  0  0  0
 13  8  1  0  0  0  0
 14 13  1  0  0  0  0
 15 14  1  0  0  0  0
 16 17  1  0  0  0  0
 16 15  1  0  0  0  0
 19 20  1  0  0  0  0
 19 18  1  0  0  0  0
 19 17  1  0  0  0  0
 20 18  1  0  0  0  0
 21 22  1  0  0  0  0
 22 23  1  0  0  0  0
 23 25  1  0  0  0  0
 25 24  1  1  0  0  0
 26 29  2  0  0  0  0
 27 25  1  6  0  0  0
 27 29  1  0  0  0  0
 27 28  1  0  0  0  0
 29 28  1  0  0  0  0
 30 31  2  0  0  0  0
 31 32  1  0  0  0  0
 32 33  1  0  0  0  0
 34 39  1  0  0  0  0
 35 38  1  0  0  0  0
 36 35  2  0  0  0  0
 36 40  1  0  0  0  0
 37 36  1  0  0  0  0
 38 39  2  0  0  0  0
 39 33  1  0  0  0  0
 40 34  2  0  0  0  0
 41 42  1  0  0  0  0
 42 35  1  0  0  0  0
 42 46  2  0  0  0  0
 43 45  2  0  0  0  0
 44 41  2  0  0  0  0
 44 43  1  0  0  0  0
 45 46  1  0  0  0  0
 47 43  1  0  0  0  0
 48 49  1  0  0  0  0
 48  1  1  0  0  0  0
 49 52  1  6  0  0  0
 50 49  1  0  0  0  0
 51 50  1  0  0  0  0
 52 53  1  0  0  0  0
 54 55  1  0  0  0  0
 54 53  2  0  0  0  0
 55 56  1  0  0  0  0
 56 58  1  0  0  0  0
 58 60  1  1  0  0  0
 58 57  1  0  0  0  0
 59 61  1  6  0  0  0
 59 58  1  0  0  0  0
 59 57  1  0  0  0  0
 61 68  1  6  0  0  0
 62 63  1  6  0  0  0
 62 61  1  0  0  0  0
 64 62  1  0  0  0  0
 65 66  1  0  0  0  0
 65 64  1  0  0  0  0
 68 67  1  0  0  0  0
M  END
>  <MODEL>
2

>  <REMARK>
 VINA RESULT:      -5.3      3.174     10.163
  Name = 
  30 active torsions:
  status: ('A' for Active; 'I' for Inactive)
    1  A    between atoms: C_4  and  C_25
    2  A    between atoms: C_4  and  N_65
    3  A    between atoms: O_6  and  C_38
    4  A    between atoms: N_7  and  N_22
    5  A    between atoms: N_7  and  N_68
    6  A    between atoms: C_8  and  C_12
    7  A    between atoms: C_9  and  C_25
    8  A    between atoms: C_13  and  N_24
    9  A    between atoms: O_14  and  C_63
   10  A    between atoms: C_17  and  C_43
   11  A    between atoms: C_20  and  C_50
   12  A    between atoms: C_20  and  C_63
   13  A    between atoms: C_21  and  C_44
   14  A    between atoms: C_21  and  N_65
   15  A    between atoms: N_22  and  C_49
   16  A    between atoms: N_24  and  C_56
   17  A    between atoms: C_26  and  C_34
   18  A    between atoms: C_26  and  C_38
   19  A    between atoms: C_30  and  C_59
   20  A    between atoms: C_32  and  C_56
   21  A    between atoms: C_34  and  C_55
   22  A    between atoms: C_34  and  C_64
   23  A    between atoms: C_35  and  C_50
   24  A    between atoms: C_36  and  C_54
   25  A    between atoms: C_36  and  C_60
   26  A    between atoms: C_38  and  C_43
   27  A    between atoms: C_40  and  C_49
   28  A    between atoms: C_48  and  C_50
   29  A    between atoms: C_54  and  C_67
   30  A    between atoms: C_59  and  N_68
                            x       y       z     vdW  Elec       q    Type
                         _______ _______ _______ _____ _____    ______ ____

>  <TORSDO>
F 30

$$$$
=
 OpenBabel11042417343D

 68 74  0  0  1  0  0  0  0  0999 V2000
  188.6060  174.7550  142.3340 C   0  0  2  0  0  0  0  0  0  0  0  0
  187.9910  173.4990  142.4190 O   0  0  0  0  0  1  0  0  0  0  0  0
  187.5260  177.0020  145.3150 C   0  0  0  0  0  0  0  0  0  0  0  0
  185.3620  178.3650  145.4910 C   0  0  2  0  0  3  0  0  0  0  0  0
  187.1290  178.5590  147.2250 C   0  0  0  0  0  2  0  0  0  0  0  0
  185.5030  176.3270  144.1240 N   0  0  0  0  0  2  0  0  0  0  0  0
  186.2180  179.3400  146.2900 C   0  0  0  0  0  2  0  0  0  0  0  0
  187.9550  177.5380  146.4820 C   0  0  0  0  0  0  0  0  0  0  0  0
  186.2730  175.4870  143.1870 C   0  0  0  0  0  2  0  0  0  0  0  0
  188.3450  175.9700  144.5870 C   0  0  0  0  0  2  0  0  0  0  0  0
  187.7940  175.7620  143.1730 C   0  0  1  0  0  3  0  0  0  0  0  0
  186.2610  177.4830  144.6170 C   0  0  2  0  0  3  0  0  0  0  0  0
  189.2340  177.0830  147.1180 C   0  0  0  0  0  2  0  0  0  0  0  0
  189.0880  175.7240  147.6140 N   0  0  0  0  0  2  0  0  0  0  0  0
  190.1200  174.9730  147.0370 N   0  0  0  0  0  2  0  0  0  0  0  0
  191.2680  175.2180  147.8040 N   0  0  0  0  0  2  0  0  0  0  0  0
  192.4170  175.0240  146.9380 C   0  0  0  0  0  2  0  0  0  0  0  0
  194.0330  176.1240  145.4280 C   0  0  0  0  0  2  0  0  0  0  0  0
  192.7440  176.3120  146.2030 C   0  0  0  0  0  3  0  0  0  0  0  0
  194.0400  176.8840  146.7380 C   0  0  0  0  0  2  0  0  0  0  0  0
  184.4080  179.1460  144.5990 C   0  0  0  0  0  2  0  0  0  0  0  0
  184.5390  178.7000  143.1540 C   0  0  0  0  0  2  0  0  0  0  0  0
  183.2200  178.6750  142.5390 N   0  0  0  0  0  2  0  0  0  0  0  0
  184.4500  177.6490  140.8280 O   0  0  0  0  0  1  0  0  0  0  0  0
  183.4030  178.5410  141.0980 C   0  0  1  0  0  3  0  0  0  0  0  0
  180.5130  180.1400  140.4570 O   0  0  0  0  0  0  0  0  0  0  0  0
  182.0780  178.1140  140.4450 C   0  0  1  0  0  3  0  0  0  0  0  0
  181.1630  177.7170  141.3840 O   0  0  0  0  0  0  0  0  0  0  0  0
  181.0720  179.0310  140.6690 C   0  0  0  0  0  0  0  0  0  0  0  0
  188.6390  175.1740  140.8870 C   0  0  0  0  0  3  0  0  0  0  0  0
  188.2910  174.3260  139.9180 C   0  0  0  0  0  3  0  0  0  0  0  0
  188.2730  174.7520  138.4940 C   0  0  0  0  0  2  0  0  0  0  0  0
  188.4570  173.5240  137.6210 C   0  0  0  0  0  2  0  0  0  0  0  0
  189.8230  171.5960  138.4220 C   0  0  0  0  0  3  0  0  0  0  0  0
  192.2160  172.9730  137.8430 C   0  0  0  0  0  0  0  0  0  0  0  0
  192.2470  171.6590  138.3830 C   0  0  0  0  0  0  0  0  0  0  0  0
  193.4730  170.9700  138.6080 N   0  0  0  0  0  1  0  0  0  0  0  0
  190.9620  173.5620  137.5970 C   0  0  0  0  0  3  0  0  0  0  0  0
  189.7750  172.8850  137.8870 C   0  0  0  0  0  0  0  0  0  0  0  0
  191.0540  170.9890  138.6660 C   0  0  0  0  0  3  0  0  0  0  0  0
  193.8280  173.9560  136.1910 C   0  0  0  0  0  3  0  0  0  0  0  0
  193.4460  173.7550  137.5300 C   0  0  0  0  0  0  0  0  0  0  0  0
  195.7510  175.2430  136.8970 C   0  0  0  0  0  0  0  0  0  0  0  0
  194.9730  174.6930  135.8770 C   0  0  0  0  0  3  0  0  0  0  0  0
  195.3830  175.0560  138.2320 C   0  0  0  0  0  3  0  0  0  0  0  0
  194.2360  174.3200  138.5430 C   0  0  0  0  0  3  0  0  0  0  0  0
  196.8920  175.9690  136.5840 O   0  0  0  0  0  1  0  0  0  0  0  0
  190.0540  174.6710  142.8590 C   0  0  0  0  0  2  0  0  0  0  0  0
  191.1440  175.2850  141.9720 C   0  0  1  0  0  3  0  0  0  0  0  0
  192.0010  176.1250  142.6860 O   0  0  0  0  0  0  0  0  0  0  0  0
  191.2540  177.2870  142.9060 C   0  0  0  0  0  1  0  0  0  0  0  0
  191.9350  174.1940  141.2720 C   0  0  0  0  0  2  0  0  0  0  0  0
  191.6970  172.8940  141.9560 C   0  0  0  0  0  3  0  0  0  0  0  0
  192.7000  172.0380  142.1370 C   0  0  0  0  0  3  0  0  0  0  0  0
  192.4650  170.7300  142.8180 C   0  0  0  0  0  2  0  0  0  0  0  0
  193.2280  170.6720  144.0570 N   0  0  0  0  0  2  0  0  0  0  0  0
  195.0190  169.5180  145.0700 O   0  0  0  0  0  0  0  0  0  0  0  0
  194.3290  169.7360  143.8670 C   0  0  2  0  0  0  0  0  0  0  0  0
  195.7450  170.1550  144.0400 C   0  0  1  0  0  3  0  0  0  0  0  0
  194.0460  168.5270  143.2300 O   0  0  0  0  0  1  0  0  0  0  0  0
  195.9040  171.6350  144.3790 C   0  0  2  0  0  3  0  0  0  0  0  0
  196.5430  172.4270  143.2270 C   0  0  2  0  0  3  0  0  0  0  0  0
  195.7070  173.4570  142.8000 O   0  0  0  0  0  1  0  0  0  0  0  0
  196.9020  171.5380  142.0420 C   0  0  0  0  0  2  0  0  0  0  0  0
  196.0520  171.7860  140.9600 O   0  0  0  0  0  0  0  0  0  0  0  0
  196.9090  172.0330  139.8890 C   0  0  0  0  0  1  0  0  0  0  0  0
  196.9290  173.6010  146.0940 S   0  0  0  0  0  1  0  0  0  0  0  0
  196.5550  171.8490  145.7520 C   0  0  0  0  0  2  0  0  0  0  0  0
  1  2  1  1  0  0  0
  1 48  1  0  0  0  0
  3  8  2  0  0  0  0
  4 21  1  6  0  0  0
  4  7  1  0  0  0  0
  7  5  1  0  0  0  0
  8 13  1  0  0  0  0
  8  5  1  0  0  0  0
  9  6  1  0  0  0  0
 10  3  1  0  0  0  0
 11  1  1  1  0  0  0
 11  9  1  0  0  0  0
 11 10  1  0  0  0  0
 12  6  1  1  0  0  0
 12  3  1  0  0  0  0
 12  4  1  0  0  0  0
 13 14  1  0  0  0  0
 15 14  1  0  0  0  0
 15 16  1  0  0  0  0
 17 16  1  0  0  0  0
 18 19  1  0  0  0  0
 18 20  1  0  0  0  0
 19 20  1  0  0  0  0
 19 17  1  0  0  0  0
 22 21  1  0  0  0  0
 23 22  1  0  0  0  0
 25 24  1  1  0  0  0
 25 23  1  0  0  0  0
 26 29  2  0  0  0  0
 27 29  1  0  0  0  0
 27 25  1  1  0  0  0
 27 28  1  0  0  0  0
 29 28  1  0  0  0  0
 30  1  1  0  0  0  0
 31 30  2  0  0  0  0
 32 31  1  0  0  0  0
 33 39  1  0  0  0  0
 33 32  1  0  0  0  0
 34 40  1  0  0  0  0
 35 36  1  0  0  0  0
 36 37  1  0  0  0  0
 36 40  2  0  0  0  0
 38 35  2  0  0  0  0
 38 39  1  0  0  0  0
 39 34  2  0  0  0  0
 41 42  1  0  0  0  0
 42 35  1  0  0  0  0
 42 46  2  0  0  0  0
 43 45  2  0  0  0  0
 44 41  2  0  0  0  0
 44 43  1  0  0  0  0
 45 46  1  0  0  0  0
 47 43  1  0  0  0  0
 49 52  1  1  0  0  0
 49 50  1  0  0  0  0
 49 48  1  0  0  0  0
 50 51  1  0  0  0  0
 52 53  1  0  0  0  0
 53 54  2  0  0  0  0
 54 55  1  0  0  0  0
 55 56  1  0  0  0  0
 58 60  1  6  0  0  0
 58 59  1  0  0  0  0
 58 56  1  0  0  0  0
 58 57  1  0  0  0  0
 59 61  1  1  0  0  0
 59 57  1  0  0  0  0
 61 68  1  1  0  0  0
 62 63  1  6  0  0  0
 62 61  1  0  0  0  0
 64 62  1  0  0  0  0
 65 64  1  0  0  0  0
 66 65  1  0  0  0  0
 68 67  1  0  0  0  0
M  END
>  <MODEL>
3

>  <REMARK>
 VINA RESULT:      -5.2      2.949     10.311
  Name = 
  30 active torsions:
  status: ('A' for Active; 'I' for Inactive)
    1  A    between atoms: C_4  and  C_25
    2  A    between atoms: C_4  and  N_65
    3  A    between atoms: O_6  and  C_38
    4  A    between atoms: N_7  and  N_22
    5  A    between atoms: N_7  and  N_68
    6  A    between atoms: C_8  and  C_12
    7  A    between atoms: C_9  and  C_25
    8  A    between atoms: C_13  and  N_24
    9  A    between atoms: O_14  and  C_63
   10  A    between atoms: C_17  and  C_43
   11  A    between atoms: C_20  and  C_50
   12  A    between atoms: C_20  and  C_63
   13  A    between atoms: C_21  and  C_44
   14  A    between atoms: C_21  and  N_65
   15  A    between atoms: N_22  and  C_49
   16  A    between atoms: N_24  and  C_56
   17  A    between atoms: C_26  and  C_34
   18  A    between atoms: C_26  and  C_38
   19  A    between atoms: C_30  and  C_59
   20  A    between atoms: C_32  and  C_56
   21  A    between atoms: C_34  and  C_55
   22  A    between atoms: C_34  and  C_64
   23  A    between atoms: C_35  and  C_50
   24  A    between atoms: C_36  and  C_54
   25  A    between atoms: C_36  and  C_60
   26  A    between atoms: C_38  and  C_43
   27  A    between atoms: C_40  and  C_49
   28  A    between atoms: C_48  and  C_50
   29  A    between atoms: C_54  and  C_67
   30  A    between atoms: C_59  and  N_68
                            x       y       z     vdW  Elec       q    Type
                         _______ _______ _______ _____ _____    ______ ____

>  <TORSDO>
F 30

$$$$
=
 OpenBabel11042417343D

 68 74  0  0  1  0  0  0  0  0999 V2000
  189.0660  173.9000  141.3650 C   0  0  2  0  0  0  0  0  0  0  0  0
  188.2920  172.7390  141.4910 O   0  0  0  0  0  1  0  0  0  0  0  0
  186.9460  176.7650  142.9180 C   0  0  0  0  0  0  0  0  0  0  0  0
  187.3880  177.9510  145.1470 C   0  0  2  0  0  3  0  0  0  0  0  0
  185.3310  178.4290  143.8390 C   0  0  0  0  0  2  0  0  0  0  0  0
  189.2010  176.9240  143.8430 N   0  0  0  0  0  2  0  0  0  0  0  0
  185.8690  178.0650  145.2150 C   0  0  0  0  0  2  0  0  0  0  0  0
  185.7910  177.4580  142.7800 C   0  0  0  0  0  0  0  0  0  0  0  0
  189.6780  175.8040  143.0110 C   0  0  0  0  0  2  0  0  0  0  0  0
  187.4110  175.8100  141.8490 C   0  0  0  0  0  2  0  0  0  0  0  0
  188.5590  174.9450  142.3790 C   0  0  1  0  0  3  0  0  0  0  0  0
  187.7800  176.8180  144.1910 C   0  0  2  0  0  3  0  0  0  0  0  0
  184.9640  177.3430  141.5360 C   0  0  0  0  0  2  0  0  0  0  0  0
  184.6090  178.6660  141.0480 N   0  0  0  0  0  2  0  0  0  0  0  0
  183.3940  178.5290  140.3640 N   0  0  0  0  0  2  0  0  0  0  0  0
  182.4630  178.0500  141.2960 N   0  0  0  0  0  2  0  0  0  0  0  0
  181.1390  178.2960  140.7510 C   0  0  0  0  0  2  0  0  0  0  0  0
  179.0250  179.5350  141.0540 C   0  0  0  0  0  2  0  0  0  0  0  0
  180.4750  179.4490  141.4830 C   0  0  0  0  0  3  0  0  0  0  0  0
  180.0420  180.5000  140.4820 C   0  0  0  0  0  2  0  0  0  0  0  0
  187.9320  177.6450  146.5350 C   0  0  0  0  0  2  0  0  0  0  0  0
  188.4270  176.2130  146.6130 C   0  0  0  0  0  2  0  0  0  0  0  0
  189.7430  176.1930  147.2330 N   0  0  0  0  0  2  0  0  0  0  0  0
  189.5980  174.2390  145.9470 O   0  0  0  0  0  1  0  0  0  0  0  0
  190.4560  175.0240  146.7310 C   0  0  1  0  0  3  0  0  0  0  0  0
  193.3240  173.4840  145.8810 O   0  0  0  0  0  0  0  0  0  0  0  0
  191.7130  175.4720  145.9660 C   0  0  1  0  0  3  0  0  0  0  0  0
  192.6910  175.9060  146.8230 O   0  0  0  0  0  0  0  0  0  0  0  0
  192.7570  174.5820  146.1210 C   0  0  0  0  0  0  0  0  0  0  0  0
  188.9270  174.4160  139.9570 C   0  0  0  0  0  3  0  0  0  0  0  0
  188.4430  173.6410  138.9860 C   0  0  0  0  0  3  0  0  0  0  0  0
  188.2570  174.1630  137.6060 C   0  0  0  0  0  2  0  0  0  0  0  0
  189.2260  173.4450  136.6840 C   0  0  0  0  0  2  0  0  0  0  0  0
  190.1950  175.4480  135.5590 C   0  0  0  0  0  3  0  0  0  0  0  0
  192.7630  174.8410  136.5530 C   0  0  0  0  0  0  0  0  0  0  0  0
  192.5530  175.9880  135.7430 C   0  0  0  0  0  0  0  0  0  0  0  0
  193.6070  176.8970  135.4400 N   0  0  0  0  0  1  0  0  0  0  0  0
  191.6570  174.0250  136.8530 C   0  0  0  0  0  3  0  0  0  0  0  0
  190.3850  174.3200  136.3580 C   0  0  0  0  0  0  0  0  0  0  0  0
  191.2750  176.2770  135.2560 C   0  0  0  0  0  3  0  0  0  0  0  0
  194.2890  173.1900  137.6690 C   0  0  0  0  0  3  0  0  0  0  0  0
  194.0990  174.4610  137.0970 C   0  0  0  0  0  0  0  0  0  0  0  0
  196.6120  173.7010  138.1140 C   0  0  0  0  0  0  0  0  0  0  0  0
  195.5360  172.8130  138.1760 C   0  0  0  0  0  3  0  0  0  0  0  0
  196.4410  174.9650  137.5460 C   0  0  0  0  0  3  0  0  0  0  0  0
  195.1940  175.3390  137.0380 C   0  0  0  0  0  3  0  0  0  0  0  0
  197.8480  173.3270  138.6250 O   0  0  0  0  0  1  0  0  0  0  0  0
  190.5500  173.5760  141.6320 C   0  0  0  0  0  2  0  0  0  0  0  0
  191.4450  173.3920  140.4000 C   0  0  1  0  0  3  0  0  0  0  0  0
  192.6520  174.0870  140.5100 O   0  0  0  0  0  0  0  0  0  0  0  0
  192.5770  174.7310  141.7500 C   0  0  0  0  0  1  0  0  0  0  0  0
  191.7050  171.9170  140.1500 C   0  0  0  0  0  2  0  0  0  0  0  0
  193.0950  171.5820  140.5590 C   0  0  0  0  0  3  0  0  0  0  0  0
  193.5050  170.3160  140.5680 C   0  0  0  0  0  3  0  0  0  0  0  0
  194.8980  169.9740  140.9830 C   0  0  0  0  0  2  0  0  0  0  0  0
  195.5400  171.1410  141.5700 N   0  0  0  0  0  2  0  0  0  0  0  0
  197.1420  169.7670  142.6260 O   0  0  0  0  0  0  0  0  0  0  0  0
  196.9570  170.8400  141.7400 C   0  0  2  0  0  0  0  0  0  0  0  0
  197.6400  171.0200  143.0480 C   0  0  1  0  0  3  0  0  0  0  0  0
  197.7220  170.6690  140.5850 O   0  0  0  0  0  1  0  0  0  0  0  0
  196.7280  171.5800  144.1370 C   0  0  2  0  0  3  0  0  0  0  0  0
  197.3380  172.8130  144.8240 C   0  0  2  0  0  3  0  0  0  0  0  0
  196.8200  172.9840  146.1060 O   0  0  0  0  0  1  0  0  0  0  0  0
  197.1270  174.0890  144.0160 C   0  0  0  0  0  2  0  0  0  0  0  0
  196.5010  175.0690  144.7910 O   0  0  0  0  0  0  0  0  0  0  0  0
  195.4790  175.5600  143.9800 C   0  0  0  0  0  1  0  0  0  0  0  0
  194.4260  170.2190  144.9760 S   0  0  0  0  0  1  0  0  0  0  0  0
  196.2260  170.4890  145.0910 C   0  0  0  0  0  2  0  0  0  0  0  0
  1  2  1  1  0  0  0
  1 48  1  0  0  0  0
  4  7  1  0  0  0  0
  4 21  1  1  0  0  0
  5  7  1  0  0  0  0
  6 12  1  0  0  0  0
  8  3  2  0  0  0  0
  8  5  1  0  0  0  0
  9  6  1  0  0  0  0
 10 11  1  0  0  0  0
 10  3  1  0  0  0  0
 11  1  1  6  0  0  0
 11  9  1  0  0  0  0
 12  3  1  6  0  0  0
 12  4  1  0  0  0  0
 13  8  1  0  0  0  0
 14 13  1  0  0  0  0
 15 14  1  0  0  0  0
 15 16  1  0  0  0  0
 17 16  1  0  0  0  0
 17 19  1  0  0  0  0
 18 19  1  0  0  0  0
 20 18  1  0  0  0  0
 20 19  1  0  0  0  0
 21 22  1  0  0  0  0
 22 23  1  0  0  0  0
 25 24  1  6  0  0  0
 25 23  1  0  0  0  0
 26 29  2  0  0  0  0
 27 29  1  0  0  0  0
 27 25  1  1  0  0  0
 27 28  1  0  0  0  0
 29 28  1  0  0  0  0
 30  1  1  0  0  0  0
 31 30  2  0  0  0  0
 32 31  1  0  0  0  0
 33 32  1  0  0  0  0
 34 39  1  0  0  0  0
 35 38  1  0  0  0  0
 35 42  1  0  0  0  0
 36 35  2  0  0  0  0
 37 36  1  0  0  0  0
 39 33  1  0  0  0  0
 39 38  2  0  0  0  0
 40 34  2  0  0  0  0
 40 36  1  0  0  0  0
 41 44  1  0  0  0  0
 42 41  2  0  0  0  0
 43 44  2  0  0  0  0
 43 47  1  0  0  0  0
 45 43  1  0  0  0  0
 46 42  1  0  0  0  0
 46 45  2  0  0  0  0
 49 52  1  1  0  0  0
 49 50  1  0  0  0  0
 49 48  1  0  0  0  0
 50 51  1  0  0  0  0
 52 53  1  0  0  0  0
 53 54  2  0  0  0  0
 54 55  1  0  0  0  0
 55 56  1  0  0  0  0
 56 58  1  0  0  0  0
 57 59  1  0  0  0  0
 58 60  1  6  0  0  0
 58 57  1  0  0  0  0
 58 59  1  0  0  0  0
 59 61  1  1  0  0  0
 61 62  1  0  0  0  0
 61 68  1  1  0  0  0
 62 63  1  1  0  0  0
 64 65  1  0  0  0  0
 64 62  1  0  0  0  0
 66 65  1  0  0  0  0
 67 68  1  0  0  0  0
M  END
>  <MODEL>
4

>  <REMARK>
 VINA RESULT:      -5.2      3.241     11.251
  Name = 
  30 active torsions:
  status: ('A' for Active; 'I' for Inactive)
    1  A    between atoms: C_4  and  C_25
    2  A    between atoms: C_4  and  N_65
    3  A    between atoms: O_6  and  C_38
    4  A    between atoms: N_7  and  N_22
    5  A    between atoms: N_7  and  N_68
    6  A    between atoms: C_8  and  C_12
    7  A    between atoms: C_9  and  C_25
    8  A    between atoms: C_13  and  N_24
    9  A    between atoms: O_14  and  C_63
   10  A    between atoms: C_17  and  C_43
   11  A    between atoms: C_20  and  C_50
   12  A    between atoms: C_20  and  C_63
   13  A    between atoms: C_21  and  C_44
   14  A    between atoms: C_21  and  N_65
   15  A    between atoms: N_22  and  C_49
   16  A    between atoms: N_24  and  C_56
   17  A    between atoms: C_26  and  C_34
   18  A    between atoms: C_26  and  C_38
   19  A    between atoms: C_30  and  C_59
   20  A    between atoms: C_32  and  C_56
   21  A    between atoms: C_34  and  C_55
   22  A    between atoms: C_34  and  C_64
   23  A    between atoms: C_35  and  C_50
   24  A    between atoms: C_36  and  C_54
   25  A    between atoms: C_36  and  C_60
   26  A    between atoms: C_38  and  C_43
   27  A    between atoms: C_40  and  C_49
   28  A    between atoms: C_48  and  C_50
   29  A    between atoms: C_54  and  C_67
   30  A    between atoms: C_59  and  N_68
                            x       y       z     vdW  Elec       q    Type
                         _______ _______ _______ _____ _____    ______ ____

>  <TORSDO>
F 30

$$$$
=
 OpenBabel11042417343D

 68 74  0  0  1  0  0  0  0  0999 V2000
  190.4320  175.6170  142.9260 C   0  0  2  0  0  0  0  0  0  0  0  0
  191.4770  176.4510  142.5090 O   0  0  0  0  0  1  0  0  0  0  0  0
  187.2430  177.3620  141.5490 C   0  0  0  0  0  0  0  0  0  0  0  0
  185.6210  178.8370  142.8750 C   0  0  2  0  0  3  0  0  0  0  0  0
  185.1300  178.2040  140.5240 C   0  0  0  0  0  2  0  0  0  0  0  0
  187.9840  178.6110  143.5130 N   0  0  0  0  0  2  0  0  0  0  0  0
  184.5670  178.2620  141.9360 C   0  0  0  0  0  2  0  0  0  0  0  0
  186.4310  177.4430  140.4680 C   0  0  0  0  0  0  0  0  0  0  0  0
  189.1680  177.7480  143.6800 C   0  0  0  0  0  2  0  0  0  0  0  0
  188.5510  176.6160  141.4830 C   0  0  0  0  0  2  0  0  0  0  0  0
  189.1150  176.4190  142.8930 C   0  0  1  0  0  3  0  0  0  0  0  0
  186.8420  177.9120  142.9110 C   0  0  2  0  0  3  0  0  0  0  0  0
  186.8300  176.8430  139.1540 C   0  0  0  0  0  2  0  0  0  0  0  0
  187.2750  175.4720  139.3470 N   0  0  0  0  0  2  0  0  0  0  0  0
  187.4380  174.9190  138.0710 N   0  0  0  0  0  2  0  0  0  0  0  0
  188.5610  174.0830  138.1380 N   0  0  0  0  0  2  0  0  0  0  0  0
  189.1310  174.0150  136.8040 C   0  0  0  0  0  2  0  0  0  0  0  0
  191.5360  174.5760  136.8580 C   0  0  0  0  0  2  0  0  0  0  0  0
  190.5350  173.4380  136.8620 C   0  0  0  0  0  3  0  0  0  0  0  0
  191.2780  173.7900  135.5900 C   0  0  0  0  0  2  0  0  0  0  0  0
  185.0390  178.9520  144.2760 C   0  0  0  0  0  2  0  0  0  0  0  0
  185.2690  177.6720  145.0590 C   0  0  0  0  0  2  0  0  0  0  0  0
  184.7600  177.8380  146.4110 N   0  0  0  0  0  2  0  0  0  0  0  0
  185.7560  176.9670  148.3460 O   0  0  0  0  0  1  0  0  0  0  0  0
  185.9040  177.9050  147.3140 C   0  0  1  0  0  3  0  0  0  0  0  0
  188.0430  175.3310  146.9630 O   0  0  0  0  0  0  0  0  0  0  0  0
  187.2050  177.7090  146.5180 C   0  0  1  0  0  3  0  0  0  0  0  0
  188.3070  177.9730  147.2890 O   0  0  0  0  0  0  0  0  0  0  0  0
  187.8910  176.5800  146.9180 C   0  0  0  0  0  0  0  0  0  0  0  0
  190.7300  175.1410  144.3240 C   0  0  0  0  0  3  0  0  0  0  0  0
  191.2150  175.9740  145.2450 C   0  0  0  0  0  3  0  0  0  0  0  0
  191.4620  175.5200  146.6390 C   0  0  0  0  0  2  0  0  0  0  0  0
  192.7080  176.2130  147.1580 C   0  0  0  0  0  2  0  0  0  0  0  0
  194.5400  176.9840  145.6510 C   0  0  0  0  0  3  0  0  0  0  0  0
  195.4030  174.3300  145.2410 C   0  0  0  0  0  0  0  0  0  0  0  0
  196.0740  175.4150  144.6170 C   0  0  0  0  0  0  0  0  0  0  0  0
  197.2280  175.2160  143.8060 N   0  0  0  0  0  1  0  0  0  0  0  0
  194.3050  174.6160  146.0740 C   0  0  0  0  0  3  0  0  0  0  0  0
  193.8720  175.9280  146.2750 C   0  0  0  0  0  0  0  0  0  0  0  0
  195.6350  176.7250  144.8280 C   0  0  0  0  0  3  0  0  0  0  0  0
  196.9250  172.3960  145.7320 C   0  0  0  0  0  3  0  0  0  0  0  0
  195.8040  172.9060  145.0520 C   0  0  0  0  0  0  0  0  0  0  0  0
  196.5800  170.2180  144.7380 C   0  0  0  0  0  0  0  0  0  0  0  0
  197.3110  171.0620  145.5750 C   0  0  0  0  0  3  0  0  0  0  0  0
  195.4620  170.7080  144.0580 C   0  0  0  0  0  3  0  0  0  0  0  0
  195.0760  172.0410  144.2190 C   0  0  0  0  0  3  0  0  0  0  0  0
  196.9690  168.8950  144.5770 O   0  0  0  0  0  1  0  0  0  0  0  0
  190.3320  174.3910  141.9950 C   0  0  0  0  0  2  0  0  0  0  0  0
  191.2550  173.2090  142.3140 C   0  0  1  0  0  3  0  0  0  0  0  0
  190.6140  172.2200  143.0640 O   0  0  0  0  0  0  0  0  0  0  0  0
  190.1340  171.3120  142.1150 C   0  0  0  0  0  1  0  0  0  0  0  0
  191.8210  172.6180  141.0340 C   0  0  0  0  0  2  0  0  0  0  0  0
  193.3050  172.7090  141.0610 C   0  0  0  0  0  3  0  0  0  0  0  0
  193.9040  173.8980  141.0560 C   0  0  0  0  0  3  0  0  0  0  0  0
  195.3940  173.9940  141.0780 C   0  0  0  0  0  2  0  0  0  0  0  0
  195.9440  173.4600  139.8400 N   0  0  0  0  0  2  0  0  0  0  0  0
  195.2020  174.9030  138.1270 O   0  0  0  0  0  0  0  0  0  0  0  0
  196.2770  174.5820  138.9710 C   0  0  2  0  0  0  0  0  0  0  0  0
  196.3710  174.4240  137.4960 C   0  0  1  0  0  3  0  0  0  0  0  0
  196.7960  175.7300  139.5710 O   0  0  0  0  0  1  0  0  0  0  0  0
  196.1350  172.9920  137.0230 C   0  0  2  0  0  3  0  0  0  0  0  0
  197.2600  172.4940  136.1020 C   0  0  2  0  0  3  0  0  0  0  0  0
  196.7870  172.2470  134.8150 O   0  0  0  0  0  1  0  0  0  0  0  0
  197.9400  171.2410  136.6430 C   0  0  0  0  0  2  0  0  0  0  0  0
  197.0720  170.1460  136.5960 O   0  0  0  0  0  0  0  0  0  0  0  0
  197.9080  169.0320  136.6460 C   0  0  0  0  0  1  0  0  0  0  0  0
  193.7800  171.5190  137.3990 S   0  0  0  0  0  1  0  0  0  0  0  0
  194.7150  172.7870  136.4800 C   0  0  0  0  0  2  0  0  0  0  0  0
  1  2  1  6  0  0  0
  1 30  1  0  0  0  0
  4 12  1  0  0  0  0
  4 21  1  1  0  0  0
  5  7  1  0  0  0  0
  6  9  1  0  0  0  0
  7  4  1  0  0  0  0
  8  5  1  0  0  0  0
  8  3  2  0  0  0  0
 10  3  1  0  0  0  0
 10 11  1  0  0  0  0
 11  1  1  6  0  0  0
 11  9  1  0  0  0  0
 12  3  1  6  0  0  0
 12  6  1  0  0  0  0
 13 14  1  0  0  0  0
 13  8  1  0  0  0  0
 15 16  1  0  0  0  0
 15 14  1  0  0  0  0
 17 19  1  0  0  0  0
 17 16  1  0  0  0  0
 18 19  1  0  0  0  0
 20 18  1  0  0  0  0
 20 19  1  0  0  0  0
 21 22  1  0  0  0  0
 22 23  1  0  0  0  0
 23 25  1  0  0  0  0
 25 24  1  1  0  0  0
 27 29  1  0  0  0  0
 27 28  1  0  0  0  0
 27 25  1  1  0  0  0
 29 26  2  0  0  0  0
 29 28  1  0  0  0  0
 30 31  2  0  0  0  0
 31 32  1  0  0  0  0
 32 33  1  0  0  0  0
 34 39  1  0  0  0  0
 35 38  1  0  0  0  0
 36 40  1  0  0  0  0
 36 35  2  0  0  0  0
 37 36  1  0  0  0  0
 38 39  2  0  0  0  0
 39 33  1  0  0  0  0
 40 34  2  0  0  0  0
 42 35  1  0  0  0  0
 42 41  2  0  0  0  0
 43 44  2  0  0  0  0
 44 41  1  0  0  0  0
 45 46  2  0  0  0  0
 45 43  1  0  0  0  0
 46 42  1  0  0  0  0
 47 43  1  0  0  0  0
 48 49  1  0  0  0  0
 48  1  1  0  0  0  0
 49 52  1  6  0  0  0
 49 50  1  0  0  0  0
 51 50  1  0  0  0  0
 52 53  1  0  0  0  0
 54 53  2  0  0  0  0
 54 55  1  0  0  0  0
 56 55  1  0  0  0  0
 57 58  1  0  0  0  0
 58 60  1  1  0  0  0
 58 56  1  0  0  0  0
 59 61  1  1  0  0  0
 59 57  1  0  0  0  0
 59 58  1  0  0  0  0
 61 68  1  6  0  0  0
 62 63  1  6  0  0  0
 62 64  1  0  0  0  0
 62 61  1  0  0  0  0
 65 64  1  0  0  0  0
 65 66  1  0  0  0  0
 68 67  1  0  0  0  0
M  END
>  <MODEL>
5

>  <REMARK>
 VINA RESULT:      -5.0      2.810      9.997
  Name = 
  30 active torsions:
  status: ('A' for Active; 'I' for Inactive)
    1  A    between atoms: C_4  and  C_25
    2  A    between atoms: C_4  and  N_65
    3  A    between atoms: O_6  and  C_38
    4  A    between atoms: N_7  and  N_22
    5  A    between atoms: N_7  and  N_68
    6  A    between atoms: C_8  and  C_12
    7  A    between atoms: C_9  and  C_25
    8  A    between atoms: C_13  and  N_24
    9  A    between atoms: O_14  and  C_63
   10  A    between atoms: C_17  and  C_43
   11  A    between atoms: C_20  and  C_50
   12  A    between atoms: C_20  and  C_63
   13  A    between atoms: C_21  and  C_44
   14  A    between atoms: C_21  and  N_65
   15  A    between atoms: N_22  and  C_49
   16  A    between atoms: N_24  and  C_56
   17  A    between atoms: C_26  and  C_34
   18  A    between atoms: C_26  and  C_38
   19  A    between atoms: C_30  and  C_59
   20  A    between atoms: C_32  and  C_56
   21  A    between atoms: C_34  and  C_55
   22  A    between atoms: C_34  and  C_64
   23  A    between atoms: C_35  and  C_50
   24  A    between atoms: C_36  and  C_54
   25  A    between atoms: C_36  and  C_60
   26  A    between atoms: C_38  and  C_43
   27  A    between atoms: C_40  and  C_49
   28  A    between atoms: C_48  and  C_50
   29  A    between atoms: C_54  and  C_67
   30  A    between atoms: C_59  and  N_68
                            x       y       z     vdW  Elec       q    Type
                         _______ _______ _______ _____ _____    ______ ____

>  <TORSDO>
F 30

$$$$
=
 OpenBabel11042417343D

 68 74  0  0  1  0  0  0  0  0999 V2000
  191.2870  173.4470  143.0980 C   0  0  2  0  0  0  0  0  0  0  0  0
  190.2960  172.9660  143.9640 O   0  0  0  0  0  1  0  0  0  0  0  0
  194.1780  171.4310  141.4590 C   0  0  0  0  0  0  0  0  0  0  0  0
  194.9370  169.0670  142.0920 C   0  0  2  0  0  3  0  0  0  0  0  0
  196.2050  170.4050  140.4280 C   0  0  0  0  0  2  0  0  0  0  0  0
  192.6290  169.8280  142.4580 N   0  0  0  0  0  2  0  0  0  0  0  0
  196.3200  169.5660  141.6920 C   0  0  0  0  0  2  0  0  0  0  0  0
  195.2090  171.5260  140.5860 C   0  0  0  0  0  0  0  0  0  0  0  0
  191.7050  170.9010  142.8730 C   0  0  0  0  0  2  0  0  0  0  0  0
  193.1750  172.5460  141.6000 C   0  0  0  0  0  2  0  0  0  0  0  0
  192.3110  172.3230  142.8450 C   0  0  1  0  0  3  0  0  0  0  0  0
  194.0310  170.2590  142.4190 C   0  0  2  0  0  3  0  0  0  0  0  0
  195.3570  172.7200  139.6910 C   0  0  0  0  0  2  0  0  0  0  0  0
  196.7650  173.0200  139.4890 N   0  0  0  0  0  2  0  0  0  0  0  0
  196.9290  174.3830  139.7670 N   0  0  0  0  0  2  0  0  0  0  0  0
  195.6840  174.8510  140.2100 N   0  0  0  0  0  2  0  0  0  0  0  0
  195.9360  175.9610  141.1140 C   0  0  0  0  0  2  0  0  0  0  0  0
  196.4600  176.5820  143.4460 C   0  0  0  0  0  2  0  0  0  0  0  0
  195.9310  175.4780  142.5530 C   0  0  0  0  0  3  0  0  0  0  0  0
  197.3530  175.4190  143.0710 C   0  0  0  0  0  2  0  0  0  0  0  0
  195.0590  168.1790  143.3220 C   0  0  0  0  0  2  0  0  0  0  0  0
  196.1530  168.6860  144.2430 C   0  0  0  0  0  2  0  0  0  0  0  0
  195.6080  169.7170  145.1130 N   0  0  0  0  0  2  0  0  0  0  0  0
  197.9310  169.9190  145.3570 O   0  0  0  0  0  1  0  0  0  0  0  0
  196.7080  170.5860  145.5180 C   0  0  1  0  0  3  0  0  0  0  0  0
  196.9360  173.8260  146.3960 O   0  0  0  0  0  0  0  0  0  0  0  0
  196.6450  171.9050  144.7290 C   0  0  1  0  0  3  0  0  0  0  0  0
  195.3780  172.4280  144.7310 O   0  0  0  0  0  0  0  0  0  0  0  0
  196.4920  172.9960  145.5590 C   0  0  0  0  0  0  0  0  0  0  0  0
  191.9500  174.6350  143.7440 C   0  0  0  0  0  3  0  0  0  0  0  0
  192.7710  174.4830  144.7840 C   0  0  0  0  0  3  0  0  0  0  0  0
  193.4670  175.6480  145.3910 C   0  0  0  0  0  2  0  0  0  0  0  0
  192.4650  176.4260  146.2250 C   0  0  0  0  0  2  0  0  0  0  0  0
  191.7390  177.5290  144.1090 C   0  0  0  0  0  3  0  0  0  0  0  0
  189.0580  177.5760  144.9820 C   0  0  0  0  0  0  0  0  0  0  0  0
  189.4150  178.0970  143.7100 C   0  0  0  0  0  0  0  0  0  0  0  0
  188.4390  178.6160  142.8110 N   0  0  0  0  0  1  0  0  0  0  0  0
  190.0740  177.0280  145.7870 C   0  0  0  0  0  3  0  0  0  0  0  0
  191.4030  177.0080  145.3600 C   0  0  0  0  0  0  0  0  0  0  0  0
  190.7480  178.0680  143.2910 C   0  0  0  0  0  3  0  0  0  0  0  0
  186.7680  178.5960  145.1040 C   0  0  0  0  0  3  0  0  0  0  0  0
  187.6610  177.5850  145.5030 C   0  0  0  0  0  0  0  0  0  0  0  0
  185.0090  177.6230  146.4500 C   0  0  0  0  0  0  0  0  0  0  0  0
  185.4520  178.6160  145.5750 C   0  0  0  0  0  3  0  0  0  0  0  0
  185.8820  176.6100  146.8540 C   0  0  0  0  0  3  0  0  0  0  0  0
  187.1960  176.5910  146.3800 C   0  0  0  0  0  3  0  0  0  0  0  0
  183.7040  177.6490  146.9220 O   0  0  0  0  0  1  0  0  0  0  0  0
  190.6510  173.8970  141.7660 C   0  0  0  0  0  2  0  0  0  0  0  0
  189.1190  173.8850  141.6970 C   0  0  1  0  0  3  0  0  0  0  0  0
  188.6090  174.9830  141.0000 O   0  0  0  0  0  0  0  0  0  0  0  0
  187.5170  175.4090  141.7640 C   0  0  0  0  0  1  0  0  0  0  0  0
  188.6270  172.5890  141.0760 C   0  0  0  0  0  2  0  0  0  0  0  0
  189.1060  172.5000  139.6710 C   0  0  0  0  0  3  0  0  0  0  0  0
  188.5220  173.2230  138.7170 C   0  0  0  0  0  3  0  0  0  0  0  0
  188.9960  173.1330  137.3040 C   0  0  0  0  0  2  0  0  0  0  0  0
  190.1380  172.2350  137.2190 N   0  0  0  0  0  2  0  0  0  0  0  0
  190.8870  170.5720  135.7220 O   0  0  0  0  0  0  0  0  0  0  0  0
  190.3070  171.8470  135.8240 C   0  0  2  0  0  0  0  0  0  0  0  0
  191.6550  171.6510  135.2290 C   0  0  1  0  0  3  0  0  0  0  0  0
  189.1970  171.9560  134.9860 O   0  0  0  0  0  1  0  0  0  0  0  0
  192.7970  171.9390  136.2010 C   0  0  2  0  0  3  0  0  0  0  0  0
  193.3700  173.3540  136.0160 C   0  0  2  0  0  3  0  0  0  0  0  0
  194.7370  173.3130  135.7520 O   0  0  0  0  0  1  0  0  0  0  0  0
  193.1120  174.2450  137.2260 C   0  0  0  0  0  2  0  0  0  0  0  0
  193.9460  175.3660  137.2030 O   0  0  0  0  0  0  0  0  0  0  0  0
  193.2480  176.3080  136.4490 C   0  0  0  0  0  1  0  0  0  0  0  0
  194.1990  170.1510  134.5600 S   0  0  0  0  0  1  0  0  0  0  0  0
  193.8400  170.8150  136.2200 C   0  0  0  0  0  2  0  0  0  0  0  0
  1 30  1  0  0  0  0
  1  2  1  1  0  0  0
  3 10  1  0  0  0  0
  4 12  1  0  0  0  0
  4 21  1  1  0  0  0
  5  8  1  0  0  0  0
  5  7  1  0  0  0  0
  6  9  1  0  0  0  0
  7  4  1  0  0  0  0
  8  3  2  0  0  0  0
 10 11  1  0  0  0  0
 11  9  1  0  0  0  0
 11  1  1  6  0  0  0
 12  3  1  6  0  0  0
 12  6  1  0  0  0  0
 13  8  1  0  0  0  0
 14 13  1  0  0  0  0
 14 15  1  0  0  0  0
 15 16  1  0  0  0  0
 16 17  1  0  0  0  0
 17 19  1  0  0  0  0
 19 20  1  0  0  0  0
 19 18  1  0  0  0  0
 20 18  1  0  0  0  0
 21 22  1  0  0  0  0
 22 23  1  0  0  0  0
 23 25  1  0  0  0  0
 25 24  1  6  0  0  0
 27 28  1  0  0  0  0
 27 25  1  1  0  0  0
 27 29  1  0  0  0  0
 28 29  1  0  0  0  0
 29 26  2  0  0  0  0
 30 31  2  0  0  0  0
 31 32  1  0  0  0  0
 32 33  1  0  0  0  0
 34 39  1  0  0  0  0
 35 42  1  0  0  0  0
 35 38  1  0  0  0  0
 36 35  2  0  0  0  0
 37 36  1  0  0  0  0
 39 38  2  0  0  0  0
 39 33  1  0  0  0  0
 40 36  1  0  0  0  0
 40 34  2  0  0  0  0
 41 42  2  0  0  0  0
 41 44  1  0  0  0  0
 42 46  1  0  0  0  0
 43 45  1  0  0  0  0
 43 47  1  0  0  0  0
 44 43  2  0  0  0  0
 46 45  2  0  0  0  0
 48  1  1  0  0  0  0
 49 52  1  6  0  0  0
 49 48  1  0  0  0  0
 50 49  1  0  0  0  0
 50 51  1  0  0  0  0
 53 52  1  0  0  0  0
 54 53  2  0  0  0  0
 55 54  1  0  0  0  0
 56 55  1  0  0  0  0
 57 58  1  0  0  0  0
 58 60  1  6  0  0  0
 58 56  1  0  0  0  0
 59 57  1  0  0  0  0
 59 58  1  0  0  0  0
 59 61  1  1  0  0  0
 61 68  1  6  0  0  0
 62 63  1  1  0  0  0
 62 61  1  0  0  0  0
 62 64  1  0  0  0  0
 65 64  1  0  0  0  0
 66 65  1  0  0  0  0
 67 68  1  0  0  0  0
M  END
>  <MODEL>
6

>  <REMARK>
 VINA RESULT:      -4.6      2.548      5.833
  Name = 
  30 active torsions:
  status: ('A' for Active; 'I' for Inactive)
    1  A    between atoms: C_4  and  C_25
    2  A    between atoms: C_4  and  N_65
    3  A    between atoms: O_6  and  C_38
    4  A    between atoms: N_7  and  N_22
    5  A    between atoms: N_7  and  N_68
    6  A    between atoms: C_8  and  C_12
    7  A    between atoms: C_9  and  C_25
    8  A    between atoms: C_13  and  N_24
    9  A    between atoms: O_14  and  C_63
   10  A    between atoms: C_17  and  C_43
   11  A    between atoms: C_20  and  C_50
   12  A    between atoms: C_20  and  C_63
   13  A    between atoms: C_21  and  C_44
   14  A    between atoms: C_21  and  N_65
   15  A    between atoms: N_22  and  C_49
   16  A    between atoms: N_24  and  C_56
   17  A    between atoms: C_26  and  C_34
   18  A    between atoms: C_26  and  C_38
   19  A    between atoms: C_30  and  C_59
   20  A    between atoms: C_32  and  C_56
   21  A    between atoms: C_34  and  C_55
   22  A    between atoms: C_34  and  C_64
   23  A    between atoms: C_35  and  C_50
   24  A    between atoms: C_36  and  C_54
   25  A    between atoms: C_36  and  C_60
   26  A    between atoms: C_38  and  C_43
   27  A    between atoms: C_40  and  C_49
   28  A    between atoms: C_48  and  C_50
   29  A    between atoms: C_54  and  C_67
   30  A    between atoms: C_59  and  N_68
                            x       y       z     vdW  Elec       q    Type
                         _______ _______ _______ _____ _____    ______ ____

>  <TORSDO>
F 30

$$$$
=
 OpenBabel11042417343D

 68 74  0  0  1  0  0  0  0  0999 V2000
  192.1990  171.7330  142.7330 C   0  0  2  0  0  0  0  0  0  0  0  0
  192.6770  171.2050  143.9390 O   0  0  0  0  0  1  0  0  0  0  0  0
  194.8360  174.5870  142.6340 C   0  0  0  0  0  0  0  0  0  0  0  0
  195.9080  175.5990  140.5380 C   0  0  2  0  0  3  0  0  0  0  0  0
  196.6770  176.2620  142.8040 C   0  0  0  0  0  2  0  0  0  0  0  0
  193.6740  174.5760  140.4860 N   0  0  0  0  0  2  0  0  0  0  0  0
  197.1280  175.7820  141.4320 C   0  0  0  0  0  2  0  0  0  0  0  0
  195.6470  175.3430  143.4110 C   0  0  0  0  0  0  0  0  0  0  0  0
  192.7730  173.4920  140.9200 C   0  0  0  0  0  2  0  0  0  0  0  0
  193.7960  173.6850  143.2440 C   0  0  0  0  0  2  0  0  0  0  0  0
  193.2370  172.7320  142.1830 C   0  0  1  0  0  3  0  0  0  0  0  0
  194.9950  174.5150  141.1220 C   0  0  2  0  0  3  0  0  0  0  0  0
  195.5020  175.3510  144.9030 C   0  0  0  0  0  2  0  0  0  0  0  0
  194.9170  176.6080  145.3410 N   0  0  0  0  0  2  0  0  0  0  0  0
  194.1960  176.3300  146.5090 N   0  0  0  0  0  2  0  0  0  0  0  0
  193.0680  175.5980  146.1160 N   0  0  0  0  0  2  0  0  0  0  0  0
  192.0530  176.5520  145.7050 C   0  0  0  0  0  2  0  0  0  0  0  0
  191.2270  177.9260  143.8260 C   0  0  0  0  0  2  0  0  0  0  0  0
  192.4230  177.1690  144.3680 C   0  0  0  0  0  3  0  0  0  0  0  0
  191.5710  176.5570  143.2760 C   0  0  0  0  0  2  0  0  0  0  0  0
  196.3610  175.1760  139.1480 C   0  0  0  0  0  2  0  0  0  0  0  0
  196.1110  173.6960  138.9300 C   0  0  0  0  0  2  0  0  0  0  0  0
  197.0030  173.2060  137.8900 N   0  0  0  0  0  2  0  0  0  0  0  0
  195.6990  171.4140  137.1280 O   0  0  0  0  0  1  0  0  0  0  0  0
  196.1800  172.6900  136.8020 C   0  0  1  0  0  3  0  0  0  0  0  0
  193.5930  172.6600  134.6510 O   0  0  0  0  0  0  0  0  0  0  0  0
  195.0510  173.6860  136.4880 C   0  0  1  0  0  3  0  0  0  0  0  0
  195.3770  174.4940  135.4300 O   0  0  0  0  0  0  0  0  0  0  0  0
  194.3920  173.3690  135.3180 C   0  0  0  0  0  0  0  0  0  0  0  0
  190.8880  172.4240  143.0020 C   0  0  0  0  0  3  0  0  0  0  0  0
  190.7270  173.2020  144.0730 C   0  0  0  0  0  3  0  0  0  0  0  0
  189.4510  173.9250  144.3140 C   0  0  0  0  0  2  0  0  0  0  0  0
  189.4890  174.5180  145.7110 C   0  0  0  0  0  2  0  0  0  0  0  0
  188.3880  176.3160  147.0430 C   0  0  0  0  0  3  0  0  0  0  0  0
  186.9210  177.1720  144.7910 C   0  0  0  0  0  0  0  0  0  0  0  0
  186.7780  177.8290  146.0420 C   0  0  0  0  0  0  0  0  0  0  0  0
  185.9330  178.9660  146.2000 N   0  0  0  0  0  1  0  0  0  0  0  0
  187.8200  176.0930  144.7050 C   0  0  0  0  0  3  0  0  0  0  0  0
  188.5440  175.6630  145.8190 C   0  0  0  0  0  0  0  0  0  0  0  0
  187.5100  177.3940  147.1500 C   0  0  0  0  0  3  0  0  0  0  0  0
  184.7580  177.5610  143.5810 C   0  0  0  0  0  3  0  0  0  0  0  0
  186.1640  177.5710  143.5700 C   0  0  0  0  0  0  0  0  0  0  0  0
  184.7000  178.3370  141.2900 C   0  0  0  0  0  0  0  0  0  0  0  0
  184.0310  177.9390  142.4480 C   0  0  0  0  0  3  0  0  0  0  0  0
  186.0970  178.3550  141.2640 C   0  0  0  0  0  3  0  0  0  0  0  0
  186.8210  177.9780  142.3980 C   0  0  0  0  0  3  0  0  0  0  0  0
  183.9770  178.7050  140.1640 O   0  0  0  0  0  1  0  0  0  0  0  0
  191.9620  170.5980  141.7160 C   0  0  0  0  0  2  0  0  0  0  0  0
  193.2100  169.8870  141.1760 C   0  0  1  0  0  3  0  0  0  0  0  0
  193.4530  168.6740  141.8250 O   0  0  0  0  0  0  0  0  0  0  0  0
  194.8340  168.4820  141.7080 C   0  0  0  0  0  1  0  0  0  0  0  0
  193.0900  169.6720  139.6780 C   0  0  0  0  0  2  0  0  0  0  0  0
  191.7350  170.0850  139.2250 C   0  0  0  0  0  3  0  0  0  0  0  0
  191.1700  169.4930  138.1750 C   0  0  0  0  0  3  0  0  0  0  0  0
  189.8120  169.9080  137.7130 C   0  0  0  0  0  2  0  0  0  0  0  0
  189.5320  171.2670  138.1520 N   0  0  0  0  0  2  0  0  0  0  0  0
  190.4720  173.2430  137.2680 O   0  0  0  0  0  0  0  0  0  0  0  0
  189.6370  172.1470  136.9950 C   0  0  2  0  0  0  0  0  0  0  0  0
  189.1120  173.5380  137.0240 C   0  0  1  0  0  3  0  0  0  0  0  0
  189.9660  171.5650  135.7700 O   0  0  0  0  0  1  0  0  0  0  0  0
  188.4340  173.9040  138.3420 C   0  0  2  0  0  3  0  0  0  0  0  0
  187.9970  175.3770  138.3780 C   0  0  2  0  0  3  0  0  0  0  0  0
  187.7330  175.7930  139.6810 O   0  0  0  0  0  1  0  0  0  0  0  0
  186.7760  175.6400  137.5030 C   0  0  0  0  0  2  0  0  0  0  0  0
  187.0920  176.5230  136.4650 O   0  0  0  0  0  0  0  0  0  0  0  0
  186.3860  176.0370  135.3650 C   0  0  0  0  0  1  0  0  0  0  0  0
  188.1900  172.9900  140.9800 S   0  0  0  0  0  1  0  0  0  0  0  0
  189.2420  173.4380  139.5590 C   0  0  0  0  0  2  0  0  0  0  0  0
  1 30  1  0  0  0  0
  1  2  1  1  0  0  0
  3 10  1  0  0  0  0
  3  8  2  0  0  0  0
  4 21  1  6  0  0  0
  4 12  1  0  0  0  0
  4  7  1  0  0  0  0
  5  8  1  0  0  0  0
  6  9  1  0  0  0  0
  7  5  1  0  0  0  0
  8 13  1  0  0  0  0
  9 11  1  0  0  0  0
 11  1  1  1  0  0  0
 11 10  1  0  0  0  0
 12  6  1  6  0  0  0
 12  3  1  0  0  0  0
 13 14  1  0  0  0  0
 14 15  1  0  0  0  0
 16 15  1  0  0  0  0
 17 16  1  0  0  0  0
 18 19  1  0  0  0  0
 19 17  1  0  0  0  0
 20 18  1  0  0  0  0
 20 19  1  0  0  0  0
 22 21  1  0  0  0  0
 23 22  1  0  0  0  0
 25 24  1  1  0  0  0
 25 23  1  0  0  0  0
 26 29  2  0  0  0  0
 27 25  1  6  0  0  0
 28 27  1  0  0  0  0
 29 28  1  0  0  0  0
 29 27  1  0  0  0  0
 30 31  2  0  0  0  0
 31 32  1  0  0  0  0
 32 33  1  0  0  0  0
 33 39  1  0  0  0  0
 34 40  1  0  0  0  0
 35 36  1  0  0  0  0
 36 37  1  0  0  0  0
 36 40  2  0  0  0  0
 38 35  2  0  0  0  0
 38 39  1  0  0  0  0
 39 34  2  0  0  0  0
 42 41  1  0  0  0  0
 42 35  1  0  0  0  0
 43 44  1  0  0  0  0
 44 41  2  0  0  0  0
 45 43  2  0  0  0  0
 45 46  1  0  0  0  0
 46 42  2  0  0  0  0
 47 43  1  0  0  0  0
 48  1  1  0  0  0  0
 49 52  1  6  0  0  0
 49 48  1  0  0  0  0
 49 50  1  0  0  0  0
 51 50  1  0  0  0  0
 53 52  1  0  0  0  0
 54 53  2  0  0  0  0
 55 56  1  0  0  0  0
 55 54  1  0  0  0  0
 58 60  1  6  0  0  0
 58 59  1  0  0  0  0
 58 57  1  0  0  0  0
 58 56  1  0  0  0  0
 59 57  1  0  0  0  0
 59 61  1  1  0  0  0
 61 62  1  0  0  0  0
 61 68  1  1  0  0  0
 62 63  1  1  0  0  0
 64 62  1  0  0  0  0
 65 64  1  0  0  0  0
 66 65  1  0  0  0  0
 68 67  1  0  0  0  0
M  END
>  <MODEL>
7

>  <REMARK>
 VINA RESULT:      -4.5      2.759      5.300
  Name = 
  30 active torsions:
  status: ('A' for Active; 'I' for Inactive)
    1  A    between atoms: C_4  and  C_25
    2  A    between atoms: C_4  and  N_65
    3  A    between atoms: O_6  and  C_38
    4  A    between atoms: N_7  and  N_22
    5  A    between atoms: N_7  and  N_68
    6  A    between atoms: C_8  and  C_12
    7  A    between atoms: C_9  and  C_25
    8  A    between atoms: C_13  and  N_24
    9  A    between atoms: O_14  and  C_63
   10  A    between atoms: C_17  and  C_43
   11  A    between atoms: C_20  and  C_50
   12  A    between atoms: C_20  and  C_63
   13  A    between atoms: C_21  and  C_44
   14  A    between atoms: C_21  and  N_65
   15  A    between atoms: N_22  and  C_49
   16  A    between atoms: N_24  and  C_56
   17  A    between atoms: C_26  and  C_34
   18  A    between atoms: C_26  and  C_38
   19  A    between atoms: C_30  and  C_59
   20  A    between atoms: C_32  and  C_56
   21  A    between atoms: C_34  and  C_55
   22  A    between atoms: C_34  and  C_64
   23  A    between atoms: C_35  and  C_50
   24  A    between atoms: C_36  and  C_54
   25  A    between atoms: C_36  and  C_60
   26  A    between atoms: C_38  and  C_43
   27  A    between atoms: C_40  and  C_49
   28  A    between atoms: C_48  and  C_50
   29  A    between atoms: C_54  and  C_67
   30  A    between atoms: C_59  and  N_68
                            x       y       z     vdW  Elec       q    Type
                         _______ _______ _______ _____ _____    ______ ____

>  <TORSDO>
F 30

$$$$
=
 OpenBabel11042417343D

 68 74  0  0  1  0  0  0  0  0999 V2000
  189.3130  175.9120  142.7570 C   0  0  2  0  0  0  0  0  0  0  0  0
  189.5390  175.9790  141.3760 O   0  0  0  0  0  1  0  0  0  0  0  0
  186.3090  177.3230  144.7810 C   0  0  0  0  0  0  0  0  0  0  0  0
  184.1170  178.2370  143.8170 C   0  0  2  0  0  3  0  0  0  0  0  0
  184.5970  178.3900  146.2490 C   0  0  0  0  0  2  0  0  0  0  0  0
  185.4560  176.5560  142.6240 N   0  0  0  0  0  2  0  0  0  0  0  0
  184.1520  179.1700  145.0210 C   0  0  0  0  0  2  0  0  0  0  0  0
  185.9130  177.6880  146.0230 C   0  0  0  0  0  0  0  0  0  0  0  0
  186.7840  176.0570  142.2180 C   0  0  0  0  0  2  0  0  0  0  0  0
  187.6160  176.6060  144.5620 C   0  0  0  0  0  2  0  0  0  0  0  0
  187.9610  176.5840  143.0700 C   0  0  1  0  0  3  0  0  0  0  0  0
  185.5270  177.7070  143.5320 C   0  0  2  0  0  3  0  0  0  0  0  0
  186.7330  177.3430  147.2290 C   0  0  0  0  0  2  0  0  0  0  0  0
  187.2550  178.5550  147.8410 N   0  0  0  0  0  2  0  0  0  0  0  0
  188.6040  178.3110  148.1280 N   0  0  0  0  0  2  0  0  0  0  0  0
  189.1650  177.7610  146.9670 N   0  0  0  0  0  2  0  0  0  0  0  0
  190.5180  177.3450  147.2960 C   0  0  0  0  0  2  0  0  0  0  0  0
  191.1950  175.2500  148.4140 C   0  0  0  0  0  2  0  0  0  0  0  0
  190.6620  175.8430  147.1260 C   0  0  0  0  0  3  0  0  0  0  0  0
  192.1230  175.4600  147.2360 C   0  0  0  0  0  2  0  0  0  0  0  0
  183.6150  179.0020  142.6010 C   0  0  0  0  0  2  0  0  0  0  0  0
  182.2460  178.5020  142.1810 C   0  0  0  0  0  2  0  0  0  0  0  0
  181.2270  179.4090  142.6890 N   0  0  0  0  0  2  0  0  0  0  0  0
  180.4430  179.5370  140.4850 O   0  0  0  0  0  1  0  0  0  0  0  0
  180.0640  179.3090  141.8150 C   0  0  1  0  0  3  0  0  0  0  0  0
  177.8480  177.5420  140.0030 O   0  0  0  0  0  0  0  0  0  0  0  0
  179.3830  177.9440  142.0110 C   0  0  1  0  0  3  0  0  0  0  0  0
  178.1550  178.0790  142.6050 O   0  0  0  0  0  0  0  0  0  0  0  0
  178.3220  177.7670  141.1470 C   0  0  0  0  0  0  0  0  0  0  0  0
  190.4370  176.6270  143.4600 C   0  0  0  0  0  3  0  0  0  0  0  0
  191.5490  176.9670  142.8080 C   0  0  0  0  0  3  0  0  0  0  0  0
  192.6390  177.7180  143.4870 C   0  0  0  0  0  2  0  0  0  0  0  0
  193.2240  176.8380  144.5760 C   0  0  0  0  0  2  0  0  0  0  0  0
  194.8130  176.1160  142.7930 C   0  0  0  0  0  3  0  0  0  0  0  0
  195.2680  173.6620  144.1060 C   0  0  0  0  0  0  0  0  0  0  0  0
  195.9300  173.9650  142.8870 C   0  0  0  0  0  0  0  0  0  0  0  0
  196.8770  173.0740  142.3060 N   0  0  0  0  0  1  0  0  0  0  0  0
  194.3890  174.6210  144.6440 C   0  0  0  0  0  3  0  0  0  0  0  0
  194.1580  175.8350  143.9940 C   0  0  0  0  0  0  0  0  0  0  0  0
  195.6940  175.1850  142.2460 C   0  0  0  0  0  3  0  0  0  0  0  0
  194.3990  171.4550  144.9260 C   0  0  0  0  0  3  0  0  0  0  0  0
  195.4580  172.3770  144.8390 C   0  0  0  0  0  0  0  0  0  0  0  0
  195.7850  169.9320  146.1970 C   0  0  0  0  0  0  0  0  0  0  0  0
  194.5610  170.2420  145.6020 C   0  0  0  0  0  3  0  0  0  0  0  0
  196.8470  170.8360  146.1160 C   0  0  0  0  0  3  0  0  0  0  0  0
  196.6840  172.0470  145.4390 C   0  0  0  0  0  3  0  0  0  0  0  0
  195.9410  168.7300  146.8730 O   0  0  0  0  0  1  0  0  0  0  0  0
  189.2950  174.4400  143.2190 C   0  0  0  0  0  2  0  0  0  0  0  0
  190.5870  173.6400  143.0130 C   0  0  1  0  0  3  0  0  0  0  0  0
  190.4380  172.2930  143.3530 O   0  0  0  0  0  0  0  0  0  0  0  0
  189.2080  172.2290  144.0140 C   0  0  0  0  0  1  0  0  0  0  0  0
  191.0710  173.7740  141.5810 C   0  0  0  0  0  2  0  0  0  0  0  0
  191.1920  172.4230  140.9700 C   0  0  0  0  0  3  0  0  0  0  0  0
  190.4050  172.0720  139.9560 C   0  0  0  0  0  3  0  0  0  0  0  0
  190.5190  170.7150  139.3430 C   0  0  0  0  0  2  0  0  0  0  0  0
  191.9190  170.3240  139.2610 N   0  0  0  0  0  2  0  0  0  0  0  0
  192.9160  168.3530  140.0890 O   0  0  0  0  0  0  0  0  0  0  0  0
  191.9790  168.8700  139.1800 C   0  0  2  0  0  0  0  0  0  0  0  0
  193.2040  168.1660  138.7180 C   0  0  1  0  0  3  0  0  0  0  0  0
  190.7740  168.1700  139.2560 O   0  0  0  0  0  1  0  0  0  0  0  0
  194.3300  169.1120  138.3090 C   0  0  2  0  0  3  0  0  0  0  0  0
  194.5400  169.1370  136.7870 C   0  0  2  0  0  3  0  0  0  0  0  0
  195.8930  169.0700  136.4630 O   0  0  0  0  0  1  0  0  0  0  0  0
  193.9220  170.3710  136.1380 C   0  0  0  0  0  2  0  0  0  0  0  0
  194.4990  171.5390  136.6440 O   0  0  0  0  0  0  0  0  0  0  0  0
  194.6490  172.3670  135.5330 C   0  0  0  0  0  1  0  0  0  0  0  0
  196.3840  170.4480  139.6700 S   0  0  0  0  0  1  0  0  0  0  0  0
  195.6030  168.8890  139.1350 C   0  0  0  0  0  2  0  0  0  0  0  0
  1  2  1  6  0  0  0
  1 48  1  0  0  0  0
  1 30  1  0  0  0  0
  3  8  2  0  0  0  0
  4 21  1  6  0  0  0
  4  7  1  0  0  0  0
  7  5  1  0  0  0  0
  8  5  1  0  0  0  0
  8 13  1  0  0  0  0
  9  6  1  0  0  0  0
  9 11  1  0  0  0  0
 10  3  1  0  0  0  0
 11  1  1  1  0  0  0
 11 10  1  0  0  0  0
 12  6  1  6  0  0  0
 12  4  1  0  0  0  0
 12  3  1  0  0  0  0
 13 14  1  0  0  0  0
 14 15  1  0  0  0  0
 16 17  1  0  0  0  0
 16 15  1  0  0  0  0
 19 20  1  0  0  0  0
 19 17  1  0  0  0  0
 19 18  1  0  0  0  0
 20 18  1  0  0  0  0
 22 21  1  0  0  0  0
 22 23  1  0  0  0  0
 25 24  1  6  0  0  0
 25 23  1  0  0  0  0
 26 29  2  0  0  0  0
 27 25  1  6  0  0  0
 27 28  1  0  0  0  0
 29 27  1  0  0  0  0
 29 28  1  0  0  0  0
 31 30  2  0  0  0  0
 31 32  1  0  0  0  0
 32 33  1  0  0  0  0
 34 39  1  0  0  0  0
 35 38  1  0  0  0  0
 35 42  1  0  0  0  0
 36 35  2  0  0  0  0
 37 36  1  0  0  0  0
 39 33  1  0  0  0  0
 39 38  2  0  0  0  0
 40 34  2  0  0  0  0
 40 36  1  0  0  0  0
 41 44  1  0  0  0  0
 42 41  2  0  0  0  0
 42 46  1  0  0  0  0
 43 47  1  0  0  0  0
 44 43  2  0  0  0  0
 45 43  1  0  0  0  0
 46 45  2  0  0  0  0
 49 52  1  6  0  0  0
 49 48  1  0  0  0  0
 49 50  1  0  0  0  0
 50 51  1  0  0  0  0
 53 52  1  0  0  0  0
 54 53  2  0  0  0  0
 55 54  1  0  0  0  0
 56 55  1  0  0  0  0
 58 60  1  6  0  0  0
 58 56  1  0  0  0  0
 58 57  1  0  0  0  0
 59 61  1  6  0  0  0
 59 58  1  0  0  0  0
 59 57  1  0  0  0  0
 61 68  1  1  0  0  0
 62 63  1  1  0  0  0
 62 61  1  0  0  0  0
 64 65  1  0  0  0  0
 64 62  1  0  0  0  0
 66 65  1  0  0  0  0
 68 67  1  0  0  0  0
M  END
>  <MODEL>
8

>  <REMARK>
 VINA RESULT:      -4.3      3.299     10.673
  Name = 
  30 active torsions:
  status: ('A' for Active; 'I' for Inactive)
    1  A    between atoms: C_4  and  C_25
    2  A    between atoms: C_4  and  N_65
    3  A    between atoms: O_6  and  C_38
    4  A    between atoms: N_7  and  N_22
    5  A    between atoms: N_7  and  N_68
    6  A    between atoms: C_8  and  C_12
    7  A    between atoms: C_9  and  C_25
    8  A    between atoms: C_13  and  N_24
    9  A    between atoms: O_14  and  C_63
   10  A    between atoms: C_17  and  C_43
   11  A    between atoms: C_20  and  C_50
   12  A    between atoms: C_20  and  C_63
   13  A    between atoms: C_21  and  C_44
   14  A    between atoms: C_21  and  N_65
   15  A    between atoms: N_22  and  C_49
   16  A    between atoms: N_24  and  C_56
   17  A    between atoms: C_26  and  C_34
   18  A    between atoms: C_26  and  C_38
   19  A    between atoms: C_30  and  C_59
   20  A    between atoms: C_32  and  C_56
   21  A    between atoms: C_34  and  C_55
   22  A    between atoms: C_34  and  C_64
   23  A    between atoms: C_35  and  C_50
   24  A    between atoms: C_36  and  C_54
   25  A    between atoms: C_36  and  C_60
   26  A    between atoms: C_38  and  C_43
   27  A    between atoms: C_40  and  C_49
   28  A    between atoms: C_48  and  C_50
   29  A    between atoms: C_54  and  C_67
   30  A    between atoms: C_59  and  N_68
                            x       y       z     vdW  Elec       q    Type
                         _______ _______ _______ _____ _____    ______ ____

>  <TORSDO>
F 30

$$$$
=
 OpenBabel11042417343D

 68 74  0  0  1  0  0  0  0  0999 V2000
  193.4620  170.3530  142.4440 C   0  0  2  0  0  0  0  0  0  0  0  0
  192.3550  169.7740  143.0770 O   0  0  0  0  0  1  0  0  0  0  0  0
  192.1210  169.6130  138.8720 C   0  0  0  0  0  0  0  0  0  0  0  0
  193.4560  168.6330  136.9160 C   0  0  2  0  0  3  0  0  0  0  0  0
  191.1250  169.4250  136.5920 C   0  0  0  0  0  2  0  0  0  0  0  0
  194.0520  168.1660  139.2540 N   0  0  0  0  0  2  0  0  0  0  0  0
  192.5470  169.5020  136.0550 C   0  0  0  0  0  2  0  0  0  0  0  0
  191.0560  169.7860  138.0540 C   0  0  0  0  0  0  0  0  0  0  0  0
  194.2090  168.6540  140.6370 C   0  0  0  0  0  2  0  0  0  0  0  0
  192.0420  169.9570  140.3360 C   0  0  0  0  0  2  0  0  0  0  0  0
  193.4430  169.9590  140.9540 C   0  0  1  0  0  3  0  0  0  0  0  0
  193.4820  169.1720  138.3500 C   0  0  2  0  0  3  0  0  0  0  0  0
  189.7430  170.2740  138.5890 C   0  0  0  0  0  2  0  0  0  0  0  0
  189.8420  171.6800  138.9470 N   0  0  0  0  0  2  0  0  0  0  0  0
  188.5990  172.2570  138.6590 N   0  0  0  0  0  2  0  0  0  0  0  0
  188.8250  173.6300  138.4940 N   0  0  0  0  0  2  0  0  0  0  0  0
  190.0080  173.7770  137.6630 C   0  0  0  0  0  2  0  0  0  0  0  0
  190.4840  173.7890  135.2400 C   0  0  0  0  0  2  0  0  0  0  0  0
  189.6400  174.4120  136.3330 C   0  0  0  0  0  3  0  0  0  0  0  0
  190.8360  175.1580  135.7810 C   0  0  0  0  0  2  0  0  0  0  0  0
  194.8670  168.6610  136.3450 C   0  0  0  0  0  2  0  0  0  0  0  0
  195.0580  169.8690  135.4460 C   0  0  0  0  0  2  0  0  0  0  0  0
  196.3960  170.4050  135.6410 N   0  0  0  0  0  2  0  0  0  0  0  0
  196.7090  171.3320  137.7700 O   0  0  0  0  0  1  0  0  0  0  0  0
  196.2820  171.6040  136.4630 C   0  0  1  0  0  3  0  0  0  0  0  0
  195.7830  174.9250  136.2620 O   0  0  0  0  0  0  0  0  0  0  0  0
  197.0660  172.7560  135.8120 C   0  0  1  0  0  3  0  0  0  0  0  0
  196.5950  173.0330  134.5550 O   0  0  0  0  0  0  0  0  0  0  0  0
  196.3170  173.9130  135.7370 C   0  0  0  0  0  0  0  0  0  0  0  0
  194.7130  169.8450  143.1120 C   0  0  0  0  0  3  0  0  0  0  0  0
  195.8520  170.5370  143.0560 C   0  0  0  0  0  3  0  0  0  0  0  0
  197.0740  170.0640  143.7580 C   0  0  0  0  0  2  0  0  0  0  0  0
  197.2380  170.8670  145.0350 C   0  0  0  0  0  2  0  0  0  0  0  0
  197.7850  173.0310  143.9230 C   0  0  0  0  0  3  0  0  0  0  0  0
  195.6030  174.3000  145.1830 C   0  0  0  0  0  0  0  0  0  0  0  0
  196.4470  175.0200  144.2970 C   0  0  0  0  0  0  0  0  0  0  0  0
  196.2040  176.3860  143.9730 N   0  0  0  0  0  1  0  0  0  0  0  0
  195.8780  172.9380  145.4060 C   0  0  0  0  0  3  0  0  0  0  0  0
  196.9610  172.3080  144.7870 C   0  0  0  0  0  0  0  0  0  0  0  0
  197.5260  174.3800  143.6800 C   0  0  0  0  0  3  0  0  0  0  0  0
  194.5550  176.2160  146.4180 C   0  0  0  0  0  3  0  0  0  0  0  0
  194.4440  174.9180  145.8880 C   0  0  0  0  0  0  0  0  0  0  0  0
  192.2690  176.1280  147.2060 C   0  0  0  0  0  0  0  0  0  0  0  0
  193.4760  176.8160  147.0740 C   0  0  0  0  0  3  0  0  0  0  0  0
  192.1410  174.8390  146.6820 C   0  0  0  0  0  3  0  0  0  0  0  0
  193.2200  174.2420  146.0250 C   0  0  0  0  0  3  0  0  0  0  0  0
  191.2010  176.7220  147.8650 O   0  0  0  0  0  1  0  0  0  0  0  0
  193.4110  171.8880  142.5890 C   0  0  0  0  0  2  0  0  0  0  0  0
  194.4520  172.6890  141.7980 C   0  0  1  0  0  3  0  0  0  0  0  0
  194.5610  172.2590  140.4740 O   0  0  0  0  0  0  0  0  0  0  0  0
  194.9060  173.4080  139.7560 C   0  0  0  0  0  1  0  0  0  0  0  0
  194.1290  174.1720  141.8480 C   0  0  0  0  0  2  0  0  0  0  0  0
  192.7720  174.3640  142.4260 C   0  0  0  0  0  3  0  0  0  0  0  0
  191.8060  174.9190  141.6990 C   0  0  0  0  0  3  0  0  0  0  0  0
  190.4430  175.1190  142.2770 C   0  0  0  0  0  2  0  0  0  0  0  0
  190.5510  175.6090  143.6430 N   0  0  0  0  0  2  0  0  0  0  0  0
  190.3690  177.6120  144.8770 O   0  0  0  0  0  0  0  0  0  0  0  0
  190.5790  177.0660  143.6010 C   0  0  2  0  0  0  0  0  0  0  0  0
  189.3730  177.8780  143.9110 C   0  0  1  0  0  3  0  0  0  0  0  0
  191.6700  177.6720  142.9750 O   0  0  0  0  0  1  0  0  0  0  0  0
  188.1370  177.0350  144.2200 C   0  0  2  0  0  3  0  0  0  0  0  0
  187.0020  177.2830  143.2140 C   0  0  2  0  0  3  0  0  0  0  0  0
  185.7540  177.1350  143.8150 O   0  0  0  0  0  1  0  0  0  0  0  0
  187.0940  176.3660  141.9990 C   0  0  0  0  0  2  0  0  0  0  0  0
  187.2070  177.1120  140.8220 O   0  0  0  0  0  0  0  0  0  0  0  0
  185.9250  177.6100  140.5970 C   0  0  0  0  0  1  0  0  0  0  0  0
  188.2290  175.6640  146.6620 S   0  0  0  0  0  1  0  0  0  0  0  0
  187.7280  177.1260  145.6950 C   0  0  0  0  0  2  0  0  0  0  0  0
  1 48  1  0  0  0  0
  1  2  1  1  0  0  0
  1 30  1  0  0  0  0
  3 10  1  0  0  0  0
  4 21  1  6  0  0  0
  4 12  1  0  0  0  0
  5  8  1  0  0  0  0
  6  9  1  0  0  0  0
  7  5  1  0  0  0  0
  7  4  1  0  0  0  0
  8 13  1  0  0  0  0
  8  3  2  0  0  0  0
  9 11  1  0  0  0  0
 10 11  1  0  0  0  0
 11  1  1  1  0  0  0
 12  3  1  1  0  0  0
 12  6  1  0  0  0  0
 13 14  1  0  0  0  0
 15 14  1  0  0  0  0
 16 15  1  0  0  0  0
 17 16  1  0  0  0  0
 18 20  1  0  0  0  0
 18 19  1  0  0  0  0
 19 17  1  0  0  0  0
 20 19  1  0  0  0  0
 22 23  1  0  0  0  0
 22 21  1  0  0  0  0
 23 25  1  0  0  0  0
 25 24  1  1  0  0  0
 27 25  1  1  0  0  0
 28 29  1  0  0  0  0
 28 27  1  0  0  0  0
 29 27  1  0  0  0  0
 29 26  2  0  0  0  0
 31 30  2  0  0  0  0
 31 32  1  0  0  0  0
 32 33  1  0  0  0  0
 34 39  1  0  0  0  0
 35 38  1  0  0  0  0
 35 42  1  0  0  0  0
 36 35  2  0  0  0  0
 37 36  1  0  0  0  0
 39 33  1  0  0  0  0
 39 38  2  0  0  0  0
 40 34  2  0  0  0  0
 40 36  1  0  0  0  0
 41 44  1  0  0  0  0
 42 46  1  0  0  0  0
 42 41  2  0  0  0  0
 43 47  1  0  0  0  0
 44 43  2  0  0  0  0
 45 43  1  0  0  0  0
 46 45  2  0  0  0  0
 49 52  1  6  0  0  0
 49 48  1  0  0  0  0
 50 49  1  0  0  0  0
 51 50  1  0  0  0  0
 52 53  1  0  0  0  0
 54 55  1  0  0  0  0
 54 53  2  0  0  0  0
 55 56  1  0  0  0  0
 58 60  1  6  0  0  0
 58 56  1  0  0  0  0
 58 59  1  0  0  0  0
 58 57  1  0  0  0  0
 59 61  1  1  0  0  0
 59 57  1  0  0  0  0
 61 68  1  1  0  0  0
 62 63  1  1  0  0  0
 62 61  1  0  0  0  0
 64 62  1  0  0  0  0
 65 64  1  0  0  0  0
 66 65  1  0  0  0  0
 68 67  1  0  0  0  0
M  END
>  <MODEL>
9

>  <REMARK>
 VINA RESULT:      -4.3      2.697      6.261
  Name = 
  30 active torsions:
  status: ('A' for Active; 'I' for Inactive)
    1  A    between atoms: C_4  and  C_25
    2  A    between atoms: C_4  and  N_65
    3  A    between atoms: O_6  and  C_38
    4  A    between atoms: N_7  and  N_22
    5  A    between atoms: N_7  and  N_68
    6  A    between atoms: C_8  and  C_12
    7  A    between atoms: C_9  and  C_25
    8  A    between atoms: C_13  and  N_24
    9  A    between atoms: O_14  and  C_63
   10  A    between atoms: C_17  and  C_43
   11  A    between atoms: C_20  and  C_50
   12  A    between atoms: C_20  and  C_63
   13  A    between atoms: C_21  and  C_44
   14  A    between atoms: C_21  and  N_65
   15  A    between atoms: N_22  and  C_49
   16  A    between atoms: N_24  and  C_56
   17  A    between atoms: C_26  and  C_34
   18  A    between atoms: C_26  and  C_38
   19  A    between atoms: C_30  and  C_59
   20  A    between atoms: C_32  and  C_56
   21  A    between atoms: C_34  and  C_55
   22  A    between atoms: C_34  and  C_64
   23  A    between atoms: C_35  and  C_50
   24  A    between atoms: C_36  and  C_54
   25  A    between atoms: C_36  and  C_60
   26  A    between atoms: C_38  and  C_43
   27  A    between atoms: C_40  and  C_49
   28  A    between atoms: C_48  and  C_50
   29  A    between atoms: C_54  and  C_67
   30  A    between atoms: C_59  and  N_68
                            x       y       z     vdW  Elec       q    Type
                         _______ _______ _______ _____ _____    ______ ____

>  <TORSDO>
F 30

$$$$
