=
 OpenBabel11042419423D

 61 66  0  0  1  0  0  0  0  0999 V2000
  190.8740  174.2490  143.1370 C   0  0  0  0  0  2  0  0  0  0  0  0
  192.7250  170.4990  142.1630 C   0  0  1  0  0  3  0  0  0  0  0  0
  194.0400  175.7110  144.5930 C   0  0  1  0  0  3  0  0  0  0  0  0
  194.6640  174.5820  142.4170 C   0  0  0  0  0  2  0  0  0  0  0  0
  191.8480  174.5490  144.2600 C   0  0  0  0  0  2  0  0  0  0  0  0
  190.5540  171.1980  143.1800 C   0  0  0  0  0  2  0  0  0  0  0  0
  194.1300  171.0350  141.8660 C   0  0  1  0  0  0  0  0  0  0  0  0
  192.0610  171.2000  143.3410 C   0  0  0  0  0  2  0  0  0  0  0  0
  195.0430  174.9650  143.8510 C   0  0  1  0  0  3  0  0  0  0  0  0
  189.9360  172.1280  144.2160 C   0  0  0  0  0  2  0  0  0  0  0  0
  195.2900  173.2610  141.9800 C   0  0  1  0  0  3  0  0  0  0  0  0
  189.6370  173.5270  143.6660 C   0  0  2  0  0  3  0  0  0  0  0  0
  197.0340  176.5340  143.3660 N   0  0  0  0  0  2  0  0  0  0  0  0
  192.9440  171.4950  141.0350 C   0  0  0  0  0  2  0  0  0  0  0  0
  194.7760  176.9530  144.4880 N   0  0  0  0  0  2  0  0  0  0  0  0
  196.7360  173.2960  142.1060 N   0  0  0  0  0  1  0  0  0  0  0  0
  194.7160  172.1020  142.7850 C   0  0  0  0  0  2  0  0  0  0  0  0
  195.8610  176.2210  143.8090 C   0  0  0  0  0  0  0  0  0  0  0  0
  192.6460  175.8080  143.9480 C   0  0  1  0  0  3  0  0  0  0  0  0
  191.8950  177.0110  144.4430 C   0  0  0  0  0  0  0  0  0  0  0  0
  191.7590  178.0700  143.6520 C   0  0  0  0  0  2  0  0  0  0  0  0
  191.3560  177.0280  145.7280 O   0  0  0  0  0  0  0  0  0  0  0  0
  187.1550  176.9190  146.7440 C   0  0  0  0  0  0  0  0  0  0  0  0
  189.5140  176.0290  146.9440 C   0  0  0  0  0  2  0  0  0  0  0  0
  186.8340  177.2190  145.3030 C   0  0  2  0  0  3  0  0  0  0  0  0
  188.0110  175.7190  147.0000 C   0  0  0  0  0  2  0  0  0  0  0  0
  187.0480  177.8550  147.6870 C   0  0  0  0  0  2  0  0  0  0  0  0
  188.0090  177.8960  144.5910 C   0  0  0  0  0  2  0  0  0  0  0  0
  189.2480  177.0040  144.5900 C   0  0  0  0  0  2  0  0  0  0  0  0
  189.9550  177.1040  145.9350 C   0  0  2  0  0  3  0  0  0  0  0  0
  185.4920  177.9430  145.1070 C   0  0  1  0  0  3  0  0  0  0  0  0
  183.8640  178.6370  146.3270 O   0  0  0  0  0  1  0  0  0  0  0  0
  184.5470  177.5420  146.0580 O   0  0  0  0  0  0  0  0  0  0  0  0
  185.4370  179.9900  143.8330 O   0  0  0  0  0  1  0  0  0  0  0  0
  185.6640  179.4630  145.1080 C   0  0  0  0  0  2  0  0  0  0  0  0
  196.3000  169.9310  141.9060 O   0  0  0  0  0  1  0  0  0  0  0  0
  195.1090  170.0670  141.1900 C   0  0  2  0  0  3  0  0  0  0  0  0
  195.3950  170.4650  139.7480 C   0  0  0  0  0  2  0  0  0  0  0  0
  194.9060  169.4440  138.8320 N   0  0  0  0  0  2  0  0  0  0  0  0
  193.5260  171.0520  137.5330 N   0  0  0  0  0  2  0  0  0  0  0  0
  194.0360  169.7270  137.7340 C   0  0  0  0  0  0  0  0  0  0  0  0
  193.7270  168.8010  136.9420 O   0  0  0  0  0  0  0  0  0  0  0  0
  189.9330  173.6370  136.7680 C   0  0  0  0  0  1  0  0  0  0  0  0
  193.2160  172.8970  135.6490 S   0  0  0  0  0  0  0  0  0  0  0  0
  191.2680  171.7250  136.9650 C   0  0  2  0  0  3  0  0  0  0  0  0
  191.5140  173.1910  135.0940 C   0  0  0  0  0  2  0  0  0  0  0  0
  190.5570  172.5690  136.0080 N   0  0  0  0  0  0  0  0  0  0  0  0
  192.6420  171.3880  136.4290 C   0  0  2  0  0  3  0  0  0  0  0  0
  190.4840  170.4430  137.2170 C   0  0  0  0  0  2  0  0  0  0  0  0
  189.9230  171.3000  139.3400 O   0  0  0  0  0  0  0  0  0  0  0  0
  190.1180  170.3060  138.6570 C   0  0  0  0  0  3  0  0  0  0  0  0
  188.5360  173.4680  142.6100 C   0  0  0  0  0  2  0  0  0  0  0  0
  188.0430  174.8560  142.2200 C   0  0  0  0  0  2  0  0  0  0  0  0
  187.7630  174.9540  140.7270 C   0  0  2  0  0  3  0  0  0  0  0  0
  188.9430  174.7440  140.0070 O   0  0  0  0  0  1  0  0  0  0  0  0
  186.3830  177.0200  141.4670 C   0  0  2  0  0  3  0  0  0  0  0  0
  187.7950  177.4920  141.1360 C   0  0  0  0  0  2  0  0  0  0  0  0
  186.9000  176.6200  139.0520 O   0  0  0  0  0  1  0  0  0  0  0  0
  187.1980  176.3260  140.3860 C   0  0  1  0  0  0  0  0  0  0  0  0
  185.4040  177.9680  140.9180 C   0  0  0  0  0  0  0  0  0  0  0  0
  184.6360  178.7220  140.4960 N   0  0  0  0  0  0  0  0  0  0  0  0
  1 12  1  0  0  0  0
  1  5  1  0  0  0  0
  2 14  1  6  0  0  0
  2  8  1  0  0  0  0
  3 15  1  6  0  0  0
  6  8  1  0  0  0  0
  6 10  1  0  0  0  0
  7 37  1  6  0  0  0
  7  2  1  0  0  0  0
  7 17  1  0  0  0  0
  9  4  1  6  0  0  0
  9  3  1  0  0  0  0
 11 16  1  1  0  0  0
 11  4  1  0  0  0  0
 11 17  1  0  0  0  0
 12 52  1  6  0  0  0
 12 10  1  0  0  0  0
 13 18  2  0  0  0  0
 14  7  1  0  0  0  0
 18  9  1  0  0  0  0
 18 15  1  0  0  0  0
 19  5  1  0  0  0  0
 19 20  1  1  0  0  0
 19  3  1  0  0  0  0
 20 22  1  0  0  0  0
 21 20  2  0  0  0  0
 23 26  1  0  0  0  0
 23 27  2  0  0  0  0
 24 26  1  0  0  0  0
 25 31  1  1  0  0  0
 25 23  1  0  0  0  0
 28 25  1  0  0  0  0
 29 28  1  0  0  0  0
 29 30  1  0  0  0  0
 30 22  1  6  0  0  0
 30 24  1  0  0  0  0
 31 35  1  1  0  0  0
 31 33  1  0  0  0  0
 33 32  1  0  0  0  0
 34 35  1  0  0  0  0
 37 36  1  1  0  0  0
 38 37  1  0  0  0  0
 39 38  1  0  0  0  0
 40 41  1  0  0  0  0
 41 39  1  0  0  0  0
 42 41  2  0  0  0  0
 44 48  1  0  0  0  0
 45 49  1  6  0  0  0
 46 44  1  0  0  0  0
 46 47  1  0  0  0  0
 47 43  1  0  0  0  0
 47 45  1  0  0  0  0
 48 45  1  0  0  0  0
 48 40  1  1  0  0  0
 49 51  1  0  0  0  0
 51 50  2  0  0  0  0
 53 52  1  0  0  0  0
 54 55  1  6  0  0  0
 54 53  1  0  0  0  0
 56 60  1  6  0  0  0
 57 56  1  0  0  0  0
 59 58  1  6  0  0  0
 59 54  1  0  0  0  0
 59 57  1  0  0  0  0
 59 56  1  0  0  0  0
 61 60  3  0  0  0  0
M  END
>  <MODEL>
1

>  <REMARK>
 VINA RESULT:      -7.0      0.000      0.000
  Name = 
  17 active torsions:
  status: ('A' for Active; 'I' for Inactive)
    1  A    between atoms: N_4  and  C_53
    2  A    between atoms: C_6  and  C_8
    3  A    between atoms: C_9  and  C_14
    4  A    between atoms: C_9  and  C_39
    5  A    between atoms: C_11  and  O_48
    6  A    between atoms: C_11  and  C_54
    7  A    between atoms: C_14  and  C_50
    8  A    between atoms: C_20  and  C_55
    9  A    between atoms: C_22  and  C_24
   10  A    between atoms: C_22  and  O_45
   11  A    between atoms: C_22  and  C_59
   12  A    between atoms: C_29  and  C_39
   13  A    between atoms: C_35  and  C_42
   14  A    between atoms: C_35  and  C_52
   15  A    between atoms: N_40  and  C_61
   16  A    between atoms: O_48  and  C_60
   17  A    between atoms: C_53  and  C_55
                            x       y       z     vdW  Elec       q    Type
                         _______ _______ _______ _____ _____    ______ ____

>  <TORSDO>
F 17

$$$$
=
 OpenBabel11042419423D

 61 66  0  0  1  0  0  0  0  0999 V2000
  190.6120  174.2320  142.6610 C   0  0  0  0  0  2  0  0  0  0  0  0
  192.3010  170.3460  141.9650 C   0  0  1  0  0  3  0  0  0  0  0  0
  193.6280  175.4670  144.5730 C   0  0  1  0  0  3  0  0  0  0  0  0
  194.4800  174.2750  142.5100 C   0  0  0  0  0  2  0  0  0  0  0  0
  191.4290  174.4690  143.9170 C   0  0  0  0  0  2  0  0  0  0  0  0
  190.0620  171.2130  142.6510 C   0  0  0  0  0  2  0  0  0  0  0  0
  193.7700  170.7730  141.8810 C   0  0  1  0  0  0  0  0  0  0  0  0
  191.5250  171.1050  143.0330 C   0  0  0  0  0  2  0  0  0  0  0  0
  194.6710  174.6430  143.9860 C   0  0  1  0  0  3  0  0  0  0  0  0
  189.3690  172.1960  143.5850 C   0  0  0  0  0  2  0  0  0  0  0  0
  195.0630  172.9070  142.1690 C   0  0  1  0  0  3  0  0  0  0  0  0
  189.2590  173.6090  143.0000 C   0  0  2  0  0  3  0  0  0  0  0  0
  196.8230  176.0550  143.8030 N   0  0  0  0  0  2  0  0  0  0  0  0
  192.7580  171.3120  140.8830 C   0  0  0  0  0  2  0  0  0  0  0  0
  194.4620  176.6510  144.5800 N   0  0  0  0  0  2  0  0  0  0  0  0
  196.4740  172.8370  142.5080 N   0  0  0  0  0  1  0  0  0  0  0  0
  194.2920  171.8020  142.8780 C   0  0  0  0  0  2  0  0  0  0  0  0
  195.5780  175.8340  144.0670 C   0  0  0  0  0  0  0  0  0  0  0  0
  192.3560  175.6620  143.7290 C   0  0  1  0  0  3  0  0  0  0  0  0
  191.6330  176.9220  144.1080 C   0  0  0  0  0  0  0  0  0  0  0  0
  191.4720  177.8840  143.2060 C   0  0  0  0  0  2  0  0  0  0  0  0
  191.1440  177.0930  145.4020 O   0  0  0  0  0  0  0  0  0  0  0  0
  186.9880  177.0380  146.5950 C   0  0  0  0  0  0  0  0  0  0  0  0
  189.3700  176.2090  146.7970 C   0  0  0  0  0  2  0  0  0  0  0  0
  186.6060  177.1710  145.1440 C   0  0  2  0  0  3  0  0  0  0  0  0
  187.8770  175.8860  146.9470 C   0  0  0  0  0  2  0  0  0  0  0  0
  186.9000  178.0710  147.4330 C   0  0  0  0  0  2  0  0  0  0  0  0
  187.7400  177.7800  144.3140 C   0  0  0  0  0  2  0  0  0  0  0  0
  188.9940  176.9130  144.3610 C   0  0  0  0  0  2  0  0  0  0  0  0
  189.7510  177.1720  145.6570 C   0  0  2  0  0  3  0  0  0  0  0  0
  185.2440  177.8490  144.9240 C   0  0  1  0  0  3  0  0  0  0  0  0
  183.7150  178.8750  146.0330 O   0  0  0  0  0  1  0  0  0  0  0  0
  184.4420  177.7750  146.0680 O   0  0  0  0  0  0  0  0  0  0  0  0
  185.7700  179.3440  143.1070 O   0  0  0  0  0  1  0  0  0  0  0  0
  185.4020  179.2960  144.4540 C   0  0  0  0  0  2  0  0  0  0  0  0
  195.9210  169.6590  142.1340 O   0  0  0  0  0  1  0  0  0  0  0  0
  194.7630  169.7290  141.3550 C   0  0  2  0  0  3  0  0  0  0  0  0
  195.1160  169.9670  139.8930 C   0  0  0  0  0  2  0  0  0  0  0  0
  196.4290  170.5850  139.7800 N   0  0  0  0  0  2  0  0  0  0  0  0
  195.6040  172.4390  138.3460 N   0  0  0  0  0  2  0  0  0  0  0  0
  196.6650  171.8020  139.0690 C   0  0  0  0  0  0  0  0  0  0  0  0
  197.8150  172.3110  139.0900 O   0  0  0  0  0  0  0  0  0  0  0  0
  194.2170  174.3290  134.5140 C   0  0  0  0  0  1  0  0  0  0  0  0
  194.4710  174.8180  138.0180 S   0  0  0  0  0  0  0  0  0  0  0  0
  195.6460  173.4190  136.1290 C   0  0  2  0  0  3  0  0  0  0  0  0
  194.7360  175.6110  136.4080 C   0  0  0  0  0  2  0  0  0  0  0  0
  195.2820  174.6570  135.4440 N   0  0  0  0  0  0  0  0  0  0  0  0
  195.7950  173.6790  137.6130 C   0  0  2  0  0  3  0  0  0  0  0  0
  196.9520  172.8720  135.5670 C   0  0  0  0  0  2  0  0  0  0  0  0
  197.3220  170.5590  135.8390 O   0  0  0  0  0  0  0  0  0  0  0  0
  196.8110  171.4420  135.1640 C   0  0  0  0  0  3  0  0  0  0  0  0
  188.3260  173.6210  141.7910 C   0  0  0  0  0  2  0  0  0  0  0  0
  188.8830  174.4610  140.6480 C   0  0  0  0  0  2  0  0  0  0  0  0
  188.5880  173.8320  139.2940 C   0  0  2  0  0  3  0  0  0  0  0  0
  187.9110  172.6210  139.4700 O   0  0  0  0  0  1  0  0  0  0  0  0
  189.8700  172.4710  137.4990 C   0  0  2  0  0  3  0  0  0  0  0  0
  189.8710  173.9340  137.0690 C   0  0  0  0  0  2  0  0  0  0  0  0
  191.1000  173.8740  139.1650 O   0  0  0  0  0  1  0  0  0  0  0  0
  189.8850  173.5820  138.5360 C   0  0  1  0  0  0  0  0  0  0  0  0
  191.1990  171.8880  137.2720 C   0  0  0  0  0  0  0  0  0  0  0  0
  192.2490  171.4320  137.1060 N   0  0  0  0  0  0  0  0  0  0  0  0
  1 12  1  0  0  0  0
  1  5  1  0  0  0  0
  2 14  1  6  0  0  0
  2  8  1  0  0  0  0
  3 15  1  6  0  0  0
  6  8  1  0  0  0  0
  6 10  1  0  0  0  0
  7 37  1  6  0  0  0
  7  2  1  0  0  0  0
  7 17  1  0  0  0  0
  9  4  1  6  0  0  0
  9 18  1  0  0  0  0
  9  3  1  0  0  0  0
 11 16  1  1  0  0  0
 11  4  1  0  0  0  0
 11 17  1  0  0  0  0
 12 52  1  6  0  0  0
 12 10  1  0  0  0  0
 13 18  2  0  0  0  0
 14  7  1  0  0  0  0
 18 15  1  0  0  0  0
 19  5  1  0  0  0  0
 19 20  1  1  0  0  0
 19  3  1  0  0  0  0
 20 22  1  0  0  0  0
 21 20  2  0  0  0  0
 23 26  1  0  0  0  0
 23 27  2  0  0  0  0
 24 26  1  0  0  0  0
 25 31  1  1  0  0  0
 25 23  1  0  0  0  0
 28 29  1  0  0  0  0
 28 25  1  0  0  0  0
 29 30  1  0  0  0  0
 30 22  1  6  0  0  0
 30 24  1  0  0  0  0
 31 35  1  1  0  0  0
 31 33  1  0  0  0  0
 32 33  1  0  0  0  0
 34 35  1  0  0  0  0
 37 36  1  1  0  0  0
 38 37  1  0  0  0  0
 39 38  1  0  0  0  0
 40 41  1  0  0  0  0
 41 42  2  0  0  0  0
 41 39  1  0  0  0  0
 43 47  1  0  0  0  0
 45 49  1  6  0  0  0
 45 48  1  0  0  0  0
 46 44  1  0  0  0  0
 47 45  1  0  0  0  0
 47 46  1  0  0  0  0
 48 44  1  0  0  0  0
 48 40  1  1  0  0  0
 51 49  1  0  0  0  0
 51 50  2  0  0  0  0
 53 52  1  0  0  0  0
 54 55  1  1  0  0  0
 54 53  1  0  0  0  0
 56 60  1  6  0  0  0
 56 59  1  0  0  0  0
 57 56  1  0  0  0  0
 57 59  1  0  0  0  0
 59 58  1  1  0  0  0
 59 54  1  0  0  0  0
 61 60  3  0  0  0  0
M  END
>  <MODEL>
2

>  <REMARK>
 VINA RESULT:      -6.5      2.088      3.411
  Name = 
  17 active torsions:
  status: ('A' for Active; 'I' for Inactive)
    1  A    between atoms: N_4  and  C_53
    2  A    between atoms: C_6  and  C_8
    3  A    between atoms: C_9  and  C_14
    4  A    between atoms: C_9  and  C_39
    5  A    between atoms: C_11  and  O_48
    6  A    between atoms: C_11  and  C_54
    7  A    between atoms: C_14  and  C_50
    8  A    between atoms: C_20  and  C_55
    9  A    between atoms: C_22  and  C_24
   10  A    between atoms: C_22  and  O_45
   11  A    between atoms: C_22  and  C_59
   12  A    between atoms: C_29  and  C_39
   13  A    between atoms: C_35  and  C_42
   14  A    between atoms: C_35  and  C_52
   15  A    between atoms: N_40  and  C_61
   16  A    between atoms: O_48  and  C_60
   17  A    between atoms: C_53  and  C_55
                            x       y       z     vdW  Elec       q    Type
                         _______ _______ _______ _____ _____    ______ ____

>  <TORSDO>
F 17

$$$$
=
 OpenBabel11042419423D

 61 66  0  0  1  0  0  0  0  0999 V2000
  190.6000  173.5660  143.3290 C   0  0  0  0  0  2  0  0  0  0  0  0
  194.2110  172.2410  141.4190 C   0  0  1  0  0  3  0  0  0  0  0  0
  192.4220  175.0400  146.2930 C   0  0  1  0  0  3  0  0  0  0  0  0
  193.6650  175.7620  144.2110 C   0  0  0  0  0  2  0  0  0  0  0  0
  191.2050  173.5220  144.7190 C   0  0  0  0  0  2  0  0  0  0  0  0
  191.9500  171.2590  141.8220 C   0  0  0  0  0  2  0  0  0  0  0  0
  195.1290  173.3620  141.9150 C   0  0  1  0  0  0  0  0  0  0  0  0
  193.2140  171.7810  142.4750 C   0  0  0  0  0  2  0  0  0  0  0  0
  193.7060  175.3540  145.6880 C   0  0  1  0  0  3  0  0  0  0  0  0
  190.8780  171.0620  142.8860 C   0  0  0  0  0  2  0  0  0  0  0  0
  194.9200  175.3380  143.4540 C   0  0  1  0  0  3  0  0  0  0  0  0
  189.9100  172.2460  142.9920 C   0  0  2  0  0  3  0  0  0  0  0  0
  194.5800  177.5520  146.7180 N   0  0  0  0  0  2  0  0  0  0  0  0
  193.9260  173.6870  141.0450 C   0  0  0  0  0  2  0  0  0  0  0  0
  192.3890  176.2770  147.0460 N   0  0  0  0  0  2  0  0  0  0  0  0
  196.1170  175.8790  144.0730 N   0  0  0  0  0  1  0  0  0  0  0  0
  195.0080  173.8200  143.3660 C   0  0  0  0  0  2  0  0  0  0  0  0
  193.7320  176.5960  146.5250 C   0  0  0  0  0  0  0  0  0  0  0  0
  191.2260  174.9160  145.3330 C   0  0  1  0  0  3  0  0  0  0  0  0
  189.9260  175.1710  146.0380 C   0  0  0  0  0  0  0  0  0  0  0  0
  189.3690  174.2040  146.7590 C   0  0  0  0  0  2  0  0  0  0  0  0
  189.2950  176.4090  145.9300 O   0  0  0  0  0  0  0  0  0  0  0  0
  187.8580  177.6000  142.0290 C   0  0  0  0  0  0  0  0  0  0  0  0
  189.7360  177.0950  143.6480 C   0  0  0  0  0  2  0  0  0  0  0  0
  186.7920  178.4170  142.7100 C   0  0  2  0  0  3  0  0  0  0  0  0
  189.2720  177.8920  142.4200 C   0  0  0  0  0  2  0  0  0  0  0  0
  187.5720  176.4360  141.4440 C   0  0  0  0  0  2  0  0  0  0  0  0
  186.5130  177.9140  144.1290 C   0  0  0  0  0  2  0  0  0  0  0  0
  187.7590  177.9980  145.0060 C   0  0  0  0  0  2  0  0  0  0  0  0
  188.6690  176.8120  144.7220 C   0  0  2  0  0  3  0  0  0  0  0  0
  185.5240  178.6090  141.8620 C   0  0  1  0  0  3  0  0  0  0  0  0
  184.5420  177.8840  140.0920 O   0  0  0  0  0  1  0  0  0  0  0  0
  185.7360  178.2360  140.5300 O   0  0  0  0  0  0  0  0  0  0  0  0
  183.5650  178.7210  143.2620 O   0  0  0  0  0  1  0  0  0  0  0  0
  184.3270  177.8680  142.4580 C   0  0  0  0  0  2  0  0  0  0  0  0
  197.5500  173.3510  142.1710 O   0  0  0  0  0  1  0  0  0  0  0  0
  196.5070  173.4710  141.2510 C   0  0  2  0  0  3  0  0  0  0  0  0
  196.6490  174.7560  140.4460 C   0  0  0  0  0  2  0  0  0  0  0  0
  197.5330  174.5490  139.3080 N   0  0  0  0  0  2  0  0  0  0  0  0
  195.8460  173.2370  138.0400 N   0  0  0  0  0  2  0  0  0  0  0  0
  197.1380  173.8520  138.1250 C   0  0  0  0  0  0  0  0  0  0  0  0
  197.9370  173.7890  137.1550 O   0  0  0  0  0  0  0  0  0  0  0  0
  193.0950  169.8420  137.0000 C   0  0  0  0  0  1  0  0  0  0  0  0
  193.8550  173.2310  136.2830 S   0  0  0  0  0  0  0  0  0  0  0  0
  195.0590  171.0940  137.2250 C   0  0  2  0  0  3  0  0  0  0  0  0
  193.4650  171.6280  135.5270 C   0  0  0  0  0  2  0  0  0  0  0  0
  194.1220  170.5410  136.2500 N   0  0  0  0  0  0  0  0  0  0  0  0
  195.3990  172.5220  136.8560 C   0  0  2  0  0  3  0  0  0  0  0  0
  196.3300  170.2550  137.2660 C   0  0  0  0  0  2  0  0  0  0  0  0
  195.8190  169.5720  139.4640 O   0  0  0  0  0  0  0  0  0  0  0  0
  196.6900  169.8860  138.6670 C   0  0  0  0  0  3  0  0  0  0  0  0
  189.0680  172.3700  141.7250 C   0  0  0  0  0  2  0  0  0  0  0  0
  189.6350  173.4050  140.7610 C   0  0  0  0  0  2  0  0  0  0  0  0
  188.8610  173.4350  139.4500 C   0  0  2  0  0  3  0  0  0  0  0  0
  187.6790  172.6980  139.5790 O   0  0  0  0  0  1  0  0  0  0  0  0
  189.1470  172.9690  136.9170 C   0  0  2  0  0  3  0  0  0  0  0  0
  190.3120  173.8440  137.3680 C   0  0  0  0  0  2  0  0  0  0  0  0
  190.5450  171.7670  138.6080 O   0  0  0  0  0  1  0  0  0  0  0  0
  189.7050  172.8490  138.3270 C   0  0  1  0  0  0  0  0  0  0  0  0
  189.6400  171.9150  136.0210 C   0  0  0  0  0  0  0  0  0  0  0  0
  190.0400  171.0920  135.3130 N   0  0  0  0  0  0  0  0  0  0  0  0
  1  5  1  0  0  0  0
  2 14  1  6  0  0  0
  2  7  1  0  0  0  0
  2  8  1  0  0  0  0
  3 15  1  1  0  0  0
  5 19  1  0  0  0  0
  6  8  1  0  0  0  0
  6 10  1  0  0  0  0
  7 37  1  6  0  0  0
  7 17  1  0  0  0  0
  9  4  1  6  0  0  0
  9  3  1  0  0  0  0
  9 18  1  0  0  0  0
 10 12  1  0  0  0  0
 11 16  1  1  0  0  0
 11  4  1  0  0  0  0
 12 52  1  6  0  0  0
 12  1  1  0  0  0  0
 14  7  1  0  0  0  0
 17 11  1  0  0  0  0
 18 13  2  0  0  0  0
 18 15  1  0  0  0  0
 19 20  1  1  0  0  0
 19  3  1  0  0  0  0
 20 21  2  0  0  0  0
 22 20  1  0  0  0  0
 23 26  1  0  0  0  0
 23 25  1  0  0  0  0
 24 30  1  0  0  0  0
 25 31  1  6  0  0  0
 25 28  1  0  0  0  0
 26 24  1  0  0  0  0
 27 23  2  0  0  0  0
 28 29  1  0  0  0  0
 30 29  1  0  0  0  0
 30 22  1  1  0  0  0
 31 35  1  1  0  0  0
 32 33  1  0  0  0  0
 33 31  1  0  0  0  0
 35 34  1  0  0  0  0
 37 36  1  1  0  0  0
 38 37  1  0  0  0  0
 39 38  1  0  0  0  0
 40 41  1  0  0  0  0
 41 39  1  0  0  0  0
 42 41  2  0  0  0  0
 44 48  1  0  0  0  0
 45 49  1  6  0  0  0
 46 47  1  0  0  0  0
 46 44  1  0  0  0  0
 47 43  1  0  0  0  0
 47 45  1  0  0  0  0
 48 45  1  0  0  0  0
 48 40  1  1  0  0  0
 49 51  1  0  0  0  0
 51 50  2  0  0  0  0
 53 52  1  0  0  0  0
 54 55  1  1  0  0  0
 54 53  1  0  0  0  0
 56 60  1  6  0  0  0
 56 57  1  0  0  0  0
 56 59  1  0  0  0  0
 57 59  1  0  0  0  0
 59 58  1  1  0  0  0
 59 54  1  0  0  0  0
 61 60  3  0  0  0  0
M  END
>  <MODEL>
3

>  <REMARK>
 VINA RESULT:      -6.4      2.231      4.215
  Name = 
  17 active torsions:
  status: ('A' for Active; 'I' for Inactive)
    1  A    between atoms: N_4  and  C_53
    2  A    between atoms: C_6  and  C_8
    3  A    between atoms: C_9  and  C_14
    4  A    between atoms: C_9  and  C_39
    5  A    between atoms: C_11  and  O_48
    6  A    between atoms: C_11  and  C_54
    7  A    between atoms: C_14  and  C_50
    8  A    between atoms: C_20  and  C_55
    9  A    between atoms: C_22  and  C_24
   10  A    between atoms: C_22  and  O_45
   11  A    between atoms: C_22  and  C_59
   12  A    between atoms: C_29  and  C_39
   13  A    between atoms: C_35  and  C_42
   14  A    between atoms: C_35  and  C_52
   15  A    between atoms: N_40  and  C_61
   16  A    between atoms: O_48  and  C_60
   17  A    between atoms: C_53  and  C_55
                            x       y       z     vdW  Elec       q    Type
                         _______ _______ _______ _____ _____    ______ ____

>  <TORSDO>
F 17

$$$$
=
 OpenBabel11042419423D

 61 66  0  0  1  0  0  0  0  0999 V2000
  191.1520  174.2890  143.1180 C   0  0  0  0  0  2  0  0  0  0  0  0
  190.1880  171.6130  139.9010 C   0  0  1  0  0  3  0  0  0  0  0  0
  193.3330  171.7620  144.8890 C   0  0  1  0  0  3  0  0  0  0  0  0
  193.9390  171.6900  142.4340 C   0  0  0  0  0  2  0  0  0  0  0  0
  191.4160  173.1650  144.1020 C   0  0  0  0  0  2  0  0  0  0  0  0
  188.9090  173.2280  141.3130 C   0  0  0  0  0  2  0  0  0  0  0  0
  191.5090  170.8380  139.8760 C   0  0  1  0  0  0  0  0  0  0  0  0
  189.7280  171.9530  141.3120 C   0  0  0  0  0  2  0  0  0  0  0  0
  193.7660  170.9500  143.7640 C   0  0  1  0  0  3  0  0  0  0  0  0
  188.6930  173.6870  142.7490 C   0  0  0  0  0  2  0  0  0  0  0  0
  193.6260  170.8080  141.2290 C   0  0  1  0  0  3  0  0  0  0  0  0
  189.6990  174.7530  143.1980 C   0  0  2  0  0  3  0  0  0  0  0  0
  196.2080  170.2230  144.1730 N   0  0  0  0  0  2  0  0  0  0  0  0
  191.4950  172.3330  139.6050 C   0  0  0  0  0  2  0  0  0  0  0  0
  194.6440  171.7450  145.5050 N   0  0  0  0  0  2  0  0  0  0  0  0
  194.4480  169.6090  141.2270 N   0  0  0  0  0  1  0  0  0  0  0  0
  192.1490  170.4380  141.2030 C   0  0  0  0  0  2  0  0  0  0  0  0
  195.1050  170.8460  144.4300 C   0  0  0  0  0  0  0  0  0  0  0  0
  192.8690  173.1920  144.5600 C   0  0  1  0  0  3  0  0  0  0  0  0
  193.0020  174.1000  145.7480 C   0  0  0  0  0  0  0  0  0  0  0  0
  194.1270  174.7840  145.9280 C   0  0  0  0  0  2  0  0  0  0  0  0
  191.9620  174.2160  146.6680 O   0  0  0  0  0  0  0  0  0  0  0  0
  189.3760  177.6790  146.5280 C   0  0  0  0  0  0  0  0  0  0  0  0
  191.5040  176.5220  147.2580 C   0  0  0  0  0  2  0  0  0  0  0  0
  188.1960  176.7610  146.7160 C   0  0  2  0  0  3  0  0  0  0  0  0
  190.4530  177.5990  147.5640 C   0  0  0  0  0  2  0  0  0  0  0  0
  189.6540  178.2160  145.3400 C   0  0  0  0  0  2  0  0  0  0  0  0
  188.5180  175.3290  146.2820 C   0  0  0  0  0  2  0  0  0  0  0  0
  189.6650  174.7430  147.1000 C   0  0  0  0  0  2  0  0  0  0  0  0
  190.9950  175.2490  146.5570 C   0  0  2  0  0  3  0  0  0  0  0  0
  186.8870  177.3080  146.1210 C   0  0  1  0  0  3  0  0  0  0  0  0
  184.9650  176.4550  146.5660 O   0  0  0  0  0  1  0  0  0  0  0  0
  186.0080  176.2750  145.7780 O   0  0  0  0  0  0  0  0  0  0  0  0
  185.7210  179.4060  146.3400 O   0  0  0  0  0  1  0  0  0  0  0  0
  186.2170  178.3140  147.0580 C   0  0  0  0  0  2  0  0  0  0  0  0
  191.9510  168.5920  139.0440 O   0  0  0  0  0  1  0  0  0  0  0  0
  191.7500  169.9230  138.6690 C   0  0  2  0  0  3  0  0  0  0  0  0
  192.9050  170.4150  137.8050 C   0  0  0  0  0  2  0  0  0  0  0  0
  192.4140  170.8730  136.5140 N   0  0  0  0  0  2  0  0  0  0  0  0
  194.4330  172.2510  136.0630 N   0  0  0  0  0  2  0  0  0  0  0  0
  193.1640  171.7270  135.6480 C   0  0  0  0  0  0  0  0  0  0  0  0
  192.7010  172.0090  134.5130 O   0  0  0  0  0  0  0  0  0  0  0  0
  197.0890  175.8480  136.4880 C   0  0  0  0  0  1  0  0  0  0  0  0
  196.9310  172.5420  135.2130 S   0  0  0  0  0  0  0  0  0  0  0  0
  195.2930  174.5040  135.8220 C   0  0  2  0  0  3  0  0  0  0  0  0
  197.4470  174.2370  134.8210 C   0  0  0  0  0  2  0  0  0  0  0  0
  196.4800  175.2040  135.3380 N   0  0  0  0  0  0  0  0  0  0  0  0
  195.2330  173.1180  135.2160 C   0  0  2  0  0  3  0  0  0  0  0  0
  194.0370  175.2830  135.4520 C   0  0  0  0  0  2  0  0  0  0  0  0
  193.0850  174.9850  137.5890 O   0  0  0  0  0  0  0  0  0  0  0  0
  193.3160  175.7580  136.6700 C   0  0  0  0  0  3  0  0  0  0  0  0
  189.4910  176.0530  142.4240 C   0  0  0  0  0  2  0  0  0  0  0  0
  188.0300  176.4890  142.4230 C   0  0  0  0  0  2  0  0  0  0  0  0
  187.7370  177.4660  141.2930 C   0  0  2  0  0  3  0  0  0  0  0  0
  188.7530  178.4240  141.2170 O   0  0  0  0  0  1  0  0  0  0  0  0
  185.6060  177.7150  142.7460 C   0  0  2  0  0  3  0  0  0  0  0  0
  186.3300  179.0580  142.7390 C   0  0  0  0  0  2  0  0  0  0  0  0
  185.6950  178.6530  140.4280 O   0  0  0  0  0  1  0  0  0  0  0  0
  186.4030  178.1590  141.5290 C   0  0  1  0  0  0  0  0  0  0  0  0
  184.1620  177.9320  142.5880 C   0  0  0  0  0  0  0  0  0  0  0  0
  183.0240  178.0960  142.4530 N   0  0  0  0  0  0  0  0  0  0  0  0
  1 12  1  0  0  0  0
  1  5  1  0  0  0  0
  2 14  1  6  0  0  0
  2  8  1  0  0  0  0
  3 15  1  1  0  0  0
  5 19  1  0  0  0  0
  6 10  1  0  0  0  0
  7 37  1  6  0  0  0
  7  2  1  0  0  0  0
  7 17  1  0  0  0  0
  8  6  1  0  0  0  0
  9  4  1  6  0  0  0
  9 18  1  0  0  0  0
  9  3  1  0  0  0  0
 10 12  1  0  0  0  0
 11 16  1  1  0  0  0
 11  4  1  0  0  0  0
 12 52  1  6  0  0  0
 13 18  2  0  0  0  0
 14  7  1  0  0  0  0
 17 11  1  0  0  0  0
 18 15  1  0  0  0  0
 19  3  1  0  0  0  0
 19 20  1  1  0  0  0
 20 21  2  0  0  0  0
 20 22  1  0  0  0  0
 23 25  1  0  0  0  0
 23 26  1  0  0  0  0
 24 26  1  0  0  0  0
 25 31  1  6  0  0  0
 27 23  2  0  0  0  0
 28 25  1  0  0  0  0
 28 29  1  0  0  0  0
 30 22  1  1  0  0  0
 30 29  1  0  0  0  0
 30 24  1  0  0  0  0
 31 35  1  1  0  0  0
 33 31  1  0  0  0  0
 33 32  1  0  0  0  0
 34 35  1  0  0  0  0
 37 36  1  1  0  0  0
 38 37  1  0  0  0  0
 39 38  1  0  0  0  0
 41 40  1  0  0  0  0
 41 39  1  0  0  0  0
 42 41  2  0  0  0  0
 44 48  1  0  0  0  0
 45 49  1  6  0  0  0
 46 44  1  0  0  0  0
 46 47  1  0  0  0  0
 47 45  1  0  0  0  0
 47 43  1  0  0  0  0
 48 45  1  0  0  0  0
 48 40  1  1  0  0  0
 49 51  1  0  0  0  0
 51 50  2  0  0  0  0
 53 52  1  0  0  0  0
 54 55  1  1  0  0  0
 54 59  1  0  0  0  0
 54 53  1  0  0  0  0
 56 60  1  6  0  0  0
 57 56  1  0  0  0  0
 59 58  1  6  0  0  0
 59 57  1  0  0  0  0
 59 56  1  0  0  0  0
 61 60  3  0  0  0  0
M  END
>  <MODEL>
4

>  <REMARK>
 VINA RESULT:      -6.3      2.552      3.713
  Name = 
  17 active torsions:
  status: ('A' for Active; 'I' for Inactive)
    1  A    between atoms: N_4  and  C_53
    2  A    between atoms: C_6  and  C_8
    3  A    between atoms: C_9  and  C_14
    4  A    between atoms: C_9  and  C_39
    5  A    between atoms: C_11  and  O_48
    6  A    between atoms: C_11  and  C_54
    7  A    between atoms: C_14  and  C_50
    8  A    between atoms: C_20  and  C_55
    9  A    between atoms: C_22  and  C_24
   10  A    between atoms: C_22  and  O_45
   11  A    between atoms: C_22  and  C_59
   12  A    between atoms: C_29  and  C_39
   13  A    between atoms: C_35  and  C_42
   14  A    between atoms: C_35  and  C_52
   15  A    between atoms: N_40  and  C_61
   16  A    between atoms: O_48  and  C_60
   17  A    between atoms: C_53  and  C_55
                            x       y       z     vdW  Elec       q    Type
                         _______ _______ _______ _____ _____    ______ ____

>  <TORSDO>
F 17

$$$$
=
 OpenBabel11042419423D

 61 66  0  0  1  0  0  0  0  0999 V2000
  189.9340  173.9950  141.8070 C   0  0  0  0  0  2  0  0  0  0  0  0
  189.2250  173.5690  137.5930 C   0  0  1  0  0  3  0  0  0  0  0  0
  190.7920  170.3450  142.2780 C   0  0  1  0  0  3  0  0  0  0  0  0
  192.0110  171.1440  140.2100 C   0  0  0  0  0  2  0  0  0  0  0  0
  189.6090  172.5440  142.1070 C   0  0  0  0  0  2  0  0  0  0  0  0
  188.0800  174.7400  139.4780 C   0  0  0  0  0  2  0  0  0  0  0  0
  190.2470  172.4600  137.3240 C   0  0  1  0  0  0  0  0  0  0  0  0
  188.4990  173.3940  138.9210 C   0  0  0  0  0  2  0  0  0  0  0  0
  191.2880  170.0150  140.9520 C   0  0  1  0  0  3  0  0  0  0  0  0
  187.6050  174.5640  140.9150 C   0  0  0  0  0  2  0  0  0  0  0  0
  191.8210  171.0650  138.6980 C   0  0  1  0  0  3  0  0  0  0  0  0
  188.6920  174.8730  141.9510 C   0  0  2  0  0  3  0  0  0  0  0  0
  193.2390  168.3450  141.2020 N   0  0  0  0  0  2  0  0  0  0  0  0
  190.7040  173.8110  137.8500 C   0  0  0  0  0  2  0  0  0  0  0  0
  191.8280  169.5800  142.9400 N   0  0  0  0  0  2  0  0  0  0  0  0
  192.2640  169.7820  138.1790 N   0  0  0  0  0  1  0  0  0  0  0  0
  190.3660  171.3150  138.3250 C   0  0  0  0  0  2  0  0  0  0  0  0
  192.3140  169.1470  141.6160 C   0  0  0  0  0  0  0  0  0  0  0  0
  190.8310  171.8320  142.6710 C   0  0  1  0  0  3  0  0  0  0  0  0
  190.8670  172.0060  144.1620 C   0  0  0  0  0  0  0  0  0  0  0  0
  189.7490  171.8640  144.8660 C   0  0  0  0  0  2  0  0  0  0  0  0
  192.0590  172.3280  144.8080 O   0  0  0  0  0  0  0  0  0  0  0  0
  195.7460  173.5500  142.9070 C   0  0  0  0  0  0  0  0  0  0  0  0
  194.4810  172.3560  144.7450 C   0  0  0  0  0  2  0  0  0  0  0  0
  195.1190  174.8920  142.6340 C   0  0  2  0  0  3  0  0  0  0  0  0
  195.7600  173.1000  144.3340 C   0  0  0  0  0  2  0  0  0  0  0  0
  195.9000  172.6470  141.9380 C   0  0  0  0  0  2  0  0  0  0  0  0
  193.5900  174.8130  142.6330 C   0  0  0  0  0  2  0  0  0  0  0  0
  193.0550  174.3450  143.9840 C   0  0  0  0  0  2  0  0  0  0  0  0
  193.1730  172.8300  144.0860 C   0  0  2  0  0  3  0  0  0  0  0  0
  195.7010  175.6070  141.4040 C   0  0  1  0  0  3  0  0  0  0  0  0
  194.9340  175.2930  139.4200 O   0  0  0  0  0  1  0  0  0  0  0  0
  194.6960  175.9960  140.5110 O   0  0  0  0  0  0  0  0  0  0  0  0
  196.8320  176.7880  143.1760 O   0  0  0  0  0  1  0  0  0  0  0  0
  196.5750  176.7970  141.8010 C   0  0  0  0  0  2  0  0  0  0  0  0
  190.4100  170.7970  135.5530 O   0  0  0  0  0  1  0  0  0  0  0  0
  190.5610  172.1520  135.8550 C   0  0  2  0  0  3  0  0  0  0  0  0
  191.9500  172.6370  135.4580 C   0  0  0  0  0  2  0  0  0  0  0  0
  192.7170  171.5510  134.8650 N   0  0  0  0  0  2  0  0  0  0  0  0
  194.6970  171.9560  136.3120 N   0  0  0  0  0  2  0  0  0  0  0  0
  194.0300  171.1890  135.3010 C   0  0  0  0  0  0  0  0  0  0  0  0
  194.5900  170.1860  134.7910 O   0  0  0  0  0  0  0  0  0  0  0  0
  197.8710  173.7470  138.9380 C   0  0  0  0  0  1  0  0  0  0  0  0
  195.9030  170.8460  138.4010 S   0  0  0  0  0  0  0  0  0  0  0  0
  196.8110  172.8970  137.0330 C   0  0  2  0  0  3  0  0  0  0  0  0
  197.5860  171.4270  138.7510 C   0  0  0  0  0  2  0  0  0  0  0  0
  197.8810  172.6430  137.9950 N   0  0  0  0  0  0  0  0  0  0  0  0
  196.0290  171.6240  136.7910 C   0  0  2  0  0  3  0  0  0  0  0  0
  197.3970  173.4000  135.7190 C   0  0  0  0  0  2  0  0  0  0  0  0
  196.0710  175.3240  136.0390 O   0  0  0  0  0  0  0  0  0  0  0  0
  197.0400  174.8290  135.4800 C   0  0  0  0  0  3  0  0  0  0  0  0
  189.0570  176.3550  141.9260 C   0  0  0  0  0  2  0  0  0  0  0  0
  187.9500  177.2250  142.5090 C   0  0  0  0  0  2  0  0  0  0  0  0
  188.3890  177.8970  143.8030 C   0  0  2  0  0  3  0  0  0  0  0  0
  189.7330  177.6100  144.0560 O   0  0  0  0  0  1  0  0  0  0  0  0
  186.3920  178.3050  145.4050 C   0  0  2  0  0  3  0  0  0  0  0  0
  186.1180  177.0200  144.6290 C   0  0  0  0  0  2  0  0  0  0  0  0
  188.1240  176.5770  145.9280 O   0  0  0  0  0  1  0  0  0  0  0  0
  187.5370  177.4060  144.9660 C   0  0  1  0  0  0  0  0  0  0  0  0
  186.0320  178.1170  146.8160 C   0  0  0  0  0  0  0  0  0  0  0  0
  185.7600  177.9690  147.9310 N   0  0  0  0  0  0  0  0  0  0  0  0
  1 12  1  0  0  0  0
  1  5  1  0  0  0  0
  2 14  1  1  0  0  0
  2  8  1  0  0  0  0
  3 19  1  0  0  0  0
  3 15  1  1  0  0  0
  5 19  1  0  0  0  0
  6 10  1  0  0  0  0
  7 37  1  6  0  0  0
  7  2  1  0  0  0  0
  7 14  1  0  0  0  0
  7 17  1  0  0  0  0
  8  6  1  0  0  0  0
  9  4  1  1  0  0  0
  9 18  1  0  0  0  0
  9  3  1  0  0  0  0
 10 12  1  0  0  0  0
 11 16  1  1  0  0  0
 11  4  1  0  0  0  0
 12 52  1  6  0  0  0
 13 18  2  0  0  0  0
 17 11  1  0  0  0  0
 18 15  1  0  0  0  0
 19 20  1  1  0  0  0
 20 22  1  0  0  0  0
 20 21  2  0  0  0  0
 23 26  1  0  0  0  0
 25 31  1  6  0  0  0
 25 23  1  0  0  0  0
 26 24  1  0  0  0  0
 27 23  2  0  0  0  0
 28 25  1  0  0  0  0
 28 29  1  0  0  0  0
 29 30  1  0  0  0  0
 30 24  1  0  0  0  0
 30 22  1  1  0  0  0
 31 35  1  1  0  0  0
 32 33  1  0  0  0  0
 33 31  1  0  0  0  0
 35 34  1  0  0  0  0
 37 36  1  1  0  0  0
 38 37  1  0  0  0  0
 39 41  1  0  0  0  0
 39 38  1  0  0  0  0
 41 40  1  0  0  0  0
 42 41  2  0  0  0  0
 44 46  1  0  0  0  0
 45 49  1  6  0  0  0
 45 47  1  0  0  0  0
 47 46  1  0  0  0  0
 47 43  1  0  0  0  0
 48 40  1  1  0  0  0
 48 45  1  0  0  0  0
 48 44  1  0  0  0  0
 51 49  1  0  0  0  0
 51 50  2  0  0  0  0
 52 53  1  0  0  0  0
 53 54  1  0  0  0  0
 54 55  1  1  0  0  0
 54 59  1  0  0  0  0
 56 60  1  1  0  0  0
 57 59  1  0  0  0  0
 57 56  1  0  0  0  0
 59 56  1  0  0  0  0
 59 58  1  1  0  0  0
 60 61  3  0  0  0  0
M  END
>  <MODEL>
5

>  <REMARK>
 VINA RESULT:      -6.1      2.993      6.940
  Name = 
  17 active torsions:
  status: ('A' for Active; 'I' for Inactive)
    1  A    between atoms: N_4  and  C_53
    2  A    between atoms: C_6  and  C_8
    3  A    between atoms: C_9  and  C_14
    4  A    between atoms: C_9  and  C_39
    5  A    between atoms: C_11  and  O_48
    6  A    between atoms: C_11  and  C_54
    7  A    between atoms: C_14  and  C_50
    8  A    between atoms: C_20  and  C_55
    9  A    between atoms: C_22  and  C_24
   10  A    between atoms: C_22  and  O_45
   11  A    between atoms: C_22  and  C_59
   12  A    between atoms: C_29  and  C_39
   13  A    between atoms: C_35  and  C_42
   14  A    between atoms: C_35  and  C_52
   15  A    between atoms: N_40  and  C_61
   16  A    between atoms: O_48  and  C_60
   17  A    between atoms: C_53  and  C_55
                            x       y       z     vdW  Elec       q    Type
                         _______ _______ _______ _____ _____    ______ ____

>  <TORSDO>
F 17

$$$$
=
 OpenBabel11042419423D

 61 66  0  0  1  0  0  0  0  0999 V2000
  192.4890  174.1020  142.0300 C   0  0  0  0  0  2  0  0  0  0  0  0
  196.1100  172.8540  140.0880 C   0  0  1  0  0  3  0  0  0  0  0  0
  190.2790  172.9180  139.2030 C   0  0  1  0  0  3  0  0  0  0  0  0
  191.9650  171.0880  139.6580 C   0  0  0  0  0  2  0  0  0  0  0  0
  191.7330  174.2710  140.7260 C   0  0  0  0  0  2  0  0  0  0  0  0
  195.3810  174.8770  141.3570 C   0  0  0  0  0  2  0  0  0  0  0  0
  195.5380  171.6420  139.3470 C   0  0  1  0  0  0  0  0  0  0  0  0
  195.1510  174.0360  140.1180 C   0  0  0  0  0  2  0  0  0  0  0  0
  191.1000  171.8540  138.6510 C   0  0  1  0  0  3  0  0  0  0  0  0
  194.2460  175.8840  141.5010 C   0  0  0  0  0  2  0  0  0  0  0  0
  193.2730  170.5950  139.0470 C   0  0  1  0  0  3  0  0  0  0  0  0
  193.1430  175.4150  142.4560 C   0  0  2  0  0  3  0  0  0  0  0  0
  189.5490  169.9440  137.8730 N   0  0  0  0  0  2  0  0  0  0  0  0
  195.5100  171.6920  140.8650 C   0  0  0  0  0  2  0  0  0  0  0  0
  189.0580  172.1520  139.0660 N   0  0  0  0  0  2  0  0  0  0  0  0
  193.0300  169.7610  137.8830 N   0  0  0  0  0  1  0  0  0  0  0  0
  194.1710  171.7690  138.6800 C   0  0  0  0  0  2  0  0  0  0  0  0
  189.8380  171.0800  138.4190 C   0  0  0  0  0  0  0  0  0  0  0  0
  190.5570  173.3060  140.6670 C   0  0  1  0  0  3  0  0  0  0  0  0
  189.3560  173.9430  141.3040 C   0  0  0  0  0  0  0  0  0  0  0  0
  188.6480  173.2610  142.1990 C   0  0  0  0  0  2  0  0  0  0  0  0
  188.9710  175.2350  140.9510 O   0  0  0  0  0  0  0  0  0  0  0  0
  186.3460  177.8650  143.1620 C   0  0  0  0  0  0  0  0  0  0  0  0
  187.4510  177.1210  141.0120 C   0  0  0  0  0  2  0  0  0  0  0  0
  187.3470  177.8590  144.2880 C   0  0  2  0  0  3  0  0  0  0  0  0
  186.8570  178.2840  141.8200 C   0  0  0  0  0  2  0  0  0  0  0  0
  185.2130  177.1660  143.2390 C   0  0  0  0  0  2  0  0  0  0  0  0
  188.2490  176.6230  144.2370 C   0  0  0  0  0  2  0  0  0  0  0  0
  189.0480  176.5710  142.9380 C   0  0  0  0  0  2  0  0  0  0  0  0
  188.1730  176.0260  141.8170 C   0  0  2  0  0  3  0  0  0  0  0  0
  186.7220  178.1120  145.6710 C   0  0  1  0  0  3  0  0  0  0  0  0
  184.8730  178.5940  146.6550 O   0  0  0  0  0  1  0  0  0  0  0  0
  185.5700  178.9000  145.5780 O   0  0  0  0  0  0  0  0  0  0  0  0
  187.1340  176.7560  147.6210 O   0  0  0  0  0  1  0  0  0  0  0  0
  186.4370  176.8040  146.4100 C   0  0  0  0  0  2  0  0  0  0  0  0
  196.9770  169.6940  139.6010 O   0  0  0  0  0  1  0  0  0  0  0  0
  196.5500  170.6810  138.7100 C   0  0  2  0  0  3  0  0  0  0  0  0
  197.7430  171.4220  138.1200 C   0  0  0  0  0  2  0  0  0  0  0  0
  197.7940  171.2380  136.6770 N   0  0  0  0  0  2  0  0  0  0  0  0
  196.6210  173.3780  136.2090 N   0  0  0  0  0  2  0  0  0  0  0  0
  197.2920  172.1990  135.7460 C   0  0  0  0  0  0  0  0  0  0  0  0
  197.4490  171.9990  134.5140 O   0  0  0  0  0  0  0  0  0  0  0  0
  193.2640  176.3600  136.0640 C   0  0  0  0  0  1  0  0  0  0  0  0
  196.7760  175.9860  135.7340 S   0  0  0  0  0  0  0  0  0  0  0  0
  194.6050  174.5250  135.5050 C   0  0  2  0  0  3  0  0  0  0  0  0
  195.3100  176.7480  134.9840 C   0  0  0  0  0  2  0  0  0  0  0  0
  194.1650  175.8420  135.0500 N   0  0  0  0  0  0  0  0  0  0  0  0
  196.0980  174.3850  135.2990 C   0  0  2  0  0  3  0  0  0  0  0  0
  193.8740  173.4330  134.7340 C   0  0  0  0  0  2  0  0  0  0  0  0
  191.9470  172.1010  135.0060 O   0  0  0  0  0  0  0  0  0  0  0  0
  192.7210  172.8980  135.5170 C   0  0  0  0  0  3  0  0  0  0  0  0
  193.6660  175.3340  143.8880 C   0  0  0  0  0  2  0  0  0  0  0  0
  192.5710  174.9470  144.8750 C   0  0  0  0  0  2  0  0  0  0  0  0
  191.8010  176.1650  145.3640 C   0  0  2  0  0  3  0  0  0  0  0  0
  192.2110  177.3020  144.6610 O   0  0  0  0  0  1  0  0  0  0  0  0
  190.8470  176.8290  147.6810 C   0  0  2  0  0  3  0  0  0  0  0  0
  191.3590  175.3950  147.7770 C   0  0  0  0  0  2  0  0  0  0  0  0
  193.3160  176.7490  147.2850 O   0  0  0  0  0  1  0  0  0  0  0  0
  192.0390  176.3750  146.8530 C   0  0  1  0  0  0  0  0  0  0  0  0
  191.2430  177.5750  148.8830 C   0  0  0  0  0  0  0  0  0  0  0  0
  191.5660  178.1600  149.8270 N   0  0  0  0  0  0  0  0  0  0  0  0
  1 12  1  0  0  0  0
  2  8  1  6  0  0  0
  2 14  1  0  0  0  0
  3 15  1  1  0  0  0
  3 19  1  0  0  0  0
  5  1  1  0  0  0  0
  6 10  1  0  0  0  0
  7 37  1  6  0  0  0
  7  2  1  0  0  0  0
  7 14  1  0  0  0  0
  8  6  1  0  0  0  0
  9  3  1  0  0  0  0
  9  4  1  1  0  0  0
 10 12  1  0  0  0  0
 11 16  1  6  0  0  0
 11  4  1  0  0  0  0
 12 52  1  1  0  0  0
 13 18  2  0  0  0  0
 17 11  1  0  0  0  0
 17  7  1  0  0  0  0
 18  9  1  0  0  0  0
 18 15  1  0  0  0  0
 19  5  1  0  0  0  0
 19 20  1  6  0  0  0
 20 21  2  0  0  0  0
 22 20  1  0  0  0  0
 23 27  2  0  0  0  0
 23 25  1  0  0  0  0
 24 30  1  0  0  0  0
 24 26  1  0  0  0  0
 25 31  1  1  0  0  0
 26 23  1  0  0  0  0
 28 25  1  0  0  0  0
 29 28  1  0  0  0  0
 30 22  1  6  0  0  0
 30 29  1  0  0  0  0
 31 35  1  6  0  0  0
 33 31  1  0  0  0  0
 33 32  1  0  0  0  0
 35 34  1  0  0  0  0
 37 36  1  1  0  0  0
 38 37  1  0  0  0  0
 39 38  1  0  0  0  0
 41 40  1  0  0  0  0
 41 39  1  0  0  0  0
 42 41  2  0  0  0  0
 45 49  1  6  0  0  0
 46 47  1  0  0  0  0
 46 44  1  0  0  0  0
 47 45  1  0  0  0  0
 47 43  1  0  0  0  0
 48 45  1  0  0  0  0
 48 44  1  0  0  0  0
 48 40  1  1  0  0  0
 49 51  1  0  0  0  0
 50 51  2  0  0  0  0
 52 53  1  0  0  0  0
 53 54  1  0  0  0  0
 54 55  1  6  0  0  0
 54 59  1  0  0  0  0
 56 57  1  0  0  0  0
 56 60  1  1  0  0  0
 59 58  1  1  0  0  0
 59 56  1  0  0  0  0
 59 57  1  0  0  0  0
 60 61  3  0  0  0  0
M  END
>  <MODEL>
6

>  <REMARK>
 VINA RESULT:      -5.9      2.690      5.691
  Name = 
  17 active torsions:
  status: ('A' for Active; 'I' for Inactive)
    1  A    between atoms: N_4  and  C_53
    2  A    between atoms: C_6  and  C_8
    3  A    between atoms: C_9  and  C_14
    4  A    between atoms: C_9  and  C_39
    5  A    between atoms: C_11  and  O_48
    6  A    between atoms: C_11  and  C_54
    7  A    between atoms: C_14  and  C_50
    8  A    between atoms: C_20  and  C_55
    9  A    between atoms: C_22  and  C_24
   10  A    between atoms: C_22  and  O_45
   11  A    between atoms: C_22  and  C_59
   12  A    between atoms: C_29  and  C_39
   13  A    between atoms: C_35  and  C_42
   14  A    between atoms: C_35  and  C_52
   15  A    between atoms: N_40  and  C_61
   16  A    between atoms: O_48  and  C_60
   17  A    between atoms: C_53  and  C_55
                            x       y       z     vdW  Elec       q    Type
                         _______ _______ _______ _____ _____    ______ ____

>  <TORSDO>
F 17

$$$$
=
 OpenBabel11042419423D

 61 66  0  0  1  0  0  0  0  0999 V2000
  190.3020  174.9620  142.7350 C   0  0  0  0  0  2  0  0  0  0  0  0
  188.8810  172.5290  139.4950 C   0  0  1  0  0  3  0  0  0  0  0  0
  192.0560  172.0860  144.4460 C   0  0  1  0  0  3  0  0  0  0  0  0
  192.6180  171.9520  141.9830 C   0  0  0  0  0  2  0  0  0  0  0  0
  190.3880  173.7960  143.7010 C   0  0  0  0  0  2  0  0  0  0  0  0
  187.8980  174.3110  140.9430 C   0  0  0  0  0  2  0  0  0  0  0  0
  190.0560  171.5480  139.4440 C   0  0  1  0  0  0  0  0  0  0  0  0
  188.4960  172.9190  140.9160 C   0  0  0  0  0  2  0  0  0  0  0  0
  192.3390  171.2310  143.3060 C   0  0  1  0  0  3  0  0  0  0  0  0
  187.7750  174.7780  142.3880 C   0  0  0  0  0  2  0  0  0  0  0  0
  192.1530  171.1510  140.7710 C   0  0  1  0  0  3  0  0  0  0  0  0
  188.9460  175.6580  142.8380 C   0  0  2  0  0  3  0  0  0  0  0  0
  194.6320  170.1070  143.6760 N   0  0  0  0  0  2  0  0  0  0  0  0
  190.2850  173.0300  139.1920 C   0  0  0  0  0  2  0  0  0  0  0  0
  193.3520  171.8450  145.0450 N   0  0  0  0  0  2  0  0  0  0  0  0
  192.7660  169.8350  140.7430 N   0  0  0  0  0  1  0  0  0  0  0  0
  190.6350  171.0300  140.7570 C   0  0  0  0  0  2  0  0  0  0  0  0
  193.6490  170.8980  143.9530 C   0  0  0  0  0  0  0  0  0  0  0  0
  191.8290  173.5770  144.1410 C   0  0  1  0  0  3  0  0  0  0  0  0
  192.1210  174.4330  145.3390 C   0  0  0  0  0  0  0  0  0  0  0  0
  191.1730  174.6370  146.2480 C   0  0  0  0  0  2  0  0  0  0  0  0
  193.3730  175.0270  145.4950 O   0  0  0  0  0  0  0  0  0  0  0  0
  196.6630  174.6830  142.7110 C   0  0  0  0  0  0  0  0  0  0  0  0
  195.7280  174.6550  145.0610 C   0  0  0  0  0  2  0  0  0  0  0  0
  196.0800  175.8350  141.9340 C   0  0  2  0  0  3  0  0  0  0  0  0
  196.9400  174.9290  144.1600 C   0  0  0  0  0  2  0  0  0  0  0  0
  196.5570  173.4280  142.2720 C   0  0  0  0  0  2  0  0  0  0  0  0
  194.5810  175.9980  142.2020 C   0  0  0  0  0  2  0  0  0  0  0  0
  194.3060  176.2770  143.6770 C   0  0  0  0  0  2  0  0  0  0  0  0
  194.3450  174.9730  144.4630 C   0  0  2  0  0  3  0  0  0  0  0  0
  196.4430  175.8200  140.4400 C   0  0  1  0  0  3  0  0  0  0  0  0
  197.9410  174.9580  139.1630 O   0  0  0  0  0  1  0  0  0  0  0  0
  197.8240  175.6980  140.2480 O   0  0  0  0  0  0  0  0  0  0  0  0
  195.0900  175.2460  138.5290 O   0  0  0  0  0  1  0  0  0  0  0  0
  195.6830  174.7290  139.6850 C   0  0  0  0  0  2  0  0  0  0  0  0
  190.1220  169.2740  138.5780 O   0  0  0  0  0  1  0  0  0  0  0  0
  190.1320  170.6240  138.2220 C   0  0  2  0  0  3  0  0  0  0  0  0
  191.3390  170.9380  137.3470 C   0  0  0  0  0  2  0  0  0  0  0  0
  191.8360  169.7250  136.7130 N   0  0  0  0  0  2  0  0  0  0  0  0
  194.1680  170.0930  137.4880 N   0  0  0  0  0  2  0  0  0  0  0  0
  193.1930  169.2890  136.8110 C   0  0  0  0  0  0  0  0  0  0  0  0
  193.5210  168.1870  136.3010 O   0  0  0  0  0  0  0  0  0  0  0  0
  197.9390  171.5810  139.4230 C   0  0  0  0  0  1  0  0  0  0  0  0
  195.7730  168.7860  139.1520 S   0  0  0  0  0  0  0  0  0  0  0  0
  196.4320  170.9150  137.7610 C   0  0  2  0  0  3  0  0  0  0  0  0
  197.5150  169.2920  139.1400 C   0  0  0  0  0  2  0  0  0  0  0  0
  197.6820  170.5570  138.4270 N   0  0  0  0  0  0  0  0  0  0  0  0
  195.5590  169.6880  137.6170 C   0  0  2  0  0  3  0  0  0  0  0  0
  196.7210  171.5070  136.3870 C   0  0  0  0  0  2  0  0  0  0  0  0
  196.2730  173.6280  135.4600 O   0  0  0  0  0  0  0  0  0  0  0  0
  195.8470  172.6850  136.1110 C   0  0  0  0  0  3  0  0  0  0  0  0
  188.9460  176.9850  142.0840 C   0  0  0  0  0  2  0  0  0  0  0  0
  188.3730  178.1200  142.9240 C   0  0  0  0  0  2  0  0  0  0  0  0
  186.8550  178.0430  143.0090 C   0  0  2  0  0  3  0  0  0  0  0  0
  186.2820  178.9720  142.1350 O   0  0  0  0  0  1  0  0  0  0  0  0
  185.7120  177.1930  145.1750 C   0  0  2  0  0  3  0  0  0  0  0  0
  187.1360  177.6110  145.5280 C   0  0  0  0  0  2  0  0  0  0  0  0
  186.0350  179.6410  144.7710 O   0  0  0  0  0  1  0  0  0  0  0  0
  186.3920  178.3320  144.4310 C   0  0  1  0  0  0  0  0  0  0  0  0
  184.7870  177.6670  146.2130 C   0  0  0  0  0  0  0  0  0  0  0  0
  184.0500  178.0320  147.0270 N   0  0  0  0  0  0  0  0  0  0  0  0
  1 12  1  0  0  0  0
  1  5  1  0  0  0  0
  2 14  1  6  0  0  0
  2  8  1  0  0  0  0
  3 15  1  1  0  0  0
  5 19  1  0  0  0  0
  6 10  1  0  0  0  0
  7 37  1  6  0  0  0
  7  2  1  0  0  0  0
  7 17  1  0  0  0  0
  8  6  1  0  0  0  0
  9  4  1  6  0  0  0
  9 18  1  0  0  0  0
  9  3  1  0  0  0  0
 10 12  1  0  0  0  0
 11 16  1  1  0  0  0
 11  4  1  0  0  0  0
 12 52  1  6  0  0  0
 13 18  2  0  0  0  0
 14  7  1  0  0  0  0
 17 11  1  0  0  0  0
 18 15  1  0  0  0  0
 19  3  1  0  0  0  0
 19 20  1  1  0  0  0
 20 22  1  0  0  0  0
 20 21  2  0  0  0  0
 23 26  1  0  0  0  0
 25 31  1  6  0  0  0
 25 28  1  0  0  0  0
 25 23  1  0  0  0  0
 26 24  1  0  0  0  0
 27 23  2  0  0  0  0
 28 29  1  0  0  0  0
 29 30  1  0  0  0  0
 30 24  1  0  0  0  0
 30 22  1  1  0  0  0
 31 35  1  6  0  0  0
 32 33  1  0  0  0  0
 33 31  1  0  0  0  0
 34 35  1  0  0  0  0
 37 36  1  1  0  0  0
 38 37  1  0  0  0  0
 39 41  1  0  0  0  0
 39 38  1  0  0  0  0
 41 40  1  0  0  0  0
 42 41  2  0  0  0  0
 45 49  1  6  0  0  0
 45 47  1  0  0  0  0
 46 44  1  0  0  0  0
 47 46  1  0  0  0  0
 47 43  1  0  0  0  0
 48 40  1  1  0  0  0
 48 45  1  0  0  0  0
 48 44  1  0  0  0  0
 50 51  2  0  0  0  0
 51 49  1  0  0  0  0
 52 53  1  0  0  0  0
 53 54  1  0  0  0  0
 54 55  1  6  0  0  0
 54 59  1  0  0  0  0
 56 57  1  0  0  0  0
 56 60  1  1  0  0  0
 59 58  1  1  0  0  0
 59 56  1  0  0  0  0
 59 57  1  0  0  0  0
 60 61  3  0  0  0  0
M  END
>  <MODEL>
7

>  <REMARK>
 VINA RESULT:      -5.8      2.706      6.642
  Name = 
  17 active torsions:
  status: ('A' for Active; 'I' for Inactive)
    1  A    between atoms: N_4  and  C_53
    2  A    between atoms: C_6  and  C_8
    3  A    between atoms: C_9  and  C_14
    4  A    between atoms: C_9  and  C_39
    5  A    between atoms: C_11  and  O_48
    6  A    between atoms: C_11  and  C_54
    7  A    between atoms: C_14  and  C_50
    8  A    between atoms: C_20  and  C_55
    9  A    between atoms: C_22  and  C_24
   10  A    between atoms: C_22  and  O_45
   11  A    between atoms: C_22  and  C_59
   12  A    between atoms: C_29  and  C_39
   13  A    between atoms: C_35  and  C_42
   14  A    between atoms: C_35  and  C_52
   15  A    between atoms: N_40  and  C_61
   16  A    between atoms: O_48  and  C_60
   17  A    between atoms: C_53  and  C_55
                            x       y       z     vdW  Elec       q    Type
                         _______ _______ _______ _____ _____    ______ ____

>  <TORSDO>
F 17

$$$$
=
 OpenBabel11042419423D

 61 66  0  0  1  0  0  0  0  0999 V2000
  192.0120  173.0330  143.4330 C   0  0  0  0  0  2  0  0  0  0  0  0
  194.2890  170.4500  140.8670 C   0  0  1  0  0  3  0  0  0  0  0  0
  195.0280  175.0590  144.4750 C   0  0  1  0  0  3  0  0  0  0  0  0
  195.1540  174.7560  141.9660 C   0  0  0  0  0  2  0  0  0  0  0  0
  193.1980  173.3570  144.3210 C   0  0  0  0  0  2  0  0  0  0  0  0
  192.4730  170.1310  142.5510 C   0  0  0  0  0  2  0  0  0  0  0  0
  195.3440  171.4720  140.4320 C   0  0  1  0  0  0  0  0  0  0  0  0
  193.9010  170.5900  142.3330 C   0  0  0  0  0  2  0  0  0  0  0  0
  195.8790  174.8860  143.3100 C   0  0  1  0  0  3  0  0  0  0  0  0
  192.0240  170.5290  143.9520 C   0  0  0  0  0  2  0  0  0  0  0  0
  195.9020  173.8590  140.9840 C   0  0  1  0  0  3  0  0  0  0  0  0
  191.2310  171.8400  143.9800 C   0  0  2  0  0  3  0  0  0  0  0  0
  197.1580  177.0900  142.8980 N   0  0  0  0  0  2  0  0  0  0  0  0
  193.8770  171.7030  140.1100 C   0  0  0  0  0  2  0  0  0  0  0  0
  195.3640  176.4610  144.6080 N   0  0  0  0  0  2  0  0  0  0  0  0
  197.2550  174.3380  140.7590 N   0  0  0  0  0  1  0  0  0  0  0  0
  195.9230  172.4190  141.4790 C   0  0  0  0  0  2  0  0  0  0  0  0
  196.3080  176.3110  143.4840 C   0  0  0  0  0  0  0  0  0  0  0  0
  193.5190  174.8450  144.2550 C   0  0  1  0  0  3  0  0  0  0  0  0
  192.7060  175.5770  145.2820 C   0  0  0  0  0  0  0  0  0  0  0  0
  192.5140  175.0330  146.4790 C   0  0  0  0  0  2  0  0  0  0  0  0
  192.1390  176.8150  144.9830 O   0  0  0  0  0  0  0  0  0  0  0  0
  188.0870  177.2540  143.5410 C   0  0  0  0  0  0  0  0  0  0  0  0
  190.5910  177.4000  143.2130 C   0  0  0  0  0  2  0  0  0  0  0  0
  187.7060  177.8160  144.8860 C   0  0  2  0  0  3  0  0  0  0  0  0
  189.2070  177.9410  142.8250 C   0  0  0  0  0  2  0  0  0  0  0  0
  187.7540  176.0120  143.1900 C   0  0  0  0  0  2  0  0  0  0  0  0
  188.6840  177.3780  145.9790 C   0  0  0  0  0  2  0  0  0  0  0  0
  190.1020  177.8610  145.6860 C   0  0  0  0  0  2  0  0  0  0  0  0
  190.7600  176.9360  144.6710 C   0  0  2  0  0  3  0  0  0  0  0  0
  186.2290  177.5950  145.2520 C   0  0  1  0  0  3  0  0  0  0  0  0
  184.7960  176.7090  146.5870 O   0  0  0  0  0  1  0  0  0  0  0  0
  186.0980  176.8530  146.4310 O   0  0  0  0  0  0  0  0  0  0  0  0
  185.8770  179.8000  144.3420 O   0  0  0  0  0  1  0  0  0  0  0  0
  185.4660  178.9170  145.3450 C   0  0  0  0  0  2  0  0  0  0  0  0
  196.9380  169.8820  139.5040 O   0  0  0  0  0  1  0  0  0  0  0  0
  196.2500  171.0730  139.2600 C   0  0  2  0  0  3  0  0  0  0  0  0
  197.2210  172.1860  138.8880 C   0  0  0  0  0  2  0  0  0  0  0  0
  197.7440  171.9770  137.5460 N   0  0  0  0  0  2  0  0  0  0  0  0
  196.3920  173.8180  136.5670 N   0  0  0  0  0  2  0  0  0  0  0  0
  197.3800  172.7880  136.4270 C   0  0  0  0  0  0  0  0  0  0  0  0
  197.9410  172.5920  135.3190 O   0  0  0  0  0  0  0  0  0  0  0  0
  193.2120  176.8510  135.6340 C   0  0  0  0  0  1  0  0  0  0  0  0
  196.7150  176.2970  135.6720 S   0  0  0  0  0  0  0  0  0  0  0  0
  194.4970  174.8990  135.5100 C   0  0  2  0  0  3  0  0  0  0  0  0
  195.3530  176.9710  134.6820 C   0  0  0  0  0  2  0  0  0  0  0  0
  194.1610  176.1320  134.8030 N   0  0  0  0  0  0  0  0  0  0  0  0
  195.9920  174.6700  135.4590 C   0  0  2  0  0  3  0  0  0  0  0  0
  193.7730  173.7170  134.8760 C   0  0  0  0  0  2  0  0  0  0  0  0
  193.4790  172.5240  136.8880 O   0  0  0  0  0  0  0  0  0  0  0  0
  192.9540  172.9810  135.8830 C   0  0  0  0  0  3  0  0  0  0  0  0
  189.8940  171.6780  143.2620 C   0  0  0  0  0  2  0  0  0  0  0  0
  190.0550  171.6790  141.7470 C   0  0  0  0  0  2  0  0  0  0  0  0
  189.2740  172.8140  141.1000 C   0  0  2  0  0  3  0  0  0  0  0  0
  187.9820  172.8660  141.6320 O   0  0  0  0  0  1  0  0  0  0  0  0
  190.1920  173.3740  138.7410 C   0  0  2  0  0  3  0  0  0  0  0  0
  190.3530  171.8730  138.9650 C   0  0  0  0  0  2  0  0  0  0  0  0
  187.9580  172.2830  139.0220 O   0  0  0  0  0  1  0  0  0  0  0  0
  189.1930  172.6060  139.5940 C   0  0  1  0  0  0  0  0  0  0  0  0
  189.7030  173.6200  137.3790 C   0  0  0  0  0  0  0  0  0  0  0  0
  189.3190  173.8020  136.3030 N   0  0  0  0  0  0  0  0  0  0  0  0
  1 12  1  0  0  0  0
  1  5  1  0  0  0  0
  2 14  1  6  0  0  0
  2  8  1  0  0  0  0
  3 15  1  6  0  0  0
  6 10  1  0  0  0  0
  7 37  1  6  0  0  0
  7  2  1  0  0  0  0
  7 17  1  0  0  0  0
  8  6  1  0  0  0  0
  9  4  1  6  0  0  0
  9 18  1  0  0  0  0
  9  3  1  0  0  0  0
 10 12  1  0  0  0  0
 11 16  1  1  0  0  0
 11 17  1  0  0  0  0
 11  4  1  0  0  0  0
 12 52  1  6  0  0  0
 13 18  2  0  0  0  0
 14  7  1  0  0  0  0
 18 15  1  0  0  0  0
 19  5  1  0  0  0  0
 19  3  1  0  0  0  0
 19 20  1  1  0  0  0
 20 21  2  0  0  0  0
 22 20  1  0  0  0  0
 23 25  1  0  0  0  0
 24 30  1  0  0  0  0
 25 31  1  1  0  0  0
 25 28  1  0  0  0  0
 26 24  1  0  0  0  0
 26 23  1  0  0  0  0
 27 23  2  0  0  0  0
 29 28  1  0  0  0  0
 30 22  1  1  0  0  0
 30 29  1  0  0  0  0
 31 35  1  1  0  0  0
 31 33  1  0  0  0  0
 33 32  1  0  0  0  0
 34 35  1  0  0  0  0
 37 36  1  1  0  0  0
 38 37  1  0  0  0  0
 39 38  1  0  0  0  0
 41 40  1  0  0  0  0
 41 39  1  0  0  0  0
 42 41  2  0  0  0  0
 45 49  1  6  0  0  0
 46 47  1  0  0  0  0
 46 44  1  0  0  0  0
 47 45  1  0  0  0  0
 47 43  1  0  0  0  0
 48 45  1  0  0  0  0
 48 44  1  0  0  0  0
 48 40  1  1  0  0  0
 49 51  1  0  0  0  0
 51 50  2  0  0  0  0
 53 52  1  0  0  0  0
 54 55  1  1  0  0  0
 54 53  1  0  0  0  0
 56 60  1  6  0  0  0
 56 57  1  0  0  0  0
 56 59  1  0  0  0  0
 57 59  1  0  0  0  0
 59 58  1  6  0  0  0
 59 54  1  0  0  0  0
 61 60  3  0  0  0  0
M  END
>  <MODEL>
8

>  <REMARK>
 VINA RESULT:      -5.6      2.373      3.531
  Name = 
  17 active torsions:
  status: ('A' for Active; 'I' for Inactive)
    1  A    between atoms: N_4  and  C_53
    2  A    between atoms: C_6  and  C_8
    3  A    between atoms: C_9  and  C_14
    4  A    between atoms: C_9  and  C_39
    5  A    between atoms: C_11  and  O_48
    6  A    between atoms: C_11  and  C_54
    7  A    between atoms: C_14  and  C_50
    8  A    between atoms: C_20  and  C_55
    9  A    between atoms: C_22  and  C_24
   10  A    between atoms: C_22  and  O_45
   11  A    between atoms: C_22  and  C_59
   12  A    between atoms: C_29  and  C_39
   13  A    between atoms: C_35  and  C_42
   14  A    between atoms: C_35  and  C_52
   15  A    between atoms: N_40  and  C_61
   16  A    between atoms: O_48  and  C_60
   17  A    between atoms: C_53  and  C_55
                            x       y       z     vdW  Elec       q    Type
                         _______ _______ _______ _____ _____    ______ ____

>  <TORSDO>
F 17

$$$$
=
 OpenBabel11042419423D

 61 66  0  0  1  0  0  0  0  0999 V2000
  191.2240  173.1710  142.8540 C   0  0  0  0  0  2  0  0  0  0  0  0
  195.1360  171.5190  142.2190 C   0  0  1  0  0  3  0  0  0  0  0  0
  190.0790  172.4440  139.3260 C   0  0  1  0  0  3  0  0  0  0  0  0
  191.2630  170.3750  140.1760 C   0  0  0  0  0  2  0  0  0  0  0  0
  191.0210  173.5050  141.3880 C   0  0  0  0  0  2  0  0  0  0  0  0
  194.2290  173.5630  143.3310 C   0  0  0  0  0  2  0  0  0  0  0  0
  194.7400  170.4360  141.2110 C   0  0  1  0  0  0  0  0  0  0  0  0
  194.3740  172.8220  142.0170 C   0  0  0  0  0  2  0  0  0  0  0  0
  190.9190  171.3020  139.0050 C   0  0  1  0  0  3  0  0  0  0  0  0
  193.2430  174.7110  143.1560 C   0  0  0  0  0  2  0  0  0  0  0  0
  192.6390  169.7320  140.0270 C   0  0  1  0  0  3  0  0  0  0  0  0
  191.8210  174.3580  143.6070 C   0  0  2  0  0  3  0  0  0  0  0  0
  189.5520  169.6670  137.5490 N   0  0  0  0  0  2  0  0  0  0  0  0
  194.1660  170.4180  142.6180 C   0  0  0  0  0  2  0  0  0  0  0  0
  188.9140  171.8630  138.6920 N   0  0  0  0  0  2  0  0  0  0  0  0
  192.7440  168.9960  138.7800 N   0  0  0  0  0  1  0  0  0  0  0  0
  193.7360  170.7850  140.1170 C   0  0  0  0  0  2  0  0  0  0  0  0
  189.7490  170.7240  138.2670 C   0  0  0  0  0  0  0  0  0  0  0  0
  189.8460  172.7190  140.8230 C   0  0  1  0  0  3  0  0  0  0  0  0
  188.5760  173.4870  141.0480 C   0  0  0  0  0  0  0  0  0  0  0  0
  187.5090  172.8640  141.5390 C   0  0  0  0  0  2  0  0  0  0  0  0
  188.5050  174.8430  140.7310 O   0  0  0  0  0  0  0  0  0  0  0  0
  186.4480  177.9310  142.9520 C   0  0  0  0  0  0  0  0  0  0  0  0
  187.4450  177.0200  140.8120 C   0  0  0  0  0  2  0  0  0  0  0  0
  187.3760  177.6670  144.1090 C   0  0  2  0  0  3  0  0  0  0  0  0
  187.0940  178.2630  141.6440 C   0  0  0  0  0  2  0  0  0  0  0  0
  185.1860  177.5040  142.9650 C   0  0  0  0  0  2  0  0  0  0  0  0
  187.9810  176.2620  144.0410 C   0  0  0  0  0  2  0  0  0  0  0  0
  188.7990  176.0690  142.7680 C   0  0  0  0  0  2  0  0  0  0  0  0
  187.8700  175.7680  141.6000 C   0  0  2  0  0  3  0  0  0  0  0  0
  186.7690  178.0140  145.4790 C   0  0  1  0  0  3  0  0  0  0  0  0
  185.7100  179.4820  146.6380 O   0  0  0  0  0  1  0  0  0  0  0  0
  185.8820  179.0930  145.3890 O   0  0  0  0  0  0  0  0  0  0  0  0
  186.4850  176.6710  147.4610 O   0  0  0  0  0  1  0  0  0  0  0  0
  186.0980  176.8010  146.1230 C   0  0  0  0  0  2  0  0  0  0  0  0
  196.8250  169.3430  141.8340 O   0  0  0  0  0  1  0  0  0  0  0  0
  195.7990  169.3730  140.8880 C   0  0  2  0  0  3  0  0  0  0  0  0
  196.3690  169.5480  139.4860 C   0  0  0  0  0  2  0  0  0  0  0  0
  197.2390  170.7130  139.4320 N   0  0  0  0  0  2  0  0  0  0  0  0
  196.3630  171.4570  137.2280 N   0  0  0  0  0  2  0  0  0  0  0  0
  197.2130  171.6630  138.3640 C   0  0  0  0  0  0  0  0  0  0  0  0
  197.9410  172.6860  138.4360 O   0  0  0  0  0  0  0  0  0  0  0  0
  197.2940  175.7780  136.4280 C   0  0  0  0  0  1  0  0  0  0  0  0
  197.8970  172.4660  135.3100 S   0  0  0  0  0  0  0  0  0  0  0  0
  196.0730  173.7940  136.6560 C   0  0  2  0  0  3  0  0  0  0  0  0
  197.4800  174.1430  134.7560 C   0  0  0  0  0  2  0  0  0  0  0  0
  196.5470  174.7780  135.6860 N   0  0  0  0  0  0  0  0  0  0  0  0
  196.3000  172.3970  136.1210 C   0  0  2  0  0  3  0  0  0  0  0  0
  194.5900  174.0050  136.9350 C   0  0  0  0  0  2  0  0  0  0  0  0
  193.2020  174.3860  138.8030 O   0  0  0  0  0  0  0  0  0  0  0  0
  194.3450  174.2720  138.3830 C   0  0  0  0  0  3  0  0  0  0  0  0
  191.7730  174.1370  145.1170 C   0  0  0  0  0  2  0  0  0  0  0  0
  191.4290  175.4160  145.8700 C   0  0  0  0  0  2  0  0  0  0  0  0
  192.3460  175.6250  147.0670 C   0  0  2  0  0  3  0  0  0  0  0  0
  191.8530  176.6590  147.8680 O   0  0  0  0  0  1  0  0  0  0  0  0
  193.8800  177.0930  145.5810 C   0  0  2  0  0  3  0  0  0  0  0  0
  194.2820  177.3150  147.0360 C   0  0  0  0  0  2  0  0  0  0  0  0
  194.7270  174.9670  146.5920 O   0  0  0  0  0  1  0  0  0  0  0  0
  193.7530  175.9710  146.6000 C   0  0  1  0  0  0  0  0  0  0  0  0
  195.0840  176.9700  144.7490 C   0  0  0  0  0  0  0  0  0  0  0  0
  196.0250  176.8660  144.0840 N   0  0  0  0  0  0  0  0  0  0  0  0
  1 12  1  0  0  0  0
  2  8  1  6  0  0  0
  2 14  1  0  0  0  0
  3 15  1  6  0  0  0
  3 19  1  0  0  0  0
  5  1  1  0  0  0  0
  7 37  1  6  0  0  0
  7  2  1  0  0  0  0
  7 14  1  0  0  0  0
  8  6  1  0  0  0  0
  9  3  1  0  0  0  0
  9  4  1  1  0  0  0
 10  6  1  0  0  0  0
 10 12  1  0  0  0  0
 11 16  1  6  0  0  0
 11 17  1  0  0  0  0
 11  4  1  0  0  0  0
 12 52  1  1  0  0  0
 13 18  2  0  0  0  0
 17  7  1  0  0  0  0
 18 15  1  0  0  0  0
 18  9  1  0  0  0  0
 19 20  1  6  0  0  0
 19  5  1  0  0  0  0
 20 21  2  0  0  0  0
 22 20  1  0  0  0  0
 23 27  2  0  0  0  0
 23 25  1  0  0  0  0
 24 30  1  0  0  0  0
 24 26  1  0  0  0  0
 25 31  1  1  0  0  0
 26 23  1  0  0  0  0
 28 25  1  0  0  0  0
 29 28  1  0  0  0  0
 30 22  1  6  0  0  0
 30 29  1  0  0  0  0
 31 35  1  6  0  0  0
 33 31  1  0  0  0  0
 33 32  1  0  0  0  0
 35 34  1  0  0  0  0
 37 36  1  1  0  0  0
 38 37  1  0  0  0  0
 39 38  1  0  0  0  0
 40 41  1  0  0  0  0
 41 42  2  0  0  0  0
 41 39  1  0  0  0  0
 44 48  1  0  0  0  0
 45 49  1  6  0  0  0
 46 44  1  0  0  0  0
 46 47  1  0  0  0  0
 47 43  1  0  0  0  0
 47 45  1  0  0  0  0
 48 45  1  0  0  0  0
 48 40  1  1  0  0  0
 49 51  1  0  0  0  0
 51 50  2  0  0  0  0
 52 53  1  0  0  0  0
 53 54  1  0  0  0  0
 54 55  1  1  0  0  0
 56 60  1  6  0  0  0
 56 59  1  0  0  0  0
 56 57  1  0  0  0  0
 59 58  1  6  0  0  0
 59 57  1  0  0  0  0
 59 54  1  0  0  0  0
 61 60  3  0  0  0  0
M  END
>  <MODEL>
9

>  <REMARK>
 VINA RESULT:      -5.6      2.568      5.889
  Name = 
  17 active torsions:
  status: ('A' for Active; 'I' for Inactive)
    1  A    between atoms: N_4  and  C_53
    2  A    between atoms: C_6  and  C_8
    3  A    between atoms: C_9  and  C_14
    4  A    between atoms: C_9  and  C_39
    5  A    between atoms: C_11  and  O_48
    6  A    between atoms: C_11  and  C_54
    7  A    between atoms: C_14  and  C_50
    8  A    between atoms: C_20  and  C_55
    9  A    between atoms: C_22  and  C_24
   10  A    between atoms: C_22  and  O_45
   11  A    between atoms: C_22  and  C_59
   12  A    between atoms: C_29  and  C_39
   13  A    between atoms: C_35  and  C_42
   14  A    between atoms: C_35  and  C_52
   15  A    between atoms: N_40  and  C_61
   16  A    between atoms: O_48  and  C_60
   17  A    between atoms: C_53  and  C_55
                            x       y       z     vdW  Elec       q    Type
                         _______ _______ _______ _____ _____    ______ ____

>  <TORSDO>
F 17

$$$$
