=
 OpenBabel11042418233D

 37 39  0  0  1  0  0  0  0  0999 V2000
  190.3000  175.4610  146.1720 N   0  0  0  0  0  0  0  0  0  0  0  0
  188.9710  175.8970  146.6040 C   0  0  0  0  0  0  0  0  0  0  0  0
  188.3340  175.2150  147.5070 O   0  0  0  0  0  0  0  0  0  0  0  0
  188.6910  175.6080  142.6730 C   0  0  0  0  0  3  0  0  0  0  0  0
  189.3500  174.4660  143.1290 C   0  0  0  0  0  0  0  0  0  0  0  0
  189.7970  174.3930  144.3100 C   0  0  0  0  0  2  0  0  0  0  0  0
  188.5400  174.5990  140.5410 C   0  0  0  0  0  0  0  0  0  0  0  0
  188.8680  172.6410  137.7680 N   0  0  0  0  0  0  0  0  0  0  0  0
  188.2280  175.6710  141.3720 C   0  0  0  0  0  3  0  0  0  0  0  0
  190.0060  171.5980  137.8930 C   0  0  1  0  0  3  0  0  0  0  0  0
  188.1920  174.4720  139.2600 N   0  0  0  0  0  2  0  0  0  0  0  0
  189.5350  172.5570  140.0090 C   0  0  2  0  0  3  0  0  0  0  0  0
  189.2980  173.5660  140.9520 C   0  0  0  0  0  0  0  0  0  0  0  0
  191.0000  171.5550  139.6520 S   0  0  0  0  0  0  0  0  0  0  0  0
  188.8900  173.2740  138.9050 C   0  0  0  0  0  0  0  0  0  0  0  0
  189.5990  173.4760  142.2770 N   0  0  0  0  0  0  0  0  0  0  0  0
  190.5100  174.3000  145.3800 C   0  0  0  0  0  2  0  0  0  0  0  0
  189.8220  170.1050  137.1470 C   0  0  0  0  0  2  0  0  0  0  0  0
  190.9060  170.0260  136.0300 C   0  0  0  0  0  2  0  0  0  0  0  0
  191.4380  171.4140  135.7730 C   0  0  0  0  0  1  0  0  0  0  0  0
  191.3310  175.5380  147.0950 C   0  0  0  0  0  2  0  0  0  0  0  0
  192.3990  176.2680  146.2580 C   0  0  0  0  0  2  0  0  0  0  0  0
  193.8380  175.8560  146.4360 C   0  0  0  0  0  2  0  0  0  0  0  0
  194.4650  174.9430  145.3460 C   0  0  2  0  0  3  0  0  0  0  0  0
  195.8820  174.4330  145.9300 C   0  0  0  0  0  1  0  0  0  0  0  0
  193.8580  176.0250  143.1170 O   0  0  0  0  0  0  0  0  0  0  0  0
  194.5280  176.0650  144.2340 C   0  0  0  0  0  0  0  0  0  0  0  0
  195.6810  176.8660  144.2530 O   0  0  0  0  0  1  0  0  0  0  0  0
  188.1200  176.9030  145.8200 C   0  0  0  0  0  2  0  0  0  0  0  0
  186.6930  177.0010  146.5280 C   0  0  0  0  0  2  0  0  0  0  0  0
  185.4360  178.1040  140.6350 C   0  0  0  0  0  1  0  0  0  0  0  0
  184.6280  178.6720  145.0270 O   0  0  0  0  0  0  0  0  0  0  0  0
  185.7130  176.6270  145.4780 N   0  0  0  0  0  2  0  0  0  0  0  0
  184.6820  178.0900  142.0370 C   0  0  0  0  0  0  0  0  0  0  0  0
  185.5740  177.6990  143.1060 N   0  0  0  0  0  2  0  0  0  0  0  0
  185.2020  177.6620  144.5350 C   0  0  0  0  0  0  0  0  0  0  0  0
  183.4290  178.2150  142.3510 O   0  0  0  0  0  0  0  0  0  0  0  0
  1  2  1  0  0  0  0
  1 21  1  0  0  0  0
  2  3  2  0  0  0  0
  4  5  1  0  0  0  0
  5  6  1  0  0  0  0
  6 17  1  0  0  0  0
  7 13  2  0  0  0  0
  7  9  1  0  0  0  0
  8 10  1  0  0  0  0
  8 15  2  0  0  0  0
  9  4  2  0  0  0  0
 10 18  1  1  0  0  0
 10 14  1  0  0  0  0
 11  7  1  0  0  0  0
 12 15  1  6  0  0  0
 12 13  1  0  0  0  0
 13 16  1  0  0  0  0
 14 12  1  0  0  0  0
 15 11  1  0  0  0  0
 16  5  2  0  0  0  0
 17  1  1  0  0  0  0
 19 18  1  0  0  0  0
 20 19  1  0  0  0  0
 22 23  1  0  0  0  0
 22 21  1  0  0  0  0
 24 25  1  1  0  0  0
 24 23  1  0  0  0  0
 26 27  2  0  0  0  0
 27 28  1  0  0  0  0
 27 24  1  0  0  0  0
 29 30  1  0  0  0  0
 29  2  1  0  0  0  0
 31 34  1  0  0  0  0
 33 30  1  0  0  0  0
 34 37  2  0  0  0  0
 34 35  1  0  0  0  0
 35 36  1  0  0  0  0
 36 32  2  0  0  0  0
 36 33  1  0  0  0  0
M  END
>  <MODEL>
1

>  <REMARK>
 VINA RESULT:      -7.0      0.000      0.000
  Name = 
  11 active torsions:
  status: ('A' for Active; 'I' for Inactive)
    1  A    between atoms: C_4  and  N_7
    2  A    between atoms: C_4  and  C_30
    3  A    between atoms: N_7  and  C_37
    4  A    between atoms: C_8  and  C_18
    5  A    between atoms: N_9  and  C_17
    6  A    between atoms: C_11  and  C_16
    7  A    between atoms: C_11  and  C_19
    8  A    between atoms: C_14  and  C_30
    9  A    between atoms: C_14  and  C_32
   10  A    between atoms: C_17  and  C_18
   11  A    between atoms: C_27  and  C_32
                            x       y       z     vdW  Elec       q    Type
                         _______ _______ _______ _____ _____    ______ ____

>  <TORSDO>
F 11

$$$$
=
 OpenBabel11042418233D

 37 39  0  0  1  0  0  0  0  0999 V2000
  188.2960  176.9180  144.6160 N   0  0  0  0  0  0  0  0  0  0  0  0
  188.9150  176.7830  145.9360 C   0  0  0  0  0  0  0  0  0  0  0  0
  189.6920  177.7250  146.3800 O   0  0  0  0  0  0  0  0  0  0  0  0
  189.2590  173.3190  143.6310 C   0  0  0  0  0  3  0  0  0  0  0  0
  189.6820  174.4210  142.8860 C   0  0  0  0  0  0  0  0  0  0  0  0
  189.4380  175.6020  143.2660 C   0  0  0  0  0  2  0  0  0  0  0  0
  190.1250  171.9150  141.9380 C   0  0  0  0  0  0  0  0  0  0  0  0
  191.3920  170.5700  139.0710 N   0  0  0  0  0  0  0  0  0  0  0  0
  189.5210  172.0360  143.1860 C   0  0  0  0  0  3  0  0  0  0  0  0
  191.4270  171.5740  137.8930 C   0  0  1  0  0  3  0  0  0  0  0  0
  190.4550  170.7730  141.3340 N   0  0  0  0  0  2  0  0  0  0  0  0
  191.0080  172.7120  139.9310 C   0  0  2  0  0  3  0  0  0  0  0  0
  190.4020  172.9810  141.1650 C   0  0  0  0  0  0  0  0  0  0  0  0
  190.7980  173.4530  138.2930 S   0  0  0  0  0  0  0  0  0  0  0  0
  190.8970  171.2560  140.0610 C   0  0  0  0  0  0  0  0  0  0  0  0
  190.2650  174.2220  141.7080 N   0  0  0  0  0  0  0  0  0  0  0  0
  189.0340  176.8180  143.4060 C   0  0  0  0  0  2  0  0  0  0  0  0
  192.6740  171.4680  136.7740 C   0  0  0  0  0  2  0  0  0  0  0  0
  194.0040  171.4500  137.5870 C   0  0  0  0  0  2  0  0  0  0  0  0
  194.7940  172.6900  137.2490 C   0  0  0  0  0  1  0  0  0  0  0  0
  187.3450  177.9120  144.4530 C   0  0  0  0  0  2  0  0  0  0  0  0
  186.0550  177.0700  144.4740 C   0  0  0  0  0  2  0  0  0  0  0  0
  185.4360  176.7620  145.8130 C   0  0  0  0  0  2  0  0  0  0  0  0
  184.4400  177.7990  146.4010 C   0  0  2  0  0  3  0  0  0  0  0  0
  184.0920  178.8320  145.2080 C   0  0  0  0  0  1  0  0  0  0  0  0
  185.8820  179.5450  147.5740 O   0  0  0  0  0  0  0  0  0  0  0  0
  185.4220  178.3280  147.5210 C   0  0  0  0  0  0  0  0  0  0  0  0
  186.1700  177.3390  148.1800 O   0  0  0  0  0  1  0  0  0  0  0  0
  188.9970  175.4550  146.6960 C   0  0  0  0  0  2  0  0  0  0  0  0
  190.4630  175.3240  147.3100 C   0  0  0  0  0  2  0  0  0  0  0  0
  196.2980  174.2230  145.8050 C   0  0  0  0  0  1  0  0  0  0  0  0
  192.4220  176.4470  145.2570 O   0  0  0  0  0  0  0  0  0  0  0  0
  191.2660  174.6500  146.2580 N   0  0  0  0  0  2  0  0  0  0  0  0
  194.9730  174.7860  145.1260 C   0  0  0  0  0  0  0  0  0  0  0  0
  193.8620  174.7640  146.0500 N   0  0  0  0  0  2  0  0  0  0  0  0
  192.5140  175.2900  145.7520 C   0  0  0  0  0  0  0  0  0  0  0  0
  194.6930  175.1030  143.8990 O   0  0  0  0  0  0  0  0  0  0  0  0
  1  2  1  0  0  0  0
  2  3  2  0  0  0  0
  2 29  1  0  0  0  0
  5  6  1  0  0  0  0
  5  4  2  0  0  0  0
  6 17  1  0  0  0  0
  7  9  2  0  0  0  0
  8 15  2  0  0  0  0
  9  4  1  0  0  0  0
 10 18  1  1  0  0  0
 10 14  1  0  0  0  0
 10  8  1  0  0  0  0
 11  7  1  0  0  0  0
 12 14  1  6  0  0  0
 12 15  1  0  0  0  0
 12 13  1  0  0  0  0
 13 16  2  0  0  0  0
 13  7  1  0  0  0  0
 15 11  1  0  0  0  0
 16  5  1  0  0  0  0
 17  1  1  0  0  0  0
 18 19  1  0  0  0  0
 20 19  1  0  0  0  0
 21 22  1  0  0  0  0
 21  1  1  0  0  0  0
 22 23  1  0  0  0  0
 23 24  1  0  0  0  0
 24 25  1  6  0  0  0
 24 27  1  0  0  0  0
 27 26  2  0  0  0  0
 27 28  1  0  0  0  0
 29 30  1  0  0  0  0
 32 36  2  0  0  0  0
 33 30  1  0  0  0  0
 34 31  1  0  0  0  0
 34 35  1  0  0  0  0
 36 35  1  0  0  0  0
 36 33  1  0  0  0  0
 37 34  2  0  0  0  0
M  END
>  <MODEL>
2

>  <REMARK>
 VINA RESULT:      -6.8      2.267      6.525
  Name = 
  11 active torsions:
  status: ('A' for Active; 'I' for Inactive)
    1  A    between atoms: C_4  and  N_7
    2  A    between atoms: C_4  and  C_30
    3  A    between atoms: N_7  and  C_37
    4  A    between atoms: C_8  and  C_18
    5  A    between atoms: N_9  and  C_17
    6  A    between atoms: C_11  and  C_16
    7  A    between atoms: C_11  and  C_19
    8  A    between atoms: C_14  and  C_30
    9  A    between atoms: C_14  and  C_32
   10  A    between atoms: C_17  and  C_18
   11  A    between atoms: C_27  and  C_32
                            x       y       z     vdW  Elec       q    Type
                         _______ _______ _______ _____ _____    ______ ____

>  <TORSDO>
F 11

$$$$
=
 OpenBabel11042418233D

 37 39  0  0  1  0  0  0  0  0999 V2000
  191.1880  176.5920  144.1840 N   0  0  0  0  0  0  0  0  0  0  0  0
  191.5540  176.1560  145.5320 C   0  0  0  0  0  0  0  0  0  0  0  0
  192.6730  176.5570  146.0550 O   0  0  0  0  0  0  0  0  0  0  0  0
  189.1170  174.1330  142.0580 C   0  0  0  0  0  3  0  0  0  0  0  0
  190.4350  174.4560  141.7300 C   0  0  0  0  0  0  0  0  0  0  0  0
  191.1360  175.1930  142.4810 C   0  0  0  0  0  2  0  0  0  0  0  0
  188.9480  172.9810  140.0010 C   0  0  0  0  0  0  0  0  0  0  0  0
  189.3770  171.7210  136.8610 N   0  0  0  0  0  0  0  0  0  0  0  0
  188.3640  173.3420  141.2110 C   0  0  0  0  0  3  0  0  0  0  0  0
  190.5360  172.3980  136.0880 C   0  0  1  0  0  3  0  0  0  0  0  0
  188.3880  172.2310  139.0510 N   0  0  0  0  0  2  0  0  0  0  0  0
  190.6310  172.9780  138.3850 C   0  0  2  0  0  3  0  0  0  0  0  0
  190.1670  173.4160  139.6320 C   0  0  0  0  0  0  0  0  0  0  0  0
  191.5830  173.8080  137.0880 S   0  0  0  0  0  0  0  0  0  0  0  0
  189.3750  172.3160  138.0180 C   0  0  0  0  0  0  0  0  0  0  0  0
  190.9270  174.0630  140.5590 N   0  0  0  0  0  0  0  0  0  0  0  0
  191.8500  176.1220  143.0170 C   0  0  0  0  0  2  0  0  0  0  0  0
  191.4370  171.4780  135.0100 C   0  0  0  0  0  2  0  0  0  0  0  0
  191.4890  170.0320  135.5900 C   0  0  0  0  0  2  0  0  0  0  0  0
  192.5160  169.9900  136.6940 C   0  0  0  0  0  1  0  0  0  0  0  0
  190.9040  177.9360  143.9990 C   0  0  0  0  0  2  0  0  0  0  0  0
  189.7440  177.8390  142.9910 C   0  0  0  0  0  3  0  0  0  0  0  0
  188.3510  177.6450  143.5330 C   0  0  0  0  0  3  0  0  0  0  0  0
  187.2580  177.1440  142.5490 C   0  0  2  0  0  3  0  0  0  0  0  0
  187.7090  177.6250  141.0750 C   0  0  0  0  0  1  0  0  0  0  0  0
  184.9140  177.4380  143.5090 O   0  0  0  0  0  1  0  0  0  0  0  0
  186.0760  177.9510  143.2190 C   0  0  0  0  0  0  0  0  0  0  0  0
  186.1310  179.3440  143.0550 O   0  0  0  0  0  0  0  0  0  0  0  0
  190.8820  174.9780  146.2470 C   0  0  0  0  0  2  0  0  0  0  0  0
  189.3800  174.8700  145.7200 C   0  0  0  0  0  2  0  0  0  0  0  0
  184.4060  178.2650  146.8440 C   0  0  0  0  0  1  0  0  0  0  0  0
  188.8680  177.6600  146.8450 O   0  0  0  0  0  0  0  0  0  0  0  0
  188.5370  175.3240  146.8550 N   0  0  0  0  0  2  0  0  0  0  0  0
  185.9030  178.1240  147.3700 C   0  0  0  0  0  0  0  0  0  0  0  0
  186.5990  177.0580  146.6830 N   0  0  0  0  0  2  0  0  0  0  0  0
  188.0230  176.7230  146.8860 C   0  0  0  0  0  0  0  0  0  0  0  0
  186.5280  178.6700  148.3660 O   0  0  0  0  0  0  0  0  0  0  0  0
  1  2  1  0  0  0  0
  2  3  2  0  0  0  0
  2 29  1  0  0  0  0
  5  4  1  0  0  0  0
  5  6  1  0  0  0  0
  6 17  1  0  0  0  0
  7  9  1  0  0  0  0
  8 15  2  0  0  0  0
  9  4  2  0  0  0  0
 10 18  1  1  0  0  0
 10  8  1  0  0  0  0
 10 14  1  0  0  0  0
 11  7  1  0  0  0  0
 12 14  1  6  0  0  0
 12 13  1  0  0  0  0
 13  7  2  0  0  0  0
 13 16  1  0  0  0  0
 15 12  1  0  0  0  0
 15 11  1  0  0  0  0
 16  5  2  0  0  0  0
 17  1  1  0  0  0  0
 18 19  1  0  0  0  0
 19 20  1  0  0  0  0
 21  1  1  0  0  0  0
 22 23  2  0  0  0  0
 22 21  1  0  0  0  0
 24 25  1  6  0  0  0
 24 27  1  0  0  0  0
 24 23  1  0  0  0  0
 27 26  1  0  0  0  0
 28 27  2  0  0  0  0
 30 29  1  0  0  0  0
 30 33  1  0  0  0  0
 31 34  1  0  0  0  0
 32 36  2  0  0  0  0
 33 36  1  0  0  0  0
 34 37  2  0  0  0  0
 35 36  1  0  0  0  0
 35 34  1  0  0  0  0
M  END
>  <MODEL>
3

>  <REMARK>
 VINA RESULT:      -6.7      2.149      4.706
  Name = 
  11 active torsions:
  status: ('A' for Active; 'I' for Inactive)
    1  A    between atoms: C_4  and  N_7
    2  A    between atoms: C_4  and  C_30
    3  A    between atoms: N_7  and  C_37
    4  A    between atoms: C_8  and  C_18
    5  A    between atoms: N_9  and  C_17
    6  A    between atoms: C_11  and  C_16
    7  A    between atoms: C_11  and  C_19
    8  A    between atoms: C_14  and  C_30
    9  A    between atoms: C_14  and  C_32
   10  A    between atoms: C_17  and  C_18
   11  A    between atoms: C_27  and  C_32
                            x       y       z     vdW  Elec       q    Type
                         _______ _______ _______ _____ _____    ______ ____

>  <TORSDO>
F 11

$$$$
=
 OpenBabel11042418233D

 37 39  0  0  1  0  0  0  0  0999 V2000
  188.7630  175.8910  146.3120 N   0  0  0  0  0  0  0  0  0  0  0  0
  189.9530  176.3460  147.0340 C   0  0  0  0  0  0  0  0  0  0  0  0
  190.2420  177.6120  147.0620 O   0  0  0  0  0  0  0  0  0  0  0  0
  190.4210  172.8640  144.5980 C   0  0  0  0  0  3  0  0  0  0  0  0
  189.8590  173.9060  143.8610 C   0  0  0  0  0  0  0  0  0  0  0  0
  189.3970  174.9370  144.4280 C   0  0  0  0  0  2  0  0  0  0  0  0
  190.7050  171.6650  142.5810 C   0  0  0  0  0  0  0  0  0  0  0  0
  190.6080  170.4870  139.3820 N   0  0  0  0  0  0  0  0  0  0  0  0
  190.9020  171.7370  143.9560 C   0  0  0  0  0  3  0  0  0  0  0  0
  189.5660  171.2170  138.4980 C   0  0  1  0  0  3  0  0  0  0  0  0
  191.0880  170.6670  141.7850 N   0  0  0  0  0  2  0  0  0  0  0  0
  189.9070  172.4090  140.5190 C   0  0  2  0  0  3  0  0  0  0  0  0
  190.0350  172.6120  141.8990 C   0  0  0  0  0  0  0  0  0  0  0  0
  188.5460  172.7280  139.3690 S   0  0  0  0  0  0  0  0  0  0  0  0
  190.5070  171.0710  140.5400 C   0  0  0  0  0  0  0  0  0  0  0  0
  189.7160  173.7670  142.5460 N   0  0  0  0  0  0  0  0  0  0  0  0
  188.6740  175.8970  144.8930 C   0  0  0  0  0  2  0  0  0  0  0  0
  189.8980  171.4350  136.8660 C   0  0  0  0  0  2  0  0  0  0  0  0
  191.3000  172.1110  136.7810 C   0  0  0  0  0  2  0  0  0  0  0  0
  191.1100  173.6000  136.6280 C   0  0  0  0  0  1  0  0  0  0  0  0
  187.5270  176.2600  146.8170 C   0  0  0  0  0  2  0  0  0  0  0  0
  186.9900  177.1060  145.6470 C   0  0  0  0  0  3  0  0  0  0  0  0
  185.5700  176.8720  145.2000 C   0  0  0  0  0  3  0  0  0  0  0  0
  185.0580  177.6820  143.9770 C   0  0  2  0  0  3  0  0  0  0  0  0
  186.2390  177.6500  142.8750 C   0  0  0  0  0  1  0  0  0  0  0  0
  183.9620  179.2340  145.6780 O   0  0  0  0  0  1  0  0  0  0  0  0
  184.8710  179.0380  144.7660 C   0  0  0  0  0  0  0  0  0  0  0  0
  185.3870  180.1790  144.1310 O   0  0  0  0  0  0  0  0  0  0  0  0
  191.0830  175.4070  147.4700 C   0  0  0  0  0  2  0  0  0  0  0  0
  192.4710  176.0850  147.0740 C   0  0  0  0  0  2  0  0  0  0  0  0
  196.6360  176.4700  142.5980 C   0  0  0  0  0  1  0  0  0  0  0  0
  192.4070  176.7960  144.1080 O   0  0  0  0  0  0  0  0  0  0  0  0
  192.9420  175.3360  145.8810 N   0  0  0  0  0  2  0  0  0  0  0  0
  195.0750  176.2040  142.7600 C   0  0  0  0  0  0  0  0  0  0  0  0
  194.6850  176.2120  144.1530 N   0  0  0  0  0  2  0  0  0  0  0  0
  193.2950  176.0720  144.6340 C   0  0  0  0  0  0  0  0  0  0  0  0
  194.1620  175.8470  141.9100 O   0  0  0  0  0  0  0  0  0  0  0  0
  1 21  1  0  0  0  0
  1  2  1  0  0  0  0
  2  3  2  0  0  0  0
  2 29  1  0  0  0  0
  5  6  1  0  0  0  0
  5  4  2  0  0  0  0
  6 17  1  0  0  0  0
  7  9  2  0  0  0  0
  8 15  2  0  0  0  0
  9  4  1  0  0  0  0
 10 18  1  6  0  0  0
 10 14  1  0  0  0  0
 10  8  1  0  0  0  0
 11  7  1  0  0  0  0
 12 14  1  1  0  0  0
 12 15  1  0  0  0  0
 12 13  1  0  0  0  0
 13 16  2  0  0  0  0
 13  7  1  0  0  0  0
 15 11  1  0  0  0  0
 16  5  1  0  0  0  0
 17  1  1  0  0  0  0
 19 18  1  0  0  0  0
 20 19  1  0  0  0  0
 22 21  1  0  0  0  0
 23 22  2  0  0  0  0
 24 25  1  6  0  0  0
 24 27  1  0  0  0  0
 24 23  1  0  0  0  0
 27 26  1  0  0  0  0
 28 27  2  0  0  0  0
 30 29  1  0  0  0  0
 31 34  1  0  0  0  0
 32 36  2  0  0  0  0
 33 30  1  0  0  0  0
 34 35  1  0  0  0  0
 35 36  1  0  0  0  0
 36 33  1  0  0  0  0
 37 34  2  0  0  0  0
M  END
>  <MODEL>
4

>  <REMARK>
 VINA RESULT:      -6.6      2.156      6.374
  Name = 
  11 active torsions:
  status: ('A' for Active; 'I' for Inactive)
    1  A    between atoms: C_4  and  N_7
    2  A    between atoms: C_4  and  C_30
    3  A    between atoms: N_7  and  C_37
    4  A    between atoms: C_8  and  C_18
    5  A    between atoms: N_9  and  C_17
    6  A    between atoms: C_11  and  C_16
    7  A    between atoms: C_11  and  C_19
    8  A    between atoms: C_14  and  C_30
    9  A    between atoms: C_14  and  C_32
   10  A    between atoms: C_17  and  C_18
   11  A    between atoms: C_27  and  C_32
                            x       y       z     vdW  Elec       q    Type
                         _______ _______ _______ _____ _____    ______ ____

>  <TORSDO>
F 11

$$$$
=
 OpenBabel11042418233D

 37 39  0  0  1  0  0  0  0  0999 V2000
  194.9540  175.7240  144.3930 N   0  0  0  0  0  0  0  0  0  0  0  0
  195.7900  176.3230  143.3510 C   0  0  0  0  0  0  0  0  0  0  0  0
  196.6390  177.2550  143.6650 O   0  0  0  0  0  0  0  0  0  0  0  0
  191.5360  175.2960  142.6650 C   0  0  0  0  0  3  0  0  0  0  0  0
  191.7010  176.1380  143.7650 C   0  0  0  0  0  0  0  0  0  0  0  0
  192.8420  176.3420  144.2710 C   0  0  0  0  0  2  0  0  0  0  0  0
  189.2040  175.6420  142.8210 C   0  0  0  0  0  0  0  0  0  0  0  0
  186.0240  176.4320  143.7710 N   0  0  0  0  0  0  0  0  0  0  0  0
  190.2760  175.0740  142.1410 C   0  0  0  0  0  3  0  0  0  0  0  0
  185.9290  176.8970  145.2450 C   0  0  1  0  0  3  0  0  0  0  0  0
  187.9180  175.5420  142.4830 N   0  0  0  0  0  2  0  0  0  0  0  0
  188.1930  176.8490  144.5430 C   0  0  2  0  0  3  0  0  0  0  0  0
  189.3610  176.3360  143.9640 C   0  0  0  0  0  0  0  0  0  0  0  0
  187.6680  177.0090  146.2680 S   0  0  0  0  0  0  0  0  0  0  0  0
  187.2910  176.1900  143.5940 C   0  0  0  0  0  0  0  0  0  0  0  0
  190.6260  176.6550  144.3530 N   0  0  0  0  0  0  0  0  0  0  0  0
  193.8870  176.4230  145.0200 C   0  0  0  0  0  2  0  0  0  0  0  0
  184.7900  178.0600  145.6550 C   0  0  0  0  0  2  0  0  0  0  0  0
  184.4590  178.8430  144.3490 C   0  0  0  0  0  2  0  0  0  0  0  0
  185.4670  179.9530  144.1820 C   0  0  0  0  0  1  0  0  0  0  0  0
  195.5860  174.9570  145.3590 C   0  0  0  0  0  2  0  0  0  0  0  0
  195.7420  173.6260  144.5990 C   0  0  0  0  0  2  0  0  0  0  0  0
  194.4920  172.9420  144.1100 C   0  0  0  0  0  2  0  0  0  0  0  0
  193.6160  172.2060  145.1610 C   0  0  2  0  0  3  0  0  0  0  0  0
  194.4530  170.9050  145.6290 C   0  0  0  0  0  1  0  0  0  0  0  0
  192.5270  171.7290  142.9050 O   0  0  0  0  0  0  0  0  0  0  0  0
  192.4020  171.9440  144.1840 C   0  0  0  0  0  0  0  0  0  0  0  0
  191.1600  172.4240  144.6270 O   0  0  0  0  0  1  0  0  0  0  0  0
  195.4970  176.1820  141.8530 C   0  0  0  0  0  2  0  0  0  0  0  0
  196.8720  175.8730  141.1060 C   0  0  0  0  0  2  0  0  0  0  0  0
  192.0430  173.9270  137.8790 C   0  0  0  0  0  1  0  0  0  0  0  0
  196.0320  173.2240  139.8450 O   0  0  0  0  0  0  0  0  0  0  0  0
  196.4890  175.5350  139.7120 N   0  0  0  0  0  2  0  0  0  0  0  0
  193.5820  173.5640  138.0660 C   0  0  0  0  0  0  0  0  0  0  0  0
  194.2220  174.4650  138.9980 N   0  0  0  0  0  2  0  0  0  0  0  0
  195.6250  174.3500  139.4460 C   0  0  0  0  0  0  0  0  0  0  0  0
  194.3620  172.7360  137.4410 O   0  0  0  0  0  0  0  0  0  0  0  0
  1 17  1  0  0  0  0
  1 21  1  0  0  0  0
  2  3  2  0  0  0  0
  2  1  1  0  0  0  0
  4  5  1  0  0  0  0
  5  6  1  0  0  0  0
  5 16  2  0  0  0  0
  6 17  1  0  0  0  0
  7 13  2  0  0  0  0
  8 10  1  0  0  0  0
  9  4  2  0  0  0  0
  9  7  1  0  0  0  0
 10 18  1  6  0  0  0
 10 14  1  0  0  0  0
 11  7  1  0  0  0  0
 11 15  1  0  0  0  0
 12 15  1  6  0  0  0
 12 14  1  0  0  0  0
 13 16  1  0  0  0  0
 13 12  1  0  0  0  0
 15  8  2  0  0  0  0
 19 18  1  0  0  0  0
 20 19  1  0  0  0  0
 22 21  1  0  0  0  0
 23 22  1  0  0  0  0
 23 24  1  0  0  0  0
 24 25  1  6  0  0  0
 26 27  2  0  0  0  0
 27 28  1  0  0  0  0
 27 24  1  0  0  0  0
 29  2  1  0  0  0  0
 30 29  1  0  0  0  0
 31 34  1  0  0  0  0
 33 30  1  0  0  0  0
 34 35  1  0  0  0  0
 35 36  1  0  0  0  0
 36 33  1  0  0  0  0
 36 32  2  0  0  0  0
 37 34  2  0  0  0  0
M  END
>  <MODEL>
5

>  <REMARK>
 VINA RESULT:      -6.5      3.761      8.096
  Name = 
  11 active torsions:
  status: ('A' for Active; 'I' for Inactive)
    1  A    between atoms: C_4  and  N_7
    2  A    between atoms: C_4  and  C_30
    3  A    between atoms: N_7  and  C_37
    4  A    between atoms: C_8  and  C_18
    5  A    between atoms: N_9  and  C_17
    6  A    between atoms: C_11  and  C_16
    7  A    between atoms: C_11  and  C_19
    8  A    between atoms: C_14  and  C_30
    9  A    between atoms: C_14  and  C_32
   10  A    between atoms: C_17  and  C_18
   11  A    between atoms: C_27  and  C_32
                            x       y       z     vdW  Elec       q    Type
                         _______ _______ _______ _____ _____    ______ ____

>  <TORSDO>
F 11

$$$$
=
 OpenBabel11042418233D

 37 39  0  0  1  0  0  0  0  0999 V2000
  194.9050  175.3930  142.1700 N   0  0  0  0  0  0  0  0  0  0  0  0
  195.7440  174.9970  141.0380 C   0  0  0  0  0  0  0  0  0  0  0  0
  196.0690  175.8780  140.1400 O   0  0  0  0  0  0  0  0  0  0  0  0
  192.8170  174.7890  145.3520 C   0  0  0  0  0  3  0  0  0  0  0  0
  192.2270  175.1970  144.1550 C   0  0  0  0  0  0  0  0  0  0  0  0
  192.9050  175.3060  143.0930 C   0  0  0  0  0  2  0  0  0  0  0  0
  190.7360  175.1160  146.4230 C   0  0  0  0  0  0  0  0  0  0  0  0
  187.5560  175.9890  147.2960 N   0  0  0  0  0  0  0  0  0  0  0  0
  192.0590  174.6950  146.5050 C   0  0  0  0  0  3  0  0  0  0  0  0
  186.8910  176.9540  146.2820 C   0  0  1  0  0  3  0  0  0  0  0  0
  189.8470  175.1110  147.4170 N   0  0  0  0  0  2  0  0  0  0  0  0
  188.8700  176.0280  145.3600 C   0  0  2  0  0  3  0  0  0  0  0  0
  190.2150  175.6410  145.2980 C   0  0  0  0  0  0  0  0  0  0  0  0
  187.9820  177.4370  144.6510 S   0  0  0  0  0  0  0  0  0  0  0  0
  188.7370  175.7660  146.7960 C   0  0  0  0  0  0  0  0  0  0  0  0
  190.9510  175.5720  144.1550 N   0  0  0  0  0  0  0  0  0  0  0  0
  193.5230  175.6990  142.0330 C   0  0  0  0  0  2  0  0  0  0  0  0
  185.2370  176.8380  146.0190 C   0  0  0  0  0  2  0  0  0  0  0  0
  184.5990  178.1320  146.6090 C   0  0  0  0  0  2  0  0  0  0  0  0
  184.0970  178.9870  145.4720 C   0  0  0  0  0  1  0  0  0  0  0  0
  195.4460  176.2750  143.0920 C   0  0  0  0  0  2  0  0  0  0  0  0
  196.5720  175.4040  143.6810 C   0  0  0  0  0  2  0  0  0  0  0  0
  196.1950  174.3530  144.6930 C   0  0  0  0  0  2  0  0  0  0  0  0
  196.4070  172.8650  144.3000 C   0  0  2  0  0  3  0  0  0  0  0  0
  194.9500  172.2760  143.9220 C   0  0  0  0  0  1  0  0  0  0  0  0
  196.9860  171.2030  146.1450 O   0  0  0  0  0  0  0  0  0  0  0  0
  196.9990  172.4260  145.6970 C   0  0  0  0  0  0  0  0  0  0  0  0
  197.1050  173.4490  146.6530 O   0  0  0  0  0  1  0  0  0  0  0  0
  195.9860  173.5370  140.6400 C   0  0  0  0  0  2  0  0  0  0  0  0
  195.0130  173.1870  139.4240 C   0  0  0  0  0  2  0  0  0  0  0  0
  190.0020  169.8390  138.3310 C   0  0  0  0  0  1  0  0  0  0  0  0
  192.4960  172.4760  140.9940 O   0  0  0  0  0  0  0  0  0  0  0  0
  194.4180  171.8710  139.7700 N   0  0  0  0  0  2  0  0  0  0  0  0
  190.8650  170.3280  139.5750 C   0  0  0  0  0  0  0  0  0  0  0  0
  192.0060  171.1060  139.1460 N   0  0  0  0  0  2  0  0  0  0  0  0
  192.9600  171.7680  140.0590 C   0  0  0  0  0  0  0  0  0  0  0  0
  190.8120  170.0370  140.8380 O   0  0  0  0  0  0  0  0  0  0  0  0
  1 21  1  0  0  0  0
  2  1  1  0  0  0  0
  3  2  2  0  0  0  0
  4  9  1  0  0  0  0
  5  4  2  0  0  0  0
  6  5  1  0  0  0  0
  7  9  2  0  0  0  0
  7 11  1  0  0  0  0
 10 18  1  6  0  0  0
 10  8  1  0  0  0  0
 12 14  1  1  0  0  0
 12 15  1  0  0  0  0
 13 12  1  0  0  0  0
 13  7  1  0  0  0  0
 14 10  1  0  0  0  0
 15  8  2  0  0  0  0
 15 11  1  0  0  0  0
 16  5  1  0  0  0  0
 16 13  2  0  0  0  0
 17  1  1  0  0  0  0
 17  6  1  0  0  0  0
 18 19  1  0  0  0  0
 20 19  1  0  0  0  0
 21 22  1  0  0  0  0
 22 23  1  0  0  0  0
 24 25  1  1  0  0  0
 24 23  1  0  0  0  0
 24 27  1  0  0  0  0
 27 26  2  0  0  0  0
 27 28  1  0  0  0  0
 29  2  1  0  0  0  0
 30 33  1  0  0  0  0
 30 29  1  0  0  0  0
 31 34  1  0  0  0  0
 33 36  1  0  0  0  0
 34 37  2  0  0  0  0
 35 34  1  0  0  0  0
 35 36  1  0  0  0  0
 36 32  2  0  0  0  0
M  END
>  <MODEL>
6

>  <REMARK>
 VINA RESULT:      -6.4      4.217      8.436
  Name = 
  11 active torsions:
  status: ('A' for Active; 'I' for Inactive)
    1  A    between atoms: C_4  and  N_7
    2  A    between atoms: C_4  and  C_30
    3  A    between atoms: N_7  and  C_37
    4  A    between atoms: C_8  and  C_18
    5  A    between atoms: N_9  and  C_17
    6  A    between atoms: C_11  and  C_16
    7  A    between atoms: C_11  and  C_19
    8  A    between atoms: C_14  and  C_30
    9  A    between atoms: C_14  and  C_32
   10  A    between atoms: C_17  and  C_18
   11  A    between atoms: C_27  and  C_32
                            x       y       z     vdW  Elec       q    Type
                         _______ _______ _______ _____ _____    ______ ____

>  <TORSDO>
F 11

$$$$
=
 OpenBabel11042418233D

 37 39  0  0  1  0  0  0  0  0999 V2000
  193.9060  172.0100  144.0320 N   0  0  0  0  0  0  0  0  0  0  0  0
  195.3170  172.3260  143.8060 C   0  0  0  0  0  0  0  0  0  0  0  0
  196.2110  171.9170  144.6550 O   0  0  0  0  0  0  0  0  0  0  0  0
  191.7120  174.9570  142.8690 C   0  0  0  0  0  3  0  0  0  0  0  0
  191.7890  174.5860  144.2120 C   0  0  0  0  0  0  0  0  0  0  0  0
  192.5790  173.6770  144.5970 C   0  0  0  0  0  2  0  0  0  0  0  0
  189.9720  176.4510  143.4410 C   0  0  0  0  0  0  0  0  0  0  0  0
  187.4520  178.1860  144.9490 N   0  0  0  0  0  0  0  0  0  0  0  0
  190.8270  175.9410  142.4690 C   0  0  0  0  0  3  0  0  0  0  0  0
  186.9990  177.5550  146.2890 C   0  0  1  0  0  3  0  0  0  0  0  0
  189.0490  177.3960  143.2580 N   0  0  0  0  0  2  0  0  0  0  0  0
  189.0430  176.5890  145.5770 C   0  0  2  0  0  3  0  0  0  0  0  0
  189.9580  175.9860  144.7040 C   0  0  0  0  0  0  0  0  0  0  0  0
  188.0080  175.9140  146.9000 S   0  0  0  0  0  0  0  0  0  0  0  0
  188.4090  177.4050  144.5380 C   0  0  0  0  0  0  0  0  0  0  0  0
  190.9450  175.1290  145.0850 N   0  0  0  0  0  0  0  0  0  0  0  0
  193.1370  172.6140  145.0640 C   0  0  0  0  0  2  0  0  0  0  0  0
  186.4770  178.5660  147.5250 C   0  0  0  0  0  2  0  0  0  0  0  0
  184.9190  178.5350  147.5000 C   0  0  0  0  0  2  0  0  0  0  0  0
  184.4710  177.5900  146.4130 C   0  0  0  0  0  1  0  0  0  0  0  0
  193.5240  170.6810  143.9390 C   0  0  0  0  0  2  0  0  0  0  0  0
  192.7270  170.7120  142.6220 C   0  0  0  0  0  2  0  0  0  0  0  0
  191.2230  170.6720  142.7060 C   0  0  0  0  0  2  0  0  0  0  0  0
  190.4190  171.2610  141.5140 C   0  0  2  0  0  3  0  0  0  0  0  0
  191.4550  172.1580  140.6570 C   0  0  0  0  0  1  0  0  0  0  0  0
  188.7160  173.0940  142.0080 O   0  0  0  0  0  0  0  0  0  0  0  0
  189.3840  172.0500  142.4100 C   0  0  0  0  0  0  0  0  0  0  0  0
  189.5530  171.9020  143.7960 O   0  0  0  0  0  1  0  0  0  0  0  0
  195.7910  173.4050  142.8250 C   0  0  0  0  0  2  0  0  0  0  0  0
  197.3300  173.7030  143.1230 C   0  0  0  0  0  2  0  0  0  0  0  0
  193.4590  176.6100  146.8760 C   0  0  0  0  0  1  0  0  0  0  0  0
  196.0320  176.4640  143.1840 O   0  0  0  0  0  0  0  0  0  0  0  0
  197.3260  174.7550  144.1700 N   0  0  0  0  0  2  0  0  0  0  0  0
  194.6040  176.9660  145.8280 C   0  0  0  0  0  0  0  0  0  0  0  0
  195.1900  175.7690  145.2680 N   0  0  0  0  0  2  0  0  0  0  0  0
  196.2230  175.7570  144.2120 C   0  0  0  0  0  0  0  0  0  0  0  0
  195.1810  178.0860  145.5190 O   0  0  0  0  0  0  0  0  0  0  0  0
  1 17  1  0  0  0  0
  2  1  1  0  0  0  0
  2  3  2  0  0  0  0
  4  5  1  0  0  0  0
  5  6  1  0  0  0  0
  5 16  2  0  0  0  0
  6 17  1  0  0  0  0
  7 13  2  0  0  0  0
  8 10  1  0  0  0  0
  9  4  2  0  0  0  0
  9  7  1  0  0  0  0
 10 14  1  0  0  0  0
 10 18  1  1  0  0  0
 11  7  1  0  0  0  0
 11 15  1  0  0  0  0
 12 15  1  6  0  0  0
 12 14  1  0  0  0  0
 13 16  1  0  0  0  0
 13 12  1  0  0  0  0
 15  8  2  0  0  0  0
 19 18  1  0  0  0  0
 20 19  1  0  0  0  0
 21  1  1  0  0  0  0
 22 23  1  0  0  0  0
 22 21  1  0  0  0  0
 24 25  1  6  0  0  0
 24 27  1  0  0  0  0
 24 23  1  0  0  0  0
 26 27  2  0  0  0  0
 27 28  1  0  0  0  0
 29 30  1  0  0  0  0
 29  2  1  0  0  0  0
 30 33  1  0  0  0  0
 32 36  2  0  0  0  0
 33 36  1  0  0  0  0
 34 31  1  0  0  0  0
 35 34  1  0  0  0  0
 36 35  1  0  0  0  0
 37 34  2  0  0  0  0
M  END
>  <MODEL>
7

>  <REMARK>
 VINA RESULT:      -6.4      3.792      8.625
  Name = 
  11 active torsions:
  status: ('A' for Active; 'I' for Inactive)
    1  A    between atoms: C_4  and  N_7
    2  A    between atoms: C_4  and  C_30
    3  A    between atoms: N_7  and  C_37
    4  A    between atoms: C_8  and  C_18
    5  A    between atoms: N_9  and  C_17
    6  A    between atoms: C_11  and  C_16
    7  A    between atoms: C_11  and  C_19
    8  A    between atoms: C_14  and  C_30
    9  A    between atoms: C_14  and  C_32
   10  A    between atoms: C_17  and  C_18
   11  A    between atoms: C_27  and  C_32
                            x       y       z     vdW  Elec       q    Type
                         _______ _______ _______ _____ _____    ______ ____

>  <TORSDO>
F 11

$$$$
=
 OpenBabel11042418233D

 37 39  0  0  1  0  0  0  0  0999 V2000
  194.2200  171.9980  143.6910 N   0  0  0  0  0  0  0  0  0  0  0  0
  195.0520  171.0940  144.4870 C   0  0  0  0  0  0  0  0  0  0  0  0
  194.9480  169.8090  144.3190 O   0  0  0  0  0  0  0  0  0  0  0  0
  192.8730  175.5760  143.2120 C   0  0  0  0  0  3  0  0  0  0  0  0
  192.0460  174.5310  143.6260 C   0  0  0  0  0  0  0  0  0  0  0  0
  192.5130  173.3810  143.8680 C   0  0  0  0  0  2  0  0  0  0  0  0
  190.9510  176.9350  142.9970 C   0  0  0  0  0  0  0  0  0  0  0  0
  187.7920  178.1950  142.7340 N   0  0  0  0  0  0  0  0  0  0  0  0
  192.3360  176.8200  142.9360 C   0  0  0  0  0  3  0  0  0  0  0  0
  186.7080  177.0940  142.6190 C   0  0  1  0  0  3  0  0  0  0  0  0
  190.2440  178.0410  142.7620 N   0  0  0  0  0  2  0  0  0  0  0  0
  188.7760  176.1440  143.2850 C   0  0  2  0  0  3  0  0  0  0  0  0
  190.1520  175.8850  143.2590 C   0  0  0  0  0  0  0  0  0  0  0  0
  187.3520  175.1810  142.7160 S   0  0  0  0  0  0  0  0  0  0  0  0
  188.9080  177.5320  142.8340 C   0  0  0  0  0  0  0  0  0  0  0  0
  190.7310  174.7240  143.6720 N   0  0  0  0  0  0  0  0  0  0  0  0
  192.8190  172.1300  143.8910 C   0  0  0  0  0  2  0  0  0  0  0  0
  185.2000  177.3690  143.3040 C   0  0  0  0  0  2  0  0  0  0  0  0
  185.4540  177.9510  144.7280 C   0  0  0  0  0  2  0  0  0  0  0  0
  185.5710  176.8070  145.7040 C   0  0  0  0  0  1  0  0  0  0  0  0
  194.4630  172.0590  142.3290 C   0  0  0  0  0  2  0  0  0  0  0  0
  195.9110  172.5860  142.3280 C   0  0  0  0  0  2  0  0  0  0  0  0
  196.3230  173.5160  141.2160 C   0  0  0  0  0  2  0  0  0  0  0  0
  195.3170  174.6210  140.7920 C   0  0  2  0  0  3  0  0  0  0  0  0
  194.8110  174.2400  139.3060 C   0  0  0  0  0  1  0  0  0  0  0  0
  196.0690  176.9850  141.3830 O   0  0  0  0  0  1  0  0  0  0  0  0
  196.3530  175.8100  140.8970 C   0  0  0  0  0  0  0  0  0  0  0  0
  197.4450  175.7350  140.0180 O   0  0  0  0  0  0  0  0  0  0  0  0
  195.7920  171.5300  145.7570 C   0  0  0  0  0  2  0  0  0  0  0  0
  196.9990  172.4800  145.3260 C   0  0  0  0  0  2  0  0  0  0  0  0
  192.5940  176.4150  146.9500 C   0  0  0  0  0  1  0  0  0  0  0  0
  196.1720  175.2870  144.4610 O   0  0  0  0  0  0  0  0  0  0  0  0
  196.8100  173.7260  146.1110 N   0  0  0  0  0  2  0  0  0  0  0  0
  194.0560  176.4490  146.3200 C   0  0  0  0  0  0  0  0  0  0  0  0
  194.6080  175.1170  146.2100 N   0  0  0  0  0  2  0  0  0  0  0  0
  195.9140  174.8000  145.5960 C   0  0  0  0  0  0  0  0  0  0  0  0
  194.8600  177.4280  146.0430 O   0  0  0  0  0  0  0  0  0  0  0  0
  1 17  1  0  0  0  0
  1  2  1  0  0  0  0
  2 29  1  0  0  0  0
  3  2  2  0  0  0  0
  4  5  1  0  0  0  0
  5 16  2  0  0  0  0
  5  6  1  0  0  0  0
  6 17  1  0  0  0  0
  7 13  2  0  0  0  0
  8 15  2  0  0  0  0
  9  7  1  0  0  0  0
  9  4  2  0  0  0  0
 10 14  1  0  0  0  0
 10  8  1  0  0  0  0
 10 18  1  1  0  0  0
 11 15  1  0  0  0  0
 11  7  1  0  0  0  0
 12 14  1  6  0  0  0
 13 12  1  0  0  0  0
 13 16  1  0  0  0  0
 15 12  1  0  0  0  0
 18 19  1  0  0  0  0
 19 20  1  0  0  0  0
 21  1  1  0  0  0  0
 22 21  1  0  0  0  0
 23 22  1  0  0  0  0
 24 25  1  6  0  0  0
 24 27  1  0  0  0  0
 24 23  1  0  0  0  0
 27 26  1  0  0  0  0
 28 27  2  0  0  0  0
 30 29  1  0  0  0  0
 30 33  1  0  0  0  0
 32 36  2  0  0  0  0
 34 31  1  0  0  0  0
 35 34  1  0  0  0  0
 36 33  1  0  0  0  0
 36 35  1  0  0  0  0
 37 34  2  0  0  0  0
M  END
>  <MODEL>
8

>  <REMARK>
 VINA RESULT:      -6.4      4.437      7.827
  Name = 
  11 active torsions:
  status: ('A' for Active; 'I' for Inactive)
    1  A    between atoms: C_4  and  N_7
    2  A    between atoms: C_4  and  C_30
    3  A    between atoms: N_7  and  C_37
    4  A    between atoms: C_8  and  C_18
    5  A    between atoms: N_9  and  C_17
    6  A    between atoms: C_11  and  C_16
    7  A    between atoms: C_11  and  C_19
    8  A    between atoms: C_14  and  C_30
    9  A    between atoms: C_14  and  C_32
   10  A    between atoms: C_17  and  C_18
   11  A    between atoms: C_27  and  C_32
                            x       y       z     vdW  Elec       q    Type
                         _______ _______ _______ _____ _____    ______ ____

>  <TORSDO>
F 11

$$$$
=
 OpenBabel11042418233D

 37 39  0  0  1  0  0  0  0  0999 V2000
  195.8630  175.7230  143.9440 N   0  0  0  0  0  0  0  0  0  0  0  0
  196.5750  176.4040  142.8620 C   0  0  0  0  0  0  0  0  0  0  0  0
  197.5220  177.2480  143.1470 O   0  0  0  0  0  0  0  0  0  0  0  0
  192.1910  175.5810  142.7810 C   0  0  0  0  0  3  0  0  0  0  0  0
  192.5740  176.3030  143.9120 C   0  0  0  0  0  0  0  0  0  0  0  0
  193.7910  176.4190  144.2360 C   0  0  0  0  0  2  0  0  0  0  0  0
  189.9350  175.9860  143.3580 C   0  0  0  0  0  0  0  0  0  0  0  0
  186.9970  176.7810  144.8960 N   0  0  0  0  0  0  0  0  0  0  0  0
  190.8530  175.4530  142.4580 C   0  0  0  0  0  3  0  0  0  0  0  0
  187.1670  177.1000  146.4020 C   0  0  1  0  0  3  0  0  0  0  0  0
  188.6080  175.9610  143.2320 N   0  0  0  0  0  2  0  0  0  0  0  0
  189.2810  177.0480  145.3290 C   0  0  2  0  0  3  0  0  0  0  0  0
  190.3110  176.5570  144.5170 C   0  0  0  0  0  0  0  0  0  0  0  0
  189.0540  177.0530  147.1250 S   0  0  0  0  0  0  0  0  0  0  0  0
  188.2040  176.5170  144.4880 C   0  0  0  0  0  0  0  0  0  0  0  0
  191.6370  176.7940  144.7170 N   0  0  0  0  0  0  0  0  0  0  0  0
  194.9480  176.3910  144.8030 C   0  0  0  0  0  2  0  0  0  0  0  0
  186.1680  178.2540  147.1030 C   0  0  0  0  0  2  0  0  0  0  0  0
  185.5200  179.0550  145.9340 C   0  0  0  0  0  2  0  0  0  0  0  0
  184.0650  178.6710  145.8310 C   0  0  0  0  0  1  0  0  0  0  0  0
  196.5760  174.8130  144.7080 C   0  0  0  0  0  2  0  0  0  0  0  0
  195.8330  173.5100  144.3530 C   0  0  0  0  0  2  0  0  0  0  0  0
  195.7190  172.4500  145.4180 C   0  0  0  0  0  2  0  0  0  0  0  0
  194.4940  171.4970  145.3570 C   0  0  2  0  0  3  0  0  0  0  0  0
  194.7950  170.4340  144.1780 C   0  0  0  0  0  1  0  0  0  0  0  0
  193.0270  173.5130  145.8910 O   0  0  0  0  0  1  0  0  0  0  0  0
  193.4430  172.6300  145.0280 C   0  0  0  0  0  0  0  0  0  0  0  0
  192.6050  172.3720  143.9310 O   0  0  0  0  0  0  0  0  0  0  0  0
  196.0580  176.4630  141.4200 C   0  0  0  0  0  2  0  0  0  0  0  0
  195.4690  175.0280  141.0450 C   0  0  0  0  0  2  0  0  0  0  0  0
  189.9770  173.0500  139.1890 C   0  0  0  0  0  1  0  0  0  0  0  0
  194.4540  173.2730  138.7650 O   0  0  0  0  0  0  0  0  0  0  0  0
  194.4560  175.2880  139.9920 N   0  0  0  0  0  2  0  0  0  0  0  0
  191.4140  173.3460  138.5710 C   0  0  0  0  0  0  0  0  0  0  0  0
  192.3220  173.8490  139.5770 N   0  0  0  0  0  2  0  0  0  0  0  0
  193.7500  174.1470  139.3420 C   0  0  0  0  0  0  0  0  0  0  0  0
  191.8480  173.3590  137.3480 O   0  0  0  0  0  0  0  0  0  0  0  0
  1 21  1  0  0  0  0
  1 17  1  0  0  0  0
  2  3  2  0  0  0  0
  2  1  1  0  0  0  0
  4  5  1  0  0  0  0
  5  6  1  0  0  0  0
  5 16  2  0  0  0  0
  6 17  1  0  0  0  0
  7 13  2  0  0  0  0
  8 10  1  0  0  0  0
  9  4  2  0  0  0  0
  9  7  1  0  0  0  0
 10 18  1  6  0  0  0
 10 14  1  0  0  0  0
 11  7  1  0  0  0  0
 11 15  1  0  0  0  0
 12 15  1  6  0  0  0
 12 14  1  0  0  0  0
 13 16  1  0  0  0  0
 13 12  1  0  0  0  0
 15  8  2  0  0  0  0
 19 18  1  0  0  0  0
 20 19  1  0  0  0  0
 22 21  1  0  0  0  0
 22 23  1  0  0  0  0
 24 25  1  6  0  0  0
 24 23  1  0  0  0  0
 27 24  1  0  0  0  0
 27 26  1  0  0  0  0
 28 27  2  0  0  0  0
 29  2  1  0  0  0  0
 30 29  1  0  0  0  0
 32 36  2  0  0  0  0
 33 30  1  0  0  0  0
 34 31  1  0  0  0  0
 34 35  1  0  0  0  0
 36 35  1  0  0  0  0
 36 33  1  0  0  0  0
 37 34  2  0  0  0  0
M  END
>  <MODEL>
9

>  <REMARK>
 VINA RESULT:      -6.3      3.899      8.037
  Name = 
  11 active torsions:
  status: ('A' for Active; 'I' for Inactive)
    1  A    between atoms: C_4  and  N_7
    2  A    between atoms: C_4  and  C_30
    3  A    between atoms: N_7  and  C_37
    4  A    between atoms: C_8  and  C_18
    5  A    between atoms: N_9  and  C_17
    6  A    between atoms: C_11  and  C_16
    7  A    between atoms: C_11  and  C_19
    8  A    between atoms: C_14  and  C_30
    9  A    between atoms: C_14  and  C_32
   10  A    between atoms: C_17  and  C_18
   11  A    between atoms: C_27  and  C_32
                            x       y       z     vdW  Elec       q    Type
                         _______ _______ _______ _____ _____    ______ ____

>  <TORSDO>
F 11

$$$$
