=
 OpenBabel11042419123D

 66 71  0  0  1  0  0  0  0  0999 V2000
  195.8080  175.2190  143.8860 C   0  0  2  0  0  3  0  0  0  0  0  0
  196.8340  176.6950  142.1260 C   0  0  0  0  0  2  0  0  0  0  0  0
  195.9380  176.6450  143.3580 C   0  0  0  0  0  2  0  0  0  0  0  0
  196.1910  176.1420  141.0060 O   0  0  0  0  0  0  0  0  0  0  0  0
  195.2140  174.0320  141.6350 C   0  0  0  0  0  2  0  0  0  0  0  0
  194.7650  174.4220  143.0640 C   0  0  1  0  0  3  0  0  0  0  0  0
  196.4430  174.7640  141.0840 C   0  0  1  0  0  3  0  0  0  0  0  0
  196.8030  174.1960  139.7450 C   0  0  0  0  0  0  0  0  0  0  0  0
  196.8190  172.7790  139.5710 N   0  0  0  0  0  2  0  0  0  0  0  0
  197.0980  174.9540  138.7780 O   0  0  0  0  0  0  0  0  0  0  0  0
  195.7500  171.0050  138.2370 C   0  0  0  0  0  0  0  0  0  0  0  0
  196.5080  172.2110  138.3230 N   0  0  0  0  0  2  0  0  0  0  0  0
  195.7240  170.2070  139.2080 O   0  0  0  0  0  0  0  0  0  0  0  0
  194.9990  170.6840  136.9830 C   0  0  0  0  0  2  0  0  0  0  0  0
  192.1410  173.0730  137.0360 C   0  0  0  0  0  0  0  0  0  0  0  0
  193.6250  171.1660  137.0670 N   0  0  0  0  0  0  0  0  0  0  0  0
  191.3660  172.4930  138.2050 C   0  0  0  0  0  2  0  0  0  0  0  0
  192.6410  170.3610  137.7650 C   0  0  0  0  0  2  0  0  0  0  0  0
  193.2800  172.4740  136.5820 C   0  0  0  0  0  0  0  0  0  0  0  0
  191.9910  171.2200  138.8320 C   0  0  2  0  0  3  0  0  0  0  0  0
  191.0810  170.3950  139.6410 N   0  0  0  0  0  0  0  0  0  0  0  0
  190.6310  169.8450  141.9360 C   0  0  0  0  0  2  0  0  0  0  0  0
  190.7400  170.9760  140.9400 C   0  0  0  0  0  2  0  0  0  0  0  0
  191.7640  169.1390  139.9230 C   0  0  0  0  0  2  0  0  0  0  0  0
  191.3190  168.6660  141.2920 C   0  0  0  0  0  2  0  0  0  0  0  0
  190.2120  174.2580  135.7860 C   0  0  0  0  0  1  0  0  0  0  0  0
  192.1770  175.3830  136.5010 O   0  0  0  0  0  0  0  0  0  0  0  0
  191.5660  174.2840  136.4150 C   0  0  0  0  0  0  0  0  0  0  0  0
  194.1500  173.0740  135.6600 O   0  0  0  0  0  0  0  0  0  0  0  0
  194.7300  172.4000  134.5330 C   0  0  0  0  0  1  0  0  0  0  0  0
  195.4610  175.3260  145.3450 C   0  0  0  0  0  0  0  0  0  0  0  0
  195.8480  174.4690  146.1300 O   0  0  0  0  0  0  0  0  0  0  0  0
  194.5170  176.4090  145.7850 C   0  0  0  0  0  2  0  0  0  0  0  0
  193.6900  175.9870  146.9950 C   0  0  0  0  0  2  0  0  0  0  0  0
  190.0330  174.9070  147.5130 C   0  0  0  0  0  1  0  0  0  0  0  0
  191.3940  176.4910  146.1960 C   0  0  0  0  0  2  0  0  0  0  0  0
  192.3170  175.3790  146.6440 C   0  0  2  0  0  3  0  0  0  0  0  0
  191.2040  175.8760  147.5640 C   0  0  2  0  0  3  0  0  0  0  0  0
  194.0790  173.2630  143.8220 C   0  0  1  0  0  3  0  0  0  0  0  0
  191.8560  173.9550  142.9890 C   0  0  0  0  0  3  0  0  0  0  0  0
  192.6120  173.5400  144.0110 C   0  0  0  0  0  3  0  0  0  0  0  0
  188.3410  175.5130  143.0450 C   0  0  0  0  0  2  0  0  0  0  0  0
  189.7930  175.3570  142.9270 C   0  0  0  0  0  0  0  0  0  0  0  0
  188.1030  176.9220  142.6990 N   0  0  0  0  0  0  0  0  0  0  0  0
  190.4490  176.5890  142.8050 N   0  0  0  0  0  2  0  0  0  0  0  0
  190.4090  174.1790  143.0670 C   0  0  0  0  0  3  0  0  0  0  0  0
  189.4060  177.6120  142.7720 C   0  0  0  0  0  2  0  0  0  0  0  0
  187.0930  177.5530  143.5740 C   0  0  2  0  0  3  0  0  0  0  0  0
  185.6610  177.3200  145.7600 C   0  0  2  0  0  3  0  0  0  0  0  0
  186.7360  176.7240  144.8570 C   0  0  2  0  0  3  0  0  0  0  0  0
  187.8070  177.5080  146.5910 O   0  0  0  0  0  0  0  0  0  0  0  0
  185.1740  178.5360  145.2640 O   0  0  0  0  0  1  0  0  0  0  0  0
  186.4780  177.5130  147.0180 C   0  0  1  0  0  3  0  0  0  0  0  0
  187.8490  176.5330  145.6920 O   0  0  0  0  0  0  0  0  0  0  0  0
  186.1580  178.7570  147.8260 C   0  0  0  0  0  3  0  0  0  0  0  0
  186.9780  179.2590  148.5930 O   0  0  0  0  0  0  0  0  0  0  0  0
  185.8530  177.9100  142.7310 C   0  0  0  0  0  3  0  0  0  0  0  0
  185.8780  179.2600  142.3570 O   0  0  0  0  0  1  0  0  0  0  0  0
  185.7660  177.1030  141.5970 O   0  0  0  0  0  1  0  0  0  0  0  0
  194.3280  171.8870  143.1760 C   0  0  0  0  0  2  0  0  0  0  0  0
  194.9930  170.9180  144.1420 C   0  0  2  0  0  3  0  0  0  0  0  0
  196.3630  171.4160  144.5430 C   0  0  0  0  0  2  0  0  0  0  0  0
  196.6350  171.1130  146.0010 C   0  0  0  0  0  1  0  0  0  0  0  0
  195.0940  169.5420  143.5020 C   0  0  0  0  0  2  0  0  0  0  0  0
  193.8990  168.7820  143.8520 N   0  0  0  0  0  2  0  0  0  0  0  0
  193.6860  168.9900  145.2750 C   0  0  0  0  0  1  0  0  0  0  0  0
  1 31  1  1  0  0  0
  2  3  1  0  0  0  0
  3  1  1  0  0  0  0
  4  7  1  0  0  0  0
  4  2  1  0  0  0  0
  5  6  1  0  0  0  0
  6 39  1  1  0  0  0
  6  1  1  0  0  0  0
  7  8  1  6  0  0  0
  7  5  1  0  0  0  0
  9  8  1  0  0  0  0
 10  8  2  0  0  0  0
 11 12  1  0  0  0  0
 11 13  2  0  0  0  0
 12  9  1  0  0  0  0
 14 16  1  0  0  0  0
 14 11  1  0  0  0  0
 15 17  1  0  0  0  0
 16 18  1  0  0  0  0
 17 20  1  0  0  0  0
 19 15  2  0  0  0  0
 19 16  1  0  0  0  0
 20 18  1  6  0  0  0
 20 21  1  0  0  0  0
 21 24  1  0  0  0  0
 21 23  1  0  0  0  0
 23 22  1  0  0  0  0
 24 25  1  0  0  0  0
 25 22  1  0  0  0  0
 26 28  1  0  0  0  0
 28 27  2  0  0  0  0
 28 15  1  0  0  0  0
 29 19  1  0  0  0  0
 30 29  1  0  0  0  0
 31 33  1  0  0  0  0
 31 32  2  0  0  0  0
 33 34  1  0  0  0  0
 36 37  1  0  0  0  0
 36 38  1  0  0  0  0
 37 34  1  1  0  0  0
 37 38  1  0  0  0  0
 38 35  1  6  0  0  0
 39 60  1  6  0  0  0
 39 41  1  0  0  0  0
 40 46  1  0  0  0  0
 40 41  2  0  0  0  0
 43 42  1  0  0  0  0
 43 46  2  0  0  0  0
 44 47  1  0  0  0  0
 44 42  1  0  0  0  0
 44 48  1  0  0  0  0
 45 43  1  0  0  0  0
 47 45  1  0  0  0  0
 48 57  1  6  0  0  0
 49 52  1  6  0  0  0
 49 53  1  0  0  0  0
 50 48  1  6  0  0  0
 50 54  1  0  0  0  0
 50 49  1  0  0  0  0
 51 53  1  0  0  0  0
 53 55  1  6  0  0  0
 54 51  1  0  0  0  0
 55 56  2  0  0  0  0
 58 57  1  0  0  0  0
 59 57  1  0  0  0  0
 61 60  1  6  0  0  0
 61 62  1  0  0  0  0
 62 63  1  0  0  0  0
 64 65  1  0  0  0  0
 64 61  1  0  0  0  0
 65 66  1  0  0  0  0
M  END
>  <MODEL>
1

>  <REMARK>
 VINA RESULT:      -6.1      0.000      0.000
  Name = 
  23 active torsions:
  status: ('A' for Active; 'I' for Inactive)
    1  A    between atoms: C_1  and  C_11
    2  A    between atoms: N_2  and  C_52
    3  A    between atoms: C_3  and  C_49
    4  A    between atoms: C_4  and  C_11
    5  A    between atoms: C_4  and  C_14
    6  A    between atoms: C_7  and  C_64
    7  A    between atoms: C_9  and  C_45
    8  A    between atoms: C_14  and  C_32
    9  A    between atoms: O_15  and  C_44
   10  A    between atoms: C_18  and  N_20
   11  A    between atoms: C_18  and  C_22
   12  A    between atoms: C_19  and  C_54
   13  A    between atoms: C_21  and  C_25
   14  A    between atoms: C_21  and  C_52
   15  A    between atoms: C_21  and  C_55
   16  A    between atoms: N_24  and  C_48
   17  A    between atoms: C_25  and  C_63
   18  A    between atoms: N_28  and  C_45
   19  A    between atoms: N_30  and  N_53
   20  A    between atoms: C_38  and  C_60
   21  A    between atoms: C_43  and  C_63
   22  A    between atoms: C_45  and  C_46
   23  A    between atoms: C_47  and  C_63
                            x       y       z     vdW  Elec       q    Type
                         _______ _______ _______ _____ _____    ______ ____

>  <TORSDO>
F 23

$$$$
=
 OpenBabel11042419123D

 66 71  0  0  1  0  0  0  0  0999 V2000
  195.5820  175.0930  144.0060 C   0  0  2  0  0  3  0  0  0  0  0  0
  197.0960  176.7750  142.9060 C   0  0  0  0  0  2  0  0  0  0  0  0
  195.9600  176.5690  143.9010 C   0  0  0  0  0  2  0  0  0  0  0  0
  196.6520  176.6040  141.5840 O   0  0  0  0  0  0  0  0  0  0  0  0
  195.3620  174.5730  141.4550 C   0  0  0  0  0  2  0  0  0  0  0  0
  194.6630  174.6770  142.8320 C   0  0  1  0  0  3  0  0  0  0  0  0
  196.7450  175.2250  141.3430 C   0  0  1  0  0  3  0  0  0  0  0  0
  197.3220  174.9430  139.9900 C   0  0  0  0  0  0  0  0  0  0  0  0
  197.5040  173.5870  139.5790 N   0  0  0  0  0  2  0  0  0  0  0  0
  197.6530  175.8860  139.2170 O   0  0  0  0  0  0  0  0  0  0  0  0
  196.1940  172.7090  137.6870 C   0  0  0  0  0  0  0  0  0  0  0  0
  197.4080  173.2350  138.2210 N   0  0  0  0  0  2  0  0  0  0  0  0
  195.3650  172.1440  138.4450 O   0  0  0  0  0  0  0  0  0  0  0  0
  195.9160  172.8150  136.2200 C   0  0  0  0  0  2  0  0  0  0  0  0
  193.7360  175.7950  135.7200 C   0  0  0  0  0  0  0  0  0  0  0  0
  194.7090  173.5980  135.9790 N   0  0  0  0  0  0  0  0  0  0  0  0
  192.5630  175.3810  136.5890 C   0  0  0  0  0  2  0  0  0  0  0  0
  193.4210  173.0240  136.3210 C   0  0  0  0  0  2  0  0  0  0  0  0
  194.8000  174.9610  135.5340 C   0  0  0  0  0  0  0  0  0  0  0  0
  192.7020  173.9850  137.2490 C   0  0  2  0  0  3  0  0  0  0  0  0
  191.4490  173.3720  137.7150 N   0  0  0  0  0  0  0  0  0  0  0  0
  190.5540  172.2140  139.6210 C   0  0  0  0  0  2  0  0  0  0  0  0
  191.2270  173.4850  139.1570 C   0  0  0  0  0  2  0  0  0  0  0  0
  191.5250  171.9460  137.4250 C   0  0  0  0  0  2  0  0  0  0  0  0
  190.7720  171.2100  138.5140 C   0  0  0  0  0  2  0  0  0  0  0  0
  194.8130  178.0240  134.9730 C   0  0  0  0  0  1  0  0  0  0  0  0
  192.5540  177.4580  134.5130 O   0  0  0  0  0  0  0  0  0  0  0  0
  193.6290  177.1200  135.0750 C   0  0  0  0  0  0  0  0  0  0  0  0
  195.9990  175.3660  134.9280 O   0  0  0  0  0  0  0  0  0  0  0  0
  197.1660  175.7970  135.6440 C   0  0  0  0  0  1  0  0  0  0  0  0
  194.9480  174.9030  145.3560 C   0  0  0  0  0  0  0  0  0  0  0  0
  194.9680  173.8010  145.8910 O   0  0  0  0  0  0  0  0  0  0  0  0
  194.1690  176.0390  145.9550 C   0  0  0  0  0  2  0  0  0  0  0  0
  192.7400  176.0930  145.4230 C   0  0  0  0  0  2  0  0  0  0  0  0
  189.3930  175.3380  147.1640 C   0  0  0  0  0  1  0  0  0  0  0  0
  191.8150  174.9360  147.4150 C   0  0  0  0  0  2  0  0  0  0  0  0
  191.6570  176.1450  146.5190 C   0  0  2  0  0  3  0  0  0  0  0  0
  190.6740  174.9800  146.4260 C   0  0  2  0  0  3  0  0  0  0  0  0
  193.7230  173.4860  143.1260 C   0  0  1  0  0  3  0  0  0  0  0  0
  191.2760  173.2050  143.3550 C   0  0  0  0  0  3  0  0  0  0  0  0
  192.3020  173.8210  142.7590 C   0  0  0  0  0  3  0  0  0  0  0  0
  187.9450  174.9770  142.6130 C   0  0  0  0  0  2  0  0  0  0  0  0
  189.3750  174.7290  142.8180 C   0  0  0  0  0  0  0  0  0  0  0  0
  187.8840  176.3860  142.1960 N   0  0  0  0  0  0  0  0  0  0  0  0
  190.1230  175.9130  142.8190 N   0  0  0  0  0  2  0  0  0  0  0  0
  189.8660  173.5200  143.1110 C   0  0  0  0  0  3  0  0  0  0  0  0
  189.1830  176.9960  142.5400 C   0  0  0  0  0  2  0  0  0  0  0  0
  186.7530  177.1060  142.8180 C   0  0  2  0  0  3  0  0  0  0  0  0
  184.7400  178.6320  142.1110 C   0  0  2  0  0  3  0  0  0  0  0  0
  186.2300  178.3320  141.9930 C   0  0  2  0  0  3  0  0  0  0  0  0
  185.3560  177.6630  140.1070 O   0  0  0  0  0  0  0  0  0  0  0  0
  184.0880  177.7270  142.9600 O   0  0  0  0  0  1  0  0  0  0  0  0
  184.3350  178.4340  140.6670 C   0  0  1  0  0  3  0  0  0  0  0  0
  186.4650  178.1840  140.6160 O   0  0  0  0  0  0  0  0  0  0  0  0
  182.9740  177.8020  140.4440 C   0  0  0  0  0  3  0  0  0  0  0  0
  181.9370  178.4600  140.5110 O   0  0  0  0  0  0  0  0  0  0  0  0
  187.1320  177.4790  144.2650 C   0  0  0  0  0  3  0  0  0  0  0  0
  186.8490  178.8270  144.5220 O   0  0  0  0  0  1  0  0  0  0  0  0
  186.4670  176.6690  145.1850 O   0  0  0  0  0  1  0  0  0  0  0  0
  194.1910  172.1710  142.4730 C   0  0  0  0  0  2  0  0  0  0  0  0
  194.7470  171.1950  143.4990 C   0  0  2  0  0  3  0  0  0  0  0  0
  196.2590  171.1830  143.4640 C   0  0  0  0  0  2  0  0  0  0  0  0
  196.7870  169.7900  143.7300 C   0  0  0  0  0  1  0  0  0  0  0  0
  194.1980  169.8010  143.2350 C   0  0  0  0  0  2  0  0  0  0  0  0
  192.9700  169.9300  142.4590 N   0  0  0  0  0  2  0  0  0  0  0  0
  193.0470  168.9320  141.4050 C   0  0  0  0  0  1  0  0  0  0  0  0
  1 31  1  1  0  0  0
  2  3  1  0  0  0  0
  3  1  1  0  0  0  0
  4  2  1  0  0  0  0
  5  6  1  0  0  0  0
  6 39  1  1  0  0  0
  6  1  1  0  0  0  0
  7  8  1  6  0  0  0
  7  5  1  0  0  0  0
  7  4  1  0  0  0  0
  9  8  1  0  0  0  0
 10  8  2  0  0  0  0
 11 12  1  0  0  0  0
 11 13  2  0  0  0  0
 12  9  1  0  0  0  0
 14 11  1  0  0  0  0
 15 17  1  0  0  0  0
 16 14  1  0  0  0  0
 16 18  1  0  0  0  0
 17 20  1  0  0  0  0
 19 15  2  0  0  0  0
 19 16  1  0  0  0  0
 20 18  1  6  0  0  0
 20 21  1  0  0  0  0
 21 23  1  0  0  0  0
 23 22  1  0  0  0  0
 24 21  1  0  0  0  0
 24 25  1  0  0  0  0
 25 22  1  0  0  0  0
 26 28  1  0  0  0  0
 27 28  2  0  0  0  0
 28 15  1  0  0  0  0
 29 19  1  0  0  0  0
 29 30  1  0  0  0  0
 31 32  2  0  0  0  0
 31 33  1  0  0  0  0
 34 33  1  0  0  0  0
 37 34  1  6  0  0  0
 37 36  1  0  0  0  0
 38 37  1  0  0  0  0
 38 35  1  1  0  0  0
 38 36  1  0  0  0  0
 39 60  1  6  0  0  0
 41 39  1  0  0  0  0
 41 40  2  0  0  0  0
 42 43  1  0  0  0  0
 43 45  1  0  0  0  0
 43 46  2  0  0  0  0
 44 47  1  0  0  0  0
 44 42  1  0  0  0  0
 44 48  1  0  0  0  0
 46 40  1  0  0  0  0
 47 45  1  0  0  0  0
 48 57  1  1  0  0  0
 49 52  1  1  0  0  0
 50 49  1  0  0  0  0
 50 48  1  1  0  0  0
 51 54  1  0  0  0  0
 51 53  1  0  0  0  0
 53 55  1  1  0  0  0
 53 49  1  0  0  0  0
 54 50  1  0  0  0  0
 55 56  2  0  0  0  0
 57 58  1  0  0  0  0
 57 59  1  0  0  0  0
 61 60  1  6  0  0  0
 62 61  1  0  0  0  0
 62 63  1  0  0  0  0
 64 61  1  0  0  0  0
 65 64  1  0  0  0  0
 66 65  1  0  0  0  0
M  END
>  <MODEL>
2

>  <REMARK>
 VINA RESULT:      -5.7      1.854      3.072
  Name = 
  23 active torsions:
  status: ('A' for Active; 'I' for Inactive)
    1  A    between atoms: C_1  and  C_11
    2  A    between atoms: N_2  and  C_52
    3  A    between atoms: C_3  and  C_49
    4  A    between atoms: C_4  and  C_11
    5  A    between atoms: C_4  and  C_14
    6  A    between atoms: C_7  and  C_64
    7  A    between atoms: C_9  and  C_45
    8  A    between atoms: C_14  and  C_32
    9  A    between atoms: O_15  and  C_44
   10  A    between atoms: C_18  and  N_20
   11  A    between atoms: C_18  and  C_22
   12  A    between atoms: C_19  and  C_54
   13  A    between atoms: C_21  and  C_25
   14  A    between atoms: C_21  and  C_52
   15  A    between atoms: C_21  and  C_55
   16  A    between atoms: N_24  and  C_48
   17  A    between atoms: C_25  and  C_63
   18  A    between atoms: N_28  and  C_45
   19  A    between atoms: N_30  and  N_53
   20  A    between atoms: C_38  and  C_60
   21  A    between atoms: C_43  and  C_63
   22  A    between atoms: C_45  and  C_46
   23  A    between atoms: C_47  and  C_63
                            x       y       z     vdW  Elec       q    Type
                         _______ _______ _______ _____ _____    ______ ____

>  <TORSDO>
F 23

$$$$
=
 OpenBabel11042419123D

 66 71  0  0  1  0  0  0  0  0999 V2000
  194.8580  174.6670  144.2680 C   0  0  2  0  0  3  0  0  0  0  0  0
  196.5500  176.3820  143.5420 C   0  0  0  0  0  2  0  0  0  0  0  0
  195.2750  176.1340  144.3410 C   0  0  0  0  0  2  0  0  0  0  0  0
  196.3030  176.3290  142.1610 O   0  0  0  0  0  0  0  0  0  0  0  0
  195.0080  174.3570  141.6770 C   0  0  0  0  0  2  0  0  0  0  0  0
  194.1150  174.3730  142.9410 C   0  0  1  0  0  3  0  0  0  0  0  0
  196.4040  174.9710  141.8230 C   0  0  1  0  0  3  0  0  0  0  0  0
  197.1700  174.7790  140.5500 C   0  0  0  0  0  0  0  0  0  0  0  0
  197.5250  173.4560  140.1430 N   0  0  0  0  0  2  0  0  0  0  0  0
  197.5090  175.7680  139.8410 O   0  0  0  0  0  0  0  0  0  0  0  0
  196.9360  172.0140  138.2350 C   0  0  0  0  0  0  0  0  0  0  0  0
  197.6320  173.1350  138.7790 N   0  0  0  0  0  2  0  0  0  0  0  0
  196.5910  171.0630  138.9820 O   0  0  0  0  0  0  0  0  0  0  0  0
  196.6300  171.9660  136.7710 C   0  0  0  0  0  2  0  0  0  0  0  0
  194.0720  174.6510  136.4170 C   0  0  0  0  0  0  0  0  0  0  0  0
  195.3460  172.5990  136.4910 N   0  0  0  0  0  0  0  0  0  0  0  0
  192.8950  173.9480  137.0670 C   0  0  0  0  0  2  0  0  0  0  0  0
  194.1360  171.8050  136.5870 C   0  0  0  0  0  2  0  0  0  0  0  0
  195.2660  174.0130  136.2520 C   0  0  0  0  0  0  0  0  0  0  0  0
  193.1820  172.5000  137.5400 C   0  0  2  0  0  3  0  0  0  0  0  0
  192.0000  171.6530  137.7580 N   0  0  0  0  0  0  0  0  0  0  0  0
  190.0170  170.9170  136.6190 C   0  0  0  0  0  2  0  0  0  0  0  0
  191.5260  170.9640  136.5570 C   0  0  0  0  0  2  0  0  0  0  0  0
  190.9120  172.5230  138.1860 C   0  0  0  0  0  2  0  0  0  0  0  0
  189.6180  171.9450  137.6500 C   0  0  0  0  0  2  0  0  0  0  0  0
  194.8270  176.7510  135.1110 C   0  0  0  0  0  1  0  0  0  0  0  0
  192.7140  176.5810  136.1790 O   0  0  0  0  0  0  0  0  0  0  0  0
  193.8250  176.0320  135.9520 C   0  0  0  0  0  0  0  0  0  0  0  0
  196.4430  174.6720  135.8620 O   0  0  0  0  0  0  0  0  0  0  0  0
  197.1460  174.4220  134.6370 C   0  0  0  0  0  1  0  0  0  0  0  0
  194.0270  174.3910  145.4900 C   0  0  0  0  0  0  0  0  0  0  0  0
  194.0960  173.3000  146.0430 O   0  0  0  0  0  0  0  0  0  0  0  0
  193.0140  175.4140  145.9210 C   0  0  0  0  0  2  0  0  0  0  0  0
  191.6700  174.7770  146.2590 C   0  0  0  0  0  2  0  0  0  0  0  0
  189.0880  177.5020  147.1040 C   0  0  0  0  0  1  0  0  0  0  0  0
  189.3680  175.0490  147.1470 C   0  0  0  0  0  2  0  0  0  0  0  0
  190.7550  175.6540  147.1370 C   0  0  2  0  0  3  0  0  0  0  0  0
  189.6240  176.3010  146.3400 C   0  0  2  0  0  3  0  0  0  0  0  0
  193.1180  173.1930  142.9960 C   0  0  1  0  0  3  0  0  0  0  0  0
  190.6890  172.8250  142.7140 C   0  0  0  0  0  3  0  0  0  0  0  0
  191.7000  173.6830  142.8850 C   0  0  0  0  0  3  0  0  0  0  0  0
  187.3760  174.7440  142.3550 C   0  0  0  0  0  2  0  0  0  0  0  0
  188.8050  174.4210  142.3530 C   0  0  0  0  0  0  0  0  0  0  0  0
  187.3190  176.1180  141.8340 N   0  0  0  0  0  0  0  0  0  0  0  0
  189.6020  175.5520  142.1360 N   0  0  0  0  0  2  0  0  0  0  0  0
  189.2750  173.2090  142.6680 C   0  0  0  0  0  3  0  0  0  0  0  0
  188.6860  176.6690  141.9160 C   0  0  0  0  0  2  0  0  0  0  0  0
  186.3410  176.9540  142.5620 C   0  0  2  0  0  3  0  0  0  0  0  0
  184.4300  178.6620  142.0040 C   0  0  2  0  0  3  0  0  0  0  0  0
  185.8780  178.2360  141.7870 C   0  0  2  0  0  3  0  0  0  0  0  0
  184.8320  177.6800  139.9530 O   0  0  0  0  0  0  0  0  0  0  0  0
  183.7560  177.8020  142.8820 O   0  0  0  0  0  1  0  0  0  0  0  0
  183.9200  178.5270  140.5860 C   0  0  1  0  0  3  0  0  0  0  0  0
  186.0120  178.0930  140.3960 O   0  0  0  0  0  0  0  0  0  0  0  0
  182.4970  178.0210  140.4430 C   0  0  0  0  0  3  0  0  0  0  0  0
  181.5340  178.6780  140.8320 O   0  0  0  0  0  0  0  0  0  0  0  0
  186.9000  177.2720  143.9630 C   0  0  0  0  0  3  0  0  0  0  0  0
  186.9010  178.6540  144.1960 O   0  0  0  0  0  1  0  0  0  0  0  0
  186.1690  176.6220  144.9570 O   0  0  0  0  0  1  0  0  0  0  0  0
  193.4290  172.0920  141.9640 C   0  0  0  0  0  2  0  0  0  0  0  0
  193.9620  170.8290  142.6250 C   0  0  2  0  0  3  0  0  0  0  0  0
  192.8710  170.1300  143.4040 C   0  0  0  0  0  2  0  0  0  0  0  0
  191.9900  169.3190  142.4780 C   0  0  0  0  0  1  0  0  0  0  0  0
  195.1260  171.1790  143.5400 C   0  0  0  0  0  2  0  0  0  0  0  0
  195.4170  170.0220  144.3790 N   0  0  0  0  0  2  0  0  0  0  0  0
  196.5250  169.3270  143.7450 C   0  0  0  0  0  1  0  0  0  0  0  0
  1  3  1  0  0  0  0
  1 31  1  1  0  0  0
  2  3  1  0  0  0  0
  4  2  1  0  0  0  0
  5  7  1  0  0  0  0
  5  6  1  0  0  0  0
  6 39  1  1  0  0  0
  6  1  1  0  0  0  0
  7  8  1  6  0  0  0
  7  4  1  0  0  0  0
  9  8  1  0  0  0  0
 10  8  2  0  0  0  0
 11 12  1  0  0  0  0
 11 13  2  0  0  0  0
 12  9  1  0  0  0  0
 14 11  1  0  0  0  0
 15 17  1  0  0  0  0
 16 18  1  0  0  0  0
 16 14  1  0  0  0  0
 17 20  1  0  0  0  0
 19 15  2  0  0  0  0
 19 16  1  0  0  0  0
 20 18  1  6  0  0  0
 20 21  1  0  0  0  0
 21 24  1  0  0  0  0
 22 25  1  0  0  0  0
 23 22  1  0  0  0  0
 23 21  1  0  0  0  0
 25 24  1  0  0  0  0
 26 28  1  0  0  0  0
 28 27  2  0  0  0  0
 28 15  1  0  0  0  0
 29 19  1  0  0  0  0
 30 29  1  0  0  0  0
 31 33  1  0  0  0  0
 31 32  2  0  0  0  0
 33 34  1  0  0  0  0
 37 34  1  6  0  0  0
 37 36  1  0  0  0  0
 38 35  1  1  0  0  0
 38 37  1  0  0  0  0
 38 36  1  0  0  0  0
 39 60  1  6  0  0  0
 40 41  2  0  0  0  0
 41 39  1  0  0  0  0
 43 42  1  0  0  0  0
 43 46  2  0  0  0  0
 44 47  1  0  0  0  0
 44 42  1  0  0  0  0
 44 48  1  0  0  0  0
 45 43  1  0  0  0  0
 46 40  1  0  0  0  0
 47 45  1  0  0  0  0
 48 57  1  1  0  0  0
 49 52  1  1  0  0  0
 50 49  1  0  0  0  0
 50 48  1  1  0  0  0
 51 54  1  0  0  0  0
 51 53  1  0  0  0  0
 53 55  1  1  0  0  0
 53 49  1  0  0  0  0
 54 50  1  0  0  0  0
 55 56  2  0  0  0  0
 57 58  1  0  0  0  0
 57 59  1  0  0  0  0
 61 60  1  1  0  0  0
 61 62  1  0  0  0  0
 61 64  1  0  0  0  0
 63 62  1  0  0  0  0
 64 65  1  0  0  0  0
 66 65  1  0  0  0  0
M  END
>  <MODEL>
3

>  <REMARK>
 VINA RESULT:      -5.6      1.861      3.253
  Name = 
  23 active torsions:
  status: ('A' for Active; 'I' for Inactive)
    1  A    between atoms: C_1  and  C_11
    2  A    between atoms: N_2  and  C_52
    3  A    between atoms: C_3  and  C_49
    4  A    between atoms: C_4  and  C_11
    5  A    between atoms: C_4  and  C_14
    6  A    between atoms: C_7  and  C_64
    7  A    between atoms: C_9  and  C_45
    8  A    between atoms: C_14  and  C_32
    9  A    between atoms: O_15  and  C_44
   10  A    between atoms: C_18  and  N_20
   11  A    between atoms: C_18  and  C_22
   12  A    between atoms: C_19  and  C_54
   13  A    between atoms: C_21  and  C_25
   14  A    between atoms: C_21  and  C_52
   15  A    between atoms: C_21  and  C_55
   16  A    between atoms: N_24  and  C_48
   17  A    between atoms: C_25  and  C_63
   18  A    between atoms: N_28  and  C_45
   19  A    between atoms: N_30  and  N_53
   20  A    between atoms: C_38  and  C_60
   21  A    between atoms: C_43  and  C_63
   22  A    between atoms: C_45  and  C_46
   23  A    between atoms: C_47  and  C_63
                            x       y       z     vdW  Elec       q    Type
                         _______ _______ _______ _____ _____    ______ ____

>  <TORSDO>
F 23

$$$$
=
 OpenBabel11042419123D

 66 71  0  0  1  0  0  0  0  0999 V2000
  191.1850  173.2910  137.4800 C   0  0  2  0  0  3  0  0  0  0  0  0
  193.1370  174.6160  136.6050 C   0  0  0  0  0  2  0  0  0  0  0  0
  191.9570  173.7240  136.2360 C   0  0  0  0  0  2  0  0  0  0  0  0
  194.1640  173.8750  137.2120 O   0  0  0  0  0  0  0  0  0  0  0  0
  193.2070  172.4680  138.9160 C   0  0  0  0  0  2  0  0  0  0  0  0
  191.8940  172.1060  138.1810 C   0  0  1  0  0  3  0  0  0  0  0  0
  193.8270  173.8270  138.5730 C   0  0  1  0  0  3  0  0  0  0  0  0
  195.0230  174.0640  139.4430 C   0  0  0  0  0  0  0  0  0  0  0  0
  195.8850  175.1660  139.1560 N   0  0  0  0  0  2  0  0  0  0  0  0
  195.2790  173.3000  140.4150 O   0  0  0  0  0  0  0  0  0  0  0  0
  195.8640  176.4960  141.2300 C   0  0  0  0  0  0  0  0  0  0  0  0
  196.5740  175.8200  140.1930 N   0  0  0  0  0  2  0  0  0  0  0  0
  194.6920  176.9030  141.0290 O   0  0  0  0  0  0  0  0  0  0  0  0
  196.5240  176.7340  142.5520 C   0  0  0  0  0  2  0  0  0  0  0  0
  195.6360  173.5780  144.3210 C   0  0  0  0  0  0  0  0  0  0  0  0
  195.9690  175.8510  143.5720 N   0  0  0  0  0  0  0  0  0  0  0  0
  194.2010  173.9060  144.6910 C   0  0  0  0  0  2  0  0  0  0  0  0
  194.8580  176.3220  144.3780 C   0  0  0  0  0  2  0  0  0  0  0  0
  196.4250  174.4940  143.6890 C   0  0  0  0  0  0  0  0  0  0  0  0
  193.7260  175.3200  144.2640 C   0  0  2  0  0  3  0  0  0  0  0  0
  192.5410  175.8340  144.9670 N   0  0  0  0  0  0  0  0  0  0  0  0
  191.5810  175.9020  147.1680 C   0  0  0  0  0  2  0  0  0  0  0  0
  192.7970  176.2560  146.3440 C   0  0  0  0  0  2  0  0  0  0  0  0
  191.5740  174.7460  145.0470 C   0  0  0  0  0  2  0  0  0  0  0  0
  190.8050  174.9030  146.3430 C   0  0  0  0  0  2  0  0  0  0  0  0
  197.0110  172.0640  145.9030 C   0  0  0  0  0  1  0  0  0  0  0  0
  195.6920  171.2160  144.1200 O   0  0  0  0  0  0  0  0  0  0  0  0
  196.1170  172.2390  144.7200 C   0  0  0  0  0  0  0  0  0  0  0  0
  197.6730  174.1790  143.1310 O   0  0  0  0  0  0  0  0  0  0  0  0
  197.8860  173.1740  142.1290 C   0  0  0  0  0  1  0  0  0  0  0  0
  189.7860  172.9680  137.0320 C   0  0  0  0  0  0  0  0  0  0  0  0
  189.5990  172.0910  136.1970 O   0  0  0  0  0  0  0  0  0  0  0  0
  188.6570  173.8360  137.5090 C   0  0  0  0  0  2  0  0  0  0  0  0
  188.6930  175.2210  136.8720 C   0  0  0  0  0  2  0  0  0  0  0  0
  185.1990  176.0340  135.4810 C   0  0  0  0  0  1  0  0  0  0  0  0
  187.4910  176.9480  135.5550 C   0  0  0  0  0  2  0  0  0  0  0  0
  187.5970  175.4610  135.8140 C   0  0  2  0  0  3  0  0  0  0  0  0
  186.4170  176.2580  136.3640 C   0  0  2  0  0  3  0  0  0  0  0  0
  190.9690  171.1860  139.0090 C   0  0  1  0  0  3  0  0  0  0  0  0
  190.5950  172.1060  141.2740 C   0  0  0  0  0  3  0  0  0  0  0  0
  190.1770  171.9830  140.0110 C   0  0  0  0  0  3  0  0  0  0  0  0
  188.4950  174.7410  143.1260 C   0  0  0  0  0  2  0  0  0  0  0  0
  189.1100  173.9530  142.0560 C   0  0  0  0  0  0  0  0  0  0  0  0
  187.6000  175.6680  142.4190 N   0  0  0  0  0  0  0  0  0  0  0  0
  188.8650  174.4980  140.7890 N   0  0  0  0  0  2  0  0  0  0  0  0
  189.9250  172.9190  142.2930 C   0  0  0  0  0  3  0  0  0  0  0  0
  188.0010  175.6570  140.9980 C   0  0  0  0  0  2  0  0  0  0  0  0
  187.6330  177.0290  142.9920 C   0  0  2  0  0  3  0  0  0  0  0  0
  186.4080  178.1760  145.0090 C   0  0  2  0  0  3  0  0  0  0  0  0
  186.2870  177.4900  143.6530 C   0  0  2  0  0  3  0  0  0  0  0  0
  185.6100  176.0120  145.1100 O   0  0  0  0  0  0  0  0  0  0  0  0
  187.7410  178.2710  145.4320 O   0  0  0  0  0  1  0  0  0  0  0  0
  185.6230  177.1950  145.8510 C   0  0  1  0  0  3  0  0  0  0  0  0
  185.4050  176.4170  143.8640 O   0  0  0  0  0  0  0  0  0  0  0  0
  186.1450  176.9670  147.2570 C   0  0  0  0  0  3  0  0  0  0  0  0
  185.9320  177.7690  148.1640 O   0  0  0  0  0  0  0  0  0  0  0  0
  188.1370  178.0130  141.9180 C   0  0  0  0  0  3  0  0  0  0  0  0
  187.2400  179.0770  141.7570 O   0  0  0  0  0  1  0  0  0  0  0  0
  189.4030  178.5030  142.2380 O   0  0  0  0  0  1  0  0  0  0  0  0
  190.0640  170.2960  138.1370 C   0  0  0  0  0  2  0  0  0  0  0  0
  190.3290  168.8160  138.3700 C   0  0  2  0  0  3  0  0  0  0  0  0
  191.3540  168.6200  139.4650 C   0  0  0  0  0  2  0  0  0  0  0  0
  190.6870  168.1670  140.7460 C   0  0  0  0  0  1  0  0  0  0  0  0
  190.8010  168.1670  137.0780 C   0  0  0  0  0  2  0  0  0  0  0  0
  191.9380  168.9250  136.5700 N   0  0  0  0  0  2  0  0  0  0  0  0
  191.7820  168.9770  135.1260 C   0  0  0  0  0  1  0  0  0  0  0  0
  1 31  1  6  0  0  0
  1  6  1  0  0  0  0
  2  4  1  0  0  0  0
  3  2  1  0  0  0  0
  3  1  1  0  0  0  0
  4  7  1  0  0  0  0
  6  5  1  0  0  0  0
  6 39  1  1  0  0  0
  7  5  1  0  0  0  0
  7  8  1  1  0  0  0
  8 10  2  0  0  0  0
  9  8  1  0  0  0  0
  9 12  1  0  0  0  0
 11 14  1  0  0  0  0
 12 11  1  0  0  0  0
 13 11  2  0  0  0  0
 14 16  1  0  0  0  0
 15 17  1  0  0  0  0
 15 28  1  0  0  0  0
 16 19  1  0  0  0  0
 16 18  1  0  0  0  0
 19 15  2  0  0  0  0
 20 18  1  1  0  0  0
 20 17  1  0  0  0  0
 20 21  1  0  0  0  0
 21 24  1  0  0  0  0
 21 23  1  0  0  0  0
 23 22  1  0  0  0  0
 24 25  1  0  0  0  0
 25 22  1  0  0  0  0
 27 28  2  0  0  0  0
 28 26  1  0  0  0  0
 29 19  1  0  0  0  0
 30 29  1  0  0  0  0
 31 33  1  0  0  0  0
 32 31  2  0  0  0  0
 34 33  1  0  0  0  0
 36 37  1  0  0  0  0
 36 38  1  0  0  0  0
 37 38  1  0  0  0  0
 37 34  1  1  0  0  0
 38 35  1  6  0  0  0
 39 60  1  6  0  0  0
 39 41  1  0  0  0  0
 40 46  1  0  0  0  0
 41 40  2  0  0  0  0
 43 46  2  0  0  0  0
 43 42  1  0  0  0  0
 44 48  1  0  0  0  0
 44 42  1  0  0  0  0
 45 47  1  0  0  0  0
 45 43  1  0  0  0  0
 47 44  1  0  0  0  0
 48 57  1  6  0  0  0
 49 52  1  1  0  0  0
 49 53  1  0  0  0  0
 50 48  1  1  0  0  0
 50 54  1  0  0  0  0
 50 49  1  0  0  0  0
 51 53  1  0  0  0  0
 53 55  1  1  0  0  0
 54 51  1  0  0  0  0
 55 56  2  0  0  0  0
 57 59  1  0  0  0  0
 58 57  1  0  0  0  0
 60 61  1  0  0  0  0
 61 64  1  6  0  0  0
 61 62  1  0  0  0  0
 62 63  1  0  0  0  0
 65 64  1  0  0  0  0
 66 65  1  0  0  0  0
M  END
>  <MODEL>
4

>  <REMARK>
 VINA RESULT:      -5.2      2.268      7.108
  Name = 
  23 active torsions:
  status: ('A' for Active; 'I' for Inactive)
    1  A    between atoms: C_1  and  C_11
    2  A    between atoms: N_2  and  C_52
    3  A    between atoms: C_3  and  C_49
    4  A    between atoms: C_4  and  C_11
    5  A    between atoms: C_4  and  C_14
    6  A    between atoms: C_7  and  C_64
    7  A    between atoms: C_9  and  C_45
    8  A    between atoms: C_14  and  C_32
    9  A    between atoms: O_15  and  C_44
   10  A    between atoms: C_18  and  N_20
   11  A    between atoms: C_18  and  C_22
   12  A    between atoms: C_19  and  C_54
   13  A    between atoms: C_21  and  C_25
   14  A    between atoms: C_21  and  C_52
   15  A    between atoms: C_21  and  C_55
   16  A    between atoms: N_24  and  C_48
   17  A    between atoms: C_25  and  C_63
   18  A    between atoms: N_28  and  C_45
   19  A    between atoms: N_30  and  N_53
   20  A    between atoms: C_38  and  C_60
   21  A    between atoms: C_43  and  C_63
   22  A    between atoms: C_45  and  C_46
   23  A    between atoms: C_47  and  C_63
                            x       y       z     vdW  Elec       q    Type
                         _______ _______ _______ _____ _____    ______ ____

>  <TORSDO>
F 23

$$$$
=
 OpenBabel11042419123D

 66 71  0  0  1  0  0  0  0  0999 V2000
  189.7350  172.6290  137.2000 C   0  0  2  0  0  3  0  0  0  0  0  0
  188.1080  174.2080  138.2920 C   0  0  0  0  0  2  0  0  0  0  0  0
  189.1700  174.0470  137.2100 C   0  0  0  0  0  2  0  0  0  0  0  0
  188.6850  174.2300  139.5720 O   0  0  0  0  0  0  0  0  0  0  0  0
  190.2470  172.4050  139.7530 C   0  0  0  0  0  2  0  0  0  0  0  0
  190.8020  172.4550  138.3090 C   0  0  1  0  0  3  0  0  0  0  0  0
  188.8030  172.8820  139.9440 C   0  0  1  0  0  3  0  0  0  0  0  0
  188.3910  172.6690  141.3680 C   0  0  0  0  0  0  0  0  0  0  0  0
  189.2170  171.8750  142.2210 N   0  0  0  0  0  2  0  0  0  0  0  0
  187.3240  173.1740  141.8170 O   0  0  0  0  0  0  0  0  0  0  0  0
  190.0210  173.2560  144.0960 C   0  0  0  0  0  0  0  0  0  0  0  0
  189.2810  172.1410  143.6000 N   0  0  0  0  0  2  0  0  0  0  0  0
  190.9570  173.7450  143.4140 O   0  0  0  0  0  0  0  0  0  0  0  0
  189.6890  173.8340  145.4360 C   0  0  0  0  0  2  0  0  0  0  0  0
  187.9550  176.9970  146.3690 C   0  0  0  0  0  0  0  0  0  0  0  0
  189.1040  175.1630  145.2940 N   0  0  0  0  0  0  0  0  0  0  0  0
  187.0340  177.1280  145.1700 C   0  0  0  0  0  2  0  0  0  0  0  0
  188.6480  175.5920  143.9850 C   0  0  0  0  0  2  0  0  0  0  0  0
  188.8620  175.9810  146.4490 C   0  0  0  0  0  0  0  0  0  0  0  0
  187.1970  176.0170  144.1000 C   0  0  2  0  0  3  0  0  0  0  0  0
  186.6700  176.3350  142.7650 N   0  0  0  0  0  0  0  0  0  0  0  0
  186.7700  178.0640  141.1000 C   0  0  0  0  0  2  0  0  0  0  0  0
  187.5910  177.0980  141.9220 C   0  0  0  0  0  2  0  0  0  0  0  0
  185.4930  177.1750  142.9480 C   0  0  0  0  0  2  0  0  0  0  0  0
  185.4240  178.1370  141.7800 C   0  0  0  0  0  2  0  0  0  0  0  0
  186.4860  178.4580  147.9160 C   0  0  0  0  0  1  0  0  0  0  0  0
  188.8580  178.5310  147.9350 O   0  0  0  0  0  0  0  0  0  0  0  0
  187.8250  178.0450  147.4020 C   0  0  0  0  0  0  0  0  0  0  0  0
  189.5810  175.6810  147.6170 O   0  0  0  0  0  0  0  0  0  0  0  0
  190.9970  175.8600  147.7690 C   0  0  0  0  0  1  0  0  0  0  0  0
  190.2680  172.3840  135.8160 C   0  0  0  0  0  0  0  0  0  0  0  0
  190.2930  171.2450  135.3630 O   0  0  0  0  0  0  0  0  0  0  0  0
  190.9000  173.5260  135.0730 C   0  0  0  0  0  2  0  0  0  0  0  0
  192.3860  173.2910  134.8230 C   0  0  0  0  0  2  0  0  0  0  0  0
  195.2680  175.2660  136.4360 C   0  0  0  0  0  1  0  0  0  0  0  0
  192.8010  175.1630  136.3990 C   0  0  0  0  0  2  0  0  0  0  0  0
  193.3090  173.8120  135.9430 C   0  0  2  0  0  3  0  0  0  0  0  0
  194.0470  175.0890  135.5460 C   0  0  2  0  0  3  0  0  0  0  0  0
  191.8660  171.3700  138.0300 C   0  0  1  0  0  3  0  0  0  0  0  0
  193.7470  172.6260  139.0310 C   0  0  0  0  0  3  0  0  0  0  0  0
  193.0270  171.5000  138.9790 C   0  0  0  0  0  3  0  0  0  0  0  0
  195.9310  172.9380  142.1810 C   0  0  0  0  0  2  0  0  0  0  0  0
  194.8020  172.6500  141.2920 C   0  0  0  0  0  0  0  0  0  0  0  0
  195.4900  172.4400  143.4920 N   0  0  0  0  0  0  0  0  0  0  0  0
  193.6520  172.2790  142.0020 N   0  0  0  0  0  2  0  0  0  0  0  0
  194.8450  172.8630  139.9730 C   0  0  0  0  0  3  0  0  0  0  0  0
  194.0290  172.2480  143.4130 C   0  0  0  0  0  2  0  0  0  0  0  0
  195.8690  173.3500  144.5940 C   0  0  2  0  0  3  0  0  0  0  0  0
  195.4570  175.8780  145.1610 C   0  0  2  0  0  3  0  0  0  0  0  0
  196.0110  174.8540  144.1760 C   0  0  2  0  0  3  0  0  0  0  0  0
  194.1550  175.5730  143.2790 O   0  0  0  0  0  0  0  0  0  0  0  0
  194.9040  175.2680  146.2950 O   0  0  0  0  0  1  0  0  0  0  0  0
  194.3950  176.5070  144.2880 C   0  0  1  0  0  3  0  0  0  0  0  0
  195.3640  175.1310  142.9600 O   0  0  0  0  0  0  0  0  0  0  0  0
  193.1120  176.9050  144.9950 C   0  0  0  0  0  3  0  0  0  0  0  0
  192.0080  176.7080  144.4910 O   0  0  0  0  0  0  0  0  0  0  0  0
  197.1340  172.8010  145.2830 C   0  0  0  0  0  3  0  0  0  0  0  0
  197.3060  173.3830  146.5450 O   0  0  0  0  0  1  0  0  0  0  0  0
  197.0800  171.4120  145.4030 O   0  0  0  0  0  1  0  0  0  0  0  0
  191.2870  169.9430  138.0210 C   0  0  0  0  0  2  0  0  0  0  0  0
  192.3180  168.9140  137.5830 C   0  0  2  0  0  3  0  0  0  0  0  0
  192.8710  168.1660  138.7750 C   0  0  0  0  0  2  0  0  0  0  0  0
  194.3830  168.2200  138.7850 C   0  0  0  0  0  1  0  0  0  0  0  0
  193.4400  169.6020  136.8210 C   0  0  0  0  0  2  0  0  0  0  0  0
  193.6960  168.8500  135.5980 N   0  0  0  0  0  2  0  0  0  0  0  0
  193.1130  169.6230  134.5140 C   0  0  0  0  0  1  0  0  0  0  0  0
  1 31  1  6  0  0  0
  1  3  1  0  0  0  0
  1  6  1  0  0  0  0
  2  4  1  0  0  0  0
  3  2  1  0  0  0  0
  4  7  1  0  0  0  0
  5  7  1  0  0  0  0
  6 39  1  6  0  0  0
  6  5  1  0  0  0  0
  7  8  1  1  0  0  0
  8 10  2  0  0  0  0
  8  9  1  0  0  0  0
  9 12  1  0  0  0  0
 11 14  1  0  0  0  0
 12 11  1  0  0  0  0
 13 11  2  0  0  0  0
 15 19  2  0  0  0  0
 15 28  1  0  0  0  0
 16 14  1  0  0  0  0
 16 19  1  0  0  0  0
 17 15  1  0  0  0  0
 18 20  1  0  0  0  0
 18 16  1  0  0  0  0
 19 29  1  0  0  0  0
 20 21  1  6  0  0  0
 20 17  1  0  0  0  0
 21 24  1  0  0  0  0
 22 25  1  0  0  0  0
 22 23  1  0  0  0  0
 23 21  1  0  0  0  0
 25 24  1  0  0  0  0
 28 26  1  0  0  0  0
 28 27  2  0  0  0  0
 29 30  1  0  0  0  0
 32 31  2  0  0  0  0
 33 31  1  0  0  0  0
 34 33  1  0  0  0  0
 37 34  1  6  0  0  0
 37 36  1  0  0  0  0
 38 37  1  0  0  0  0
 38 36  1  0  0  0  0
 38 35  1  1  0  0  0
 39 60  1  1  0  0  0
 39 41  1  0  0  0  0
 40 46  1  0  0  0  0
 41 40  2  0  0  0  0
 42 44  1  0  0  0  0
 43 45  1  0  0  0  0
 43 42  1  0  0  0  0
 44 48  1  0  0  0  0
 45 47  1  0  0  0  0
 46 43  2  0  0  0  0
 47 44  1  0  0  0  0
 48 57  1  6  0  0  0
 49 52  1  1  0  0  0
 50 48  1  1  0  0  0
 50 49  1  0  0  0  0
 51 53  1  0  0  0  0
 53 55  1  1  0  0  0
 53 49  1  0  0  0  0
 54 51  1  0  0  0  0
 54 50  1  0  0  0  0
 56 55  2  0  0  0  0
 57 59  1  0  0  0  0
 57 58  1  0  0  0  0
 61 64  1  1  0  0  0
 61 60  1  0  0  0  0
 61 62  1  0  0  0  0
 62 63  1  0  0  0  0
 65 64  1  0  0  0  0
 66 65  1  0  0  0  0
M  END
>  <MODEL>
5

>  <REMARK>
 VINA RESULT:      -4.9      2.599      9.577
  Name = 
  23 active torsions:
  status: ('A' for Active; 'I' for Inactive)
    1  A    between atoms: C_1  and  C_11
    2  A    between atoms: N_2  and  C_52
    3  A    between atoms: C_3  and  C_49
    4  A    between atoms: C_4  and  C_11
    5  A    between atoms: C_4  and  C_14
    6  A    between atoms: C_7  and  C_64
    7  A    between atoms: C_9  and  C_45
    8  A    between atoms: C_14  and  C_32
    9  A    between atoms: O_15  and  C_44
   10  A    between atoms: C_18  and  N_20
   11  A    between atoms: C_18  and  C_22
   12  A    between atoms: C_19  and  C_54
   13  A    between atoms: C_21  and  C_25
   14  A    between atoms: C_21  and  C_52
   15  A    between atoms: C_21  and  C_55
   16  A    between atoms: N_24  and  C_48
   17  A    between atoms: C_25  and  C_63
   18  A    between atoms: N_28  and  C_45
   19  A    between atoms: N_30  and  N_53
   20  A    between atoms: C_38  and  C_60
   21  A    between atoms: C_43  and  C_63
   22  A    between atoms: C_45  and  C_46
   23  A    between atoms: C_47  and  C_63
                            x       y       z     vdW  Elec       q    Type
                         _______ _______ _______ _____ _____    ______ ____

>  <TORSDO>
F 23

$$$$
=
 OpenBabel11042419123D

 66 71  0  0  1  0  0  0  0  0999 V2000
  191.3120  173.4510  137.7860 C   0  0  2  0  0  3  0  0  0  0  0  0
  193.4040  174.5750  136.9550 C   0  0  0  0  0  2  0  0  0  0  0  0
  192.1870  173.7420  136.5690 C   0  0  0  0  0  2  0  0  0  0  0  0
  194.3370  173.8110  137.6740 O   0  0  0  0  0  0  0  0  0  0  0  0
  193.1790  172.5960  139.4020 C   0  0  0  0  0  2  0  0  0  0  0  0
  191.8900  172.2730  138.6090 C   0  0  1  0  0  3  0  0  0  0  0  0
  193.9150  173.8810  139.0100 C   0  0  1  0  0  3  0  0  0  0  0  0
  195.0710  174.0970  139.9390 C   0  0  0  0  0  0  0  0  0  0  0  0
  195.9910  175.1560  139.6710 N   0  0  0  0  0  2  0  0  0  0  0  0
  195.2420  173.3520  140.9440 O   0  0  0  0  0  0  0  0  0  0  0  0
  195.9090  176.4910  141.7390 C   0  0  0  0  0  0  0  0  0  0  0  0
  196.6490  175.8120  140.7260 N   0  0  0  0  0  2  0  0  0  0  0  0
  194.7430  176.8980  141.5020 O   0  0  0  0  0  0  0  0  0  0  0  0
  196.5280  176.7330  143.0800 C   0  0  0  0  0  2  0  0  0  0  0  0
  195.6970  173.5070  144.7490 C   0  0  0  0  0  0  0  0  0  0  0  0
  195.9890  175.8080  144.0710 N   0  0  0  0  0  0  0  0  0  0  0  0
  194.2560  173.7980  145.1280 C   0  0  0  0  0  2  0  0  0  0  0  0
  194.8710  176.2340  144.8920 C   0  0  0  0  0  2  0  0  0  0  0  0
  196.4690  174.4570  144.1450 C   0  0  0  0  0  0  0  0  0  0  0  0
  193.7560  175.2150  144.7460 C   0  0  2  0  0  3  0  0  0  0  0  0
  192.5630  175.6860  145.4640 N   0  0  0  0  0  0  0  0  0  0  0  0
  191.9450  176.7400  147.5330 C   0  0  0  0  0  2  0  0  0  0  0  0
  192.7880  176.8760  146.2860 C   0  0  0  0  0  2  0  0  0  0  0  0
  192.1590  174.6280  146.3810 C   0  0  0  0  0  2  0  0  0  0  0  0
  191.5630  175.2820  147.6110 C   0  0  0  0  0  2  0  0  0  0  0  0
  195.7240  170.9470  144.3860 C   0  0  0  0  0  1  0  0  0  0  0  0
  197.1220  172.0480  145.9570 O   0  0  0  0  0  0  0  0  0  0  0  0
  196.2020  172.1650  145.1050 C   0  0  0  0  0  0  0  0  0  0  0  0
  197.7230  174.1820  143.5780 O   0  0  0  0  0  0  0  0  0  0  0  0
  197.9210  173.4510  142.3600 C   0  0  0  0  0  1  0  0  0  0  0  0
  189.9230  173.1940  137.2700 C   0  0  0  0  0  0  0  0  0  0  0  0
  189.6640  172.1320  136.7160 O   0  0  0  0  0  0  0  0  0  0  0  0
  188.9190  174.3100  137.3140 C   0  0  0  0  0  2  0  0  0  0  0  0
  189.0010  175.2000  136.0780 C   0  0  0  0  0  2  0  0  0  0  0  0
  185.2460  176.0340  136.0210 C   0  0  0  0  0  1  0  0  0  0  0  0
  187.4460  177.0810  135.6250 C   0  0  0  0  0  2  0  0  0  0  0  0
  187.6330  175.5860  135.4810 C   0  0  2  0  0  3  0  0  0  0  0  0
  186.6750  176.1460  136.5290 C   0  0  2  0  0  3  0  0  0  0  0  0
  190.8520  171.4780  139.4340 C   0  0  1  0  0  3  0  0  0  0  0  0
  189.2500  172.3320  141.1140 C   0  0  0  0  0  3  0  0  0  0  0  0
  189.7130  172.3660  139.8600 C   0  0  0  0  0  3  0  0  0  0  0  0
  187.2630  175.2850  142.5680 C   0  0  0  0  0  2  0  0  0  0  0  0
  188.3600  174.4730  142.0340 C   0  0  0  0  0  0  0  0  0  0  0  0
  187.8620  176.6150  142.7560 N   0  0  0  0  0  0  0  0  0  0  0  0
  189.5970  175.1210  142.1390 N   0  0  0  0  0  2  0  0  0  0  0  0
  188.1950  173.2090  141.6310 C   0  0  0  0  0  3  0  0  0  0  0  0
  189.3270  176.4420  142.7010 C   0  0  0  0  0  2  0  0  0  0  0  0
  187.4270  177.2530  144.0160 C   0  0  2  0  0  3  0  0  0  0  0  0
  185.2600  178.7070  144.2820 C   0  0  2  0  0  3  0  0  0  0  0  0
  186.7150  178.6380  143.8310 C   0  0  2  0  0  3  0  0  0  0  0  0
  185.5390  178.6500  141.9910 O   0  0  0  0  0  0  0  0  0  0  0  0
  184.8100  177.4820  144.7940 O   0  0  0  0  0  1  0  0  0  0  0  0
  184.6080  179.0340  142.9580 C   0  0  1  0  0  3  0  0  0  0  0  0
  186.7010  179.0530  142.4890 O   0  0  0  0  0  0  0  0  0  0  0  0
  183.2550  178.3930  142.7120 C   0  0  0  0  0  3  0  0  0  0  0  0
  182.6470  178.5500  141.6550 O   0  0  0  0  0  0  0  0  0  0  0  0
  188.6270  177.3240  144.9810 C   0  0  0  0  0  3  0  0  0  0  0  0
  189.5500  178.2890  144.5570 O   0  0  0  0  0  1  0  0  0  0  0  0
  188.2110  177.6020  146.2830 O   0  0  0  0  0  1  0  0  0  0  0  0
  190.3560  170.2080  138.7180 C   0  0  0  0  0  2  0  0  0  0  0  0
  191.4990  169.4320  138.0830 C   0  0  2  0  0  3  0  0  0  0  0  0
  191.1620  169.0470  136.6590 C   0  0  0  0  0  2  0  0  0  0  0  0
  191.6980  170.0750  135.6870 C   0  0  0  0  0  1  0  0  0  0  0  0
  191.8020  168.1910  138.9100 C   0  0  0  0  0  2  0  0  0  0  0  0
  192.2520  168.6170  140.2300 N   0  0  0  0  0  2  0  0  0  0  0  0
  193.6890  168.3960  140.2610 C   0  0  0  0  0  1  0  0  0  0  0  0
  1 31  1  6  0  0  0
  1  6  1  0  0  0  0
  2  4  1  0  0  0  0
  3  2  1  0  0  0  0
  3  1  1  0  0  0  0
  4  7  1  0  0  0  0
  6  5  1  0  0  0  0
  6 39  1  1  0  0  0
  7  5  1  0  0  0  0
  7  8  1  1  0  0  0
  8 10  2  0  0  0  0
  9  8  1  0  0  0  0
  9 12  1  0  0  0  0
 11 14  1  0  0  0  0
 12 11  1  0  0  0  0
 13 11  2  0  0  0  0
 14 16  1  0  0  0  0
 15 28  1  0  0  0  0
 15 17  1  0  0  0  0
 16 19  1  0  0  0  0
 16 18  1  0  0  0  0
 19 15  2  0  0  0  0
 20 18  1  1  0  0  0
 20 17  1  0  0  0  0
 20 21  1  0  0  0  0
 21 23  1  0  0  0  0
 21 24  1  0  0  0  0
 22 25  1  0  0  0  0
 23 22  1  0  0  0  0
 24 25  1  0  0  0  0
 26 28  1  0  0  0  0
 28 27  2  0  0  0  0
 29 19  1  0  0  0  0
 30 29  1  0  0  0  0
 31 33  1  0  0  0  0
 32 31  2  0  0  0  0
 34 33  1  0  0  0  0
 36 38  1  0  0  0  0
 37 36  1  0  0  0  0
 37 34  1  1  0  0  0
 37 38  1  0  0  0  0
 38 35  1  6  0  0  0
 39 60  1  6  0  0  0
 39 41  1  0  0  0  0
 40 46  1  0  0  0  0
 41 40  2  0  0  0  0
 42 44  1  0  0  0  0
 43 45  1  0  0  0  0
 43 42  1  0  0  0  0
 44 48  1  0  0  0  0
 45 47  1  0  0  0  0
 46 43  2  0  0  0  0
 47 44  1  0  0  0  0
 48 57  1  1  0  0  0
 49 52  1  6  0  0  0
 50 48  1  6  0  0  0
 50 49  1  0  0  0  0
 51 54  1  0  0  0  0
 51 53  1  0  0  0  0
 53 55  1  6  0  0  0
 53 49  1  0  0  0  0
 54 50  1  0  0  0  0
 56 55  2  0  0  0  0
 57 59  1  0  0  0  0
 58 57  1  0  0  0  0
 61 62  1  6  0  0  0
 61 60  1  0  0  0  0
 61 64  1  0  0  0  0
 63 62  1  0  0  0  0
 64 65  1  0  0  0  0
 65 66  1  0  0  0  0
M  END
>  <MODEL>
6

>  <REMARK>
 VINA RESULT:      -4.7      2.225      7.298
  Name = 
  23 active torsions:
  status: ('A' for Active; 'I' for Inactive)
    1  A    between atoms: C_1  and  C_11
    2  A    between atoms: N_2  and  C_52
    3  A    between atoms: C_3  and  C_49
    4  A    between atoms: C_4  and  C_11
    5  A    between atoms: C_4  and  C_14
    6  A    between atoms: C_7  and  C_64
    7  A    between atoms: C_9  and  C_45
    8  A    between atoms: C_14  and  C_32
    9  A    between atoms: O_15  and  C_44
   10  A    between atoms: C_18  and  N_20
   11  A    between atoms: C_18  and  C_22
   12  A    between atoms: C_19  and  C_54
   13  A    between atoms: C_21  and  C_25
   14  A    between atoms: C_21  and  C_52
   15  A    between atoms: C_21  and  C_55
   16  A    between atoms: N_24  and  C_48
   17  A    between atoms: C_25  and  C_63
   18  A    between atoms: N_28  and  C_45
   19  A    between atoms: N_30  and  N_53
   20  A    between atoms: C_38  and  C_60
   21  A    between atoms: C_43  and  C_63
   22  A    between atoms: C_45  and  C_46
   23  A    between atoms: C_47  and  C_63
                            x       y       z     vdW  Elec       q    Type
                         _______ _______ _______ _____ _____    ______ ____

>  <TORSDO>
F 23

$$$$
=
 OpenBabel11042419123D

 66 71  0  0  1  0  0  0  0  0999 V2000
  187.6120  176.9090  140.7670 C   0  0  2  0  0  3  0  0  0  0  0  0
  186.9290  176.6090  138.3640 C   0  0  0  0  0  2  0  0  0  0  0  0
  186.4830  177.0590  139.7510 C   0  0  0  0  0  2  0  0  0  0  0  0
  187.0510  175.2110  138.2980 O   0  0  0  0  0  0  0  0  0  0  0  0
  188.2990  174.4500  140.2130 C   0  0  0  0  0  2  0  0  0  0  0  0
  187.7230  175.4430  141.2510 C   0  0  1  0  0  3  0  0  0  0  0  0
  188.3470  174.9360  138.7610 C   0  0  1  0  0  3  0  0  0  0  0  0
  189.0240  173.9040  137.9110 C   0  0  0  0  0  0  0  0  0  0  0  0
  189.2080  174.1600  136.5180 N   0  0  0  0  0  2  0  0  0  0  0  0
  189.4230  172.8140  138.4100 O   0  0  0  0  0  0  0  0  0  0  0  0
  191.6020  174.2310  135.9400 C   0  0  0  0  0  0  0  0  0  0  0  0
  190.3140  173.6240  135.8350 N   0  0  0  0  0  2  0  0  0  0  0  0
  191.7030  175.4450  136.2500 O   0  0  0  0  0  0  0  0  0  0  0  0
  192.8310  173.4230  135.6650 C   0  0  0  0  0  2  0  0  0  0  0  0
  195.3980  172.5270  138.2110 C   0  0  0  0  0  0  0  0  0  0  0  0
  193.4020  172.9120  136.9060 N   0  0  0  0  0  0  0  0  0  0  0  0
  194.8890  171.1480  138.5910 C   0  0  0  0  0  2  0  0  0  0  0  0
  192.6720  171.9020  137.6500 C   0  0  0  0  0  2  0  0  0  0  0  0
  194.7200  173.3050  137.3190 C   0  0  0  0  0  0  0  0  0  0  0  0
  193.5890  170.7130  137.8660 C   0  0  2  0  0  3  0  0  0  0  0  0
  192.8370  169.6220  138.5040 N   0  0  0  0  0  0  0  0  0  0  0  0
  191.9310  169.0030  140.6410 C   0  0  0  0  0  2  0  0  0  0  0  0
  191.9250  170.0600  139.5620 C   0  0  0  0  0  2  0  0  0  0  0  0
  193.8050  168.7390  139.1400 C   0  0  0  0  0  2  0  0  0  0  0  0
  193.1620  168.1670  140.3880 C   0  0  0  0  0  2  0  0  0  0  0  0
  196.7070  174.3010  139.5620 C   0  0  0  0  0  1  0  0  0  0  0  0
  197.6090  172.1800  138.9950 O   0  0  0  0  0  0  0  0  0  0  0  0
  196.6330  172.9700  138.8900 C   0  0  0  0  0  0  0  0  0  0  0  0
  195.2480  174.4820  136.7680 O   0  0  0  0  0  0  0  0  0  0  0  0
  195.6940  174.6150  135.4100 C   0  0  0  0  0  1  0  0  0  0  0  0
  187.3300  177.8840  141.8770 C   0  0  0  0  0  0  0  0  0  0  0  0
  188.2150  178.6340  142.2720 O   0  0  0  0  0  0  0  0  0  0  0  0
  186.0050  177.8120  142.5810 C   0  0  0  0  0  2  0  0  0  0  0  0
  185.9100  178.8200  143.7210 C   0  0  0  0  0  2  0  0  0  0  0  0
  185.6430  178.4790  147.5450 C   0  0  0  0  0  1  0  0  0  0  0  0
  184.2420  178.9100  145.5580 C   0  0  0  0  0  2  0  0  0  0  0  0
  185.4940  178.2110  145.0750 C   0  0  2  0  0  3  0  0  0  0  0  0
  185.5660  179.2200  146.2190 C   0  0  2  0  0  3  0  0  0  0  0  0
  188.3270  175.2620  142.6630 C   0  0  1  0  0  3  0  0  0  0  0  0
  190.2390  173.6950  142.5960 C   0  0  0  0  0  3  0  0  0  0  0  0
  188.9350  173.8940  142.8150 C   0  0  0  0  0  3  0  0  0  0  0  0
  192.5710  170.8780  143.7860 C   0  0  0  0  0  2  0  0  0  0  0  0
  191.9090  172.1800  143.6650 C   0  0  0  0  0  0  0  0  0  0  0  0
  193.4760  171.0430  144.9320 N   0  0  0  0  0  0  0  0  0  0  0  0
  192.5240  173.1610  144.4520 N   0  0  0  0  0  2  0  0  0  0  0  0
  190.9250  172.4140  142.7900 C   0  0  0  0  0  3  0  0  0  0  0  0
  193.5980  172.4930  145.1830 C   0  0  0  0  0  2  0  0  0  0  0  0
  194.7920  170.4090  144.7040 C   0  0  2  0  0  3  0  0  0  0  0  0
  196.9300  171.0680  143.3340 C   0  0  2  0  0  3  0  0  0  0  0  0
  195.4410  170.7400  143.3150 C   0  0  2  0  0  3  0  0  0  0  0  0
  195.5600  172.9020  143.0270 O   0  0  0  0  0  0  0  0  0  0  0  0
  197.4630  171.0140  144.6290 O   0  0  0  0  0  1  0  0  0  0  0  0
  196.8760  172.4860  142.8100 C   0  0  1  0  0  3  0  0  0  0  0  0
  194.8320  171.8440  142.6940 O   0  0  0  0  0  0  0  0  0  0  0  0
  197.8730  173.4530  143.4200 C   0  0  0  0  0  3  0  0  0  0  0  0
  197.9080  174.6380  143.0920 O   0  0  0  0  0  0  0  0  0  0  0  0
  194.6680  168.8940  144.9580 C   0  0  0  0  0  3  0  0  0  0  0  0
  195.5190  168.1760  144.1080 O   0  0  0  0  0  1  0  0  0  0  0  0
  194.9490  168.5820  146.2880 O   0  0  0  0  0  1  0  0  0  0  0  0
  189.3180  176.3790  143.0430 C   0  0  0  0  0  2  0  0  0  0  0  0
  189.6700  176.3450  144.5230 C   0  0  2  0  0  3  0  0  0  0  0  0
  188.4350  176.5410  145.3730 C   0  0  0  0  0  2  0  0  0  0  0  0
  188.5580  175.7830  146.6770 C   0  0  0  0  0  1  0  0  0  0  0  0
  190.7030  177.4190  144.8310 C   0  0  0  0  0  2  0  0  0  0  0  0
  191.8840  176.7740  145.3930 N   0  0  0  0  0  2  0  0  0  0  0  0
  192.8250  176.6210  144.2960 C   0  0  0  0  0  1  0  0  0  0  0  0
  1  6  1  0  0  0  0
  1 31  1  1  0  0  0
  2  3  1  0  0  0  0
  3  1  1  0  0  0  0
  4  2  1  0  0  0  0
  4  7  1  0  0  0  0
  5  6  1  0  0  0  0
  6 39  1  1  0  0  0
  7  8  1  6  0  0  0
  7  5  1  0  0  0  0
  8 10  2  0  0  0  0
  9  8  1  0  0  0  0
 11 13  2  0  0  0  0
 12 11  1  0  0  0  0
 12  9  1  0  0  0  0
 14 11  1  0  0  0  0
 14 16  1  0  0  0  0
 15 17  1  0  0  0  0
 15 28  1  0  0  0  0
 16 19  1  0  0  0  0
 16 18  1  0  0  0  0
 19 15  2  0  0  0  0
 20 18  1  1  0  0  0
 20 21  1  0  0  0  0
 20 17  1  0  0  0  0
 21 24  1  0  0  0  0
 21 23  1  0  0  0  0
 23 22  1  0  0  0  0
 24 25  1  0  0  0  0
 25 22  1  0  0  0  0
 28 27  2  0  0  0  0
 28 26  1  0  0  0  0
 29 19  1  0  0  0  0
 30 29  1  0  0  0  0
 31 32  2  0  0  0  0
 31 33  1  0  0  0  0
 33 34  1  0  0  0  0
 36 38  1  0  0  0  0
 37 34  1  6  0  0  0
 37 36  1  0  0  0  0
 37 38  1  0  0  0  0
 38 35  1  1  0  0  0
 39 41  1  6  0  0  0
 39 60  1  0  0  0  0
 40 46  1  0  0  0  0
 40 41  2  0  0  0  0
 42 44  1  0  0  0  0
 43 42  1  0  0  0  0
 43 45  1  0  0  0  0
 44 47  1  0  0  0  0
 45 47  1  0  0  0  0
 46 43  2  0  0  0  0
 48 44  1  0  0  0  0
 48 57  1  6  0  0  0
 49 52  1  1  0  0  0
 50 49  1  0  0  0  0
 50 48  1  1  0  0  0
 53 51  1  0  0  0  0
 53 49  1  0  0  0  0
 53 55  1  1  0  0  0
 54 51  1  0  0  0  0
 54 50  1  0  0  0  0
 56 55  2  0  0  0  0
 57 59  1  0  0  0  0
 58 57  1  0  0  0  0
 61 60  1  6  0  0  0
 61 64  1  0  0  0  0
 61 62  1  0  0  0  0
 62 63  1  0  0  0  0
 64 65  1  0  0  0  0
 66 65  1  0  0  0  0
M  END
>  <MODEL>
7

>  <REMARK>
 VINA RESULT:      -4.2      2.540      8.012
  Name = 
  23 active torsions:
  status: ('A' for Active; 'I' for Inactive)
    1  A    between atoms: C_1  and  C_11
    2  A    between atoms: N_2  and  C_52
    3  A    between atoms: C_3  and  C_49
    4  A    between atoms: C_4  and  C_11
    5  A    between atoms: C_4  and  C_14
    6  A    between atoms: C_7  and  C_64
    7  A    between atoms: C_9  and  C_45
    8  A    between atoms: C_14  and  C_32
    9  A    between atoms: O_15  and  C_44
   10  A    between atoms: C_18  and  N_20
   11  A    between atoms: C_18  and  C_22
   12  A    between atoms: C_19  and  C_54
   13  A    between atoms: C_21  and  C_25
   14  A    between atoms: C_21  and  C_52
   15  A    between atoms: C_21  and  C_55
   16  A    between atoms: N_24  and  C_48
   17  A    between atoms: C_25  and  C_63
   18  A    between atoms: N_28  and  C_45
   19  A    between atoms: N_30  and  N_53
   20  A    between atoms: C_38  and  C_60
   21  A    between atoms: C_43  and  C_63
   22  A    between atoms: C_45  and  C_46
   23  A    between atoms: C_47  and  C_63
                            x       y       z     vdW  Elec       q    Type
                         _______ _______ _______ _____ _____    ______ ____

>  <TORSDO>
F 23

$$$$
=
 OpenBabel11042419123D

 66 71  0  0  1  0  0  0  0  0999 V2000
  187.6960  176.9490  144.1450 C   0  0  2  0  0  3  0  0  0  0  0  0
  189.5170  177.9130  145.5880 C   0  0  0  0  0  2  0  0  0  0  0  0
  188.0930  178.0920  145.0740 C   0  0  0  0  0  2  0  0  0  0  0  0
  190.4580  178.1630  144.5760 O   0  0  0  0  0  0  0  0  0  0  0  0
  189.7940  176.9770  142.5870 C   0  0  0  0  0  2  0  0  0  0  0  0
  188.2650  177.1740  142.7220 C   0  0  1  0  0  3  0  0  0  0  0  0
  190.5940  176.9440  143.8940 C   0  0  1  0  0  3  0  0  0  0  0  0
  192.0300  176.6420  143.5920 C   0  0  0  0  0  0  0  0  0  0  0  0
  192.9120  176.3090  144.6650 N   0  0  0  0  0  2  0  0  0  0  0  0
  192.4660  176.6860  142.4080 O   0  0  0  0  0  0  0  0  0  0  0  0
  195.3390  175.9080  144.5350 C   0  0  0  0  0  0  0  0  0  0  0  0
  193.9940  175.4370  144.4530 N   0  0  0  0  0  2  0  0  0  0  0  0
  195.5920  177.1260  144.3550 O   0  0  0  0  0  0  0  0  0  0  0  0
  196.4490  174.9460  144.8200 C   0  0  0  0  0  2  0  0  0  0  0  0
  196.0940  173.3150  141.4890 C   0  0  0  0  0  0  0  0  0  0  0  0
  196.5110  173.9120  143.7930 N   0  0  0  0  0  0  0  0  0  0  0  0
  195.5150  171.9850  141.9340 C   0  0  0  0  0  2  0  0  0  0  0  0
  196.4900  172.5190  144.1990 C   0  0  0  0  0  2  0  0  0  0  0  0
  196.4620  174.2610  142.4010 C   0  0  0  0  0  0  0  0  0  0  0  0
  195.3560  171.8250  143.4680 C   0  0  2  0  0  3  0  0  0  0  0  0
  195.2280  170.4440  143.9560 N   0  0  0  0  0  0  0  0  0  0  0  0
  193.8400  169.1120  145.3940 C   0  0  0  0  0  2  0  0  0  0  0  0
  193.8480  170.0130  144.1820 C   0  0  0  0  0  2  0  0  0  0  0  0
  195.8940  170.3740  145.2500 C   0  0  0  0  0  2  0  0  0  0  0  0
  195.1490  169.3670  146.1020 C   0  0  0  0  0  2  0  0  0  0  0  0
  195.0900  173.7810  139.1520 C   0  0  0  0  0  1  0  0  0  0  0  0
  197.4170  173.5040  139.5300 O   0  0  0  0  0  0  0  0  0  0  0  0
  196.2620  173.4940  140.0320 C   0  0  0  0  0  0  0  0  0  0  0  0
  196.7950  175.5790  142.0520 O   0  0  0  0  0  0  0  0  0  0  0  0
  196.2530  176.2820  140.9240 C   0  0  0  0  0  1  0  0  0  0  0  0
  186.1950  176.8620  144.1810 C   0  0  0  0  0  0  0  0  0  0  0  0
  185.6470  175.7660  144.2010 O   0  0  0  0  0  0  0  0  0  0  0  0
  185.3950  178.1250  144.0380 C   0  0  0  0  0  2  0  0  0  0  0  0
  184.5280  178.3920  145.2640 C   0  0  0  0  0  2  0  0  0  0  0  0
  186.8250  178.9420  148.3010 C   0  0  0  0  0  1  0  0  0  0  0  0
  184.4340  178.7490  147.7190 C   0  0  0  0  0  2  0  0  0  0  0  0
  185.2160  178.0820  146.6090 C   0  0  2  0  0  3  0  0  0  0  0  0
  185.7590  179.3360  147.2900 C   0  0  2  0  0  3  0  0  0  0  0  0
  187.4630  176.5050  141.5820 C   0  0  1  0  0  3  0  0  0  0  0  0
  185.2400  177.1650  140.7230 C   0  0  0  0  0  3  0  0  0  0  0  0
  186.5190  177.4880  140.9430 C   0  0  0  0  0  3  0  0  0  0  0  0
  182.0510  179.2060  140.0510 C   0  0  0  0  0  2  0  0  0  0  0  0
  183.0150  178.2930  140.6710 C   0  0  0  0  0  0  0  0  0  0  0  0
  180.9180  179.2200  140.9880 N   0  0  0  0  0  0  0  0  0  0  0  0
  182.4540  177.5730  141.7330 N   0  0  0  0  0  2  0  0  0  0  0  0
  184.2380  178.0820  140.1720 C   0  0  0  0  0  3  0  0  0  0  0  0
  181.0840  178.0600  141.8860 C   0  0  0  0  0  2  0  0  0  0  0  0
  179.6140  179.1990  140.2920 C   0  0  2  0  0  3  0  0  0  0  0  0
  177.8470  180.8420  139.2630 C   0  0  2  0  0  3  0  0  0  0  0  0
  178.7860  180.5240  140.4220 C   0  0  2  0  0  3  0  0  0  0  0  0
  179.7570  182.1380  139.3170 O   0  0  0  0  0  0  0  0  0  0  0  0
  177.8980  179.8620  138.2630 O   0  0  0  0  0  1  0  0  0  0  0  0
  178.4590  182.1460  138.8020 C   0  0  1  0  0  3  0  0  0  0  0  0
  179.6110  181.6550  140.5440 O   0  0  0  0  0  0  0  0  0  0  0  0
  178.4570  182.3820  137.3030 C   0  0  0  0  0  3  0  0  0  0  0  0
  178.3820  183.5130  136.8270 O   0  0  0  0  0  0  0  0  0  0  0  0
  178.8250  177.9560  140.7480 C   0  0  0  0  0  3  0  0  0  0  0  0
  177.6970  178.3270  141.4910 O   0  0  0  0  0  1  0  0  0  0  0  0
  178.4400  177.1760  139.6570 O   0  0  0  0  0  1  0  0  0  0  0  0
  188.3600  175.8080  140.5420 C   0  0  0  0  0  2  0  0  0  0  0  0
  188.5140  174.3220  140.8310 C   0  0  2  0  0  3  0  0  0  0  0  0
  189.9240  174.0060  141.2790 C   0  0  0  0  0  2  0  0  0  0  0  0
  189.9080  173.0780  142.4740 C   0  0  0  0  0  1  0  0  0  0  0  0
  188.1580  173.5170  139.5910 C   0  0  0  0  0  2  0  0  0  0  0  0
  189.3910  173.0040  139.0050 N   0  0  0  0  0  2  0  0  0  0  0  0
  189.4950  173.6040  137.6850 C   0  0  0  0  0  1  0  0  0  0  0  0
  1 31  1  6  0  0  0
  1  3  1  0  0  0  0
  3  2  1  0  0  0  0
  4  2  1  0  0  0  0
  5  6  1  0  0  0  0
  5  7  1  0  0  0  0
  6 39  1  6  0  0  0
  6  1  1  0  0  0  0
  7  8  1  6  0  0  0
  7  4  1  0  0  0  0
  8  9  1  0  0  0  0
 10  8  2  0  0  0  0
 11 14  1  0  0  0  0
 12 11  1  0  0  0  0
 12  9  1  0  0  0  0
 13 11  2  0  0  0  0
 15 17  1  0  0  0  0
 15 19  2  0  0  0  0
 16 18  1  0  0  0  0
 16 14  1  0  0  0  0
 19 16  1  0  0  0  0
 20 17  1  6  0  0  0
 20 21  1  0  0  0  0
 20 18  1  0  0  0  0
 21 23  1  0  0  0  0
 21 24  1  0  0  0  0
 22 25  1  0  0  0  0
 23 22  1  0  0  0  0
 24 25  1  0  0  0  0
 26 28  1  0  0  0  0
 27 28  2  0  0  0  0
 28 15  1  0  0  0  0
 29 19  1  0  0  0  0
 30 29  1  0  0  0  0
 31 32  2  0  0  0  0
 33 31  1  0  0  0  0
 33 34  1  0  0  0  0
 37 34  1  6  0  0  0
 37 38  1  0  0  0  0
 37 36  1  0  0  0  0
 38 36  1  0  0  0  0
 38 35  1  1  0  0  0
 39 60  1  6  0  0  0
 40 41  2  0  0  0  0
 41 39  1  0  0  0  0
 42 43  1  0  0  0  0
 42 44  1  0  0  0  0
 43 45  1  0  0  0  0
 44 47  1  0  0  0  0
 45 47  1  0  0  0  0
 46 43  2  0  0  0  0
 46 40  1  0  0  0  0
 48 57  1  1  0  0  0
 48 44  1  0  0  0  0
 49 52  1  6  0  0  0
 49 50  1  0  0  0  0
 50 48  1  6  0  0  0
 50 54  1  0  0  0  0
 51 54  1  0  0  0  0
 53 55  1  6  0  0  0
 53 49  1  0  0  0  0
 53 51  1  0  0  0  0
 56 55  2  0  0  0  0
 57 58  1  0  0  0  0
 59 57  1  0  0  0  0
 60 61  1  0  0  0  0
 61 64  1  6  0  0  0
 61 62  1  0  0  0  0
 62 63  1  0  0  0  0
 65 64  1  0  0  0  0
 66 65  1  0  0  0  0
M  END
>  <MODEL>
8

>  <REMARK>
 VINA RESULT:      -4.0      4.316      8.212
  Name = 
  23 active torsions:
  status: ('A' for Active; 'I' for Inactive)
    1  A    between atoms: C_1  and  C_11
    2  A    between atoms: N_2  and  C_52
    3  A    between atoms: C_3  and  C_49
    4  A    between atoms: C_4  and  C_11
    5  A    between atoms: C_4  and  C_14
    6  A    between atoms: C_7  and  C_64
    7  A    between atoms: C_9  and  C_45
    8  A    between atoms: C_14  and  C_32
    9  A    between atoms: O_15  and  C_44
   10  A    between atoms: C_18  and  N_20
   11  A    between atoms: C_18  and  C_22
   12  A    between atoms: C_19  and  C_54
   13  A    between atoms: C_21  and  C_25
   14  A    between atoms: C_21  and  C_52
   15  A    between atoms: C_21  and  C_55
   16  A    between atoms: N_24  and  C_48
   17  A    between atoms: C_25  and  C_63
   18  A    between atoms: N_28  and  C_45
   19  A    between atoms: N_30  and  N_53
   20  A    between atoms: C_38  and  C_60
   21  A    between atoms: C_43  and  C_63
   22  A    between atoms: C_45  and  C_46
   23  A    between atoms: C_47  and  C_63
                            x       y       z     vdW  Elec       q    Type
                         _______ _______ _______ _____ _____    ______ ____

>  <TORSDO>
F 23

$$$$
=
 OpenBabel11042419123D

 66 71  0  0  1  0  0  0  0  0999 V2000
  196.1900  174.4340  143.3380 C   0  0  2  0  0  3  0  0  0  0  0  0
  196.0320  176.8360  144.0700 C   0  0  0  0  0  2  0  0  0  0  0  0
  196.9390  175.6170  143.9470 C   0  0  0  0  0  2  0  0  0  0  0  0
  195.0880  176.6670  145.0970 O   0  0  0  0  0  0  0  0  0  0  0  0
  194.0730  174.4950  144.8680 C   0  0  0  0  0  2  0  0  0  0  0  0
  195.3310  173.7190  144.4090 C   0  0  1  0  0  3  0  0  0  0  0  0
  194.0190  175.9820  144.5010 C   0  0  1  0  0  3  0  0  0  0  0  0
  192.6990  176.5520  144.9220 C   0  0  0  0  0  0  0  0  0  0  0  0
  191.8690  177.1820  143.9460 N   0  0  0  0  0  2  0  0  0  0  0  0
  192.3210  176.4900  146.1260 O   0  0  0  0  0  0  0  0  0  0  0  0
  189.7110  176.0680  143.5300 C   0  0  0  0  0  0  0  0  0  0  0  0
  190.4690  177.1480  144.0740 N   0  0  0  0  0  2  0  0  0  0  0  0
  190.1770  175.3850  142.5830 O   0  0  0  0  0  0  0  0  0  0  0  0
  188.3530  175.7590  144.0790 C   0  0  0  0  0  2  0  0  0  0  0  0
  186.2630  178.2320  145.9220 C   0  0  0  0  0  0  0  0  0  0  0  0
  187.6170  176.9880  144.3540 N   0  0  0  0  0  0  0  0  0  0  0  0
  185.3330  178.6460  144.7970 C   0  0  0  0  0  2  0  0  0  0  0  0
  187.1130  177.7690  143.2390 C   0  0  0  0  0  2  0  0  0  0  0  0
  187.2830  177.3530  145.7030 C   0  0  0  0  0  0  0  0  0  0  0  0
  185.6230  177.9690  143.4320 C   0  0  2  0  0  3  0  0  0  0  0  0
  185.0610  178.6460  142.2530 N   0  0  0  0  0  0  0  0  0  0  0  0
  183.4380  178.2930  140.5170 C   0  0  0  0  0  2  0  0  0  0  0  0
  183.6470  178.3550  142.0120 C   0  0  0  0  0  2  0  0  0  0  0  0
  185.7820  178.1580  141.0840 C   0  0  0  0  0  2  0  0  0  0  0  0
  184.8150  178.1350  139.9180 C   0  0  0  0  0  2  0  0  0  0  0  0
  185.6920  178.0400  148.4370 C   0  0  0  0  0  1  0  0  0  0  0  0
  186.1690  180.1070  147.3710 O   0  0  0  0  0  0  0  0  0  0  0  0
  186.0130  178.8640  147.2340 C   0  0  0  0  0  0  0  0  0  0  0  0
  188.0320  176.7690  146.7360 O   0  0  0  0  0  0  0  0  0  0  0  0
  189.2730  177.2900  147.2340 C   0  0  0  0  0  1  0  0  0  0  0  0
  197.2250  173.5420  142.7110 C   0  0  0  0  0  0  0  0  0  0  0  0
  197.8810  172.7800  143.4110 O   0  0  0  0  0  0  0  0  0  0  0  0
  197.5390  173.7150  141.2520 C   0  0  0  0  0  2  0  0  0  0  0  0
  196.6350  172.8600  140.3690 C   0  0  0  0  0  2  0  0  0  0  0  0
  193.8170  174.8790  138.6990 C   0  0  0  0  0  1  0  0  0  0  0  0
  196.1500  175.1230  139.4700 C   0  0  0  0  0  2  0  0  0  0  0  0
  195.9030  173.6440  139.2610 C   0  0  2  0  0  3  0  0  0  0  0  0
  194.7970  174.5410  139.8120 C   0  0  2  0  0  3  0  0  0  0  0  0
  195.0540  172.2230  144.1350 C   0  0  1  0  0  3  0  0  0  0  0  0
  193.5080  171.6140  142.3030 C   0  0  0  0  0  3  0  0  0  0  0  0
  194.7330  171.9940  142.6830 C   0  0  0  0  0  3  0  0  0  0  0  0
  191.7000  171.8340  138.9170 C   0  0  0  0  0  2  0  0  0  0  0  0
  192.0810  172.0800  140.3100 C   0  0  0  0  0  0  0  0  0  0  0  0
  190.6510  172.8290  138.6520 N   0  0  0  0  0  0  0  0  0  0  0  0
  191.1840  172.9360  140.9610 N   0  0  0  0  0  2  0  0  0  0  0  0
  193.0910  171.4390  140.9090 C   0  0  0  0  0  3  0  0  0  0  0  0
  190.1970  173.3380  139.9620 C   0  0  0  0  0  2  0  0  0  0  0  0
  189.5360  172.2720  137.8590 C   0  0  2  0  0  3  0  0  0  0  0  0
  190.2000  171.0490  135.6350 C   0  0  2  0  0  3  0  0  0  0  0  0
  189.7440  172.3400  136.3060 C   0  0  2  0  0  3  0  0  0  0  0  0
  191.8540  172.6480  135.8350 O   0  0  0  0  0  0  0  0  0  0  0  0
  190.3560  170.0050  136.5570 O   0  0  0  0  0  1  0  0  0  0  0  0
  191.5300  171.5150  135.0860 C   0  0  1  0  0  3  0  0  0  0  0  0
  190.7030  173.3000  135.9410 O   0  0  0  0  0  0  0  0  0  0  0  0
  192.6500  170.4910  135.1140 C   0  0  0  0  0  3  0  0  0  0  0  0
  192.9350  169.8720  136.1370 O   0  0  0  0  0  0  0  0  0  0  0  0
  188.2190  172.9330  138.3130 C   0  0  0  0  0  3  0  0  0  0  0  0
  187.8410  172.4700  139.5800 O   0  0  0  0  0  1  0  0  0  0  0  0
  188.3320  174.3230  138.3270 O   0  0  0  0  0  1  0  0  0  0  0  0
  196.1850  171.3000  144.6270 C   0  0  0  0  0  2  0  0  0  0  0  0
  195.8420  169.8300  144.4350 C   0  0  2  0  0  3  0  0  0  0  0  0
  195.5620  169.1660  145.7640 C   0  0  0  0  0  2  0  0  0  0  0  0
  196.8150  169.1170  146.6120 C   0  0  0  0  0  1  0  0  0  0  0  0
  196.9840  169.1240  143.7190 C   0  0  0  0  0  2  0  0  0  0  0  0
  196.5780  168.8740  142.3410 N   0  0  0  0  0  2  0  0  0  0  0  0
  195.3020  168.1810  142.4110 C   0  0  0  0  0  1  0  0  0  0  0  0
  1 31  1  1  0  0  0
  1  3  1  0  0  0  0
  1  6  1  0  0  0  0
  2  4  1  0  0  0  0
  3  2  1  0  0  0  0
  6 39  1  6  0  0  0
  6  5  1  0  0  0  0
  7  5  1  0  0  0  0
  7  8  1  1  0  0  0
  7  4  1  0  0  0  0
  8 10  2  0  0  0  0
  9 12  1  0  0  0  0
  9  8  1  0  0  0  0
 11 12  1  0  0  0  0
 11 14  1  0  0  0  0
 13 11  2  0  0  0  0
 14 16  1  0  0  0  0
 15 28  1  0  0  0  0
 16 19  1  0  0  0  0
 17 15  1  0  0  0  0
 18 20  1  0  0  0  0
 18 16  1  0  0  0  0
 19 15  2  0  0  0  0
 19 29  1  0  0  0  0
 20 21  1  6  0  0  0
 20 17  1  0  0  0  0
 22 23  1  0  0  0  0
 23 21  1  0  0  0  0
 24 21  1  0  0  0  0
 25 22  1  0  0  0  0
 25 24  1  0  0  0  0
 28 27  2  0  0  0  0
 28 26  1  0  0  0  0
 29 30  1  0  0  0  0
 31 32  2  0  0  0  0
 33 31  1  0  0  0  0
 34 33  1  0  0  0  0
 36 38  1  0  0  0  0
 37 36  1  0  0  0  0
 37 38  1  0  0  0  0
 37 34  1  1  0  0  0
 38 35  1  6  0  0  0
 39 41  1  6  0  0  0
 39 60  1  0  0  0  0
 40 41  2  0  0  0  0
 42 43  1  0  0  0  0
 43 46  2  0  0  0  0
 43 45  1  0  0  0  0
 44 42  1  0  0  0  0
 44 47  1  0  0  0  0
 46 40  1  0  0  0  0
 47 45  1  0  0  0  0
 48 57  1  6  0  0  0
 48 44  1  0  0  0  0
 49 50  1  0  0  0  0
 49 52  1  1  0  0  0
 50 48  1  1  0  0  0
 51 54  1  0  0  0  0
 53 55  1  1  0  0  0
 53 49  1  0  0  0  0
 53 51  1  0  0  0  0
 54 50  1  0  0  0  0
 55 56  2  0  0  0  0
 57 59  1  0  0  0  0
 57 58  1  0  0  0  0
 61 64  1  1  0  0  0
 61 60  1  0  0  0  0
 61 62  1  0  0  0  0
 62 63  1  0  0  0  0
 65 66  1  0  0  0  0
 65 64  1  0  0  0  0
M  END
>  <MODEL>
9

>  <REMARK>
 VINA RESULT:      -4.0      2.462      8.895
  Name = 
  23 active torsions:
  status: ('A' for Active; 'I' for Inactive)
    1  A    between atoms: C_1  and  C_11
    2  A    between atoms: N_2  and  C_52
    3  A    between atoms: C_3  and  C_49
    4  A    between atoms: C_4  and  C_11
    5  A    between atoms: C_4  and  C_14
    6  A    between atoms: C_7  and  C_64
    7  A    between atoms: C_9  and  C_45
    8  A    between atoms: C_14  and  C_32
    9  A    between atoms: O_15  and  C_44
   10  A    between atoms: C_18  and  N_20
   11  A    between atoms: C_18  and  C_22
   12  A    between atoms: C_19  and  C_54
   13  A    between atoms: C_21  and  C_25
   14  A    between atoms: C_21  and  C_52
   15  A    between atoms: C_21  and  C_55
   16  A    between atoms: N_24  and  C_48
   17  A    between atoms: C_25  and  C_63
   18  A    between atoms: N_28  and  C_45
   19  A    between atoms: N_30  and  N_53
   20  A    between atoms: C_38  and  C_60
   21  A    between atoms: C_43  and  C_63
   22  A    between atoms: C_45  and  C_46
   23  A    between atoms: C_47  and  C_63
                            x       y       z     vdW  Elec       q    Type
                         _______ _______ _______ _____ _____    ______ ____

>  <TORSDO>
F 23

$$$$
