=
 OpenBabel11042419153D

 43 49  0  0  1  0  0  0  0  0999 V2000
  190.4300  176.4660  143.9390 O   0  0  0  0  0  0  0  0  0  0  0  0
  190.6090  176.1680  145.3010 C   0  0  0  0  0  2  0  0  0  0  0  0
  190.2440  170.4170  138.7630 C   0  0  0  0  0  1  0  0  0  0  0  0
  193.7070  175.0830  146.0590 N   0  0  0  0  0  0  0  0  0  0  0  0
  191.5940  172.0670  141.3970 O   0  0  0  0  0  0  0  0  0  0  0  0
  193.4100  174.3450  141.3090 O   0  0  0  0  0  0  0  0  0  0  0  0
  192.0040  171.6450  137.5240 C   0  0  0  0  0  2  0  0  0  0  0  0
  192.9830  173.1870  137.3870 S   0  0  0  0  0  0  0  0  0  0  0  0
  190.5090  174.1660  141.1280 C   0  0  0  0  0  2  0  0  0  0  0  0
  191.4040  173.1320  140.4730 C   0  0  1  0  0  0  0  0  0  0  0  0
  194.6650  174.5800  145.3000 N   0  0  0  0  0  0  0  0  0  0  0  0
  190.9450  172.4200  142.5960 C   0  0  0  0  0  2  0  0  0  0  0  0
  191.9020  176.7900  145.7990 C   0  0  0  0  0  2  0  0  0  0  0  0
  193.7040  173.1900  139.0670 C   0  0  1  0  0  3  0  0  0  0  0  0
  192.7560  173.8340  140.1470 C   0  0  2  0  0  3  0  0  0  0  0  0
  195.3280  173.4800  142.5850 N   0  0  1  0  0  0  0  0  0  0  0  0
  194.5930  175.2200  144.1170 C   0  0  0  0  0  0  0  0  0  0  0  0
  193.0800  176.0140  145.3170 C   0  0  0  0  0  0  0  0  0  0  0  0
  189.4730  174.2630  143.4000 C   0  0  0  0  0  2  0  0  0  0  0  0
  195.4560  174.8960  142.9350 C   0  0  1  0  0  3  0  0  0  0  0  0
  189.2870  175.7820  143.4650 C   0  0  1  0  0  3  0  0  0  0  0  0
  194.1450  173.2660  141.8100 C   0  0  2  0  0  3  0  0  0  0  0  0
  195.4690  172.0170  140.6180 C   0  0  0  0  0  2  0  0  0  0  0  0
  191.3160  171.4810  138.8690 C   0  0  1  0  0  3  0  0  0  0  0  0
  193.5990  176.1290  144.0790 N   0  0  0  0  0  2  0  0  0  0  0  0
  194.4660  171.8760  139.4310 C   0  0  0  0  0  2  0  0  0  0  0  0
  190.7450  172.6920  139.2980 O   0  0  0  0  0  0  0  0  0  0  0  0
  190.7010  173.9000  142.5830 C   0  0  2  0  0  3  0  0  0  0  0  0
  195.4010  173.3670  141.1490 N   0  0  2  0  0  0  0  0  0  0  0  0
  196.8910  175.2480  143.1940 C   0  0  0  0  0  3  0  0  0  0  0  0
  197.2970  176.4640  143.1380 N   0  0  0  0  0  2  0  0  0  0  0  0
  188.1360  176.1190  144.1910 O   0  0  0  0  0  0  0  0  0  0  0  0
  187.1510  176.3420  143.2270 C   0  0  1  0  0  3  0  0  0  0  0  0
  184.8160  176.6710  146.5130 O   0  0  0  0  0  0  0  0  0  0  0  0
  186.3800  178.6660  142.4070 C   0  0  1  0  0  3  0  0  0  0  0  0
  185.7760  176.3980  143.8980 C   0  0  0  0  0  2  0  0  0  0  0  0
  185.8560  178.9340  143.8200 C   0  0  0  0  0  2  0  0  0  0  0  0
  185.5800  177.6920  144.5510 N   0  0  0  0  0  0  0  0  0  0  0  0
  185.0700  177.7380  145.8930 C   0  0  0  0  0  0  0  0  0  0  0  0
  187.4940  177.6140  142.4310 C   0  0  0  0  0  2  0  0  0  0  0  0
  184.8350  179.0410  146.5810 C   0  0  0  0  0  1  0  0  0  0  0  0
  185.9530  177.9160  140.3680 C   0  0  0  0  0  1  0  0  0  0  0  0
  185.3370  178.2470  141.5760 O   0  0  0  0  0  0  0  0  0  0  0  0
  1  2  1  0  0  0  0
  2 13  1  0  0  0  0
  3 24  1  0  0  0  0
  5 12  1  0  0  0  0
  6 22  1  0  0  0  0
  7 24  1  0  0  0  0
  8  7  1  0  0  0  0
  8 14  1  0  0  0  0
  9 28  1  0  0  0  0
 10  9  1  1  0  0  0
 10  5  1  0  0  0  0
 11  4  1  0  0  0  0
 14 26  1  1  0  0  0
 14 15  1  0  0  0  0
 15 10  1  0  0  0  0
 15  6  1  1  0  0  0
 16 20  1  0  0  0  0
 17 11  2  0  0  0  0
 18 13  1  0  0  0  0
 18  4  2  0  0  0  0
 19 21  1  0  0  0  0
 20 30  1  0  0  0  0
 20 17  1  0  0  0  0
 21  1  1  0  0  0  0
 21 32  1  0  0  0  0
 22 16  1  0  0  0  0
 23 29  1  0  0  0  0
 24 27  1  0  0  0  0
 25 17  1  0  0  0  0
 25 18  1  0  0  0  0
 26 23  1  0  0  0  0
 27 10  1  0  0  0  0
 28 12  1  0  0  0  0
 28 19  1  0  0  0  0
 29 22  1  0  0  0  0
 29 16  1  0  0  0  0
 31 30  2  0  0  0  0
 33 36  1  0  0  0  0
 33 32  1  0  0  0  0
 35 40  1  0  0  0  0
 35 37  1  0  0  0  0
 36 38  1  0  0  0  0
 37 38  1  0  0  0  0
 38 39  1  0  0  0  0
 39 34  2  0  0  0  0
 39 41  1  0  0  0  0
 40 33  1  0  0  0  0
 42 43  1  0  0  0  0
 43 35  1  0  0  0  0
M  END
>  <MODEL>
1

>  <REMARK>
 VINA RESULT:      -8.1      0.000      0.000
  Name = 
  4 active torsions:
  status: ('A' for Active; 'I' for Inactive)
    1  A    between atoms: C_1  and  O_6
    2  A    between atoms: O_6  and  C_31
    3  A    between atoms: C_8  and  C_30
    4  A    between atoms: C_14  and  O_40
                            x       y       z     vdW  Elec       q    Type
                         _______ _______ _______ _____ _____    ______ ____

>  <TORSDO>
F 4

$$$$
=
 OpenBabel11042419153D

 43 49  0  0  1  0  0  0  0  0999 V2000
  189.6430  173.9570  142.9300 O   0  0  0  0  0  0  0  0  0  0  0  0
  189.5700  174.6260  141.6960 C   0  0  0  0  0  2  0  0  0  0  0  0
  196.8380  172.6960  146.1010 C   0  0  0  0  0  1  0  0  0  0  0  0
  190.6850  172.8020  139.0920 N   0  0  0  0  0  0  0  0  0  0  0  0
  194.6590  172.6620  143.5060 O   0  0  0  0  0  0  0  0  0  0  0  0
  192.6700  170.6200  142.9000 O   0  0  0  0  0  0  0  0  0  0  0  0
  196.1650  170.3160  146.2590 C   0  0  0  0  0  2  0  0  0  0  0  0
  194.8180  169.0930  146.0560 S   0  0  0  0  0  0  0  0  0  0  0  0
  192.6250  172.8970  144.7140 C   0  0  0  0  0  2  0  0  0  0  0  0
  193.8760  172.0620  144.5310 C   0  0  1  0  0  0  0  0  0  0  0  0
  191.4630  171.7350  139.0450 N   0  0  0  0  0  0  0  0  0  0  0  0
  193.9320  173.7560  142.9980 C   0  0  0  0  0  2  0  0  0  0  0  0
  188.9570  173.7120  140.6490 C   0  0  0  0  0  2  0  0  0  0  0  0
  194.4190  169.4290  144.3030 C   0  0  1  0  0  3  0  0  0  0  0  0
  193.4190  170.6310  144.1160 C   0  0  2  0  0  3  0  0  0  0  0  0
  193.3230  169.9760  140.6160 N   0  0  1  0  0  0  0  0  0  0  0  0
  191.1690  170.9970  140.1330 C   0  0  0  0  0  0  0  0  0  0  0  0
  189.9410  172.6830  140.2060 C   0  0  0  0  0  0  0  0  0  0  0  0
  191.8120  174.9480  143.5410 C   0  0  0  0  0  2  0  0  0  0  0  0
  191.8840  169.7330  140.5060 C   0  0  1  0  0  3  0  0  0  0  0  0
  190.3230  174.7770  143.8590 C   0  0  1  0  0  3  0  0  0  0  0  0
  193.6320  170.5540  141.8870 C   0  0  2  0  0  3  0  0  0  0  0  0
  195.2770  169.1320  141.8390 C   0  0  0  0  0  2  0  0  0  0  0  0
  195.8900  171.6430  145.5690 C   0  0  1  0  0  3  0  0  0  0  0  0
  190.2190  171.5630  140.9020 N   0  0  0  0  0  2  0  0  0  0  0  0
  195.6460  169.3230  143.3430 C   0  0  0  0  0  2  0  0  0  0  0  0
  194.5600  172.0530  145.7730 O   0  0  0  0  0  0  0  0  0  0  0  0
  192.4970  173.5990  143.4050 C   0  0  2  0  0  3  0  0  0  0  0  0
  193.8330  169.1600  141.6900 N   0  0  2  0  0  0  0  0  0  0  0  0
  191.6070  168.6380  139.5190 C   0  0  0  0  0  3  0  0  0  0  0  0
  190.4100  168.3640  139.1490 N   0  0  0  0  0  2  0  0  0  0  0  0
  189.6950  176.0200  144.0180 O   0  0  0  0  0  0  0  0  0  0  0  0
  188.6170  175.7770  144.8720 C   0  0  1  0  0  3  0  0  0  0  0  0
  191.6010  175.1440  147.5270 O   0  0  0  0  0  0  0  0  0  0  0  0
  187.5480  177.5250  146.4410 C   0  0  1  0  0  3  0  0  0  0  0  0
  189.1320  175.2520  146.2150 C   0  0  0  0  0  2  0  0  0  0  0  0
  188.8730  177.5740  147.2070 C   0  0  0  0  0  2  0  0  0  0  0  0
  189.6610  176.3500  147.0230 N   0  0  0  0  0  0  0  0  0  0  0  0
  190.9340  176.2030  147.6720 C   0  0  0  0  0  0  0  0  0  0  0  0
  187.7700  177.0550  145.0000 C   0  0  0  0  0  2  0  0  0  0  0  0
  191.4930  177.2930  148.5230 C   0  0  0  0  0  1  0  0  0  0  0  0
  185.4270  176.8910  146.4420 C   0  0  0  0  0  1  0  0  0  0  0  0
  186.6440  176.6820  147.0930 O   0  0  0  0  0  0  0  0  0  0  0  0
  1 21  1  0  0  0  0
  2  1  1  0  0  0  0
  4 18  2  0  0  0  0
  5 10  1  0  0  0  0
  8  7  1  0  0  0  0
 10  9  1  1  0  0  0
 10 27  1  0  0  0  0
 11  4  1  0  0  0  0
 11 17  2  0  0  0  0
 12 28  1  0  0  0  0
 12  5  1  0  0  0  0
 13  2  1  0  0  0  0
 14 26  1  6  0  0  0
 14  8  1  0  0  0  0
 15  6  1  6  0  0  0
 15 14  1  0  0  0  0
 15 10  1  0  0  0  0
 16 29  1  0  0  0  0
 16 22  1  0  0  0  0
 17 20  1  0  0  0  0
 17 25  1  0  0  0  0
 18 13  1  0  0  0  0
 18 25  1  0  0  0  0
 19 21  1  0  0  0  0
 20 16  1  0  0  0  0
 21 32  1  0  0  0  0
 22  6  1  0  0  0  0
 23 26  1  0  0  0  0
 24 27  1  0  0  0  0
 24  3  1  0  0  0  0
 24  7  1  0  0  0  0
 28 19  1  0  0  0  0
 28  9  1  0  0  0  0
 29 23  1  0  0  0  0
 29 22  1  0  0  0  0
 30 20  1  0  0  0  0
 31 30  2  0  0  0  0
 32 33  1  0  0  0  0
 33 40  1  0  0  0  0
 33 36  1  0  0  0  0
 34 39  2  0  0  0  0
 35 43  1  0  0  0  0
 35 37  1  0  0  0  0
 36 38  1  0  0  0  0
 38 37  1  0  0  0  0
 38 39  1  0  0  0  0
 39 41  1  0  0  0  0
 40 35  1  0  0  0  0
 42 43  1  0  0  0  0
M  END
>  <MODEL>
2

>  <REMARK>
 VINA RESULT:      -7.7      3.631      6.019
  Name = 
  4 active torsions:
  status: ('A' for Active; 'I' for Inactive)
    1  A    between atoms: C_1  and  O_6
    2  A    between atoms: O_6  and  C_31
    3  A    between atoms: C_8  and  C_30
    4  A    between atoms: C_14  and  O_40
                            x       y       z     vdW  Elec       q    Type
                         _______ _______ _______ _____ _____    ______ ____

>  <TORSDO>
F 4

$$$$
=
 OpenBabel11042419153D

 43 49  0  0  1  0  0  0  0  0999 V2000
  188.6740  173.7830  141.6100 O   0  0  0  0  0  0  0  0  0  0  0  0
  188.3510  174.3820  140.3800 C   0  0  0  0  0  2  0  0  0  0  0  0
  194.5450  176.9940  145.9260 C   0  0  0  0  0  1  0  0  0  0  0  0
  190.6930  173.9430  137.9980 N   0  0  0  0  0  0  0  0  0  0  0  0
  193.2410  175.8700  143.0070 O   0  0  0  0  0  0  0  0  0  0  0  0
  193.1030  173.1090  142.0840 O   0  0  0  0  0  0  0  0  0  0  0  0
  195.5260  174.7180  145.9740 C   0  0  0  0  0  2  0  0  0  0  0  0
  195.3030  172.9500  145.5530 S   0  0  0  0  0  0  0  0  0  0  0  0
  191.3880  174.6500  143.8630 C   0  0  0  0  0  2  0  0  0  0  0  0
  192.8960  174.8090  143.8900 C   0  0  1  0  0  0  0  0  0  0  0  0
  191.9700  173.6120  138.0810 N   0  0  0  0  0  0  0  0  0  0  0  0
  192.0570  176.3110  142.3850 C   0  0  0  0  0  2  0  0  0  0  0  0
  188.5990  173.3990  139.2470 C   0  0  0  0  0  2  0  0  0  0  0  0
  195.0110  173.1410  143.7590 C   0  0  1  0  0  3  0  0  0  0  0  0
  193.5100  173.4610  143.4070 C   0  0  2  0  0  3  0  0  0  0  0  0
  194.3020  173.2580  139.9410 N   0  0  1  0  0  0  0  0  0  0  0  0
  192.0750  172.7450  139.1070 C   0  0  0  0  0  0  0  0  0  0  0  0
  190.0590  173.2680  138.9740 C   0  0  0  0  0  0  0  0  0  0  0  0
  189.6160  175.8450  142.5690 C   0  0  0  0  0  2  0  0  0  0  0  0
  193.3760  172.1790  139.5950 C   0  0  1  0  0  3  0  0  0  0  0  0
  188.5500  174.7460  142.6370 C   0  0  1  0  0  3  0  0  0  0  0  0
  194.0070  173.7660  141.2440 C   0  0  2  0  0  3  0  0  0  0  0  0
  196.1700  173.7050  141.4700 C   0  0  0  0  0  2  0  0  0  0  0  0
  194.5610  175.6410  145.2460 C   0  0  1  0  0  3  0  0  0  0  0  0
  190.8940  172.5060  139.7080 N   0  0  0  0  0  2  0  0  0  0  0  0
  196.1360  173.9280  143.0150 C   0  0  0  0  0  2  0  0  0  0  0  0
  193.2630  175.1020  145.2270 O   0  0  0  0  0  0  0  0  0  0  0  0
  191.0130  175.2470  142.5490 C   0  0  2  0  0  3  0  0  0  0  0  0
  195.0720  172.8360  141.0850 N   0  0  2  0  0  0  0  0  0  0  0  0
  193.9880  171.2620  138.5780 C   0  0  0  0  0  3  0  0  0  0  0  0
  194.9060  171.6730  137.7820 N   0  0  0  0  0  2  0  0  0  0  0  0
  187.2620  175.2950  142.6880 O   0  0  0  0  0  0  0  0  0  0  0  0
  187.4230  176.5440  143.2910 C   0  0  1  0  0  3  0  0  0  0  0  0
  186.0830  177.8180  139.6940 O   0  0  0  0  0  0  0  0  0  0  0  0
  185.5530  177.8610  144.4890 C   0  0  1  0  0  3  0  0  0  0  0  0
  187.1960  177.6500  142.2570 C   0  0  0  0  0  2  0  0  0  0  0  0
  184.8390  177.9750  143.1400 C   0  0  0  0  0  2  0  0  0  0  0  0
  185.7660  177.8340  142.0120 N   0  0  0  0  0  0  0  0  0  0  0  0
  185.2840  177.9220  140.6620 C   0  0  0  0  0  0  0  0  0  0  0  0
  186.4880  176.6460  144.5090 C   0  0  0  0  0  2  0  0  0  0  0  0
  183.8350  178.1340  140.3760 C   0  0  0  0  0  1  0  0  0  0  0  0
  185.3820  180.0690  144.4800 C   0  0  0  0  0  1  0  0  0  0  0  0
  186.2730  179.0300  144.7560 O   0  0  0  0  0  0  0  0  0  0  0  0
  1 21  1  0  0  0  0
  2  1  1  0  0  0  0
  4 11  1  0  0  0  0
  4 18  2  0  0  0  0
  5 10  1  0  0  0  0
  8  7  1  0  0  0  0
 10  9  1  6  0  0  0
 10 27  1  0  0  0  0
 11 17  2  0  0  0  0
 12 28  1  0  0  0  0
 12  5  1  0  0  0  0
 13  2  1  0  0  0  0
 14 26  1  1  0  0  0
 14  8  1  0  0  0  0
 15  6  1  6  0  0  0
 15 14  1  0  0  0  0
 15 10  1  0  0  0  0
 16 29  1  0  0  0  0
 16 22  1  0  0  0  0
 17 20  1  0  0  0  0
 17 25  1  0  0  0  0
 18 13  1  0  0  0  0
 18 25  1  0  0  0  0
 19 21  1  0  0  0  0
 20 16  1  0  0  0  0
 21 32  1  0  0  0  0
 22  6  1  0  0  0  0
 23 26  1  0  0  0  0
 24  3  1  0  0  0  0
 24  7  1  0  0  0  0
 27 24  1  0  0  0  0
 28 19  1  0  0  0  0
 28  9  1  0  0  0  0
 29 22  1  0  0  0  0
 29 23  1  0  0  0  0
 30 20  1  0  0  0  0
 31 30  2  0  0  0  0
 32 33  1  0  0  0  0
 33 40  1  0  0  0  0
 34 39  2  0  0  0  0
 35 40  1  0  0  0  0
 35 43  1  0  0  0  0
 36 33  1  0  0  0  0
 37 35  1  0  0  0  0
 38 36  1  0  0  0  0
 38 37  1  0  0  0  0
 39 38  1  0  0  0  0
 41 39  1  0  0  0  0
 42 43  1  0  0  0  0
M  END
>  <MODEL>
3

>  <REMARK>
 VINA RESULT:      -7.6      2.631      5.335
  Name = 
  4 active torsions:
  status: ('A' for Active; 'I' for Inactive)
    1  A    between atoms: C_1  and  O_6
    2  A    between atoms: O_6  and  C_31
    3  A    between atoms: C_8  and  C_30
    4  A    between atoms: C_14  and  O_40
                            x       y       z     vdW  Elec       q    Type
                         _______ _______ _______ _____ _____    ______ ____

>  <TORSDO>
F 4

$$$$
=
 OpenBabel11042419153D

 43 49  0  0  1  0  0  0  0  0999 V2000
  188.9360  173.6110  142.4400 O   0  0  0  0  0  0  0  0  0  0  0  0
  188.7350  174.2460  141.2020 C   0  0  0  0  0  2  0  0  0  0  0  0
  196.1800  173.9970  145.7260 C   0  0  0  0  0  1  0  0  0  0  0  0
  190.2700  172.7130  138.6250 N   0  0  0  0  0  0  0  0  0  0  0  0
  194.1050  173.4720  143.0990 O   0  0  0  0  0  0  0  0  0  0  0  0
  192.6330  171.0360  142.4730 O   0  0  0  0  0  0  0  0  0  0  0  0
  196.0540  171.5270  145.8870 C   0  0  0  0  0  2  0  0  0  0  0  0
  195.0170  170.0340  145.6690 S   0  0  0  0  0  0  0  0  0  0  0  0
  192.0510  173.2480  144.2760 C   0  0  0  0  0  2  0  0  0  0  0  0
  193.4600  172.7130  144.1150 C   0  0  1  0  0  0  0  0  0  0  0  0
  191.2680  171.8460  138.5950 N   0  0  0  0  0  0  0  0  0  0  0  0
  193.1600  174.3750  142.5750 C   0  0  0  0  0  2  0  0  0  0  0  0
  188.3580  173.2150  140.1510 C   0  0  0  0  0  2  0  0  0  0  0  0
  194.5810  170.2690  143.9100 C   0  0  1  0  0  3  0  0  0  0  0  0
  193.3400  171.2160  143.7010 C   0  0  2  0  0  3  0  0  0  0  0  0
  193.4490  170.5510  140.2040 N   0  0  1  0  0  0  0  0  0  0  0  0
  191.1290  171.0630  139.6820 C   0  0  0  0  0  0  0  0  0  0  0  0
  189.5540  172.4320  139.7290 C   0  0  0  0  0  0  0  0  0  0  0  0
  190.8180  175.0630  143.0790 C   0  0  0  0  0  2  0  0  0  0  0  0
  192.1030  169.9910  140.0730 C   0  0  1  0  0  3  0  0  0  0  0  0
  189.4000  174.5650  143.3750 C   0  0  1  0  0  3  0  0  0  0  0  0
  193.6010  171.1850  141.4760 C   0  0  2  0  0  3  0  0  0  0  0  0
  195.5230  170.1660  141.4600 C   0  0  0  0  0  2  0  0  0  0  0  0
  195.4990  172.7570  145.1860 C   0  0  1  0  0  3  0  0  0  0  0  0
  190.0640  171.4030  140.4340 N   0  0  0  0  0  2  0  0  0  0  0  0
  195.8160  170.4380  142.9690 C   0  0  0  0  0  2  0  0  0  0  0  0
  194.1090  172.8600  145.3670 O   0  0  0  0  0  0  0  0  0  0  0  0
  191.7900  173.9020  142.9600 C   0  0  2  0  0  3  0  0  0  0  0  0
  194.1120  169.8710  141.2890 N   0  0  2  0  0  0  0  0  0  0  0  0
  192.0930  168.8610  139.0870 C   0  0  0  0  0  3  0  0  0  0  0  0
  190.9920  168.3740  138.6440 N   0  0  0  0  0  2  0  0  0  0  0  0
  188.5080  175.6360  143.5180 O   0  0  0  0  0  0  0  0  0  0  0  0
  189.1190  176.4990  144.4300 C   0  0  1  0  0  3  0  0  0  0  0  0
  186.1590  178.9680  143.2070 O   0  0  0  0  0  0  0  0  0  0  0  0
  188.4000  176.8040  146.8910 C   0  0  1  0  0  3  0  0  0  0  0  0
  188.4830  177.8880  144.3320 C   0  0  0  0  0  2  0  0  0  0  0  0
  187.0730  177.3720  146.3790 C   0  0  0  0  0  2  0  0  0  0  0  0
  187.1910  177.9070  145.0180 N   0  0  0  0  0  0  0  0  0  0  0  0
  186.0530  178.4940  144.3690 C   0  0  0  0  0  0  0  0  0  0  0  0
  189.0400  175.8890  145.8410 C   0  0  0  0  0  2  0  0  0  0  0  0
  184.7260  178.5520  145.0480 C   0  0  0  0  0  1  0  0  0  0  0  0
  190.4450  177.2050  147.6370 C   0  0  0  0  0  1  0  0  0  0  0  0
  189.2740  177.8430  147.2260 O   0  0  0  0  0  0  0  0  0  0  0  0
  1 21  1  0  0  0  0
  2  1  1  0  0  0  0
  4 18  2  0  0  0  0
  5 10  1  0  0  0  0
  8  7  1  0  0  0  0
 10  9  1  1  0  0  0
 10 27  1  0  0  0  0
 11  4  1  0  0  0  0
 11 17  2  0  0  0  0
 12 28  1  0  0  0  0
 12  5  1  0  0  0  0
 13  2  1  0  0  0  0
 14 26  1  6  0  0  0
 14  8  1  0  0  0  0
 15  6  1  6  0  0  0
 15 14  1  0  0  0  0
 15 10  1  0  0  0  0
 16 29  1  0  0  0  0
 16 22  1  0  0  0  0
 17 20  1  0  0  0  0
 17 25  1  0  0  0  0
 18 13  1  0  0  0  0
 18 25  1  0  0  0  0
 19 21  1  0  0  0  0
 20 16  1  0  0  0  0
 21 32  1  0  0  0  0
 22  6  1  0  0  0  0
 23 26  1  0  0  0  0
 24 27  1  0  0  0  0
 24  3  1  0  0  0  0
 24  7  1  0  0  0  0
 28 19  1  0  0  0  0
 28  9  1  0  0  0  0
 29 23  1  0  0  0  0
 29 22  1  0  0  0  0
 30 20  1  0  0  0  0
 31 30  2  0  0  0  0
 32 33  1  0  0  0  0
 33 40  1  0  0  0  0
 34 39  2  0  0  0  0
 35 43  1  0  0  0  0
 36 33  1  0  0  0  0
 36 38  1  0  0  0  0
 37 35  1  0  0  0  0
 38 37  1  0  0  0  0
 39 38  1  0  0  0  0
 39 41  1  0  0  0  0
 40 35  1  0  0  0  0
 43 42  1  0  0  0  0
M  END
>  <MODEL>
4

>  <REMARK>
 VINA RESULT:      -7.4      3.349      5.715
  Name = 
  4 active torsions:
  status: ('A' for Active; 'I' for Inactive)
    1  A    between atoms: C_1  and  O_6
    2  A    between atoms: O_6  and  C_31
    3  A    between atoms: C_8  and  C_30
    4  A    between atoms: C_14  and  O_40
                            x       y       z     vdW  Elec       q    Type
                         _______ _______ _______ _____ _____    ______ ____

>  <TORSDO>
F 4

$$$$
=
 OpenBabel11042419153D

 43 49  0  0  1  0  0  0  0  0999 V2000
  188.9660  176.0940  143.4870 O   0  0  0  0  0  0  0  0  0  0  0  0
  188.9020  175.6480  144.8180 C   0  0  0  0  0  2  0  0  0  0  0  0
  189.9700  170.6690  137.7460 C   0  0  0  0  0  1  0  0  0  0  0  0
  191.8460  174.5380  146.0230 N   0  0  0  0  0  0  0  0  0  0  0  0
  190.7470  172.0330  140.7490 O   0  0  0  0  0  0  0  0  0  0  0  0
  192.4590  174.3380  141.2490 O   0  0  0  0  0  0  0  0  0  0  0  0
  191.8800  172.0600  136.9980 C   0  0  0  0  0  2  0  0  0  0  0  0
  192.8070  173.6240  137.2150 S   0  0  0  0  0  0  0  0  0  0  0  0
  189.6500  174.1290  140.5090 C   0  0  0  0  0  2  0  0  0  0  0  0
  190.6900  173.1920  139.9260 C   0  0  1  0  0  0  0  0  0  0  0  0
  192.9460  174.1420  145.4070 N   0  0  0  0  0  0  0  0  0  0  0  0
  189.8750  172.2360  141.8360 C   0  0  0  0  0  2  0  0  0  0  0  0
  190.0570  176.2320  145.6140 C   0  0  0  0  0  2  0  0  0  0  0  0
  193.2060  173.4490  138.9910 C   0  0  1  0  0  3  0  0  0  0  0  0
  192.0500  173.9500  139.9370 C   0  0  2  0  0  3  0  0  0  0  0  0
  194.1410  173.3680  142.7610 N   0  0  1  0  0  0  0  0  0  0  0  0
  193.0690  174.9100  144.3080 C   0  0  0  0  0  0  0  0  0  0  0  0
  191.3320  175.5360  145.2810 C   0  0  0  0  0  0  0  0  0  0  0  0
  188.2100  173.9500  142.5440 C   0  0  0  0  0  2  0  0  0  0  0  0
  194.1480  174.7370  143.2800 C   0  0  1  0  0  3  0  0  0  0  0  0
  187.9570  175.4490  142.7360 C   0  0  1  0  0  3  0  0  0  0  0  0
  193.1310  173.2220  141.7600 C   0  0  2  0  0  3  0  0  0  0  0  0
  194.6980  172.1390  140.7100 C   0  0  0  0  0  2  0  0  0  0  0  0
  190.9630  171.7320  138.1660 C   0  0  1  0  0  3  0  0  0  0  0  0
  192.0650  175.8000  144.1820 N   0  0  0  0  0  2  0  0  0  0  0  0
  193.9380  172.1160  139.3480 C   0  0  0  0  0  2  0  0  0  0  0  0
  190.2760  172.8760  138.6070 O   0  0  0  0  0  0  0  0  0  0  0  0
  189.5810  173.7030  141.9370 C   0  0  2  0  0  3  0  0  0  0  0  0
  194.4820  173.4190  141.3610 N   0  0  2  0  0  0  0  0  0  0  0  0
  195.4950  175.0830  143.8400 C   0  0  0  0  0  3  0  0  0  0  0  0
  195.6540  176.0950  144.6120 N   0  0  0  0  0  2  0  0  0  0  0  0
  186.6800  175.6810  143.2650 O   0  0  0  0  0  0  0  0  0  0  0  0
  186.7440  176.9610  143.8210 C   0  0  1  0  0  3  0  0  0  0  0  0
  185.7120  178.0250  140.0580 O   0  0  0  0  0  0  0  0  0  0  0  0
  184.7290  178.2620  144.7760 C   0  0  1  0  0  3  0  0  0  0  0  0
  186.5820  178.0100  142.7180 C   0  0  0  0  0  2  0  0  0  0  0  0
  184.1420  178.2910  143.3620 C   0  0  0  0  0  2  0  0  0  0  0  0
  185.1760  178.1320  142.3330 N   0  0  0  0  0  0  0  0  0  0  0  0
  184.8210  178.1440  140.9410 C   0  0  0  0  0  0  0  0  0  0  0  0
  185.6950  177.0830  144.9400 C   0  0  0  0  0  2  0  0  0  0  0  0
  183.4000  178.2910  140.5120 C   0  0  0  0  0  1  0  0  0  0  0  0
  185.6630  179.4150  146.4190 C   0  0  0  0  0  1  0  0  0  0  0  0
  185.3830  179.4660  145.0520 O   0  0  0  0  0  0  0  0  0  0  0  0
  1  2  1  0  0  0  0
  2 13  1  0  0  0  0
  3 24  1  0  0  0  0
  5 12  1  0  0  0  0
  6 22  1  0  0  0  0
  7  8  1  0  0  0  0
  7 24  1  0  0  0  0
  8 14  1  0  0  0  0
  9 28  1  0  0  0  0
 10 15  1  0  0  0  0
 10  9  1  1  0  0  0
 10  5  1  0  0  0  0
 11  4  1  0  0  0  0
 12 28  1  0  0  0  0
 14 26  1  6  0  0  0
 14 15  1  0  0  0  0
 15  6  1  1  0  0  0
 16 20  1  0  0  0  0
 17 11  2  0  0  0  0
 18 13  1  0  0  0  0
 18  4  2  0  0  0  0
 19 21  1  0  0  0  0
 20 30  1  0  0  0  0
 20 17  1  0  0  0  0
 21 32  1  0  0  0  0
 21  1  1  0  0  0  0
 22 16  1  0  0  0  0
 23 29  1  0  0  0  0
 24 27  1  0  0  0  0
 25 17  1  0  0  0  0
 25 18  1  0  0  0  0
 26 23  1  0  0  0  0
 27 10  1  0  0  0  0
 28 19  1  0  0  0  0
 29 22  1  0  0  0  0
 29 16  1  0  0  0  0
 30 31  2  0  0  0  0
 32 33  1  0  0  0  0
 33 40  1  0  0  0  0
 34 39  2  0  0  0  0
 35 40  1  0  0  0  0
 35 43  1  0  0  0  0
 36 33  1  0  0  0  0
 37 35  1  0  0  0  0
 38 36  1  0  0  0  0
 38 37  1  0  0  0  0
 39 38  1  0  0  0  0
 41 39  1  0  0  0  0
 43 42  1  0  0  0  0
M  END
>  <MODEL>
5

>  <REMARK>
 VINA RESULT:      -7.2      1.358      2.419
  Name = 
  4 active torsions:
  status: ('A' for Active; 'I' for Inactive)
    1  A    between atoms: C_1  and  O_6
    2  A    between atoms: O_6  and  C_31
    3  A    between atoms: C_8  and  C_30
    4  A    between atoms: C_14  and  O_40
                            x       y       z     vdW  Elec       q    Type
                         _______ _______ _______ _____ _____    ______ ____

>  <TORSDO>
F 4

$$$$
=
 OpenBabel11042419153D

 43 49  0  0  1  0  0  0  0  0999 V2000
  190.9740  175.8650  145.4390 O   0  0  0  0  0  0  0  0  0  0  0  0
  191.5920  175.4600  146.6350 C   0  0  0  0  0  2  0  0  0  0  0  0
  190.6040  170.6450  139.4380 C   0  0  0  0  0  1  0  0  0  0  0  0
  194.9340  175.1150  146.3850 N   0  0  0  0  0  0  0  0  0  0  0  0
  192.2680  172.2500  141.9150 O   0  0  0  0  0  0  0  0  0  0  0  0
  193.4580  174.9080  141.8050 O   0  0  0  0  0  0  0  0  0  0  0  0
  191.6350  172.4210  138.0520 C   0  0  0  0  0  2  0  0  0  0  0  0
  192.1850  174.1660  137.9670 S   0  0  0  0  0  0  0  0  0  0  0  0
  190.7330  174.0210  142.3190 C   0  0  0  0  0  2  0  0  0  0  0  0
  191.6010  173.3360  141.2820 C   0  0  1  0  0  0  0  0  0  0  0  0
  195.7200  174.9680  145.3320 N   0  0  0  0  0  0  0  0  0  0  0  0
  191.9290  172.2780  143.2810 C   0  0  0  0  0  2  0  0  0  0  0  0
  192.8120  176.3250  146.9030 C   0  0  0  0  0  2  0  0  0  0  0  0
  193.3390  174.1480  139.3850 C   0  0  1  0  0  3  0  0  0  0  0  0
  192.6230  174.3930  140.7670 C   0  0  2  0  0  3  0  0  0  0  0  0
  195.7980  174.4120  142.3810 N   0  0  1  0  0  0  0  0  0  0  0  0
  195.1790  175.7080  144.3450 C   0  0  0  0  0  0  0  0  0  0  0  0
  193.9400  175.9390  146.0080 C   0  0  0  0  0  0  0  0  0  0  0  0
  190.3920  173.5740  144.7540 C   0  0  0  0  0  2  0  0  0  0  0  0
  195.7180  175.7600  142.9460 C   0  0  1  0  0  3  0  0  0  0  0  0
  189.9150  174.9760  145.1450 C   0  0  1  0  0  3  0  0  0  0  0  0
  194.5170  174.0000  141.8980 C   0  0  2  0  0  3  0  0  0  0  0  0
  195.6790  173.2830  140.2040 C   0  0  0  0  0  2  0  0  0  0  0  0
  191.4120  171.9250  139.4710 C   0  0  1  0  0  3  0  0  0  0  0  0
  194.0470  176.3310  144.7240 N   0  0  0  0  0  2  0  0  0  0  0  0
  194.4330  173.0370  139.2980 C   0  0  0  0  0  2  0  0  0  0  0  0
  190.7430  172.8890  140.2460 O   0  0  0  0  0  0  0  0  0  0  0  0
  191.3840  173.6370  143.6050 C   0  0  2  0  0  3  0  0  0  0  0  0
  195.4810  174.4960  140.9770 N   0  0  2  0  0  0  0  0  0  0  0  0
  197.0590  176.4320  142.9030 C   0  0  0  0  0  3  0  0  0  0  0  0
  197.2660  177.5410  143.5130 N   0  0  0  0  0  2  0  0  0  0  0  0
  188.9750  174.9190  146.1830 O   0  0  0  0  0  0  0  0  0  0  0  0
  188.7090  176.2510  146.5070 C   0  0  1  0  0  3  0  0  0  0  0  0
  188.3080  176.5520  142.4940 O   0  0  0  0  0  0  0  0  0  0  0  0
  186.3530  177.2490  146.8490 C   0  0  1  0  0  3  0  0  0  0  0  0
  188.6030  177.0820  145.2260 C   0  0  0  0  0  2  0  0  0  0  0  0
  186.0720  176.9620  145.3710 C   0  0  0  0  0  2  0  0  0  0  0  0
  187.3060  176.8690  144.5840 N   0  0  0  0  0  0  0  0  0  0  0  0
  187.2480  176.6140  143.1720 C   0  0  0  0  0  0  0  0  0  0  0  0
  187.4470  176.3190  147.3850 C   0  0  0  0  0  2  0  0  0  0  0  0
  185.9410  176.4160  142.4800 C   0  0  0  0  0  1  0  0  0  0  0  0
  185.5660  179.3160  146.7560 C   0  0  0  0  0  1  0  0  0  0  0  0
  186.7260  178.5860  147.0200 O   0  0  0  0  0  0  0  0  0  0  0  0
  1  2  1  0  0  0  0
  2 13  1  0  0  0  0
  3 24  1  0  0  0  0
  5 12  1  0  0  0  0
  6 22  1  0  0  0  0
  7 24  1  0  0  0  0
  8  7  1  0  0  0  0
  8 14  1  0  0  0  0
  9 28  1  0  0  0  0
 10  5  1  0  0  0  0
 10  9  1  1  0  0  0
 11  4  1  0  0  0  0
 12 28  1  0  0  0  0
 14 26  1  1  0  0  0
 14 15  1  0  0  0  0
 15 10  1  0  0  0  0
 15  6  1  1  0  0  0
 16 20  1  0  0  0  0
 17 25  1  0  0  0  0
 17 11  2  0  0  0  0
 18  4  2  0  0  0  0
 18 13  1  0  0  0  0
 19 21  1  0  0  0  0
 20 17  1  0  0  0  0
 21  1  1  0  0  0  0
 21 32  1  0  0  0  0
 22 16  1  0  0  0  0
 23 29  1  0  0  0  0
 24 27  1  0  0  0  0
 25 18  1  0  0  0  0
 26 23  1  0  0  0  0
 27 10  1  0  0  0  0
 28 19  1  0  0  0  0
 29 22  1  0  0  0  0
 29 16  1  0  0  0  0
 30 20  1  0  0  0  0
 30 31  2  0  0  0  0
 32 33  1  0  0  0  0
 33 40  1  0  0  0  0
 34 39  2  0  0  0  0
 35 43  1  0  0  0  0
 35 40  1  0  0  0  0
 36 33  1  0  0  0  0
 37 35  1  0  0  0  0
 38 36  1  0  0  0  0
 38 37  1  0  0  0  0
 39 38  1  0  0  0  0
 41 39  1  0  0  0  0
 42 43  1  0  0  0  0
M  END
>  <MODEL>
6

>  <REMARK>
 VINA RESULT:      -6.8      1.463      2.520
  Name = 
  4 active torsions:
  status: ('A' for Active; 'I' for Inactive)
    1  A    between atoms: C_1  and  O_6
    2  A    between atoms: O_6  and  C_31
    3  A    between atoms: C_8  and  C_30
    4  A    between atoms: C_14  and  O_40
                            x       y       z     vdW  Elec       q    Type
                         _______ _______ _______ _____ _____    ______ ____

>  <TORSDO>
F 4

$$$$
=
 OpenBabel11042419153D

 43 49  0  0  1  0  0  0  0  0999 V2000
  191.2980  173.6100  139.2170 O   0  0  0  0  0  0  0  0  0  0  0  0
  190.2630  172.6780  139.0290 C   0  0  0  0  0  2  0  0  0  0  0  0
  195.8580  172.9110  145.7070 C   0  0  0  0  0  1  0  0  0  0  0  0
  187.7000  173.0410  141.1870 N   0  0  0  0  0  0  0  0  0  0  0  0
  192.8470  172.9850  144.1540 O   0  0  0  0  0  0  0  0  0  0  0  0
  191.3220  175.3430  143.3760 O   0  0  0  0  0  0  0  0  0  0  0  0
  195.3170  175.2910  146.1380 C   0  0  0  0  0  2  0  0  0  0  0  0
  194.5130  176.8120  145.5100 S   0  0  0  0  0  0  0  0  0  0  0  0
  193.5140  173.9330  142.0770 C   0  0  0  0  0  2  0  0  0  0  0  0
  193.4810  174.1230  143.5810 C   0  0  1  0  0  0  0  0  0  0  0  0
  187.6240  173.6570  142.3530 N   0  0  0  0  0  0  0  0  0  0  0  0
  192.4200  172.1560  143.0980 C   0  0  0  0  0  2  0  0  0  0  0  0
  188.9210  173.3900  139.0350 C   0  0  0  0  0  2  0  0  0  0  0  0
  192.8340  176.1370  145.2540 C   0  0  1  0  0  3  0  0  0  0  0  0
  192.6620  175.4170  143.8630 C   0  0  2  0  0  3  0  0  0  0  0  0
  189.1990  174.9540  144.5580 N   0  0  1  0  0  0  0  0  0  0  0  0
  188.4120  174.7450  142.2660 C   0  0  0  0  0  0  0  0  0  0  0  0
  188.5330  173.7720  140.4230 C   0  0  0  0  0  0  0  0  0  0  0  0
  192.6460  172.1000  140.6170 C   0  0  0  0  0  2  0  0  0  0  0  0
  188.6730  175.6860  143.4040 C   0  0  1  0  0  3  0  0  0  0  0  0
  192.5260  172.9190  139.3270 C   0  0  1  0  0  3  0  0  0  0  0  0
  190.6010  174.7200  144.3990 C   0  0  2  0  0  3  0  0  0  0  0  0
  190.6690  175.3120  146.4920 C   0  0  0  0  0  2  0  0  0  0  0  0
  194.8850  174.0310  145.4050 C   0  0  1  0  0  3  0  0  0  0  0  0
  189.0150  174.8540  141.0660 N   0  0  0  0  0  2  0  0  0  0  0  0
  192.2220  175.4630  146.5240 C   0  0  0  0  0  2  0  0  0  0  0  0
  194.8240  174.2470  144.0170 O   0  0  0  0  0  0  0  0  0  0  0  0
  192.4000  172.9700  141.8380 C   0  0  2  0  0  3  0  0  0  0  0  0
  190.1640  175.7970  145.2200 N   0  0  2  0  0  0  0  0  0  0  0  0
  187.4340  176.4430  143.7800 C   0  0  0  0  0  3  0  0  0  0  0  0
  187.4410  177.7230  143.8730 N   0  0  0  0  0  2  0  0  0  0  0  0
  192.7840  172.1260  138.2000 O   0  0  0  0  0  0  0  0  0  0  0  0
  193.8560  172.7480  137.5570 C   0  0  1  0  0  3  0  0  0  0  0  0
  191.1080  173.1680  134.6190 O   0  0  0  0  0  0  0  0  0  0  0  0
  194.3030  175.2910  137.5450 C   0  0  1  0  0  3  0  0  0  0  0  0
  193.4770  173.0600  136.1070 C   0  0  0  0  0  2  0  0  0  0  0  0
  192.9990  175.4650  136.7630 C   0  0  0  0  0  2  0  0  0  0  0  0
  192.6180  174.2430  136.0480 N   0  0  0  0  0  0  0  0  0  0  0  0
  191.4250  174.2130  135.2470 C   0  0  0  0  0  0  0  0  0  0  0  0
  194.2800  173.9910  138.3580 C   0  0  0  0  0  2  0  0  0  0  0  0
  190.5390  175.4080  135.1450 C   0  0  0  0  0  1  0  0  0  0  0  0
  196.5170  175.2900  137.5030 C   0  0  0  0  0  1  0  0  0  0  0  0
  195.3950  175.2970  136.6730 O   0  0  0  0  0  0  0  0  0  0  0  0
  1 21  1  0  0  0  0
  2 13  1  0  0  0  0
  2  1  1  0  0  0  0
  4 11  1  0  0  0  0
  6 22  1  0  0  0  0
  8  7  1  0  0  0  0
 10  9  1  6  0  0  0
 10 15  1  0  0  0  0
 10 27  1  0  0  0  0
 10  5  1  0  0  0  0
 12  5  1  0  0  0  0
 13 18  1  0  0  0  0
 14  8  1  0  0  0  0
 14 26  1  1  0  0  0
 15  6  1  1  0  0  0
 15 14  1  0  0  0  0
 16 29  1  0  0  0  0
 17 11  2  0  0  0  0
 17 20  1  0  0  0  0
 18 25  1  0  0  0  0
 18  4  2  0  0  0  0
 19 28  1  0  0  0  0
 20 30  1  0  0  0  0
 20 16  1  0  0  0  0
 21 19  1  0  0  0  0
 22 16  1  0  0  0  0
 22 29  1  0  0  0  0
 23 26  1  0  0  0  0
 24  3  1  0  0  0  0
 24  7  1  0  0  0  0
 25 17  1  0  0  0  0
 27 24  1  0  0  0  0
 28  9  1  0  0  0  0
 28 12  1  0  0  0  0
 29 23  1  0  0  0  0
 30 31  2  0  0  0  0
 32 21  1  0  0  0  0
 33 32  1  0  0  0  0
 33 40  1  0  0  0  0
 34 39  2  0  0  0  0
 35 40  1  0  0  0  0
 36 33  1  0  0  0  0
 37 35  1  0  0  0  0
 38 36  1  0  0  0  0
 38 37  1  0  0  0  0
 39 38  1  0  0  0  0
 41 39  1  0  0  0  0
 43 42  1  0  0  0  0
 43 35  1  0  0  0  0
M  END
>  <MODEL>
7

>  <REMARK>
 VINA RESULT:      -6.8      3.529      8.267
  Name = 
  4 active torsions:
  status: ('A' for Active; 'I' for Inactive)
    1  A    between atoms: C_1  and  O_6
    2  A    between atoms: O_6  and  C_31
    3  A    between atoms: C_8  and  C_30
    4  A    between atoms: C_14  and  O_40
                            x       y       z     vdW  Elec       q    Type
                         _______ _______ _______ _____ _____    ______ ____

>  <TORSDO>
F 4

$$$$
=
 OpenBabel11042419153D

 43 49  0  0  1  0  0  0  0  0999 V2000
  193.8310  171.1550  142.2180 O   0  0  0  0  0  0  0  0  0  0  0  0
  193.4320  169.9000  141.7270 C   0  0  0  0  0  2  0  0  0  0  0  0
  188.9810  174.9160  147.2930 C   0  0  0  0  0  1  0  0  0  0  0  0
  190.8550  170.0450  139.5620 N   0  0  0  0  0  0  0  0  0  0  0  0
  189.5750  173.1850  144.4410 O   0  0  0  0  0  0  0  0  0  0  0  0
  190.5630  174.2410  141.9100 O   0  0  0  0  0  0  0  0  0  0  0  0
  189.1490  176.8510  145.7540 C   0  0  0  0  0  2  0  0  0  0  0  0
  189.9510  177.5540  144.2660 S   0  0  0  0  0  0  0  0  0  0  0  0
  191.9400  173.4180  144.3400 C   0  0  0  0  0  2  0  0  0  0  0  0
  190.6160  174.1540  144.3970 C   0  0  1  0  0  0  0  0  0  0  0  0
  189.9530  170.9860  139.3410 N   0  0  0  0  0  0  0  0  0  0  0  0
  190.1710  171.9130  144.3320 C   0  0  0  0  0  2  0  0  0  0  0  0
  193.2640  169.9680  140.2180 C   0  0  0  0  0  2  0  0  0  0  0  0
  189.5110  176.2330  143.0810 C   0  0  1  0  0  3  0  0  0  0  0  0
  190.5160  175.0200  143.1060 C   0  0  2  0  0  3  0  0  0  0  0  0
  188.7730  173.5500  140.3700 N   0  0  1  0  0  0  0  0  0  0  0  0
  190.5800  172.1660  139.5130 C   0  0  0  0  0  0  0  0  0  0  0  0
  192.0030  170.6790  139.8600 C   0  0  0  0  0  0  0  0  0  0  0  0
  192.4800  170.9790  144.2690 C   0  0  0  0  0  2  0  0  0  0  0  0
  189.8960  173.4980  139.4330 C   0  0  1  0  0  3  0  0  0  0  0  0
  193.8670  171.1050  143.6310 C   0  0  1  0  0  3  0  0  0  0  0  0
  189.2410  173.8430  141.6890 C   0  0  2  0  0  3  0  0  0  0  0  0
  187.5290  175.1850  141.7140 C   0  0  0  0  0  2  0  0  0  0  0  0
  189.3190  175.3460  145.8810 C   0  0  1  0  0  3  0  0  0  0  0  0
  191.8760  172.0210  139.8510 N   0  0  0  0  0  2  0  0  0  0  0  0
  187.9800  175.9330  143.0070 C   0  0  0  0  0  2  0  0  0  0  0  0
  190.6320  174.9560  145.5660 O   0  0  0  0  0  0  0  0  0  0  0  0
  191.5580  172.0860  143.7880 C   0  0  2  0  0  3  0  0  0  0  0  0
  188.6920  174.8900  140.8970 N   0  0  2  0  0  0  0  0  0  0  0  0
  189.4330  173.7900  138.0360 C   0  0  0  0  0  3  0  0  0  0  0  0
  188.1850  173.9010  137.7600 N   0  0  0  0  0  2  0  0  0  0  0  0
  194.7310  170.1040  144.0970 O   0  0  0  0  0  0  0  0  0  0  0  0
  195.7670  170.7870  144.7380 C   0  0  1  0  0  3  0  0  0  0  0  0
  197.9330  169.1430  141.7450 O   0  0  0  0  0  0  0  0  0  0  0  0
  196.6070  173.1420  144.0950 C   0  0  1  0  0  3  0  0  0  0  0  0
  197.1060  170.4070  144.1010 C   0  0  0  0  0  2  0  0  0  0  0  0
  197.0610  172.5590  142.7540 C   0  0  0  0  0  2  0  0  0  0  0  0
  197.2840  171.1110  142.8310 N   0  0  0  0  0  0  0  0  0  0  0  0
  197.7250  170.3830  141.6740 C   0  0  0  0  0  0  0  0  0  0  0  0
  195.4800  172.2980  144.7010 C   0  0  0  0  0  2  0  0  0  0  0  0
  197.9400  171.0730  140.3680 C   0  0  0  0  0  1  0  0  0  0  0  0
  197.1590  173.7900  146.1380 C   0  0  0  0  0  1  0  0  0  0  0  0
  197.6860  173.2170  144.9800 O   0  0  0  0  0  0  0  0  0  0  0  0
  1 21  1  0  0  0  0
  2  1  1  0  0  0  0
  4 18  2  0  0  0  0
  7 24  1  0  0  0  0
  8  7  1  0  0  0  0
 10  9  1  6  0  0  0
 10  5  1  0  0  0  0
 10 27  1  0  0  0  0
 11 17  2  0  0  0  0
 11  4  1  0  0  0  0
 12  5  1  0  0  0  0
 13  2  1  0  0  0  0
 14 26  1  1  0  0  0
 14 15  1  0  0  0  0
 14  8  1  0  0  0  0
 15  6  1  6  0  0  0
 15 10  1  0  0  0  0
 16 29  1  0  0  0  0
 16 22  1  0  0  0  0
 17 25  1  0  0  0  0
 18 13  1  0  0  0  0
 20 17  1  0  0  0  0
 20 16  1  0  0  0  0
 21 32  1  0  0  0  0
 21 19  1  0  0  0  0
 22  6  1  0  0  0  0
 23 26  1  0  0  0  0
 24  3  1  0  0  0  0
 25 18  1  0  0  0  0
 27 24  1  0  0  0  0
 28 19  1  0  0  0  0
 28 12  1  0  0  0  0
 28  9  1  0  0  0  0
 29 22  1  0  0  0  0
 29 23  1  0  0  0  0
 30 20  1  0  0  0  0
 31 30  2  0  0  0  0
 32 33  1  0  0  0  0
 35 40  1  0  0  0  0
 35 43  1  0  0  0  0
 36 33  1  0  0  0  0
 37 38  1  0  0  0  0
 37 35  1  0  0  0  0
 38 36  1  0  0  0  0
 39 34  2  0  0  0  0
 39 38  1  0  0  0  0
 40 33  1  0  0  0  0
 41 39  1  0  0  0  0
 43 42  1  0  0  0  0
M  END
>  <MODEL>
8

>  <REMARK>
 VINA RESULT:      -6.7      3.763      9.169
  Name = 
  4 active torsions:
  status: ('A' for Active; 'I' for Inactive)
    1  A    between atoms: C_1  and  O_6
    2  A    between atoms: O_6  and  C_31
    3  A    between atoms: C_8  and  C_30
    4  A    between atoms: C_14  and  O_40
                            x       y       z     vdW  Elec       q    Type
                         _______ _______ _______ _____ _____    ______ ____

>  <TORSDO>
F 4

$$$$
=
 OpenBabel11042419153D

 43 49  0  0  1  0  0  0  0  0999 V2000
  192.6880  171.8780  141.1850 O   0  0  0  0  0  0  0  0  0  0  0  0
  193.7320  172.3280  140.3580 C   0  0  0  0  0  2  0  0  0  0  0  0
  187.8630  177.3130  144.4410 C   0  0  0  0  0  1  0  0  0  0  0  0
  196.2010  173.9020  142.0240 N   0  0  0  0  0  0  0  0  0  0  0  0
  190.9360  176.1300  143.6390 O   0  0  0  0  0  0  0  0  0  0  0  0
  192.4870  174.1290  145.0820 O   0  0  0  0  0  0  0  0  0  0  0  0
  188.3810  176.2270  146.6080 C   0  0  0  0  0  2  0  0  0  0  0  0
  189.2070  174.8310  147.4580 S   0  0  0  0  0  0  0  0  0  0  0  0
  190.3540  173.8840  143.1160 C   0  0  0  0  0  2  0  0  0  0  0  0
  190.3240  174.9640  144.1790 C   0  0  1  0  0  0  0  0  0  0  0  0
  196.2280  174.4580  143.2220 N   0  0  0  0  0  0  0  0  0  0  0  0
  191.4080  175.8080  142.3520 C   0  0  0  0  0  2  0  0  0  0  0  0
  195.0710  171.9430  140.9630 C   0  0  0  0  0  2  0  0  0  0  0  0
  190.8970  175.0910  146.8120 C   0  0  1  0  0  3  0  0  0  0  0  0
  191.1280  174.4290  145.4010 C   0  0  2  0  0  3  0  0  0  0  0  0
  194.5600  175.3710  145.5470 N   0  0  1  0  0  0  0  0  0  0  0  0
  195.4420  173.7020  144.0130 C   0  0  0  0  0  0  0  0  0  0  0  0
  195.4000  172.8260  142.1190 C   0  0  0  0  0  0  0  0  0  0  0  0
  191.2860  173.8640  140.7970 C   0  0  0  0  0  2  0  0  0  0  0  0
  195.1320  174.0270  145.4440 C   0  0  1  0  0  3  0  0  0  0  0  0
  191.4580  172.3470  140.6690 C   0  0  1  0  0  3  0  0  0  0  0  0
  193.1660  175.3420  145.2280 C   0  0  2  0  0  3  0  0  0  0  0  0
  193.0100  176.6430  146.9650 C   0  0  0  0  0  2  0  0  0  0  0  0
  188.8460  176.4240  145.1740 C   0  0  1  0  0  3  0  0  0  0  0  0
  194.8890  172.6650  143.3560 N   0  0  0  0  0  2  0  0  0  0  0  0
  191.4570  176.5270  147.0630 C   0  0  0  0  0  2  0  0  0  0  0  0
  188.9640  175.1930  144.5060 O   0  0  0  0  0  0  0  0  0  0  0  0
  191.4790  174.3140  142.2350 C   0  0  2  0  0  3  0  0  0  0  0  0
  193.5660  175.3540  146.5930 N   0  0  2  0  0  0  0  0  0  0  0  0
  196.3520  173.9050  146.3070 C   0  0  0  0  0  3  0  0  0  0  0  0
  197.0610  172.8360  146.3080 N   0  0  0  0  0  2  0  0  0  0  0  0
  191.2480  171.9250  139.3490 O   0  0  0  0  0  0  0  0  0  0  0  0
  190.7180  173.0370  138.6910 C   0  0  1  0  0  3  0  0  0  0  0  0
  193.1710  171.7500  135.7450 O   0  0  0  0  0  0  0  0  0  0  0  0
  188.7020  172.9820  137.0800 C   0  0  1  0  0  3  0  0  0  0  0  0
  191.4530  173.2520  137.3660 C   0  0  0  0  0  2  0  0  0  0  0  0
  189.5430  172.1180  136.1370 C   0  0  0  0  0  2  0  0  0  0  0  0
  190.9820  172.3000  136.3610 N   0  0  0  0  0  0  0  0  0  0  0  0
  191.9360  171.5810  135.5640 C   0  0  0  0  0  0  0  0  0  0  0  0
  189.1990  172.8540  138.5240 C   0  0  0  0  0  2  0  0  0  0  0  0
  191.4910  170.6200  134.5130 C   0  0  0  0  0  1  0  0  0  0  0  0
  187.7400  174.9460  137.4220 C   0  0  0  0  0  1  0  0  0  0  0  0
  188.7360  174.3190  136.6720 O   0  0  0  0  0  0  0  0  0  0  0  0
  2 13  1  0  0  0  0
  2  1  1  0  0  0  0
  3 24  1  0  0  0  0
  4 18  2  0  0  0  0
  4 11  1  0  0  0  0
  5 10  1  0  0  0  0
  6 22  1  0  0  0  0
  7  8  1  0  0  0  0
 10  9  1  6  0  0  0
 10 27  1  0  0  0  0
 10 15  1  0  0  0  0
 11 17  2  0  0  0  0
 12  5  1  0  0  0  0
 13 18  1  0  0  0  0
 14 26  1  6  0  0  0
 14  8  1  0  0  0  0
 15  6  1  6  0  0  0
 15 14  1  0  0  0  0
 16 29  1  0  0  0  0
 17 20  1  0  0  0  0
 18 25  1  0  0  0  0
 19 28  1  0  0  0  0
 20 16  1  0  0  0  0
 20 30  1  0  0  0  0
 21 19  1  0  0  0  0
 21  1  1  0  0  0  0
 22 16  1  0  0  0  0
 22 29  1  0  0  0  0
 23 26  1  0  0  0  0
 24  7  1  0  0  0  0
 25 17  1  0  0  0  0
 27 24  1  0  0  0  0
 28 12  1  0  0  0  0
 28  9  1  0  0  0  0
 29 23  1  0  0  0  0
 30 31  2  0  0  0  0
 32 21  1  0  0  0  0
 33 32  1  0  0  0  0
 35 40  1  0  0  0  0
 36 33  1  0  0  0  0
 37 38  1  0  0  0  0
 37 35  1  0  0  0  0
 38 36  1  0  0  0  0
 39 34  2  0  0  0  0
 39 38  1  0  0  0  0
 40 33  1  0  0  0  0
 41 39  1  0  0  0  0
 43 35  1  0  0  0  0
 43 42  1  0  0  0  0
M  END
>  <MODEL>
9

>  <REMARK>
 VINA RESULT:      -6.7      3.014      7.440
  Name = 
  4 active torsions:
  status: ('A' for Active; 'I' for Inactive)
    1  A    between atoms: C_1  and  O_6
    2  A    between atoms: O_6  and  C_31
    3  A    between atoms: C_8  and  C_30
    4  A    between atoms: C_14  and  O_40
                            x       y       z     vdW  Elec       q    Type
                         _______ _______ _______ _____ _____    ______ ____

>  <TORSDO>
F 4

$$$$
