=
 OpenBabel11042419573D

 41 44  0  0  1  0  0  0  0  0999 V2000
  189.3590  175.2500  145.3580 C   0  0  0  0  0  0  0  0  0  0  0  0
  188.7710  175.6430  142.2640 C   0  0  0  0  0  2  0  0  0  0  0  0
  189.7820  174.5550  142.3070 C   0  0  0  0  0  3  0  0  0  0  0  0
  190.1950  174.4490  144.7490 N   0  0  0  0  0  0  0  0  0  0  0  0
  188.3260  176.0980  144.6780 C   0  0  1  0  0  3  0  0  0  0  0  0
  190.4280  174.0570  143.3750 C   0  0  0  0  0  0  0  0  0  0  0  0
  188.8320  177.5270  144.5290 C   0  0  0  0  0  1  0  0  0  0  0  0
  187.7770  175.4890  143.3930 C   0  0  1  0  0  3  0  0  0  0  0  0
  189.4230  175.3680  146.7500 O   0  0  0  0  0  0  0  0  0  0  0  0
  190.6160  175.7290  147.4300 C   0  0  0  0  0  1  0  0  0  0  0  0
  191.4380  172.9930  143.1400 C   0  0  0  0  0  0  0  0  0  0  0  0
  191.8620  172.2530  144.1710 C   0  0  0  0  0  3  0  0  0  0  0  0
  191.9700  172.7580  141.8120 C   0  0  0  0  0  0  0  0  0  0  0  0
  192.4120  172.5620  140.7080 C   0  0  0  0  0  3  0  0  0  0  0  0
  192.8680  171.1510  144.0490 C   0  0  0  0  0  2  0  0  0  0  0  0
  194.2580  171.6560  144.4030 C   0  0  0  0  0  2  0  0  0  0  0  0
  195.2680  171.2520  143.3410 C   0  0  0  0  0  2  0  0  0  0  0  0
  195.8950  172.4870  142.7140 C   0  0  1  0  0  3  0  0  0  0  0  0
  195.9230  172.3500  141.3250 O   0  0  0  0  0  1  0  0  0  0  0  0
  195.1190  173.6650  143.0640 N   0  0  0  0  0  2  0  0  0  0  0  0
  195.1300  176.0570  142.9070 C   0  0  1  0  0  3  0  0  0  0  0  0
  196.2170  174.3070  146.0030 C   0  0  0  0  0  2  0  0  0  0  0  0
  196.0970  175.6610  143.9580 C   0  0  2  0  0  3  0  0  0  0  0  0
  195.9110  174.7930  142.7600 N   0  0  0  0  0  0  0  0  0  0  0  0
  192.8560  176.5770  142.3560 O   0  0  0  0  0  1  0  0  0  0  0  0
  194.0960  176.1090  146.9240 O   0  0  0  0  0  1  0  0  0  0  0  0
  193.3720  176.3620  144.6700 C   0  0  0  0  0  2  0  0  0  0  0  0
  193.6410  175.8630  143.2610 C   0  0  2  0  0  3  0  0  0  0  0  0
  194.0840  175.4720  145.6810 C   0  0  1  0  0  3  0  0  0  0  0  0
  195.4930  175.1340  145.2540 C   0  0  0  0  0  0  0  0  0  0  0  0
  186.4420  175.9950  143.0520 N   0  0  0  0  0  2  0  0  0  0  0  0
  186.5390  176.9690  142.0400 N   0  0  0  0  0  2  0  0  0  0  0  0
  183.8950  178.3320  140.1830 O   0  0  0  0  0  0  0  0  0  0  0  0
  185.6750  178.1080  141.9890 C   0  0  0  0  0  0  0  0  0  0  0  0
  184.7610  178.2240  141.0610 C   0  0  0  0  0  0  0  0  0  0  0  0
  185.8230  179.1840  143.0050 C   0  0  0  0  0  2  0  0  0  0  0  0
  185.0460  178.8520  144.1890 N   0  0  0  0  0  2  0  0  0  0  0  0
  185.7240  179.4420  145.3320 C   0  0  0  0  0  2  0  0  0  0  0  0
  184.2760  178.2430  146.8820 N   0  0  0  0  0  2  0  0  0  0  0  0
  185.6770  178.4930  146.5170 C   0  0  1  0  0  3  0  0  0  0  0  0
  185.0390  177.2470  146.1140 C   0  0  0  0  0  2  0  0  0  0  0  0
  1  9  1  0  0  0  0
  2  3  1  0  0  0  0
  2  8  1  0  0  0  0
  3  6  2  0  0  0  0
  4  1  2  0  0  0  0
  5  7  1  6  0  0  0
  5  1  1  0  0  0  0
  6  4  1  0  0  0  0
  8 31  1  6  0  0  0
  8  5  1  0  0  0  0
  9 10  1  0  0  0  0
 11  6  1  0  0  0  0
 11 12  2  0  0  0  0
 13 11  1  0  0  0  0
 14 13  3  0  0  0  0
 15 12  1  0  0  0  0
 15 16  1  0  0  0  0
 17 16  1  0  0  0  0
 18 19  1  6  0  0  0
 18 20  1  0  0  0  0
 18 17  1  0  0  0  0
 21 24  1  6  0  0  0
 21 28  1  0  0  0  0
 21 23  1  0  0  0  0
 23 30  1  1  0  0  0
 24 20  1  0  0  0  0
 24 23  1  0  0  0  0
 27 29  1  0  0  0  0
 28 25  1  6  0  0  0
 28 27  1  0  0  0  0
 29 26  1  1  0  0  0
 30 29  1  0  0  0  0
 30 22  2  0  0  0  0
 32 31  1  0  0  0  0
 33 35  2  0  0  0  0
 34 32  1  0  0  0  0
 34 36  1  0  0  0  0
 35 34  2  0  0  0  0
 36 37  1  0  0  0  0
 37 38  1  0  0  0  0
 40 38  1  6  0  0  0
 40 39  1  0  0  0  0
 41 40  1  0  0  0  0
 41 39  1  0  0  0  0
M  END
>  <MODEL>
1

>  <REMARK>
 VINA RESULT:      -6.0      0.000      0.000
  Name = 
  16 active torsions:
  status: ('A' for Active; 'I' for Inactive)
    1  A    between atoms: C_1  and  O_6
    2  A    between atoms: C_5  and  C_15
    3  A    between atoms: C_5  and  N_23
    4  A    between atoms: N_7  and  N_11
    5  A    between atoms: N_7  and  C_20
    6  A    between atoms: C_8  and  C_35
    7  A    between atoms: N_9  and  C_22
    8  A    between atoms: N_9  and  C_35
    9  A    between atoms: C_10  and  C_28
   10  A    between atoms: C_10  and  C_33
   11  A    between atoms: N_11  and  C_36
   12  A    between atoms: N_14  and  N_23
   13  A    between atoms: C_15  and  C_26
   14  A    between atoms: C_16  and  C_26
   15  A    between atoms: C_16  and  C_32
   16  A    between atoms: C_20  and  C_22
                            x       y       z     vdW  Elec       q    Type
                         _______ _______ _______ _____ _____    ______ ____

>  <TORSDO>
F 16

$$$$
=
 OpenBabel11042419573D

 41 44  0  0  1  0  0  0  0  0999 V2000
  190.2620  175.7160  145.8780 C   0  0  0  0  0  0  0  0  0  0  0  0
  189.5410  177.6840  143.4950 C   0  0  0  0  0  2  0  0  0  0  0  0
  190.9300  177.2470  143.1990 C   0  0  0  0  0  3  0  0  0  0  0  0
  191.3630  175.8210  145.1790 N   0  0  0  0  0  0  0  0  0  0  0  0
  188.9560  176.3650  145.5330 C   0  0  1  0  0  3  0  0  0  0  0  0
  191.7370  176.4690  143.9400 C   0  0  0  0  0  0  0  0  0  0  0  0
  188.7740  177.6450  146.3410 C   0  0  0  0  0  1  0  0  0  0  0  0
  188.7250  176.5310  144.0350 C   0  0  1  0  0  3  0  0  0  0  0  0
  190.2760  174.9670  147.0590 O   0  0  0  0  0  0  0  0  0  0  0  0
  191.1870  175.2290  148.1170 C   0  0  0  0  0  1  0  0  0  0  0  0
  193.1130  176.2200  143.4370 C   0  0  0  0  0  0  0  0  0  0  0  0
  193.3180  176.1050  142.1200 C   0  0  0  0  0  3  0  0  0  0  0  0
  194.2250  176.0930  144.3580 C   0  0  0  0  0  0  0  0  0  0  0  0
  195.1500  175.9880  145.1220 C   0  0  0  0  0  3  0  0  0  0  0  0
  194.6600  175.8630  141.5020 C   0  0  0  0  0  2  0  0  0  0  0  0
  194.7250  174.4700  140.8980 C   0  0  0  0  0  2  0  0  0  0  0  0
  195.1570  173.4480  141.9380 C   0  0  0  0  0  2  0  0  0  0  0  0
  194.3360  172.1770  141.8010 C   0  0  1  0  0  3  0  0  0  0  0  0
  194.9010  171.1620  142.5740 O   0  0  0  0  0  1  0  0  0  0  0  0
  192.9740  172.4190  142.2490 N   0  0  0  0  0  2  0  0  0  0  0  0
  190.8850  171.3040  142.6170 C   0  0  1  0  0  3  0  0  0  0  0  0
  191.4420  173.4510  139.6330 C   0  0  0  0  0  2  0  0  0  0  0  0
  191.0070  171.5840  141.1670 C   0  0  2  0  0  3  0  0  0  0  0  0
  192.2260  171.2580  141.9620 N   0  0  0  0  0  0  0  0  0  0  0  0
  190.2130  172.1050  144.7740 O   0  0  0  0  0  1  0  0  0  0  0  0
  189.0630  174.6080  140.8960 O   0  0  0  0  0  1  0  0  0  0  0  0
  189.5890  173.4320  142.8980 C   0  0  0  0  0  2  0  0  0  0  0  0
  190.6440  172.5320  143.5180 C   0  0  2  0  0  3  0  0  0  0  0  0
  190.1240  174.0490  141.6110 C   0  0  1  0  0  3  0  0  0  0  0  0
  190.8580  173.0440  140.7570 C   0  0  0  0  0  0  0  0  0  0  0  0
  187.3030  176.6250  143.6880 N   0  0  0  0  0  2  0  0  0  0  0  0
  187.0620  177.8000  142.9530 N   0  0  0  0  0  2  0  0  0  0  0  0
  186.2070  177.4000  139.5760 O   0  0  0  0  0  0  0  0  0  0  0  0
  185.9570  177.9280  142.0540 C   0  0  0  0  0  0  0  0  0  0  0  0
  186.0840  177.6580  140.7810 C   0  0  0  0  0  0  0  0  0  0  0  0
  184.6390  178.3830  142.5740 C   0  0  0  0  0  2  0  0  0  0  0  0
  184.8400  179.3580  143.6330 N   0  0  0  0  0  2  0  0  0  0  0  0
  184.1580  178.8600  144.8170 C   0  0  0  0  0  2  0  0  0  0  0  0
  184.4420  178.3300  147.1780 N   0  0  0  0  0  2  0  0  0  0  0  0
  185.1620  178.5820  145.9220 C   0  0  1  0  0  3  0  0  0  0  0  0
  184.9960  177.2140  146.3960 C   0  0  0  0  0  2  0  0  0  0  0  0
  1  9  1  0  0  0  0
  2  8  1  0  0  0  0
  3  2  1  0  0  0  0
  3  6  2  0  0  0  0
  4  1  2  0  0  0  0
  5  1  1  0  0  0  0
  5  7  1  1  0  0  0
  6  4  1  0  0  0  0
  8 31  1  1  0  0  0
  8  5  1  0  0  0  0
  9 10  1  0  0  0  0
 11  6  1  0  0  0  0
 11 13  1  0  0  0  0
 12 11  2  0  0  0  0
 13 14  3  0  0  0  0
 15 12  1  0  0  0  0
 16 15  1  0  0  0  0
 16 17  1  0  0  0  0
 18 17  1  0  0  0  0
 18 20  1  0  0  0  0
 18 19  1  1  0  0  0
 21 24  1  1  0  0  0
 21 28  1  0  0  0  0
 22 30  2  0  0  0  0
 23 30  1  1  0  0  0
 23 24  1  0  0  0  0
 23 21  1  0  0  0  0
 24 20  1  0  0  0  0
 27 28  1  0  0  0  0
 28 25  1  1  0  0  0
 29 26  1  6  0  0  0
 29 27  1  0  0  0  0
 30 29  1  0  0  0  0
 32 31  1  0  0  0  0
 33 35  2  0  0  0  0
 34 36  1  0  0  0  0
 34 32  1  0  0  0  0
 35 34  2  0  0  0  0
 36 37  1  0  0  0  0
 37 38  1  0  0  0  0
 40 38  1  6  0  0  0
 40 41  1  0  0  0  0
 40 39  1  0  0  0  0
 41 39  1  0  0  0  0
M  END
>  <MODEL>
2

>  <REMARK>
 VINA RESULT:      -5.9      1.826      3.921
  Name = 
  16 active torsions:
  status: ('A' for Active; 'I' for Inactive)
    1  A    between atoms: C_1  and  O_6
    2  A    between atoms: C_5  and  C_15
    3  A    between atoms: C_5  and  N_23
    4  A    between atoms: N_7  and  N_11
    5  A    between atoms: N_7  and  C_20
    6  A    between atoms: C_8  and  C_35
    7  A    between atoms: N_9  and  C_22
    8  A    between atoms: N_9  and  C_35
    9  A    between atoms: C_10  and  C_28
   10  A    between atoms: C_10  and  C_33
   11  A    between atoms: N_11  and  C_36
   12  A    between atoms: N_14  and  N_23
   13  A    between atoms: C_15  and  C_26
   14  A    between atoms: C_16  and  C_26
   15  A    between atoms: C_16  and  C_32
   16  A    between atoms: C_20  and  C_22
                            x       y       z     vdW  Elec       q    Type
                         _______ _______ _______ _____ _____    ______ ____

>  <TORSDO>
F 16

$$$$
=
 OpenBabel11042419573D

 41 44  0  0  1  0  0  0  0  0999 V2000
  190.6390  173.0610  139.5380 C   0  0  0  0  0  0  0  0  0  0  0  0
  188.4200  173.1630  141.8050 C   0  0  0  0  0  2  0  0  0  0  0  0
  189.5610  172.4560  142.4430 C   0  0  0  0  0  3  0  0  0  0  0  0
  191.1380  172.3750  140.5330 N   0  0  0  0  0  0  0  0  0  0  0  0
  189.3180  173.7710  139.5560 C   0  0  1  0  0  3  0  0  0  0  0  0
  190.7260  172.0810  141.8890 C   0  0  0  0  0  0  0  0  0  0  0  0
  188.2540  172.9220  138.8720 C   0  0  0  0  0  1  0  0  0  0  0  0
  188.9170  174.2930  140.9310 C   0  0  1  0  0  3  0  0  0  0  0  0
  191.3540  173.1380  138.3380 O   0  0  0  0  0  0  0  0  0  0  0  0
  192.1950  172.0870  137.8840 C   0  0  0  0  0  1  0  0  0  0  0  0
  191.6890  171.3350  142.7400 C   0  0  0  0  0  0  0  0  0  0  0  0
  192.2790  171.9620  143.7650 C   0  0  0  0  0  3  0  0  0  0  0  0
  191.9990  169.9470  142.4640 C   0  0  0  0  0  0  0  0  0  0  0  0
  192.2570  168.7920  142.2330 C   0  0  0  0  0  3  0  0  0  0  0  0
  193.2570  171.3080  144.6910 C   0  0  0  0  0  2  0  0  0  0  0  0
  194.0030  172.3550  145.5030 C   0  0  0  0  0  2  0  0  0  0  0  0
  193.7450  173.7500  144.9570 C   0  0  0  0  0  2  0  0  0  0  0  0
  193.4390  174.7120  146.0930 C   0  0  1  0  0  3  0  0  0  0  0  0
  194.5550  175.5090  146.3520 O   0  0  0  0  0  1  0  0  0  0  0  0
  192.3170  175.5610  145.7310 N   0  0  0  0  0  2  0  0  0  0  0  0
  189.9220  175.5690  145.8290 C   0  0  1  0  0  3  0  0  0  0  0  0
  191.7330  175.5830  142.5820 C   0  0  0  0  0  2  0  0  0  0  0  0
  190.3260  175.0200  144.5130 C   0  0  2  0  0  3  0  0  0  0  0  0
  191.1630  174.7480  145.7170 N   0  0  0  0  0  0  0  0  0  0  0  0
  189.4380  177.5210  147.1340 O   0  0  0  0  0  1  0  0  0  0  0  0
  190.0040  177.9460  142.4300 O   0  0  0  0  0  1  0  0  0  0  0  0
  189.7050  177.8420  144.7900 C   0  0  0  0  0  2  0  0  0  0  0  0
  190.1580  177.0810  146.0240 C   0  0  2  0  0  3  0  0  0  0  0  0
  190.6070  177.5020  143.6100 C   0  0  1  0  0  3  0  0  0  0  0  0
  190.9020  176.0240  143.5220 C   0  0  0  0  0  0  0  0  0  0  0  0
  187.9760  175.4160  140.8580 N   0  0  0  0  0  2  0  0  0  0  0  0
  187.3900  175.6380  142.1190 N   0  0  0  0  0  2  0  0  0  0  0  0
  185.6430  178.1790  140.4500 O   0  0  0  0  0  0  0  0  0  0  0  0
  186.4390  176.6810  142.3480 C   0  0  0  0  0  0  0  0  0  0  0  0
  186.0310  177.4520  141.3740 C   0  0  0  0  0  0  0  0  0  0  0  0
  185.9110  176.9000  143.7210 C   0  0  0  0  0  2  0  0  0  0  0  0
  185.9430  178.3180  144.0400 N   0  0  0  0  0  2  0  0  0  0  0  0
  186.3090  178.4390  145.4420 C   0  0  0  0  0  2  0  0  0  0  0  0
  185.9140  177.5590  147.6790 N   0  0  0  0  0  2  0  0  0  0  0  0
  185.4220  177.5500  146.2950 C   0  0  1  0  0  3  0  0  0  0  0  0
  184.7420  178.3620  147.2960 C   0  0  0  0  0  2  0  0  0  0  0  0
  1  5  1  0  0  0  0
  1  4  2  0  0  0  0
  2  3  1  0  0  0  0
  4  6  1  0  0  0  0
  5  7  1  1  0  0  0
  5  8  1  0  0  0  0
  6  3  2  0  0  0  0
  6 11  1  0  0  0  0
  8 31  1  6  0  0  0
  8  2  1  0  0  0  0
  9  1  1  0  0  0  0
 10  9  1  0  0  0  0
 11 12  2  0  0  0  0
 12 15  1  0  0  0  0
 13 11  1  0  0  0  0
 14 13  3  0  0  0  0
 15 16  1  0  0  0  0
 17 16  1  0  0  0  0
 17 18  1  0  0  0  0
 18 19  1  6  0  0  0
 20 18  1  0  0  0  0
 21 24  1  1  0  0  0
 21 28  1  0  0  0  0
 22 30  2  0  0  0  0
 23 30  1  6  0  0  0
 23 24  1  0  0  0  0
 23 21  1  0  0  0  0
 24 20  1  0  0  0  0
 27 28  1  0  0  0  0
 28 25  1  1  0  0  0
 29 26  1  6  0  0  0
 29 27  1  0  0  0  0
 30 29  1  0  0  0  0
 31 32  1  0  0  0  0
 32 34  1  0  0  0  0
 33 35  2  0  0  0  0
 34 36  1  0  0  0  0
 35 34  2  0  0  0  0
 36 37  1  0  0  0  0
 37 38  1  0  0  0  0
 40 38  1  6  0  0  0
 40 41  1  0  0  0  0
 40 39  1  0  0  0  0
 41 39  1  0  0  0  0
M  END
>  <MODEL>
3

>  <REMARK>
 VINA RESULT:      -5.9      2.247      4.440
  Name = 
  16 active torsions:
  status: ('A' for Active; 'I' for Inactive)
    1  A    between atoms: C_1  and  O_6
    2  A    between atoms: C_5  and  C_15
    3  A    between atoms: C_5  and  N_23
    4  A    between atoms: N_7  and  N_11
    5  A    between atoms: N_7  and  C_20
    6  A    between atoms: C_8  and  C_35
    7  A    between atoms: N_9  and  C_22
    8  A    between atoms: N_9  and  C_35
    9  A    between atoms: C_10  and  C_28
   10  A    between atoms: C_10  and  C_33
   11  A    between atoms: N_11  and  C_36
   12  A    between atoms: N_14  and  N_23
   13  A    between atoms: C_15  and  C_26
   14  A    between atoms: C_16  and  C_26
   15  A    between atoms: C_16  and  C_32
   16  A    between atoms: C_20  and  C_22
                            x       y       z     vdW  Elec       q    Type
                         _______ _______ _______ _____ _____    ______ ____

>  <TORSDO>
F 16

$$$$
=
 OpenBabel11042419573D

 41 44  0  0  1  0  0  0  0  0999 V2000
  185.6770  176.9110  143.9900 C   0  0  0  0  0  0  0  0  0  0  0  0
  185.9410  177.9760  141.0120 C   0  0  0  0  0  2  0  0  0  0  0  0
  186.7600  176.7360  141.0300 C   0  0  0  0  0  3  0  0  0  0  0  0
  186.5290  176.1020  143.4150 N   0  0  0  0  0  0  0  0  0  0  0  0
  184.9660  178.0430  143.3100 C   0  0  1  0  0  3  0  0  0  0  0  0
  187.0470  175.9390  142.0730 C   0  0  0  0  0  0  0  0  0  0  0  0
  185.6740  179.3600  143.6010 C   0  0  0  0  0  1  0  0  0  0  0  0
  184.6840  177.7940  141.8330 C   0  0  1  0  0  3  0  0  0  0  0  0
  185.4040  176.7530  145.3530 O   0  0  0  0  0  0  0  0  0  0  0  0
  186.4110  176.8520  146.3490 C   0  0  0  0  0  1  0  0  0  0  0  0
  187.9380  174.7750  141.8310 C   0  0  0  0  0  0  0  0  0  0  0  0
  188.3290  174.0230  142.8670 C   0  0  0  0  0  3  0  0  0  0  0  0
  188.3890  174.4540  140.4920 C   0  0  0  0  0  0  0  0  0  0  0  0
  188.7640  174.1870  139.3780 C   0  0  0  0  0  3  0  0  0  0  0  0
  189.2170  172.8250  142.7400 C   0  0  0  0  0  2  0  0  0  0  0  0
  190.5730  173.0970  143.3690 C   0  0  0  0  0  2  0  0  0  0  0  0
  191.6800  173.0100  142.3300 C   0  0  0  0  0  2  0  0  0  0  0  0
  192.4200  174.3340  142.2380 C   0  0  1  0  0  3  0  0  0  0  0  0
  192.6280  174.6680  140.8990 O   0  0  0  0  0  1  0  0  0  0  0  0
  191.6400  175.3810  142.8770 N   0  0  0  0  0  2  0  0  0  0  0  0
  191.6260  177.7630  143.1390 C   0  0  1  0  0  3  0  0  0  0  0  0
  192.1600  175.4930  146.0350 C   0  0  0  0  0  2  0  0  0  0  0  0
  192.3900  177.1820  144.2670 C   0  0  2  0  0  3  0  0  0  0  0  0
  192.4490  176.5360  142.9240 N   0  0  0  0  0  0  0  0  0  0  0  0
  189.4820  178.3930  142.2710 O   0  0  0  0  0  1  0  0  0  0  0  0
  189.8650  177.1300  146.8410 O   0  0  0  0  0  1  0  0  0  0  0  0
  189.5650  177.7760  144.5690 C   0  0  0  0  0  2  0  0  0  0  0  0
  190.1020  177.5260  143.1700 C   0  0  2  0  0  3  0  0  0  0  0  0
  190.0980  176.7170  145.5270 C   0  0  1  0  0  3  0  0  0  0  0  0
  191.5690  176.4450  145.3180 C   0  0  0  0  0  0  0  0  0  0  0  0
  183.5550  178.5860  141.3310 N   0  0  0  0  0  2  0  0  0  0  0  0
  182.4570  178.4680  142.2030 N   0  0  0  0  0  2  0  0  0  0  0  0
  179.2410  179.0040  143.4940 O   0  0  0  0  0  0  0  0  0  0  0  0
  181.1190  178.7620  141.7920 C   0  0  0  0  0  0  0  0  0  0  0  0
  180.1540  178.8860  142.6660 C   0  0  0  0  0  0  0  0  0  0  0  0
  180.8170  178.9240  140.3450 C   0  0  0  0  0  2  0  0  0  0  0  0
  179.5520  179.6210  140.1820 N   0  0  0  0  0  2  0  0  0  0  0  0
  179.8500  181.0400  140.0650 C   0  0  0  0  0  2  0  0  0  0  0  0
  178.2840  182.9060  140.0730 N   0  0  0  0  0  2  0  0  0  0  0  0
  178.7470  181.7460  139.2980 C   0  0  1  0  0  3  0  0  0  0  0  0
  179.1930  183.0840  138.9300 C   0  0  0  0  0  2  0  0  0  0  0  0
  1  9  1  0  0  0  0
  2  3  1  0  0  0  0
  2  8  1  0  0  0  0
  3  6  2  0  0  0  0
  4  1  2  0  0  0  0
  5  7  1  6  0  0  0
  5  1  1  0  0  0  0
  6  4  1  0  0  0  0
  8 31  1  6  0  0  0
  8  5  1  0  0  0  0
  9 10  1  0  0  0  0
 11  6  1  0  0  0  0
 11 12  2  0  0  0  0
 13 11  1  0  0  0  0
 14 13  3  0  0  0  0
 15 12  1  0  0  0  0
 15 16  1  0  0  0  0
 17 16  1  0  0  0  0
 18 19  1  6  0  0  0
 18 17  1  0  0  0  0
 18 20  1  0  0  0  0
 20 24  1  0  0  0  0
 21 24  1  6  0  0  0
 21 28  1  0  0  0  0
 21 23  1  0  0  0  0
 23 30  1  1  0  0  0
 24 23  1  0  0  0  0
 27 29  1  0  0  0  0
 28 25  1  6  0  0  0
 28 27  1  0  0  0  0
 29 26  1  1  0  0  0
 30 29  1  0  0  0  0
 30 22  2  0  0  0  0
 31 32  1  0  0  0  0
 34 32  1  0  0  0  0
 34 35  2  0  0  0  0
 35 33  2  0  0  0  0
 36 34  1  0  0  0  0
 37 36  1  0  0  0  0
 38 37  1  0  0  0  0
 40 38  1  1  0  0  0
 40 39  1  0  0  0  0
 41 40  1  0  0  0  0
 41 39  1  0  0  0  0
M  END
>  <MODEL>
4

>  <REMARK>
 VINA RESULT:      -5.9      3.527      5.176
  Name = 
  16 active torsions:
  status: ('A' for Active; 'I' for Inactive)
    1  A    between atoms: C_1  and  O_6
    2  A    between atoms: C_5  and  C_15
    3  A    between atoms: C_5  and  N_23
    4  A    between atoms: N_7  and  N_11
    5  A    between atoms: N_7  and  C_20
    6  A    between atoms: C_8  and  C_35
    7  A    between atoms: N_9  and  C_22
    8  A    between atoms: N_9  and  C_35
    9  A    between atoms: C_10  and  C_28
   10  A    between atoms: C_10  and  C_33
   11  A    between atoms: N_11  and  C_36
   12  A    between atoms: N_14  and  N_23
   13  A    between atoms: C_15  and  C_26
   14  A    between atoms: C_16  and  C_26
   15  A    between atoms: C_16  and  C_32
   16  A    between atoms: C_20  and  C_22
                            x       y       z     vdW  Elec       q    Type
                         _______ _______ _______ _____ _____    ______ ____

>  <TORSDO>
F 16

$$$$
=
 OpenBabel11042419573D

 41 44  0  0  1  0  0  0  0  0999 V2000
  190.1680  175.8070  146.4830 C   0  0  0  0  0  0  0  0  0  0  0  0
  189.1520  177.7850  144.2190 C   0  0  0  0  0  2  0  0  0  0  0  0
  190.5030  177.3690  143.7610 C   0  0  0  0  0  3  0  0  0  0  0  0
  191.1790  175.9330  145.6630 N   0  0  0  0  0  0  0  0  0  0  0  0
  188.8230  176.4430  146.2990 C   0  0  1  0  0  3  0  0  0  0  0  0
  191.4000  176.5960  144.3960 C   0  0  0  0  0  0  0  0  0  0  0  0
  188.7200  177.7130  147.1340 C   0  0  0  0  0  1  0  0  0  0  0  0
  188.4180  176.6170  144.8390 C   0  0  1  0  0  3  0  0  0  0  0  0
  190.3270  175.0490  147.6480 O   0  0  0  0  0  0  0  0  0  0  0  0
  191.3880  175.2750  148.5650 C   0  0  0  0  0  1  0  0  0  0  0  0
  192.7110  176.3700  143.7350 C   0  0  0  0  0  0  0  0  0  0  0  0
  192.7530  176.1860  142.4110 C   0  0  0  0  0  3  0  0  0  0  0  0
  193.9340  176.3380  144.5110 C   0  0  0  0  0  0  0  0  0  0  0  0
  194.9510  176.3100  145.1580 C   0  0  0  0  0  3  0  0  0  0  0  0
  194.0170  175.9580  141.6400 C   0  0  0  0  0  2  0  0  0  0  0  0
  194.0890  174.5220  141.1460 C   0  0  0  0  0  2  0  0  0  0  0  0
  194.8440  173.6470  142.1340 C   0  0  0  0  0  2  0  0  0  0  0  0
  193.9000  172.6480  142.7820 C   0  0  1  0  0  3  0  0  0  0  0  0
  193.9820  172.7510  144.1710 O   0  0  0  0  0  1  0  0  0  0  0  0
  192.5350  172.9160  142.3610 N   0  0  0  0  0  2  0  0  0  0  0  0
  190.5290  171.7180  142.8960 C   0  0  1  0  0  3  0  0  0  0  0  0
  190.9640  173.4130  139.6150 C   0  0  0  0  0  2  0  0  0  0  0  0
  190.6480  171.7790  141.4200 C   0  0  2  0  0  3  0  0  0  0  0  0
  191.8770  171.6710  142.2570 N   0  0  0  0  0  0  0  0  0  0  0  0
  189.7720  172.7920  144.9000 O   0  0  0  0  0  1  0  0  0  0  0  0
  188.4910  174.5720  140.6800 O   0  0  0  0  0  1  0  0  0  0  0  0
  189.0770  173.7630  142.8400 C   0  0  0  0  0  2  0  0  0  0  0  0
  190.1870  173.0500  143.5940 C   0  0  2  0  0  3  0  0  0  0  0  0
  189.5810  174.2110  141.4740 C   0  0  1  0  0  3  0  0  0  0  0  0
  190.3980  173.1420  140.7870 C   0  0  0  0  0  0  0  0  0  0  0  0
  186.9640  176.6950  144.6590 N   0  0  0  0  0  2  0  0  0  0  0  0
  186.5700  178.0350  144.4870 N   0  0  0  0  0  2  0  0  0  0  0  0
  184.1520  178.3470  147.0070 O   0  0  0  0  0  0  0  0  0  0  0  0
  185.2250  178.4710  144.7020 C   0  0  0  0  0  0  0  0  0  0  0  0
  184.6730  178.4070  145.8850 C   0  0  0  0  0  0  0  0  0  0  0  0
  184.4360  179.0010  143.5570 C   0  0  0  0  0  2  0  0  0  0  0  0
  184.2480  177.9550  142.5650 N   0  0  0  0  0  2  0  0  0  0  0  0
  185.0220  178.3270  141.3910 C   0  0  0  0  0  2  0  0  0  0  0  0
  186.6380  177.5070  139.7630 N   0  0  0  0  0  2  0  0  0  0  0  0
  186.0700  177.2690  141.0970 C   0  0  1  0  0  3  0  0  0  0  0  0
  187.3770  177.9020  140.9730 C   0  0  0  0  0  2  0  0  0  0  0  0
  1  9  1  0  0  0  0
  2  8  1  0  0  0  0
  3  2  1  0  0  0  0
  3  6  2  0  0  0  0
  4  1  2  0  0  0  0
  5  1  1  0  0  0  0
  5  7  1  6  0  0  0
  6  4  1  0  0  0  0
  8 31  1  1  0  0  0
  8  5  1  0  0  0  0
  9 10  1  0  0  0  0
 11  6  1  0  0  0  0
 11 13  1  0  0  0  0
 12 11  2  0  0  0  0
 13 14  3  0  0  0  0
 15 12  1  0  0  0  0
 16 15  1  0  0  0  0
 16 17  1  0  0  0  0
 17 18  1  0  0  0  0
 18 19  1  1  0  0  0
 20 18  1  0  0  0  0
 21 24  1  1  0  0  0
 21 28  1  0  0  0  0
 22 30  2  0  0  0  0
 23 30  1  1  0  0  0
 23 24  1  0  0  0  0
 23 21  1  0  0  0  0
 24 20  1  0  0  0  0
 27 28  1  0  0  0  0
 28 25  1  1  0  0  0
 29 26  1  6  0  0  0
 29 27  1  0  0  0  0
 30 29  1  0  0  0  0
 32 31  1  0  0  0  0
 32 34  1  0  0  0  0
 34 35  2  0  0  0  0
 35 33  2  0  0  0  0
 36 34  1  0  0  0  0
 37 36  1  0  0  0  0
 38 37  1  0  0  0  0
 39 41  1  0  0  0  0
 39 40  1  0  0  0  0
 40 38  1  6  0  0  0
 41 40  1  0  0  0  0
M  END
>  <MODEL>
5

>  <REMARK>
 VINA RESULT:      -5.9      2.210      4.654
  Name = 
  16 active torsions:
  status: ('A' for Active; 'I' for Inactive)
    1  A    between atoms: C_1  and  O_6
    2  A    between atoms: C_5  and  C_15
    3  A    between atoms: C_5  and  N_23
    4  A    between atoms: N_7  and  N_11
    5  A    between atoms: N_7  and  C_20
    6  A    between atoms: C_8  and  C_35
    7  A    between atoms: N_9  and  C_22
    8  A    between atoms: N_9  and  C_35
    9  A    between atoms: C_10  and  C_28
   10  A    between atoms: C_10  and  C_33
   11  A    between atoms: N_11  and  C_36
   12  A    between atoms: N_14  and  N_23
   13  A    between atoms: C_15  and  C_26
   14  A    between atoms: C_16  and  C_26
   15  A    between atoms: C_16  and  C_32
   16  A    between atoms: C_20  and  C_22
                            x       y       z     vdW  Elec       q    Type
                         _______ _______ _______ _____ _____    ______ ____

>  <TORSDO>
F 16

$$$$
=
 OpenBabel11042419573D

 41 44  0  0  1  0  0  0  0  0999 V2000
  190.4320  175.1770  144.9530 C   0  0  0  0  0  0  0  0  0  0  0  0
  191.3950  177.9820  143.8220 C   0  0  0  0  0  2  0  0  0  0  0  0
  192.6570  177.2420  144.0860 C   0  0  0  0  0  3  0  0  0  0  0  0
  191.7370  175.1500  145.0440 N   0  0  0  0  0  0  0  0  0  0  0  0
  189.6310  176.3020  144.3700 C   0  0  1  0  0  3  0  0  0  0  0  0
  192.8140  176.0310  144.6470 C   0  0  0  0  0  0  0  0  0  0  0  0
  189.0890  177.1940  145.4800 C   0  0  0  0  0  1  0  0  0  0  0  0
  190.3450  177.0540  143.2530 C   0  0  1  0  0  3  0  0  0  0  0  0
  189.6930  174.0990  145.4530 O   0  0  0  0  0  0  0  0  0  0  0  0
  189.9170  172.7620  145.0310 C   0  0  0  0  0  1  0  0  0  0  0  0
  194.2000  175.5340  144.8450 C   0  0  0  0  0  0  0  0  0  0  0  0
  194.4150  174.5100  145.6790 C   0  0  0  0  0  3  0  0  0  0  0  0
  195.3130  176.1520  144.1530 C   0  0  0  0  0  0  0  0  0  0  0  0
  196.2400  176.6640  143.5770 C   0  0  0  0  0  3  0  0  0  0  0  0
  195.7650  173.9230  145.9480 C   0  0  0  0  0  2  0  0  0  0  0  0
  195.7840  172.4440  145.5960 C   0  0  0  0  0  2  0  0  0  0  0  0
  194.3800  171.8610  145.6310 C   0  0  0  0  0  2  0  0  0  0  0  0
  194.0770  171.1380  144.3290 C   0  0  1  0  0  3  0  0  0  0  0  0
  193.2390  170.0500  144.5760 O   0  0  0  0  0  1  0  0  0  0  0  0
  193.4220  172.0470  143.4020 N   0  0  0  0  0  2  0  0  0  0  0  0
  192.3030  172.0990  141.2840 C   0  0  1  0  0  3  0  0  0  0  0  0
  195.8400  173.1880  141.6400 C   0  0  0  0  0  2  0  0  0  0  0  0
  193.7610  172.0320  141.0310 C   0  0  2  0  0  3  0  0  0  0  0  0
  193.1820  171.3280  142.2110 N   0  0  0  0  0  0  0  0  0  0  0  0
  190.3950  173.4860  141.7100 O   0  0  0  0  0  1  0  0  0  0  0  0
  194.5090  175.5100  140.4450 O   0  0  0  0  0  1  0  0  0  0  0  0
  192.4050  174.5970  141.0860 C   0  0  0  0  0  2  0  0  0  0  0  0
  191.7820  173.4380  141.8440 C   0  0  2  0  0  3  0  0  0  0  0  0
  193.9000  174.6620  141.3730 C   0  0  1  0  0  3  0  0  0  0  0  0
  194.5490  173.2990  141.3390 C   0  0  0  0  0  0  0  0  0  0  0  0
  189.4160  177.7330  142.3430 N   0  0  0  0  0  2  0  0  0  0  0  0
  188.4690  176.8170  141.8480 N   0  0  0  0  0  2  0  0  0  0  0  0
  186.2970  177.3360  139.1440 O   0  0  0  0  0  0  0  0  0  0  0  0
  187.1220  177.1960  141.5480 C   0  0  0  0  0  0  0  0  0  0  0  0
  186.6980  177.2690  140.3140 C   0  0  0  0  0  0  0  0  0  0  0  0
  186.1890  177.5190  142.6600 C   0  0  0  0  0  2  0  0  0  0  0  0
  186.1390  178.9580  142.8570 N   0  0  0  0  0  2  0  0  0  0  0  0
  185.0970  179.2270  143.8350 C   0  0  0  0  0  2  0  0  0  0  0  0
  185.5970  179.1120  146.2170 N   0  0  0  0  0  2  0  0  0  0  0  0
  185.2550  178.3100  145.0350 C   0  0  1  0  0  3  0  0  0  0  0  0
  184.2250  178.6170  146.0190 C   0  0  0  0  0  2  0  0  0  0  0  0
  1  4  2  0  0  0  0
  1  9  1  0  0  0  0
  2  3  1  0  0  0  0
  3  6  2  0  0  0  0
  5  1  1  0  0  0  0
  5  7  1  1  0  0  0
  6 11  1  0  0  0  0
  6  4  1  0  0  0  0
  8 31  1  1  0  0  0
  8  2  1  0  0  0  0
  8  5  1  0  0  0  0
 10  9  1  0  0  0  0
 11 12  2  0  0  0  0
 12 15  1  0  0  0  0
 13 11  1  0  0  0  0
 14 13  3  0  0  0  0
 16 17  1  0  0  0  0
 16 15  1  0  0  0  0
 18 19  1  1  0  0  0
 18 17  1  0  0  0  0
 20 18  1  0  0  0  0
 21 28  1  0  0  0  0
 21 24  1  1  0  0  0
 23 21  1  0  0  0  0
 23 30  1  1  0  0  0
 23 24  1  0  0  0  0
 24 20  1  0  0  0  0
 27 29  1  0  0  0  0
 27 28  1  0  0  0  0
 28 25  1  6  0  0  0
 29 26  1  6  0  0  0
 30 29  1  0  0  0  0
 30 22  2  0  0  0  0
 32 31  1  0  0  0  0
 33 35  2  0  0  0  0
 34 32  1  0  0  0  0
 34 36  1  0  0  0  0
 35 34  2  0  0  0  0
 36 37  1  0  0  0  0
 37 38  1  0  0  0  0
 40 38  1  6  0  0  0
 40 41  1  0  0  0  0
 40 39  1  0  0  0  0
 41 39  1  0  0  0  0
M  END
>  <MODEL>
6

>  <REMARK>
 VINA RESULT:      -5.8      1.987      3.538
  Name = 
  16 active torsions:
  status: ('A' for Active; 'I' for Inactive)
    1  A    between atoms: C_1  and  O_6
    2  A    between atoms: C_5  and  C_15
    3  A    between atoms: C_5  and  N_23
    4  A    between atoms: N_7  and  N_11
    5  A    between atoms: N_7  and  C_20
    6  A    between atoms: C_8  and  C_35
    7  A    between atoms: N_9  and  C_22
    8  A    between atoms: N_9  and  C_35
    9  A    between atoms: C_10  and  C_28
   10  A    between atoms: C_10  and  C_33
   11  A    between atoms: N_11  and  C_36
   12  A    between atoms: N_14  and  N_23
   13  A    between atoms: C_15  and  C_26
   14  A    between atoms: C_16  and  C_26
   15  A    between atoms: C_16  and  C_32
   16  A    between atoms: C_20  and  C_22
                            x       y       z     vdW  Elec       q    Type
                         _______ _______ _______ _____ _____    ______ ____

>  <TORSDO>
F 16

$$$$
=
 OpenBabel11042419573D

 41 44  0  0  1  0  0  0  0  0999 V2000
  189.3150  175.5870  145.4270 C   0  0  0  0  0  0  0  0  0  0  0  0
  189.9800  176.1750  142.3810 C   0  0  0  0  0  2  0  0  0  0  0  0
  190.5370  174.8180  142.6200 C   0  0  0  0  0  3  0  0  0  0  0  0
  190.0280  174.5640  145.0320 N   0  0  0  0  0  0  0  0  0  0  0  0
  188.8860  176.7290  144.5560 C   0  0  1  0  0  3  0  0  0  0  0  0
  190.5930  174.1290  143.7720 C   0  0  0  0  0  0  0  0  0  0  0  0
  189.8180  177.9200  144.7510 C   0  0  0  0  0  1  0  0  0  0  0  0
  188.6600  176.3420  143.0990 C   0  0  1  0  0  3  0  0  0  0  0  0
  188.9250  175.6670  146.7690 O   0  0  0  0  0  0  0  0  0  0  0  0
  188.9430  174.5410  147.6350 C   0  0  0  0  0  1  0  0  0  0  0  0
  191.2520  172.7980  143.7530 C   0  0  0  0  0  0  0  0  0  0  0  0
  192.2720  172.5610  144.5850 C   0  0  0  0  0  3  0  0  0  0  0  0
  190.8070  171.7660  142.8390 C   0  0  0  0  0  0  0  0  0  0  0  0
  190.4370  170.9080  142.0770 C   0  0  0  0  0  3  0  0  0  0  0  0
  193.0040  171.2570  144.6580 C   0  0  0  0  0  2  0  0  0  0  0  0
  194.1820  171.3590  145.6130 C   0  0  0  0  0  2  0  0  0  0  0  0
  195.4360  171.8080  144.8800 C   0  0  0  0  0  2  0  0  0  0  0  0
  195.8750  173.1760  145.3770 C   0  0  1  0  0  3  0  0  0  0  0  0
  197.1350  173.0820  145.9710 O   0  0  0  0  0  1  0  0  0  0  0  0
  195.9380  174.1080  144.2640 N   0  0  0  0  0  2  0  0  0  0  0  0
  195.1990  176.3290  143.7470 C   0  0  1  0  0  3  0  0  0  0  0  0
  194.2050  173.4160  141.6610 C   0  0  0  0  0  2  0  0  0  0  0  0
  194.2410  175.3740  143.1420 C   0  0  2  0  0  3  0  0  0  0  0  0
  194.8950  175.0420  144.4410 N   0  0  0  0  0  0  0  0  0  0  0  0
  197.2520  177.5440  143.5110 O   0  0  0  0  0  1  0  0  0  0  0  0
  195.4560  175.2530  139.7490 O   0  0  0  0  0  1  0  0  0  0  0  0
  196.4400  176.4310  141.5700 C   0  0  0  0  0  2  0  0  0  0  0  0
  196.5890  176.3950  143.0810 C   0  0  2  0  0  3  0  0  0  0  0  0
  195.8830  175.1030  141.0710 C   0  0  1  0  0  3  0  0  0  0  0  0
  194.7480  174.5990  141.9320 C   0  0  0  0  0  0  0  0  0  0  0  0
  187.7440  177.2540  142.4060 N   0  0  0  0  0  2  0  0  0  0  0  0
  186.4100  176.9050  142.6860 N   0  0  0  0  0  2  0  0  0  0  0  0
  183.2780  178.1410  141.7060 O   0  0  0  0  0  0  0  0  0  0  0  0
  185.4240  177.8760  143.0490 C   0  0  0  0  0  0  0  0  0  0  0  0
  184.3220  178.0140  142.3590 C   0  0  0  0  0  0  0  0  0  0  0  0
  185.6600  178.7520  144.2280 C   0  0  0  0  0  2  0  0  0  0  0  0
  184.4020  179.0090  144.9080 N   0  0  0  0  0  2  0  0  0  0  0  0
  184.5360  178.5190  146.2710 C   0  0  0  0  0  2  0  0  0  0  0  0
  186.5680  178.5170  147.6150 N   0  0  0  0  0  2  0  0  0  0  0  0
  185.9020  177.8860  146.4680 C   0  0  1  0  0  3  0  0  0  0  0  0
  185.9360  177.1960  147.7510 C   0  0  0  0  0  2  0  0  0  0  0  0
  1  9  1  0  0  0  0
  2  3  1  0  0  0  0
  2  8  1  0  0  0  0
  3  6  2  0  0  0  0
  4  1  2  0  0  0  0
  5  7  1  6  0  0  0
  5  1  1  0  0  0  0
  6  4  1  0  0  0  0
  8 31  1  6  0  0  0
  8  5  1  0  0  0  0
  9 10  1  0  0  0  0
 11  6  1  0  0  0  0
 11 12  2  0  0  0  0
 12 15  1  0  0  0  0
 13 11  1  0  0  0  0
 14 13  3  0  0  0  0
 15 16  1  0  0  0  0
 17 18  1  0  0  0  0
 17 16  1  0  0  0  0
 18 19  1  6  0  0  0
 20 24  1  0  0  0  0
 20 18  1  0  0  0  0
 21 24  1  1  0  0  0
 22 30  2  0  0  0  0
 23 30  1  6  0  0  0
 23 21  1  0  0  0  0
 23 24  1  0  0  0  0
 27 28  1  0  0  0  0
 28 25  1  1  0  0  0
 28 21  1  0  0  0  0
 29 26  1  6  0  0  0
 29 27  1  0  0  0  0
 29 30  1  0  0  0  0
 31 32  1  0  0  0  0
 32 34  1  0  0  0  0
 33 35  2  0  0  0  0
 34 36  1  0  0  0  0
 35 34  2  0  0  0  0
 36 37  1  0  0  0  0
 37 38  1  0  0  0  0
 39 41  1  0  0  0  0
 40 38  1  1  0  0  0
 40 39  1  0  0  0  0
 40 41  1  0  0  0  0
M  END
>  <MODEL>
7

>  <REMARK>
 VINA RESULT:      -5.7      1.738      2.520
  Name = 
  16 active torsions:
  status: ('A' for Active; 'I' for Inactive)
    1  A    between atoms: C_1  and  O_6
    2  A    between atoms: C_5  and  C_15
    3  A    between atoms: C_5  and  N_23
    4  A    between atoms: N_7  and  N_11
    5  A    between atoms: N_7  and  C_20
    6  A    between atoms: C_8  and  C_35
    7  A    between atoms: N_9  and  C_22
    8  A    between atoms: N_9  and  C_35
    9  A    between atoms: C_10  and  C_28
   10  A    between atoms: C_10  and  C_33
   11  A    between atoms: N_11  and  C_36
   12  A    between atoms: N_14  and  N_23
   13  A    between atoms: C_15  and  C_26
   14  A    between atoms: C_16  and  C_26
   15  A    between atoms: C_16  and  C_32
   16  A    between atoms: C_20  and  C_22
                            x       y       z     vdW  Elec       q    Type
                         _______ _______ _______ _____ _____    ______ ____

>  <TORSDO>
F 16

$$$$
=
 OpenBabel11042419573D

 41 44  0  0  1  0  0  0  0  0999 V2000
  190.5710  173.6480  141.2320 C   0  0  0  0  0  0  0  0  0  0  0  0
  189.7010  173.9520  144.2690 C   0  0  0  0  0  2  0  0  0  0  0  0
  191.0720  173.3820  144.3370 C   0  0  0  0  0  3  0  0  0  0  0  0
  191.5500  173.1190  141.9200 N   0  0  0  0  0  0  0  0  0  0  0  0
  189.3550  174.2990  141.8200 C   0  0  1  0  0  3  0  0  0  0  0  0
  191.8640  172.9870  143.3270 C   0  0  0  0  0  0  0  0  0  0  0  0
  188.1840  173.3240  141.8210 C   0  0  0  0  0  1  0  0  0  0  0  0
  189.6070  174.9780  143.1610 C   0  0  1  0  0  3  0  0  0  0  0  0
  190.6180  173.5970  139.8350 O   0  0  0  0  0  0  0  0  0  0  0  0
  190.3460  172.4090  139.1060 C   0  0  0  0  0  1  0  0  0  0  0  0
  193.1850  172.4000  143.6700 C   0  0  0  0  0  0  0  0  0  0  0  0
  193.5170  172.2430  144.9570 C   0  0  0  0  0  3  0  0  0  0  0  0
  194.1120  172.0060  142.6290 C   0  0  0  0  0  0  0  0  0  0  0  0
  194.8830  171.6800  141.7620 C   0  0  0  0  0  3  0  0  0  0  0  0
  194.8140  171.6550  145.4180 C   0  0  0  0  0  2  0  0  0  0  0  0
  195.8100  172.7560  145.7480 C   0  0  0  0  0  2  0  0  0  0  0  0
  197.1760  172.4450  145.1570 C   0  0  0  0  0  2  0  0  0  0  0  0
  197.5760  173.5220  144.1620 C   0  0  1  0  0  3  0  0  0  0  0  0
  197.9370  172.9350  142.9490 O   0  0  0  0  0  1  0  0  0  0  0  0
  196.4620  174.4290  143.9430 N   0  0  0  0  0  2  0  0  0  0  0  0
  196.1660  176.3030  142.4780 C   0  0  1  0  0  3  0  0  0  0  0  0
  194.8860  176.3460  145.9690 C   0  0  0  0  0  2  0  0  0  0  0  0
  196.0850  176.7940  143.8740 C   0  0  2  0  0  3  0  0  0  0  0  0
  197.0040  175.6680  143.5380 N   0  0  0  0  0  0  0  0  0  0  0  0
  195.0080  175.3520  140.6070 O   0  0  0  0  0  1  0  0  0  0  0  0
  192.5120  176.9120  144.3440 O   0  0  0  0  0  1  0  0  0  0  0  0
  193.6670  176.1010  142.4270 C   0  0  0  0  0  2  0  0  0  0  0  0
  194.9730  175.4530  141.9980 C   0  0  2  0  0  3  0  0  0  0  0  0
  193.5360  176.0510  143.9440 C   0  0  1  0  0  3  0  0  0  0  0  0
  194.8260  176.4120  144.6420 C   0  0  0  0  0  0  0  0  0  0  0  0
  188.6380  176.0420  143.4490 N   0  0  0  0  0  2  0  0  0  0  0  0
  189.1800  176.9500  144.3760 N   0  0  0  0  0  2  0  0  0  0  0  0
  190.4310  177.2640  147.6370 O   0  0  0  0  0  0  0  0  0  0  0  0
  188.7540  176.9960  145.7410 C   0  0  0  0  0  0  0  0  0  0  0  0
  189.6150  177.1330  146.7160 C   0  0  0  0  0  0  0  0  0  0  0  0
  187.3050  176.8790  146.0590 C   0  0  0  0  0  2  0  0  0  0  0  0
  187.0080  177.6200  147.2740 N   0  0  0  0  0  2  0  0  0  0  0  0
  185.9400  178.5570  146.9590 C   0  0  0  0  0  2  0  0  0  0  0  0
  183.8800  178.7130  145.6690 N   0  0  0  0  0  2  0  0  0  0  0  0
  185.2300  178.1350  145.6860 C   0  0  1  0  0  3  0  0  0  0  0  0
  184.9600  179.3100  144.8690 C   0  0  0  0  0  2  0  0  0  0  0  0
  1  5  1  0  0  0  0
  1  4  2  0  0  0  0
  2  3  1  0  0  0  0
  4  6  1  0  0  0  0
  5  7  1  1  0  0  0
  5  8  1  0  0  0  0
  6 11  1  0  0  0  0
  6  3  2  0  0  0  0
  8 31  1  1  0  0  0
  8  2  1  0  0  0  0
  9  1  1  0  0  0  0
 10  9  1  0  0  0  0
 11 12  2  0  0  0  0
 12 15  1  0  0  0  0
 13 11  1  0  0  0  0
 14 13  3  0  0  0  0
 15 16  1  0  0  0  0
 17 16  1  0  0  0  0
 18 19  1  6  0  0  0
 18 17  1  0  0  0  0
 20 18  1  0  0  0  0
 21 24  1  1  0  0  0
 21 23  1  0  0  0  0
 23 30  1  1  0  0  0
 24 23  1  0  0  0  0
 24 20  1  0  0  0  0
 27 29  1  0  0  0  0
 28 25  1  6  0  0  0
 28 27  1  0  0  0  0
 28 21  1  0  0  0  0
 29 26  1  1  0  0  0
 29 30  1  0  0  0  0
 30 22  2  0  0  0  0
 31 32  1  0  0  0  0
 32 34  1  0  0  0  0
 34 36  1  0  0  0  0
 34 35  2  0  0  0  0
 35 33  2  0  0  0  0
 36 37  1  0  0  0  0
 38 37  1  0  0  0  0
 39 40  1  0  0  0  0
 40 38  1  1  0  0  0
 41 39  1  0  0  0  0
 41 40  1  0  0  0  0
M  END
>  <MODEL>
8

>  <REMARK>
 VINA RESULT:      -5.7      2.211      3.725
  Name = 
  16 active torsions:
  status: ('A' for Active; 'I' for Inactive)
    1  A    between atoms: C_1  and  O_6
    2  A    between atoms: C_5  and  C_15
    3  A    between atoms: C_5  and  N_23
    4  A    between atoms: N_7  and  N_11
    5  A    between atoms: N_7  and  C_20
    6  A    between atoms: C_8  and  C_35
    7  A    between atoms: N_9  and  C_22
    8  A    between atoms: N_9  and  C_35
    9  A    between atoms: C_10  and  C_28
   10  A    between atoms: C_10  and  C_33
   11  A    between atoms: N_11  and  C_36
   12  A    between atoms: N_14  and  N_23
   13  A    between atoms: C_15  and  C_26
   14  A    between atoms: C_16  and  C_26
   15  A    between atoms: C_16  and  C_32
   16  A    between atoms: C_20  and  C_22
                            x       y       z     vdW  Elec       q    Type
                         _______ _______ _______ _____ _____    ______ ____

>  <TORSDO>
F 16

$$$$
=
 OpenBabel11042419573D

 41 44  0  0  1  0  0  0  0  0999 V2000
  185.3380  177.5900  144.7710 C   0  0  0  0  0  0  0  0  0  0  0  0
  185.6610  178.5480  141.7630 C   0  0  0  0  0  2  0  0  0  0  0  0
  186.6040  177.4060  141.8850 C   0  0  0  0  0  3  0  0  0  0  0  0
  186.3030  176.8540  144.2820 N   0  0  0  0  0  0  0  0  0  0  0  0
  184.5530  178.6080  144.0000 C   0  0  1  0  0  3  0  0  0  0  0  0
  186.9120  176.6900  142.9800 C   0  0  0  0  0  0  0  0  0  0  0  0
  185.1000  180.0060  144.2630 C   0  0  0  0  0  1  0  0  0  0  0  0
  184.3850  178.2670  142.5240 C   0  0  1  0  0  3  0  0  0  0  0  0
  185.0040  177.4610  146.1240 O   0  0  0  0  0  0  0  0  0  0  0  0
  185.9840  177.4440  147.1520 C   0  0  0  0  0  1  0  0  0  0  0  0
  187.9330  175.6190  142.8430 C   0  0  0  0  0  0  0  0  0  0  0  0
  188.5680  175.1770  143.9340 C   0  0  0  0  0  3  0  0  0  0  0  0
  188.2500  175.0610  141.5430 C   0  0  0  0  0  0  0  0  0  0  0  0
  188.5120  174.5980  140.4620 C   0  0  0  0  0  3  0  0  0  0  0  0
  189.6070  174.0990  143.9160 C   0  0  0  0  0  2  0  0  0  0  0  0
  190.2560  173.9600  145.2830 C   0  0  0  0  0  2  0  0  0  0  0  0
  189.7630  175.0440  146.2290 C   0  0  0  0  0  2  0  0  0  0  0  0
  190.9360  175.6830  146.9540 C   0  0  1  0  0  3  0  0  0  0  0  0
  190.9090  175.3280  148.3030 O   0  0  0  0  0  1  0  0  0  0  0  0
  192.1850  175.2310  146.3640 N   0  0  0  0  0  2  0  0  0  0  0  0
  194.4970  175.8120  146.1180 C   0  0  1  0  0  3  0  0  0  0  0  0
  191.8830  177.2710  143.9130 C   0  0  0  0  0  2  0  0  0  0  0  0
  193.6850  176.9090  145.5410 C   0  0  2  0  0  3  0  0  0  0  0  0
  193.1810  176.1620  146.7300 N   0  0  0  0  0  0  0  0  0  0  0  0
  195.5560  173.6910  145.7670 O   0  0  0  0  0  1  0  0  0  0  0  0
  193.7810  176.0530  142.0400 O   0  0  0  0  0  1  0  0  0  0  0  0
  194.7000  174.7900  143.8370 C   0  0  0  0  0  2  0  0  0  0  0  0
  194.5110  174.4950  145.3150 C   0  0  2  0  0  3  0  0  0  0  0  0
  193.4740  175.5130  143.2910 C   0  0  1  0  0  3  0  0  0  0  0  0
  192.9870  176.5970  144.2230 C   0  0  0  0  0  0  0  0  0  0  0  0
  183.2100  178.9100  141.9250 N   0  0  0  0  0  2  0  0  0  0  0  0
  182.2090  177.9520  141.6760 N   0  0  0  0  0  2  0  0  0  0  0  0
  179.4030  179.0370  143.4780 O   0  0  0  0  0  0  0  0  0  0  0  0
  180.8350  178.3080  141.5030 C   0  0  0  0  0  0  0  0  0  0  0  0
  180.0980  178.6820  142.5170 C   0  0  0  0  0  0  0  0  0  0  0  0
  180.2290  178.2450  140.1460 C   0  0  0  0  0  2  0  0  0  0  0  0
  178.8010  178.5040  140.2330 N   0  0  0  0  0  2  0  0  0  0  0  0
  178.4970  179.5800  139.3040 C   0  0  0  0  0  2  0  0  0  0  0  0
  179.3410  181.8640  139.2330 N   0  0  0  0  0  2  0  0  0  0  0  0
  178.5370  180.9180  140.0190 C   0  0  1  0  0  3  0  0  0  0  0  0
  177.8710  181.9250  139.2040 C   0  0  0  0  0  2  0  0  0  0  0  0
  1  9  1  0  0  0  0
  2  3  1  0  0  0  0
  2  8  1  0  0  0  0
  3  6  2  0  0  0  0
  4  1  2  0  0  0  0
  5  7  1  6  0  0  0
  5  1  1  0  0  0  0
  6  4  1  0  0  0  0
  8 31  1  6  0  0  0
  8  5  1  0  0  0  0
  9 10  1  0  0  0  0
 11  6  1  0  0  0  0
 11 12  2  0  0  0  0
 13 11  1  0  0  0  0
 14 13  3  0  0  0  0
 15 12  1  0  0  0  0
 15 16  1  0  0  0  0
 16 17  1  0  0  0  0
 17 18  1  0  0  0  0
 18 19  1  1  0  0  0
 20 24  1  0  0  0  0
 20 18  1  0  0  0  0
 21 24  1  1  0  0  0
 22 30  2  0  0  0  0
 23 30  1  6  0  0  0
 23 21  1  0  0  0  0
 23 24  1  0  0  0  0
 27 28  1  0  0  0  0
 28 25  1  1  0  0  0
 28 21  1  0  0  0  0
 29 26  1  6  0  0  0
 29 27  1  0  0  0  0
 29 30  1  0  0  0  0
 32 31  1  0  0  0  0
 34 32  1  0  0  0  0
 34 35  2  0  0  0  0
 35 33  2  0  0  0  0
 36 37  1  0  0  0  0
 36 34  1  0  0  0  0
 38 37  1  0  0  0  0
 39 40  1  0  0  0  0
 40 38  1  6  0  0  0
 41 39  1  0  0  0  0
 41 40  1  0  0  0  0
M  END
>  <MODEL>
9

>  <REMARK>
 VINA RESULT:      -5.7      3.469      5.661
  Name = 
  16 active torsions:
  status: ('A' for Active; 'I' for Inactive)
    1  A    between atoms: C_1  and  O_6
    2  A    between atoms: C_5  and  C_15
    3  A    between atoms: C_5  and  N_23
    4  A    between atoms: N_7  and  N_11
    5  A    between atoms: N_7  and  C_20
    6  A    between atoms: C_8  and  C_35
    7  A    between atoms: N_9  and  C_22
    8  A    between atoms: N_9  and  C_35
    9  A    between atoms: C_10  and  C_28
   10  A    between atoms: C_10  and  C_33
   11  A    between atoms: N_11  and  C_36
   12  A    between atoms: N_14  and  N_23
   13  A    between atoms: C_15  and  C_26
   14  A    between atoms: C_16  and  C_26
   15  A    between atoms: C_16  and  C_32
   16  A    between atoms: C_20  and  C_22
                            x       y       z     vdW  Elec       q    Type
                         _______ _______ _______ _____ _____    ______ ____

>  <TORSDO>
F 16

$$$$
