=
 OpenBabel11042414513D

 32 34  0  0  1  0  0  0  0  0999 V2000
  186.3900  177.9520  145.1260 C   0  0  0  0  0  0  0  0  0  0  0  0
  185.9510  178.0760  142.7560 N   0  0  0  0  0  0  0  0  0  0  0  0
  188.8910  174.9120  147.2880 O   0  0  0  0  0  0  0  0  0  0  0  0
  187.5700  175.9840  145.6880 N   0  0  0  0  0  0  0  0  0  0  0  0
  186.9980  177.0540  146.1250 C   0  0  0  0  0  0  0  0  0  0  0  0
  186.8080  177.8350  143.7040 C   0  0  0  0  0  0  0  0  0  0  0  0
  191.1380  176.3540  142.8810 S   0  0  0  0  0  0  0  0  0  0  0  0
  189.7410  175.5480  143.7290 C   0  0  1  0  0  3  0  0  0  0  0  0
  187.1320  177.5060  147.4780 N   0  0  0  0  0  2  0  0  0  0  0  0
  186.3570  178.6390  147.9010 C   0  0  0  0  0  3  0  0  0  0  0  0
  190.6820  176.9370  145.5290 C   0  0  0  0  0  2  0  0  0  0  0  0
  188.7920  175.4410  146.1480 C   0  0  0  0  0  0  0  0  0  0  0  0
  189.9910  175.6170  145.2580 C   0  0  1  0  0  3  0  0  0  0  0  0
  188.4370  176.0480  143.2340 N   0  0  0  0  0  2  0  0  0  0  0  0
  185.7460  179.0450  145.5560 C   0  0  0  0  0  3  0  0  0  0  0  0
  185.6690  179.3620  147.0020 C   0  0  0  0  0  3  0  0  0  0  0  0
  191.6980  177.1690  144.4190 C   0  0  1  0  0  3  0  0  0  0  0  0
  188.2610  177.4960  143.3960 C   0  0  0  0  0  2  0  0  0  0  0  0
  193.0400  176.6530  144.8230 C   0  0  0  0  0  0  0  0  0  0  0  0
  193.8400  175.9700  143.9120 O   0  0  0  0  0  0  0  0  0  0  0  0
  193.4470  176.8330  146.0020 O   0  0  0  0  0  1  0  0  0  0  0  0
  186.2780  178.0180  141.3330 C   0  0  0  0  0  2  0  0  0  0  0  0
  185.0280  178.1480  140.4770 C   0  0  0  0  0  2  0  0  0  0  0  0
  183.7850  178.2690  141.3470 C   0  0  0  0  0  2  0  0  0  0  0  0
  181.2850  178.5000  140.9900 C   0  0  0  0  0  0  0  0  0  0  0  0
  181.1440  179.0610  142.1100 O   0  0  0  0  0  0  0  0  0  0  0  0
  182.5830  178.0950  140.5400 N   0  0  0  0  0  2  0  0  0  0  0  0
  180.0720  178.1910  140.1720 C   0  0  0  0  0  2  0  0  0  0  0  0
  178.7980  178.2290  141.0050 C   0  0  2  0  0  3  0  0  0  0  0  0
  178.2500  176.9480  141.0860 O   0  0  0  0  0  1  0  0  0  0  0  0
  178.4640  180.3330  139.9260 O   0  0  0  0  0  1  0  0  0  0  0  0
  177.8170  179.1620  140.3270 C   0  0  0  0  0  2  0  0  0  0  0  0
  1 15  2  0  0  0  0
  1  5  1  0  0  0  0
  2  6  2  0  0  0  0
  4  5  2  0  0  0  0
  4 12  1  0  0  0  0
  5  9  1  0  0  0  0
  6  1  1  0  0  0  0
  7 17  1  0  0  0  0
  8  7  1  6  0  0  0
  8 13  1  0  0  0  0
  9 10  1  0  0  0  0
 12  3  2  0  0  0  0
 13 11  1  6  0  0  0
 13 12  1  0  0  0  0
 14 18  1  0  0  0  0
 14  8  1  0  0  0  0
 15 16  1  0  0  0  0
 16 10  2  0  0  0  0
 17 19  1  1  0  0  0
 17 11  1  0  0  0  0
 18  6  1  0  0  0  0
 19 21  1  0  0  0  0
 20 19  2  0  0  0  0
 22  2  1  0  0  0  0
 23 22  1  0  0  0  0
 23 24  1  0  0  0  0
 25 26  2  0  0  0  0
 27 25  1  0  0  0  0
 27 24  1  0  0  0  0
 28 25  1  0  0  0  0
 28 29  1  0  0  0  0
 29 30  1  6  0  0  0
 31 32  1  0  0  0  0
 32 29  1  0  0  0  0
M  END
>  <MODEL>
1

>  <REMARK>
 VINA RESULT:      -7.3      0.000      0.000
  Name = 
  8 active torsions:
  status: ('A' for Active; 'I' for Inactive)
    1  A    between atoms: N_2  and  C_10
    2  A    between atoms: C_3  and  C_32
    3  A    between atoms: C_5  and  C_10
    4  A    between atoms: C_5  and  C_17
    5  A    between atoms: C_9  and  C_30
    6  A    between atoms: C_16  and  C_28
    7  A    between atoms: C_16  and  C_32
    8  A    between atoms: C_17  and  N_22
                            x       y       z     vdW  Elec       q    Type
                         _______ _______ _______ _____ _____    ______ ____

>  <TORSDO>
F 8

$$$$
=
 OpenBabel11042414513D

 32 34  0  0  1  0  0  0  0  0999 V2000
  187.4600  176.8630  145.8280 C   0  0  0  0  0  0  0  0  0  0  0  0
  189.1840  175.8800  147.2010 N   0  0  0  0  0  0  0  0  0  0  0  0
  187.8130  178.2460  141.5690 O   0  0  0  0  0  0  0  0  0  0  0  0
  188.3210  177.6130  143.7590 N   0  0  0  0  0  0  0  0  0  0  0  0
  187.2860  177.5310  144.5250 C   0  0  0  0  0  0  0  0  0  0  0  0
  188.6310  175.9700  146.0270 C   0  0  0  0  0  0  0  0  0  0  0  0
  190.3010  173.7890  142.2750 S   0  0  0  0  0  0  0  0  0  0  0  0
  190.1430  175.5650  142.6540 C   0  0  1  0  0  3  0  0  0  0  0  0
  185.9620  177.8460  144.0750 N   0  0  0  0  0  0  0  0  0  0  0  0
  184.8940  177.8440  145.0350 C   0  0  0  0  0  3  0  0  0  0  0  0
  187.8900  175.0310  141.8180 C   0  0  0  0  0  2  0  0  0  0  0  0
  188.3420  177.4180  142.3590 C   0  0  0  0  0  0  0  0  0  0  0  0
  188.9330  176.1270  141.8620 C   0  0  1  0  0  3  0  0  0  0  0  0
  190.1740  175.8180  144.1130 N   0  0  0  0  0  2  0  0  0  0  0  0
  186.4150  176.8080  146.6630 C   0  0  0  0  0  3  0  0  0  0  0  0
  185.1020  177.3810  146.2780 C   0  0  0  0  0  2  0  0  0  0  0  0
  188.6100  173.7100  141.5830 C   0  0  1  0  0  3  0  0  0  0  0  0
  189.1140  175.1250  144.8550 C   0  0  0  0  0  2  0  0  0  0  0  0
  188.6590  173.3970  140.1230 C   0  0  0  0  0  0  0  0  0  0  0  0
  189.5430  174.0700  139.2840 O   0  0  0  0  0  0  0  0  0  0  0  0
  187.8890  172.5210  139.6470 O   0  0  0  0  0  1  0  0  0  0  0  0
  190.3170  175.0070  147.5000 C   0  0  0  0  0  2  0  0  0  0  0  0
  191.4460  175.7800  148.1630 C   0  0  0  0  0  2  0  0  0  0  0  0
  192.1580  176.6700  147.1540 C   0  0  0  0  0  2  0  0  0  0  0  0
  194.3240  176.4020  145.8630 C   0  0  0  0  0  0  0  0  0  0  0  0
  194.6850  177.5730  146.1610 O   0  0  0  0  0  0  0  0  0  0  0  0
  193.0800  175.8820  146.3440 N   0  0  0  0  0  2  0  0  0  0  0  0
  195.1750  175.5890  144.9390 C   0  0  0  0  0  2  0  0  0  0  0  0
  194.8110  175.8210  143.4790 C   0  0  2  0  0  3  0  0  0  0  0  0
  194.2200  174.6710  142.9520 O   0  0  0  0  0  1  0  0  0  0  0  0
  196.8560  177.0530  143.4330 O   0  0  0  0  0  1  0  0  0  0  0  0
  196.0810  176.1360  142.7190 C   0  0  0  0  0  2  0  0  0  0  0  0
  1  6  1  0  0  0  0
  1 15  2  0  0  0  0
  2 22  1  0  0  0  0
  3 12  2  0  0  0  0
  4  5  2  0  0  0  0
  5  1  1  0  0  0  0
  6  2  2  0  0  0  0
  8  7  1  1  0  0  0
  8 14  1  0  0  0  0
  9  5  1  0  0  0  0
  9 10  2  0  0  0  0
 10 16  1  0  0  0  0
 12  4  1  0  0  0  0
 13 11  1  1  0  0  0
 13 12  1  0  0  0  0
 13  8  1  0  0  0  0
 14 18  1  0  0  0  0
 16 15  1  0  0  0  0
 17 19  1  6  0  0  0
 17 11  1  0  0  0  0
 17  7  1  0  0  0  0
 18  6  1  0  0  0  0
 20 19  2  0  0  0  0
 21 19  1  0  0  0  0
 22 23  1  0  0  0  0
 24 23  1  0  0  0  0
 25 26  2  0  0  0  0
 25 27  1  0  0  0  0
 27 24  1  0  0  0  0
 28 25  1  0  0  0  0
 29 30  1  6  0  0  0
 29 28  1  0  0  0  0
 32 31  1  0  0  0  0
 32 29  1  0  0  0  0
M  END
>  <MODEL>
2

>  <REMARK>
 VINA RESULT:      -7.3      4.339      9.282
  Name = 
  8 active torsions:
  status: ('A' for Active; 'I' for Inactive)
    1  A    between atoms: N_2  and  C_10
    2  A    between atoms: C_3  and  C_32
    3  A    between atoms: C_5  and  C_10
    4  A    between atoms: C_5  and  C_17
    5  A    between atoms: C_9  and  C_30
    6  A    between atoms: C_16  and  C_28
    7  A    between atoms: C_16  and  C_32
    8  A    between atoms: C_17  and  N_22
                            x       y       z     vdW  Elec       q    Type
                         _______ _______ _______ _____ _____    ______ ____

>  <TORSDO>
F 8

$$$$
=
 OpenBabel11042414513D

 32 34  0  0  1  0  0  0  0  0999 V2000
  187.5520  176.9110  145.8980 C   0  0  0  0  0  0  0  0  0  0  0  0
  189.3770  176.0890  147.2470 N   0  0  0  0  0  0  0  0  0  0  0  0
  187.6890  178.1740  141.5900 O   0  0  0  0  0  0  0  0  0  0  0  0
  188.3010  177.6480  143.7820 N   0  0  0  0  0  0  0  0  0  0  0  0
  187.2960  177.5240  144.5810 C   0  0  0  0  0  0  0  0  0  0  0  0
  188.7850  176.1030  146.0880 C   0  0  0  0  0  0  0  0  0  0  0  0
  190.4870  173.9160  142.3550 S   0  0  0  0  0  0  0  0  0  0  0  0
  190.2220  175.6890  142.6840 C   0  0  1  0  0  3  0  0  0  0  0  0
  185.9420  177.7350  144.1630 N   0  0  0  0  0  0  0  0  0  0  0  0
  184.9040  177.6950  145.1550 C   0  0  0  0  0  3  0  0  0  0  0  0
  187.9870  174.9810  141.9350 C   0  0  0  0  0  2  0  0  0  0  0  0
  188.2950  177.4100  142.3880 C   0  0  0  0  0  0  0  0  0  0  0  0
  188.9560  176.1450  141.9130 C   0  0  1  0  0  3  0  0  0  0  0  0
  190.2790  175.9920  144.1320 N   0  0  0  0  0  2  0  0  0  0  0  0
  186.5370  176.8150  146.7670 C   0  0  0  0  0  3  0  0  0  0  0  0
  185.1790  177.2880  146.4050 C   0  0  0  0  0  2  0  0  0  0  0  0
  188.7870  173.7040  141.7180 C   0  0  1  0  0  3  0  0  0  0  0  0
  189.2890  175.2550  144.9280 C   0  0  0  0  0  2  0  0  0  0  0  0
  188.8150  173.3470  140.2670 C   0  0  0  0  0  0  0  0  0  0  0  0
  189.8650  173.7650  139.4560 O   0  0  0  0  0  0  0  0  0  0  0  0
  187.8750  172.6680  139.7750 O   0  0  0  0  0  1  0  0  0  0  0  0
  190.5730  175.3020  147.5380 C   0  0  0  0  0  2  0  0  0  0  0  0
  191.7720  176.2010  147.7910 C   0  0  0  0  0  2  0  0  0  0  0  0
  192.7850  176.0870  146.6600 C   0  0  0  0  0  2  0  0  0  0  0  0
  193.3770  174.2830  144.9790 C   0  0  0  0  0  0  0  0  0  0  0  0
  193.6080  175.1440  144.0870 O   0  0  0  0  0  0  0  0  0  0  0  0
  192.9800  174.6890  146.2930 N   0  0  0  0  0  2  0  0  0  0  0  0
  193.4470  172.8320  144.6260 C   0  0  0  0  0  2  0  0  0  0  0  0
  194.2590  172.0380  145.6400 C   0  0  2  0  0  3  0  0  0  0  0  0
  195.5790  172.4910  145.6470 O   0  0  0  0  0  1  0  0  0  0  0  0
  194.7140  169.7800  146.2720 O   0  0  0  0  0  1  0  0  0  0  0  0
  194.2230  170.5790  145.2380 C   0  0  0  0  0  2  0  0  0  0  0  0
  1  6  1  0  0  0  0
  1 15  2  0  0  0  0
  2 22  1  0  0  0  0
  3 12  2  0  0  0  0
  4  5  2  0  0  0  0
  5  1  1  0  0  0  0
  6  2  2  0  0  0  0
  8  7  1  1  0  0  0
  8 14  1  0  0  0  0
  9  5  1  0  0  0  0
  9 10  2  0  0  0  0
 10 16  1  0  0  0  0
 12  4  1  0  0  0  0
 13 11  1  1  0  0  0
 13 12  1  0  0  0  0
 13  8  1  0  0  0  0
 14 18  1  0  0  0  0
 16 15  1  0  0  0  0
 17 19  1  6  0  0  0
 17 11  1  0  0  0  0
 17  7  1  0  0  0  0
 18  6  1  0  0  0  0
 20 19  2  0  0  0  0
 21 19  1  0  0  0  0
 22 23  1  0  0  0  0
 24 23  1  0  0  0  0
 25 27  1  0  0  0  0
 26 25  2  0  0  0  0
 27 24  1  0  0  0  0
 28 25  1  0  0  0  0
 28 29  1  0  0  0  0
 29 30  1  6  0  0  0
 32 29  1  0  0  0  0
 32 31  1  0  0  0  0
M  END
>  <MODEL>
3

>  <REMARK>
 VINA RESULT:      -7.1      4.319      9.453
  Name = 
  8 active torsions:
  status: ('A' for Active; 'I' for Inactive)
    1  A    between atoms: N_2  and  C_10
    2  A    between atoms: C_3  and  C_32
    3  A    between atoms: C_5  and  C_10
    4  A    between atoms: C_5  and  C_17
    5  A    between atoms: C_9  and  C_30
    6  A    between atoms: C_16  and  C_28
    7  A    between atoms: C_16  and  C_32
    8  A    between atoms: C_17  and  N_22
                            x       y       z     vdW  Elec       q    Type
                         _______ _______ _______ _____ _____    ______ ____

>  <TORSDO>
F 8

$$$$
=
 OpenBabel11042414513D

 32 34  0  0  1  0  0  0  0  0999 V2000
  189.8530  176.3640  143.8940 C   0  0  0  0  0  0  0  0  0  0  0  0
  188.0900  177.5500  142.7500 N   0  0  0  0  0  0  0  0  0  0  0  0
  190.1480  171.9430  144.6260 O   0  0  0  0  0  0  0  0  0  0  0  0
  189.3200  174.0800  144.1800 N   0  0  0  0  0  0  0  0  0  0  0  0
  190.1700  175.0210  144.4150 C   0  0  0  0  0  0  0  0  0  0  0  0
  188.8490  176.4950  142.8060 C   0  0  0  0  0  0  0  0  0  0  0  0
  188.4230  172.9160  139.8690 S   0  0  0  0  0  0  0  0  0  0  0  0
  188.1720  173.0190  141.6710 C   0  0  1  0  0  3  0  0  0  0  0  0
  191.4790  174.7700  144.9430 N   0  0  0  0  0  0  0  0  0  0  0  0
  192.3050  175.8930  145.2870 C   0  0  0  0  0  3  0  0  0  0  0  0
  190.6080  172.7000  141.5240 C   0  0  0  0  0  2  0  0  0  0  0  0
  189.6260  172.7500  143.8110 C   0  0  0  0  0  0  0  0  0  0  0  0
  189.3970  172.3750  142.3730 C   0  0  1  0  0  3  0  0  0  0  0  0
  187.7920  174.3870  142.0940 N   0  0  0  0  0  2  0  0  0  0  0  0
  190.6940  177.3700  144.1660 C   0  0  0  0  0  3  0  0  0  0  0  0
  191.9310  177.1380  144.9510 C   0  0  0  0  0  2  0  0  0  0  0  0
  190.2060  172.5590  140.0630 C   0  0  1  0  0  3  0  0  0  0  0  0
  188.7830  175.4100  141.7390 C   0  0  0  0  0  2  0  0  0  0  0  0
  190.5190  171.1860  139.5650 C   0  0  0  0  0  0  0  0  0  0  0  0
  191.6220  170.4910  140.0530 O   0  0  0  0  0  1  0  0  0  0  0  0
  189.7820  170.6570  138.6910 O   0  0  0  0  0  0  0  0  0  0  0  0
  187.0980  177.7810  141.7020 C   0  0  0  0  0  2  0  0  0  0  0  0
  185.7310  177.2610  142.1160 C   0  0  0  0  0  2  0  0  0  0  0  0
  184.7600  178.4110  142.3450 C   0  0  0  0  0  2  0  0  0  0  0  0
  184.7740  179.0180  144.8070 C   0  0  0  0  0  0  0  0  0  0  0  0
  185.7940  179.7450  144.6550 O   0  0  0  0  0  0  0  0  0  0  0  0
  184.1960  178.3380  143.6880 N   0  0  0  0  0  2  0  0  0  0  0  0
  184.2230  178.8140  146.1820 C   0  0  0  0  0  2  0  0  0  0  0  0
  185.1090  177.9020  147.0210 C   0  0  2  0  0  3  0  0  0  0  0  0
  186.2540  178.5930  147.4190 O   0  0  0  0  0  1  0  0  0  0  0  0
  186.8840  176.5360  146.1950 O   0  0  0  0  0  1  0  0  0  0  0  0
  185.4990  176.7110  146.1730 C   0  0  0  0  0  2  0  0  0  0  0  0
  1 15  2  0  0  0  0
  1  5  1  0  0  0  0
  2  6  2  0  0  0  0
  4  5  2  0  0  0  0
  5  9  1  0  0  0  0
  6  1  1  0  0  0  0
  7 17  1  0  0  0  0
  8  7  1  6  0  0  0
  8 14  1  0  0  0  0
  8 13  1  0  0  0  0
  9 10  2  0  0  0  0
 12  4  1  0  0  0  0
 12  3  2  0  0  0  0
 13 11  1  6  0  0  0
 13 12  1  0  0  0  0
 15 16  1  0  0  0  0
 16 10  1  0  0  0  0
 17 19  1  1  0  0  0
 17 11  1  0  0  0  0
 18 14  1  0  0  0  0
 18  6  1  0  0  0  0
 19 20  1  0  0  0  0
 21 19  2  0  0  0  0
 22 23  1  0  0  0  0
 22  2  1  0  0  0  0
 23 24  1  0  0  0  0
 24 27  1  0  0  0  0
 25 28  1  0  0  0  0
 26 25  2  0  0  0  0
 27 25  1  0  0  0  0
 28 29  1  0  0  0  0
 29 30  1  6  0  0  0
 32 31  1  0  0  0  0
 32 29  1  0  0  0  0
M  END
>  <MODEL>
4

>  <REMARK>
 VINA RESULT:      -6.9      3.965      5.989
  Name = 
  8 active torsions:
  status: ('A' for Active; 'I' for Inactive)
    1  A    between atoms: N_2  and  C_10
    2  A    between atoms: C_3  and  C_32
    3  A    between atoms: C_5  and  C_10
    4  A    between atoms: C_5  and  C_17
    5  A    between atoms: C_9  and  C_30
    6  A    between atoms: C_16  and  C_28
    7  A    between atoms: C_16  and  C_32
    8  A    between atoms: C_17  and  N_22
                            x       y       z     vdW  Elec       q    Type
                         _______ _______ _______ _____ _____    ______ ____

>  <TORSDO>
F 8

$$$$
=
 OpenBabel11042414513D

 32 34  0  0  1  0  0  0  0  0999 V2000
  189.1740  174.6170  141.2560 C   0  0  0  0  0  0  0  0  0  0  0  0
  187.7300  176.5170  140.8920 N   0  0  0  0  0  0  0  0  0  0  0  0
  193.2080  174.5870  143.2310 O   0  0  0  0  0  0  0  0  0  0  0  0
  191.2730  175.2750  142.1180 N   0  0  0  0  0  0  0  0  0  0  0  0
  190.5430  174.2960  141.7030 C   0  0  0  0  0  0  0  0  0  0  0  0
  188.5600  175.9020  141.6830 C   0  0  0  0  0  0  0  0  0  0  0  0
  189.9360  177.6600  145.7620 S   0  0  0  0  0  0  0  0  0  0  0  0
  190.8730  177.2920  144.2420 C   0  0  1  0  0  3  0  0  0  0  0  0
  190.9160  172.9230  141.8720 N   0  0  0  0  0  2  0  0  0  0  0  0
  190.0980  171.9110  141.2650 C   0  0  0  0  0  3  0  0  0  0  0  0
  190.8200  175.0900  145.3410 C   0  0  0  0  0  2  0  0  0  0  0  0
  192.1400  175.2550  143.2360 C   0  0  0  0  0  0  0  0  0  0  0  0
  191.6760  175.9840  144.4670 C   0  0  1  0  0  3  0  0  0  0  0  0
  190.0120  177.3590  143.0390 N   0  0  0  0  0  2  0  0  0  0  0  0
  188.4110  173.6280  140.7730 C   0  0  0  0  0  3  0  0  0  0  0  0
  188.9180  172.2360  140.7120 C   0  0  0  0  0  3  0  0  0  0  0  0
  190.1660  175.9630  146.4030 C   0  0  1  0  0  3  0  0  0  0  0  0
  188.8730  176.4340  143.0760 C   0  0  0  0  0  2  0  0  0  0  0  0
  190.9970  175.9830  147.6450 C   0  0  0  0  0  0  0  0  0  0  0  0
  191.1710  177.1640  148.3600 O   0  0  0  0  0  1  0  0  0  0  0  0
  191.5490  174.9230  148.0420 O   0  0  0  0  0  0  0  0  0  0  0  0
  187.0550  177.7650  141.2380 C   0  0  0  0  0  2  0  0  0  0  0  0
  185.5550  177.6570  141.0170 C   0  0  0  0  0  2  0  0  0  0  0  0
  184.7890  178.2930  142.1690 C   0  0  0  0  0  2  0  0  0  0  0  0
  185.7810  178.0070  144.4850 C   0  0  0  0  0  0  0  0  0  0  0  0
  186.3160  179.1470  144.4320 O   0  0  0  0  0  0  0  0  0  0  0  0
  184.9880  177.5270  143.3940 N   0  0  0  0  0  2  0  0  0  0  0  0
  186.0470  177.1300  145.6670 C   0  0  0  0  0  2  0  0  0  0  0  0
  185.0590  177.3830  146.7980 C   0  0  2  0  0  3  0  0  0  0  0  0
  184.1070  178.3200  146.3920 O   0  0  0  0  0  1  0  0  0  0  0  0
  186.1950  179.2470  147.7660 O   0  0  0  0  0  1  0  0  0  0  0  0
  185.8270  177.9190  147.9870 C   0  0  0  0  0  2  0  0  0  0  0  0
  1  6  1  0  0  0  0
  1  5  1  0  0  0  0
  2 22  1  0  0  0  0
  2  6  2  0  0  0  0
  3 12  2  0  0  0  0
  4 12  1  0  0  0  0
  5  9  1  0  0  0  0
  5  4  2  0  0  0  0
  6 18  1  0  0  0  0
  7 17  1  0  0  0  0
  8 14  1  6  0  0  0
  8 13  1  0  0  0  0
  8  7  1  0  0  0  0
 10  9  1  0  0  0  0
 11 17  1  0  0  0  0
 12 13  1  0  0  0  0
 13 11  1  6  0  0  0
 14 18  1  0  0  0  0
 15  1  2  0  0  0  0
 16 15  1  0  0  0  0
 16 10  2  0  0  0  0
 17 19  1  1  0  0  0
 19 21  2  0  0  0  0
 19 20  1  0  0  0  0
 23 22  1  0  0  0  0
 23 24  1  0  0  0  0
 24 27  1  0  0  0  0
 25 28  1  0  0  0  0
 26 25  2  0  0  0  0
 27 25  1  0  0  0  0
 28 29  1  0  0  0  0
 29 30  1  6  0  0  0
 29 32  1  0  0  0  0
 31 32  1  0  0  0  0
M  END
>  <MODEL>
5

>  <REMARK>
 VINA RESULT:      -6.7      3.591      5.939
  Name = 
  8 active torsions:
  status: ('A' for Active; 'I' for Inactive)
    1  A    between atoms: N_2  and  C_10
    2  A    between atoms: C_3  and  C_32
    3  A    between atoms: C_5  and  C_10
    4  A    between atoms: C_5  and  C_17
    5  A    between atoms: C_9  and  C_30
    6  A    between atoms: C_16  and  C_28
    7  A    between atoms: C_16  and  C_32
    8  A    between atoms: C_17  and  N_22
                            x       y       z     vdW  Elec       q    Type
                         _______ _______ _______ _____ _____    ______ ____

>  <TORSDO>
F 8

$$$$
=
 OpenBabel11042414513D

 32 34  0  0  1  0  0  0  0  0999 V2000
  192.2500  175.1380  146.2480 C   0  0  0  0  0  0  0  0  0  0  0  0
  190.0010  175.4100  147.0820 N   0  0  0  0  0  0  0  0  0  0  0  0
  193.8330  171.8010  143.6930 O   0  0  0  0  0  0  0  0  0  0  0  0
  192.5290  173.0530  145.1710 N   0  0  0  0  0  0  0  0  0  0  0  0
  193.0960  174.1460  145.5580 C   0  0  0  0  0  0  0  0  0  0  0  0
  190.7730  175.0530  146.0970 C   0  0  0  0  0  0  0  0  0  0  0  0
  189.1430  173.2560  142.1310 S   0  0  0  0  0  0  0  0  0  0  0  0
  190.2020  172.5300  143.4260 C   0  0  1  0  0  3  0  0  0  0  0  0
  194.4170  174.5210  145.1490 N   0  0  0  0  0  0  0  0  0  0  0  0
  195.0060  175.6940  145.7320 C   0  0  0  0  0  3  0  0  0  0  0  0
  191.8470  173.7500  142.0610 C   0  0  0  0  0  2  0  0  0  0  0  0
  192.7470  172.3890  143.9420 C   0  0  0  0  0  0  0  0  0  0  0  0
  191.6630  172.5070  142.9060 C   0  0  1  0  0  3  0  0  0  0  0  0
  189.9630  173.1610  144.7450 N   0  0  0  0  0  2  0  0  0  0  0  0
  192.8220  176.2590  146.7040 C   0  0  0  0  0  3  0  0  0  0  0  0
  194.2680  176.5130  146.4980 C   0  0  0  0  0  2  0  0  0  0  0  0
  190.5810  173.9480  141.2390 C   0  0  1  0  0  3  0  0  0  0  0  0
  190.2000  174.6090  144.7580 C   0  0  0  0  0  2  0  0  0  0  0  0
  190.7230  173.3030  139.8990 C   0  0  0  0  0  0  0  0  0  0  0  0
  191.7530  173.6760  139.0400 O   0  0  0  0  0  0  0  0  0  0  0  0
  189.8980  172.4210  139.5420 O   0  0  0  0  0  1  0  0  0  0  0  0
  188.5420  175.3920  147.0160 C   0  0  0  0  0  2  0  0  0  0  0  0
  187.9830  176.7930  146.8300 C   0  0  0  0  0  2  0  0  0  0  0  0
  186.5040  176.8400  147.1860 C   0  0  0  0  0  2  0  0  0  0  0  0
  185.1740  178.3400  145.6330 C   0  0  0  0  0  0  0  0  0  0  0  0
  185.4220  179.3510  146.3440 O   0  0  0  0  0  0  0  0  0  0  0  0
  185.7010  177.0560  145.9880 N   0  0  0  0  0  2  0  0  0  0  0  0
  184.2590  178.4810  144.4580 C   0  0  0  0  0  2  0  0  0  0  0  0
  184.9660  178.1690  143.1460 C   0  0  2  0  0  3  0  0  0  0  0  0
  185.9370  179.1370  142.8900 O   0  0  0  0  0  1  0  0  0  0  0  0
  184.5440  178.4370  140.8110 O   0  0  0  0  0  1  0  0  0  0  0  0
  183.9330  178.1770  142.0390 C   0  0  0  0  0  2  0  0  0  0  0  0
  1 15  2  0  0  0  0
  3 12  2  0  0  0  0
  4  5  2  0  0  0  0
  5  1  1  0  0  0  0
  6  1  1  0  0  0  0
  6  2  2  0  0  0  0
  8  7  1  6  0  0  0
  8 14  1  0  0  0  0
  9  5  1  0  0  0  0
  9 10  2  0  0  0  0
 10 16  1  0  0  0  0
 12  4  1  0  0  0  0
 13 11  1  1  0  0  0
 13  8  1  0  0  0  0
 13 12  1  0  0  0  0
 14 18  1  0  0  0  0
 16 15  1  0  0  0  0
 17 19  1  6  0  0  0
 17 11  1  0  0  0  0
 17  7  1  0  0  0  0
 18  6  1  0  0  0  0
 20 19  2  0  0  0  0
 21 19  1  0  0  0  0
 22  2  1  0  0  0  0
 23 22  1  0  0  0  0
 23 24  1  0  0  0  0
 25 27  1  0  0  0  0
 25 26  2  0  0  0  0
 27 24  1  0  0  0  0
 28 25  1  0  0  0  0
 29 30  1  6  0  0  0
 29 28  1  0  0  0  0
 31 32  1  0  0  0  0
 32 29  1  0  0  0  0
M  END
>  <MODEL>
6

>  <REMARK>
 VINA RESULT:      -6.7      3.606      6.400
  Name = 
  8 active torsions:
  status: ('A' for Active; 'I' for Inactive)
    1  A    between atoms: N_2  and  C_10
    2  A    between atoms: C_3  and  C_32
    3  A    between atoms: C_5  and  C_10
    4  A    between atoms: C_5  and  C_17
    5  A    between atoms: C_9  and  C_30
    6  A    between atoms: C_16  and  C_28
    7  A    between atoms: C_16  and  C_32
    8  A    between atoms: C_17  and  N_22
                            x       y       z     vdW  Elec       q    Type
                         _______ _______ _______ _____ _____    ______ ____

>  <TORSDO>
F 8

$$$$
=
 OpenBabel11042414513D

 32 34  0  0  1  0  0  0  0  0999 V2000
  190.4330  175.6050  145.0920 C   0  0  0  0  0  0  0  0  0  0  0  0
  189.0160  175.4450  143.1450 N   0  0  0  0  0  0  0  0  0  0  0  0
  194.3950  173.5980  145.7630 O   0  0  0  0  0  0  0  0  0  0  0  0
  192.2670  174.1220  144.9550 N   0  0  0  0  0  0  0  0  0  0  0  0
  191.6450  174.9950  145.6720 C   0  0  0  0  0  0  0  0  0  0  0  0
  190.2230  175.5320  143.6220 C   0  0  0  0  0  0  0  0  0  0  0  0
  194.0190  175.3770  140.9420 S   0  0  0  0  0  0  0  0  0  0  0  0
  193.4240  174.2410  142.2370 C   0  0  1  0  0  3  0  0  0  0  0  0
  192.1970  175.5480  146.8720 N   0  0  0  0  0  0  0  0  0  0  0  0
  191.3750  176.4190  147.6660 C   0  0  0  0  0  3  0  0  0  0  0  0
  194.5780  175.9580  143.5710 C   0  0  0  0  0  2  0  0  0  0  0  0
  193.6690  174.0020  144.8150 C   0  0  0  0  0  0  0  0  0  0  0  0
  194.2650  174.4770  143.5180 C   0  0  1  0  0  3  0  0  0  0  0  0
  191.9500  174.2940  142.3760 N   0  0  0  0  0  2  0  0  0  0  0  0
  189.7390  176.4770  145.8340 C   0  0  0  0  0  3  0  0  0  0  0  0
  190.1910  176.8440  147.1980 C   0  0  0  0  0  2  0  0  0  0  0  0
  194.9060  176.4160  142.1570 C   0  0  1  0  0  3  0  0  0  0  0  0
  191.4360  175.6290  142.7060 C   0  0  0  0  0  2  0  0  0  0  0  0
  196.3800  176.3550  141.9180 C   0  0  0  0  0  0  0  0  0  0  0  0
  197.2750  176.7250  142.9180 O   0  0  0  0  0  1  0  0  0  0  0  0
  196.8140  175.9720  140.8000 O   0  0  0  0  0  0  0  0  0  0  0  0
  188.7100  175.4010  141.7160 C   0  0  0  0  0  2  0  0  0  0  0  0
  187.4550  176.1970  141.3990 C   0  0  0  0  0  2  0  0  0  0  0  0
  187.7410  177.6920  141.4160 C   0  0  0  0  0  2  0  0  0  0  0  0
  185.9460  178.7650  142.8500 C   0  0  0  0  0  0  0  0  0  0  0  0
  185.0970  178.6610  141.9230 O   0  0  0  0  0  0  0  0  0  0  0  0
  187.2820  178.2820  142.6670 N   0  0  0  0  0  2  0  0  0  0  0  0
  185.5630  179.4670  144.1140 C   0  0  0  0  0  2  0  0  0  0  0  0
  185.0250  178.5020  145.1610 C   0  0  2  0  0  3  0  0  0  0  0  0
  183.8830  179.0400  145.7560 O   0  0  0  0  0  1  0  0  0  0  0  0
  185.7410  178.9360  147.3980 O   0  0  0  0  0  1  0  0  0  0  0  0
  186.0980  178.2950  146.2100 C   0  0  0  0  0  2  0  0  0  0  0  0
  1  5  1  0  0  0  0
  1 15  2  0  0  0  0
  2  6  2  0  0  0  0
  4  5  2  0  0  0  0
  5  9  1  0  0  0  0
  6  1  1  0  0  0  0
  7 17  1  0  0  0  0
  8  7  1  6  0  0  0
  8 14  1  0  0  0  0
  8 13  1  0  0  0  0
  9 10  2  0  0  0  0
 12  4  1  0  0  0  0
 12  3  2  0  0  0  0
 13 11  1  1  0  0  0
 13 12  1  0  0  0  0
 14 18  1  0  0  0  0
 15 16  1  0  0  0  0
 16 10  1  0  0  0  0
 17 19  1  6  0  0  0
 17 11  1  0  0  0  0
 18  6  1  0  0  0  0
 19 20  1  0  0  0  0
 21 19  2  0  0  0  0
 22  2  1  0  0  0  0
 23 24  1  0  0  0  0
 23 22  1  0  0  0  0
 24 27  1  0  0  0  0
 25 28  1  0  0  0  0
 26 25  2  0  0  0  0
 27 25  1  0  0  0  0
 28 29  1  0  0  0  0
 29 30  1  1  0  0  0
 29 32  1  0  0  0  0
 32 31  1  0  0  0  0
M  END
>  <MODEL>
7

>  <REMARK>
 VINA RESULT:      -6.7      3.868      5.459
  Name = 
  8 active torsions:
  status: ('A' for Active; 'I' for Inactive)
    1  A    between atoms: N_2  and  C_10
    2  A    between atoms: C_3  and  C_32
    3  A    between atoms: C_5  and  C_10
    4  A    between atoms: C_5  and  C_17
    5  A    between atoms: C_9  and  C_30
    6  A    between atoms: C_16  and  C_28
    7  A    between atoms: C_16  and  C_32
    8  A    between atoms: C_17  and  N_22
                            x       y       z     vdW  Elec       q    Type
                         _______ _______ _______ _____ _____    ______ ____

>  <TORSDO>
F 8

$$$$
=
 OpenBabel11042414513D

 32 34  0  0  1  0  0  0  0  0999 V2000
  189.9590  174.6750  143.2670 C   0  0  0  0  0  0  0  0  0  0  0  0
  189.0130  175.7740  145.1960 N   0  0  0  0  0  0  0  0  0  0  0  0
  193.8380  175.6210  141.2090 O   0  0  0  0  0  0  0  0  0  0  0  0
  191.8970  175.7860  142.4990 N   0  0  0  0  0  0  0  0  0  0  0  0
  191.0650  174.8210  142.3010 C   0  0  0  0  0  0  0  0  0  0  0  0
  190.0770  175.3230  144.5990 C   0  0  0  0  0  0  0  0  0  0  0  0
  194.3600  175.8530  146.3300 S   0  0  0  0  0  0  0  0  0  0  0  0
  193.5970  176.5040  144.8080 C   0  0  1  0  0  3  0  0  0  0  0  0
  191.2980  173.7790  141.3460 N   0  0  0  0  0  0  0  0  0  0  0  0
  190.2550  172.8200  141.1110 C   0  0  0  0  0  3  0  0  0  0  0  0
  194.2900  174.2520  144.0950 C   0  0  0  0  0  2  0  0  0  0  0  0
  193.3020  175.7230  142.3450 C   0  0  0  0  0  0  0  0  0  0  0  0
  194.1210  175.6760  143.6060 C   0  0  1  0  0  3  0  0  0  0  0  0
  192.1290  176.6410  144.9470 N   0  0  0  0  0  2  0  0  0  0  0  0
  189.0510  173.7120  143.0580 C   0  0  0  0  0  3  0  0  0  0  0  0
  189.1670  172.7960  141.8980 C   0  0  0  0  0  2  0  0  0  0  0  0
  194.8750  174.3070  145.4990 C   0  0  1  0  0  3  0  0  0  0  0  0
  191.4460  175.3810  145.2650 C   0  0  0  0  0  2  0  0  0  0  0  0
  196.3650  174.2160  145.4470 C   0  0  0  0  0  0  0  0  0  0  0  0
  197.0880  174.9560  144.5150 O   0  0  0  0  0  0  0  0  0  0  0  0
  196.9710  173.4560  146.2480 O   0  0  0  0  0  1  0  0  0  0  0  0
  189.0260  176.3960  146.5180 C   0  0  0  0  0  2  0  0  0  0  0  0
  187.9270  177.4390  146.6440 C   0  0  0  0  0  2  0  0  0  0  0  0
  186.5520  176.7870  146.6030 C   0  0  0  0  0  2  0  0  0  0  0  0
  184.9020  178.3320  145.4540 C   0  0  0  0  0  0  0  0  0  0  0  0
  184.7280  178.9890  146.5160 O   0  0  0  0  0  0  0  0  0  0  0  0
  185.8160  177.2300  145.4250 N   0  0  0  0  0  2  0  0  0  0  0  0
  184.0860  178.6680  144.2460 C   0  0  0  0  0  2  0  0  0  0  0  0
  184.7630  178.2170  142.9580 C   0  0  2  0  0  3  0  0  0  0  0  0
  185.8400  179.0570  142.6720 O   0  0  0  0  0  1  0  0  0  0  0  0
  184.3920  178.3370  140.6030 O   0  0  0  0  0  1  0  0  0  0  0  0
  183.7460  178.2900  141.8390 C   0  0  0  0  0  2  0  0  0  0  0  0
  1  6  1  0  0  0  0
  2 22  1  0  0  0  0
  3 12  2  0  0  0  0
  5  4  2  0  0  0  0
  5  1  1  0  0  0  0
  6  2  2  0  0  0  0
  6 18  1  0  0  0  0
  8 14  1  1  0  0  0
  8  7  1  0  0  0  0
  9  5  1  0  0  0  0
 10  9  2  0  0  0  0
 10 16  1  0  0  0  0
 11 17  1  0  0  0  0
 12  4  1  0  0  0  0
 12 13  1  0  0  0  0
 13 11  1  1  0  0  0
 13  8  1  0  0  0  0
 14 18  1  0  0  0  0
 15  1  2  0  0  0  0
 16 15  1  0  0  0  0
 17 19  1  6  0  0  0
 17  7  1  0  0  0  0
 19 21  1  0  0  0  0
 20 19  2  0  0  0  0
 22 23  1  0  0  0  0
 24 23  1  0  0  0  0
 25 26  2  0  0  0  0
 27 25  1  0  0  0  0
 27 24  1  0  0  0  0
 28 25  1  0  0  0  0
 29 30  1  6  0  0  0
 29 28  1  0  0  0  0
 31 32  1  0  0  0  0
 32 29  1  0  0  0  0
M  END
>  <MODEL>
8

>  <REMARK>
 VINA RESULT:      -6.6      3.376      5.979
  Name = 
  8 active torsions:
  status: ('A' for Active; 'I' for Inactive)
    1  A    between atoms: N_2  and  C_10
    2  A    between atoms: C_3  and  C_32
    3  A    between atoms: C_5  and  C_10
    4  A    between atoms: C_5  and  C_17
    5  A    between atoms: C_9  and  C_30
    6  A    between atoms: C_16  and  C_28
    7  A    between atoms: C_16  and  C_32
    8  A    between atoms: C_17  and  N_22
                            x       y       z     vdW  Elec       q    Type
                         _______ _______ _______ _____ _____    ______ ____

>  <TORSDO>
F 8

$$$$
=
 OpenBabel11042414513D

 32 34  0  0  1  0  0  0  0  0999 V2000
  190.8360  174.7350  145.5830 C   0  0  0  0  0  0  0  0  0  0  0  0
  189.7040  173.2970  144.0090 N   0  0  0  0  0  0  0  0  0  0  0  0
  195.2290  174.8510  146.5110 O   0  0  0  0  0  0  0  0  0  0  0  0
  193.1150  174.1510  145.8080 N   0  0  0  0  0  0  0  0  0  0  0  0
  192.1590  174.9190  146.2090 C   0  0  0  0  0  0  0  0  0  0  0  0
  190.7500  174.0220  144.2810 C   0  0  0  0  0  0  0  0  0  0  0  0
  194.4250  174.3200  141.4490 S   0  0  0  0  0  0  0  0  0  0  0  0
  194.2670  173.6430  143.1330 C   0  0  1  0  0  3  0  0  0  0  0  0
  192.3810  176.0620  147.0440 N   0  0  0  0  0  0  0  0  0  0  0  0
  191.2400  176.7800  147.5390 C   0  0  0  0  0  3  0  0  0  0  0  0
  194.5680  176.0430  143.5870 C   0  0  0  0  0  2  0  0  0  0  0  0
  194.4530  174.5390  145.5680 C   0  0  0  0  0  0  0  0  0  0  0  0
  194.8760  174.6630  144.1300 C   0  0  1  0  0  3  0  0  0  0  0  0
  192.8890  173.1710  143.4060 N   0  0  0  0  0  2  0  0  0  0  0  0
  189.8140  175.4840  146.0150 C   0  0  0  0  0  3  0  0  0  0  0  0
  190.0100  176.4960  147.0810 C   0  0  0  0  0  2  0  0  0  0  0  0
  194.7590  176.0050  142.0770 C   0  0  1  0  0  3  0  0  0  0  0  0
  191.8690  174.2160  143.2660 C   0  0  0  0  0  2  0  0  0  0  0  0
  196.1440  176.4300  141.7160 C   0  0  0  0  0  0  0  0  0  0  0  0
  196.6740  176.1270  140.4650 O   0  0  0  0  0  0  0  0  0  0  0  0
  196.8400  177.0620  142.5540 O   0  0  0  0  0  1  0  0  0  0  0  0
  189.5160  172.5860  142.7460 C   0  0  0  0  0  2  0  0  0  0  0  0
  188.2520  173.0480  142.0400 C   0  0  0  0  0  2  0  0  0  0  0  0
  188.4320  174.4460  141.4630 C   0  0  0  0  0  2  0  0  0  0  0  0
  188.3410  176.6030  142.7930 C   0  0  0  0  0  0  0  0  0  0  0  0
  189.5490  176.8530  142.5320 O   0  0  0  0  0  0  0  0  0  0  0  0
  187.7160  175.4240  142.2730 N   0  0  0  0  0  2  0  0  0  0  0  0
  187.5910  177.5110  143.7140 C   0  0  0  0  0  2  0  0  0  0  0  0
  186.3360  176.8500  144.2690 C   0  0  2  0  0  3  0  0  0  0  0  0
  185.2040  177.5120  143.7930 O   0  0  0  0  0  1  0  0  0  0  0  0
  185.1010  176.7920  146.3120 O   0  0  0  0  0  1  0  0  0  0  0  0
  186.3830  176.9390  145.7800 C   0  0  0  0  0  2  0  0  0  0  0  0
  1 15  2  0  0  0  0
  1  5  1  0  0  0  0
  2  6  2  0  0  0  0
  4  5  2  0  0  0  0
  5  9  1  0  0  0  0
  6  1  1  0  0  0  0
  7 17  1  0  0  0  0
  8  7  1  6  0  0  0
  8 14  1  0  0  0  0
  8 13  1  0  0  0  0
  9 10  2  0  0  0  0
 12  4  1  0  0  0  0
 12  3  2  0  0  0  0
 13 11  1  6  0  0  0
 13 12  1  0  0  0  0
 15 16  1  0  0  0  0
 16 10  1  0  0  0  0
 17 19  1  1  0  0  0
 17 11  1  0  0  0  0
 18 14  1  0  0  0  0
 18  6  1  0  0  0  0
 19 21  1  0  0  0  0
 20 19  2  0  0  0  0
 22  2  1  0  0  0  0
 23 22  1  0  0  0  0
 24 23  1  0  0  0  0
 24 27  1  0  0  0  0
 25 28  1  0  0  0  0
 26 25  2  0  0  0  0
 27 25  1  0  0  0  0
 28 29  1  0  0  0  0
 29 30  1  6  0  0  0
 29 32  1  0  0  0  0
 32 31  1  0  0  0  0
M  END
>  <MODEL>
9

>  <REMARK>
 VINA RESULT:      -6.5      4.457      6.266
  Name = 
  8 active torsions:
  status: ('A' for Active; 'I' for Inactive)
    1  A    between atoms: N_2  and  C_10
    2  A    between atoms: C_3  and  C_32
    3  A    between atoms: C_5  and  C_10
    4  A    between atoms: C_5  and  C_17
    5  A    between atoms: C_9  and  C_30
    6  A    between atoms: C_16  and  C_28
    7  A    between atoms: C_16  and  C_32
    8  A    between atoms: C_17  and  N_22
                            x       y       z     vdW  Elec       q    Type
                         _______ _______ _______ _____ _____    ______ ____

>  <TORSDO>
F 8

$$$$
