=
 OpenBabel11042414423D

 36 39  0  0  1  0  0  0  0  0999 V2000
  193.6850  176.2050  142.8040 N   0  0  0  0  0  2  0  0  0  0  0  0
  194.1970  175.8970  145.0560 C   0  0  0  0  0  0  0  0  0  0  0  0
  194.9260  175.4230  142.9370 C   0  0  1  0  0  3  0  0  0  0  0  0
  194.0530  176.0030  146.5400 C   0  0  0  0  0  1  0  0  0  0  0  0
  195.1700  175.2890  144.4090 C   0  0  0  0  0  0  0  0  0  0  0  0
  193.2990  176.4640  144.1280 N   0  0  0  0  0  0  0  0  0  0  0  0
  189.1870  177.2590  143.9990 N   0  0  0  0  0  0  0  0  0  0  0  0
  189.6480  176.4750  145.1520 C   0  0  0  0  0  2  0  0  0  0  0  0
  190.0710  177.4300  142.8430 C   0  0  0  0  0  2  0  0  0  0  0  0
  191.0520  175.9180  144.9280 C   0  0  0  0  0  2  0  0  0  0  0  0
  192.0030  177.0300  144.4750 C   0  0  2  0  0  3  0  0  0  0  0  0
  191.4610  177.8700  143.3050 C   0  0  0  0  0  2  0  0  0  0  0  0
  187.2820  178.2630  142.7890 C   0  0  0  0  0  3  0  0  0  0  0  0
  183.9900  179.4640  143.9110 O   0  0  0  0  0  1  0  0  0  0  0  0
  185.2670  178.9200  143.9660 C   0  0  0  0  0  0  0  0  0  0  0  0
  187.8600  177.8190  143.9870 C   0  0  0  0  0  0  0  0  0  0  0  0
  185.8300  178.4810  145.1850 C   0  0  0  0  0  0  0  0  0  0  0  0
  187.1220  177.9350  145.1760 C   0  0  0  0  0  3  0  0  0  0  0  0
  185.9970  178.8070  142.7800 C   0  0  0  0  0  3  0  0  0  0  0  0
  184.0090  177.9780  146.6460 O   0  0  0  0  0  0  0  0  0  0  0  0
  185.6440  179.3450  147.5450 N   0  0  0  0  0  1  0  0  0  0  0  0
  185.1050  178.5740  146.4740 C   0  0  0  0  0  0  0  0  0  0  0  0
  195.9820  173.2360  145.5800 C   0  0  0  0  0  2  0  0  0  0  0  0
  196.3560  174.5850  145.0030 C   0  0  1  0  0  3  0  0  0  0  0  0
  197.2490  172.4200  145.6080 C   0  0  2  0  0  3  0  0  0  0  0  0
  197.9410  172.6340  144.2790 C   0  0  0  0  0  2  0  0  0  0  0  0
  196.9190  170.9530  145.7880 C   0  0  0  0  0  1  0  0  0  0  0  0
  197.6940  174.3670  143.7840 S   0  0  0  0  0  0  0  0  0  0  0  0
  194.7460  174.0440  142.3110 C   0  0  0  0  0  2  0  0  0  0  0  0
  191.0200  173.3670  141.7670 N   0  0  0  0  0  2  0  0  0  0  0  0
  192.4620  172.8320  143.5760 N   0  0  0  0  0  2  0  0  0  0  0  0
  193.4230  173.9190  141.7120 N   0  0  0  0  0  2  0  0  0  0  0  0
  192.2990  173.3850  142.4170 C   0  0  0  0  0  0  0  0  0  0  0  0
  189.7930  173.0640  142.3850 N   0  0  0  0  0  2  0  0  0  0  0  0
  188.6460  173.8670  142.2780 C   0  0  0  0  0  0  0  0  0  0  0  0
  187.6600  174.5550  142.1860 C   0  0  0  0  0  3  0  0  0  0  0  0
  1  3  1  0  0  0  0
  1  6  1  0  0  0  0
  2  4  1  0  0  0  0
  3 29  1  1  0  0  0
  3  5  1  0  0  0  0
  5  2  2  0  0  0  0
  6 11  1  0  0  0  0
  6  2  1  0  0  0  0
  7  8  1  0  0  0  0
  9 12  1  0  0  0  0
  9  7  1  0  0  0  0
 10  8  1  0  0  0  0
 11 12  1  6  0  0  0
 11 10  1  0  0  0  0
 13 16  1  0  0  0  0
 14 15  1  0  0  0  0
 15 17  2  0  0  0  0
 16  7  1  0  0  0  0
 16 18  2  0  0  0  0
 17 22  1  0  0  0  0
 18 17  1  0  0  0  0
 19 13  2  0  0  0  0
 19 15  1  0  0  0  0
 22 20  2  0  0  0  0
 22 21  1  0  0  0  0
 23 25  1  0  0  0  0
 24  5  1  6  0  0  0
 24 23  1  0  0  0  0
 25 27  1  6  0  0  0
 26 25  1  0  0  0  0
 28 26  1  0  0  0  0
 28 24  1  0  0  0  0
 30 34  1  0  0  0  0
 30 33  1  0  0  0  0
 32 29  1  0  0  0  0
 32 33  1  0  0  0  0
 33 31  2  0  0  0  0
 35 34  1  0  0  0  0
 36 35  3  0  0  0  0
M  END
>  <MODEL>
1

>  <REMARK>
 VINA RESULT:      -7.6      0.000      0.000
  Name = 
  8 active torsions:
  status: ('A' for Active; 'I' for Inactive)
    1  A    between atoms: N_1  and  C_28
    2  A    between atoms: N_10  and  N_20
    3  A    between atoms: C_12  and  C_17
    4  A    between atoms: C_13  and  C_26
    5  A    between atoms: C_18  and  N_20
    6  A    between atoms: N_19  and  C_26
    7  A    between atoms: C_21  and  N_22
    8  A    between atoms: C_27  and  C_29
                            x       y       z     vdW  Elec       q    Type
                         _______ _______ _______ _____ _____    ______ ____

>  <TORSDO>
F 8

$$$$
=
 OpenBabel11042414423D

 36 39  0  0  1  0  0  0  0  0999 V2000
  194.2860  176.5040  144.9310 N   0  0  0  0  0  2  0  0  0  0  0  0
  194.1160  174.1800  144.8810 C   0  0  0  0  0  0  0  0  0  0  0  0
  195.6250  175.9010  144.8080 C   0  0  1  0  0  3  0  0  0  0  0  0
  193.4650  172.8350  144.9010 C   0  0  0  0  0  1  0  0  0  0  0  0
  195.4080  174.4190  144.7930 C   0  0  0  0  0  0  0  0  0  0  0  0
  193.4180  175.4020  144.9760 N   0  0  0  0  0  0  0  0  0  0  0  0
  189.5620  176.9550  145.5030 N   0  0  0  0  0  0  0  0  0  0  0  0
  190.1040  177.0460  144.1410 C   0  0  0  0  0  2  0  0  0  0  0  0
  190.4620  176.6530  146.6190 C   0  0  0  0  0  2  0  0  0  0  0  0
  191.6140  176.8170  144.1210 C   0  0  0  0  0  2  0  0  0  0  0  0
  191.9710  175.5350  144.8790 C   0  0  2  0  0  3  0  0  0  0  0  0
  191.3360  175.4450  146.2780 C   0  0  0  0  0  2  0  0  0  0  0  0
  187.5300  176.6760  146.8790 C   0  0  0  0  0  3  0  0  0  0  0  0
  184.0830  177.9000  146.4840 O   0  0  0  0  0  1  0  0  0  0  0  0
  185.4280  177.6830  146.2140 C   0  0  0  0  0  0  0  0  0  0  0  0
  188.1630  177.2030  145.7440 C   0  0  0  0  0  0  0  0  0  0  0  0
  186.0450  178.2230  145.0630 C   0  0  0  0  0  0  0  0  0  0  0  0
  187.4080  177.9730  144.8470 C   0  0  0  0  0  3  0  0  0  0  0  0
  186.1750  176.9150  147.1110 C   0  0  0  0  0  3  0  0  0  0  0  0
  185.4150  180.2990  144.0650 O   0  0  0  0  0  0  0  0  0  0  0  0
  184.4550  178.4200  143.1180 N   0  0  0  0  0  1  0  0  0  0  0  0
  185.3060  179.0450  144.0760 C   0  0  0  0  0  0  0  0  0  0  0  0
  196.4680  172.4250  145.8620 C   0  0  0  0  0  2  0  0  0  0  0  0
  196.5160  173.4090  144.7120 C   0  0  1  0  0  3  0  0  0  0  0  0
  197.1980  171.1910  145.3960 C   0  0  2  0  0  3  0  0  0  0  0  0
  196.7250  170.9040  143.9880 C   0  0  0  0  0  2  0  0  0  0  0  0
  196.8720  170.0210  146.3010 C   0  0  0  0  0  1  0  0  0  0  0  0
  196.4820  172.4920  143.1360 S   0  0  0  0  0  0  0  0  0  0  0  0
  196.2810  176.3450  143.5050 C   0  0  0  0  0  2  0  0  0  0  0  0
  194.6530  175.6790  140.1080 N   0  0  0  0  0  2  0  0  0  0  0  0
  196.9080  175.4960  140.8270 N   0  0  0  0  0  2  0  0  0  0  0  0
  195.3310  176.2790  142.4010 N   0  0  0  0  0  2  0  0  0  0  0  0
  195.6750  175.7680  141.1110 C   0  0  0  0  0  0  0  0  0  0  0  0
  194.7790  175.0220  138.8690 N   0  0  0  0  0  2  0  0  0  0  0  0
  193.9870  175.3160  137.7470 C   0  0  0  0  0  0  0  0  0  0  0  0
  193.3090  175.5710  136.7830 C   0  0  0  0  0  3  0  0  0  0  0  0
  1  6  1  0  0  0  0
  2  4  1  0  0  0  0
  2  6  1  0  0  0  0
  3 29  1  6  0  0  0
  3  1  1  0  0  0  0
  5  3  1  0  0  0  0
  5  2  2  0  0  0  0
  7 16  1  0  0  0  0
  7  9  1  0  0  0  0
  8  7  1  0  0  0  0
 10  8  1  0  0  0  0
 11 10  1  1  0  0  0
 11  6  1  0  0  0  0
 11 12  1  0  0  0  0
 12  9  1  0  0  0  0
 13 19  1  0  0  0  0
 15 14  1  0  0  0  0
 15 19  2  0  0  0  0
 16 13  2  0  0  0  0
 17 15  1  0  0  0  0
 18 17  2  0  0  0  0
 18 16  1  0  0  0  0
 20 22  2  0  0  0  0
 21 22  1  0  0  0  0
 22 17  1  0  0  0  0
 24  5  1  6  0  0  0
 24 23  1  0  0  0  0
 25 23  1  0  0  0  0
 25 27  1  1  0  0  0
 26 25  1  0  0  0  0
 28 26  1  0  0  0  0
 28 24  1  0  0  0  0
 30 33  1  0  0  0  0
 31 33  2  0  0  0  0
 32 29  1  0  0  0  0
 33 32  1  0  0  0  0
 34 30  1  0  0  0  0
 35 34  1  0  0  0  0
 36 35  3  0  0  0  0
M  END
>  <MODEL>
2

>  <REMARK>
 VINA RESULT:      -7.4      2.211      3.464
  Name = 
  8 active torsions:
  status: ('A' for Active; 'I' for Inactive)
    1  A    between atoms: N_1  and  C_28
    2  A    between atoms: N_10  and  N_20
    3  A    between atoms: C_12  and  C_17
    4  A    between atoms: C_13  and  C_26
    5  A    between atoms: C_18  and  N_20
    6  A    between atoms: N_19  and  C_26
    7  A    between atoms: C_21  and  N_22
    8  A    between atoms: C_27  and  C_29
                            x       y       z     vdW  Elec       q    Type
                         _______ _______ _______ _____ _____    ______ ____

>  <TORSDO>
F 8

$$$$
=
 OpenBabel11042414423D

 36 39  0  0  1  0  0  0  0  0999 V2000
  193.2340  176.2890  142.8800 N   0  0  0  0  0  2  0  0  0  0  0  0
  193.8340  176.1280  145.1270 C   0  0  0  0  0  0  0  0  0  0  0  0
  194.5220  175.5860  143.0110 C   0  0  1  0  0  3  0  0  0  0  0  0
  193.7300  176.3040  146.6070 C   0  0  0  0  0  1  0  0  0  0  0  0
  194.8190  175.5430  144.4780 C   0  0  0  0  0  0  0  0  0  0  0  0
  192.8760  176.5940  144.2020 N   0  0  0  0  0  0  0  0  0  0  0  0
  188.7350  177.2330  144.1020 N   0  0  0  0  0  0  0  0  0  0  0  0
  189.2300  176.4450  145.2370 C   0  0  0  0  0  2  0  0  0  0  0  0
  189.6080  177.4610  142.9470 C   0  0  0  0  0  2  0  0  0  0  0  0
  190.6540  175.9470  144.9980 C   0  0  0  0  0  2  0  0  0  0  0  0
  191.5600  177.1040  144.5640 C   0  0  2  0  0  3  0  0  0  0  0  0
  190.9820  177.9450  143.4130 C   0  0  0  0  0  2  0  0  0  0  0  0
  186.8180  178.2500  145.2810 C   0  0  0  0  0  3  0  0  0  0  0  0
  183.4560  179.2360  144.1550 O   0  0  0  0  0  1  0  0  0  0  0  0
  184.7510  178.7340  144.1110 C   0  0  0  0  0  0  0  0  0  0  0  0
  187.3880  177.7430  144.1050 C   0  0  0  0  0  0  0  0  0  0  0  0
  185.3040  178.2260  142.9140 C   0  0  0  0  0  0  0  0  0  0  0  0
  186.6190  177.7370  142.9310 C   0  0  0  0  0  3  0  0  0  0  0  0
  185.5120  178.7410  145.2830 C   0  0  0  0  0  3  0  0  0  0  0  0
  183.3010  178.0110  141.6310 O   0  0  0  0  0  0  0  0  0  0  0  0
  185.2260  178.3660  140.4000 N   0  0  0  0  0  1  0  0  0  0  0  0
  184.5470  178.1920  141.6410 C   0  0  0  0  0  0  0  0  0  0  0  0
  195.8130  173.5470  145.6060 C   0  0  0  0  0  2  0  0  0  0  0  0
  196.0620  174.9400  145.0660 C   0  0  1  0  0  3  0  0  0  0  0  0
  197.1530  172.8540  145.6260 C   0  0  2  0  0  3  0  0  0  0  0  0
  197.8300  173.1670  144.3100 C   0  0  0  0  0  2  0  0  0  0  0  0
  196.9610  171.3580  145.7670 C   0  0  0  0  0  1  0  0  0  0  0  0
  197.4240  174.8800  143.8550 S   0  0  0  0  0  0  0  0  0  0  0  0
  194.4040  174.1690  142.4610 C   0  0  0  0  0  2  0  0  0  0  0  0
  191.0090  172.4350  142.7810 N   0  0  0  0  0  2  0  0  0  0  0  0
  192.0310  173.5510  140.9520 N   0  0  0  0  0  2  0  0  0  0  0  0
  193.2190  173.5070  142.9930 N   0  0  0  0  0  2  0  0  0  0  0  0
  192.1000  173.1460  142.1790 C   0  0  0  0  0  0  0  0  0  0  0  0
  189.9390  171.8390  142.0860 N   0  0  0  0  0  2  0  0  0  0  0  0
  188.6550  172.4010  142.0020 C   0  0  0  0  0  0  0  0  0  0  0  0
  187.5530  172.8840  141.9280 C   0  0  0  0  0  3  0  0  0  0  0  0
  1  3  1  0  0  0  0
  1  6  1  0  0  0  0
  2  4  1  0  0  0  0
  3 29  1  1  0  0  0
  3  5  1  0  0  0  0
  5  2  2  0  0  0  0
  6 11  1  0  0  0  0
  6  2  1  0  0  0  0
  7 16  1  0  0  0  0
  7  8  1  0  0  0  0
  9 12  1  0  0  0  0
  9  7  1  0  0  0  0
 10  8  1  0  0  0  0
 11 12  1  6  0  0  0
 11 10  1  0  0  0  0
 13 19  1  0  0  0  0
 15 14  1  0  0  0  0
 15 19  2  0  0  0  0
 16 13  2  0  0  0  0
 17 18  2  0  0  0  0
 17 15  1  0  0  0  0
 18 16  1  0  0  0  0
 20 22  2  0  0  0  0
 21 22  1  0  0  0  0
 22 17  1  0  0  0  0
 23 25  1  0  0  0  0
 24  5  1  6  0  0  0
 24 23  1  0  0  0  0
 25 27  1  6  0  0  0
 26 25  1  0  0  0  0
 28 26  1  0  0  0  0
 28 24  1  0  0  0  0
 29 32  1  0  0  0  0
 31 33  2  0  0  0  0
 33 30  1  0  0  0  0
 33 32  1  0  0  0  0
 34 30  1  0  0  0  0
 35 34  1  0  0  0  0
 36 35  3  0  0  0  0
M  END
>  <MODEL>
3

>  <REMARK>
 VINA RESULT:      -7.2      1.286      2.031
  Name = 
  8 active torsions:
  status: ('A' for Active; 'I' for Inactive)
    1  A    between atoms: N_1  and  C_28
    2  A    between atoms: N_10  and  N_20
    3  A    between atoms: C_12  and  C_17
    4  A    between atoms: C_13  and  C_26
    5  A    between atoms: C_18  and  N_20
    6  A    between atoms: N_19  and  C_26
    7  A    between atoms: C_21  and  N_22
    8  A    between atoms: C_27  and  C_29
                            x       y       z     vdW  Elec       q    Type
                         _______ _______ _______ _____ _____    ______ ____

>  <TORSDO>
F 8

$$$$
=
 OpenBabel11042414423D

 36 39  0  0  1  0  0  0  0  0999 V2000
  194.2610  176.5770  144.6500 N   0  0  0  0  0  2  0  0  0  0  0  0
  194.1020  174.2540  144.7510 C   0  0  0  0  0  0  0  0  0  0  0  0
  195.6030  175.9740  144.5620 C   0  0  1  0  0  3  0  0  0  0  0  0
  193.4580  172.9100  144.8610 C   0  0  0  0  0  1  0  0  0  0  0  0
  195.3930  174.4930  144.6440 C   0  0  0  0  0  0  0  0  0  0  0  0
  193.3990  175.4760  144.7680 N   0  0  0  0  0  0  0  0  0  0  0  0
  189.6330  177.0720  143.8580 N   0  0  0  0  0  0  0  0  0  0  0  0
  190.0330  175.8980  143.0730 C   0  0  0  0  0  2  0  0  0  0  0  0
  190.6400  177.7950  144.6400 C   0  0  0  0  0  2  0  0  0  0  0  0
  191.5310  175.6240  143.1950 C   0  0  0  0  0  2  0  0  0  0  0  0
  191.9510  175.5960  144.6680 C   0  0  2  0  0  3  0  0  0  0  0  0
  191.4620  176.8120  145.4750 C   0  0  0  0  0  2  0  0  0  0  0  0
  187.6950  177.9850  142.6280 C   0  0  0  0  0  3  0  0  0  0  0  0
  184.2930  178.8980  143.6910 O   0  0  0  0  0  1  0  0  0  0  0  0
  185.6040  178.4460  143.7650 C   0  0  0  0  0  0  0  0  0  0  0  0
  188.2690  177.5360  143.8260 C   0  0  0  0  0  0  0  0  0  0  0  0
  186.1620  177.9990  144.9840 C   0  0  0  0  0  0  0  0  0  0  0  0
  187.4910  177.5490  144.9940 C   0  0  0  0  0  3  0  0  0  0  0  0
  186.3740  178.4360  142.5990 C   0  0  0  0  0  3  0  0  0  0  0  0
  184.5930  177.0530  146.5140 O   0  0  0  0  0  0  0  0  0  0  0  0
  185.5600  179.0390  147.1980 N   0  0  0  0  0  1  0  0  0  0  0  0
  185.3960  177.9860  146.2510 C   0  0  0  0  0  0  0  0  0  0  0  0
  196.4200  172.5280  145.7960 C   0  0  0  0  0  2  0  0  0  0  0  0
  196.5050  173.4850  144.6250 C   0  0  1  0  0  3  0  0  0  0  0  0
  197.1690  171.2850  145.3850 C   0  0  2  0  0  3  0  0  0  0  0  0
  196.7460  170.9640  143.9680 C   0  0  0  0  0  2  0  0  0  0  0  0
  196.8130  170.1360  146.3040 C   0  0  0  0  0  1  0  0  0  0  0  0
  196.5290  172.5310  143.0710 S   0  0  0  0  0  0  0  0  0  0  0  0
  196.2530  176.3360  143.2310 C   0  0  0  0  0  2  0  0  0  0  0  0
  194.5810  175.6640  139.8570 N   0  0  0  0  0  2  0  0  0  0  0  0
  196.8550  175.5470  140.5290 N   0  0  0  0  0  2  0  0  0  0  0  0
  195.2850  176.2540  142.1450 N   0  0  0  0  0  2  0  0  0  0  0  0
  195.6190  175.7730  140.8410 C   0  0  0  0  0  0  0  0  0  0  0  0
  194.7040  175.0300  138.6060 N   0  0  0  0  0  2  0  0  0  0  0  0
  193.8620  175.2920  137.5130 C   0  0  0  0  0  0  0  0  0  0  0  0
  193.1370  175.5190  136.5760 C   0  0  0  0  0  3  0  0  0  0  0  0
  1  6  1  0  0  0  0
  2  6  1  0  0  0  0
  2  4  1  0  0  0  0
  3 29  1  6  0  0  0
  3  5  1  0  0  0  0
  3  1  1  0  0  0  0
  5  2  2  0  0  0  0
  7  9  1  0  0  0  0
  8 10  1  0  0  0  0
  8  7  1  0  0  0  0
  9 12  1  0  0  0  0
 11 10  1  6  0  0  0
 11  6  1  0  0  0  0
 11 12  1  0  0  0  0
 13 16  1  0  0  0  0
 14 15  1  0  0  0  0
 15 17  2  0  0  0  0
 16  7  1  0  0  0  0
 16 18  2  0  0  0  0
 17 18  1  0  0  0  0
 17 22  1  0  0  0  0
 19 13  2  0  0  0  0
 19 15  1  0  0  0  0
 22 20  2  0  0  0  0
 22 21  1  0  0  0  0
 24  5  1  6  0  0  0
 24 23  1  0  0  0  0
 25 23  1  0  0  0  0
 25 27  1  1  0  0  0
 26 25  1  0  0  0  0
 28 26  1  0  0  0  0
 28 24  1  0  0  0  0
 30 33  1  0  0  0  0
 31 33  2  0  0  0  0
 32 29  1  0  0  0  0
 33 32  1  0  0  0  0
 34 30  1  0  0  0  0
 35 34  1  0  0  0  0
 36 35  3  0  0  0  0
M  END
>  <MODEL>
4

>  <REMARK>
 VINA RESULT:      -7.0      2.040      2.954
  Name = 
  8 active torsions:
  status: ('A' for Active; 'I' for Inactive)
    1  A    between atoms: N_1  and  C_28
    2  A    between atoms: N_10  and  N_20
    3  A    between atoms: C_12  and  C_17
    4  A    between atoms: C_13  and  C_26
    5  A    between atoms: C_18  and  N_20
    6  A    between atoms: N_19  and  C_26
    7  A    between atoms: C_21  and  N_22
    8  A    between atoms: C_27  and  C_29
                            x       y       z     vdW  Elec       q    Type
                         _______ _______ _______ _____ _____    ______ ____

>  <TORSDO>
F 8

$$$$
=
 OpenBabel11042414423D

 36 39  0  0  1  0  0  0  0  0999 V2000
  192.6680  174.1090  143.2490 N   0  0  0  0  0  2  0  0  0  0  0  0
  194.1330  174.7700  144.9370 C   0  0  0  0  0  0  0  0  0  0  0  0
  193.9420  173.3800  143.1260 C   0  0  1  0  0  3  0  0  0  0  0  0
  194.6250  175.5150  146.1340 C   0  0  0  0  0  1  0  0  0  0  0  0
  194.8090  173.8780  144.2410 C   0  0  0  0  0  0  0  0  0  0  0  0
  192.8550  174.9390  144.3650 N   0  0  0  0  0  0  0  0  0  0  0  0
  188.9660  176.0480  145.4650 N   0  0  0  0  0  0  0  0  0  0  0  0
  189.8060  175.5160  146.5460 C   0  0  0  0  0  2  0  0  0  0  0  0
  189.3820  175.8640  144.0720 C   0  0  0  0  0  2  0  0  0  0  0  0
  191.0380  174.7990  145.9990 C   0  0  0  0  0  2  0  0  0  0  0  0
  191.7670  175.6850  144.9840 C   0  0  2  0  0  3  0  0  0  0  0  0
  190.8450  176.2740  143.9010 C   0  0  0  0  0  2  0  0  0  0  0  0
  187.1240  176.5560  147.0300 C   0  0  0  0  0  3  0  0  0  0  0  0
  184.0900  178.6110  146.7010 O   0  0  0  0  0  1  0  0  0  0  0  0
  185.2870  177.9910  146.3660 C   0  0  0  0  0  0  0  0  0  0  0  0
  187.7220  176.7070  145.7710 C   0  0  0  0  0  0  0  0  0  0  0  0
  185.8700  178.1560  145.0900 C   0  0  0  0  0  0  0  0  0  0  0  0
  187.0840  177.5090  144.8120 C   0  0  0  0  0  3  0  0  0  0  0  0
  185.9180  177.1930  147.3240 C   0  0  0  0  0  3  0  0  0  0  0  0
  185.5620  180.2010  143.8960 O   0  0  0  0  0  0  0  0  0  0  0  0
  184.2830  178.4240  143.1510 N   0  0  0  0  0  1  0  0  0  0  0  0
  185.2500  178.9890  144.0330 C   0  0  0  0  0  0  0  0  0  0  0  0
  196.2770  172.1760  145.3330 C   0  0  0  0  0  2  0  0  0  0  0  0
  196.2210  173.4230  144.4760 C   0  0  1  0  0  3  0  0  0  0  0  0
  197.5960  171.5110  145.0310 C   0  0  2  0  0  3  0  0  0  0  0  0
  197.7700  171.5400  143.5280 C   0  0  0  0  0  2  0  0  0  0  0  0
  197.5820  170.0800  145.5230 C   0  0  0  0  0  1  0  0  0  0  0  0
  197.1020  173.1140  142.9090 S   0  0  0  0  0  0  0  0  0  0  0  0
  193.7050  171.8820  143.2790 C   0  0  0  0  0  2  0  0  0  0  0  0
  191.0670  170.3120  140.9960 N   0  0  0  0  0  2  0  0  0  0  0  0
  193.4310  170.4320  140.8070 N   0  0  0  0  0  2  0  0  0  0  0  0
  192.4390  171.4950  142.6690 N   0  0  0  0  0  2  0  0  0  0  0  0
  192.3600  170.7000  141.4830 C   0  0  0  0  0  0  0  0  0  0  0  0
  190.8260  169.3780  139.9710 N   0  0  0  0  0  2  0  0  0  0  0  0
  190.2230  169.7030  138.7450 C   0  0  0  0  0  0  0  0  0  0  0  0
  189.7030  169.9800  137.6930 C   0  0  0  0  0  3  0  0  0  0  0  0
  1  6  1  0  0  0  0
  2  4  1  0  0  0  0
  3  1  1  0  0  0  0
  3 29  1  1  0  0  0
  3  5  1  0  0  0  0
  5  2  2  0  0  0  0
  6  2  1  0  0  0  0
  6 11  1  0  0  0  0
  7 16  1  0  0  0  0
  7  8  1  0  0  0  0
  9  7  1  0  0  0  0
 10  8  1  0  0  0  0
 11 12  1  6  0  0  0
 11 10  1  0  0  0  0
 12  9  1  0  0  0  0
 13 19  1  0  0  0  0
 15 14  1  0  0  0  0
 15 19  2  0  0  0  0
 16 13  2  0  0  0  0
 17 15  1  0  0  0  0
 18 17  2  0  0  0  0
 18 16  1  0  0  0  0
 20 22  2  0  0  0  0
 21 22  1  0  0  0  0
 22 17  1  0  0  0  0
 24  5  1  6  0  0  0
 24 23  1  0  0  0  0
 25 23  1  0  0  0  0
 25 27  1  6  0  0  0
 26 25  1  0  0  0  0
 28 26  1  0  0  0  0
 28 24  1  0  0  0  0
 30 33  1  0  0  0  0
 31 33  2  0  0  0  0
 32 29  1  0  0  0  0
 33 32  1  0  0  0  0
 34 30  1  0  0  0  0
 35 34  1  0  0  0  0
 36 35  3  0  0  0  0
M  END
>  <MODEL>
5

>  <REMARK>
 VINA RESULT:      -6.7      2.330      2.879
  Name = 
  8 active torsions:
  status: ('A' for Active; 'I' for Inactive)
    1  A    between atoms: N_1  and  C_28
    2  A    between atoms: N_10  and  N_20
    3  A    between atoms: C_12  and  C_17
    4  A    between atoms: C_13  and  C_26
    5  A    between atoms: C_18  and  N_20
    6  A    between atoms: N_19  and  C_26
    7  A    between atoms: C_21  and  N_22
    8  A    between atoms: C_27  and  C_29
                            x       y       z     vdW  Elec       q    Type
                         _______ _______ _______ _____ _____    ______ ____

>  <TORSDO>
F 8

$$$$
=
 OpenBabel11042414423D

 36 39  0  0  1  0  0  0  0  0999 V2000
  193.1080  173.8340  145.7540 N   0  0  0  0  0  2  0  0  0  0  0  0
  192.5680  172.1370  144.2510 C   0  0  0  0  0  0  0  0  0  0  0  0
  194.1440  172.7870  145.7790 C   0  0  1  0  0  3  0  0  0  0  0  0
  191.7820  171.3960  143.2180 C   0  0  0  0  0  1  0  0  0  0  0  0
  193.7030  171.7490  144.7940 C   0  0  0  0  0  0  0  0  0  0  0  0
  192.1790  173.3730  144.8090 N   0  0  0  0  0  0  0  0  0  0  0  0
  189.3240  176.4340  144.6120 N   0  0  0  0  0  0  0  0  0  0  0  0
  190.4360  176.5390  143.6590 C   0  0  0  0  0  2  0  0  0  0  0  0
  189.4290  175.5100  145.7450 C   0  0  0  0  0  2  0  0  0  0  0  0
  191.5960  175.6240  144.0460 C   0  0  0  0  0  2  0  0  0  0  0  0
  191.0920  174.2010  144.3040 C   0  0  2  0  0  3  0  0  0  0  0  0
  189.8870  174.1340  145.2590 C   0  0  0  0  0  2  0  0  0  0  0  0
  187.7920  177.7580  143.1980 C   0  0  0  0  0  3  0  0  0  0  0  0
  184.7590  179.6940  143.9700 O   0  0  0  0  0  1  0  0  0  0  0  0
  185.8780  178.8930  144.1610 C   0  0  0  0  0  0  0  0  0  0  0  0
  188.1570  177.2650  144.4590 C   0  0  0  0  0  0  0  0  0  0  0  0
  186.2280  178.4080  145.4410 C   0  0  0  0  0  0  0  0  0  0  0  0
  187.3660  177.5980  145.5690 C   0  0  0  0  0  3  0  0  0  0  0  0
  186.6620  178.5650  143.0520 C   0  0  0  0  0  3  0  0  0  0  0  0
  185.9430  179.3620  147.6120 O   0  0  0  0  0  0  0  0  0  0  0  0
  184.0780  178.2990  146.7500 N   0  0  0  0  0  1  0  0  0  0  0  0
  185.4360  178.7220  146.6530 C   0  0  0  0  0  0  0  0  0  0  0  0
  195.5530  170.6800  143.4990 C   0  0  0  0  0  2  0  0  0  0  0  0
  194.4530  170.4780  144.5200 C   0  0  1  0  0  3  0  0  0  0  0  0
  196.5530  169.5740  143.7270 C   0  0  2  0  0  3  0  0  0  0  0  0
  196.7630  169.4700  145.2210 C   0  0  0  0  0  2  0  0  0  0  0  0
  197.8610  169.9060  143.0410 C   0  0  0  0  0  1  0  0  0  0  0  0
  195.1690  169.7720  146.0420 S   0  0  0  0  0  0  0  0  0  0  0  0
  195.4880  173.3700  145.3560 C   0  0  0  0  0  2  0  0  0  0  0  0
  196.0050  176.2220  142.8590 N   0  0  0  0  0  2  0  0  0  0  0  0
  197.5070  174.5890  143.7050 N   0  0  0  0  0  2  0  0  0  0  0  0
  195.2990  174.5640  144.5420 N   0  0  0  0  0  2  0  0  0  0  0  0
  196.3100  175.0800  143.6720 C   0  0  0  0  0  0  0  0  0  0  0  0
  196.8110  176.7230  141.8180 N   0  0  0  0  0  2  0  0  0  0  0  0
  197.0340  176.0450  140.6090 C   0  0  0  0  0  0  0  0  0  0  0  0
  197.2280  175.4630  139.5710 C   0  0  0  0  0  3  0  0  0  0  0  0
  1  3  1  0  0  0  0
  2  5  2  0  0  0  0
  2  6  1  0  0  0  0
  3 29  1  6  0  0  0
  4  2  1  0  0  0  0
  5  3  1  0  0  0  0
  6  1  1  0  0  0  0
  7  9  1  0  0  0  0
  8 10  1  0  0  0  0
  8  7  1  0  0  0  0
 11 10  1  1  0  0  0
 11  6  1  0  0  0  0
 11 12  1  0  0  0  0
 12  9  1  0  0  0  0
 13 16  1  0  0  0  0
 14 15  1  0  0  0  0
 15 17  2  0  0  0  0
 16  7  1  0  0  0  0
 16 18  2  0  0  0  0
 17 18  1  0  0  0  0
 17 22  1  0  0  0  0
 19 13  2  0  0  0  0
 19 15  1  0  0  0  0
 22 21  1  0  0  0  0
 22 20  2  0  0  0  0
 23 25  1  0  0  0  0
 23 24  1  0  0  0  0
 24  5  1  1  0  0  0
 24 28  1  0  0  0  0
 25 27  1  6  0  0  0
 25 26  1  0  0  0  0
 26 28  1  0  0  0  0
 30 33  1  0  0  0  0
 32 29  1  0  0  0  0
 33 31  2  0  0  0  0
 33 32  1  0  0  0  0
 34 30  1  0  0  0  0
 35 34  1  0  0  0  0
 36 35  3  0  0  0  0
M  END
>  <MODEL>
6

>  <REMARK>
 VINA RESULT:      -6.5      2.315      4.137
  Name = 
  8 active torsions:
  status: ('A' for Active; 'I' for Inactive)
    1  A    between atoms: N_1  and  C_28
    2  A    between atoms: N_10  and  N_20
    3  A    between atoms: C_12  and  C_17
    4  A    between atoms: C_13  and  C_26
    5  A    between atoms: C_18  and  N_20
    6  A    between atoms: N_19  and  C_26
    7  A    between atoms: C_21  and  N_22
    8  A    between atoms: C_27  and  C_29
                            x       y       z     vdW  Elec       q    Type
                         _______ _______ _______ _____ _____    ______ ____

>  <TORSDO>
F 8

$$$$
=
 OpenBabel11042414423D

 36 39  0  0  1  0  0  0  0  0999 V2000
  187.5030  175.7320  141.9800 N   0  0  0  0  0  2  0  0  0  0  0  0
  187.7370  176.3520  144.2150 C   0  0  0  0  0  0  0  0  0  0  0  0
  186.3150  176.4830  142.4240 C   0  0  1  0  0  3  0  0  0  0  0  0
  188.3690  176.4710  145.5630 C   0  0  0  0  0  1  0  0  0  0  0  0
  186.5590  176.8240  143.8610 C   0  0  0  0  0  0  0  0  0  0  0  0
  188.3220  175.6860  143.1180 N   0  0  0  0  0  0  0  0  0  0  0  0
  192.2360  174.8510  144.3630 N   0  0  0  0  0  0  0  0  0  0  0  0
  191.3720  173.6830  144.1520 C   0  0  0  0  0  2  0  0  0  0  0  0
  191.6360  176.1850  144.4510 C   0  0  0  0  0  2  0  0  0  0  0  0
  189.8990  174.0790  144.0770 C   0  0  0  0  0  2  0  0  0  0  0  0
  189.7030  175.2220  143.0770 C   0  0  2  0  0  3  0  0  0  0  0  0
  190.6660  176.4040  143.2890 C   0  0  0  0  0  2  0  0  0  0  0  0
  194.1680  173.8330  145.5160 C   0  0  0  0  0  3  0  0  0  0  0  0
  197.8010  174.1660  145.0280 O   0  0  0  0  0  1  0  0  0  0  0  0
  196.4370  174.3580  144.8410 C   0  0  0  0  0  0  0  0  0  0  0  0
  193.6580  174.6830  144.5240 C   0  0  0  0  0  0  0  0  0  0  0  0
  195.9450  175.2200  143.8370 C   0  0  0  0  0  0  0  0  0  0  0  0
  194.5580  175.3680  143.6930 C   0  0  0  0  0  3  0  0  0  0  0  0
  195.5460  173.6730  145.6720 C   0  0  0  0  0  3  0  0  0  0  0  0
  197.1110  177.1830  143.1380 O   0  0  0  0  0  0  0  0  0  0  0  0
  197.4100  175.3280  141.7890 N   0  0  0  0  0  1  0  0  0  0  0  0
  196.8400  175.9720  142.9260 C   0  0  0  0  0  0  0  0  0  0  0  0
  185.5530  177.0240  146.1400 C   0  0  0  0  0  2  0  0  0  0  0  0
  185.5810  177.5660  144.7260 C   0  0  1  0  0  3  0  0  0  0  0  0
  185.0260  178.1370  147.0110 C   0  0  2  0  0  3  0  0  0  0  0  0
  185.7300  179.4040  146.5810 C   0  0  0  0  0  2  0  0  0  0  0  0
  185.3280  177.8450  148.4660 C   0  0  0  0  0  1  0  0  0  0  0  0
  185.9400  179.3530  144.7750 S   0  0  0  0  0  0  0  0  0  0  0  0
  186.1650  177.7590  141.6030 C   0  0  0  0  0  2  0  0  0  0  0  0
  182.5890  178.1990  140.3160 N   0  0  0  0  0  2  0  0  0  0  0  0
  183.5540  178.6330  142.4410 N   0  0  0  0  0  2  0  0  0  0  0  0
  184.9600  177.7070  140.7850 N   0  0  0  0  0  2  0  0  0  0  0  0
  183.7030  178.2340  141.2190 C   0  0  0  0  0  0  0  0  0  0  0  0
  181.3560  178.8480  140.5130 N   0  0  0  0  0  2  0  0  0  0  0  0
  180.2870  178.2890  141.2320 C   0  0  0  0  0  0  0  0  0  0  0  0
  179.3700  177.8070  141.8490 C   0  0  0  0  0  3  0  0  0  0  0  0
  1  3  1  0  0  0  0
  1  6  1  0  0  0  0
  2  4  1  0  0  0  0
  3 29  1  6  0  0  0
  3  5  1  0  0  0  0
  5  2  2  0  0  0  0
  6  2  1  0  0  0  0
  7  9  1  0  0  0  0
  7 16  1  0  0  0  0
  8  7  1  0  0  0  0
 10  8  1  0  0  0  0
 11  6  1  1  0  0  0
 11 12  1  0  0  0  0
 11 10  1  0  0  0  0
 12  9  1  0  0  0  0
 13 19  1  0  0  0  0
 15 14  1  0  0  0  0
 15 19  2  0  0  0  0
 16 13  2  0  0  0  0
 17 15  1  0  0  0  0
 18 17  2  0  0  0  0
 18 16  1  0  0  0  0
 21 22  1  0  0  0  0
 22 20  2  0  0  0  0
 22 17  1  0  0  0  0
 23 25  1  0  0  0  0
 24  5  1  6  0  0  0
 24 28  1  0  0  0  0
 24 23  1  0  0  0  0
 25 27  1  1  0  0  0
 26 25  1  0  0  0  0
 28 26  1  0  0  0  0
 30 34  1  0  0  0  0
 30 33  1  0  0  0  0
 32 33  1  0  0  0  0
 32 29  1  0  0  0  0
 33 31  2  0  0  0  0
 34 35  1  0  0  0  0
 35 36  3  0  0  0  0
M  END
>  <MODEL>
7

>  <REMARK>
 VINA RESULT:      -6.3      4.996      9.737
  Name = 
  8 active torsions:
  status: ('A' for Active; 'I' for Inactive)
    1  A    between atoms: N_1  and  C_28
    2  A    between atoms: N_10  and  N_20
    3  A    between atoms: C_12  and  C_17
    4  A    between atoms: C_13  and  C_26
    5  A    between atoms: C_18  and  N_20
    6  A    between atoms: N_19  and  C_26
    7  A    between atoms: C_21  and  N_22
    8  A    between atoms: C_27  and  C_29
                            x       y       z     vdW  Elec       q    Type
                         _______ _______ _______ _____ _____    ______ ____

>  <TORSDO>
F 8

$$$$
=
 OpenBabel11042414423D

 36 39  0  0  1  0  0  0  0  0999 V2000
  193.8660  176.0230  142.2620 N   0  0  0  0  0  2  0  0  0  0  0  0
  193.8670  174.1800  143.6880 C   0  0  0  0  0  0  0  0  0  0  0  0
  195.1090  175.2510  142.0890 C   0  0  1  0  0  3  0  0  0  0  0  0
  193.3730  173.2340  144.7340 C   0  0  0  0  0  1  0  0  0  0  0  0
  195.0160  174.1040  143.0470 C   0  0  0  0  0  0  0  0  0  0  0  0
  193.1610  175.3200  143.2510 N   0  0  0  0  0  0  0  0  0  0  0  0
  189.3620  177.0820  143.1130 N   0  0  0  0  0  0  0  0  0  0  0  0
  189.4290  175.6780  142.6850 C   0  0  0  0  0  2  0  0  0  0  0  0
  190.5990  177.8570  143.2400 C   0  0  0  0  0  2  0  0  0  0  0  0
  190.8660  175.2440  142.4070 C   0  0  0  0  0  2  0  0  0  0  0  0
  191.7730  175.6090  143.5860 C   0  0  2  0  0  3  0  0  0  0  0  0
  191.6320  177.0700  144.0470 C   0  0  0  0  0  2  0  0  0  0  0  0
  187.3850  178.3390  142.3310 C   0  0  0  0  0  3  0  0  0  0  0  0
  184.3630  179.5300  144.0610 O   0  0  0  0  0  1  0  0  0  0  0  0
  185.5960  178.9210  143.8600 C   0  0  0  0  0  0  0  0  0  0  0  0
  188.0860  177.7030  143.3650 C   0  0  0  0  0  0  0  0  0  0  0  0
  186.2860  178.2870  144.9180 C   0  0  0  0  0  0  0  0  0  0  0  0
  187.5250  177.6850  144.6510 C   0  0  0  0  0  3  0  0  0  0  0  0
  186.1510  178.9430  142.5780 C   0  0  0  0  0  3  0  0  0  0  0  0
  185.6560  179.2730  146.9990 O   0  0  0  0  0  0  0  0  0  0  0  0
  185.3260  176.9890  146.8520 N   0  0  0  0  0  1  0  0  0  0  0  0
  185.7490  178.2320  146.2970 C   0  0  0  0  0  0  0  0  0  0  0  0
  196.3590  172.7870  144.6920 C   0  0  0  0  0  2  0  0  0  0  0  0
  196.0910  173.0710  143.2290 C   0  0  1  0  0  3  0  0  0  0  0  0
  196.9770  171.4130  144.7510 C   0  0  2  0  0  3  0  0  0  0  0  0
  196.1700  170.5260  143.8290 C   0  0  0  0  0  2  0  0  0  0  0  0
  196.9180  170.8770  146.1670 C   0  0  0  0  0  1  0  0  0  0  0  0
  195.6810  171.5100  142.3800 S   0  0  0  0  0  0  0  0  0  0  0  0
  195.2070  174.7300  140.6590 C   0  0  0  0  0  2  0  0  0  0  0  0
  191.8700  173.9840  138.9460 N   0  0  0  0  0  2  0  0  0  0  0  0
  193.6360  172.5510  139.6260 N   0  0  0  0  0  2  0  0  0  0  0  0
  193.9300  174.8690  139.9720 N   0  0  0  0  0  2  0  0  0  0  0  0
  193.1470  173.7470  139.5540 C   0  0  0  0  0  0  0  0  0  0  0  0
  190.9030  173.0000  138.6650 N   0  0  0  0  0  2  0  0  0  0  0  0
  189.5260  173.1790  138.8690 C   0  0  0  0  0  0  0  0  0  0  0  0
  188.3430  173.3360  139.0440 C   0  0  0  0  0  3  0  0  0  0  0  0
  1  6  1  0  0  0  0
  2  4  1  0  0  0  0
  3 29  1  6  0  0  0
  3  1  1  0  0  0  0
  3  5  1  0  0  0  0
  5  2  2  0  0  0  0
  6 11  1  0  0  0  0
  6  2  1  0  0  0  0
  7  9  1  0  0  0  0
  7 16  1  0  0  0  0
  8  7  1  0  0  0  0
  9 12  1  0  0  0  0
 10  8  1  0  0  0  0
 11 10  1  6  0  0  0
 11 12  1  0  0  0  0
 13 19  2  0  0  0  0
 13 16  1  0  0  0  0
 15 14  1  0  0  0  0
 15 17  2  0  0  0  0
 16 18  2  0  0  0  0
 17 22  1  0  0  0  0
 18 17  1  0  0  0  0
 19 15  1  0  0  0  0
 22 21  1  0  0  0  0
 22 20  2  0  0  0  0
 23 25  1  0  0  0  0
 24  5  1  1  0  0  0
 24 23  1  0  0  0  0
 25 27  1  1  0  0  0
 26 25  1  0  0  0  0
 28 24  1  0  0  0  0
 28 26  1  0  0  0  0
 30 33  1  0  0  0  0
 32 29  1  0  0  0  0
 33 31  2  0  0  0  0
 33 32  1  0  0  0  0
 34 35  1  0  0  0  0
 34 30  1  0  0  0  0
 35 36  3  0  0  0  0
M  END
>  <MODEL>
8

>  <REMARK>
 VINA RESULT:      -6.2      1.892      2.162
  Name = 
  8 active torsions:
  status: ('A' for Active; 'I' for Inactive)
    1  A    between atoms: N_1  and  C_28
    2  A    between atoms: N_10  and  N_20
    3  A    between atoms: C_12  and  C_17
    4  A    between atoms: C_13  and  C_26
    5  A    between atoms: C_18  and  N_20
    6  A    between atoms: N_19  and  C_26
    7  A    between atoms: C_21  and  N_22
    8  A    between atoms: C_27  and  C_29
                            x       y       z     vdW  Elec       q    Type
                         _______ _______ _______ _____ _____    ______ ____

>  <TORSDO>
F 8

$$$$
=
 OpenBabel11042414423D

 36 39  0  0  1  0  0  0  0  0999 V2000
  190.2620  171.7250  141.0790 N   0  0  0  0  0  2  0  0  0  0  0  0
  189.3640  172.7340  139.1790 C   0  0  0  0  0  0  0  0  0  0  0  0
  190.9770  171.2640  139.8760 C   0  0  1  0  0  3  0  0  0  0  0  0
  188.4630  173.6020  138.3640 C   0  0  0  0  0  1  0  0  0  0  0  0
  190.3240  171.9570  138.7200 C   0  0  0  0  0  0  0  0  0  0  0  0
  189.2940  172.6110  140.5830 N   0  0  0  0  0  0  0  0  0  0  0  0
  188.3320  175.5600  143.4010 N   0  0  0  0  0  0  0  0  0  0  0  0
  187.9550  175.8580  142.0130 C   0  0  0  0  0  2  0  0  0  0  0  0
  189.2690  174.4670  143.6750 C   0  0  0  0  0  2  0  0  0  0  0  0
  188.6660  174.9340  141.0270 C   0  0  0  0  0  2  0  0  0  0  0  0
  188.4960  173.4710  141.4460 C   0  0  2  0  0  3  0  0  0  0  0  0
  188.8410  173.2060  142.9230 C   0  0  0  0  0  2  0  0  0  0  0  0
  188.2840  176.1810  145.7900 C   0  0  0  0  0  3  0  0  0  0  0  0
  186.3360  178.6820  147.6610 O   0  0  0  0  0  1  0  0  0  0  0  0
  186.8050  177.9270  146.5920 C   0  0  0  0  0  0  0  0  0  0  0  0
  187.8160  176.3620  144.4810 C   0  0  0  0  0  0  0  0  0  0  0  0
  186.3190  178.1250  145.2810 C   0  0  0  0  0  0  0  0  0  0  0  0
  186.8350  177.3370  144.2420 C   0  0  0  0  0  3  0  0  0  0  0  0
  187.7820  176.9580  146.8360 C   0  0  0  0  0  3  0  0  0  0  0  0
  185.5660  180.1590  144.2820 O   0  0  0  0  0  0  0  0  0  0  0  0
  183.9470  178.9630  145.4200 N   0  0  0  0  0  1  0  0  0  0  0  0
  185.2850  179.1370  144.9610 C   0  0  0  0  0  0  0  0  0  0  0  0
  191.8200  172.7020  136.8620 C   0  0  0  0  0  2  0  0  0  0  0  0
  190.7190  171.7520  137.2860 C   0  0  1  0  0  3  0  0  0  0  0  0
  192.5040  172.0590  135.6820 C   0  0  2  0  0  3  0  0  0  0  0  0
  192.7020  170.6000  136.0280 C   0  0  0  0  0  2  0  0  0  0  0  0
  193.8450  172.7190  135.4360 C   0  0  0  0  0  1  0  0  0  0  0  0
  191.2500  170.0370  136.9680 S   0  0  0  0  0  0  0  0  0  0  0  0
  192.4480  171.6570  139.9570 C   0  0  0  0  0  2  0  0  0  0  0  0
  193.0680  174.6570  142.2490 N   0  0  0  0  0  2  0  0  0  0  0  0
  193.0490  174.4720  139.8820 N   0  0  0  0  0  2  0  0  0  0  0  0
  192.6940  172.4950  141.1250 N   0  0  0  0  0  2  0  0  0  0  0  0
  192.9030  173.9060  141.0380 C   0  0  0  0  0  0  0  0  0  0  0  0
  193.0840  176.0610  142.3450 N   0  0  0  0  0  2  0  0  0  0  0  0
  192.2230  176.7950  143.1780 C   0  0  0  0  0  0  0  0  0  0  0  0
  191.4840  177.4270  143.8910 C   0  0  0  0  0  3  0  0  0  0  0  0
  2  6  1  0  0  0  0
  3 29  1  1  0  0  0
  3  1  1  0  0  0  0
  4  2  1  0  0  0  0
  5  2  2  0  0  0  0
  5  3  1  0  0  0  0
  6  1  1  0  0  0  0
  7  9  1  0  0  0  0
  7 16  1  0  0  0  0
  8  7  1  0  0  0  0
 10 11  1  0  0  0  0
 10  8  1  0  0  0  0
 11  6  1  6  0  0  0
 11 12  1  0  0  0  0
 12  9  1  0  0  0  0
 13 19  1  0  0  0  0
 15 19  2  0  0  0  0
 15 14  1  0  0  0  0
 16 13  2  0  0  0  0
 17 15  1  0  0  0  0
 18 16  1  0  0  0  0
 18 17  2  0  0  0  0
 20 22  2  0  0  0  0
 22 17  1  0  0  0  0
 22 21  1  0  0  0  0
 23 24  1  0  0  0  0
 24  5  1  1  0  0  0
 25 27  1  1  0  0  0
 25 26  1  0  0  0  0
 25 23  1  0  0  0  0
 26 28  1  0  0  0  0
 28 24  1  0  0  0  0
 29 32  1  0  0  0  0
 30 34  1  0  0  0  0
 31 33  2  0  0  0  0
 33 32  1  0  0  0  0
 33 30  1  0  0  0  0
 34 35  1  0  0  0  0
 35 36  3  0  0  0  0
M  END
>  <MODEL>
9

>  <REMARK>
 VINA RESULT:      -6.0      3.526      6.053
  Name = 
  8 active torsions:
  status: ('A' for Active; 'I' for Inactive)
    1  A    between atoms: N_1  and  C_28
    2  A    between atoms: N_10  and  N_20
    3  A    between atoms: C_12  and  C_17
    4  A    between atoms: C_13  and  C_26
    5  A    between atoms: C_18  and  N_20
    6  A    between atoms: N_19  and  C_26
    7  A    between atoms: C_21  and  N_22
    8  A    between atoms: C_27  and  C_29
                            x       y       z     vdW  Elec       q    Type
                         _______ _______ _______ _____ _____    ______ ____

>  <TORSDO>
F 8

$$$$
