=
 OpenBabel11042414243D

 48 52  0  0  1  0  0  0  0  0999 V2000
  189.7410  174.9090  144.1390 F   0  0  0  0  0  0  0  0  0  0  0  0
  193.8700  169.3170  143.7350 C   0  0  0  0  0  3  0  0  0  0  0  0
  190.8780  174.9140  144.8790 C   0  0  0  0  0  0  0  0  0  0  0  0
  191.1640  175.9930  145.7300 C   0  0  0  0  0  0  0  0  0  0  0  0
  194.2740  170.3890  144.5330 C   0  0  0  0  0  0  0  0  0  0  0  0
  193.2240  174.9100  146.4060 C   0  0  0  0  0  3  0  0  0  0  0  0
  191.7580  173.8280  144.8050 C   0  0  2  0  0  3  0  0  0  0  0  0
  191.4530  172.7470  143.9790 O   0  0  0  0  0  0  0  0  0  0  0  0
  192.6770  169.3810  143.0190 C   0  0  0  0  0  3  0  0  0  0  0  0
  192.9360  173.8260  145.5720 C   0  0  0  0  0  0  0  0  0  0  0  0
  192.2520  171.6030  143.9000 C   0  0  0  0  0  0  0  0  0  0  0  0
  191.8550  170.5080  143.0940 C   0  0  0  0  0  0  0  0  0  0  0  0
  192.3410  175.9900  146.4870 C   0  0  0  0  0  3  0  0  0  0  0  0
  193.4640  171.5390  144.6240 C   0  0  0  0  0  0  0  0  0  0  0  0
  193.9000  172.6820  145.5080 C   0  0  0  0  0  3  0  0  0  0  0  0
  196.7640  169.5590  147.2380 O   0  0  0  0  0  1  0  0  0  0  0  0
  195.5510  169.6910  146.5700 C   0  0  0  0  0  0  0  0  0  0  0  0
  195.5040  170.2870  145.2640 N   0  0  0  0  0  0  0  0  0  0  0  0
  194.4930  169.2900  147.1270 O   0  0  0  0  0  0  0  0  0  0  0  0
  196.7220  170.7960  144.6490 C   0  0  0  0  0  2  0  0  0  0  0  0
  197.1780  172.0630  145.3690 C   0  0  0  0  0  2  0  0  0  0  0  0
  197.0000  174.0770  142.0500 C   0  0  0  0  0  2  0  0  0  0  0  0
  196.7120  172.9500  143.0510 C   0  0  0  0  0  2  0  0  0  0  0  0
  197.3450  173.2400  144.4150 C   0  0  0  0  0  3  0  0  0  0  0  0
  197.1470  175.4580  142.7020 C   0  0  0  0  0  2  0  0  0  0  0  0
  196.8270  174.5500  145.0330 C   0  0  0  0  0  2  0  0  0  0  0  0
  196.3330  175.5600  143.9890 C   0  0  0  0  0  2  0  0  0  0  0  0
  190.6670  170.4860  142.3450 O   0  0  0  0  0  0  0  0  0  0  0  0
  189.5260  172.2670  141.1890 C   0  0  0  0  0  1  0  0  0  0  0  0
  190.4900  171.1000  141.0740 C   0  0  0  0  0  2  0  0  0  0  0  0
  190.2260  177.1490  145.8360 C   0  0  0  0  0  2  0  0  0  0  0  0
  189.9500  178.1200  148.0090 O   0  0  0  0  0  1  0  0  0  0  0  0
  189.4680  177.1190  147.1620 C   0  0  1  0  0  3  0  0  0  0  0  0
  187.4990  178.5320  147.5680 N   0  0  0  0  0  1  0  0  0  0  0  0
  187.9620  177.2970  146.9560 C   0  0  1  0  0  3  0  0  0  0  0  0
  187.5950  177.3010  145.4810 C   0  0  0  0  0  2  0  0  0  0  0  0
  186.2490  177.9810  145.2370 C   0  0  1  0  0  3  0  0  0  0  0  0
  186.1630  178.5690  143.8210 C   0  0  2  0  0  3  0  0  0  0  0  0
  185.5600  179.8320  143.8170 O   0  0  0  0  0  1  0  0  0  0  0  0
  185.4880  177.6180  142.8250 C   0  0  1  0  0  3  0  0  0  0  0  0
  185.1680  178.3080  141.5000 C   0  0  0  0  0  2  0  0  0  0  0  0
  183.3820  178.2330  141.1570 S   0  0  0  0  0  1  0  0  0  0  0  0
  186.3060  176.5060  142.6010 O   0  0  0  0  0  0  0  0  0  0  0  0
  188.5390  176.9000  141.9090 C   0  0  0  0  0  2  0  0  0  0  0  0
  188.0110  175.6980  141.1510 C   0  0  0  0  0  2  0  0  0  0  0  0
  187.0830  176.8480  141.4930 C   0  0  0  0  0  3  0  0  0  0  0  0
  184.4040  177.6380  146.4180 C   0  0  0  0  0  1  0  0  0  0  0  0
  185.2130  177.0640  145.4320 O   0  0  0  0  0  0  0  0  0  0  0  0
  1  3  1  0  0  0  0
  2  5  1  0  0  0  0
  3  4  2  0  0  0  0
  4 31  1  0  0  0  0
  4 13  1  0  0  0  0
  5 14  2  0  0  0  0
  5 18  1  0  0  0  0
  6 13  2  0  0  0  0
  7  8  1  1  0  0  0
  7  3  1  0  0  0  0
  7 10  1  0  0  0  0
  9 12  1  0  0  0  0
  9  2  2  0  0  0  0
 10  6  1  0  0  0  0
 11  8  1  0  0  0  0
 11 14  1  0  0  0  0
 12 11  2  0  0  0  0
 14 15  1  0  0  0  0
 15 10  2  0  0  0  0
 17 19  2  0  0  0  0
 17 16  1  0  0  0  0
 18 17  1  0  0  0  0
 20 18  1  0  0  0  0
 20 21  1  0  0  0  0
 22 25  1  0  0  0  0
 22 23  1  0  0  0  0
 23 24  1  0  0  0  0
 24 26  1  0  0  0  0
 24 21  1  0  0  0  0
 25 27  1  0  0  0  0
 27 26  1  0  0  0  0
 28 12  1  0  0  0  0
 30 29  1  0  0  0  0
 30 28  1  0  0  0  0
 31 33  1  0  0  0  0
 33 32  1  1  0  0  0
 35 33  1  0  0  0  0
 35 34  1  6  0  0  0
 36 35  1  0  0  0  0
 37 48  1  0  0  0  0
 37 36  1  6  0  0  0
 38 39  1  1  0  0  0
 38 37  1  0  0  0  0
 40 41  1  6  0  0  0
 40 38  1  0  0  0  0
 42 41  1  0  0  0  0
 43 40  1  0  0  0  0
 45 46  1  0  0  0  0
 45 44  1  0  0  0  0
 46 44  1  0  0  0  0
 46 43  1  0  0  0  0
 48 47  1  0  0  0  0
M  END
>  <MODEL>
1

>  <REMARK>
 VINA RESULT:      -6.7      0.000      0.000
  Name = 
  17 active torsions:
  status: ('A' for Active; 'I' for Inactive)
    1  A    between atoms: C_1  and  C_6
    2  A    between atoms: C_1  and  C_22
    3  A    between atoms: C_3  and  C_22
    4  A    between atoms: C_6  and  C_9
    5  A    between atoms: C_6  and  O_48
    6  A    between atoms: C_7  and  C_26
    7  A    between atoms: O_8  and  C_22
    8  A    between atoms: O_8  and  C_41
    9  A    between atoms: C_9  and  C_45
   10  A    between atoms: C_15  and  C_18
   11  A    between atoms: C_15  and  C_47
   12  A    between atoms: O_20  and  C_24
   13  A    between atoms: O_20  and  C_39
   14  A    between atoms: C_21  and  N_34
   15  A    between atoms: C_26  and  C_44
   16  A    between atoms: N_34  and  C_44
   17  A    between atoms: C_45  and  C_47
                            x       y       z     vdW  Elec       q    Type
                         _______ _______ _______ _____ _____    ______ ____

>  <TORSDO>
F 17

$$$$
=
 OpenBabel11042414243D

 48 52  0  0  1  0  0  0  0  0999 V2000
  192.0620  177.6460  144.5410 F   0  0  0  0  0  0  0  0  0  0  0  0
  196.2570  172.3270  142.9360 C   0  0  0  0  0  3  0  0  0  0  0  0
  191.6160  176.3930  144.8100 C   0  0  0  0  0  0  0  0  0  0  0  0
  190.3320  176.1960  145.3410 C   0  0  0  0  0  0  0  0  0  0  0  0
  195.0330  172.0500  143.5480 C   0  0  0  0  0  0  0  0  0  0  0  0
  190.7060  173.8020  145.3530 C   0  0  0  0  0  3  0  0  0  0  0  0
  192.4370  175.2920  144.5380 C   0  0  2  0  0  3  0  0  0  0  0  0
  193.7000  175.4940  143.9840 O   0  0  0  0  0  0  0  0  0  0  0  0
  196.6350  173.6420  142.6750 C   0  0  0  0  0  3  0  0  0  0  0  0
  191.9810  173.9920  144.8100 C   0  0  0  0  0  0  0  0  0  0  0  0
  194.5510  174.4420  143.6300 C   0  0  0  0  0  0  0  0  0  0  0  0
  195.7950  174.7080  143.0080 C   0  0  0  0  0  0  0  0  0  0  0  0
  189.8830  174.9000  145.6170 C   0  0  0  0  0  3  0  0  0  0  0  0
  194.1690  173.1080  143.8960 C   0  0  0  0  0  0  0  0  0  0  0  0
  192.8390  172.7950  144.5370 C   0  0  0  0  0  3  0  0  0  0  0  0
  194.4910  168.7580  145.3010 O   0  0  0  0  0  0  0  0  0  0  0  0
  194.8970  170.0680  145.0710 C   0  0  0  0  0  0  0  0  0  0  0  0
  194.6710  170.6840  143.7940 N   0  0  0  0  0  0  0  0  0  0  0  0
  195.4720  170.7060  145.9950 O   0  0  0  0  0  1  0  0  0  0  0  0
  194.0540  169.9240  142.7150 C   0  0  0  0  0  2  0  0  0  0  0  0
  192.5490  169.8160  142.9510 C   0  0  0  0  0  2  0  0  0  0  0  0
  189.6640  171.9250  141.4250 C   0  0  0  0  0  2  0  0  0  0  0  0
  190.5510  171.2940  142.5070 C   0  0  0  0  0  2  0  0  0  0  0  0
  191.7440  170.5580  141.8900 C   0  0  0  0  0  3  0  0  0  0  0  0
  190.4340  172.3480  140.1660 C   0  0  0  0  0  2  0  0  0  0  0  0
  192.6350  171.4900  141.0500 C   0  0  0  0  0  2  0  0  0  0  0  0
  191.8830  172.7030  140.4880 C   0  0  0  0  0  2  0  0  0  0  0  0
  196.2510  176.0010  142.7050 O   0  0  0  0  0  0  0  0  0  0  0  0
  194.9610  176.0200  140.6700 C   0  0  0  0  0  1  0  0  0  0  0  0
  196.1060  176.6460  141.4460 C   0  0  0  0  0  2  0  0  0  0  0  0
  189.4360  177.3570  145.6170 C   0  0  0  0  0  2  0  0  0  0  0  0
  189.2650  178.3020  147.8120 O   0  0  0  0  0  1  0  0  0  0  0  0
  188.8140  177.2520  147.0090 C   0  0  1  0  0  3  0  0  0  0  0  0
  186.7670  178.5820  147.2920 N   0  0  0  0  0  1  0  0  0  0  0  0
  187.2850  177.2670  146.9470 C   0  0  1  0  0  3  0  0  0  0  0  0
  186.7750  176.8730  145.5700 C   0  0  0  0  0  2  0  0  0  0  0  0
  185.9740  178.0010  144.9230 C   0  0  1  0  0  3  0  0  0  0  0  0
  186.4410  178.2690  143.4850 C   0  0  2  0  0  3  0  0  0  0  0  0
  186.2970  179.6170  143.1330 O   0  0  0  0  0  1  0  0  0  0  0  0
  185.7700  177.3440  142.4610 C   0  0  1  0  0  3  0  0  0  0  0  0
  185.6330  178.0080  141.0920 C   0  0  0  0  0  2  0  0  0  0  0  0
  183.8780  178.2530  140.6770 S   0  0  0  0  0  1  0  0  0  0  0  0
  186.4990  176.1560  142.3470 O   0  0  0  0  0  0  0  0  0  0  0  0
  188.8160  175.7060  142.1260 C   0  0  0  0  0  2  0  0  0  0  0  0
  188.1250  175.2840  140.8450 C   0  0  0  0  0  2  0  0  0  0  0  0
  187.6320  176.4980  141.6090 C   0  0  0  0  0  3  0  0  0  0  0  0
  183.9800  178.7960  145.4750 C   0  0  0  0  0  1  0  0  0  0  0  0
  184.6150  177.6780  144.9260 O   0  0  0  0  0  0  0  0  0  0  0  0
  1  3  1  0  0  0  0
  2  5  1  0  0  0  0
  3  4  2  0  0  0  0
  4 31  1  0  0  0  0
  4 13  1  0  0  0  0
  5 18  1  0  0  0  0
  5 14  2  0  0  0  0
  6 13  2  0  0  0  0
  7  8  1  6  0  0  0
  7  3  1  0  0  0  0
  7 10  1  0  0  0  0
  9  2  2  0  0  0  0
  9 12  1  0  0  0  0
 10  6  1  0  0  0  0
 11 14  1  0  0  0  0
 11  8  1  0  0  0  0
 12 11  2  0  0  0  0
 14 15  1  0  0  0  0
 15 10  2  0  0  0  0
 17 16  2  0  0  0  0
 17 19  1  0  0  0  0
 18 17  1  0  0  0  0
 20 21  1  0  0  0  0
 20 18  1  0  0  0  0
 22 23  1  0  0  0  0
 24 23  1  0  0  0  0
 24 21  1  0  0  0  0
 25 27  1  0  0  0  0
 25 22  1  0  0  0  0
 26 24  1  0  0  0  0
 27 26  1  0  0  0  0
 28 12  1  0  0  0  0
 29 30  1  0  0  0  0
 30 28  1  0  0  0  0
 31 33  1  0  0  0  0
 33 32  1  1  0  0  0
 35 33  1  0  0  0  0
 35 34  1  6  0  0  0
 36 35  1  0  0  0  0
 37 48  1  0  0  0  0
 37 36  1  6  0  0  0
 38 39  1  6  0  0  0
 38 37  1  0  0  0  0
 40 41  1  6  0  0  0
 40 38  1  0  0  0  0
 42 41  1  0  0  0  0
 43 40  1  0  0  0  0
 45 46  1  0  0  0  0
 45 44  1  0  0  0  0
 46 44  1  0  0  0  0
 46 43  1  0  0  0  0
 48 47  1  0  0  0  0
M  END
>  <MODEL>
2

>  <REMARK>
 VINA RESULT:      -6.4      1.703      3.788
  Name = 
  17 active torsions:
  status: ('A' for Active; 'I' for Inactive)
    1  A    between atoms: C_1  and  C_6
    2  A    between atoms: C_1  and  C_22
    3  A    between atoms: C_3  and  C_22
    4  A    between atoms: C_6  and  C_9
    5  A    between atoms: C_6  and  O_48
    6  A    between atoms: C_7  and  C_26
    7  A    between atoms: O_8  and  C_22
    8  A    between atoms: O_8  and  C_41
    9  A    between atoms: C_9  and  C_45
   10  A    between atoms: C_15  and  C_18
   11  A    between atoms: C_15  and  C_47
   12  A    between atoms: O_20  and  C_24
   13  A    between atoms: O_20  and  C_39
   14  A    between atoms: C_21  and  N_34
   15  A    between atoms: C_26  and  C_44
   16  A    between atoms: N_34  and  C_44
   17  A    between atoms: C_45  and  C_47
                            x       y       z     vdW  Elec       q    Type
                         _______ _______ _______ _____ _____    ______ ____

>  <TORSDO>
F 17

$$$$
=
 OpenBabel11042414243D

 48 52  0  0  1  0  0  0  0  0999 V2000
  190.2600  176.3890  143.5180 F   0  0  0  0  0  0  0  0  0  0  0  0
  197.0370  175.1150  142.5540 C   0  0  0  0  0  3  0  0  0  0  0  0
  190.6000  175.5060  142.5460 C   0  0  0  0  0  0  0  0  0  0  0  0
  189.6100  174.9230  141.7390 C   0  0  0  0  0  0  0  0  0  0  0  0
  196.1100  174.4230  141.7720 C   0  0  0  0  0  0  0  0  0  0  0  0
  191.3150  173.6900  140.5390 C   0  0  0  0  0  2  0  0  0  0  0  0
  191.9480  175.1890  142.3370 C   0  0  0  0  0  0  0  0  0  0  0  0
  192.9280  175.7930  143.1230 O   0  0  0  0  0  0  0  0  0  0  0  0
  196.6080  176.0210  143.5200 C   0  0  0  0  0  3  0  0  0  0  0  0
  192.3070  174.2780  141.3290 C   0  0  0  0  0  0  0  0  0  0  0  0
  194.2960  175.5730  142.9330 C   0  0  0  0  0  0  0  0  0  0  0  0
  195.2470  176.2670  143.7190 C   0  0  0  0  0  0  0  0  0  0  0  0
  189.9700  174.0120  140.7410 C   0  0  0  0  0  3  0  0  0  0  0  0
  194.7300  174.6520  141.9540 C   0  0  0  0  0  0  0  0  0  0  0  0
  193.7390  173.9150  141.0870 C   0  0  0  0  0  3  0  0  0  0  0  0
  197.5280  173.0480  138.5620 O   0  0  0  0  0  0  0  0  0  0  0  0
  197.0240  173.9540  139.4890 C   0  0  0  0  0  0  0  0  0  0  0  0
  196.5850  173.5030  140.7800 N   0  0  0  0  0  0  0  0  0  0  0  0
  196.9500  175.1750  139.1810 O   0  0  0  0  0  1  0  0  0  0  0  0
  196.6250  172.0840  141.1100 C   0  0  0  0  0  2  0  0  0  0  0  0
  197.6240  171.8410  142.2390 C   0  0  0  0  0  2  0  0  0  0  0  0
  196.7840  171.6470  146.0280 C   0  0  0  0  0  2  0  0  0  0  0  0
  197.3590  172.2130  144.7220 C   0  0  0  0  0  2  0  0  0  0  0  0
  196.9460  171.3620  143.5170 C   0  0  0  0  0  3  0  0  0  0  0  0
  195.4420  170.9240  145.8490 C   0  0  0  0  0  2  0  0  0  0  0  0
  195.4180  171.2820  143.3530 C   0  0  0  0  0  2  0  0  0  0  0  0
  194.6560  171.4860  144.6690 C   0  0  0  0  0  2  0  0  0  0  0  0
  194.9020  177.2010  144.7100 O   0  0  0  0  0  0  0  0  0  0  0  0
  194.6520  175.3810  146.2700 C   0  0  0  0  0  1  0  0  0  0  0  0
  194.5870  176.8830  146.0590 C   0  0  0  0  0  2  0  0  0  0  0  0
  188.1700  175.2660  141.9350 C   0  0  0  0  0  2  0  0  0  0  0  0
  187.3790  176.1980  139.8740 O   0  0  0  0  0  1  0  0  0  0  0  0
  187.7980  176.5320  141.1650 C   0  0  1  0  0  3  0  0  0  0  0  0
  185.6680  177.7370  140.9370 N   0  0  0  0  0  1  0  0  0  0  0  0
  186.6980  177.3230  141.8770 C   0  0  1  0  0  3  0  0  0  0  0  0
  186.0600  176.5150  142.9950 C   0  0  0  0  0  2  0  0  0  0  0  0
  185.6530  177.4020  144.1700 C   0  0  1  0  0  3  0  0  0  0  0  0
  186.0930  176.7980  145.5100 C   0  0  2  0  0  3  0  0  0  0  0  0
  185.0080  176.5940  146.3720 O   0  0  0  0  0  1  0  0  0  0  0  0
  187.2070  177.6060  146.1880 C   0  0  1  0  0  3  0  0  0  0  0  0
  186.9450  177.8030  147.6800 C   0  0  0  0  0  2  0  0  0  0  0  0
  186.3110  179.4790  148.0000 S   0  0  0  0  0  1  0  0  0  0  0  0
  188.4380  176.9700  145.9980 O   0  0  0  0  0  0  0  0  0  0  0  0
  189.1850  174.7210  146.0770 C   0  0  0  0  0  2  0  0  0  0  0  0
  189.7320  175.4480  147.2890 C   0  0  0  0  0  2  0  0  0  0  0  0
  188.3580  175.7980  146.7510 C   0  0  0  0  0  3  0  0  0  0  0  0
  185.1430  179.5600  144.1850 C   0  0  0  0  0  1  0  0  0  0  0  0
  186.2120  178.6740  144.0180 O   0  0  0  0  0  0  0  0  0  0  0  0
  2  9  1  0  0  0  0
  3  1  1  0  0  0  0
  4 31  1  0  0  0  0
  4  3  1  0  0  0  0
  5 14  1  0  0  0  0
  5  2  2  0  0  0  0
  6 13  1  0  0  0  0
  6 10  1  0  0  0  0
  7  3  2  0  0  0  0
  7  8  1  0  0  0  0
  9 12  2  0  0  0  0
 10  7  1  0  0  0  0
 11  8  1  0  0  0  0
 11 12  1  0  0  0  0
 12 28  1  0  0  0  0
 13  4  2  0  0  0  0
 14 11  2  0  0  0  0
 15 10  2  0  0  0  0
 15 14  1  0  0  0  0
 16 17  2  0  0  0  0
 17 18  1  0  0  0  0
 18 20  1  0  0  0  0
 18  5  1  0  0  0  0
 19 17  1  0  0  0  0
 20 21  1  0  0  0  0
 21 24  1  0  0  0  0
 23 22  1  0  0  0  0
 24 23  1  0  0  0  0
 25 22  1  0  0  0  0
 26 24  1  0  0  0  0
 26 27  1  0  0  0  0
 27 25  1  0  0  0  0
 28 30  1  0  0  0  0
 30 29  1  0  0  0  0
 33 32  1  6  0  0  0
 33 35  1  0  0  0  0
 33 31  1  0  0  0  0
 35 34  1  6  0  0  0
 35 36  1  0  0  0  0
 37 36  1  6  0  0  0
 37 38  1  0  0  0  0
 38 40  1  0  0  0  0
 38 39  1  1  0  0  0
 40 41  1  1  0  0  0
 41 42  1  0  0  0  0
 43 40  1  0  0  0  0
 43 46  1  0  0  0  0
 44 46  1  0  0  0  0
 44 45  1  0  0  0  0
 46 45  1  0  0  0  0
 48 37  1  0  0  0  0
 48 47  1  0  0  0  0
M  END
>  <MODEL>
3

>  <REMARK>
 VINA RESULT:      -6.4      3.075      5.580
  Name = 
  17 active torsions:
  status: ('A' for Active; 'I' for Inactive)
    1  A    between atoms: C_1  and  C_6
    2  A    between atoms: C_1  and  C_22
    3  A    between atoms: C_3  and  C_22
    4  A    between atoms: C_6  and  C_9
    5  A    between atoms: C_6  and  O_48
    6  A    between atoms: C_7  and  C_26
    7  A    between atoms: O_8  and  C_22
    8  A    between atoms: O_8  and  C_41
    9  A    between atoms: C_9  and  C_45
   10  A    between atoms: C_15  and  C_18
   11  A    between atoms: C_15  and  C_47
   12  A    between atoms: O_20  and  C_24
   13  A    between atoms: O_20  and  C_39
   14  A    between atoms: C_21  and  N_34
   15  A    between atoms: C_26  and  C_44
   16  A    between atoms: N_34  and  C_44
   17  A    between atoms: C_45  and  C_47
                            x       y       z     vdW  Elec       q    Type
                         _______ _______ _______ _____ _____    ______ ____

>  <TORSDO>
F 17

$$$$
=
 OpenBabel11042414243D

 48 52  0  0  1  0  0  0  0  0999 V2000
  190.4790  174.1710  140.3880 F   0  0  0  0  0  0  0  0  0  0  0  0
  195.9700  170.5790  142.7160 C   0  0  0  0  0  3  0  0  0  0  0  0
  190.5780  173.9740  141.7270 C   0  0  0  0  0  0  0  0  0  0  0  0
  189.5710  174.4390  142.5880 C   0  0  0  0  0  0  0  0  0  0  0  0
  195.0620  171.0880  143.6470 C   0  0  0  0  0  0  0  0  0  0  0  0
  190.7900  173.5560  144.4870 C   0  0  0  0  0  3  0  0  0  0  0  0
  191.6820  173.2890  142.2470 C   0  0  2  0  0  3  0  0  0  0  0  0
  192.6630  172.8060  141.3830 O   0  0  0  0  0  0  0  0  0  0  0  0
  195.7880  170.8080  141.3540 C   0  0  0  0  0  3  0  0  0  0  0  0
  191.7880  173.0780  143.6320 C   0  0  0  0  0  0  0  0  0  0  0  0
  193.7620  172.0600  141.8230 C   0  0  0  0  0  0  0  0  0  0  0  0
  194.6910  171.5390  140.8910 C   0  0  0  0  0  0  0  0  0  0  0  0
  189.6830  174.2330  143.9670 C   0  0  0  0  0  3  0  0  0  0  0  0
  193.9470  171.8300  143.2050 C   0  0  0  0  0  0  0  0  0  0  0  0
  192.9610  172.3550  144.2190 C   0  0  0  0  0  3  0  0  0  0  0  0
  195.0310  169.3780  147.0050 O   0  0  0  0  0  1  0  0  0  0  0  0
  194.7700  169.6340  145.6630 C   0  0  0  0  0  0  0  0  0  0  0  0
  195.2740  170.8260  145.0410 N   0  0  0  0  0  0  0  0  0  0  0  0
  194.0790  168.8120  145.0020 O   0  0  0  0  0  0  0  0  0  0  0  0
  196.0270  171.7960  145.8240 C   0  0  0  0  0  2  0  0  0  0  0  0
  196.7420  172.7730  144.8930 C   0  0  0  0  0  2  0  0  0  0  0  0
  195.4410  176.2910  143.8780 C   0  0  0  0  0  2  0  0  0  0  0  0
  195.8120  174.8100  143.7260 C   0  0  0  0  0  2  0  0  0  0  0  0
  196.2430  174.2030  145.0650 C   0  0  0  0  0  3  0  0  0  0  0  0
  194.8670  176.6450  145.2570 C   0  0  0  0  0  2  0  0  0  0  0  0
  195.1380  174.2960  146.1310 C   0  0  0  0  0  2  0  0  0  0  0  0
  194.1590  175.4520  145.8920 C   0  0  0  0  0  2  0  0  0  0  0  0
  194.5810  171.7180  139.5020 O   0  0  0  0  0  0  0  0  0  0  0  0
  194.9610  173.5490  137.9820 C   0  0  0  0  0  1  0  0  0  0  0  0
  195.5590  172.3400  138.6770 C   0  0  0  0  0  2  0  0  0  0  0  0
  188.3770  175.1530  142.0470 C   0  0  0  0  0  2  0  0  0  0  0  0
  189.3980  177.3150  142.2060 O   0  0  0  0  0  1  0  0  0  0  0  0
  188.2860  176.5710  142.6080 C   0  0  1  0  0  3  0  0  0  0  0  0
  186.7850  177.0910  140.7330 N   0  0  0  0  0  1  0  0  0  0  0  0
  187.0030  177.2750  142.1590 C   0  0  1  0  0  3  0  0  0  0  0  0
  185.7890  176.7680  142.9200 C   0  0  0  0  0  2  0  0  0  0  0  0
  185.5460  177.5730  144.1950 C   0  0  1  0  0  3  0  0  0  0  0  0
  185.9970  176.8000  145.4430 C   0  0  2  0  0  3  0  0  0  0  0  0
  184.9400  176.5910  146.3370 O   0  0  0  0  0  1  0  0  0  0  0  0
  187.2020  177.4470  146.1380 C   0  0  1  0  0  3  0  0  0  0  0  0
  186.9140  177.7710  147.6020 C   0  0  0  0  0  2  0  0  0  0  0  0
  186.0920  179.3890  147.7470 S   0  0  0  0  0  1  0  0  0  0  0  0
  188.3140  176.6030  146.0430 O   0  0  0  0  0  0  0  0  0  0  0  0
  190.4930  176.4060  146.9540 C   0  0  0  0  0  2  0  0  0  0  0  0
  190.5880  177.1860  145.6580 C   0  0  0  0  0  2  0  0  0  0  0  0
  189.3760  177.3490  146.5560 C   0  0  0  0  0  3  0  0  0  0  0  0
  185.2210  179.7610  144.0560 C   0  0  0  0  0  1  0  0  0  0  0  0
  186.2260  178.7910  144.1220 O   0  0  0  0  0  0  0  0  0  0  0  0
  1  3  1  0  0  0  0
  2  5  1  0  0  0  0
  3  7  1  0  0  0  0
  3  4  2  0  0  0  0
  4 13  1  0  0  0  0
  5 18  1  0  0  0  0
  7  8  1  6  0  0  0
  7 10  1  0  0  0  0
  8 11  1  0  0  0  0
  9  2  2  0  0  0  0
 10 15  2  0  0  0  0
 10  6  1  0  0  0  0
 11 14  1  0  0  0  0
 12  9  1  0  0  0  0
 12 11  2  0  0  0  0
 13  6  2  0  0  0  0
 14  5  2  0  0  0  0
 14 15  1  0  0  0  0
 17 16  1  0  0  0  0
 18 17  1  0  0  0  0
 18 20  1  0  0  0  0
 19 17  2  0  0  0  0
 21 24  1  0  0  0  0
 21 20  1  0  0  0  0
 22 25  1  0  0  0  0
 23 22  1  0  0  0  0
 23 24  1  0  0  0  0
 24 26  1  0  0  0  0
 25 27  1  0  0  0  0
 27 26  1  0  0  0  0
 28 12  1  0  0  0  0
 29 30  1  0  0  0  0
 30 28  1  0  0  0  0
 31  4  1  0  0  0  0
 31 33  1  0  0  0  0
 33 32  1  6  0  0  0
 35 34  1  6  0  0  0
 35 33  1  0  0  0  0
 35 36  1  0  0  0  0
 37 36  1  6  0  0  0
 37 38  1  0  0  0  0
 38 40  1  0  0  0  0
 38 39  1  1  0  0  0
 40 41  1  1  0  0  0
 41 42  1  0  0  0  0
 43 40  1  0  0  0  0
 43 46  1  0  0  0  0
 45 46  1  0  0  0  0
 45 44  1  0  0  0  0
 46 44  1  0  0  0  0
 47 48  1  0  0  0  0
 48 37  1  0  0  0  0
M  END
>  <MODEL>
4

>  <REMARK>
 VINA RESULT:      -6.1      2.511      3.849
  Name = 
  17 active torsions:
  status: ('A' for Active; 'I' for Inactive)
    1  A    between atoms: C_1  and  C_6
    2  A    between atoms: C_1  and  C_22
    3  A    between atoms: C_3  and  C_22
    4  A    between atoms: C_6  and  C_9
    5  A    between atoms: C_6  and  O_48
    6  A    between atoms: C_7  and  C_26
    7  A    between atoms: O_8  and  C_22
    8  A    between atoms: O_8  and  C_41
    9  A    between atoms: C_9  and  C_45
   10  A    between atoms: C_15  and  C_18
   11  A    between atoms: C_15  and  C_47
   12  A    between atoms: O_20  and  C_24
   13  A    between atoms: O_20  and  C_39
   14  A    between atoms: C_21  and  N_34
   15  A    between atoms: C_26  and  C_44
   16  A    between atoms: N_34  and  C_44
   17  A    between atoms: C_45  and  C_47
                            x       y       z     vdW  Elec       q    Type
                         _______ _______ _______ _____ _____    ______ ____

>  <TORSDO>
F 17

$$$$
=
 OpenBabel11042414243D

 48 52  0  0  1  0  0  0  0  0999 V2000
  188.1920  173.5800  138.1990 F   0  0  0  0  0  0  0  0  0  0  0  0
  188.2150  177.9390  143.6280 C   0  0  0  0  0  3  0  0  0  0  0  0
  188.8280  173.1740  139.3270 C   0  0  0  0  0  0  0  0  0  0  0  0
  189.4970  171.9400  139.3580 C   0  0  0  0  0  0  0  0  0  0  0  0
  188.8230  176.6910  143.7720 C   0  0  0  0  0  0  0  0  0  0  0  0
  190.1420  172.3500  141.6580 C   0  0  0  0  0  3  0  0  0  0  0  0
  188.8300  173.9990  140.4570 C   0  0  2  0  0  3  0  0  0  0  0  0
  188.1880  175.2360  140.4090 O   0  0  0  0  0  0  0  0  0  0  0  0
  187.5990  178.2900  142.4290 C   0  0  0  0  0  3  0  0  0  0  0  0
  189.4900  173.5870  141.6270 C   0  0  0  0  0  0  0  0  0  0  0  0
  188.1990  176.1390  141.4770 C   0  0  0  0  0  0  0  0  0  0  0  0
  187.5860  177.4090  141.3450 C   0  0  0  0  0  0  0  0  0  0  0  0
  190.1470  171.5290  140.5260 C   0  0  0  0  0  3  0  0  0  0  0  0
  188.8230  175.7820  142.6930 C   0  0  0  0  0  0  0  0  0  0  0  0
  189.5030  174.4450  142.8540 C   0  0  0  0  0  3  0  0  0  0  0  0
  191.3960  176.4500  146.5160 O   0  0  0  0  0  1  0  0  0  0  0  0
  190.8190  176.7330  145.2820 C   0  0  0  0  0  0  0  0  0  0  0  0
  189.4570  176.3650  145.0170 N   0  0  0  0  0  0  0  0  0  0  0  0
  191.5080  177.3090  144.3970 O   0  0  0  0  0  0  0  0  0  0  0  0
  188.6830  175.6530  146.0250 C   0  0  0  0  0  2  0  0  0  0  0  0
  188.2180  176.6250  147.1060 C   0  0  0  0  0  2  0  0  0  0  0  0
  184.8290  177.5210  145.4300 C   0  0  0  0  0  2  0  0  0  0  0  0
  185.9390  176.6410  146.0200 C   0  0  0  0  0  2  0  0  0  0  0  0
  187.0520  177.4900  146.6410 C   0  0  0  0  0  3  0  0  0  0  0  0
  184.6440  178.8570  146.1630 C   0  0  0  0  0  2  0  0  0  0  0  0
  186.5340  178.3990  147.7690 C   0  0  0  0  0  2  0  0  0  0  0  0
  185.0470  178.7500  147.6310 C   0  0  0  0  0  2  0  0  0  0  0  0
  186.9480  177.8450  140.1720 O   0  0  0  0  0  0  0  0  0  0  0  0
  184.6100  178.3180  140.5130 C   0  0  0  0  0  1  0  0  0  0  0  0
  185.6340  177.4780  139.7710 C   0  0  0  0  0  2  0  0  0  0  0  0
  189.5220  171.0570  138.1550 C   0  0  0  0  0  2  0  0  0  0  0  0
  191.5580  169.9040  137.6410 O   0  0  0  0  0  1  0  0  0  0  0  0
  190.8820  171.1130  137.4610 C   0  0  1  0  0  3  0  0  0  0  0  0
  189.3440  171.5780  135.6020 N   0  0  0  0  0  1  0  0  0  0  0  0
  190.7420  171.4110  135.9670 C   0  0  1  0  0  3  0  0  0  0  0  0
  191.5150  172.6580  135.5690 C   0  0  0  0  0  2  0  0  0  0  0  0
  191.9880  173.4420  136.7920 C   0  0  1  0  0  3  0  0  0  0  0  0
  193.5100  173.6420  136.7770 C   0  0  2  0  0  3  0  0  0  0  0  0
  194.1930  172.4760  137.1460 O   0  0  0  0  0  1  0  0  0  0  0  0
  193.9580  174.8460  137.6150 C   0  0  1  0  0  3  0  0  0  0  0  0
  194.0610  174.5050  139.1010 C   0  0  0  0  0  2  0  0  0  0  0  0
  195.7650  174.7460  139.6930 S   0  0  0  0  0  1  0  0  0  0  0  0
  195.1870  175.3200  137.1460 O   0  0  0  0  0  0  0  0  0  0  0  0
  195.4140  176.7030  135.2340 C   0  0  0  0  0  2  0  0  0  0  0  0
  196.4220  175.5760  135.1290 C   0  0  0  0  0  2  0  0  0  0  0  0
  195.0640  175.3240  135.7560 C   0  0  0  0  0  3  0  0  0  0  0  0
  191.1110  175.0130  135.4980 C   0  0  0  0  0  1  0  0  0  0  0  0
  191.3480  174.6820  136.8350 O   0  0  0  0  0  0  0  0  0  0  0  0
  1  3  1  0  0  0  0
  2  5  1  0  0  0  0
  3  4  2  0  0  0  0
  4 13  1  0  0  0  0
  5 18  1  0  0  0  0
  7  3  1  6  0  0  0
  7 10  1  0  0  0  0
  8  7  1  0  0  0  0
  8 11  1  0  0  0  0
  9  2  2  0  0  0  0
 10  6  1  0  0  0  0
 10 15  2  0  0  0  0
 11 14  1  0  0  0  0
 12 11  2  0  0  0  0
 12  9  1  0  0  0  0
 13  6  2  0  0  0  0
 14 15  1  0  0  0  0
 14  5  2  0  0  0  0
 17 16  1  0  0  0  0
 18 17  1  0  0  0  0
 18 20  1  0  0  0  0
 19 17  2  0  0  0  0
 20 21  1  0  0  0  0
 22 23  1  0  0  0  0
 22 25  1  0  0  0  0
 23 24  1  0  0  0  0
 24 21  1  0  0  0  0
 24 26  1  0  0  0  0
 25 27  1  0  0  0  0
 27 26  1  0  0  0  0
 28 12  1  0  0  0  0
 30 28  1  0  0  0  0
 30 29  1  0  0  0  0
 31  4  1  0  0  0  0
 33 32  1  6  0  0  0
 33 31  1  0  0  0  0
 35 34  1  1  0  0  0
 35 33  1  0  0  0  0
 36 35  1  0  0  0  0
 37 36  1  6  0  0  0
 37 48  1  0  0  0  0
 38 37  1  0  0  0  0
 38 39  1  1  0  0  0
 38 40  1  0  0  0  0
 40 41  1  1  0  0  0
 41 42  1  0  0  0  0
 43 40  1  0  0  0  0
 44 46  1  0  0  0  0
 45 44  1  0  0  0  0
 45 46  1  0  0  0  0
 46 43  1  0  0  0  0
 47 48  1  0  0  0  0
M  END
>  <MODEL>
5

>  <REMARK>
 VINA RESULT:      -6.0      4.764      9.978
  Name = 
  17 active torsions:
  status: ('A' for Active; 'I' for Inactive)
    1  A    between atoms: C_1  and  C_6
    2  A    between atoms: C_1  and  C_22
    3  A    between atoms: C_3  and  C_22
    4  A    between atoms: C_6  and  C_9
    5  A    between atoms: C_6  and  O_48
    6  A    between atoms: C_7  and  C_26
    7  A    between atoms: O_8  and  C_22
    8  A    between atoms: O_8  and  C_41
    9  A    between atoms: C_9  and  C_45
   10  A    between atoms: C_15  and  C_18
   11  A    between atoms: C_15  and  C_47
   12  A    between atoms: O_20  and  C_24
   13  A    between atoms: O_20  and  C_39
   14  A    between atoms: C_21  and  N_34
   15  A    between atoms: C_26  and  C_44
   16  A    between atoms: N_34  and  C_44
   17  A    between atoms: C_45  and  C_47
                            x       y       z     vdW  Elec       q    Type
                         _______ _______ _______ _____ _____    ______ ____

>  <TORSDO>
F 17

$$$$
=
 OpenBabel11042414243D

 48 52  0  0  1  0  0  0  0  0999 V2000
  191.8810  174.3200  146.9460 F   0  0  0  0  0  0  0  0  0  0  0  0
  196.7380  172.2690  142.3990 C   0  0  0  0  0  3  0  0  0  0  0  0
  191.9540  174.9830  145.7650 C   0  0  0  0  0  0  0  0  0  0  0  0
  191.1080  176.0740  145.5110 C   0  0  0  0  0  0  0  0  0  0  0  0
  195.8740  173.3020  142.0320 C   0  0  0  0  0  0  0  0  0  0  0  0
  192.1180  176.3460  143.3250 C   0  0  0  0  0  2  0  0  0  0  0  0
  192.8900  174.5850  144.8030 C   0  0  0  0  0  0  0  0  0  0  0  0
  193.7460  173.5190  145.0740 O   0  0  0  0  0  0  0  0  0  0  0  0
  196.6110  171.6500  143.6410 C   0  0  0  0  0  3  0  0  0  0  0  0
  192.9730  175.2690  143.5790 C   0  0  0  0  0  0  0  0  0  0  0  0
  194.7460  173.1030  144.1880 C   0  0  0  0  0  0  0  0  0  0  0  0
  195.6290  172.0570  144.5470 C   0  0  0  0  0  0  0  0  0  0  0  0
  191.1890  176.7490  144.2890 C   0  0  0  0  0  3  0  0  0  0  0  0
  194.8730  173.7300  142.9280 C   0  0  0  0  0  0  0  0  0  0  0  0
  193.9590  174.8630  142.5280 C   0  0  0  0  0  3  0  0  0  0  0  0
  196.9530  175.7100  139.3410 O   0  0  0  0  0  0  0  0  0  0  0  0
  196.7650  175.1530  140.6010 C   0  0  0  0  0  0  0  0  0  0  0  0
  196.0380  173.9230  140.7500 N   0  0  0  0  0  0  0  0  0  0  0  0
  197.2320  175.7440  141.6130 O   0  0  0  0  0  1  0  0  0  0  0  0
  195.4550  173.2740  139.5830 C   0  0  0  0  0  2  0  0  0  0  0  0
  193.9840  173.6600  139.4530 C   0  0  0  0  0  2  0  0  0  0  0  0
  191.4690  171.0250  140.8060 C   0  0  0  0  0  2  0  0  0  0  0  0
  192.2880  172.3220  140.7590 C   0  0  0  0  0  2  0  0  0  0  0  0
  193.0660  172.4430  139.4460 C   0  0  0  0  0  3  0  0  0  0  0  0
  190.9960  170.5440  139.4270 C   0  0  0  0  0  2  0  0  0  0  0  0
  192.1430  172.4360  138.2150 C   0  0  0  0  0  2  0  0  0  0  0  0
  190.8130  171.7100  138.4590 C   0  0  0  0  0  2  0  0  0  0  0  0
  195.5750  171.3830  145.7790 O   0  0  0  0  0  0  0  0  0  0  0  0
  196.0370  169.1130  146.4430 C   0  0  0  0  0  1  0  0  0  0  0  0
  196.5850  170.5190  146.2830 C   0  0  0  0  0  2  0  0  0  0  0  0
  190.1180  176.5240  146.5340 C   0  0  0  0  0  2  0  0  0  0  0  0
  188.8720  174.6640  147.3870 O   0  0  0  0  0  1  0  0  0  0  0  0
  188.8330  175.7030  146.4530 C   0  0  1  0  0  3  0  0  0  0  0  0
  187.9720  177.9300  147.0310 N   0  0  0  0  0  1  0  0  0  0  0  0
  187.5930  176.5680  146.6920 C   0  0  1  0  0  3  0  0  0  0  0  0
  186.6820  176.5900  145.4750 C   0  0  0  0  0  2  0  0  0  0  0  0
  187.0380  177.7330  144.5260 C   0  0  1  0  0  3  0  0  0  0  0  0
  187.8110  177.2270  143.3000 C   0  0  2  0  0  3  0  0  0  0  0  0
  188.4670  178.2680  142.6310 O   0  0  0  0  0  1  0  0  0  0  0  0
  186.9350  176.4070  142.3440 C   0  0  1  0  0  3  0  0  0  0  0  0
  187.1010  176.8500  140.8910 C   0  0  0  0  0  2  0  0  0  0  0  0
  185.7200  177.9270  140.3930 S   0  0  0  0  0  1  0  0  0  0  0  0
  187.2410  175.0480  142.4680 O   0  0  0  0  0  0  0  0  0  0  0  0
  189.1770  173.8530  143.1340 C   0  0  0  0  0  2  0  0  0  0  0  0
  188.9710  173.6350  141.6490 C   0  0  0  0  0  2  0  0  0  0  0  0
  188.6210  174.9710  142.2760 C   0  0  0  0  0  3  0  0  0  0  0  0
  185.6780  179.4030  145.0550 C   0  0  0  0  0  1  0  0  0  0  0  0
  185.8730  178.3860  144.1150 O   0  0  0  0  0  0  0  0  0  0  0  0
  2  9  1  0  0  0  0
  3  1  1  0  0  0  0
  4  3  1  0  0  0  0
  4 31  1  0  0  0  0
  5  2  2  0  0  0  0
  5 14  1  0  0  0  0
  6 10  1  0  0  0  0
  6 13  1  0  0  0  0
  7  8  1  0  0  0  0
  7  3  2  0  0  0  0
  9 12  2  0  0  0  0
 10  7  1  0  0  0  0
 11 12  1  0  0  0  0
 11  8  1  0  0  0  0
 12 28  1  0  0  0  0
 13  4  2  0  0  0  0
 14 11  2  0  0  0  0
 15 14  1  0  0  0  0
 15 10  2  0  0  0  0
 16 17  2  0  0  0  0
 17 18  1  0  0  0  0
 17 19  1  0  0  0  0
 18  5  1  0  0  0  0
 20 18  1  0  0  0  0
 21 20  1  0  0  0  0
 23 22  1  0  0  0  0
 24 21  1  0  0  0  0
 24 23  1  0  0  0  0
 25 22  1  0  0  0  0
 26 27  1  0  0  0  0
 26 24  1  0  0  0  0
 27 25  1  0  0  0  0
 28 30  1  0  0  0  0
 30 29  1  0  0  0  0
 33 31  1  0  0  0  0
 33 35  1  0  0  0  0
 33 32  1  1  0  0  0
 35 34  1  6  0  0  0
 36 35  1  0  0  0  0
 37 36  1  1  0  0  0
 38 39  1  6  0  0  0
 38 37  1  0  0  0  0
 40 41  1  6  0  0  0
 40 43  1  0  0  0  0
 40 38  1  0  0  0  0
 42 41  1  0  0  0  0
 45 46  1  0  0  0  0
 45 44  1  0  0  0  0
 46 43  1  0  0  0  0
 46 44  1  0  0  0  0
 48 37  1  0  0  0  0
 48 47  1  0  0  0  0
M  END
>  <MODEL>
6

>  <REMARK>
 VINA RESULT:      -6.0      2.649      4.837
  Name = 
  17 active torsions:
  status: ('A' for Active; 'I' for Inactive)
    1  A    between atoms: C_1  and  C_6
    2  A    between atoms: C_1  and  C_22
    3  A    between atoms: C_3  and  C_22
    4  A    between atoms: C_6  and  C_9
    5  A    between atoms: C_6  and  O_48
    6  A    between atoms: C_7  and  C_26
    7  A    between atoms: O_8  and  C_22
    8  A    between atoms: O_8  and  C_41
    9  A    between atoms: C_9  and  C_45
   10  A    between atoms: C_15  and  C_18
   11  A    between atoms: C_15  and  C_47
   12  A    between atoms: O_20  and  C_24
   13  A    between atoms: O_20  and  C_39
   14  A    between atoms: C_21  and  N_34
   15  A    between atoms: C_26  and  C_44
   16  A    between atoms: N_34  and  C_44
   17  A    between atoms: C_45  and  C_47
                            x       y       z     vdW  Elec       q    Type
                         _______ _______ _______ _____ _____    ______ ____

>  <TORSDO>
F 17

$$$$
=
 OpenBabel11042414243D

 48 52  0  0  1  0  0  0  0  0999 V2000
  188.1080  173.3470  138.3210 F   0  0  0  0  0  0  0  0  0  0  0  0
  188.2560  177.9720  143.5230 C   0  0  0  0  0  3  0  0  0  0  0  0
  188.8080  173.0150  139.4350 C   0  0  0  0  0  0  0  0  0  0  0  0
  189.5140  171.8030  139.4950 C   0  0  0  0  0  0  0  0  0  0  0  0
  188.9060  176.7490  143.6980 C   0  0  0  0  0  0  0  0  0  0  0  0
  190.2530  172.3460  141.7370 C   0  0  0  0  0  3  0  0  0  0  0  0
  188.8390  173.8970  140.5220 C   0  0  2  0  0  3  0  0  0  0  0  0
  188.1590  175.1110  140.4450 O   0  0  0  0  0  0  0  0  0  0  0  0
  187.5740  178.2450  142.3390 C   0  0  0  0  0  3  0  0  0  0  0  0
  189.5640  173.5610  141.6780 C   0  0  0  0  0  0  0  0  0  0  0  0
  188.1930  176.0670  141.4650 C   0  0  0  0  0  0  0  0  0  0  0  0
  187.5370  177.3110  141.3010 C   0  0  0  0  0  0  0  0  0  0  0  0
  190.2300  171.4690  140.6490 C   0  0  0  0  0  3  0  0  0  0  0  0
  188.8830  175.7890  142.6660 C   0  0  0  0  0  0  0  0  0  0  0  0
  189.6090  174.4800  142.8590 C   0  0  0  0  0  3  0  0  0  0  0  0
  191.6320  176.6610  146.3000 O   0  0  0  0  0  1  0  0  0  0  0  0
  190.9880  176.8630  145.0840 C   0  0  0  0  0  0  0  0  0  0  0  0
  189.6070  176.5040  144.9250 N   0  0  0  0  0  0  0  0  0  0  0  0
  191.6330  177.3590  144.1210 O   0  0  0  0  0  0  0  0  0  0  0  0
  188.8820  175.8830  146.0270 C   0  0  0  0  0  2  0  0  0  0  0  0
  188.4350  176.9510  147.0220 C   0  0  0  0  0  2  0  0  0  0  0  0
  184.9030  177.3560  145.4530 C   0  0  0  0  0  2  0  0  0  0  0  0
  186.1390  176.6430  146.0180 C   0  0  0  0  0  2  0  0  0  0  0  0
  187.1500  177.6450  146.5850 C   0  0  0  0  0  3  0  0  0  0  0  0
  184.5670  178.6710  146.1710 C   0  0  0  0  0  2  0  0  0  0  0  0
  186.5530  178.5000  147.7160 C   0  0  0  0  0  2  0  0  0  0  0  0
  185.0290  178.6480  147.6250 C   0  0  0  0  0  2  0  0  0  0  0  0
  186.8320  177.6700  140.1410 O   0  0  0  0  0  0  0  0  0  0  0  0
  184.8360  177.9210  141.4680 C   0  0  0  0  0  1  0  0  0  0  0  0
  185.4290  177.8880  140.0710 C   0  0  0  0  0  2  0  0  0  0  0  0
  189.5090  170.8620  138.3360 C   0  0  0  0  0  2  0  0  0  0  0  0
  191.3590  169.4010  137.9080 O   0  0  0  0  0  1  0  0  0  0  0  0
  190.9090  170.7140  137.7440 C   0  0  1  0  0  3  0  0  0  0  0  0
  189.5910  171.3150  135.7590 N   0  0  0  0  0  1  0  0  0  0  0  0
  190.9380  171.0890  136.2600 C   0  0  1  0  0  3  0  0  0  0  0  0
  191.7790  172.3310  136.0130 C   0  0  0  0  0  2  0  0  0  0  0  0
  192.1800  173.0100  137.3200 C   0  0  1  0  0  3  0  0  0  0  0  0
  193.6790  173.3390  137.3480 C   0  0  2  0  0  3  0  0  0  0  0  0
  194.4290  172.4130  136.6130 O   0  0  0  0  0  1  0  0  0  0  0  0
  194.2240  173.5030  138.7720 C   0  0  1  0  0  3  0  0  0  0  0  0
  194.2280  174.9630  139.2200 C   0  0  0  0  0  2  0  0  0  0  0  0
  195.5800  175.2640  140.4010 S   0  0  0  0  0  1  0  0  0  0  0  0
  193.4690  172.7310  139.6610 O   0  0  0  0  0  0  0  0  0  0  0  0
  194.0050  171.4750  141.5990 C   0  0  0  0  0  2  0  0  0  0  0  0
  193.6040  170.5090  140.5030 C   0  0  0  0  0  2  0  0  0  0  0  0
  194.3590  171.7780  140.1570 C   0  0  0  0  0  3  0  0  0  0  0  0
  191.6800  174.9370  136.3430 C   0  0  0  0  0  1  0  0  0  0  0  0
  191.4350  174.1800  137.4930 O   0  0  0  0  0  0  0  0  0  0  0  0
  1  3  1  0  0  0  0
  2  5  1  0  0  0  0
  3  4  2  0  0  0  0
  4 13  1  0  0  0  0
  5 18  1  0  0  0  0
  7  3  1  6  0  0  0
  7 10  1  0  0  0  0
  8  7  1  0  0  0  0
  8 11  1  0  0  0  0
  9  2  2  0  0  0  0
 10  6  1  0  0  0  0
 10 15  2  0  0  0  0
 11 14  1  0  0  0  0
 12 11  2  0  0  0  0
 12  9  1  0  0  0  0
 13  6  2  0  0  0  0
 14 15  1  0  0  0  0
 14  5  2  0  0  0  0
 17 16  1  0  0  0  0
 18 17  1  0  0  0  0
 18 20  1  0  0  0  0
 19 17  2  0  0  0  0
 20 21  1  0  0  0  0
 22 23  1  0  0  0  0
 22 25  1  0  0  0  0
 23 24  1  0  0  0  0
 24 21  1  0  0  0  0
 24 26  1  0  0  0  0
 25 27  1  0  0  0  0
 27 26  1  0  0  0  0
 28 12  1  0  0  0  0
 30 28  1  0  0  0  0
 30 29  1  0  0  0  0
 31  4  1  0  0  0  0
 33 32  1  6  0  0  0
 33 31  1  0  0  0  0
 35 34  1  1  0  0  0
 35 33  1  0  0  0  0
 36 35  1  0  0  0  0
 37 36  1  6  0  0  0
 37 38  1  0  0  0  0
 37 48  1  0  0  0  0
 38 39  1  1  0  0  0
 38 40  1  0  0  0  0
 40 41  1  1  0  0  0
 40 43  1  0  0  0  0
 41 42  1  0  0  0  0
 43 46  1  0  0  0  0
 45 44  1  0  0  0  0
 46 45  1  0  0  0  0
 46 44  1  0  0  0  0
 47 48  1  0  0  0  0
M  END
>  <MODEL>
7

>  <REMARK>
 VINA RESULT:      -6.0      4.240      9.799
  Name = 
  17 active torsions:
  status: ('A' for Active; 'I' for Inactive)
    1  A    between atoms: C_1  and  C_6
    2  A    between atoms: C_1  and  C_22
    3  A    between atoms: C_3  and  C_22
    4  A    between atoms: C_6  and  C_9
    5  A    between atoms: C_6  and  O_48
    6  A    between atoms: C_7  and  C_26
    7  A    between atoms: O_8  and  C_22
    8  A    between atoms: O_8  and  C_41
    9  A    between atoms: C_9  and  C_45
   10  A    between atoms: C_15  and  C_18
   11  A    between atoms: C_15  and  C_47
   12  A    between atoms: O_20  and  C_24
   13  A    between atoms: O_20  and  C_39
   14  A    between atoms: C_21  and  N_34
   15  A    between atoms: C_26  and  C_44
   16  A    between atoms: N_34  and  C_44
   17  A    between atoms: C_45  and  C_47
                            x       y       z     vdW  Elec       q    Type
                         _______ _______ _______ _____ _____    ______ ____

>  <TORSDO>
F 17

$$$$
=
 OpenBabel11042414243D

 48 52  0  0  1  0  0  0  0  0999 V2000
  190.0310  176.3660  143.4020 F   0  0  0  0  0  0  0  0  0  0  0  0
  196.2680  173.4860  144.5320 C   0  0  0  0  0  3  0  0  0  0  0  0
  190.1490  175.0280  143.2090 C   0  0  0  0  0  0  0  0  0  0  0  0
  189.0550  174.2800  142.7450 C   0  0  0  0  0  0  0  0  0  0  0  0
  195.2080  172.6570  144.1640 C   0  0  0  0  0  0  0  0  0  0  0  0
  190.4050  172.2690  142.8080 C   0  0  0  0  0  2  0  0  0  0  0  0
  191.3730  174.3960  143.4570 C   0  0  0  0  0  0  0  0  0  0  0  0
  192.4620  175.1500  143.8890 O   0  0  0  0  0  0  0  0  0  0  0  0
  196.0710  174.8550  144.6910 C   0  0  0  0  0  3  0  0  0  0  0  0
  191.5020  173.0120  143.2560 C   0  0  0  0  0  0  0  0  0  0  0  0
  193.7310  174.6000  144.1000 C   0  0  0  0  0  0  0  0  0  0  0  0
  194.8160  175.4290  144.4740 C   0  0  0  0  0  0  0  0  0  0  0  0
  189.1850  172.9010  142.5520 C   0  0  0  0  0  3  0  0  0  0  0  0
  193.9300  173.2110  143.9400 C   0  0  0  0  0  0  0  0  0  0  0  0
  192.7970  172.3070  143.5200 C   0  0  0  0  0  3  0  0  0  0  0  0
  195.2670  168.9440  144.8070 O   0  0  0  0  0  0  0  0  0  0  0  0
  195.0700  170.3050  145.0110 C   0  0  0  0  0  0  0  0  0  0  0  0
  195.4470  171.2520  143.9990 N   0  0  0  0  0  0  0  0  0  0  0  0
  194.5650  170.6990  146.0970 O   0  0  0  0  0  1  0  0  0  0  0  0
  196.0780  170.7940  142.7690 C   0  0  0  0  0  2  0  0  0  0  0  0
  195.0090  170.4290  141.7410 C   0  0  0  0  0  2  0  0  0  0  0  0
  195.8750  172.6890  138.7020 C   0  0  0  0  0  2  0  0  0  0  0  0
  195.9860  171.5130  139.6810 C   0  0  0  0  0  2  0  0  0  0  0  0
  194.8300  171.5130  140.6850 C   0  0  0  0  0  3  0  0  0  0  0  0
  194.4300  173.1210  138.4160 C   0  0  0  0  0  2  0  0  0  0  0  0
  193.4570  171.4140  139.9970 C   0  0  0  0  0  2  0  0  0  0  0  0
  193.4580  171.9540  138.5610 C   0  0  0  0  0  2  0  0  0  0  0  0
  194.7070  176.8180  144.6510 O   0  0  0  0  0  0  0  0  0  0  0  0
  193.8200  176.7860  146.8920 C   0  0  0  0  0  1  0  0  0  0  0  0
  194.7360  177.4880  145.9060 C   0  0  0  0  0  2  0  0  0  0  0  0
  187.7480  174.9410  142.4560 C   0  0  0  0  0  2  0  0  0  0  0  0
  187.7830  175.8260  140.2290 O   0  0  0  0  0  1  0  0  0  0  0  0
  187.9410  176.1730  141.5730 C   0  0  1  0  0  3  0  0  0  0  0  0
  186.4330  177.9260  140.7400 N   0  0  0  0  0  1  0  0  0  0  0  0
  186.9580  177.2890  141.9370 C   0  0  1  0  0  3  0  0  0  0  0  0
  185.8010  176.7650  142.7730 C   0  0  0  0  0  2  0  0  0  0  0  0
  185.5840  177.6100  144.0270 C   0  0  1  0  0  3  0  0  0  0  0  0
  185.8880  176.8120  145.3030 C   0  0  2  0  0  3  0  0  0  0  0  0
  184.7990  176.7990  146.1830 O   0  0  0  0  0  1  0  0  0  0  0  0
  187.1720  177.2780  146.0020 C   0  0  1  0  0  3  0  0  0  0  0  0
  187.0000  177.3670  147.5170 C   0  0  0  0  0  2  0  0  0  0  0  0
  186.6730  179.0850  148.0210 S   0  0  0  0  0  1  0  0  0  0  0  0
  188.2240  176.4110  145.6890 O   0  0  0  0  0  0  0  0  0  0  0  0
  189.2390  174.6510  146.9110 C   0  0  0  0  0  2  0  0  0  0  0  0
  190.2720  175.7390  146.6970 C   0  0  0  0  0  2  0  0  0  0  0  0
  188.8170  176.1060  146.9150 C   0  0  0  0  0  3  0  0  0  0  0  0
  185.5320  179.8150  144.2500 C   0  0  0  0  0  1  0  0  0  0  0  0
  186.3930  178.7480  143.9770 O   0  0  0  0  0  0  0  0  0  0  0  0
  2  9  1  0  0  0  0
  3  1  1  0  0  0  0
  3  7  2  0  0  0  0
  4  3  1  0  0  0  0
  5  2  2  0  0  0  0
  6 10  1  0  0  0  0
  7  8  1  0  0  0  0
  8 11  1  0  0  0  0
 10  7  1  0  0  0  0
 10 15  2  0  0  0  0
 11 12  1  0  0  0  0
 12 28  1  0  0  0  0
 12  9  2  0  0  0  0
 13  4  2  0  0  0  0
 13  6  1  0  0  0  0
 14 11  2  0  0  0  0
 14  5  1  0  0  0  0
 15 14  1  0  0  0  0
 16 17  2  0  0  0  0
 17 19  1  0  0  0  0
 18  5  1  0  0  0  0
 18 17  1  0  0  0  0
 20 18  1  0  0  0  0
 21 20  1  0  0  0  0
 22 23  1  0  0  0  0
 23 24  1  0  0  0  0
 24 21  1  0  0  0  0
 25 27  1  0  0  0  0
 25 22  1  0  0  0  0
 26 24  1  0  0  0  0
 27 26  1  0  0  0  0
 28 30  1  0  0  0  0
 30 29  1  0  0  0  0
 31  4  1  0  0  0  0
 33 32  1  6  0  0  0
 33 35  1  0  0  0  0
 33 31  1  0  0  0  0
 35 34  1  6  0  0  0
 35 36  1  0  0  0  0
 37 36  1  6  0  0  0
 37 38  1  0  0  0  0
 38 40  1  0  0  0  0
 38 39  1  1  0  0  0
 40 41  1  1  0  0  0
 41 42  1  0  0  0  0
 43 40  1  0  0  0  0
 43 46  1  0  0  0  0
 44 46  1  0  0  0  0
 45 44  1  0  0  0  0
 45 46  1  0  0  0  0
 48 37  1  0  0  0  0
 48 47  1  0  0  0  0
M  END
>  <MODEL>
8

>  <REMARK>
 VINA RESULT:      -5.9      2.660      4.885
  Name = 
  17 active torsions:
  status: ('A' for Active; 'I' for Inactive)
    1  A    between atoms: C_1  and  C_6
    2  A    between atoms: C_1  and  C_22
    3  A    between atoms: C_3  and  C_22
    4  A    between atoms: C_6  and  C_9
    5  A    between atoms: C_6  and  O_48
    6  A    between atoms: C_7  and  C_26
    7  A    between atoms: O_8  and  C_22
    8  A    between atoms: O_8  and  C_41
    9  A    between atoms: C_9  and  C_45
   10  A    between atoms: C_15  and  C_18
   11  A    between atoms: C_15  and  C_47
   12  A    between atoms: O_20  and  C_24
   13  A    between atoms: O_20  and  C_39
   14  A    between atoms: C_21  and  N_34
   15  A    between atoms: C_26  and  C_44
   16  A    between atoms: N_34  and  C_44
   17  A    between atoms: C_45  and  C_47
                            x       y       z     vdW  Elec       q    Type
                         _______ _______ _______ _____ _____    ______ ____

>  <TORSDO>
F 17

$$$$
=
 OpenBabel11042414243D

 48 52  0  0  1  0  0  0  0  0999 V2000
  189.4460  173.2050  141.0780 F   0  0  0  0  0  0  0  0  0  0  0  0
  196.3080  172.6950  142.1390 C   0  0  0  0  0  3  0  0  0  0  0  0
  190.0730  174.2660  141.6440 C   0  0  0  0  0  0  0  0  0  0  0  0
  189.3390  175.3930  142.0440 C   0  0  0  0  0  0  0  0  0  0  0  0
  195.6670  173.8880  142.4780 C   0  0  0  0  0  0  0  0  0  0  0  0
  191.3790  176.4470  142.8170 C   0  0  0  0  0  3  0  0  0  0  0  0
  191.4580  174.2260  141.8460 C   0  0  2  0  0  3  0  0  0  0  0  0
  192.1770  173.0920  141.4720 O   0  0  0  0  0  0  0  0  0  0  0  0
  195.5890  171.6420  141.5790 C   0  0  0  0  0  3  0  0  0  0  0  0
  192.1140  175.3200  142.4340 C   0  0  0  0  0  0  0  0  0  0  0  0
  193.5510  172.9550  141.6970 C   0  0  0  0  0  0  0  0  0  0  0  0
  194.2140  171.7510  141.3570 C   0  0  0  0  0  0  0  0  0  0  0  0
  189.9950  176.4840  142.6240 C   0  0  0  0  0  3  0  0  0  0  0  0
  194.2800  174.0240  142.2640 C   0  0  0  0  0  0  0  0  0  0  0  0
  193.5950  175.3100  142.6560 C   0  0  0  0  0  3  0  0  0  0  0  0
  197.5130  177.1470  142.9020 O   0  0  0  0  0  1  0  0  0  0  0  0
  196.8110  176.1080  142.3000 C   0  0  0  0  0  0  0  0  0  0  0  0
  196.4350  174.9490  143.0620 N   0  0  0  0  0  0  0  0  0  0  0  0
  196.5150  176.1910  141.0770 O   0  0  0  0  0  0  0  0  0  0  0  0
  196.8260  174.8370  144.4610 C   0  0  0  0  0  2  0  0  0  0  0  0
  195.8150  173.9780  145.2160 C   0  0  0  0  0  2  0  0  0  0  0  0
  194.1450  177.1570  146.7010 C   0  0  0  0  0  2  0  0  0  0  0  0
  194.9770  176.3030  145.7350 C   0  0  0  0  0  2  0  0  0  0  0  0
  194.8840  174.8150  146.0860 C   0  0  0  0  0  3  0  0  0  0  0  0
  192.9100  176.4350  147.2570 C   0  0  0  0  0  2  0  0  0  0  0  0
  193.4380  174.2910  146.0380 C   0  0  0  0  0  2  0  0  0  0  0  0
  192.3890  175.3840  146.2810 C   0  0  0  0  0  2  0  0  0  0  0  0
  193.5650  170.6400  140.7940 O   0  0  0  0  0  0  0  0  0  0  0  0
  192.8090  169.9800  142.9850 C   0  0  0  0  0  1  0  0  0  0  0  0
  192.9760  169.5760  141.5320 C   0  0  0  0  0  2  0  0  0  0  0  0
  187.8590  175.4440  141.8550 C   0  0  0  0  0  2  0  0  0  0  0  0
  187.0660  176.4090  139.8110 O   0  0  0  0  0  1  0  0  0  0  0  0
  187.4420  176.7170  141.1210 C   0  0  1  0  0  3  0  0  0  0  0  0
  185.1410  177.5630  140.9560 N   0  0  0  0  0  1  0  0  0  0  0  0
  186.2920  177.4310  141.8350 C   0  0  1  0  0  3  0  0  0  0  0  0
  185.8740  176.6950  143.0990 C   0  0  0  0  0  2  0  0  0  0  0  0
  185.4980  177.6650  144.2170 C   0  0  1  0  0  3  0  0  0  0  0  0
  186.7410  178.1850  144.9520 C   0  0  2  0  0  3  0  0  0  0  0  0
  187.8190  178.3820  144.0810 O   0  0  0  0  0  1  0  0  0  0  0  0
  187.1340  177.3060  146.1460 C   0  0  1  0  0  3  0  0  0  0  0  0
  185.9980  177.1690  147.1570 C   0  0  0  0  0  2  0  0  0  0  0  0
  185.4670  178.8080  147.7440 S   0  0  0  0  0  1  0  0  0  0  0  0
  187.5290  176.0420  145.6950 O   0  0  0  0  0  0  0  0  0  0  0  0
  188.9000  174.9070  147.2600 C   0  0  0  0  0  2  0  0  0  0  0  0
  189.3190  174.4840  145.8670 C   0  0  0  0  0  2  0  0  0  0  0  0
  188.8510  175.9040  146.1210 C   0  0  0  0  0  3  0  0  0  0  0  0
  185.2050  179.8540  144.4160 C   0  0  0  0  0  1  0  0  0  0  0  0
  184.7760  178.7390  143.6890 O   0  0  0  0  0  0  0  0  0  0  0  0
  1  3  1  0  0  0  0
  2  5  1  0  0  0  0
  3  7  1  0  0  0  0
  3  4  2  0  0  0  0
  4 13  1  0  0  0  0
  5 18  1  0  0  0  0
  7  8  1  1  0  0  0
  7 10  1  0  0  0  0
  8 11  1  0  0  0  0
  9  2  2  0  0  0  0
 10 15  2  0  0  0  0
 10  6  1  0  0  0  0
 11 14  1  0  0  0  0
 12  9  1  0  0  0  0
 12 11  2  0  0  0  0
 13  6  2  0  0  0  0
 14  5  2  0  0  0  0
 14 15  1  0  0  0  0
 17 16  1  0  0  0  0
 17 18  1  0  0  0  0
 18 20  1  0  0  0  0
 19 17  2  0  0  0  0
 20 21  1  0  0  0  0
 21 24  1  0  0  0  0
 22 25  1  0  0  0  0
 23 24  1  0  0  0  0
 23 22  1  0  0  0  0
 26 24  1  0  0  0  0
 26 27  1  0  0  0  0
 27 25  1  0  0  0  0
 28 12  1  0  0  0  0
 28 30  1  0  0  0  0
 30 29  1  0  0  0  0
 31  4  1  0  0  0  0
 33 32  1  6  0  0  0
 33 35  1  0  0  0  0
 33 31  1  0  0  0  0
 35 34  1  6  0  0  0
 35 36  1  0  0  0  0
 37 36  1  6  0  0  0
 37 38  1  0  0  0  0
 38 39  1  6  0  0  0
 38 40  1  0  0  0  0
 40 41  1  1  0  0  0
 41 42  1  0  0  0  0
 43 46  1  0  0  0  0
 43 40  1  0  0  0  0
 45 46  1  0  0  0  0
 45 44  1  0  0  0  0
 46 44  1  0  0  0  0
 48 37  1  0  0  0  0
 48 47  1  0  0  0  0
M  END
>  <MODEL>
9

>  <REMARK>
 VINA RESULT:      -5.9      2.896      4.825
  Name = 
  17 active torsions:
  status: ('A' for Active; 'I' for Inactive)
    1  A    between atoms: C_1  and  C_6
    2  A    between atoms: C_1  and  C_22
    3  A    between atoms: C_3  and  C_22
    4  A    between atoms: C_6  and  C_9
    5  A    between atoms: C_6  and  O_48
    6  A    between atoms: C_7  and  C_26
    7  A    between atoms: O_8  and  C_22
    8  A    between atoms: O_8  and  C_41
    9  A    between atoms: C_9  and  C_45
   10  A    between atoms: C_15  and  C_18
   11  A    between atoms: C_15  and  C_47
   12  A    between atoms: O_20  and  C_24
   13  A    between atoms: O_20  and  C_39
   14  A    between atoms: C_21  and  N_34
   15  A    between atoms: C_26  and  C_44
   16  A    between atoms: N_34  and  C_44
   17  A    between atoms: C_45  and  C_47
                            x       y       z     vdW  Elec       q    Type
                         _______ _______ _______ _____ _____    ______ ____

>  <TORSDO>
F 17

$$$$
