=
 OpenBabel11042414083D

 49 54  0  0  1  0  0  0  0  0999 V2000
  190.3400  174.8770  143.0180 C   0  0  2  0  0  3  0  0  0  0  0  0
  190.5930  173.9630  141.8170 C   0  0  0  0  0  2  0  0  0  0  0  0
  192.8460  175.0310  141.6440 C   0  0  0  0  0  3  0  0  0  0  0  0
  191.8900  174.2580  141.1000 C   0  0  0  0  0  0  0  0  0  0  0  0
  191.6230  175.0580  143.8200 C   0  0  0  0  0  2  0  0  0  0  0  0
  192.6610  175.7690  142.9480 C   0  0  1  0  0  3  0  0  0  0  0  0
  196.1760  174.2750  144.9780 C   0  0  2  0  0  3  0  0  0  0  0  0
  195.1660  175.2570  142.8870 C   0  0  0  0  0  2  0  0  0  0  0  0
  195.2850  175.2700  145.7430 C   0  0  0  0  0  2  0  0  0  0  0  0
  193.9030  175.4140  145.1150 C   0  0  0  0  0  2  0  0  0  0  0  0
  194.0070  175.9190  143.6660 C   0  0  2  0  0  3  0  0  0  0  0  0
  195.6800  173.9870  143.5580 C   0  0  0  0  0  2  0  0  0  0  0  0
  196.2970  172.9550  145.7310 C   0  0  0  0  0  2  0  0  0  0  0  0
  194.1320  171.9390  145.9420 O   0  0  0  0  0  1  0  0  0  0  0  0
  195.3190  171.9000  145.2090 C   0  0  2  0  0  3  0  0  0  0  0  0
  195.9110  170.4940  145.2690 C   0  0  1  0  0  3  0  0  0  0  0  0
  197.4070  170.5390  145.5310 C   0  0  0  0  0  1  0  0  0  0  0  0
  195.2800  169.7320  146.2520 O   0  0  0  0  0  1  0  0  0  0  0  0
  189.3590  174.3100  143.8310 O   0  0  0  0  0  0  0  0  0  0  0  0
  190.6870  172.8330  144.9880 O   0  0  0  0  0  1  0  0  0  0  0  0
  190.0000  174.0420  145.0410 C   0  0  2  0  0  3  0  0  0  0  0  0
  189.3420  176.8160  146.0750 C   0  0  0  0  0  0  0  0  0  0  0  0
  188.7370  175.6230  146.8030 C   0  0  2  0  0  3  0  0  0  0  0  0
  190.5040  177.3400  146.4920 C   0  0  0  0  0  3  0  0  0  0  0  0
  189.7240  174.7690  147.6230 C   0  0  1  0  0  3  0  0  0  0  0  0
  191.2450  176.7670  147.6520 C   0  0  0  0  0  2  0  0  0  0  0  0
  189.1230  174.2120  146.3170 C   0  0  2  0  0  3  0  0  0  0  0  0
  191.1790  175.2550  147.5800 C   0  0  0  0  0  2  0  0  0  0  0  0
  187.4890  177.6270  142.0770 N   0  0  0  0  0  0  0  0  0  0  0  0
  186.4130  178.4870  144.2050 C   0  0  0  0  0  2  0  0  0  0  0  0
  185.2430  177.2170  142.5850 O   0  0  0  0  0  0  0  0  0  0  0  0
  188.8230  177.9390  142.5000 C   0  0  0  0  0  3  0  0  0  0  0  0
  188.5630  177.4730  144.9880 C   0  0  0  0  0  0  0  0  0  0  0  0
  186.3390  177.7350  142.9260 C   0  0  0  0  0  0  0  0  0  0  0  0
  187.2650  177.7520  145.1770 C   0  0  0  0  0  3  0  0  0  0  0  0
  189.2870  177.8650  143.7550 C   0  0  0  0  0  3  0  0  0  0  0  0
  187.7040  175.9590  140.4650 O   0  0  0  0  0  1  0  0  0  0  0  0
  187.3060  177.2790  140.6780 C   0  0  0  0  0  2  0  0  0  0  0  0
  192.1730  173.5340  139.8210 C   0  0  0  0  0  2  0  0  0  0  0  0
  190.4340  172.9430  137.0550 C   0  0  2  0  0  3  0  0  0  0  0  0
  190.1300  173.5550  138.3960 C   0  0  0  0  0  2  0  0  0  0  0  0
  191.4200  171.8900  137.2680 N   0  0  0  0  0  2  0  0  0  0  0  0
  191.3870  171.5540  138.6350 N   0  0  0  0  0  2  0  0  0  0  0  0
  190.9540  172.7400  139.3590 C   0  0  1  0  0  3  0  0  0  0  0  0
  190.9700  173.9830  136.1250 C   0  0  0  0  0  0  0  0  0  0  0  0
  190.3490  174.0830  134.6080 S   0  0  0  0  0  0  0  0  0  0  0  0
  191.9020  174.9560  136.6040 N   0  0  0  0  0  2  0  0  0  0  0  0
  193.1980  176.6970  135.8860 C   0  0  0  0  0  1  0  0  0  0  0  0
  193.0850  175.2510  135.9150 N   0  0  0  0  0  2  0  0  0  0  0  0
  1  5  1  0  0  0  0
  1 19  1  1  0  0  0
  2  1  1  0  0  0  0
  4  3  2  0  0  0  0
  4  2  1  0  0  0  0
  6  3  1  6  0  0  0
  6 11  1  0  0  0  0
  6  5  1  0  0  0  0
  7 13  1  1  0  0  0
  7  9  1  0  0  0  0
  8 12  1  0  0  0  0
 10  9  1  0  0  0  0
 11  8  1  6  0  0  0
 11 10  1  0  0  0  0
 12  7  1  0  0  0  0
 15 16  1  0  0  0  0
 15 13  1  0  0  0  0
 15 14  1  1  0  0  0
 16 17  1  1  0  0  0
 16 18  1  0  0  0  0
 19 21  1  0  0  0  0
 21 20  1  6  0  0  0
 22 24  2  0  0  0  0
 23 22  1  6  0  0  0
 23 25  1  0  0  0  0
 24 26  1  0  0  0  0
 25 28  1  6  0  0  0
 27 21  1  6  0  0  0
 27 23  1  0  0  0  0
 27 25  1  0  0  0  0
 28 26  1  0  0  0  0
 29 32  1  0  0  0  0
 29 34  1  0  0  0  0
 30 35  1  0  0  0  0
 31 34  2  0  0  0  0
 32 36  2  0  0  0  0
 33 35  2  0  0  0  0
 33 22  1  0  0  0  0
 34 30  1  0  0  0  0
 36 33  1  0  0  0  0
 37 38  1  0  0  0  0
 38 29  1  0  0  0  0
 39  4  1  0  0  0  0
 40 45  1  6  0  0  0
 40 42  1  0  0  0  0
 40 41  1  0  0  0  0
 41 44  1  0  0  0  0
 42 43  1  0  0  0  0
 43 44  1  0  0  0  0
 44 39  1  6  0  0  0
 45 47  1  0  0  0  0
 46 45  2  0  0  0  0
 48 49  1  0  0  0  0
 49 47  1  0  0  0  0
M  END
>  <MODEL>
1

>  <REMARK>
 VINA RESULT:      -7.3      0.000      0.000
  Name = 
  14 active torsions:
  status: ('A' for Active; 'I' for Inactive)
    1  A    between atoms: C_1  and  O_22
    2  A    between atoms: C_3  and  C_9
    3  A    between atoms: C_4  and  C_47
    4  A    between atoms: C_5  and  C_28
    5  A    between atoms: C_8  and  C_18
    6  A    between atoms: C_9  and  N_48
    7  A    between atoms: N_12  and  C_42
    8  A    between atoms: C_15  and  C_25
    9  A    between atoms: C_18  and  C_47
   10  A    between atoms: O_22  and  C_38
   11  A    between atoms: C_25  and  C_45
   12  A    between atoms: C_34  and  C_49
   13  A    between atoms: C_37  and  C_38
   14  A    between atoms: N_41  and  N_48
                            x       y       z     vdW  Elec       q    Type
                         _______ _______ _______ _____ _____    ______ ____

>  <TORSDO>
F 14

$$$$
=
 OpenBabel11042414083D

 49 54  0  0  1  0  0  0  0  0999 V2000
  192.4790  172.0770  143.7570 C   0  0  2  0  0  3  0  0  0  0  0  0
  191.4780  171.8190  142.6290 C   0  0  0  0  0  2  0  0  0  0  0  0
  189.8350  173.1580  143.9550 C   0  0  0  0  0  3  0  0  0  0  0  0
  190.0840  172.3170  142.9350 C   0  0  0  0  0  0  0  0  0  0  0  0
  192.2830  173.4800  144.3200 C   0  0  0  0  0  2  0  0  0  0  0  0
  190.8920  173.5770  144.9490 C   0  0  1  0  0  3  0  0  0  0  0  0
  188.3030  176.7190  146.4090 C   0  0  2  0  0  3  0  0  0  0  0  0
  190.0500  174.9740  146.9190 C   0  0  0  0  0  2  0  0  0  0  0  0
  189.1220  177.0080  145.1390 C   0  0  0  0  0  2  0  0  0  0  0  0
  189.6710  175.7370  144.4990 C   0  0  0  0  0  2  0  0  0  0  0  0
  190.5950  174.9860  145.4730 C   0  0  2  0  0  3  0  0  0  0  0  0
  188.5690  175.3300  146.9960 C   0  0  0  0  0  2  0  0  0  0  0  0
  186.8080  176.8600  146.1430 C   0  0  0  0  0  2  0  0  0  0  0  0
  185.9890  179.0360  145.5450 O   0  0  0  0  0  1  0  0  0  0  0  0
  186.5130  177.8550  145.0180 C   0  0  2  0  0  3  0  0  0  0  0  0
  185.5430  177.2790  143.9890 C   0  0  1  0  0  3  0  0  0  0  0  0
  185.1230  178.3340  142.9810 C   0  0  0  0  0  1  0  0  0  0  0  0
  186.1120  176.1910  143.3280 O   0  0  0  0  0  1  0  0  0  0  0  0
  193.7760  171.9520  143.2600 O   0  0  0  0  0  0  0  0  0  0  0  0
  193.6580  169.6710  142.9940 O   0  0  0  0  0  1  0  0  0  0  0  0
  194.2250  170.7140  143.7210 C   0  0  2  0  0  3  0  0  0  0  0  0
  196.4240  171.8290  145.4880 C   0  0  0  0  0  0  0  0  0  0  0  0
  195.2500  171.1330  146.1650 C   0  0  2  0  0  3  0  0  0  0  0  0
  197.5310  171.1360  145.1810 C   0  0  0  0  0  3  0  0  0  0  0  0
  195.1850  169.6030  145.9830 C   0  0  1  0  0  3  0  0  0  0  0  0
  197.6410  169.6780  145.4670 C   0  0  0  0  0  2  0  0  0  0  0  0
  194.1660  170.5100  145.2640 C   0  0  2  0  0  3  0  0  0  0  0  0
  196.3210  169.0110  145.1390 C   0  0  0  0  0  2  0  0  0  0  0  0
  196.3770  175.8540  143.5200 N   0  0  0  0  0  0  0  0  0  0  0  0
  195.2530  175.4920  145.7620 C   0  0  0  0  0  2  0  0  0  0  0  0
  194.1520  176.4630  143.9030 O   0  0  0  0  0  0  0  0  0  0  0  0
  197.5230  175.0560  143.8470 C   0  0  0  0  0  3  0  0  0  0  0  0
  196.3790  173.3060  145.2970 C   0  0  0  0  0  0  0  0  0  0  0  0
  195.2140  175.9550  144.3510 C   0  0  0  0  0  0  0  0  0  0  0  0
  195.3570  174.0090  145.8070 C   0  0  0  0  0  3  0  0  0  0  0  0
  197.5210  173.9520  144.6080 C   0  0  0  0  0  3  0  0  0  0  0  0
  196.6560  175.8580  141.2080 O   0  0  0  0  0  1  0  0  0  0  0  0
  196.4660  176.6730  142.3230 C   0  0  0  0  0  2  0  0  0  0  0  0
  188.9860  171.9840  141.9760 C   0  0  0  0  0  2  0  0  0  0  0  0
  189.9930  173.5100  139.2040 C   0  0  2  0  0  3  0  0  0  0  0  0
  189.8730  173.8990  140.6530 C   0  0  0  0  0  2  0  0  0  0  0  0
  188.9030  172.5880  138.9070 N   0  0  0  0  0  2  0  0  0  0  0  0
  187.9320  172.7480  139.9140 N   0  0  0  0  0  2  0  0  0  0  0  0
  188.6250  173.1920  141.1140 C   0  0  1  0  0  3  0  0  0  0  0  0
  191.3140  172.8570  138.9540 C   0  0  0  0  0  0  0  0  0  0  0  0
  192.6810  173.6290  139.4360 S   0  0  0  0  0  0  0  0  0  0  0  0
  191.3650  171.5260  138.4350 N   0  0  0  0  0  2  0  0  0  0  0  0
  190.8240  169.6650  139.6490 C   0  0  0  0  0  1  0  0  0  0  0  0
  191.9290  170.4690  139.1620 N   0  0  0  0  0  2  0  0  0  0  0  0
  1 19  1  6  0  0  0
  1  5  1  0  0  0  0
  2  4  1  0  0  0  0
  2  1  1  0  0  0  0
  4  3  2  0  0  0  0
  5  6  1  0  0  0  0
  6  3  1  6  0  0  0
  6 11  1  0  0  0  0
  7 13  1  6  0  0  0
  7 12  1  0  0  0  0
  8 12  1  0  0  0  0
  9  7  1  0  0  0  0
 10  9  1  0  0  0  0
 11 10  1  6  0  0  0
 11  8  1  0  0  0  0
 15 14  1  1  0  0  0
 15 13  1  0  0  0  0
 16 17  1  6  0  0  0
 16 15  1  0  0  0  0
 18 16  1  0  0  0  0
 19 21  1  0  0  0  0
 21 20  1  6  0  0  0
 23 22  1  6  0  0  0
 24 26  1  0  0  0  0
 24 22  2  0  0  0  0
 25 28  1  6  0  0  0
 25 23  1  0  0  0  0
 27 21  1  6  0  0  0
 27 25  1  0  0  0  0
 27 23  1  0  0  0  0
 28 26  1  0  0  0  0
 29 32  1  0  0  0  0
 29 34  1  0  0  0  0
 30 35  1  0  0  0  0
 31 34  2  0  0  0  0
 32 36  2  0  0  0  0
 33 22  1  0  0  0  0
 33 35  2  0  0  0  0
 34 30  1  0  0  0  0
 36 33  1  0  0  0  0
 37 38  1  0  0  0  0
 38 29  1  0  0  0  0
 39  4  1  0  0  0  0
 40 45  1  1  0  0  0
 40 41  1  0  0  0  0
 41 44  1  0  0  0  0
 42 40  1  0  0  0  0
 42 43  1  0  0  0  0
 43 44  1  0  0  0  0
 44 39  1  1  0  0  0
 45 46  2  0  0  0  0
 47 45  1  0  0  0  0
 47 49  1  0  0  0  0
 49 48  1  0  0  0  0
M  END
>  <MODEL>
2

>  <REMARK>
 VINA RESULT:      -7.2      2.547      7.539
  Name = 
  14 active torsions:
  status: ('A' for Active; 'I' for Inactive)
    1  A    between atoms: C_1  and  O_22
    2  A    between atoms: C_3  and  C_9
    3  A    between atoms: C_4  and  C_47
    4  A    between atoms: C_5  and  C_28
    5  A    between atoms: C_8  and  C_18
    6  A    between atoms: C_9  and  N_48
    7  A    between atoms: N_12  and  C_42
    8  A    between atoms: C_15  and  C_25
    9  A    between atoms: C_18  and  C_47
   10  A    between atoms: O_22  and  C_38
   11  A    between atoms: C_25  and  C_45
   12  A    between atoms: C_34  and  C_49
   13  A    between atoms: C_37  and  C_38
   14  A    between atoms: N_41  and  N_48
                            x       y       z     vdW  Elec       q    Type
                         _______ _______ _______ _____ _____    ______ ____

>  <TORSDO>
F 14

$$$$
=
 OpenBabel11042414083D

 49 54  0  0  1  0  0  0  0  0999 V2000
  189.8830  173.6200  143.2960 C   0  0  2  0  0  3  0  0  0  0  0  0
  191.1900  174.3600  143.0040 C   0  0  0  0  0  2  0  0  0  0  0  0
  191.0970  173.3540  140.7170 C   0  0  0  0  0  3  0  0  0  0  0  0
  191.7930  174.0090  141.6630 C   0  0  0  0  0  0  0  0  0  0  0  0
  189.0020  173.6010  142.0520 C   0  0  0  0  0  2  0  0  0  0  0  0
  189.7090  172.8070  140.9520 C   0  0  1  0  0  3  0  0  0  0  0  0
  189.3030  172.8780  136.6460 C   0  0  2  0  0  3  0  0  0  0  0  0
  189.1880  171.5500  138.7870 C   0  0  0  0  0  2  0  0  0  0  0  0
  188.6240  174.0070  137.4420 C   0  0  0  0  0  2  0  0  0  0  0  0
  189.1530  174.1140  138.8680 C   0  0  0  0  0  2  0  0  0  0  0  0
  188.9130  172.8070  139.6420 C   0  0  2  0  0  3  0  0  0  0  0  0
  190.0100  171.8530  137.5370 C   0  0  0  0  0  2  0  0  0  0  0  0
  190.3110  173.4370  135.6490 C   0  0  0  0  0  2  0  0  0  0  0  0
  190.4980  175.7370  134.9820 O   0  0  0  0  0  1  0  0  0  0  0  0
  190.7730  174.8480  136.0230 C   0  0  2  0  0  3  0  0  0  0  0  0
  192.2620  174.8910  136.3530 C   0  0  1  0  0  3  0  0  0  0  0  0
  192.8440  176.2680  136.0860 C   0  0  0  0  0  1  0  0  0  0  0  0
  192.4850  174.5310  137.6820 O   0  0  0  0  0  1  0  0  0  0  0  0
  189.2100  174.2660  144.3330 O   0  0  0  0  0  0  0  0  0  0  0  0
  189.5350  172.3700  145.5920 O   0  0  0  0  0  1  0  0  0  0  0  0
  189.7560  173.7410  145.5050 C   0  0  2  0  0  3  0  0  0  0  0  0
  190.1050  176.7520  145.6200 C   0  0  0  0  0  0  0  0  0  0  0  0
  189.5320  176.0540  146.8460 C   0  0  2  0  0  3  0  0  0  0  0  0
  191.4250  176.9740  145.5290 C   0  0  0  0  0  3  0  0  0  0  0  0
  190.5230  175.1870  147.6480 C   0  0  1  0  0  3  0  0  0  0  0  0
  192.3650  176.5330  146.5970 C   0  0  0  0  0  2  0  0  0  0  0  0
  189.4150  174.5180  146.8110 C   0  0  2  0  0  3  0  0  0  0  0  0
  191.9490  175.1590  147.0820 C   0  0  0  0  0  2  0  0  0  0  0  0
  187.6690  177.1560  141.8820 N   0  0  0  0  0  0  0  0  0  0  0  0
  186.9330  178.2680  144.0380 C   0  0  0  0  0  2  0  0  0  0  0  0
  185.5240  176.8510  142.7650 O   0  0  0  0  0  0  0  0  0  0  0  0
  189.0530  177.4860  142.0610 C   0  0  0  0  0  3  0  0  0  0  0  0
  189.1730  177.3010  144.5960 C   0  0  0  0  0  0  0  0  0  0  0  0
  186.6620  177.3810  142.8770 C   0  0  0  0  0  0  0  0  0  0  0  0
  187.9200  177.6260  144.9470 C   0  0  0  0  0  3  0  0  0  0  0  0
  189.7020  177.5400  143.2320 C   0  0  0  0  0  3  0  0  0  0  0  0
  186.7240  177.6990  139.8240 O   0  0  0  0  0  1  0  0  0  0  0  0
  187.2740  176.6610  140.5750 C   0  0  0  0  0  2  0  0  0  0  0  0
  193.1490  174.5490  141.3330 C   0  0  0  0  0  2  0  0  0  0  0  0
  195.6340  175.8740  143.0910 C   0  0  2  0  0  3  0  0  0  0  0  0
  194.2280  175.4320  143.3970 C   0  0  0  0  0  2  0  0  0  0  0  0
  195.6420  176.3960  141.7310 N   0  0  0  0  0  2  0  0  0  0  0  0
  194.3090  176.6930  141.3860 N   0  0  0  0  0  2  0  0  0  0  0  0
  193.4570  175.7980  142.1550 C   0  0  1  0  0  3  0  0  0  0  0  0
  196.5740  174.7190  143.2160 C   0  0  0  0  0  0  0  0  0  0  0  0
  197.0740  174.2640  144.7120 S   0  0  0  0  0  0  0  0  0  0  0  0
  196.9110  173.9470  142.0610 N   0  0  0  0  0  2  0  0  0  0  0  0
  196.4440  172.3340  140.5090 C   0  0  0  0  0  1  0  0  0  0  0  0
  196.5320  172.6040  141.9310 N   0  0  0  0  0  2  0  0  0  0  0  0
  1 19  1  1  0  0  0
  2  1  1  0  0  0  0
  3  4  2  0  0  0  0
  4  2  1  0  0  0  0
  5  1  1  0  0  0  0
  6  3  1  6  0  0  0
  6  5  1  0  0  0  0
  7 13  1  6  0  0  0
  7  9  1  0  0  0  0
  7 12  1  0  0  0  0
  9 10  1  0  0  0  0
 10 11  1  0  0  0  0
 11  8  1  6  0  0  0
 11  6  1  0  0  0  0
 12  8  1  0  0  0  0
 13 15  1  0  0  0  0
 15 14  1  6  0  0  0
 15 16  1  0  0  0  0
 16 17  1  1  0  0  0
 16 18  1  0  0  0  0
 19 21  1  0  0  0  0
 21 20  1  1  0  0  0
 23 22  1  6  0  0  0
 23 25  1  0  0  0  0
 24 22  2  0  0  0  0
 24 26  1  0  0  0  0
 25 28  1  6  0  0  0
 26 28  1  0  0  0  0
 27 21  1  6  0  0  0
 27 23  1  0  0  0  0
 27 25  1  0  0  0  0
 29 32  1  0  0  0  0
 29 34  1  0  0  0  0
 30 35  1  0  0  0  0
 31 34  2  0  0  0  0
 32 36  2  0  0  0  0
 33 35  2  0  0  0  0
 33 22  1  0  0  0  0
 34 30  1  0  0  0  0
 36 33  1  0  0  0  0
 37 38  1  0  0  0  0
 38 29  1  0  0  0  0
 39  4  1  0  0  0  0
 40 45  1  6  0  0  0
 40 41  1  0  0  0  0
 42 40  1  0  0  0  0
 43 42  1  0  0  0  0
 43 44  1  0  0  0  0
 44 39  1  6  0  0  0
 44 41  1  0  0  0  0
 45 46  2  0  0  0  0
 47 45  1  0  0  0  0
 48 49  1  0  0  0  0
 49 47  1  0  0  0  0
M  END
>  <MODEL>
3

>  <REMARK>
 VINA RESULT:      -7.1      3.121      6.303
  Name = 
  14 active torsions:
  status: ('A' for Active; 'I' for Inactive)
    1  A    between atoms: C_1  and  O_22
    2  A    between atoms: C_3  and  C_9
    3  A    between atoms: C_4  and  C_47
    4  A    between atoms: C_5  and  C_28
    5  A    between atoms: C_8  and  C_18
    6  A    between atoms: C_9  and  N_48
    7  A    between atoms: N_12  and  C_42
    8  A    between atoms: C_15  and  C_25
    9  A    between atoms: C_18  and  C_47
   10  A    between atoms: O_22  and  C_38
   11  A    between atoms: C_25  and  C_45
   12  A    between atoms: C_34  and  C_49
   13  A    between atoms: C_37  and  C_38
   14  A    between atoms: N_41  and  N_48
                            x       y       z     vdW  Elec       q    Type
                         _______ _______ _______ _____ _____    ______ ____

>  <TORSDO>
F 14

$$$$
=
 OpenBabel11042414083D

 49 54  0  0  1  0  0  0  0  0999 V2000
  188.4090  174.8250  142.5050 C   0  0  2  0  0  3  0  0  0  0  0  0
  189.6510  174.4440  143.3120 C   0  0  0  0  0  2  0  0  0  0  0  0
  189.8310  172.4310  141.8400 C   0  0  0  0  0  3  0  0  0  0  0  0
  190.2090  173.0860  142.9530 C   0  0  0  0  0  0  0  0  0  0  0  0
  188.6000  174.4500  141.0400 C   0  0  0  0  0  2  0  0  0  0  0  0
  188.7370  172.9310  140.9270 C   0  0  1  0  0  3  0  0  0  0  0  0
  190.5270  173.3070  137.0070 C   0  0  2  0  0  3  0  0  0  0  0  0
  190.4940  172.1440  139.2440 C   0  0  0  0  0  2  0  0  0  0  0  0
  188.9910  173.2560  137.0830 C   0  0  0  0  0  2  0  0  0  0  0  0
  188.4680  173.5260  138.4910 C   0  0  0  0  0  2  0  0  0  0  0  0
  189.0070  172.4840  139.4860 C   0  0  2  0  0  3  0  0  0  0  0  0
  191.2040  173.1770  138.3750 C   0  0  0  0  0  2  0  0  0  0  0  0
  191.0020  174.5970  136.3470 C   0  0  0  0  0  2  0  0  0  0  0  0
  192.1180  172.9620  134.9880 O   0  0  0  0  0  1  0  0  0  0  0  0
  191.9970  174.3330  135.2140 C   0  0  2  0  0  3  0  0  0  0  0  0
  193.3720  174.9260  135.5140 C   0  0  1  0  0  3  0  0  0  0  0  0
  193.2560  176.1760  136.3680 C   0  0  0  0  0  1  0  0  0  0  0  0
  194.1860  173.9900  136.1510 O   0  0  0  0  0  1  0  0  0  0  0  0
  188.1950  176.1990  142.6090 O   0  0  0  0  0  0  0  0  0  0  0  0
  185.9690  175.6640  142.8240 O   0  0  0  0  0  1  0  0  0  0  0  0
  187.0490  176.3320  143.3950 C   0  0  2  0  0  3  0  0  0  0  0  0
  188.1870  177.3870  146.0010 C   0  0  0  0  0  0  0  0  0  0  0  0
  187.3490  178.3360  145.1530 C   0  0  2  0  0  3  0  0  0  0  0  0
  187.6090  176.6670  146.9740 C   0  0  0  0  0  3  0  0  0  0  0  0
  185.8390  178.0320  145.1020 C   0  0  1  0  0  3  0  0  0  0  0  0
  186.1460  176.7530  147.2420 C   0  0  0  0  0  2  0  0  0  0  0  0
  186.7190  177.7800  143.8610 C   0  0  2  0  0  3  0  0  0  0  0  0
  185.4060  176.8080  145.9200 C   0  0  0  0  0  2  0  0  0  0  0  0
  192.4300  175.9530  145.8690 N   0  0  0  0  0  0  0  0  0  0  0  0
  191.6590  177.8640  144.3930 C   0  0  0  0  0  2  0  0  0  0  0  0
  192.7830  175.9540  143.5570 O   0  0  0  0  0  0  0  0  0  0  0  0
  191.6960  176.4040  147.0160 C   0  0  0  0  0  3  0  0  0  0  0  0
  189.6660  177.3720  145.8260 C   0  0  0  0  0  0  0  0  0  0  0  0
  192.3110  176.5400  144.5670 C   0  0  0  0  0  0  0  0  0  0  0  0
  190.1990  177.7490  144.6540 C   0  0  0  0  0  3  0  0  0  0  0  0
  190.5000  177.0090  146.9960 C   0  0  0  0  0  3  0  0  0  0  0  0
  194.6600  175.4790  146.3450 O   0  0  0  0  0  1  0  0  0  0  0  0
  193.4140  174.9070  146.0870 C   0  0  0  0  0  2  0  0  0  0  0  0
  191.3270  172.5370  143.7810 C   0  0  0  0  0  2  0  0  0  0  0  0
  194.3510  171.1920  143.5090 C   0  0  2  0  0  3  0  0  0  0  0  0
  193.3790  171.8350  142.5560 C   0  0  0  0  0  2  0  0  0  0  0  0
  193.5710  170.4850  144.5170 N   0  0  0  0  0  2  0  0  0  0  0  0
  192.2760  170.3010  143.9940 N   0  0  0  0  0  2  0  0  0  0  0  0
  192.0310  171.3900  143.0600 C   0  0  1  0  0  3  0  0  0  0  0  0
  195.2110  172.2340  144.1470 C   0  0  0  0  0  0  0  0  0  0  0  0
  195.6090  173.5710  143.2810 S   0  0  0  0  0  0  0  0  0  0  0  0
  195.5550  172.1240  145.5310 N   0  0  0  0  0  2  0  0  0  0  0  0
  197.0830  170.4530  145.8440 C   0  0  0  0  0  1  0  0  0  0  0  0
  196.8700  171.8830  145.9500 N   0  0  0  0  0  2  0  0  0  0  0  0
  1 19  1  6  0  0  0
  1  2  1  0  0  0  0
  3  4  2  0  0  0  0
  4  2  1  0  0  0  0
  4 39  1  0  0  0  0
  5  1  1  0  0  0  0
  6  5  1  6  0  0  0
  6  3  1  0  0  0  0
  7 13  1  1  0  0  0
  7  9  1  0  0  0  0
  7 12  1  0  0  0  0
  8 11  1  0  0  0  0
  9 10  1  0  0  0  0
 11 10  1  6  0  0  0
 11  6  1  0  0  0  0
 12  8  1  0  0  0  0
 15 14  1  1  0  0  0
 15 16  1  0  0  0  0
 15 13  1  0  0  0  0
 16 18  1  0  0  0  0
 16 17  1  1  0  0  0
 19 21  1  0  0  0  0
 21 20  1  6  0  0  0
 22 24  2  0  0  0  0
 23 22  1  1  0  0  0
 24 26  1  0  0  0  0
 25 23  1  0  0  0  0
 25 28  1  1  0  0  0
 27 21  1  1  0  0  0
 27 25  1  0  0  0  0
 27 23  1  0  0  0  0
 28 26  1  0  0  0  0
 29 38  1  0  0  0  0
 29 32  1  0  0  0  0
 30 34  1  0  0  0  0
 30 35  1  0  0  0  0
 31 34  2  0  0  0  0
 33 22  1  0  0  0  0
 33 36  1  0  0  0  0
 34 29  1  0  0  0  0
 35 33  2  0  0  0  0
 36 32  2  0  0  0  0
 38 37  1  0  0  0  0
 40 45  1  1  0  0  0
 40 42  1  0  0  0  0
 41 44  1  0  0  0  0
 41 40  1  0  0  0  0
 43 42  1  0  0  0  0
 44 39  1  1  0  0  0
 44 43  1  0  0  0  0
 45 47  1  0  0  0  0
 46 45  2  0  0  0  0
 47 49  1  0  0  0  0
 48 49  1  0  0  0  0
M  END
>  <MODEL>
4

>  <REMARK>
 VINA RESULT:      -7.0      3.575      7.306
  Name = 
  14 active torsions:
  status: ('A' for Active; 'I' for Inactive)
    1  A    between atoms: C_1  and  O_22
    2  A    between atoms: C_3  and  C_9
    3  A    between atoms: C_4  and  C_47
    4  A    between atoms: C_5  and  C_28
    5  A    between atoms: C_8  and  C_18
    6  A    between atoms: C_9  and  N_48
    7  A    between atoms: N_12  and  C_42
    8  A    between atoms: C_15  and  C_25
    9  A    between atoms: C_18  and  C_47
   10  A    between atoms: O_22  and  C_38
   11  A    between atoms: C_25  and  C_45
   12  A    between atoms: C_34  and  C_49
   13  A    between atoms: C_37  and  C_38
   14  A    between atoms: N_41  and  N_48
                            x       y       z     vdW  Elec       q    Type
                         _______ _______ _______ _____ _____    ______ ____

>  <TORSDO>
F 14

$$$$
=
 OpenBabel11042414083D

 49 54  0  0  1  0  0  0  0  0999 V2000
  194.0030  171.7190  143.0560 C   0  0  2  0  0  3  0  0  0  0  0  0
  194.7330  172.7170  142.1550 C   0  0  0  0  0  2  0  0  0  0  0  0
  192.8720  172.4010  140.5160 C   0  0  0  0  0  3  0  0  0  0  0  0
  194.1040  172.8660  140.7890 C   0  0  0  0  0  0  0  0  0  0  0  0
  192.4950  171.9080  142.9340 C   0  0  0  0  0  2  0  0  0  0  0  0
  192.0660  171.5880  141.5010 C   0  0  1  0  0  3  0  0  0  0  0  0
  188.4240  173.9100  141.7290 C   0  0  2  0  0  3  0  0  0  0  0  0
  190.2950  172.9950  140.3080 C   0  0  0  0  0  2  0  0  0  0  0  0
  188.4370  172.5410  142.4310 C   0  0  0  0  0  2  0  0  0  0  0  0
  189.8500  172.0030  142.6320 C   0  0  0  0  0  2  0  0  0  0  0  0
  190.5670  171.8280  141.2830 C   0  0  2  0  0  3  0  0  0  0  0  0
  189.7350  174.2310  141.0060 C   0  0  0  0  0  2  0  0  0  0  0  0
  188.1230  175.0320  142.7170 C   0  0  0  0  0  2  0  0  0  0  0  0
  187.8420  177.2110  141.7500 O   0  0  0  0  0  1  0  0  0  0  0  0
  187.1500  176.0640  142.1410 C   0  0  2  0  0  3  0  0  0  0  0  0
  186.0600  176.4400  143.1410 C   0  0  1  0  0  3  0  0  0  0  0  0
  186.6560  177.0250  144.4100 C   0  0  0  0  0  1  0  0  0  0  0  0
  185.1620  177.3450  142.5780 O   0  0  0  0  0  1  0  0  0  0  0  0
  194.3910  171.9230  144.3800 O   0  0  0  0  0  0  0  0  0  0  0  0
  196.4260  170.9070  144.0470 O   0  0  0  0  0  1  0  0  0  0  0  0
  195.7740  172.1030  144.3300 C   0  0  2  0  0  3  0  0  0  0  0  0
  195.2260  175.0700  144.6430 C   0  0  0  0  0  0  0  0  0  0  0  0
  196.0600  174.3820  145.7160 C   0  0  2  0  0  3  0  0  0  0  0  0
  195.8270  175.6680  143.6040 C   0  0  0  0  0  3  0  0  0  0  0  0
  197.4790  173.9580  145.2900 C   0  0  1  0  0  3  0  0  0  0  0  0
  197.3090  175.6630  143.4540 C   0  0  0  0  0  2  0  0  0  0  0  0
  196.3920  172.8900  145.5230 C   0  0  2  0  0  3  0  0  0  0  0  0
  197.8380  174.2950  143.8370 C   0  0  0  0  0  2  0  0  0  0  0  0
  191.2420  176.3070  146.2800 N   0  0  0  0  0  0  0  0  0  0  0  0
  191.4940  175.6310  143.8500 C   0  0  0  0  0  2  0  0  0  0  0  0
  190.4940  177.6670  144.5300 O   0  0  0  0  0  0  0  0  0  0  0  0
  192.1010  175.2680  146.7680 C   0  0  0  0  0  3  0  0  0  0  0  0
  193.7520  175.1850  144.8330 C   0  0  0  0  0  0  0  0  0  0  0  0
  191.0560  176.5990  144.8890 C   0  0  0  0  0  0  0  0  0  0  0  0
  192.9800  175.5710  143.8070 C   0  0  0  0  0  3  0  0  0  0  0  0
  193.1880  174.7900  146.1460 C   0  0  0  0  0  3  0  0  0  0  0  0
  191.1490  177.0880  148.4720 O   0  0  0  0  0  1  0  0  0  0  0  0
  190.4520  177.0250  147.2650 C   0  0  0  0  0  2  0  0  0  0  0  0
  194.8160  173.6950  139.7670 C   0  0  0  0  0  2  0  0  0  0  0  0
  197.8420  174.0380  138.4440 C   0  0  2  0  0  3  0  0  0  0  0  0
  197.2160  173.1070  139.4470 C   0  0  0  0  0  2  0  0  0  0  0  0
  197.2070  175.3410  138.6000 N   0  0  0  0  0  2  0  0  0  0  0  0
  196.5940  175.3600  139.8670 N   0  0  0  0  0  2  0  0  0  0  0  0
  196.2510  173.9860  140.2010 C   0  0  1  0  0  3  0  0  0  0  0  0
  197.6350  173.5150  137.0590 C   0  0  0  0  0  0  0  0  0  0  0  0
  197.0280  172.0030  136.8670 S   0  0  0  0  0  0  0  0  0  0  0  0
  197.8320  174.3780  135.9350 N   0  0  0  0  0  2  0  0  0  0  0  0
  196.0230  175.2900  134.8760 C   0  0  0  0  0  1  0  0  0  0  0  0
  197.0530  174.2730  134.7760 N   0  0  0  0  0  2  0  0  0  0  0  0
  1 19  1  1  0  0  0
  2  1  1  0  0  0  0
  3  4  2  0  0  0  0
  4  2  1  0  0  0  0
  5  1  1  0  0  0  0
  6  3  1  6  0  0  0
  6  5  1  0  0  0  0
  7  9  1  0  0  0  0
  7 13  1  1  0  0  0
  8 12  1  0  0  0  0
  9 10  1  0  0  0  0
 11  8  1  6  0  0  0
 11  6  1  0  0  0  0
 11 10  1  0  0  0  0
 12  7  1  0  0  0  0
 15 14  1  1  0  0  0
 15 13  1  0  0  0  0
 15 16  1  0  0  0  0
 16 17  1  1  0  0  0
 18 16  1  0  0  0  0
 21 20  1  1  0  0  0
 21 19  1  0  0  0  0
 22 33  1  0  0  0  0
 23 22  1  6  0  0  0
 24 22  2  0  0  0  0
 25 28  1  6  0  0  0
 25 27  1  0  0  0  0
 25 23  1  0  0  0  0
 26 24  1  0  0  0  0
 26 28  1  0  0  0  0
 27 21  1  6  0  0  0
 27 23  1  0  0  0  0
 29 32  1  0  0  0  0
 29 38  1  0  0  0  0
 30 34  1  0  0  0  0
 31 34  2  0  0  0  0
 33 36  1  0  0  0  0
 34 29  1  0  0  0  0
 35 30  1  0  0  0  0
 35 33  2  0  0  0  0
 36 32  2  0  0  0  0
 38 37  1  0  0  0  0
 39  4  1  0  0  0  0
 40 45  1  6  0  0  0
 40 42  1  0  0  0  0
 40 41  1  0  0  0  0
 41 44  1  0  0  0  0
 42 43  1  0  0  0  0
 43 44  1  0  0  0  0
 44 39  1  6  0  0  0
 46 45  2  0  0  0  0
 47 45  1  0  0  0  0
 49 48  1  0  0  0  0
 49 47  1  0  0  0  0
M  END
>  <MODEL>
5

>  <REMARK>
 VINA RESULT:      -7.0      2.996      6.961
  Name = 
  14 active torsions:
  status: ('A' for Active; 'I' for Inactive)
    1  A    between atoms: C_1  and  O_22
    2  A    between atoms: C_3  and  C_9
    3  A    between atoms: C_4  and  C_47
    4  A    between atoms: C_5  and  C_28
    5  A    between atoms: C_8  and  C_18
    6  A    between atoms: C_9  and  N_48
    7  A    between atoms: N_12  and  C_42
    8  A    between atoms: C_15  and  C_25
    9  A    between atoms: C_18  and  C_47
   10  A    between atoms: O_22  and  C_38
   11  A    between atoms: C_25  and  C_45
   12  A    between atoms: C_34  and  C_49
   13  A    between atoms: C_37  and  C_38
   14  A    between atoms: N_41  and  N_48
                            x       y       z     vdW  Elec       q    Type
                         _______ _______ _______ _____ _____    ______ ____

>  <TORSDO>
F 14

$$$$
=
 OpenBabel11042414083D

 49 54  0  0  1  0  0  0  0  0999 V2000
  189.5780  174.2350  142.8690 C   0  0  2  0  0  3  0  0  0  0  0  0
  189.4610  173.0960  141.8540 C   0  0  0  0  0  2  0  0  0  0  0  0
  191.4780  174.0580  140.7340 C   0  0  0  0  0  3  0  0  0  0  0  0
  190.4320  173.2140  140.7020 C   0  0  0  0  0  0  0  0  0  0  0  0
  191.0460  174.5410  143.1450 C   0  0  0  0  0  2  0  0  0  0  0  0
  191.7020  175.0420  141.8570 C   0  0  1  0  0  3  0  0  0  0  0  0
  195.8110  173.8410  142.4770 C   0  0  2  0  0  3  0  0  0  0  0  0
  194.0470  174.7020  140.8940 C   0  0  0  0  0  2  0  0  0  0  0  0
  195.1860  174.7900  143.5140 C   0  0  0  0  0  2  0  0  0  0  0  0
  193.6630  174.8250  143.4280 C   0  0  0  0  0  2  0  0  0  0  0  0
  193.2020  175.3010  142.0410 C   0  0  2  0  0  3  0  0  0  0  0  0
  194.8590  173.4870  141.3310 C   0  0  0  0  0  2  0  0  0  0  0  0
  196.2910  172.5500  143.1320 C   0  0  0  0  0  2  0  0  0  0  0  0
  197.5950  172.6640  145.1440 O   0  0  0  0  0  1  0  0  0  0  0  0
  196.2870  172.6410  144.6600 C   0  0  2  0  0  3  0  0  0  0  0  0
  195.5250  171.4820  145.2970 C   0  0  1  0  0  3  0  0  0  0  0  0
  194.0950  171.8770  145.6210 C   0  0  0  0  0  1  0  0  0  0  0  0
  195.5310  170.3660  144.4610 O   0  0  0  0  0  1  0  0  0  0  0  0
  188.9500  173.8610  144.0560 O   0  0  0  0  0  0  0  0  0  0  0  0
  190.5560  172.5270  145.0180 O   0  0  0  0  0  1  0  0  0  0  0  0
  189.9720  173.7900  145.0030 C   0  0  2  0  0  3  0  0  0  0  0  0
  190.1140  176.7670  145.5660 C   0  0  0  0  0  0  0  0  0  0  0  0
  189.6270  175.8540  146.6820 C   0  0  2  0  0  3  0  0  0  0  0  0
  191.4120  177.0970  145.4850 C   0  0  0  0  0  3  0  0  0  0  0  0
  190.6990  174.9520  147.3250 C   0  0  1  0  0  3  0  0  0  0  0  0
  192.4110  176.5700  146.4570 C   0  0  0  0  0  2  0  0  0  0  0  0
  189.6150  174.3360  146.4170 C   0  0  2  0  0  3  0  0  0  0  0  0
  192.1060  175.1130  146.7360 C   0  0  0  0  0  2  0  0  0  0  0  0
  187.5530  177.5500  141.9740 N   0  0  0  0  0  0  0  0  0  0  0  0
  186.7980  178.2610  144.2860 C   0  0  0  0  0  2  0  0  0  0  0  0
  185.4620  176.9520  142.8330 O   0  0  0  0  0  0  0  0  0  0  0  0
  188.9140  177.9530  142.1790 C   0  0  0  0  0  3  0  0  0  0  0  0
  189.1170  177.3940  144.6530 C   0  0  0  0  0  0  0  0  0  0  0  0
  186.5600  177.5430  143.0070 C   0  0  0  0  0  0  0  0  0  0  0  0
  187.8530  177.5650  145.0700 C   0  0  0  0  0  3  0  0  0  0  0  0
  189.5890  177.8780  143.3340 C   0  0  0  0  0  3  0  0  0  0  0  0
  187.6400  175.9680  140.2670 O   0  0  0  0  0  1  0  0  0  0  0  0
  187.1590  177.2310  140.6120 C   0  0  0  0  0  2  0  0  0  0  0  0
  190.3070  172.2460  139.5670 C   0  0  0  0  0  2  0  0  0  0  0  0
  191.8730  169.4590  138.6710 C   0  0  2  0  0  3  0  0  0  0  0  0
  190.4370  169.8540  138.8850 C   0  0  0  0  0  2  0  0  0  0  0  0
  192.6800  170.2080  139.6250 N   0  0  0  0  0  2  0  0  0  0  0  0
  191.8160  170.6610  140.6410 N   0  0  0  0  0  2  0  0  0  0  0  0
  190.4960  170.8090  140.0490 C   0  0  1  0  0  3  0  0  0  0  0  0
  192.2890  169.7750  137.2700 C   0  0  0  0  0  0  0  0  0  0  0  0
  191.7090  168.8490  136.0440 S   0  0  0  0  0  0  0  0  0  0  0  0
  193.0620  170.9490  137.0040 N   0  0  0  0  0  2  0  0  0  0  0  0
  193.1950  173.1900  137.4360 C   0  0  0  0  0  1  0  0  0  0  0  0
  192.4620  172.1780  136.7010 N   0  0  0  0  0  2  0  0  0  0  0  0
  1  5  1  0  0  0  0
  1 19  1  1  0  0  0
  2  1  1  0  0  0  0
  4  3  2  0  0  0  0
  4  2  1  0  0  0  0
  6  3  1  6  0  0  0
  6 11  1  0  0  0  0
  6  5  1  0  0  0  0
  7 13  1  1  0  0  0
  7  9  1  0  0  0  0
  8 12  1  0  0  0  0
 10  9  1  0  0  0  0
 11  8  1  6  0  0  0
 11 10  1  0  0  0  0
 12  7  1  0  0  0  0
 13 15  1  0  0  0  0
 15 14  1  1  0  0  0
 15 16  1  0  0  0  0
 16 17  1  6  0  0  0
 18 16  1  0  0  0  0
 19 21  1  0  0  0  0
 21 20  1  1  0  0  0
 23 22  1  6  0  0  0
 23 25  1  0  0  0  0
 24 22  2  0  0  0  0
 24 26  1  0  0  0  0
 25 28  1  6  0  0  0
 26 28  1  0  0  0  0
 27 21  1  6  0  0  0
 27 23  1  0  0  0  0
 27 25  1  0  0  0  0
 29 32  1  0  0  0  0
 29 34  1  0  0  0  0
 30 35  1  0  0  0  0
 31 34  2  0  0  0  0
 32 36  2  0  0  0  0
 33 35  2  0  0  0  0
 33 22  1  0  0  0  0
 34 30  1  0  0  0  0
 36 33  1  0  0  0  0
 37 38  1  0  0  0  0
 38 29  1  0  0  0  0
 39  4  1  0  0  0  0
 40 45  1  6  0  0  0
 40 41  1  0  0  0  0
 40 42  1  0  0  0  0
 41 44  1  0  0  0  0
 42 43  1  0  0  0  0
 44 39  1  6  0  0  0
 44 43  1  0  0  0  0
 46 45  2  0  0  0  0
 47 45  1  0  0  0  0
 49 47  1  0  0  0  0
 49 48  1  0  0  0  0
M  END
>  <MODEL>
6

>  <REMARK>
 VINA RESULT:      -6.9      1.716      2.237
  Name = 
  14 active torsions:
  status: ('A' for Active; 'I' for Inactive)
    1  A    between atoms: C_1  and  O_22
    2  A    between atoms: C_3  and  C_9
    3  A    between atoms: C_4  and  C_47
    4  A    between atoms: C_5  and  C_28
    5  A    between atoms: C_8  and  C_18
    6  A    between atoms: C_9  and  N_48
    7  A    between atoms: N_12  and  C_42
    8  A    between atoms: C_15  and  C_25
    9  A    between atoms: C_18  and  C_47
   10  A    between atoms: O_22  and  C_38
   11  A    between atoms: C_25  and  C_45
   12  A    between atoms: C_34  and  C_49
   13  A    between atoms: C_37  and  C_38
   14  A    between atoms: N_41  and  N_48
                            x       y       z     vdW  Elec       q    Type
                         _______ _______ _______ _____ _____    ______ ____

>  <TORSDO>
F 14

$$$$
=
 OpenBabel11042414083D

 49 54  0  0  1  0  0  0  0  0999 V2000
  194.1470  175.9350  144.2700 C   0  0  2  0  0  3  0  0  0  0  0  0
  194.3140  174.4140  144.2800 C   0  0  0  0  0  2  0  0  0  0  0  0
  193.0880  174.4230  146.4580 C   0  0  0  0  0  3  0  0  0  0  0  0
  193.8440  173.7650  145.5620 C   0  0  0  0  0  0  0  0  0  0  0  0
  192.7950  176.3180  144.8600 C   0  0  0  0  0  2  0  0  0  0  0  0
  192.7500  175.8890  146.3280 C   0  0  1  0  0  3  0  0  0  0  0  0
  188.4320  176.1360  146.3430 C   0  0  2  0  0  3  0  0  0  0  0  0
  190.5090  174.9100  147.0760 C   0  0  0  0  0  2  0  0  0  0  0  0
  189.2170  177.4230  146.6520 C   0  0  0  0  0  2  0  0  0  0  0  0
  190.6800  177.3270  146.2340 C   0  0  0  0  0  2  0  0  0  0  0  0
  191.3880  176.1760  146.9690 C   0  0  2  0  0  3  0  0  0  0  0  0
  189.3330  174.9210  146.1050 C   0  0  0  0  0  2  0  0  0  0  0  0
  187.5290  176.3210  145.1280 C   0  0  0  0  0  2  0  0  0  0  0  0
  186.6980  178.4180  144.3040 O   0  0  0  0  0  1  0  0  0  0  0  0
  187.8370  177.6150  144.3710 C   0  0  2  0  0  3  0  0  0  0  0  0
  188.3530  177.3410  142.9610 C   0  0  1  0  0  3  0  0  0  0  0  0
  189.7520  177.9000  142.7690 C   0  0  0  0  0  1  0  0  0  0  0  0
  188.3480  175.9730  142.6890 O   0  0  0  0  0  1  0  0  0  0  0  0
  194.2310  176.3990  142.9580 O   0  0  0  0  0  0  0  0  0  0  0  0
  196.4420  176.7940  143.4510 O   0  0  0  0  0  1  0  0  0  0  0  0
  195.5540  176.1740  142.5760 C   0  0  2  0  0  3  0  0  0  0  0  0
  194.9410  174.0400  140.5100 C   0  0  0  0  0  0  0  0  0  0  0  0
  195.5000  175.3680  140.0180 C   0  0  2  0  0  3  0  0  0  0  0  0
  195.7700  173.0190  140.7760 C   0  0  0  0  0  3  0  0  0  0  0  0
  196.9800  175.6370  140.3520 C   0  0  1  0  0  3  0  0  0  0  0  0
  197.2460  173.1540  140.6230 C   0  0  0  0  0  2  0  0  0  0  0  0
  195.8710  176.4280  141.0730 C   0  0  2  0  0  3  0  0  0  0  0  0
  197.6720  174.5140  141.1380 C   0  0  0  0  0  2  0  0  0  0  0  0
  190.8340  172.4750  139.6420 N   0  0  0  0  0  0  0  0  0  0  0  0
  191.4040  173.4320  141.9190 C   0  0  0  0  0  2  0  0  0  0  0  0
  190.4270  171.2950  141.6200 O   0  0  0  0  0  0  0  0  0  0  0  0
  191.5530  173.4840  138.9210 C   0  0  0  0  0  3  0  0  0  0  0  0
  193.4650  173.8480  140.5610 C   0  0  0  0  0  0  0  0  0  0  0  0
  190.8710  172.3360  141.0680 C   0  0  0  0  0  0  0  0  0  0  0  0
  192.8740  173.5530  141.7280 C   0  0  0  0  0  3  0  0  0  0  0  0
  192.6920  174.0700  139.3150 C   0  0  0  0  0  3  0  0  0  0  0  0
  190.6840  170.6090  138.2560 O   0  0  0  0  0  1  0  0  0  0  0  0
  189.9470  171.6200  138.8710 C   0  0  0  0  0  2  0  0  0  0  0  0
  194.0980  172.3030  145.7510 C   0  0  0  0  0  2  0  0  0  0  0  0
  195.2870  169.7150  144.0440 C   0  0  2  0  0  3  0  0  0  0  0  0
  195.1070  171.1840  143.7670 C   0  0  0  0  0  2  0  0  0  0  0  0
  194.1870  169.2930  144.9010 N   0  0  0  0  0  2  0  0  0  0  0  0
  193.1720  170.2630  144.7900 N   0  0  0  0  0  2  0  0  0  0  0  0
  193.8170  171.5260  144.4670 C   0  0  1  0  0  3  0  0  0  0  0  0
  196.6000  169.4770  144.7180 C   0  0  0  0  0  0  0  0  0  0  0  0
  197.7050  170.6900  144.7510 S   0  0  0  0  0  0  0  0  0  0  0  0
  196.8190  168.2610  145.4400 N   0  0  0  0  0  2  0  0  0  0  0  0
  196.4340  168.7100  147.6480 C   0  0  0  0  0  1  0  0  0  0  0  0
  197.4300  168.2490  146.7010 N   0  0  0  0  0  2  0  0  0  0  0  0
  1 19  1  6  0  0  0
  1  2  1  0  0  0  0
  1  5  1  0  0  0  0
  2  4  1  0  0  0  0
  4 39  1  0  0  0  0
  4  3  2  0  0  0  0
  6  5  1  6  0  0  0
  6  3  1  0  0  0  0
  6 11  1  0  0  0  0
  7 13  1  6  0  0  0
  7  9  1  0  0  0  0
 10  9  1  0  0  0  0
 11 10  1  6  0  0  0
 11  8  1  0  0  0  0
 12  7  1  0  0  0  0
 12  8  1  0  0  0  0
 15 14  1  6  0  0  0
 15 13  1  0  0  0  0
 16 17  1  1  0  0  0
 16 15  1  0  0  0  0
 18 16  1  0  0  0  0
 21 19  1  0  0  0  0
 21 20  1  1  0  0  0
 22 33  1  0  0  0  0
 22 24  2  0  0  0  0
 23 25  1  0  0  0  0
 23 22  1  1  0  0  0
 23 27  1  0  0  0  0
 25 27  1  0  0  0  0
 25 28  1  1  0  0  0
 26 24  1  0  0  0  0
 26 28  1  0  0  0  0
 27 21  1  1  0  0  0
 29 34  1  0  0  0  0
 32 36  2  0  0  0  0
 32 29  1  0  0  0  0
 33 35  2  0  0  0  0
 34 31  2  0  0  0  0
 34 30  1  0  0  0  0
 35 30  1  0  0  0  0
 36 33  1  0  0  0  0
 37 38  1  0  0  0  0
 38 29  1  0  0  0  0
 40 45  1  1  0  0  0
 40 42  1  0  0  0  0
 41 40  1  0  0  0  0
 41 44  1  0  0  0  0
 43 42  1  0  0  0  0
 44 43  1  0  0  0  0
 44 39  1  1  0  0  0
 45 46  2  0  0  0  0
 45 47  1  0  0  0  0
 47 49  1  0  0  0  0
 49 48  1  0  0  0  0
M  END
>  <MODEL>
7

>  <REMARK>
 VINA RESULT:      -6.8      3.815      8.256
  Name = 
  14 active torsions:
  status: ('A' for Active; 'I' for Inactive)
    1  A    between atoms: C_1  and  O_22
    2  A    between atoms: C_3  and  C_9
    3  A    between atoms: C_4  and  C_47
    4  A    between atoms: C_5  and  C_28
    5  A    between atoms: C_8  and  C_18
    6  A    between atoms: C_9  and  N_48
    7  A    between atoms: N_12  and  C_42
    8  A    between atoms: C_15  and  C_25
    9  A    between atoms: C_18  and  C_47
   10  A    between atoms: O_22  and  C_38
   11  A    between atoms: C_25  and  C_45
   12  A    between atoms: C_34  and  C_49
   13  A    between atoms: C_37  and  C_38
   14  A    between atoms: N_41  and  N_48
                            x       y       z     vdW  Elec       q    Type
                         _______ _______ _______ _____ _____    ______ ____

>  <TORSDO>
F 14

$$$$
=
 OpenBabel11042414083D

 49 54  0  0  1  0  0  0  0  0999 V2000
  192.5810  172.1110  144.6560 C   0  0  2  0  0  3  0  0  0  0  0  0
  191.9810  171.7820  143.2870 C   0  0  0  0  0  2  0  0  0  0  0  0
  190.0830  173.2890  143.9030 C   0  0  0  0  0  3  0  0  0  0  0  0
  190.5940  172.3500  143.0870 C   0  0  0  0  0  0  0  0  0  0  0  0
  192.3000  173.5650  145.0170 C   0  0  0  0  0  2  0  0  0  0  0  0
  190.7890  173.7630  145.1510 C   0  0  1  0  0  3  0  0  0  0  0  0
  188.0280  177.0270  145.8080 C   0  0  2  0  0  3  0  0  0  0  0  0
  189.6770  175.3870  146.7830 C   0  0  0  0  0  2  0  0  0  0  0  0
  189.0230  177.1640  144.6420 C   0  0  0  0  0  2  0  0  0  0  0  0
  189.6540  175.8300  144.2560 C   0  0  0  0  0  2  0  0  0  0  0  0
  190.4250  175.2230  145.4410 C   0  0  2  0  0  3  0  0  0  0  0  0
  188.2010  175.7280  146.6010 C   0  0  0  0  0  2  0  0  0  0  0  0
  186.5880  177.1110  145.3150 C   0  0  0  0  0  2  0  0  0  0  0  0
  184.6390  176.8390  146.6910 O   0  0  0  0  0  1  0  0  0  0  0  0
  185.6550  177.7350  146.3560 C   0  0  2  0  0  3  0  0  0  0  0  0
  185.0430  179.0420  145.8610 C   0  0  1  0  0  3  0  0  0  0  0  0
  185.5920  179.4250  144.4980 C   0  0  0  0  0  1  0  0  0  0  0  0
  183.6520  178.9470  145.8030 O   0  0  0  0  0  1  0  0  0  0  0  0
  193.9590  171.8990  144.6170 O   0  0  0  0  0  0  0  0  0  0  0  0
  193.6160  169.6530  144.9720 O   0  0  0  0  0  1  0  0  0  0  0  0
  194.1160  170.6140  144.0970 C   0  0  2  0  0  3  0  0  0  0  0  0
  195.0510  171.8400  141.4850 C   0  0  0  0  0  0  0  0  0  0  0  0
  196.0300  170.9570  142.2480 C   0  0  2  0  0  3  0  0  0  0  0  0
  194.2730  171.3110  140.5290 C   0  0  0  0  0  3  0  0  0  0  0  0
  195.7060  169.4500  142.2560 C   0  0  1  0  0  3  0  0  0  0  0  0
  194.3210  169.8590  140.2010 C   0  0  0  0  0  2  0  0  0  0  0  0
  195.5330  170.2830  143.5420 C   0  0  2  0  0  3  0  0  0  0  0  0
  194.4340  169.0660  141.4870 C   0  0  0  0  0  2  0  0  0  0  0  0
  193.9210  175.9150  142.9670 N   0  0  0  0  0  0  0  0  0  0  0  0
  196.3320  175.3550  142.4220 C   0  0  0  0  0  2  0  0  0  0  0  0
  195.6540  176.2830  144.4930 O   0  0  0  0  0  0  0  0  0  0  0  0
  193.3920  175.2230  141.8270 C   0  0  0  0  0  3  0  0  0  0  0  0
  195.0680  173.3120  141.7180 C   0  0  0  0  0  0  0  0  0  0  0  0
  195.2980  175.8660  143.3590 C   0  0  0  0  0  0  0  0  0  0  0  0
  196.1640  173.8890  142.2330 C   0  0  0  0  0  3  0  0  0  0  0  0
  193.8840  174.0960  141.2950 C   0  0  0  0  0  3  0  0  0  0  0  0
  192.1960  177.4700  142.7860 O   0  0  0  0  0  1  0  0  0  0  0  0
  193.0090  176.7860  143.6890 C   0  0  0  0  0  2  0  0  0  0  0  0
  189.8430  171.9660  141.8520 C   0  0  0  0  0  2  0  0  0  0  0  0
  189.6830  173.3760  138.8500 C   0  0  2  0  0  3  0  0  0  0  0  0
  190.2220  173.7860  140.1950 C   0  0  0  0  0  2  0  0  0  0  0  0
  188.5060  172.5500  139.0840 N   0  0  0  0  0  2  0  0  0  0  0  0
  188.0710  172.8010  140.4000 N   0  0  0  0  0  2  0  0  0  0  0  0
  189.2410  173.1930  141.1720 C   0  0  1  0  0  3  0  0  0  0  0  0
  190.7200  172.6110  138.0930 C   0  0  0  0  0  0  0  0  0  0  0  0
  191.4480  173.3240  136.8060 S   0  0  0  0  0  0  0  0  0  0  0  0
  191.1620  171.3390  138.5760 N   0  0  0  0  0  2  0  0  0  0  0  0
  190.0460  169.5740  137.6460 C   0  0  0  0  0  1  0  0  0  0  0  0
  191.3310  170.2410  137.7240 N   0  0  0  0  0  2  0  0  0  0  0  0
  1 19  1  6  0  0  0
  1  5  1  0  0  0  0
  2  1  1  0  0  0  0
  4  2  1  0  0  0  0
  4  3  2  0  0  0  0
  5  6  1  0  0  0  0
  6  3  1  6  0  0  0
  6 11  1  0  0  0  0
  7 13  1  6  0  0  0
  7 12  1  0  0  0  0
  9  7  1  0  0  0  0
 10  9  1  0  0  0  0
 11 10  1  6  0  0  0
 11  8  1  0  0  0  0
 12  8  1  0  0  0  0
 13 15  1  0  0  0  0
 15 14  1  6  0  0  0
 16 17  1  6  0  0  0
 16 15  1  0  0  0  0
 18 16  1  0  0  0  0
 21 19  1  0  0  0  0
 21 20  1  1  0  0  0
 22 33  1  0  0  0  0
 23 22  1  6  0  0  0
 23 25  1  0  0  0  0
 23 27  1  0  0  0  0
 24 22  2  0  0  0  0
 25 28  1  6  0  0  0
 25 27  1  0  0  0  0
 26 24  1  0  0  0  0
 26 28  1  0  0  0  0
 27 21  1  6  0  0  0
 29 34  1  0  0  0  0
 29 38  1  0  0  0  0
 30 34  1  0  0  0  0
 32 29  1  0  0  0  0
 33 35  2  0  0  0  0
 34 31  2  0  0  0  0
 35 30  1  0  0  0  0
 36 33  1  0  0  0  0
 36 32  2  0  0  0  0
 37 38  1  0  0  0  0
 39  4  1  0  0  0  0
 40 45  1  1  0  0  0
 40 42  1  0  0  0  0
 40 41  1  0  0  0  0
 41 44  1  0  0  0  0
 42 43  1  0  0  0  0
 43 44  1  0  0  0  0
 44 39  1  6  0  0  0
 45 47  1  0  0  0  0
 46 45  2  0  0  0  0
 48 49  1  0  0  0  0
 49 47  1  0  0  0  0
M  END
>  <MODEL>
8

>  <REMARK>
 VINA RESULT:      -6.8      2.579      7.636
  Name = 
  14 active torsions:
  status: ('A' for Active; 'I' for Inactive)
    1  A    between atoms: C_1  and  O_22
    2  A    between atoms: C_3  and  C_9
    3  A    between atoms: C_4  and  C_47
    4  A    between atoms: C_5  and  C_28
    5  A    between atoms: C_8  and  C_18
    6  A    between atoms: C_9  and  N_48
    7  A    between atoms: N_12  and  C_42
    8  A    between atoms: C_15  and  C_25
    9  A    between atoms: C_18  and  C_47
   10  A    between atoms: O_22  and  C_38
   11  A    between atoms: C_25  and  C_45
   12  A    between atoms: C_34  and  C_49
   13  A    between atoms: C_37  and  C_38
   14  A    between atoms: N_41  and  N_48
                            x       y       z     vdW  Elec       q    Type
                         _______ _______ _______ _____ _____    ______ ____

>  <TORSDO>
F 14

$$$$
=
 OpenBabel11042414083D

 49 54  0  0  1  0  0  0  0  0999 V2000
  190.0230  174.0340  141.8630 C   0  0  2  0  0  3  0  0  0  0  0  0
  189.3790  175.4210  141.8940 C   0  0  0  0  0  2  0  0  0  0  0  0
  189.7950  175.4160  144.3590 C   0  0  0  0  0  3  0  0  0  0  0  0
  189.1870  175.9640  143.2910 C   0  0  0  0  0  0  0  0  0  0  0  0
  191.1710  173.9660  142.8640 C   0  0  0  0  0  2  0  0  0  0  0  0
  190.6120  174.1490  144.2770 C   0  0  1  0  0  3  0  0  0  0  0  0
  194.5960  175.0120  145.7240 C   0  0  2  0  0  3  0  0  0  0  0  0
  192.1440  175.6020  145.7200 C   0  0  0  0  0  2  0  0  0  0  0  0
  194.1290  173.5460  145.7640 C   0  0  0  0  0  2  0  0  0  0  0  0
  192.9080  173.3000  144.8830 C   0  0  0  0  0  2  0  0  0  0  0  0
  191.7210  174.1670  145.3350 C   0  0  2  0  0  3  0  0  0  0  0  0
  193.5270  175.9730  145.1930 C   0  0  0  0  0  2  0  0  0  0  0  0
  195.8550  175.1660  144.8790 C   0  0  0  0  0  2  0  0  0  0  0  0
  195.4600  174.4520  142.6210 O   0  0  0  0  0  1  0  0  0  0  0  0
  195.5390  175.5790  143.4390 C   0  0  2  0  0  3  0  0  0  0  0  0
  196.5800  176.5450  142.8820 C   0  0  1  0  0  3  0  0  0  0  0  0
  197.9410  175.8810  142.7700 C   0  0  0  0  0  1  0  0  0  0  0  0
  196.1870  177.0340  141.6370 O   0  0  0  0  0  1  0  0  0  0  0  0
  190.5100  173.7800  140.5810 O   0  0  0  0  0  0  0  0  0  0  0  0
  188.8320  172.2550  140.9630 O   0  0  0  0  0  1  0  0  0  0  0  0
  189.9800  172.5380  140.2290 C   0  0  2  0  0  3  0  0  0  0  0  0
  191.8010  172.2060  137.8270 C   0  0  0  0  0  0  0  0  0  0  0  0
  191.9680  171.2340  138.9870 C   0  0  2  0  0  3  0  0  0  0  0  0
  191.0010  171.8930  136.7970 C   0  0  0  0  0  3  0  0  0  0  0  0
  190.8310  170.2090  139.1700 C   0  0  1  0  0  3  0  0  0  0  0  0
  190.2410  170.6120  136.7620 C   0  0  0  0  0  2  0  0  0  0  0  0
  191.0000  171.3620  140.1790 C   0  0  2  0  0  3  0  0  0  0  0  0
  189.6940  170.3270  138.1460 C   0  0  0  0  0  2  0  0  0  0  0  0
  195.3720  174.9060  137.6380 N   0  0  0  0  0  0  0  0  0  0  0  0
  193.1210  175.6670  136.7560 C   0  0  0  0  0  2  0  0  0  0  0  0
  195.1130  175.7650  135.4780 O   0  0  0  0  0  0  0  0  0  0  0  0
  194.8200  174.2690  138.7990 C   0  0  0  0  0  3  0  0  0  0  0  0
  192.6380  173.4380  137.7870 C   0  0  0  0  0  0  0  0  0  0  0  0
  194.5790  175.4460  136.5730 C   0  0  0  0  0  0  0  0  0  0  0  0
  192.4160  174.3600  136.8390 C   0  0  0  0  0  3  0  0  0  0  0  0
  193.6440  173.6300  138.8590 C   0  0  0  0  0  3  0  0  0  0  0  0
  197.2590  175.4960  138.8690 O   0  0  0  0  0  1  0  0  0  0  0  0
  196.8130  175.0910  137.6120 C   0  0  0  0  0  2  0  0  0  0  0  0
  188.4260  177.2410  143.4570 C   0  0  0  0  0  2  0  0  0  0  0  0
  185.1720  177.8920  143.5620 C   0  0  2  0  0  3  0  0  0  0  0  0
  186.0100  176.6920  143.2080 C   0  0  0  0  0  2  0  0  0  0  0  0
  185.9120  179.0780  143.1530 N   0  0  0  0  0  2  0  0  0  0  0  0
  186.8830  178.6670  142.2190 N   0  0  0  0  0  2  0  0  0  0  0  0
  187.2160  177.2840  142.5270 C   0  0  1  0  0  3  0  0  0  0  0  0
  184.9100  177.9190  145.0340 C   0  0  0  0  0  0  0  0  0  0  0  0
  183.8700  179.0400  145.6310 S   0  0  0  0  0  0  0  0  0  0  0  0
  185.4480  176.8940  145.8730 N   0  0  0  0  0  2  0  0  0  0  0  0
  186.2540  177.2900  147.9750 C   0  0  0  0  0  1  0  0  0  0  0  0
  186.6360  177.0740  146.5930 N   0  0  0  0  0  2  0  0  0  0  0  0
  1 19  1  6  0  0  0
  1  2  1  0  0  0  0
  1  5  1  0  0  0  0
  2  4  1  0  0  0  0
  4 39  1  0  0  0  0
  4  3  2  0  0  0  0
  6  5  1  6  0  0  0
  6  3  1  0  0  0  0
  6 11  1  0  0  0  0
  7 13  1  6  0  0  0
  7  9  1  0  0  0  0
 10  9  1  0  0  0  0
 11 10  1  6  0  0  0
 11  8  1  0  0  0  0
 12  8  1  0  0  0  0
 12  7  1  0  0  0  0
 15 14  1  6  0  0  0
 15 13  1  0  0  0  0
 16 17  1  6  0  0  0
 16 15  1  0  0  0  0
 18 16  1  0  0  0  0
 21 19  1  0  0  0  0
 21 20  1  1  0  0  0
 23 22  1  6  0  0  0
 23 25  1  0  0  0  0
 23 27  1  0  0  0  0
 24 22  2  0  0  0  0
 25 28  1  6  0  0  0
 25 27  1  0  0  0  0
 26 24  1  0  0  0  0
 26 28  1  0  0  0  0
 27 21  1  6  0  0  0
 29 32  1  0  0  0  0
 30 35  1  0  0  0  0
 31 34  2  0  0  0  0
 32 36  2  0  0  0  0
 33 22  1  0  0  0  0
 33 36  1  0  0  0  0
 34 30  1  0  0  0  0
 34 29  1  0  0  0  0
 35 33  2  0  0  0  0
 38 29  1  0  0  0  0
 38 37  1  0  0  0  0
 40 45  1  1  0  0  0
 41 40  1  0  0  0  0
 42 40  1  0  0  0  0
 43 44  1  0  0  0  0
 43 42  1  0  0  0  0
 44 41  1  0  0  0  0
 44 39  1  1  0  0  0
 45 46  2  0  0  0  0
 45 47  1  0  0  0  0
 47 49  1  0  0  0  0
 49 48  1  0  0  0  0
M  END
>  <MODEL>
9

>  <REMARK>
 VINA RESULT:      -6.8      3.567      8.197
  Name = 
  14 active torsions:
  status: ('A' for Active; 'I' for Inactive)
    1  A    between atoms: C_1  and  O_22
    2  A    between atoms: C_3  and  C_9
    3  A    between atoms: C_4  and  C_47
    4  A    between atoms: C_5  and  C_28
    5  A    between atoms: C_8  and  C_18
    6  A    between atoms: C_9  and  N_48
    7  A    between atoms: N_12  and  C_42
    8  A    between atoms: C_15  and  C_25
    9  A    between atoms: C_18  and  C_47
   10  A    between atoms: O_22  and  C_38
   11  A    between atoms: C_25  and  C_45
   12  A    between atoms: C_34  and  C_49
   13  A    between atoms: C_37  and  C_38
   14  A    between atoms: N_41  and  N_48
                            x       y       z     vdW  Elec       q    Type
                         _______ _______ _______ _____ _____    ______ ____

>  <TORSDO>
F 14

$$$$
