=
 OpenBabel11042418423D

 34 35  0  0  1  0  0  0  0  0999 V2000
  190.6360  173.7360  144.1560 C   0  0  0  0  0  0  0  0  0  0  0  0
  189.7560  173.6940  145.2340 C   0  0  0  0  0  3  0  0  0  0  0  0
  191.2610  172.5640  143.7470 O   0  0  0  0  0  1  0  0  0  0  0  0
  190.8830  174.9470  143.4910 C   0  0  0  0  0  0  0  0  0  0  0  0
  189.1120  174.8520  145.6550 C   0  0  0  0  0  3  0  0  0  0  0  0
  190.2510  176.1360  143.9250 C   0  0  0  0  0  0  0  0  0  0  0  0
  189.3410  176.0790  145.0160 C   0  0  0  0  0  0  0  0  0  0  0  0
  187.9870  177.1360  146.8610 C   0  0  0  0  0  1  0  0  0  0  0  0
  188.5430  177.2840  145.4520 C   0  0  2  0  0  3  0  0  0  0  0  0
  186.9430  176.5770  143.6680 C   0  0  0  0  0  3  0  0  0  0  0  0
  186.3690  178.5250  145.0980 C   0  0  0  0  0  3  0  0  0  0  0  0
  187.4690  177.7370  144.4530 C   0  0  1  0  0  3  0  0  0  0  0  0
  185.5290  177.9810  142.1600 C   0  0  0  0  0  0  0  0  0  0  0  0
  185.1840  179.0060  142.9530 C   0  0  0  0  0  3  0  0  0  0  0  0
  185.3890  179.1090  144.4110 C   0  0  0  0  0  3  0  0  0  0  0  0
  186.1150  176.7100  142.6350 C   0  0  0  0  0  3  0  0  0  0  0  0
  185.1700  178.0750  140.7190 C   0  0  0  0  0  2  0  0  0  0  0  0
  186.1850  177.5170  139.9430 O   0  0  0  0  0  1  0  0  0  0  0  0
  191.3490  178.3820  143.7440 C   0  0  0  0  0  1  0  0  0  0  0  0
  190.5480  177.3250  143.2370 O   0  0  0  0  0  0  0  0  0  0  0  0
  191.8410  174.9470  142.3320 C   0  0  2  0  0  3  0  0  0  0  0  0
  191.3050  174.2400  141.2530 O   0  0  0  0  0  1  0  0  0  0  0  0
  193.1940  174.3740  142.7380 C   0  0  0  0  0  2  0  0  0  0  0  0
  195.2740  175.1340  140.7740 C   0  0  0  0  0  1  0  0  0  0  0  0
  194.1330  175.4490  143.0340 N   0  0  0  0  0  0  0  0  0  0  0  0
  195.1500  175.8260  142.0890 C   0  0  0  0  0  0  0  0  0  0  0  0
  195.9610  176.7480  142.3660 O   0  0  0  0  0  0  0  0  0  0  0  0
  194.0800  176.0590  144.3560 C   0  0  0  0  0  2  0  0  0  0  0  0
  194.3550  175.0170  145.4250 C   0  0  0  0  0  2  0  0  0  0  0  0
  193.1710  174.9320  146.3630 C   0  0  0  0  0  2  0  0  0  0  0  0
  192.7030  176.3300  146.7110 C   0  0  0  0  0  2  0  0  0  0  0  0
  191.7070  176.2690  147.8150 C   0  0  0  0  0  0  0  0  0  0  0  0
  191.2100  177.4410  148.3700 O   0  0  0  0  0  1  0  0  0  0  0  0
  191.3000  175.1540  148.2330 O   0  0  0  0  0  0  0  0  0  0  0  0
  1  2  1  0  0  0  0
  2  5  2  0  0  0  0
  3  1  1  0  0  0  0
  4  6  1  0  0  0  0
  4  1  2  0  0  0  0
  6  7  2  0  0  0  0
  7  9  1  0  0  0  0
  7  5  1  0  0  0  0
  9  8  1  1  0  0  0
 10 12  1  0  0  0  0
 12 11  1  0  0  0  0
 12  9  1  1  0  0  0
 13 16  1  0  0  0  0
 13 14  2  0  0  0  0
 14 15  1  0  0  0  0
 15 11  2  0  0  0  0
 16 10  2  0  0  0  0
 17 13  1  0  0  0  0
 18 17  1  0  0  0  0
 20 19  1  0  0  0  0
 20  6  1  0  0  0  0
 21 22  1  6  0  0  0
 21 23  1  0  0  0  0
 21  4  1  0  0  0  0
 23 25  1  0  0  0  0
 24 26  1  0  0  0  0
 25 28  1  0  0  0  0
 26 27  2  0  0  0  0
 26 25  1  0  0  0  0
 28 29  1  0  0  0  0
 29 30  1  0  0  0  0
 30 31  1  0  0  0  0
 31 32  1  0  0  0  0
 32 34  2  0  0  0  0
 32 33  1  0  0  0  0
M  END
>  <MODEL>
1

>  <REMARK>
 VINA RESULT:      -6.5      0.000      0.000
  Name = 
  12 active torsions:
  status: ('A' for Active; 'I' for Inactive)
    1  A    between atoms: C_2  and  C_5
    2  A    between atoms: C_2  and  C_10
    3  A    between atoms: C_6  and  C_7
    4  A    between atoms: C_6  and  N_19
    5  A    between atoms: C_7  and  C_21
    6  A    between atoms: C_9  and  C_17
    7  A    between atoms: C_10  and  C_27
    8  A    between atoms: C_15  and  C_32
    9  A    between atoms: N_19  and  C_23
   10  A    between atoms: C_23  and  C_27
   11  A    between atoms: O_25  and  C_30
   12  A    between atoms: C_31  and  C_32
                            x       y       z     vdW  Elec       q    Type
                         _______ _______ _______ _____ _____    ______ ____

>  <TORSDO>
F 12

$$$$
=
 OpenBabel11042418423D

 34 35  0  0  1  0  0  0  0  0999 V2000
  191.5690  176.7140  143.0830 C   0  0  0  0  0  0  0  0  0  0  0  0
  190.9110  177.9090  142.8090 C   0  0  0  0  0  3  0  0  0  0  0  0
  192.9340  176.7380  143.3480 O   0  0  0  0  0  1  0  0  0  0  0  0
  190.8610  175.5030  143.0940 C   0  0  0  0  0  0  0  0  0  0  0  0
  189.5440  177.9110  142.5510 C   0  0  0  0  0  3  0  0  0  0  0  0
  189.4750  175.4890  142.8080 C   0  0  0  0  0  0  0  0  0  0  0  0
  188.8090  176.7180  142.5470 C   0  0  0  0  0  0  0  0  0  0  0  0
  186.9250  177.3010  140.9770 C   0  0  0  0  0  1  0  0  0  0  0  0
  187.3130  176.7880  142.3560 C   0  0  2  0  0  3  0  0  0  0  0  0
  187.3300  177.4820  144.7560 C   0  0  0  0  0  3  0  0  0  0  0  0
  186.1580  178.9120  143.0980 C   0  0  0  0  0  3  0  0  0  0  0  0
  186.5570  177.5180  143.4760 C   0  0  1  0  0  3  0  0  0  0  0  0
  185.5200  178.5440  146.1130 C   0  0  0  0  0  0  0  0  0  0  0  0
  184.9220  179.3490  145.2230 C   0  0  0  0  0  3  0  0  0  0  0  0
  185.4030  179.6910  143.8700 C   0  0  0  0  0  3  0  0  0  0  0  0
  186.8390  177.9070  145.9180 C   0  0  0  0  0  3  0  0  0  0  0  0
  184.8740  178.3900  147.4450 C   0  0  0  0  0  2  0  0  0  0  0  0
  185.7880  177.8580  148.3530 O   0  0  0  0  0  1  0  0  0  0  0  0
  188.2740  173.6080  141.6670 C   0  0  0  0  0  1  0  0  0  0  0  0
  188.8170  174.2470  142.8130 O   0  0  0  0  0  0  0  0  0  0  0  0
  191.6110  174.2350  143.3930 C   0  0  2  0  0  3  0  0  0  0  0  0
  191.4930  173.3330  142.3330 O   0  0  0  0  0  1  0  0  0  0  0  0
  191.1290  173.6060  144.6950 C   0  0  0  0  0  2  0  0  0  0  0  0
  189.2220  174.8900  146.5600 C   0  0  0  0  0  1  0  0  0  0  0  0
  191.6130  174.3690  145.8380 N   0  0  0  0  0  0  0  0  0  0  0  0
  190.6970  175.0000  146.7510 C   0  0  0  0  0  0  0  0  0  0  0  0
  191.1320  175.6660  147.7270 O   0  0  0  0  0  0  0  0  0  0  0  0
  193.0510  174.5640  145.9720 C   0  0  0  0  0  2  0  0  0  0  0  0
  193.7800  173.2530  145.7410 C   0  0  0  0  0  2  0  0  0  0  0  0
  195.2280  173.5340  145.4050 C   0  0  0  0  0  2  0  0  0  0  0  0
  195.4700  175.0290  145.4300 C   0  0  0  0  0  2  0  0  0  0  0  0
  196.1730  175.4470  144.1870 C   0  0  0  0  0  0  0  0  0  0  0  0
  196.2330  176.7910  143.8400 O   0  0  0  0  0  1  0  0  0  0  0  0
  196.7320  174.5850  143.4610 O   0  0  0  0  0  0  0  0  0  0  0  0
  1  4  1  0  0  0  0
  1  3  1  0  0  0  0
  2  1  2  0  0  0  0
  4 21  1  0  0  0  0
  5  2  1  0  0  0  0
  6 20  1  0  0  0  0
  6  4  2  0  0  0  0
  7  5  2  0  0  0  0
  7  6  1  0  0  0  0
  9  8  1  6  0  0  0
  9  7  1  0  0  0  0
 10 16  2  0  0  0  0
 11 12  1  0  0  0  0
 11 15  2  0  0  0  0
 12  9  1  6  0  0  0
 12 10  1  0  0  0  0
 13 17  1  0  0  0  0
 14 13  2  0  0  0  0
 15 14  1  0  0  0  0
 16 13  1  0  0  0  0
 17 18  1  0  0  0  0
 19 20  1  0  0  0  0
 21 22  1  6  0  0  0
 21 23  1  0  0  0  0
 23 25  1  0  0  0  0
 24 26  1  0  0  0  0
 25 28  1  0  0  0  0
 25 26  1  0  0  0  0
 26 27  2  0  0  0  0
 29 28  1  0  0  0  0
 30 31  1  0  0  0  0
 30 29  1  0  0  0  0
 32 31  1  0  0  0  0
 33 32  1  0  0  0  0
 34 32  2  0  0  0  0
M  END
>  <MODEL>
2

>  <REMARK>
 VINA RESULT:      -6.4      2.012      4.518
  Name = 
  12 active torsions:
  status: ('A' for Active; 'I' for Inactive)
    1  A    between atoms: C_2  and  C_5
    2  A    between atoms: C_2  and  C_10
    3  A    between atoms: C_6  and  C_7
    4  A    between atoms: C_6  and  N_19
    5  A    between atoms: C_7  and  C_21
    6  A    between atoms: C_9  and  C_17
    7  A    between atoms: C_10  and  C_27
    8  A    between atoms: C_15  and  C_32
    9  A    between atoms: N_19  and  C_23
   10  A    between atoms: C_23  and  C_27
   11  A    between atoms: O_25  and  C_30
   12  A    between atoms: C_31  and  C_32
                            x       y       z     vdW  Elec       q    Type
                         _______ _______ _______ _____ _____    ______ ____

>  <TORSDO>
F 12

$$$$
=
 OpenBabel11042418423D

 34 35  0  0  1  0  0  0  0  0999 V2000
  191.7720  176.6510  143.0850 C   0  0  0  0  0  0  0  0  0  0  0  0
  191.1870  177.9140  143.0980 C   0  0  0  0  0  3  0  0  0  0  0  0
  193.1560  176.5460  143.1460 O   0  0  0  0  0  1  0  0  0  0  0  0
  190.9700  175.5010  143.0150 C   0  0  0  0  0  0  0  0  0  0  0  0
  189.8030  178.0450  143.0480 C   0  0  0  0  0  3  0  0  0  0  0  0
  189.5620  175.6220  142.9400 C   0  0  0  0  0  0  0  0  0  0  0  0
  188.9750  176.9160  142.9710 C   0  0  0  0  0  0  0  0  0  0  0  0
  186.9810  178.0630  141.9380 C   0  0  0  0  0  1  0  0  0  0  0  0
  187.4790  177.1110  143.0160 C   0  0  2  0  0  3  0  0  0  0  0  0
  186.3430  178.8480  144.4080 C   0  0  0  0  0  3  0  0  0  0  0  0
  185.9480  176.4500  144.9170 C   0  0  0  0  0  3  0  0  0  0  0  0
  186.9200  177.4670  144.4020 C   0  0  1  0  0  3  0  0  0  0  0  0
  185.8910  178.8650  146.8660 C   0  0  0  0  0  0  0  0  0  0  0  0
  185.6330  177.5750  147.1240 C   0  0  0  0  0  3  0  0  0  0  0  0
  185.4190  176.4960  146.1380 C   0  0  0  0  0  3  0  0  0  0  0  0
  185.9280  179.4610  145.5140 C   0  0  0  0  0  3  0  0  0  0  0  0
  186.0140  179.7880  148.0270 C   0  0  0  0  0  2  0  0  0  0  0  0
  187.1460  179.4600  148.7720 O   0  0  0  0  0  1  0  0  0  0  0  0
  188.0510  174.0380  141.7190 C   0  0  0  0  0  1  0  0  0  0  0  0
  188.8070  174.4400  142.8520 O   0  0  0  0  0  0  0  0  0  0  0  0
  191.6420  174.1570  143.0030 C   0  0  2  0  0  3  0  0  0  0  0  0
  191.1380  173.3660  141.9680 O   0  0  0  0  0  1  0  0  0  0  0  0
  191.4890  173.4540  144.3470 C   0  0  0  0  0  2  0  0  0  0  0  0
  192.7700  170.7900  144.2000 C   0  0  0  0  0  1  0  0  0  0  0  0
  192.7940  173.2270  144.9550 N   0  0  0  0  0  0  0  0  0  0  0  0
  193.4270  171.9370  144.8920 C   0  0  0  0  0  0  0  0  0  0  0  0
  194.5490  171.7540  145.4330 O   0  0  0  0  0  0  0  0  0  0  0  0
  193.3920  174.3150  145.7170 C   0  0  0  0  0  2  0  0  0  0  0  0
  192.4710  174.7280  146.8500 C   0  0  0  0  0  2  0  0  0  0  0  0
  192.1480  176.2000  146.7250 C   0  0  0  0  0  2  0  0  0  0  0  0
  190.9910  176.5420  147.6420 C   0  0  0  0  0  2  0  0  0  0  0  0
  189.7370  176.6620  146.8510 C   0  0  0  0  0  0  0  0  0  0  0  0
  189.0680  175.5200  146.4290 O   0  0  0  0  0  0  0  0  0  0  0  0
  189.2710  177.7990  146.5800 O   0  0  0  0  0  1  0  0  0  0  0  0
  1  2  1  0  0  0  0
  1  3  1  0  0  0  0
  4  1  2  0  0  0  0
  5  2  2  0  0  0  0
  6  7  2  0  0  0  0
  6  4  1  0  0  0  0
  7  9  1  0  0  0  0
  7  5  1  0  0  0  0
  9  8  1  6  0  0  0
 10 16  2  0  0  0  0
 11 15  2  0  0  0  0
 12  9  1  6  0  0  0
 12 10  1  0  0  0  0
 12 11  1  0  0  0  0
 13 14  2  0  0  0  0
 13 17  1  0  0  0  0
 15 14  1  0  0  0  0
 16 13  1  0  0  0  0
 17 18  1  0  0  0  0
 19 20  1  0  0  0  0
 20  6  1  0  0  0  0
 21 22  1  6  0  0  0
 21  4  1  0  0  0  0
 21 23  1  0  0  0  0
 23 25  1  0  0  0  0
 24 26  1  0  0  0  0
 25 28  1  0  0  0  0
 26 25  1  0  0  0  0
 26 27  2  0  0  0  0
 28 29  1  0  0  0  0
 30 29  1  0  0  0  0
 30 31  1  0  0  0  0
 32 31  1  0  0  0  0
 33 32  2  0  0  0  0
 34 32  1  0  0  0  0
M  END
>  <MODEL>
3

>  <REMARK>
 VINA RESULT:      -6.3      2.218      4.001
  Name = 
  12 active torsions:
  status: ('A' for Active; 'I' for Inactive)
    1  A    between atoms: C_2  and  C_5
    2  A    between atoms: C_2  and  C_10
    3  A    between atoms: C_6  and  C_7
    4  A    between atoms: C_6  and  N_19
    5  A    between atoms: C_7  and  C_21
    6  A    between atoms: C_9  and  C_17
    7  A    between atoms: C_10  and  C_27
    8  A    between atoms: C_15  and  C_32
    9  A    between atoms: N_19  and  C_23
   10  A    between atoms: C_23  and  C_27
   11  A    between atoms: O_25  and  C_30
   12  A    between atoms: C_31  and  C_32
                            x       y       z     vdW  Elec       q    Type
                         _______ _______ _______ _____ _____    ______ ____

>  <TORSDO>
F 12

$$$$
=
 OpenBabel11042418423D

 34 35  0  0  1  0  0  0  0  0999 V2000
  190.0990  173.1160  143.8250 C   0  0  0  0  0  0  0  0  0  0  0  0
  189.7530  173.2020  145.1700 C   0  0  0  0  0  3  0  0  0  0  0  0
  190.2630  171.8630  143.2460 O   0  0  0  0  0  1  0  0  0  0  0  0
  190.2760  174.2820  143.0650 C   0  0  0  0  0  0  0  0  0  0  0  0
  189.5750  174.4440  145.7690 C   0  0  0  0  0  3  0  0  0  0  0  0
  190.1210  175.5520  143.6680 C   0  0  0  0  0  0  0  0  0  0  0  0
  189.7500  175.6280  145.0390 C   0  0  0  0  0  0  0  0  0  0  0  0
  190.1340  177.0790  147.0640 C   0  0  0  0  0  1  0  0  0  0  0  0
  189.4500  176.9460  145.7110 C   0  0  2  0  0  3  0  0  0  0  0  0
  187.2530  176.9120  144.5220 C   0  0  0  0  0  3  0  0  0  0  0  0
  187.2830  176.7540  147.0000 C   0  0  0  0  0  3  0  0  0  0  0  0
  187.9590  177.3050  145.7810 C   0  0  1  0  0  3  0  0  0  0  0  0
  185.0800  177.9590  145.1760 C   0  0  0  0  0  0  0  0  0  0  0  0
  185.0820  177.8270  146.5100 C   0  0  0  0  0  3  0  0  0  0  0  0
  186.0210  177.0280  147.3230 C   0  0  0  0  0  3  0  0  0  0  0  0
  185.9910  177.2440  144.2590 C   0  0  0  0  0  3  0  0  0  0  0  0
  183.9960  178.7770  144.5670 C   0  0  0  0  0  2  0  0  0  0  0  0
  183.9700  178.5740  143.1880 O   0  0  0  0  0  1  0  0  0  0  0  0
  191.4410  177.5670  142.9700 C   0  0  0  0  0  1  0  0  0  0  0  0
  190.3290  176.6890  142.8670 O   0  0  0  0  0  0  0  0  0  0  0  0
  190.6510  174.1450  141.6150 C   0  0  2  0  0  3  0  0  0  0  0  0
  189.6190  173.5360  140.8980 O   0  0  0  0  0  1  0  0  0  0  0  0
  191.9540  173.3690  141.4560 C   0  0  0  0  0  2  0  0  0  0  0  0
  193.1300  174.2210  138.8770 C   0  0  0  0  0  1  0  0  0  0  0  0
  193.0890  174.2830  141.4280 N   0  0  0  0  0  0  0  0  0  0  0  0
  193.6720  174.7020  140.1810 C   0  0  0  0  0  0  0  0  0  0  0  0
  194.6600  175.4820  140.1740 O   0  0  0  0  0  0  0  0  0  0  0  0
  193.6840  174.6760  142.6980 C   0  0  0  0  0  2  0  0  0  0  0  0
  193.8710  173.4600  143.5870 C   0  0  0  0  0  2  0  0  0  0  0  0
  193.4700  173.8050  145.0040 C   0  0  0  0  0  2  0  0  0  0  0  0
  193.4420  175.3110  145.1670 C   0  0  0  0  0  2  0  0  0  0  0  0
  194.5000  175.7350  146.1230 C   0  0  0  0  0  0  0  0  0  0  0  0
  195.6410  174.9600  146.2880 O   0  0  0  0  0  0  0  0  0  0  0  0
  194.3710  176.8070  146.7680 O   0  0  0  0  0  1  0  0  0  0  0  0
  1  2  1  0  0  0  0
  2  5  2  0  0  0  0
  3  1  1  0  0  0  0
  4  6  1  0  0  0  0
  4  1  2  0  0  0  0
  6  7  2  0  0  0  0
  7  9  1  0  0  0  0
  7  5  1  0  0  0  0
  9  8  1  1  0  0  0
 10 12  1  0  0  0  0
 11 15  2  0  0  0  0
 12  9  1  6  0  0  0
 12 11  1  0  0  0  0
 13 14  2  0  0  0  0
 14 15  1  0  0  0  0
 16 10  2  0  0  0  0
 16 13  1  0  0  0  0
 17 13  1  0  0  0  0
 18 17  1  0  0  0  0
 20 19  1  0  0  0  0
 20  6  1  0  0  0  0
 21 22  1  6  0  0  0
 21  4  1  0  0  0  0
 23 21  1  0  0  0  0
 24 26  1  0  0  0  0
 25 23  1  0  0  0  0
 25 28  1  0  0  0  0
 26 25  1  0  0  0  0
 27 26  2  0  0  0  0
 28 29  1  0  0  0  0
 29 30  1  0  0  0  0
 30 31  1  0  0  0  0
 31 32  1  0  0  0  0
 32 33  2  0  0  0  0
 32 34  1  0  0  0  0
M  END
>  <MODEL>
4

>  <REMARK>
 VINA RESULT:      -6.3      1.893      2.478
  Name = 
  12 active torsions:
  status: ('A' for Active; 'I' for Inactive)
    1  A    between atoms: C_2  and  C_5
    2  A    between atoms: C_2  and  C_10
    3  A    between atoms: C_6  and  C_7
    4  A    between atoms: C_6  and  N_19
    5  A    between atoms: C_7  and  C_21
    6  A    between atoms: C_9  and  C_17
    7  A    between atoms: C_10  and  C_27
    8  A    between atoms: C_15  and  C_32
    9  A    between atoms: N_19  and  C_23
   10  A    between atoms: C_23  and  C_27
   11  A    between atoms: O_25  and  C_30
   12  A    between atoms: C_31  and  C_32
                            x       y       z     vdW  Elec       q    Type
                         _______ _______ _______ _____ _____    ______ ____

>  <TORSDO>
F 12

$$$$
=
 OpenBabel11042418423D

 34 35  0  0  1  0  0  0  0  0999 V2000
  191.8180  176.9650  143.7110 C   0  0  0  0  0  0  0  0  0  0  0  0
  190.4960  177.2630  143.3920 C   0  0  0  0  0  3  0  0  0  0  0  0
  192.7940  177.0850  142.7290 O   0  0  0  0  0  1  0  0  0  0  0  0
  192.1560  176.5530  145.0090 C   0  0  0  0  0  0  0  0  0  0  0  0
  189.5030  177.1600  144.3600 C   0  0  0  0  0  3  0  0  0  0  0  0
  191.1510  176.4210  145.9960 C   0  0  0  0  0  0  0  0  0  0  0  0
  189.8070  176.7450  145.6650 C   0  0  0  0  0  0  0  0  0  0  0  0
  188.4060  175.3490  147.2280 C   0  0  0  0  0  1  0  0  0  0  0  0
  188.7080  176.7440  146.6990 C   0  0  2  0  0  3  0  0  0  0  0  0
  186.4570  176.5630  145.6320 C   0  0  0  0  0  3  0  0  0  0  0  0
  186.8130  178.2590  147.4100 C   0  0  0  0  0  3  0  0  0  0  0  0
  187.4330  177.4910  146.2830 C   0  0  1  0  0  3  0  0  0  0  0  0
  184.8450  178.3700  145.0120 C   0  0  0  0  0  0  0  0  0  0  0  0
  185.0100  179.2590  146.0020 C   0  0  0  0  0  3  0  0  0  0  0  0
  185.7640  179.0650  147.2560 C   0  0  0  0  0  3  0  0  0  0  0  0
  185.3370  176.9760  145.0440 C   0  0  0  0  0  3  0  0  0  0  0  0
  183.9920  178.7700  143.8610 C   0  0  0  0  0  2  0  0  0  0  0  0
  184.2870  177.9740  142.7550 O   0  0  0  0  0  1  0  0  0  0  0  0
  191.6730  176.8230  148.4150 C   0  0  0  0  0  1  0  0  0  0  0  0
  191.5410  175.9870  147.2750 O   0  0  0  0  0  0  0  0  0  0  0  0
  193.5960  176.2400  145.3110 C   0  0  2  0  0  3  0  0  0  0  0  0
  194.3590  177.4090  145.3230 O   0  0  0  0  0  1  0  0  0  0  0  0
  194.1590  175.2350  144.3130 C   0  0  0  0  0  2  0  0  0  0  0  0
  196.6210  174.0160  145.4160 C   0  0  0  0  0  1  0  0  0  0  0  0
  194.1310  173.8900  144.8750 N   0  0  0  0  0  0  0  0  0  0  0  0
  195.3210  173.2860  145.4120 C   0  0  0  0  0  0  0  0  0  0  0  0
  195.2820  172.1180  145.8820 O   0  0  0  0  0  0  0  0  0  0  0  0
  192.8880  173.1360  144.7820 C   0  0  0  0  0  2  0  0  0  0  0  0
  192.2710  173.3100  143.4070 C   0  0  0  0  0  2  0  0  0  0  0  0
  190.7650  173.3720  143.5340 C   0  0  0  0  0  2  0  0  0  0  0  0
  190.1680  173.8600  142.2300 C   0  0  0  0  0  2  0  0  0  0  0  0
  188.6870  173.7280  142.2710 C   0  0  0  0  0  0  0  0  0  0  0  0
  188.0990  172.4710  142.2450 O   0  0  0  0  0  0  0  0  0  0  0  0
  187.9670  174.7570  142.3500 O   0  0  0  0  0  1  0  0  0  0  0  0
  1  4  1  0  0  0  0
  2  1  2  0  0  0  0
  2  5  1  0  0  0  0
  3  1  1  0  0  0  0
  4 21  1  0  0  0  0
  4  6  2  0  0  0  0
  5  7  2  0  0  0  0
  6 20  1  0  0  0  0
  7  6  1  0  0  0  0
  7  9  1  0  0  0  0
  9  8  1  6  0  0  0
 10 12  1  0  0  0  0
 12  9  1  1  0  0  0
 12 11  1  0  0  0  0
 13 16  1  0  0  0  0
 13 14  2  0  0  0  0
 14 15  1  0  0  0  0
 15 11  2  0  0  0  0
 16 10  2  0  0  0  0
 17 13  1  0  0  0  0
 18 17  1  0  0  0  0
 20 19  1  0  0  0  0
 21 22  1  6  0  0  0
 23 25  1  0  0  0  0
 23 21  1  0  0  0  0
 25 26  1  0  0  0  0
 26 24  1  0  0  0  0
 26 27  2  0  0  0  0
 28 25  1  0  0  0  0
 29 30  1  0  0  0  0
 29 28  1  0  0  0  0
 31 32  1  0  0  0  0
 31 30  1  0  0  0  0
 32 34  1  0  0  0  0
 33 32  2  0  0  0  0
M  END
>  <MODEL>
5

>  <REMARK>
 VINA RESULT:      -6.3      2.123      4.062
  Name = 
  12 active torsions:
  status: ('A' for Active; 'I' for Inactive)
    1  A    between atoms: C_2  and  C_5
    2  A    between atoms: C_2  and  C_10
    3  A    between atoms: C_6  and  C_7
    4  A    between atoms: C_6  and  N_19
    5  A    between atoms: C_7  and  C_21
    6  A    between atoms: C_9  and  C_17
    7  A    between atoms: C_10  and  C_27
    8  A    between atoms: C_15  and  C_32
    9  A    between atoms: N_19  and  C_23
   10  A    between atoms: C_23  and  C_27
   11  A    between atoms: O_25  and  C_30
   12  A    between atoms: C_31  and  C_32
                            x       y       z     vdW  Elec       q    Type
                         _______ _______ _______ _____ _____    ______ ____

>  <TORSDO>
F 12

$$$$
=
 OpenBabel11042418423D

 34 35  0  0  1  0  0  0  0  0999 V2000
  189.7580  177.7760  142.9260 C   0  0  0  0  0  0  0  0  0  0  0  0
  191.1310  177.9240  143.1040 C   0  0  0  0  0  3  0  0  0  0  0  0
  189.1290  178.4780  141.9040 O   0  0  0  0  0  1  0  0  0  0  0  0
  189.0240  176.9260  143.7660 C   0  0  0  0  0  0  0  0  0  0  0  0
  191.7840  177.2250  144.1120 C   0  0  0  0  0  3  0  0  0  0  0  0
  189.6740  176.2270  144.8110 C   0  0  0  0  0  0  0  0  0  0  0  0
  191.0790  176.3720  144.9730 C   0  0  0  0  0  0  0  0  0  0  0  0
  192.1040  176.3340  147.2760 C   0  0  0  0  0  1  0  0  0  0  0  0
  191.8520  175.5650  145.9870 C   0  0  2  0  0  3  0  0  0  0  0  0
  194.3360  175.3950  146.1900 C   0  0  0  0  0  3  0  0  0  0  0  0
  193.0530  173.4140  145.4160 C   0  0  0  0  0  3  0  0  0  0  0  0
  193.1320  174.9110  145.4460 C   0  0  1  0  0  3  0  0  0  0  0  0
  195.9700  174.2110  144.7160 C   0  0  0  0  0  0  0  0  0  0  0  0
  195.2880  173.1200  144.3400 C   0  0  0  0  0  3  0  0  0  0  0  0
  194.0020  172.6430  144.8880 C   0  0  0  0  0  3  0  0  0  0  0  0
  195.5830  175.1040  145.8280 C   0  0  0  0  0  3  0  0  0  0  0  0
  197.2810  174.4630  144.0570 C   0  0  0  0  0  2  0  0  0  0  0  0
  197.2640  175.7120  143.4380 O   0  0  0  0  0  1  0  0  0  0  0  0
  188.4920  175.7190  146.9630 C   0  0  0  0  0  1  0  0  0  0  0  0
  188.8890  175.4030  145.6360 O   0  0  0  0  0  0  0  0  0  0  0  0
  187.5430  176.7950  143.5400 C   0  0  2  0  0  3  0  0  0  0  0  0
  187.2720  175.7380  142.6690 O   0  0  0  0  0  1  0  0  0  0  0  0
  186.9520  178.0980  143.0120 C   0  0  0  0  0  2  0  0  0  0  0  0
  186.2500  177.9280  140.1410 C   0  0  0  0  0  1  0  0  0  0  0  0
  185.5680  177.8980  142.6000 N   0  0  0  0  0  0  0  0  0  0  0  0
  185.2140  177.8160  141.2080 C   0  0  0  0  0  0  0  0  0  0  0  0
  184.0120  177.6550  140.8690 O   0  0  0  0  0  0  0  0  0  0  0  0
  184.5410  177.8880  143.6330 C   0  0  0  0  0  2  0  0  0  0  0  0
  184.4890  179.2340  144.3320 C   0  0  0  0  0  2  0  0  0  0  0  0
  184.0620  179.0390  145.7700 C   0  0  0  0  0  2  0  0  0  0  0  0
  184.7730  177.8320  146.3470 C   0  0  0  0  0  2  0  0  0  0  0  0
  185.5920  178.2410  147.5200 C   0  0  0  0  0  0  0  0  0  0  0  0
  185.9540  179.5710  147.6870 O   0  0  0  0  0  0  0  0  0  0  0  0
  185.9400  177.3830  148.3730 O   0  0  0  0  0  1  0  0  0  0  0  0
  1  2  2  0  0  0  0
  1  4  1  0  0  0  0
  2  5  1  0  0  0  0
  3  1  1  0  0  0  0
  4  6  2  0  0  0  0
  5  7  2  0  0  0  0
  6  7  1  0  0  0  0
  6 20  1  0  0  0  0
  7  9  1  0  0  0  0
  9  8  1  1  0  0  0
 11 12  1  0  0  0  0
 12  9  1  1  0  0  0
 12 10  1  0  0  0  0
 13 16  1  0  0  0  0
 14 13  2  0  0  0  0
 14 15  1  0  0  0  0
 15 11  2  0  0  0  0
 16 10  2  0  0  0  0
 17 13  1  0  0  0  0
 18 17  1  0  0  0  0
 20 19  1  0  0  0  0
 21 22  1  6  0  0  0
 21  4  1  0  0  0  0
 23 21  1  0  0  0  0
 24 26  1  0  0  0  0
 25 23  1  0  0  0  0
 25 28  1  0  0  0  0
 26 25  1  0  0  0  0
 27 26  2  0  0  0  0
 28 29  1  0  0  0  0
 29 30  1  0  0  0  0
 30 31  1  0  0  0  0
 31 32  1  0  0  0  0
 32 33  2  0  0  0  0
 32 34  1  0  0  0  0
M  END
>  <MODEL>
6

>  <REMARK>
 VINA RESULT:      -6.2      2.718      7.957
  Name = 
  12 active torsions:
  status: ('A' for Active; 'I' for Inactive)
    1  A    between atoms: C_2  and  C_5
    2  A    between atoms: C_2  and  C_10
    3  A    between atoms: C_6  and  C_7
    4  A    between atoms: C_6  and  N_19
    5  A    between atoms: C_7  and  C_21
    6  A    between atoms: C_9  and  C_17
    7  A    between atoms: C_10  and  C_27
    8  A    between atoms: C_15  and  C_32
    9  A    between atoms: N_19  and  C_23
   10  A    between atoms: C_23  and  C_27
   11  A    between atoms: O_25  and  C_30
   12  A    between atoms: C_31  and  C_32
                            x       y       z     vdW  Elec       q    Type
                         _______ _______ _______ _____ _____    ______ ____

>  <TORSDO>
F 12

$$$$
=
 OpenBabel11042418423D

 34 35  0  0  1  0  0  0  0  0999 V2000
  191.6250  176.5180  142.8250 C   0  0  0  0  0  0  0  0  0  0  0  0
  190.9570  177.7070  143.1030 C   0  0  0  0  0  3  0  0  0  0  0  0
  192.9900  176.4350  143.0710 O   0  0  0  0  0  1  0  0  0  0  0  0
  190.9240  175.4180  142.3060 C   0  0  0  0  0  0  0  0  0  0  0  0
  189.5890  177.8100  142.8750 C   0  0  0  0  0  3  0  0  0  0  0  0
  189.5370  175.5190  142.0460 C   0  0  0  0  0  0  0  0  0  0  0  0
  188.8610  176.7320  142.3510 C   0  0  0  0  0  0  0  0  0  0  0  0
  186.9520  177.4510  140.8700 C   0  0  0  0  0  1  0  0  0  0  0  0
  187.3640  176.8670  142.2140 C   0  0  2  0  0  3  0  0  0  0  0  0
  187.5030  177.4910  144.6280 C   0  0  0  0  0  3  0  0  0  0  0  0
  186.2840  178.9880  143.0670 C   0  0  0  0  0  3  0  0  0  0  0  0
  186.6730  177.5770  143.3870 C   0  0  1  0  0  3  0  0  0  0  0  0
  185.7760  178.5440  146.0960 C   0  0  0  0  0  0  0  0  0  0  0  0
  185.1540  179.3850  145.2580 C   0  0  0  0  0  3  0  0  0  0  0  0
  185.5800  179.7580  143.8940 C   0  0  0  0  0  3  0  0  0  0  0  0
  187.0730  177.8910  145.8230 C   0  0  0  0  0  3  0  0  0  0  0  0
  185.1890  178.3630  147.4520 C   0  0  0  0  0  2  0  0  0  0  0  0
  185.9340  177.4280  148.1680 O   0  0  0  0  0  1  0  0  0  0  0  0
  188.5570  174.2220  140.1380 C   0  0  0  0  0  1  0  0  0  0  0  0
  188.8870  174.3950  141.5090 O   0  0  0  0  0  0  0  0  0  0  0  0
  191.6850  174.1530  142.0180 C   0  0  2  0  0  3  0  0  0  0  0  0
  191.7390  173.9160  140.6430 O   0  0  0  0  0  1  0  0  0  0  0  0
  191.0700  172.9650  142.7490 C   0  0  0  0  0  2  0  0  0  0  0  0
  193.0050  170.7260  142.7780 C   0  0  0  0  0  1  0  0  0  0  0  0
  191.8300  172.6610  143.9550 N   0  0  0  0  0  0  0  0  0  0  0  0
  192.7720  171.5740  143.9830 C   0  0  0  0  0  0  0  0  0  0  0  0
  193.4120  171.3170  145.0360 O   0  0  0  0  0  0  0  0  0  0  0  0
  191.5340  173.4220  145.1610 C   0  0  0  0  0  2  0  0  0  0  0  0
  190.0340  173.4880  145.3830 C   0  0  0  0  0  2  0  0  0  0  0  0
  189.6390  174.9040  145.7390 C   0  0  0  0  0  2  0  0  0  0  0  0
  189.9120  175.1500  147.2080 C   0  0  0  0  0  2  0  0  0  0  0  0
  190.7090  176.3960  147.3720 C   0  0  0  0  0  0  0  0  0  0  0  0
  190.0680  177.6050  147.6120 O   0  0  0  0  0  1  0  0  0  0  0  0
  191.9650  176.3520  147.3130 O   0  0  0  0  0  0  0  0  0  0  0  0
  1  3  1  0  0  0  0
  1  2  1  0  0  0  0
  4  1  2  0  0  0  0
  5  2  2  0  0  0  0
  6  4  1  0  0  0  0
  6  7  2  0  0  0  0
  7  5  1  0  0  0  0
  9  8  1  6  0  0  0
  9  7  1  0  0  0  0
 10 16  2  0  0  0  0
 11 12  1  0  0  0  0
 11 15  2  0  0  0  0
 12  9  1  6  0  0  0
 12 10  1  0  0  0  0
 13 17  1  0  0  0  0
 14 13  2  0  0  0  0
 15 14  1  0  0  0  0
 16 13  1  0  0  0  0
 17 18  1  0  0  0  0
 19 20  1  0  0  0  0
 20  6  1  0  0  0  0
 21 22  1  6  0  0  0
 21  4  1  0  0  0  0
 21 23  1  0  0  0  0
 23 25  1  0  0  0  0
 24 26  1  0  0  0  0
 25 26  1  0  0  0  0
 25 28  1  0  0  0  0
 26 27  2  0  0  0  0
 28 29  1  0  0  0  0
 29 30  1  0  0  0  0
 30 31  1  0  0  0  0
 31 32  1  0  0  0  0
 32 33  1  0  0  0  0
 34 32  2  0  0  0  0
M  END
>  <MODEL>
7

>  <REMARK>
 VINA RESULT:      -6.1      2.126      3.922
  Name = 
  12 active torsions:
  status: ('A' for Active; 'I' for Inactive)
    1  A    between atoms: C_2  and  C_5
    2  A    between atoms: C_2  and  C_10
    3  A    between atoms: C_6  and  C_7
    4  A    between atoms: C_6  and  N_19
    5  A    between atoms: C_7  and  C_21
    6  A    between atoms: C_9  and  C_17
    7  A    between atoms: C_10  and  C_27
    8  A    between atoms: C_15  and  C_32
    9  A    between atoms: N_19  and  C_23
   10  A    between atoms: C_23  and  C_27
   11  A    between atoms: O_25  and  C_30
   12  A    between atoms: C_31  and  C_32
                            x       y       z     vdW  Elec       q    Type
                         _______ _______ _______ _____ _____    ______ ____

>  <TORSDO>
F 12

$$$$
=
 OpenBabel11042418423D

 34 35  0  0  1  0  0  0  0  0999 V2000
  190.5540  177.6920  143.3030 C   0  0  0  0  0  0  0  0  0  0  0  0
  191.9000  177.5270  142.9890 C   0  0  0  0  0  3  0  0  0  0  0  0
  189.7070  178.2730  142.3660 O   0  0  0  0  0  1  0  0  0  0  0  0
  190.0620  177.2740  144.5480 C   0  0  0  0  0  0  0  0  0  0  0  0
  192.7650  176.9400  143.9060 C   0  0  0  0  0  3  0  0  0  0  0  0
  190.9370  176.6970  145.4990 C   0  0  0  0  0  0  0  0  0  0  0  0
  192.3060  176.5170  145.1620 C   0  0  0  0  0  0  0  0  0  0  0  0
  194.1170  176.7590  146.8990 C   0  0  0  0  0  1  0  0  0  0  0  0
  193.2660  175.8000  146.0800 C   0  0  2  0  0  3  0  0  0  0  0  0
  195.5680  174.9180  145.6790 C   0  0  0  0  0  3  0  0  0  0  0  0
  193.6640  173.3250  145.7450 C   0  0  0  0  0  3  0  0  0  0  0  0
  194.1130  174.7130  145.4020 C   0  0  1  0  0  3  0  0  0  0  0  0
  196.3210  173.0820  144.1600 C   0  0  0  0  0  0  0  0  0  0  0  0
  195.3100  172.2050  144.2380 C   0  0  0  0  0  3  0  0  0  0  0  0
  194.1820  172.2310  145.1900 C   0  0  0  0  0  3  0  0  0  0  0  0
  196.5300  174.2100  145.0910 C   0  0  0  0  0  3  0  0  0  0  0  0
  197.3820  172.8200  143.1490 C   0  0  0  0  0  2  0  0  0  0  0  0
  197.6250  173.9770  142.4100 O   0  0  0  0  0  1  0  0  0  0  0  0
  190.0930  174.9780  147.1170 C   0  0  0  0  0  1  0  0  0  0  0  0
  190.3970  176.3130  146.7390 O   0  0  0  0  0  0  0  0  0  0  0  0
  188.6020  177.4720  144.8470 C   0  0  2  0  0  3  0  0  0  0  0  0
  188.4230  177.8710  146.1730 O   0  0  0  0  0  1  0  0  0  0  0  0
  187.8040  176.2070  144.5490 C   0  0  0  0  0  2  0  0  0  0  0  0
  189.0730  174.1920  142.7910 C   0  0  0  0  0  1  0  0  0  0  0  0
  187.4640  176.1430  143.1330 N   0  0  0  0  0  0  0  0  0  0  0  0
  188.0760  175.1690  142.2680 C   0  0  0  0  0  0  0  0  0  0  0  0
  187.7800  175.1350  141.0440 O   0  0  0  0  0  0  0  0  0  0  0  0
  186.5680  177.1580  142.5970 C   0  0  0  0  0  2  0  0  0  0  0  0
  185.2800  177.1950  143.4000 C   0  0  0  0  0  2  0  0  0  0  0  0
  184.7230  178.6020  143.3950 C   0  0  0  0  0  2  0  0  0  0  0  0
  185.3920  179.4120  144.4850 C   0  0  0  0  0  2  0  0  0  0  0  0
  184.8650  179.0030  145.8150 C   0  0  0  0  0  0  0  0  0  0  0  0
  185.7240  178.8940  146.9010 O   0  0  0  0  0  1  0  0  0  0  0  0
  183.6360  178.7740  145.9600 O   0  0  0  0  0  0  0  0  0  0  0  0
  1  4  1  0  0  0  0
  2  1  2  0  0  0  0
  2  5  1  0  0  0  0
  3  1  1  0  0  0  0
  4 21  1  0  0  0  0
  4  6  2  0  0  0  0
  5  7  2  0  0  0  0
  6 20  1  0  0  0  0
  7  6  1  0  0  0  0
  7  9  1  0  0  0  0
  9  8  1  6  0  0  0
 12 10  1  0  0  0  0
 12 11  1  0  0  0  0
 12  9  1  1  0  0  0
 13 14  2  0  0  0  0
 13 16  1  0  0  0  0
 14 15  1  0  0  0  0
 15 11  2  0  0  0  0
 16 10  2  0  0  0  0
 17 13  1  0  0  0  0
 18 17  1  0  0  0  0
 20 19  1  0  0  0  0
 21 22  1  1  0  0  0
 23 21  1  0  0  0  0
 25 23  1  0  0  0  0
 26 24  1  0  0  0  0
 26 25  1  0  0  0  0
 27 26  2  0  0  0  0
 28 25  1  0  0  0  0
 28 29  1  0  0  0  0
 30 29  1  0  0  0  0
 30 31  1  0  0  0  0
 31 32  1  0  0  0  0
 32 34  2  0  0  0  0
 32 33  1  0  0  0  0
M  END
>  <MODEL>
8

>  <REMARK>
 VINA RESULT:      -6.0      2.720      7.869
  Name = 
  12 active torsions:
  status: ('A' for Active; 'I' for Inactive)
    1  A    between atoms: C_2  and  C_5
    2  A    between atoms: C_2  and  C_10
    3  A    between atoms: C_6  and  C_7
    4  A    between atoms: C_6  and  N_19
    5  A    between atoms: C_7  and  C_21
    6  A    between atoms: C_9  and  C_17
    7  A    between atoms: C_10  and  C_27
    8  A    between atoms: C_15  and  C_32
    9  A    between atoms: N_19  and  C_23
   10  A    between atoms: C_23  and  C_27
   11  A    between atoms: O_25  and  C_30
   12  A    between atoms: C_31  and  C_32
                            x       y       z     vdW  Elec       q    Type
                         _______ _______ _______ _____ _____    ______ ____

>  <TORSDO>
F 12

$$$$
=
 OpenBabel11042418423D

 34 35  0  0  1  0  0  0  0  0999 V2000
  191.7450  172.4540  144.4650 C   0  0  0  0  0  0  0  0  0  0  0  0
  190.3650  172.3950  144.6400 C   0  0  0  0  0  3  0  0  0  0  0  0
  192.4190  171.3230  144.0180 O   0  0  0  0  0  1  0  0  0  0  0  0
  192.4420  173.6410  144.7330 C   0  0  0  0  0  0  0  0  0  0  0  0
  189.6680  173.5160  145.0770 C   0  0  0  0  0  3  0  0  0  0  0  0
  191.7460  174.7810  145.2010 C   0  0  0  0  0  0  0  0  0  0  0  0
  190.3350  174.7160  145.3600 C   0  0  0  0  0  0  0  0  0  0  0  0
  188.5640  175.6520  146.8900 C   0  0  0  0  0  1  0  0  0  0  0  0
  189.5180  175.9280  145.7370 C   0  0  2  0  0  3  0  0  0  0  0  0
  187.7150  177.5100  145.0420 C   0  0  0  0  0  3  0  0  0  0  0  0
  189.7680  177.3440  143.6570 C   0  0  0  0  0  3  0  0  0  0  0  0
  188.8160  176.6210  144.5600 C   0  0  1  0  0  3  0  0  0  0  0  0
  186.8900  178.0680  142.7500 C   0  0  0  0  0  0  0  0  0  0  0  0
  188.0110  178.0220  142.0170 C   0  0  0  0  0  3  0  0  0  0  0  0
  189.3970  177.9240  142.5170 C   0  0  0  0  0  3  0  0  0  0  0  0
  186.8510  178.1110  144.2270 C   0  0  0  0  0  3  0  0  0  0  0  0
  185.6000  178.2240  142.0250 C   0  0  0  0  0  2  0  0  0  0  0  0
  184.5630  177.6850  142.7850 O   0  0  0  0  0  1  0  0  0  0  0  0
  192.8130  176.4180  146.7720 C   0  0  0  0  0  1  0  0  0  0  0  0
  192.4950  175.9400  145.4730 O   0  0  0  0  0  0  0  0  0  0  0  0
  193.9320  173.6610  144.5320 C   0  0  2  0  0  3  0  0  0  0  0  0
  194.5910  173.7630  145.7590 O   0  0  0  0  0  1  0  0  0  0  0  0
  194.3440  174.7940  143.5990 C   0  0  0  0  0  2  0  0  0  0  0  0
  197.2620  175.1780  143.2850 C   0  0  0  0  0  1  0  0  0  0  0  0
  195.0380  174.2640  142.4310 N   0  0  0  0  0  0  0  0  0  0  0  0
  196.4560  174.4460  142.2660 C   0  0  0  0  0  0  0  0  0  0  0  0
  197.0380  173.9930  141.2460 O   0  0  0  0  0  0  0  0  0  0  0  0
  194.2400  173.6370  141.3870 C   0  0  0  0  0  2  0  0  0  0  0  0
  193.0720  174.5310  141.0120 C   0  0  0  0  0  2  0  0  0  0  0  0
  191.7930  173.7250  141.0340 C   0  0  0  0  0  2  0  0  0  0  0  0
  190.6810  174.5610  141.6340 C   0  0  0  0  0  2  0  0  0  0  0  0
  189.3760  174.1720  141.0340 C   0  0  0  0  0  0  0  0  0  0  0  0
  188.1930  174.4210  141.7180 O   0  0  0  0  0  1  0  0  0  0  0  0
  189.3430  173.6340  139.8970 O   0  0  0  0  0  0  0  0  0  0  0  0
  1  2  2  0  0  0  0
  1  4  1  0  0  0  0
  2  5  1  0  0  0  0
  3  1  1  0  0  0  0
  4  6  2  0  0  0  0
  5  7  2  0  0  0  0
  6  7  1  0  0  0  0
  6 20  1  0  0  0  0
  7  9  1  0  0  0  0
  9  8  1  1  0  0  0
 11 12  1  0  0  0  0
 12 10  1  0  0  0  0
 12  9  1  1  0  0  0
 13 16  1  0  0  0  0
 14 15  1  0  0  0  0
 14 13  2  0  0  0  0
 15 11  2  0  0  0  0
 16 10  2  0  0  0  0
 17 13  1  0  0  0  0
 17 18  1  0  0  0  0
 20 19  1  0  0  0  0
 21  4  1  0  0  0  0
 21 22  1  1  0  0  0
 23 21  1  0  0  0  0
 25 23  1  0  0  0  0
 26 25  1  0  0  0  0
 26 24  1  0  0  0  0
 27 26  2  0  0  0  0
 28 25  1  0  0  0  0
 29 30  1  0  0  0  0
 29 28  1  0  0  0  0
 30 31  1  0  0  0  0
 32 31  1  0  0  0  0
 32 33  1  0  0  0  0
 34 32  2  0  0  0  0
M  END
>  <MODEL>
9

>  <REMARK>
 VINA RESULT:      -5.9      2.009      3.813
  Name = 
  12 active torsions:
  status: ('A' for Active; 'I' for Inactive)
    1  A    between atoms: C_2  and  C_5
    2  A    between atoms: C_2  and  C_10
    3  A    between atoms: C_6  and  C_7
    4  A    between atoms: C_6  and  N_19
    5  A    between atoms: C_7  and  C_21
    6  A    between atoms: C_9  and  C_17
    7  A    between atoms: C_10  and  C_27
    8  A    between atoms: C_15  and  C_32
    9  A    between atoms: N_19  and  C_23
   10  A    between atoms: C_23  and  C_27
   11  A    between atoms: O_25  and  C_30
   12  A    between atoms: C_31  and  C_32
                            x       y       z     vdW  Elec       q    Type
                         _______ _______ _______ _____ _____    ______ ____

>  <TORSDO>
F 12

$$$$
