=
 OpenBabel11042416533D

 35 39  0  0  1  0  0  0  0  0999 V2000
  193.2970  176.4770  145.2840 C   0  0  0  0  0  0  0  0  0  0  0  0
  192.5820  176.2640  146.4600 C   0  0  0  0  0  3  0  0  0  0  0  0
  188.3930  176.2620  145.4450 C   0  0  1  0  0  3  0  0  0  0  0  0
  188.8080  175.8950  146.8870 C   0  0  2  0  0  3  0  0  0  0  0  0
  191.2010  176.3750  146.2610 C   0  0  0  0  0  0  0  0  0  0  0  0
  187.9510  177.1170  146.6150 C   0  0  2  0  0  3  0  0  0  0  0  0
  192.2290  176.8860  144.0440 S   0  0  0  0  0  0  0  0  0  0  0  0
  189.4250  177.0290  144.5950 C   0  0  1  0  0  3  0  0  0  0  0  0
  190.1960  176.3530  147.3620 C   0  0  0  0  0  2  0  0  0  0  0  0
  190.8360  176.6930  144.9710 C   0  0  0  0  0  0  0  0  0  0  0  0
  194.7870  176.5200  145.1780 C   0  0  0  0  0  0  0  0  0  0  0  0
  195.2420  177.8010  145.4310 F   0  0  0  0  0  0  0  0  0  0  0  0
  195.1850  176.1460  143.9070 F   0  0  0  0  0  0  0  0  0  0  0  0
  195.3380  175.6510  146.1010 F   0  0  0  0  0  0  0  0  0  0  0  0
  186.5060  176.7990  146.9440 C   0  0  0  0  0  2  0  0  0  0  0  0
  185.6520  176.8620  145.6890 C   0  0  0  0  0  2  0  0  0  0  0  0
  185.3720  178.2470  145.3370 N   0  0  0  0  0  0  0  0  0  0  0  0
  184.1300  178.6030  146.0010 C   0  0  0  0  0  1  0  0  0  0  0  0
  185.2380  176.9530  143.0130 O   0  0  0  0  0  0  0  0  0  0  0  0
  185.0870  178.3190  143.6250 S   0  0  0  0  0  0  0  0  0  0  0  0
  186.0710  179.2600  142.9900 O   0  0  0  0  0  0  0  0  0  0  0  0
  183.4860  178.9010  143.3310 N   0  0  0  0  0  1  0  0  0  0  0  0
  189.1510  176.8550  143.0960 C   0  0  0  0  0  2  0  0  0  0  0  0
  189.0580  174.4240  142.9750 O   0  0  0  0  0  0  0  0  0  0  0  0
  187.2800  176.5520  140.6000 O   0  0  0  0  0  1  0  0  0  0  0  0
  190.4840  171.0120  139.9210 O   0  0  0  0  0  0  0  0  0  0  0  0
  187.9690  174.6630  138.4270 O   0  0  0  0  0  0  0  0  0  0  0  0
  188.5440  174.0330  139.3530 C   0  0  0  0  0  0  0  0  0  0  0  0
  188.5430  174.5140  140.7350 C   0  0  0  0  0  0  0  0  0  0  0  0
  188.3050  175.6240  142.7660 C   0  0  2  0  0  3  0  0  0  0  0  0
  189.8840  172.0910  140.1600 C   0  0  0  0  0  0  0  0  0  0  0  0
  188.0120  175.5910  141.2870 C   0  0  0  0  0  0  0  0  0  0  0  0
  189.2310  172.8020  139.0880 N   0  0  0  0  0  2  0  0  0  0  0  0
  189.2040  173.7700  141.7650 C   0  0  0  0  0  0  0  0  0  0  0  0
  189.8480  172.6250  141.5430 C   0  0  0  0  0  3  0  0  0  0  0  0
  1  2  2  0  0  0  0
  3  6  1  0  0  0  0
  3  4  1  0  0  0  0
  4  9  1  0  0  0  0
  5  2  1  0  0  0  0
  5  9  1  0  0  0  0
  6  4  1  0  0  0  0
  6 15  1  0  0  0  0
  7 10  1  0  0  0  0
  7  1  1  0  0  0  0
  8 10  1  0  0  0  0
  8  3  1  0  0  0  0
 10  5  2  0  0  0  0
 11  1  1  0  0  0  0
 11 12  1  0  0  0  0
 11 14  1  0  0  0  0
 13 11  1  0  0  0  0
 16 15  1  0  0  0  0
 17 16  1  0  0  0  0
 17 18  1  0  0  0  0
 19 20  2  0  0  0  0
 20 17  1  0  0  0  0
 21 20  2  0  0  0  0
 22 20  1  0  0  0  0
 23  8  1  0  0  0  0
 25 32  1  0  0  0  0
 26 31  2  0  0  0  0
 27 28  2  0  0  0  0
 28 29  1  0  0  0  0
 29 32  2  0  0  0  0
 29 34  1  0  0  0  0
 30 24  1  0  0  0  0
 30 23  1  0  0  0  0
 31 35  1  0  0  0  0
 32 30  1  0  0  0  0
 33 28  1  0  0  0  0
 33 31  1  0  0  0  0
 34 24  1  0  0  0  0
 35 34  2  0  0  0  0
M  END
>  <MODEL>
1

>  <REMARK>
 VINA RESULT:      -8.5      0.000      0.000
  Name = 
  7 active torsions:
  status: ('A' for Active; 'I' for Inactive)
    1  A    between atoms: C_1  and  C_3
    2  A    between atoms: C_2  and  C_24
    3  A    between atoms: C_2  and  N_31
    4  A    between atoms: S_7  and  N_31
    5  A    between atoms: C_14  and  C_27
    6  A    between atoms: C_21  and  C_24
    7  A    between atoms: C_27  and  C_32
                            x       y       z     vdW  Elec       q    Type
                         _______ _______ _______ _____ _____    ______ ____

>  <TORSDO>
F 7

$$$$
=
 OpenBabel11042416533D

 35 39  0  0  1  0  0  0  0  0999 V2000
  186.2130  177.4400  146.1500 C   0  0  0  0  0  0  0  0  0  0  0  0
  186.8030  176.5850  147.0770 C   0  0  0  0  0  3  0  0  0  0  0  0
  191.0340  176.5040  146.2590 C   0  0  1  0  0  3  0  0  0  0  0  0
  190.5070  175.7780  147.5170 C   0  0  2  0  0  3  0  0  0  0  0  0
  188.1630  176.3860  146.8180 C   0  0  0  0  0  0  0  0  0  0  0  0
  191.1890  175.0040  146.4040 C   0  0  2  0  0  3  0  0  0  0  0  0
  187.3500  177.8640  144.9780 S   0  0  0  0  0  0  0  0  0  0  0  0
  190.0070  176.8200  145.1540 C   0  0  1  0  0  3  0  0  0  0  0  0
  189.0160  175.4030  147.5440 C   0  0  0  0  0  2  0  0  0  0  0  0
  188.6300  177.0440  145.7000 C   0  0  0  0  0  0  0  0  0  0  0  0
  184.7590  177.7810  146.0950 C   0  0  0  0  0  0  0  0  0  0  0  0
  184.3490  177.8900  144.7790 F   0  0  0  0  0  0  0  0  0  0  0  0
  184.5280  178.9830  146.7390 F   0  0  0  0  0  0  0  0  0  0  0  0
  184.0310  176.7850  146.7170 F   0  0  0  0  0  0  0  0  0  0  0  0
  192.6140  174.6910  146.8150 C   0  0  0  0  0  2  0  0  0  0  0  0
  193.5280  174.7020  145.6000 C   0  0  0  0  0  2  0  0  0  0  0  0
  194.8160  175.2870  145.9420 N   0  0  0  0  0  0  0  0  0  0  0  0
  194.6230  176.7270  145.9840 C   0  0  0  0  0  1  0  0  0  0  0  0
  196.3240  176.2230  143.9560 O   0  0  0  0  0  0  0  0  0  0  0  0
  195.9220  174.9480  144.6460 S   0  0  0  0  0  0  0  0  0  0  0  0
  195.2670  174.0310  143.6510 O   0  0  0  0  0  0  0  0  0  0  0  0
  197.3310  174.1740  145.2770 N   0  0  0  0  0  1  0  0  0  0  0  0
  190.4870  177.9710  144.2620 C   0  0  0  0  0  2  0  0  0  0  0  0
  189.3370  177.1110  142.2950 O   0  0  0  0  0  0  0  0  0  0  0  0
  192.8570  176.3950  142.9480 O   0  0  0  0  0  1  0  0  0  0  0  0
  188.0600  172.8170  140.5830 O   0  0  0  0  0  0  0  0  0  0  0  0
  192.4570  173.6360  141.9540 O   0  0  0  0  0  0  0  0  0  0  0  0
  191.2710  174.0230  141.7830 C   0  0  0  0  0  0  0  0  0  0  0  0
  190.8440  175.3820  142.1180 C   0  0  0  0  0  0  0  0  0  0  0  0
  190.5930  177.5980  142.7820 C   0  0  2  0  0  3  0  0  0  0  0  0
  188.9250  173.5980  141.0550 C   0  0  0  0  0  0  0  0  0  0  0  0
  191.5070  176.4090  142.6210 C   0  0  0  0  0  0  0  0  0  0  0  0
  190.2790  173.1380  141.2460 N   0  0  0  0  0  2  0  0  0  0  0  0
  189.4880  175.7920  141.9080 C   0  0  0  0  0  0  0  0  0  0  0  0
  188.5490  174.9880  141.4100 C   0  0  0  0  0  3  0  0  0  0  0  0
  1  2  2  0  0  0  0
  3  6  1  0  0  0  0
  3  4  1  0  0  0  0
  4  9  1  0  0  0  0
  5  2  1  0  0  0  0
  5  9  1  0  0  0  0
  6 15  1  0  0  0  0
  6  4  1  0  0  0  0
  7 10  1  0  0  0  0
  7  1  1  0  0  0  0
  8 10  1  0  0  0  0
  8  3  1  0  0  0  0
 10  5  2  0  0  0  0
 11  1  1  0  0  0  0
 11 14  1  0  0  0  0
 11 13  1  0  0  0  0
 12 11  1  0  0  0  0
 16 17  1  0  0  0  0
 16 15  1  0  0  0  0
 17 18  1  0  0  0  0
 19 20  2  0  0  0  0
 20 22  1  0  0  0  0
 20 17  1  0  0  0  0
 21 20  2  0  0  0  0
 23  8  1  0  0  0  0
 24 30  1  0  0  0  0
 26 31  2  0  0  0  0
 28 27  2  0  0  0  0
 28 29  1  0  0  0  0
 29 32  2  0  0  0  0
 30 23  1  0  0  0  0
 31 33  1  0  0  0  0
 31 35  1  0  0  0  0
 32 30  1  0  0  0  0
 32 25  1  0  0  0  0
 33 28  1  0  0  0  0
 34 29  1  0  0  0  0
 34 24  1  0  0  0  0
 35 34  2  0  0  0  0
M  END
>  <MODEL>
2

>  <REMARK>
 VINA RESULT:      -7.9      4.681      6.969
  Name = 
  7 active torsions:
  status: ('A' for Active; 'I' for Inactive)
    1  A    between atoms: C_1  and  C_3
    2  A    between atoms: C_2  and  C_24
    3  A    between atoms: C_2  and  N_31
    4  A    between atoms: S_7  and  N_31
    5  A    between atoms: C_14  and  C_27
    6  A    between atoms: C_21  and  C_24
    7  A    between atoms: C_27  and  C_32
                            x       y       z     vdW  Elec       q    Type
                         _______ _______ _______ _____ _____    ______ ____

>  <TORSDO>
F 7

$$$$
=
 OpenBabel11042416533D

 35 39  0  0  1  0  0  0  0  0999 V2000
  185.6410  178.1500  144.1830 C   0  0  0  0  0  0  0  0  0  0  0  0
  186.7400  178.3570  145.0130 C   0  0  0  0  0  3  0  0  0  0  0  0
  190.0150  176.0430  143.4360 C   0  0  1  0  0  3  0  0  0  0  0  0
  190.2840  177.0000  144.6180 C   0  0  2  0  0  3  0  0  0  0  0  0
  187.8240  177.5470  144.6630 C   0  0  0  0  0  0  0  0  0  0  0  0
  190.4800  175.5040  144.7730 C   0  0  2  0  0  3  0  0  0  0  0  0
  185.9910  176.9110  143.0920 S   0  0  0  0  0  0  0  0  0  0  0  0
  188.5500  175.6350  143.1870 C   0  0  1  0  0  3  0  0  0  0  0  0
  189.0770  177.4360  145.4640 C   0  0  0  0  0  2  0  0  0  0  0  0
  187.5820  176.7010  143.6020 C   0  0  0  0  0  0  0  0  0  0  0  0
  184.3020  178.7900  144.3490 C   0  0  0  0  0  0  0  0  0  0  0  0
  183.7430  178.4090  145.5550 F   0  0  0  0  0  0  0  0  0  0  0  0
  183.4590  178.4030  143.3220 F   0  0  0  0  0  0  0  0  0  0  0  0
  184.4440  180.1640  144.3280 F   0  0  0  0  0  0  0  0  0  0  0  0
  191.9590  175.1820  144.6910 C   0  0  0  0  0  2  0  0  0  0  0  0
  192.7330  176.3830  144.1730 C   0  0  0  0  0  2  0  0  0  0  0  0
  193.9350  175.9480  143.4760 N   0  0  0  0  0  0  0  0  0  0  0  0
  193.8600  174.5000  143.3780 C   0  0  0  0  0  1  0  0  0  0  0  0
  194.9280  177.3720  145.4960 O   0  0  0  0  0  0  0  0  0  0  0  0
  195.3030  176.3330  144.4740 S   0  0  0  0  0  0  0  0  0  0  0  0
  196.4190  176.8610  143.6170 O   0  0  0  0  0  0  0  0  0  0  0  0
  195.8460  174.9070  145.2850 N   0  0  0  0  0  1  0  0  0  0  0  0
  188.3390  175.1700  141.7410 C   0  0  0  0  0  2  0  0  0  0  0  0
  188.7730  173.0230  142.8060 O   0  0  0  0  0  0  0  0  0  0  0  0
  189.8250  173.7350  139.3830 O   0  0  0  0  0  1  0  0  0  0  0  0
  192.6150  170.5210  144.2100 O   0  0  0  0  0  0  0  0  0  0  0  0
  192.3420  172.2550  139.8730 O   0  0  0  0  0  0  0  0  0  0  0  0
  191.8510  172.0890  141.0210 C   0  0  0  0  0  0  0  0  0  0  0  0
  190.5440  172.6320  141.3920 C   0  0  0  0  0  0  0  0  0  0  0  0
  188.4610  173.6560  141.5590 C   0  0  2  0  0  3  0  0  0  0  0  0
  191.9870  171.1700  143.3340 C   0  0  0  0  0  0  0  0  0  0  0  0
  189.6640  173.3420  140.7060 C   0  0  0  0  0  0  0  0  0  0  0  0
  192.5630  171.3520  142.0250 N   0  0  0  0  0  2  0  0  0  0  0  0
  190.0130  172.4210  142.7050 C   0  0  0  0  0  0  0  0  0  0  0  0
  190.6550  171.7400  143.6540 C   0  0  0  0  0  3  0  0  0  0  0  0
  1 11  1  0  0  0  0
  1  2  2  0  0  0  0
  3  4  1  0  0  0  0
  3  6  1  0  0  0  0
  4  6  1  0  0  0  0
  4  9  1  0  0  0  0
  5  2  1  0  0  0  0
  5  9  1  0  0  0  0
  7 10  1  0  0  0  0
  7  1  1  0  0  0  0
  8  3  1  0  0  0  0
  8 10  1  0  0  0  0
 10  5  2  0  0  0  0
 11 12  1  0  0  0  0
 13 11  1  0  0  0  0
 14 11  1  0  0  0  0
 15  6  1  0  0  0  0
 16 15  1  0  0  0  0
 17 16  1  0  0  0  0
 17 20  1  0  0  0  0
 18 17  1  0  0  0  0
 20 22  1  0  0  0  0
 20 19  2  0  0  0  0
 21 20  2  0  0  0  0
 23  8  1  0  0  0  0
 25 32  1  0  0  0  0
 27 28  2  0  0  0  0
 28 29  1  0  0  0  0
 28 33  1  0  0  0  0
 29 34  1  0  0  0  0
 30 23  1  0  0  0  0
 30 24  1  0  0  0  0
 31 35  1  0  0  0  0
 31 26  2  0  0  0  0
 32 29  2  0  0  0  0
 32 30  1  0  0  0  0
 33 31  1  0  0  0  0
 34 24  1  0  0  0  0
 34 35  2  0  0  0  0
M  END
>  <MODEL>
3

>  <REMARK>
 VINA RESULT:      -7.7      4.748      6.943
  Name = 
  7 active torsions:
  status: ('A' for Active; 'I' for Inactive)
    1  A    between atoms: C_1  and  C_3
    2  A    between atoms: C_2  and  C_24
    3  A    between atoms: C_2  and  N_31
    4  A    between atoms: S_7  and  N_31
    5  A    between atoms: C_14  and  C_27
    6  A    between atoms: C_21  and  C_24
    7  A    between atoms: C_27  and  C_32
                            x       y       z     vdW  Elec       q    Type
                         _______ _______ _______ _____ _____    ______ ____

>  <TORSDO>
F 7

$$$$
=
 OpenBabel11042416533D

 35 39  0  0  1  0  0  0  0  0999 V2000
  186.1950  177.7170  146.4890 C   0  0  0  0  0  0  0  0  0  0  0  0
  185.5890  177.2730  145.3160 C   0  0  0  0  0  3  0  0  0  0  0  0
  188.5850  175.1950  143.0170 C   0  0  1  0  0  3  0  0  0  0  0  0
  187.1220  175.1750  142.5210 C   0  0  2  0  0  3  0  0  0  0  0  0
  186.5100  176.6950  144.4360 C   0  0  0  0  0  0  0  0  0  0  0  0
  188.2140  175.8150  141.6860 C   0  0  2  0  0  3  0  0  0  0  0  0
  187.8610  177.4750  146.3840 S   0  0  0  0  0  0  0  0  0  0  0  0
  188.9660  176.2990  144.0230 C   0  0  1  0  0  3  0  0  0  0  0  0
  186.1830  176.2740  143.0430 C   0  0  0  0  0  2  0  0  0  0  0  0
  187.8120  176.7070  144.8870 C   0  0  0  0  0  0  0  0  0  0  0  0
  185.5050  178.4600  147.5860 C   0  0  0  0  0  0  0  0  0  0  0  0
  185.7690  177.8590  148.8030 F   0  0  0  0  0  0  0  0  0  0  0  0
  184.1380  178.4620  147.3740 F   0  0  0  0  0  0  0  0  0  0  0  0
  185.9620  179.7640  147.6150 F   0  0  0  0  0  0  0  0  0  0  0  0
  188.6110  174.8690  140.5700 C   0  0  0  0  0  2  0  0  0  0  0  0
  189.9450  174.2120  140.8840 C   0  0  0  0  0  2  0  0  0  0  0  0
  189.9810  172.8590  140.3470 N   0  0  0  0  0  0  0  0  0  0  0  0
  188.6210  172.5270  139.9600 C   0  0  0  0  0  1  0  0  0  0  0  0
  191.7290  172.2320  142.2560 O   0  0  0  0  0  0  0  0  0  0  0  0
  190.4350  171.7830  141.6330 S   0  0  0  0  0  0  0  0  0  0  0  0
  190.6020  170.3920  141.0900 O   0  0  0  0  0  0  0  0  0  0  0  0
  189.1970  171.7700  142.8380 N   0  0  0  0  0  1  0  0  0  0  0  0
  190.2080  175.9080  144.8330 C   0  0  0  0  0  2  0  0  0  0  0  0
  191.8890  176.7350  143.2780 O   0  0  0  0  0  0  0  0  0  0  0  0
  192.5840  176.3140  146.8370 O   0  0  0  0  0  1  0  0  0  0  0  0
  196.1100  175.2410  141.5610 O   0  0  0  0  0  0  0  0  0  0  0  0
  195.2960  175.3330  146.1670 O   0  0  0  0  0  0  0  0  0  0  0  0
  194.9170  175.5270  144.9820 C   0  0  0  0  0  0  0  0  0  0  0  0
  193.5810  176.0370  144.6690 C   0  0  0  0  0  0  0  0  0  0  0  0
  191.4000  176.8430  144.6190 C   0  0  2  0  0  3  0  0  0  0  0  0
  195.3400  175.4820  142.5260 C   0  0  0  0  0  0  0  0  0  0  0  0
  192.5690  176.3750  145.4480 C   0  0  0  0  0  0  0  0  0  0  0  0
  195.7900  175.2530  143.8770 N   0  0  0  0  0  2  0  0  0  0  0  0
  193.1830  176.2490  143.3100 C   0  0  0  0  0  0  0  0  0  0  0  0
  193.9760  176.0030  142.2670 C   0  0  0  0  0  3  0  0  0  0  0  0
  1 11  1  0  0  0  0
  2  1  2  0  0  0  0
  3  8  1  0  0  0  0
  4  3  1  0  0  0  0
  4  9  1  0  0  0  0
  5 10  2  0  0  0  0
  5  2  1  0  0  0  0
  6  4  1  0  0  0  0
  6  3  1  0  0  0  0
  7  1  1  0  0  0  0
  8 23  1  0  0  0  0
  8 10  1  0  0  0  0
  9  5  1  0  0  0  0
 10  7  1  0  0  0  0
 11 14  1  0  0  0  0
 11 12  1  0  0  0  0
 13 11  1  0  0  0  0
 15 16  1  0  0  0  0
 15  6  1  0  0  0  0
 17 16  1  0  0  0  0
 17 20  1  0  0  0  0
 18 17  1  0  0  0  0
 20 19  2  0  0  0  0
 20 22  1  0  0  0  0
 21 20  2  0  0  0  0
 24 34  1  0  0  0  0
 24 30  1  0  0  0  0
 26 31  2  0  0  0  0
 28 27  2  0  0  0  0
 29 28  1  0  0  0  0
 29 32  2  0  0  0  0
 30 23  1  0  0  0  0
 30 32  1  0  0  0  0
 31 33  1  0  0  0  0
 32 25  1  0  0  0  0
 33 28  1  0  0  0  0
 34 29  1  0  0  0  0
 35 31  1  0  0  0  0
 35 34  2  0  0  0  0
M  END
>  <MODEL>
4

>  <REMARK>
 VINA RESULT:      -7.6      4.468      7.342
  Name = 
  7 active torsions:
  status: ('A' for Active; 'I' for Inactive)
    1  A    between atoms: C_1  and  C_3
    2  A    between atoms: C_2  and  C_24
    3  A    between atoms: C_2  and  N_31
    4  A    between atoms: S_7  and  N_31
    5  A    between atoms: C_14  and  C_27
    6  A    between atoms: C_21  and  C_24
    7  A    between atoms: C_27  and  C_32
                            x       y       z     vdW  Elec       q    Type
                         _______ _______ _______ _____ _____    ______ ____

>  <TORSDO>
F 7

$$$$
=
 OpenBabel11042416533D

 35 39  0  0  1  0  0  0  0  0999 V2000
  185.4280  177.9740  144.1250 C   0  0  0  0  0  0  0  0  0  0  0  0
  185.5350  177.0810  143.0620 C   0  0  0  0  0  3  0  0  0  0  0  0
  189.1810  174.8480  143.6080 C   0  0  1  0  0  3  0  0  0  0  0  0
  188.2260  174.4410  142.4640 C   0  0  2  0  0  3  0  0  0  0  0  0
  186.7540  176.3940  143.0740 C   0  0  0  0  0  0  0  0  0  0  0  0
  189.6300  174.9310  142.1630 C   0  0  2  0  0  3  0  0  0  0  0  0
  186.8670  177.9710  145.0060 S   0  0  0  0  0  0  0  0  0  0  0  0
  189.0130  176.2670  144.1870 C   0  0  1  0  0  3  0  0  0  0  0  0
  187.2150  175.4930  141.9800 C   0  0  0  0  0  2  0  0  0  0  0  0
  187.5990  176.7540  144.1020 C   0  0  0  0  0  0  0  0  0  0  0  0
  184.2940  178.9220  144.3430 C   0  0  0  0  0  0  0  0  0  0  0  0
  184.7560  180.2240  144.3270 F   0  0  0  0  0  0  0  0  0  0  0  0
  183.6950  178.6740  145.5660 F   0  0  0  0  0  0  0  0  0  0  0  0
  183.3600  178.7570  143.3380 F   0  0  0  0  0  0  0  0  0  0  0  0
  190.5170  173.7430  141.8500 C   0  0  0  0  0  2  0  0  0  0  0  0
  189.6750  172.4960  141.6380 C   0  0  0  0  0  2  0  0  0  0  0  0
  190.2430  171.6760  140.5780 N   0  0  0  0  0  0  0  0  0  0  0  0
  191.6350  172.0710  140.4440 C   0  0  0  0  0  1  0  0  0  0  0  0
  188.0360  172.5480  139.3700 O   0  0  0  0  0  0  0  0  0  0  0  0
  189.4400  172.0830  139.0930 S   0  0  0  0  0  0  0  0  0  0  0  0
  189.3960  170.8770  138.1970 O   0  0  0  0  0  0  0  0  0  0  0  0
  190.3100  173.3430  138.2940 N   0  0  0  0  0  1  0  0  0  0  0  0
  189.5910  176.3610  145.6040 C   0  0  0  0  0  2  0  0  0  0  0  0
  191.4860  177.2120  144.3350 O   0  0  0  0  0  0  0  0  0  0  0  0
  191.9160  174.9930  147.2020 O   0  0  0  0  0  1  0  0  0  0  0  0
  194.9230  175.3950  141.5260 O   0  0  0  0  0  0  0  0  0  0  0  0
  194.1080  173.6090  145.7730 O   0  0  0  0  0  0  0  0  0  0  0  0
  193.8460  174.4400  144.8640 C   0  0  0  0  0  0  0  0  0  0  0  0
  192.7880  175.4410  145.0100 C   0  0  0  0  0  0  0  0  0  0  0  0
  191.0430  176.8420  145.6450 C   0  0  2  0  0  3  0  0  0  0  0  0
  194.2720  175.4000  142.6030 C   0  0  0  0  0  0  0  0  0  0  0  0
  191.9500  175.6910  146.0000 C   0  0  0  0  0  0  0  0  0  0  0  0
  194.5830  174.4400  143.6330 N   0  0  0  0  0  2  0  0  0  0  0  0
  192.5190  176.3750  143.9570 C   0  0  0  0  0  0  0  0  0  0  0  0
  193.1910  176.3940  142.8060 C   0  0  0  0  0  3  0  0  0  0  0  0
  1 11  1  0  0  0  0
  1  7  1  0  0  0  0
  2  5  1  0  0  0  0
  2  1  2  0  0  0  0
  3  8  1  0  0  0  0
  4  3  1  0  0  0  0
  5 10  2  0  0  0  0
  6  4  1  0  0  0  0
  6  3  1  0  0  0  0
  8 23  1  0  0  0  0
  9  4  1  0  0  0  0
  9  5  1  0  0  0  0
 10  8  1  0  0  0  0
 10  7  1  0  0  0  0
 11 13  1  0  0  0  0
 12 11  1  0  0  0  0
 14 11  1  0  0  0  0
 15  6  1  0  0  0  0
 16 15  1  0  0  0  0
 17 16  1  0  0  0  0
 18 17  1  0  0  0  0
 20 19  2  0  0  0  0
 20 17  1  0  0  0  0
 21 20  2  0  0  0  0
 22 20  1  0  0  0  0
 23 30  1  0  0  0  0
 24 30  1  0  0  0  0
 26 31  2  0  0  0  0
 28 29  1  0  0  0  0
 28 27  2  0  0  0  0
 29 32  2  0  0  0  0
 30 32  1  0  0  0  0
 31 35  1  0  0  0  0
 31 33  1  0  0  0  0
 32 25  1  0  0  0  0
 33 28  1  0  0  0  0
 34 24  1  0  0  0  0
 34 29  1  0  0  0  0
 35 34  2  0  0  0  0
M  END
>  <MODEL>
5

>  <REMARK>
 VINA RESULT:      -7.6      4.738      7.542
  Name = 
  7 active torsions:
  status: ('A' for Active; 'I' for Inactive)
    1  A    between atoms: C_1  and  C_3
    2  A    between atoms: C_2  and  C_24
    3  A    between atoms: C_2  and  N_31
    4  A    between atoms: S_7  and  N_31
    5  A    between atoms: C_14  and  C_27
    6  A    between atoms: C_21  and  C_24
    7  A    between atoms: C_27  and  C_32
                            x       y       z     vdW  Elec       q    Type
                         _______ _______ _______ _____ _____    ______ ____

>  <TORSDO>
F 7

$$$$
=
 OpenBabel11042416533D

 35 39  0  0  1  0  0  0  0  0999 V2000
  185.5490  178.2970  144.4430 C   0  0  0  0  0  0  0  0  0  0  0  0
  186.4380  178.3170  145.5150 C   0  0  0  0  0  3  0  0  0  0  0  0
  189.8850  175.9900  144.3830 C   0  0  1  0  0  3  0  0  0  0  0  0
  189.9200  176.7670  145.7180 C   0  0  2  0  0  3  0  0  0  0  0  0
  187.5390  177.4810  145.2990 C   0  0  0  0  0  0  0  0  0  0  0  0
  190.0120  175.2530  145.7000 C   0  0  2  0  0  3  0  0  0  0  0  0
  186.0850  177.1850  143.2920 S   0  0  0  0  0  0  0  0  0  0  0  0
  188.4980  175.7250  143.7640 C   0  0  1  0  0  3  0  0  0  0  0  0
  188.5720  177.1780  146.3310 C   0  0  0  0  0  2  0  0  0  0  0  0
  187.5080  176.7970  144.1030 C   0  0  0  0  0  0  0  0  0  0  0  0
  184.2350  179.0060  144.4010 C   0  0  0  0  0  0  0  0  0  0  0  0
  184.4360  180.3650  144.2510 F   0  0  0  0  0  0  0  0  0  0  0  0
  183.5360  178.7830  145.5740 F   0  0  0  0  0  0  0  0  0  0  0  0
  183.4940  178.5350  143.3340 F   0  0  0  0  0  0  0  0  0  0  0  0
  191.4560  174.8370  145.8990 C   0  0  0  0  0  2  0  0  0  0  0  0
  192.3690  175.6510  144.9970 C   0  0  0  0  0  2  0  0  0  0  0  0
  193.5520  174.8790  144.6450 N   0  0  0  0  0  0  0  0  0  0  0  0
  193.4360  173.6030  145.3290 C   0  0  0  0  0  1  0  0  0  0  0  0
  194.5460  176.5190  146.4930 O   0  0  0  0  0  0  0  0  0  0  0  0
  194.9400  175.6960  145.2970 S   0  0  0  0  0  0  0  0  0  0  0  0
  195.5340  176.5940  144.2490 O   0  0  0  0  0  0  0  0  0  0  0  0
  196.1230  174.5310  145.7730 N   0  0  0  0  0  1  0  0  0  0  0  0
  188.6020  175.4660  142.2570 C   0  0  0  0  0  2  0  0  0  0  0  0
  188.6250  173.0720  142.7040 O   0  0  0  0  0  0  0  0  0  0  0  0
  188.4430  174.4070  139.3100 O   0  0  0  0  0  1  0  0  0  0  0  0
  191.5550  169.3740  141.8410 O   0  0  0  0  0  0  0  0  0  0  0  0
  190.2510  172.2510  138.3900 O   0  0  0  0  0  0  0  0  0  0  0  0
  190.2210  171.9060  139.6010 C   0  0  0  0  0  0  0  0  0  0  0  0
  189.4440  172.6440  140.5980 C   0  0  0  0  0  0  0  0  0  0  0  0
  188.0990  174.0830  141.8360 C   0  0  2  0  0  3  0  0  0  0  0  0
  190.9090  170.3790  141.4470 C   0  0  0  0  0  0  0  0  0  0  0  0
  188.6810  173.7170  140.4940 C   0  0  0  0  0  0  0  0  0  0  0  0
  190.9560  170.7620  140.0570 N   0  0  0  0  0  2  0  0  0  0  0  0
  189.4280  172.2220  141.9660 C   0  0  0  0  0  0  0  0  0  0  0  0
  190.1020  171.1620  142.4140 C   0  0  0  0  0  3  0  0  0  0  0  0
  1  2  2  0  0  0  0
  3  6  1  0  0  0  0
  3  4  1  0  0  0  0
  4  9  1  0  0  0  0
  5  2  1  0  0  0  0
  5  9  1  0  0  0  0
  6  4  1  0  0  0  0
  6 15  1  0  0  0  0
  7 10  1  0  0  0  0
  7  1  1  0  0  0  0
  8 10  1  0  0  0  0
  8  3  1  0  0  0  0
 10  5  2  0  0  0  0
 11  1  1  0  0  0  0
 11 13  1  0  0  0  0
 12 11  1  0  0  0  0
 14 11  1  0  0  0  0
 16 15  1  0  0  0  0
 17 16  1  0  0  0  0
 17 20  1  0  0  0  0
 17 18  1  0  0  0  0
 20 22  1  0  0  0  0
 20 19  2  0  0  0  0
 21 20  2  0  0  0  0
 23  8  1  0  0  0  0
 25 32  1  0  0  0  0
 27 28  2  0  0  0  0
 28 33  1  0  0  0  0
 28 29  1  0  0  0  0
 29 34  1  0  0  0  0
 30 23  1  0  0  0  0
 30 24  1  0  0  0  0
 31 26  2  0  0  0  0
 31 35  1  0  0  0  0
 32 29  2  0  0  0  0
 32 30  1  0  0  0  0
 33 31  1  0  0  0  0
 34 35  2  0  0  0  0
 34 24  1  0  0  0  0
M  END
>  <MODEL>
6

>  <REMARK>
 VINA RESULT:      -7.6      4.618      6.689
  Name = 
  7 active torsions:
  status: ('A' for Active; 'I' for Inactive)
    1  A    between atoms: C_1  and  C_3
    2  A    between atoms: C_2  and  C_24
    3  A    between atoms: C_2  and  N_31
    4  A    between atoms: S_7  and  N_31
    5  A    between atoms: C_14  and  C_27
    6  A    between atoms: C_21  and  C_24
    7  A    between atoms: C_27  and  C_32
                            x       y       z     vdW  Elec       q    Type
                         _______ _______ _______ _____ _____    ______ ____

>  <TORSDO>
F 7

$$$$
=
 OpenBabel11042416533D

 35 39  0  0  1  0  0  0  0  0999 V2000
  185.8170  178.2130  144.7640 C   0  0  0  0  0  0  0  0  0  0  0  0
  186.5620  178.2940  145.9370 C   0  0  0  0  0  3  0  0  0  0  0  0
  190.2730  176.2100  145.2620 C   0  0  1  0  0  3  0  0  0  0  0  0
  190.0880  176.9870  146.5850 C   0  0  2  0  0  3  0  0  0  0  0  0
  187.7350  177.5360  145.8670 C   0  0  0  0  0  0  0  0  0  0  0  0
  190.2850  175.4830  146.5910 C   0  0  2  0  0  3  0  0  0  0  0  0
  186.5660  177.1420  143.6970 S   0  0  0  0  0  0  0  0  0  0  0  0
  188.9960  175.8510  144.4780 C   0  0  1  0  0  3  0  0  0  0  0  0
  188.6490  177.3040  147.0220 C   0  0  0  0  0  2  0  0  0  0  0  0
  187.9000  176.8520  144.6820 C   0  0  0  0  0  0  0  0  0  0  0  0
  184.4720  178.8300  144.5520 C   0  0  0  0  0  0  0  0  0  0  0  0
  183.7060  178.6960  145.6950 F   0  0  0  0  0  0  0  0  0  0  0  0
  183.8230  178.2080  143.5000 F   0  0  0  0  0  0  0  0  0  0  0  0
  184.6250  180.1730  144.2620 F   0  0  0  0  0  0  0  0  0  0  0  0
  191.7180  175.1680  146.9720 C   0  0  0  0  0  2  0  0  0  0  0  0
  192.6580  175.5280  145.8330 C   0  0  0  0  0  2  0  0  0  0  0  0
  194.0120  175.7160  146.3350 N   0  0  0  0  0  0  0  0  0  0  0  0
  194.2000  177.1470  146.5040 C   0  0  0  0  0  1  0  0  0  0  0  0
  194.4240  174.2690  144.1380 O   0  0  0  0  0  0  0  0  0  0  0  0
  195.1190  175.1860  145.1070 S   0  0  0  0  0  0  0  0  0  0  0  0
  196.2680  174.4560  145.7440 O   0  0  0  0  0  0  0  0  0  0  0  0
  195.7320  176.5570  144.2520 N   0  0  0  0  0  1  0  0  0  0  0  0
  189.3050  175.6000  142.9970 C   0  0  0  0  0  2  0  0  0  0  0  0
  189.2340  173.2640  142.3110 O   0  0  0  0  0  0  0  0  0  0  0  0
  187.4610  175.8760  140.4770 O   0  0  0  0  0  1  0  0  0  0  0  0
  190.7190  170.6660  138.5640 O   0  0  0  0  0  0  0  0  0  0  0  0
  188.1880  174.5500  137.9320 O   0  0  0  0  0  0  0  0  0  0  0  0
  188.7590  173.7250  138.6920 C   0  0  0  0  0  0  0  0  0  0  0  0
  188.7410  173.8700  140.1490 C   0  0  0  0  0  0  0  0  0  0  0  0
  188.4720  174.4750  142.3790 C   0  0  2  0  0  3  0  0  0  0  0  0
  190.1070  171.6570  139.0400 C   0  0  0  0  0  0  0  0  0  0  0  0
  188.1940  174.7850  140.9300 C   0  0  0  0  0  0  0  0  0  0  0  0
  189.4600  172.5940  138.1560 N   0  0  0  0  0  2  0  0  0  0  0  0
  189.3970  172.9110  140.9850 C   0  0  0  0  0  0  0  0  0  0  0  0
  190.0540  171.8520  140.5100 C   0  0  0  0  0  3  0  0  0  0  0  0
  1  2  2  0  0  0  0
  3  4  1  0  0  0  0
  3  6  1  0  0  0  0
  4  6  1  0  0  0  0
  4  9  1  0  0  0  0
  5  2  1  0  0  0  0
  5  9  1  0  0  0  0
  6 15  1  0  0  0  0
  7 10  1  0  0  0  0
  7  1  1  0  0  0  0
  8 10  1  0  0  0  0
  8  3  1  0  0  0  0
 10  5  2  0  0  0  0
 11  1  1  0  0  0  0
 11 12  1  0  0  0  0
 13 11  1  0  0  0  0
 14 11  1  0  0  0  0
 16 17  1  0  0  0  0
 16 15  1  0  0  0  0
 17 18  1  0  0  0  0
 19 20  2  0  0  0  0
 20 21  2  0  0  0  0
 20 17  1  0  0  0  0
 22 20  1  0  0  0  0
 23  8  1  0  0  0  0
 24 30  1  0  0  0  0
 25 32  1  0  0  0  0
 26 31  2  0  0  0  0
 27 28  2  0  0  0  0
 28 29  1  0  0  0  0
 29 32  2  0  0  0  0
 29 34  1  0  0  0  0
 30 23  1  0  0  0  0
 31 35  1  0  0  0  0
 32 30  1  0  0  0  0
 33 28  1  0  0  0  0
 33 31  1  0  0  0  0
 34 24  1  0  0  0  0
 35 34  2  0  0  0  0
M  END
>  <MODEL>
7

>  <REMARK>
 VINA RESULT:      -7.5      4.442      6.482
  Name = 
  7 active torsions:
  status: ('A' for Active; 'I' for Inactive)
    1  A    between atoms: C_1  and  C_3
    2  A    between atoms: C_2  and  C_24
    3  A    between atoms: C_2  and  N_31
    4  A    between atoms: S_7  and  N_31
    5  A    between atoms: C_14  and  C_27
    6  A    between atoms: C_21  and  C_24
    7  A    between atoms: C_27  and  C_32
                            x       y       z     vdW  Elec       q    Type
                         _______ _______ _______ _____ _____    ______ ____

>  <TORSDO>
F 7

$$$$
=
 OpenBabel11042416533D

 35 39  0  0  1  0  0  0  0  0999 V2000
  193.3330  176.2780  145.0800 C   0  0  0  0  0  0  0  0  0  0  0  0
  192.5600  177.3590  144.6650 C   0  0  0  0  0  3  0  0  0  0  0  0
  188.6940  175.8280  143.5310 C   0  0  1  0  0  3  0  0  0  0  0  0
  188.9070  177.3580  143.5620 C   0  0  2  0  0  3  0  0  0  0  0  0
  191.3240  176.9530  144.1510 C   0  0  0  0  0  0  0  0  0  0  0  0
  188.5700  176.6490  142.2640 C   0  0  2  0  0  3  0  0  0  0  0  0
  192.5230  174.8410  144.7250 S   0  0  0  0  0  0  0  0  0  0  0  0
  189.9580  174.9480  143.4640 C   0  0  1  0  0  3  0  0  0  0  0  0
  190.3540  177.8720  143.4890 C   0  0  0  0  0  2  0  0  0  0  0  0
  191.1350  175.5880  144.1340 C   0  0  0  0  0  0  0  0  0  0  0  0
  194.7360  176.3660  145.5880 C   0  0  0  0  0  0  0  0  0  0  0  0
  194.9790  175.3420  146.4840 F   0  0  0  0  0  0  0  0  0  0  0  0
  194.9360  177.5780  146.2260 F   0  0  0  0  0  0  0  0  0  0  0  0
  195.6150  176.2610  144.5270 F   0  0  0  0  0  0  0  0  0  0  0  0
  187.1020  176.8550  141.9480 C   0  0  0  0  0  2  0  0  0  0  0  0
  186.2420  176.4170  143.1230 C   0  0  0  0  0  2  0  0  0  0  0  0
  185.1670  177.3710  143.3470 N   0  0  0  0  0  0  0  0  0  0  0  0
  185.3460  178.4380  142.3770 C   0  0  0  0  0  1  0  0  0  0  0  0
  184.0440  178.3690  145.5460 O   0  0  0  0  0  0  0  0  0  0  0  0
  185.3800  178.0620  144.9260 S   0  0  0  0  0  0  0  0  0  0  0  0
  186.1810  179.3290  144.8180 O   0  0  0  0  0  0  0  0  0  0  0  0
  186.2310  176.9450  145.9330 N   0  0  0  0  0  1  0  0  0  0  0  0
  189.6770  173.5320  143.9800 C   0  0  0  0  0  2  0  0  0  0  0  0
  191.1170  172.4170  142.3620 O   0  0  0  0  0  0  0  0  0  0  0  0
  187.5660  172.9810  141.7290 O   0  0  0  0  0  1  0  0  0  0  0  0
  192.7610  173.2970  137.9440 O   0  0  0  0  0  0  0  0  0  0  0  0
  188.1910  173.5940  138.9010 O   0  0  0  0  0  0  0  0  0  0  0  0
  189.3760  173.3700  139.2650 C   0  0  0  0  0  0  0  0  0  0  0  0
  189.7070  173.0010  140.6420 C   0  0  0  0  0  0  0  0  0  0  0  0
  189.7900  172.4520  142.9010 C   0  0  2  0  0  3  0  0  0  0  0  0
  191.8130  173.2090  138.7660 C   0  0  0  0  0  0  0  0  0  0  0  0
  188.9480  172.8330  141.7110 C   0  0  0  0  0  0  0  0  0  0  0  0
  190.4620  173.4700  138.3330 N   0  0  0  0  0  2  0  0  0  0  0  0
  191.0650  172.7500  141.0220 C   0  0  0  0  0  0  0  0  0  0  0  0
  192.0900  172.8350  140.1740 C   0  0  0  0  0  3  0  0  0  0  0  0
  1 11  1  0  0  0  0
  2  1  2  0  0  0  0
  3  4  1  0  0  0  0
  5  2  1  0  0  0  0
  6  3  1  0  0  0  0
  6  4  1  0  0  0  0
  7  1  1  0  0  0  0
  8  3  1  0  0  0  0
  8 23  1  0  0  0  0
  8 10  1  0  0  0  0
  9  4  1  0  0  0  0
  9  5  1  0  0  0  0
 10  5  2  0  0  0  0
 10  7  1  0  0  0  0
 11 13  1  0  0  0  0
 11 12  1  0  0  0  0
 14 11  1  0  0  0  0
 15  6  1  0  0  0  0
 15 16  1  0  0  0  0
 16 17  1  0  0  0  0
 17 20  1  0  0  0  0
 18 17  1  0  0  0  0
 20 19  2  0  0  0  0
 20 22  1  0  0  0  0
 21 20  2  0  0  0  0
 24 30  1  0  0  0  0
 26 31  2  0  0  0  0
 27 28  2  0  0  0  0
 28 29  1  0  0  0  0
 29 34  1  0  0  0  0
 29 32  2  0  0  0  0
 30 23  1  0  0  0  0
 31 35  1  0  0  0  0
 32 25  1  0  0  0  0
 32 30  1  0  0  0  0
 33 31  1  0  0  0  0
 33 28  1  0  0  0  0
 34 24  1  0  0  0  0
 35 34  2  0  0  0  0
M  END
>  <MODEL>
8

>  <REMARK>
 VINA RESULT:      -7.5      2.107      2.811
  Name = 
  7 active torsions:
  status: ('A' for Active; 'I' for Inactive)
    1  A    between atoms: C_1  and  C_3
    2  A    between atoms: C_2  and  C_24
    3  A    between atoms: C_2  and  N_31
    4  A    between atoms: S_7  and  N_31
    5  A    between atoms: C_14  and  C_27
    6  A    between atoms: C_21  and  C_24
    7  A    between atoms: C_27  and  C_32
                            x       y       z     vdW  Elec       q    Type
                         _______ _______ _______ _____ _____    ______ ____

>  <TORSDO>
F 7

$$$$
=
 OpenBabel11042416533D

 35 39  0  0  1  0  0  0  0  0999 V2000
  185.7760  178.1050  144.7180 C   0  0  0  0  0  0  0  0  0  0  0  0
  186.6580  178.3890  145.7570 C   0  0  0  0  0  3  0  0  0  0  0  0
  190.1910  175.9960  145.1500 C   0  0  1  0  0  3  0  0  0  0  0  0
  190.1910  177.0460  146.2830 C   0  0  2  0  0  3  0  0  0  0  0  0
  187.7890  177.5660  145.7260 C   0  0  0  0  0  0  0  0  0  0  0  0
  190.3370  175.5690  146.5960 C   0  0  2  0  0  3  0  0  0  0  0  0
  186.3560  176.7880  143.8360 S   0  0  0  0  0  0  0  0  0  0  0  0
  188.8170  175.5530  144.6090 C   0  0  1  0  0  3  0  0  0  0  0  0
  188.8260  177.5330  146.7960 C   0  0  0  0  0  2  0  0  0  0  0  0
  187.7880  176.6370  144.7080 C   0  0  0  0  0  0  0  0  0  0  0  0
  184.4370  178.7400  144.5260 C   0  0  0  0  0  0  0  0  0  0  0  0
  184.5870  180.0920  144.2810 F   0  0  0  0  0  0  0  0  0  0  0  0
  183.6640  178.5730  145.6610 F   0  0  0  0  0  0  0  0  0  0  0  0
  183.8000  178.1500  143.4510 F   0  0  0  0  0  0  0  0  0  0  0  0
  191.7940  175.2580  146.8770 C   0  0  0  0  0  2  0  0  0  0  0  0
  192.6870  175.9580  145.8660 C   0  0  0  0  0  2  0  0  0  0  0  0
  193.7370  175.0580  145.4100 N   0  0  0  0  0  0  0  0  0  0  0  0
  194.9410  175.4190  146.1380 C   0  0  0  0  0  1  0  0  0  0  0  0
  193.0960  176.4510  143.2340 O   0  0  0  0  0  0  0  0  0  0  0  0
  194.0280  175.3800  143.7290 S   0  0  0  0  0  0  0  0  0  0  0  0
  193.8110  174.1250  142.9310 O   0  0  0  0  0  0  0  0  0  0  0  0
  195.6610  175.9030  143.5160 N   0  0  0  0  0  1  0  0  0  0  0  0
  188.9370  174.9750  143.1940 C   0  0  0  0  0  2  0  0  0  0  0  0
  190.6820  174.6900  141.5180 O   0  0  0  0  0  0  0  0  0  0  0  0
  189.9880  172.1460  144.0440 O   0  0  0  0  0  1  0  0  0  0  0  0
  191.5320  171.7730  137.8080 O   0  0  0  0  0  0  0  0  0  0  0  0
  190.4400  170.0400  142.0130 O   0  0  0  0  0  0  0  0  0  0  0  0
  190.6530  171.0200  141.2530 C   0  0  0  0  0  0  0  0  0  0  0  0
  190.5670  172.4020  141.7270 C   0  0  0  0  0  0  0  0  0  0  0  0
  190.3240  174.4100  142.8770 C   0  0  2  0  0  3  0  0  0  0  0  0
  191.2340  171.9550  139.0160 C   0  0  0  0  0  0  0  0  0  0  0  0
  190.2810  172.9040  142.9160 C   0  0  0  0  0  0  0  0  0  0  0  0
  190.9920  170.8210  139.8730 N   0  0  0  0  0  2  0  0  0  0  0  0
  190.8190  173.4950  140.8360 C   0  0  0  0  0  0  0  0  0  0  0  0
  191.1370  173.3340  139.5520 C   0  0  0  0  0  3  0  0  0  0  0  0
  1  2  2  0  0  0  0
  3  4  1  0  0  0  0
  3  6  1  0  0  0  0
  4  6  1  0  0  0  0
  4  9  1  0  0  0  0
  5  2  1  0  0  0  0
  5  9  1  0  0  0  0
  6 15  1  0  0  0  0
  7 10  1  0  0  0  0
  7  1  1  0  0  0  0
  8 10  1  0  0  0  0
  8  3  1  0  0  0  0
 10  5  2  0  0  0  0
 11  1  1  0  0  0  0
 11 13  1  0  0  0  0
 12 11  1  0  0  0  0
 14 11  1  0  0  0  0
 16 15  1  0  0  0  0
 17 16  1  0  0  0  0
 17 18  1  0  0  0  0
 19 20  2  0  0  0  0
 20 17  1  0  0  0  0
 21 20  2  0  0  0  0
 22 20  1  0  0  0  0
 23  8  1  0  0  0  0
 24 30  1  0  0  0  0
 26 31  2  0  0  0  0
 28 29  1  0  0  0  0
 28 27  2  0  0  0  0
 29 32  2  0  0  0  0
 30 32  1  0  0  0  0
 30 23  1  0  0  0  0
 31 35  1  0  0  0  0
 31 33  1  0  0  0  0
 32 25  1  0  0  0  0
 33 28  1  0  0  0  0
 34 24  1  0  0  0  0
 34 29  1  0  0  0  0
 35 34  2  0  0  0  0
M  END
>  <MODEL>
9

>  <REMARK>
 VINA RESULT:      -7.5      4.733      6.638
  Name = 
  7 active torsions:
  status: ('A' for Active; 'I' for Inactive)
    1  A    between atoms: C_1  and  C_3
    2  A    between atoms: C_2  and  C_24
    3  A    between atoms: C_2  and  N_31
    4  A    between atoms: S_7  and  N_31
    5  A    between atoms: C_14  and  C_27
    6  A    between atoms: C_21  and  C_24
    7  A    between atoms: C_27  and  C_32
                            x       y       z     vdW  Elec       q    Type
                         _______ _______ _______ _____ _____    ______ ____

>  <TORSDO>
F 7

$$$$
