=
 OpenBabel11042415043D

 33 35  0  0  1  0  0  0  0  0999 V2000
  190.4190  174.2160  144.1000 C   0  0  1  0  0  3  0  0  0  0  0  0
  187.5880  174.1420  141.6530 N   0  0  0  0  0  0  0  0  0  0  0  0
  187.7890  175.3860  141.9360 C   0  0  0  0  0  0  0  0  0  0  0  0
  188.8430  175.6100  142.8630 N   0  0  0  0  0  0  0  0  0  0  0  0
  189.3090  174.4380  143.1240 C   0  0  0  0  0  0  0  0  0  0  0  0
  188.5710  173.3660  142.3930 C   0  0  0  0  0  2  0  0  0  0  0  0
  186.0370  177.0150  142.4790 C   0  0  0  0  0  3  0  0  0  0  0  0
  185.6480  179.3810  143.7800 Cl  0  0  0  0  0  0  0  0  0  0  0  0
  186.3780  178.2820  142.6290 C   0  0  0  0  0  0  0  0  0  0  0  0
  186.9240  176.4780  141.3970 C   0  0  1  0  0  3  0  0  0  0  0  0
  187.4180  178.6460  141.7420 N   0  0  0  0  0  0  0  0  0  0  0  0
  187.7350  177.6370  141.0410 N   0  0  0  0  0  0  0  0  0  0  0  0
  189.8640  173.7520  145.4410 C   0  0  0  0  0  2  0  0  0  0  0  0
  188.9580  174.4810  147.6480 C   0  0  0  0  0  1  0  0  0  0  0  0
  189.3170  174.9280  146.2440 C   0  0  1  0  0  3  0  0  0  0  0  0
  190.2740  176.1260  146.2580 C   0  0  0  0  0  2  0  0  0  0  0  0
  190.2960  178.0710  144.6790 C   0  0  0  0  0  1  0  0  0  0  0  0
  189.6080  177.4490  145.8800 C   0  0  1  0  0  3  0  0  0  0  0  0
  188.0820  177.3470  145.7050 C   0  0  0  0  0  2  0  0  0  0  0  0
  187.2120  177.9370  146.8270 C   0  0  2  0  0  3  0  0  0  0  0  0
  187.9830  178.3490  147.9190 O   0  0  0  0  0  0  0  0  0  0  0  0
  187.2020  179.3010  148.5770 C   0  0  0  0  0  1  0  0  0  0  0  0
  186.1260  176.9660  147.2670 C   0  0  0  0  0  2  0  0  0  0  0  0
  185.2200  176.6210  146.1010 C   0  0  0  0  0  1  0  0  0  0  0  0
  191.3960  173.1890  143.5580 C   0  0  0  0  0  2  0  0  0  0  0  0
  192.6940  173.8130  143.3420 N   0  0  0  0  0  2  0  0  0  0  0  0
  193.2970  174.6970  144.2910 C   0  0  0  0  0  0  0  0  0  0  0  0
  194.6700  175.0960  146.3820 C   0  0  0  0  0  2  0  0  0  0  0  0
  193.3820  176.0070  143.9970 C   0  0  0  0  0  0  0  0  0  0  0  0
  194.0420  176.9970  144.9220 C   0  0  0  0  0  2  0  0  0  0  0  0
  192.9050  176.4720  142.7770 O   0  0  0  0  0  1  0  0  0  0  0  0
  194.1040  176.5050  146.3630 C   0  0  0  0  0  2  0  0  0  0  0  0
  193.7150  174.1630  145.6430 C   0  0  0  0  0  2  0  0  0  0  0  0
  1 25  1  6  0  0  0
  1 13  1  0  0  0  0
  2  3  2  0  0  0  0
  2  6  1  0  0  0  0
  3  4  1  0  0  0  0
  4  5  2  0  0  0  0
  5  1  1  0  0  0  0
  6  5  1  0  0  0  0
  7  9  2  0  0  0  0
  9  8  1  0  0  0  0
 10  3  1  1  0  0  0
 10  7  1  0  0  0  0
 11  9  1  0  0  0  0
 12 10  1  0  0  0  0
 12 11  2  0  0  0  0
 13 15  1  0  0  0  0
 15 16  1  0  0  0  0
 15 14  1  1  0  0  0
 18 17  1  6  0  0  0
 18 16  1  0  0  0  0
 19 18  1  0  0  0  0
 20 19  1  6  0  0  0
 20 23  1  0  0  0  0
 20 21  1  0  0  0  0
 21 22  1  0  0  0  0
 24 23  1  0  0  0  0
 26 25  1  0  0  0  0
 26 27  1  0  0  0  0
 27 33  1  0  0  0  0
 29 27  2  0  0  0  0
 29 30  1  0  0  0  0
 30 32  1  0  0  0  0
 31 29  1  0  0  0  0
 32 28  1  0  0  0  0
 33 28  1  0  0  0  0
M  END
>  <MODEL>
1

>  <REMARK>
 VINA RESULT:      -6.1      0.000      0.000
  Name = 
  13 active torsions:
  status: ('A' for Active; 'I' for Inactive)
    1  A    between atoms: C_3  and  N_28
    2  A    between atoms: C_4  and  C_17
    3  A    between atoms: C_4  and  C_27
    4  A    between atoms: C_6  and  C_14
    5  A    between atoms: C_8  and  O_10
    6  A    between atoms: C_8  and  C_20
    7  A    between atoms: C_8  and  C_29
    8  A    between atoms: C_16  and  C_17
    9  A    between atoms: C_16  and  N_28
   10  A    between atoms: C_17  and  C_25
   11  A    between atoms: C_22  and  C_23
   12  A    between atoms: C_22  and  C_29
   13  A    between atoms: C_23  and  C_27
                            x       y       z     vdW  Elec       q    Type
                         _______ _______ _______ _____ _____    ______ ____

>  <TORSDO>
F 13

$$$$
=
 OpenBabel11042415043D

 33 35  0  0  1  0  0  0  0  0999 V2000
  188.3500  176.4730  142.8480 C   0  0  1  0  0  3  0  0  0  0  0  0
  188.9960  172.9540  141.7500 N   0  0  0  0  0  0  0  0  0  0  0  0
  188.5860  173.5900  140.7030 C   0  0  0  0  0  0  0  0  0  0  0  0
  188.2890  174.9610  140.9340 N   0  0  0  0  0  0  0  0  0  0  0  0
  188.5620  175.1550  142.1770 C   0  0  0  0  0  0  0  0  0  0  0  0
  189.0410  173.9080  142.8470 C   0  0  0  0  0  2  0  0  0  0  0  0
  188.2420  173.9260  138.2980 C   0  0  0  0  0  3  0  0  0  0  0  0
  189.5820  174.6100  136.0220 Cl  0  0  0  0  0  0  0  0  0  0  0  0
  189.2500  173.6950  137.4770 C   0  0  0  0  0  0  0  0  0  0  0  0
  188.3630  172.9100  139.3920 C   0  0  1  0  0  3  0  0  0  0  0  0
  190.0420  172.6110  137.9240 N   0  0  0  0  0  0  0  0  0  0  0  0
  189.5510  172.1590  139.0030 N   0  0  0  0  0  0  0  0  0  0  0  0
  189.5070  177.4170  142.5450 C   0  0  0  0  0  2  0  0  0  0  0  0
  189.3530  177.4520  145.0350 C   0  0  0  0  0  1  0  0  0  0  0  0
  190.1260  177.9550  143.8310 C   0  0  1  0  0  3  0  0  0  0  0  0
  191.6210  177.6320  143.9430 C   0  0  0  0  0  2  0  0  0  0  0  0
  193.0730  176.1910  142.4970 C   0  0  0  0  0  1  0  0  0  0  0  0
  191.9730  176.2000  143.5420 C   0  0  1  0  0  3  0  0  0  0  0  0
  192.2790  175.2790  144.7370 C   0  0  0  0  0  2  0  0  0  0  0  0
  192.6500  175.9620  146.0630 C   0  0  2  0  0  3  0  0  0  0  0  0
  194.0140  175.8370  146.3470 O   0  0  0  0  0  0  0  0  0  0  0  0
  194.5530  177.1020  146.1030 C   0  0  0  0  0  1  0  0  0  0  0  0
  191.8070  175.4430  147.2190 C   0  0  0  0  0  2  0  0  0  0  0  0
  191.3290  176.5930  148.0850 C   0  0  0  0  0  1  0  0  0  0  0  0
  187.0410  177.0900  142.3910 C   0  0  0  0  0  2  0  0  0  0  0  0
  185.9470  176.5760  143.2020 N   0  0  0  0  0  2  0  0  0  0  0  0
  185.4910  177.2260  144.3920 C   0  0  0  0  0  0  0  0  0  0  0  0
  185.7260  177.7420  146.8600 C   0  0  0  0  0  2  0  0  0  0  0  0
  184.5560  178.1880  144.2890 C   0  0  0  0  0  0  0  0  0  0  0  0
  184.0550  178.9520  145.4880 C   0  0  0  0  0  2  0  0  0  0  0  0
  184.0690  178.5450  143.0370 O   0  0  0  0  0  1  0  0  0  0  0  0
  184.2810  178.2060  146.7980 C   0  0  0  0  0  2  0  0  0  0  0  0
  185.9780  176.7390  145.7380 C   0  0  0  0  0  2  0  0  0  0  0  0
  1 25  1  6  0  0  0
  2  6  1  0  0  0  0
  3  4  1  0  0  0  0
  3  2  2  0  0  0  0
  4  5  2  0  0  0  0
  5  6  1  0  0  0  0
  5  1  1  0  0  0  0
  7 10  1  0  0  0  0
  8  9  1  0  0  0  0
  9 11  1  0  0  0  0
  9  7  2  0  0  0  0
 10  3  1  1  0  0  0
 11 12  2  0  0  0  0
 12 10  1  0  0  0  0
 13  1  1  0  0  0  0
 13 15  1  0  0  0  0
 15 16  1  0  0  0  0
 15 14  1  1  0  0  0
 18 17  1  6  0  0  0
 18 16  1  0  0  0  0
 18 19  1  0  0  0  0
 20 19  1  6  0  0  0
 20 21  1  0  0  0  0
 20 23  1  0  0  0  0
 22 21  1  0  0  0  0
 23 24  1  0  0  0  0
 25 26  1  0  0  0  0
 26 27  1  0  0  0  0
 27 33  1  0  0  0  0
 29 27  2  0  0  0  0
 29 30  1  0  0  0  0
 30 32  1  0  0  0  0
 31 29  1  0  0  0  0
 32 28  1  0  0  0  0
 33 28  1  0  0  0  0
M  END
>  <MODEL>
2

>  <REMARK>
 VINA RESULT:      -6.1      3.061      6.372
  Name = 
  13 active torsions:
  status: ('A' for Active; 'I' for Inactive)
    1  A    between atoms: C_3  and  N_28
    2  A    between atoms: C_4  and  C_17
    3  A    between atoms: C_4  and  C_27
    4  A    between atoms: C_6  and  C_14
    5  A    between atoms: C_8  and  O_10
    6  A    between atoms: C_8  and  C_20
    7  A    between atoms: C_8  and  C_29
    8  A    between atoms: C_16  and  C_17
    9  A    between atoms: C_16  and  N_28
   10  A    between atoms: C_17  and  C_25
   11  A    between atoms: C_22  and  C_23
   12  A    between atoms: C_22  and  C_29
   13  A    between atoms: C_23  and  C_27
                            x       y       z     vdW  Elec       q    Type
                         _______ _______ _______ _____ _____    ______ ____

>  <TORSDO>
F 13

$$$$
=
 OpenBabel11042415043D

 33 35  0  0  1  0  0  0  0  0999 V2000
  192.0600  174.8220  145.8970 C   0  0  1  0  0  3  0  0  0  0  0  0
  195.7900  174.5530  145.7470 N   0  0  0  0  0  0  0  0  0  0  0  0
  195.3280  173.4480  145.2620 C   0  0  0  0  0  0  0  0  0  0  0  0
  193.9080  173.3710  145.2390 N   0  0  0  0  0  0  0  0  0  0  0  0
  193.5070  174.5000  145.7100 C   0  0  0  0  0  0  0  0  0  0  0  0
  194.6480  175.3850  146.0920 C   0  0  0  0  0  2  0  0  0  0  0  0
  196.8100  171.6620  146.0570 C   0  0  0  0  0  3  0  0  0  0  0  0
  196.7530  169.2090  147.2480 Cl  0  0  0  0  0  0  0  0  0  0  0  0
  196.3640  170.4190  146.0440 C   0  0  0  0  0  0  0  0  0  0  0  0
  196.2180  172.3220  144.8490 C   0  0  1  0  0  3  0  0  0  0  0  0
  195.5220  170.1830  144.9330 N   0  0  0  0  0  0  0  0  0  0  0  0
  195.4320  171.2490  144.2500 N   0  0  0  0  0  0  0  0  0  0  0  0
  191.8670  176.3230  146.0730 C   0  0  0  0  0  2  0  0  0  0  0  0
  191.2730  177.0570  148.3820 C   0  0  0  0  0  1  0  0  0  0  0  0
  190.7230  176.6190  147.0380 C   0  0  1  0  0  3  0  0  0  0  0  0
  189.7270  177.6390  146.4730 C   0  0  0  0  0  2  0  0  0  0  0  0
  188.2950  175.5830  146.5040 C   0  0  0  0  0  1  0  0  0  0  0  0
  188.3120  177.0870  146.3020 C   0  0  1  0  0  3  0  0  0  0  0  0
  187.2560  177.8140  147.1550 C   0  0  0  0  0  2  0  0  0  0  0  0
  186.2140  178.6560  146.4020 C   0  0  2  0  0  3  0  0  0  0  0  0
  184.9200  178.4320  146.8820 O   0  0  0  0  0  0  0  0  0  0  0  0
  184.6560  177.0900  146.6030 C   0  0  0  0  0  1  0  0  0  0  0  0
  186.2810  178.4240  144.8990 C   0  0  0  0  0  2  0  0  0  0  0  0
  185.6890  179.6050  144.1530 C   0  0  0  0  0  1  0  0  0  0  0  0
  191.2550  174.3300  144.7080 C   0  0  0  0  0  2  0  0  0  0  0  0
  191.2630  175.3390  143.6590 N   0  0  0  0  0  2  0  0  0  0  0  0
  190.0660  175.9090  143.1220 C   0  0  0  0  0  0  0  0  0  0  0  0
  187.5820  175.7960  142.6440 C   0  0  0  0  0  2  0  0  0  0  0  0
  190.0630  177.2110  142.7810 C   0  0  0  0  0  0  0  0  0  0  0  0
  188.8320  177.8990  142.2500 C   0  0  0  0  0  2  0  0  0  0  0  0
  191.2060  177.9780  142.9750 O   0  0  0  0  0  1  0  0  0  0  0  0
  187.8220  176.9230  141.6560 C   0  0  0  0  0  2  0  0  0  0  0  0
  188.8790  175.0160  142.8390 C   0  0  0  0  0  2  0  0  0  0  0  0
  1 25  1  6  0  0  0
  1 13  1  0  0  0  0
  2  6  1  0  0  0  0
  3  2  2  0  0  0  0
  4  3  1  0  0  0  0
  4  5  2  0  0  0  0
  5  1  1  0  0  0  0
  5  6  1  0  0  0  0
  9  7  2  0  0  0  0
  9  8  1  0  0  0  0
 10  3  1  1  0  0  0
 10  7  1  0  0  0  0
 11  9  1  0  0  0  0
 12 10  1  0  0  0  0
 12 11  2  0  0  0  0
 13 15  1  0  0  0  0
 15 14  1  1  0  0  0
 16 15  1  0  0  0  0
 18 16  1  0  0  0  0
 18 17  1  1  0  0  0
 18 19  1  0  0  0  0
 20 23  1  6  0  0  0
 20 21  1  0  0  0  0
 20 19  1  0  0  0  0
 22 21  1  0  0  0  0
 24 23  1  0  0  0  0
 26 25  1  0  0  0  0
 27 26  1  0  0  0  0
 28 33  1  0  0  0  0
 29 31  1  0  0  0  0
 29 27  2  0  0  0  0
 30 29  1  0  0  0  0
 32 30  1  0  0  0  0
 32 28  1  0  0  0  0
 33 27  1  0  0  0  0
M  END
>  <MODEL>
3

>  <REMARK>
 VINA RESULT:      -5.9      3.544      6.857
  Name = 
  13 active torsions:
  status: ('A' for Active; 'I' for Inactive)
    1  A    between atoms: C_3  and  N_28
    2  A    between atoms: C_4  and  C_17
    3  A    between atoms: C_4  and  C_27
    4  A    between atoms: C_6  and  C_14
    5  A    between atoms: C_8  and  O_10
    6  A    between atoms: C_8  and  C_20
    7  A    between atoms: C_8  and  C_29
    8  A    between atoms: C_16  and  C_17
    9  A    between atoms: C_16  and  N_28
   10  A    between atoms: C_17  and  C_25
   11  A    between atoms: C_22  and  C_23
   12  A    between atoms: C_22  and  C_29
   13  A    between atoms: C_23  and  C_27
                            x       y       z     vdW  Elec       q    Type
                         _______ _______ _______ _____ _____    ______ ____

>  <TORSDO>
F 13

$$$$
=
 OpenBabel11042415043D

 33 35  0  0  1  0  0  0  0  0999 V2000
  192.1340  174.7190  145.8190 C   0  0  1  0  0  3  0  0  0  0  0  0
  195.4110  173.3760  144.6080 N   0  0  0  0  0  0  0  0  0  0  0  0
  195.5080  174.6640  144.5610 C   0  0  0  0  0  0  0  0  0  0  0  0
  194.3410  175.3520  144.9910 N   0  0  0  0  0  0  0  0  0  0  0  0
  193.5170  174.4250  145.3370 C   0  0  0  0  0  0  0  0  0  0  0  0
  194.0920  173.0610  145.1340 C   0  0  0  0  0  2  0  0  0  0  0  0
  197.1650  174.6850  142.7520 C   0  0  0  0  0  3  0  0  0  0  0  0
  197.4440  175.3280  140.1160 Cl  0  0  0  0  0  0  0  0  0  0  0  0
  197.0500  175.5940  141.8010 C   0  0  0  0  0  0  0  0  0  0  0  0
  196.7150  175.3550  144.0150 C   0  0  1  0  0  3  0  0  0  0  0  0
  196.5590  176.8180  142.3120 N   0  0  0  0  0  0  0  0  0  0  0  0
  196.3660  176.6960  143.5600 N   0  0  0  0  0  0  0  0  0  0  0  0
  191.9550  176.2160  146.0430 C   0  0  0  0  0  2  0  0  0  0  0  0
  191.3140  176.9830  148.3280 C   0  0  0  0  0  1  0  0  0  0  0  0
  190.7930  176.4930  146.9910 C   0  0  1  0  0  3  0  0  0  0  0  0
  189.7660  177.4610  146.3940 C   0  0  0  0  0  2  0  0  0  0  0  0
  188.0710  175.6950  146.9310 C   0  0  0  0  0  1  0  0  0  0  0  0
  188.4670  176.7860  145.9530 C   0  0  1  0  0  3  0  0  0  0  0  0
  187.3210  177.7730  145.6660 C   0  0  0  0  0  2  0  0  0  0  0  0
  185.8970  177.1950  145.6350 C   0  0  2  0  0  3  0  0  0  0  0  0
  185.3090  177.3310  144.3730 O   0  0  0  0  0  0  0  0  0  0  0  0
  185.6540  178.6150  143.9480 C   0  0  0  0  0  1  0  0  0  0  0  0
  185.0160  177.8110  146.7130 C   0  0  0  0  0  2  0  0  0  0  0  0
  185.8280  178.7390  147.5950 C   0  0  0  0  0  1  0  0  0  0  0  0
  191.1110  174.2170  144.8170 C   0  0  0  0  0  2  0  0  0  0  0  0
  191.1510  175.0440  143.6190 N   0  0  0  0  0  2  0  0  0  0  0  0
  189.9820  175.6320  143.0420 C   0  0  0  0  0  0  0  0  0  0  0  0
  187.5150  175.5500  142.4720 C   0  0  0  0  0  2  0  0  0  0  0  0
  190.0050  176.9360  142.7110 C   0  0  0  0  0  0  0  0  0  0  0  0
  188.8020  177.6410  142.1400 C   0  0  0  0  0  2  0  0  0  0  0  0
  191.1490  177.6880  142.9520 O   0  0  0  0  0  1  0  0  0  0  0  0
  187.8050  176.6810  141.5010 C   0  0  0  0  0  2  0  0  0  0  0  0
  188.7950  174.7540  142.7100 C   0  0  0  0  0  2  0  0  0  0  0  0
  1 25  1  6  0  0  0
  1 13  1  0  0  0  0
  2  6  1  0  0  0  0
  3  2  2  0  0  0  0
  3  4  1  0  0  0  0
  4  5  2  0  0  0  0
  5  1  1  0  0  0  0
  6  5  1  0  0  0  0
  7 10  1  0  0  0  0
  8  9  1  0  0  0  0
  9 11  1  0  0  0  0
  9  7  2  0  0  0  0
 10  3  1  6  0  0  0
 11 12  2  0  0  0  0
 12 10  1  0  0  0  0
 13 15  1  0  0  0  0
 15 14  1  1  0  0  0
 16 15  1  0  0  0  0
 18 16  1  0  0  0  0
 18 17  1  1  0  0  0
 19 18  1  0  0  0  0
 20 19  1  6  0  0  0
 20 23  1  0  0  0  0
 21 20  1  0  0  0  0
 22 21  1  0  0  0  0
 23 24  1  0  0  0  0
 26 25  1  0  0  0  0
 27 26  1  0  0  0  0
 28 33  1  0  0  0  0
 29 31  1  0  0  0  0
 29 27  2  0  0  0  0
 30 29  1  0  0  0  0
 32 30  1  0  0  0  0
 32 28  1  0  0  0  0
 33 27  1  0  0  0  0
M  END
>  <MODEL>
4

>  <REMARK>
 VINA RESULT:      -5.9      3.277      6.219
  Name = 
  13 active torsions:
  status: ('A' for Active; 'I' for Inactive)
    1  A    between atoms: C_3  and  N_28
    2  A    between atoms: C_4  and  C_17
    3  A    between atoms: C_4  and  C_27
    4  A    between atoms: C_6  and  C_14
    5  A    between atoms: C_8  and  O_10
    6  A    between atoms: C_8  and  C_20
    7  A    between atoms: C_8  and  C_29
    8  A    between atoms: C_16  and  C_17
    9  A    between atoms: C_16  and  N_28
   10  A    between atoms: C_17  and  C_25
   11  A    between atoms: C_22  and  C_23
   12  A    between atoms: C_22  and  C_29
   13  A    between atoms: C_23  and  C_27
                            x       y       z     vdW  Elec       q    Type
                         _______ _______ _______ _____ _____    ______ ____

>  <TORSDO>
F 13

$$$$
=
 OpenBabel11042415043D

 33 35  0  0  1  0  0  0  0  0999 V2000
  188.3150  176.4170  142.6600 C   0  0  1  0  0  3  0  0  0  0  0  0
  189.8780  173.6960  140.6210 N   0  0  0  0  0  0  0  0  0  0  0  0
  188.8040  174.0460  139.9940 C   0  0  0  0  0  0  0  0  0  0  0  0
  188.0700  175.0840  140.6300 N   0  0  0  0  0  0  0  0  0  0  0  0
  188.7590  175.3840  141.6760 C   0  0  0  0  0  0  0  0  0  0  0  0
  189.9860  174.5410  141.8000 C   0  0  0  0  0  2  0  0  0  0  0  0
  188.9330  174.0010  137.5450 C   0  0  0  0  0  3  0  0  0  0  0  0
  190.6100  173.3140  135.5060 Cl  0  0  0  0  0  0  0  0  0  0  0  0
  189.6800  173.0750  136.9690 C   0  0  0  0  0  0  0  0  0  0  0  0
  188.3380  173.3510  138.7570 C   0  0  1  0  0  3  0  0  0  0  0  0
  189.6410  171.8580  137.6880 N   0  0  0  0  0  0  0  0  0  0  0  0
  188.8870  172.0000  138.6990 N   0  0  0  0  0  0  0  0  0  0  0  0
  189.3050  177.5740  142.7020 C   0  0  0  0  0  2  0  0  0  0  0  0
  191.3220  178.5250  143.8190 C   0  0  0  0  0  1  0  0  0  0  0  0
  190.3270  177.3810  143.8170 C   0  0  1  0  0  3  0  0  0  0  0  0
  189.6700  177.1990  145.1910 C   0  0  0  0  0  2  0  0  0  0  0  0
  189.2700  175.4260  146.9160 C   0  0  0  0  0  1  0  0  0  0  0  0
  190.3100  176.0980  146.0370 C   0  0  1  0  0  3  0  0  0  0  0  0
  191.1390  175.0900  145.2200 C   0  0  0  0  0  2  0  0  0  0  0  0
  192.6570  175.0820  145.4610 C   0  0  2  0  0  3  0  0  0  0  0  0
  193.1670  173.7810  145.5160 O   0  0  0  0  0  0  0  0  0  0  0  0
  192.3290  173.0270  144.6910 C   0  0  0  0  0  1  0  0  0  0  0  0
  193.0330  175.8650  146.7110 C   0  0  0  0  0  2  0  0  0  0  0  0
  194.1690  176.8250  146.4130 C   0  0  0  0  0  1  0  0  0  0  0  0
  186.9330  176.9280  142.2960 C   0  0  0  0  0  2  0  0  0  0  0  0
  185.9570  176.4250  143.2520 N   0  0  0  0  0  2  0  0  0  0  0  0
  185.5570  177.1600  144.4120 C   0  0  0  0  0  0  0  0  0  0  0  0
  185.9210  177.8740  146.8150 C   0  0  0  0  0  2  0  0  0  0  0  0
  184.5980  178.0970  144.2890 C   0  0  0  0  0  0  0  0  0  0  0  0
  184.1510  178.9460  145.4510 C   0  0  0  0  0  2  0  0  0  0  0  0
  184.0340  178.3470  143.0440 O   0  0  0  0  0  1  0  0  0  0  0  0
  184.4660  178.3090  146.8000 C   0  0  0  0  0  2  0  0  0  0  0  0
  186.1290  176.7890  145.7620 C   0  0  0  0  0  2  0  0  0  0  0  0
  1 25  1  6  0  0  0
  1 13  1  0  0  0  0
  2  6  1  0  0  0  0
  3  2  2  0  0  0  0
  3  4  1  0  0  0  0
  4  5  2  0  0  0  0
  5  6  1  0  0  0  0
  5  1  1  0  0  0  0
  7 10  1  0  0  0  0
  8  9  1  0  0  0  0
  9  7  2  0  0  0  0
  9 11  1  0  0  0  0
 10  3  1  1  0  0  0
 11 12  2  0  0  0  0
 12 10  1  0  0  0  0
 13 15  1  0  0  0  0
 15 14  1  1  0  0  0
 15 16  1  0  0  0  0
 16 18  1  0  0  0  0
 18 17  1  6  0  0  0
 19 18  1  0  0  0  0
 20 19  1  1  0  0  0
 20 21  1  0  0  0  0
 20 23  1  0  0  0  0
 22 21  1  0  0  0  0
 24 23  1  0  0  0  0
 25 26  1  0  0  0  0
 26 27  1  0  0  0  0
 27 33  1  0  0  0  0
 29 27  2  0  0  0  0
 29 30  1  0  0  0  0
 30 32  1  0  0  0  0
 31 29  1  0  0  0  0
 32 28  1  0  0  0  0
 33 28  1  0  0  0  0
M  END
>  <MODEL>
5

>  <REMARK>
 VINA RESULT:      -5.9      3.307      6.689
  Name = 
  13 active torsions:
  status: ('A' for Active; 'I' for Inactive)
    1  A    between atoms: C_3  and  N_28
    2  A    between atoms: C_4  and  C_17
    3  A    between atoms: C_4  and  C_27
    4  A    between atoms: C_6  and  C_14
    5  A    between atoms: C_8  and  O_10
    6  A    between atoms: C_8  and  C_20
    7  A    between atoms: C_8  and  C_29
    8  A    between atoms: C_16  and  C_17
    9  A    between atoms: C_16  and  N_28
   10  A    between atoms: C_17  and  C_25
   11  A    between atoms: C_22  and  C_23
   12  A    between atoms: C_22  and  C_29
   13  A    between atoms: C_23  and  C_27
                            x       y       z     vdW  Elec       q    Type
                         _______ _______ _______ _____ _____    ______ ____

>  <TORSDO>
F 13

$$$$
=
 OpenBabel11042415043D

 33 35  0  0  1  0  0  0  0  0999 V2000
  190.7340  174.5490  145.5650 C   0  0  1  0  0  3  0  0  0  0  0  0
  188.9730  177.5180  147.0110 N   0  0  0  0  0  0  0  0  0  0  0  0
  188.0500  176.7330  146.5630 C   0  0  0  0  0  0  0  0  0  0  0  0
  188.5400  175.5370  145.9710 N   0  0  0  0  0  0  0  0  0  0  0  0
  189.8190  175.6030  146.0980 C   0  0  0  0  0  0  0  0  0  0  0  0
  190.2510  176.8660  146.7690 C   0  0  0  0  0  2  0  0  0  0  0  0
  186.4330  178.5480  146.2300 C   0  0  0  0  0  3  0  0  0  0  0  0
  185.2360  180.0080  144.2620 Cl  0  0  0  0  0  0  0  0  0  0  0  0
  185.7190  178.5600  145.1190 C   0  0  0  0  0  0  0  0  0  0  0  0
  186.6030  177.1030  146.5900 C   0  0  1  0  0  3  0  0  0  0  0  0
  185.3930  177.2500  144.6990 N   0  0  0  0  0  0  0  0  0  0  0  0
  185.8860  176.4180  145.5210 N   0  0  0  0  0  0  0  0  0  0  0  0
  190.6940  174.5290  144.0420 C   0  0  0  0  0  2  0  0  0  0  0  0
  189.7890  172.2890  144.6660 C   0  0  0  0  0  1  0  0  0  0  0  0
  190.0030  173.2690  143.5290 C   0  0  1  0  0  3  0  0  0  0  0  0
  188.6950  173.5760  142.7910 C   0  0  0  0  0  2  0  0  0  0  0  0
  188.5750  174.4690  140.4530 C   0  0  0  0  0  1  0  0  0  0  0  0
  188.7610  174.8280  141.9160 C   0  0  1  0  0  3  0  0  0  0  0  0
  187.8210  175.9570  142.3760 C   0  0  0  0  0  2  0  0  0  0  0  0
  188.3430  177.3960  142.2390 C   0  0  2  0  0  3  0  0  0  0  0  0
  188.8770  177.8720  143.4410 O   0  0  0  0  0  0  0  0  0  0  0  0
  190.2480  177.9880  143.2090 C   0  0  0  0  0  1  0  0  0  0  0  0
  187.2690  178.3370  141.7130 C   0  0  0  0  0  2  0  0  0  0  0  0
  186.0940  177.5480  141.1670 C   0  0  0  0  0  1  0  0  0  0  0  0
  192.1530  174.7940  146.0450 C   0  0  0  0  0  2  0  0  0  0  0  0
  193.0930  174.4750  144.9790 N   0  0  0  0  0  2  0  0  0  0  0  0
  194.3690  173.8770  145.2240 C   0  0  0  0  0  0  0  0  0  0  0  0
  195.8820  171.8480  145.3070 C   0  0  0  0  0  2  0  0  0  0  0  0
  195.4450  174.6730  145.3590 C   0  0  0  0  0  0  0  0  0  0  0  0
  196.8300  174.1220  145.5740 C   0  0  0  0  0  2  0  0  0  0  0  0
  195.3020  176.0510  145.2380 O   0  0  0  0  0  1  0  0  0  0  0  0
  196.8190  172.7060  146.1390 C   0  0  0  0  0  2  0  0  0  0  0  0
  194.4600  172.3830  145.4430 C   0  0  0  0  0  2  0  0  0  0  0  0
  1 13  1  6  0  0  0
  1 25  1  0  0  0  0
  1  5  1  0  0  0  0
  3  2  2  0  0  0  0
  4  5  2  0  0  0  0
  4  3  1  0  0  0  0
  5  6  1  0  0  0  0
  6  2  1  0  0  0  0
  7 10  1  0  0  0  0
  8  9  1  0  0  0  0
  9  7  2  0  0  0  0
 10  3  1  6  0  0  0
 11  9  1  0  0  0  0
 11 12  2  0  0  0  0
 12 10  1  0  0  0  0
 15 13  1  0  0  0  0
 15 14  1  1  0  0  0
 16 15  1  0  0  0  0
 18 17  1  6  0  0  0
 18 19  1  0  0  0  0
 18 16  1  0  0  0  0
 20 23  1  1  0  0  0
 20 19  1  0  0  0  0
 20 21  1  0  0  0  0
 22 21  1  0  0  0  0
 24 23  1  0  0  0  0
 26 27  1  0  0  0  0
 26 25  1  0  0  0  0
 27 29  2  0  0  0  0
 27 33  1  0  0  0  0
 28 33  1  0  0  0  0
 28 32  1  0  0  0  0
 29 30  1  0  0  0  0
 30 32  1  0  0  0  0
 31 29  1  0  0  0  0
M  END
>  <MODEL>
6

>  <REMARK>
 VINA RESULT:      -5.7      2.221      4.144
  Name = 
  13 active torsions:
  status: ('A' for Active; 'I' for Inactive)
    1  A    between atoms: C_3  and  N_28
    2  A    between atoms: C_4  and  C_17
    3  A    between atoms: C_4  and  C_27
    4  A    between atoms: C_6  and  C_14
    5  A    between atoms: C_8  and  O_10
    6  A    between atoms: C_8  and  C_20
    7  A    between atoms: C_8  and  C_29
    8  A    between atoms: C_16  and  C_17
    9  A    between atoms: C_16  and  N_28
   10  A    between atoms: C_17  and  C_25
   11  A    between atoms: C_22  and  C_23
   12  A    between atoms: C_22  and  C_29
   13  A    between atoms: C_23  and  C_27
                            x       y       z     vdW  Elec       q    Type
                         _______ _______ _______ _____ _____    ______ ____

>  <TORSDO>
F 13

$$$$
=
 OpenBabel11042415043D

 33 35  0  0  1  0  0  0  0  0999 V2000
  188.1530  175.1290  143.2860 C   0  0  1  0  0  3  0  0  0  0  0  0
  189.4500  173.5210  140.1650 N   0  0  0  0  0  0  0  0  0  0  0  0
  189.9870  172.8820  141.1510 C   0  0  0  0  0  0  0  0  0  0  0  0
  189.6030  173.3600  142.4330 N   0  0  0  0  0  0  0  0  0  0  0  0
  188.7750  174.3170  142.1960 C   0  0  0  0  0  0  0  0  0  0  0  0
  188.5780  174.5380  140.7320 C   0  0  0  0  0  2  0  0  0  0  0  0
  192.3790  172.3530  141.0250 C   0  0  0  0  0  3  0  0  0  0  0  0
  194.5870  172.0550  142.5990 Cl  0  0  0  0  0  0  0  0  0  0  0  0
  192.9490  171.7580  142.0580 C   0  0  0  0  0  0  0  0  0  0  0  0
  190.9910  171.7950  140.9470 C   0  0  1  0  0  3  0  0  0  0  0  0
  192.0650  170.8470  142.6820 N   0  0  0  0  0  0  0  0  0  0  0  0
  190.9570  170.8580  142.0650 N   0  0  0  0  0  0  0  0  0  0  0  0
  189.1940  175.4960  144.3360 C   0  0  0  0  0  2  0  0  0  0  0  0
  189.4830  177.5670  145.6960 C   0  0  0  0  0  1  0  0  0  0  0  0
  189.5110  176.9880  144.2950 C   0  0  1  0  0  3  0  0  0  0  0  0
  190.8370  177.2870  143.5850 C   0  0  0  0  0  2  0  0  0  0  0  0
  192.5200  175.6580  142.6930 C   0  0  0  0  0  1  0  0  0  0  0  0
  191.9600  176.3130  143.9430 C   0  0  1  0  0  3  0  0  0  0  0  0
  193.0540  176.9300  144.8330 C   0  0  0  0  0  2  0  0  0  0  0  0
  193.2330  176.3240  146.2340 C   0  0  2  0  0  3  0  0  0  0  0  0
  194.5670  175.9890  146.4880 O   0  0  0  0  0  0  0  0  0  0  0  0
  194.8270  174.8870  145.6720 C   0  0  0  0  0  1  0  0  0  0  0  0
  192.3230  175.1240  146.4500 C   0  0  0  0  0  2  0  0  0  0  0  0
  191.4720  175.3210  147.6900 C   0  0  0  0  0  1  0  0  0  0  0  0
  187.5270  176.3860  142.7110 C   0  0  0  0  0  2  0  0  0  0  0  0
  186.1060  176.4140  143.0270 N   0  0  0  0  0  2  0  0  0  0  0  0
  185.5650  177.1910  144.1000 C   0  0  0  0  0  0  0  0  0  0  0  0
  185.5220  177.8670  146.5400 C   0  0  0  0  0  2  0  0  0  0  0  0
  184.7530  178.2230  143.8090 C   0  0  0  0  0  0  0  0  0  0  0  0
  184.1760  179.1170  144.8770 C   0  0  0  0  0  2  0  0  0  0  0  0
  184.4730  178.5290  142.4820 O   0  0  0  0  0  1  0  0  0  0  0  0
  184.1520  178.4550  146.2490 C   0  0  0  0  0  2  0  0  0  0  0  0
  185.8190  176.7640  145.5280 C   0  0  0  0  0  2  0  0  0  0  0  0
  1 25  1  6  0  0  0
  1 13  1  0  0  0  0
  2  6  1  0  0  0  0
  2  3  2  0  0  0  0
  3  4  1  0  0  0  0
  5  4  2  0  0  0  0
  5  1  1  0  0  0  0
  6  5  1  0  0  0  0
  7  9  2  0  0  0  0
  9  8  1  0  0  0  0
  9 11  1  0  0  0  0
 10  7  1  0  0  0  0
 10  3  1  1  0  0  0
 10 12  1  0  0  0  0
 12 11  2  0  0  0  0
 15 13  1  0  0  0  0
 15 14  1  1  0  0  0
 16 18  1  0  0  0  0
 16 15  1  0  0  0  0
 18 17  1  6  0  0  0
 18 19  1  0  0  0  0
 20 19  1  6  0  0  0
 20 23  1  0  0  0  0
 20 21  1  0  0  0  0
 22 21  1  0  0  0  0
 23 24  1  0  0  0  0
 25 26  1  0  0  0  0
 26 27  1  0  0  0  0
 27 33  1  0  0  0  0
 29 27  2  0  0  0  0
 29 30  1  0  0  0  0
 30 32  1  0  0  0  0
 31 29  1  0  0  0  0
 32 28  1  0  0  0  0
 33 28  1  0  0  0  0
M  END
>  <MODEL>
7

>  <REMARK>
 VINA RESULT:      -5.7      3.089      6.765
  Name = 
  13 active torsions:
  status: ('A' for Active; 'I' for Inactive)
    1  A    between atoms: C_3  and  N_28
    2  A    between atoms: C_4  and  C_17
    3  A    between atoms: C_4  and  C_27
    4  A    between atoms: C_6  and  C_14
    5  A    between atoms: C_8  and  O_10
    6  A    between atoms: C_8  and  C_20
    7  A    between atoms: C_8  and  C_29
    8  A    between atoms: C_16  and  C_17
    9  A    between atoms: C_16  and  N_28
   10  A    between atoms: C_17  and  C_25
   11  A    between atoms: C_22  and  C_23
   12  A    between atoms: C_22  and  C_29
   13  A    between atoms: C_23  and  C_27
                            x       y       z     vdW  Elec       q    Type
                         _______ _______ _______ _____ _____    ______ ____

>  <TORSDO>
F 13

$$$$
=
 OpenBabel11042415043D

 33 35  0  0  1  0  0  0  0  0999 V2000
  189.9090  177.3470  144.5340 C   0  0  1  0  0  3  0  0  0  0  0  0
  192.7740  175.6870  146.2780 N   0  0  0  0  0  0  0  0  0  0  0  0
  193.1220  175.8020  145.0390 C   0  0  0  0  0  0  0  0  0  0  0  0
  192.1440  176.4200  144.2140 N   0  0  0  0  0  0  0  0  0  0  0  0
  191.1740  176.7110  145.0100 C   0  0  0  0  0  0  0  0  0  0  0  0
  191.4530  176.2810  146.4130 C   0  0  0  0  0  2  0  0  0  0  0  0
  194.4880  175.4470  143.0320 C   0  0  0  0  0  3  0  0  0  0  0  0
  196.0710  176.7870  141.2600 Cl  0  0  0  0  0  0  0  0  0  0  0  0
  195.5290  176.2340  142.8300 C   0  0  0  0  0  0  0  0  0  0  0  0
  194.4070  175.2490  144.5150 C   0  0  1  0  0  3  0  0  0  0  0  0
  196.1570  176.5840  144.0480 N   0  0  0  0  0  0  0  0  0  0  0  0
  195.5340  176.0340  145.0070 N   0  0  0  0  0  0  0  0  0  0  0  0
  189.8830  177.4090  143.0120 C   0  0  0  0  0  2  0  0  0  0  0  0
  187.8440  177.3130  141.5780 C   0  0  0  0  0  1  0  0  0  0  0  0
  188.7910  176.5060  142.4450 C   0  0  1  0  0  3  0  0  0  0  0  0
  189.3600  175.2980  141.6920 C   0  0  0  0  0  2  0  0  0  0  0  0
  188.2010  173.4410  140.4720 C   0  0  0  0  0  1  0  0  0  0  0  0
  188.5160  174.0310  141.8350 C   0  0  1  0  0  3  0  0  0  0  0  0
  189.1100  172.9970  142.8080 C   0  0  0  0  0  2  0  0  0  0  0  0
  190.6220  173.0790  143.0720 C   0  0  2  0  0  3  0  0  0  0  0  0
  191.3340  172.1540  142.3020 O   0  0  0  0  0  0  0  0  0  0  0  0
  190.6040  170.9670  142.3930 C   0  0  0  0  0  1  0  0  0  0  0  0
  190.9460  172.9160  144.5510 C   0  0  0  0  0  2  0  0  0  0  0  0
  189.7010  173.1260  145.3910 C   0  0  0  0  0  1  0  0  0  0  0  0
  188.7080  176.5720  145.0440 C   0  0  0  0  0  2  0  0  0  0  0  0
  187.9670  177.3870  145.9970 N   0  0  0  0  0  2  0  0  0  0  0  0
  186.6210  177.8120  145.7710 C   0  0  0  0  0  0  0  0  0  0  0  0
  184.8110  178.7180  144.2480 C   0  0  0  0  0  2  0  0  0  0  0  0
  185.6860  177.5290  146.6970 C   0  0  0  0  0  0  0  0  0  0  0  0
  184.2370  177.9020  146.5170 C   0  0  0  0  0  2  0  0  0  0  0  0
  186.0380  176.8150  147.8370 O   0  0  0  0  0  1  0  0  0  0  0  0
  184.0420  179.0380  145.5180 C   0  0  0  0  0  2  0  0  0  0  0  0
  186.3030  178.6680  144.5650 C   0  0  0  0  0  2  0  0  0  0  0  0
  1 13  1  6  0  0  0
  1  5  1  0  0  0  0
  1 25  1  0  0  0  0
  2  6  1  0  0  0  0
  3  2  2  0  0  0  0
  4  5  2  0  0  0  0
  4  3  1  0  0  0  0
  5  6  1  0  0  0  0
  7 10  1  0  0  0  0
  8  9  1  0  0  0  0
  9  7  2  0  0  0  0
  9 11  1  0  0  0  0
 10 12  1  0  0  0  0
 10  3  1  1  0  0  0
 11 12  2  0  0  0  0
 15 14  1  6  0  0  0
 15 13  1  0  0  0  0
 16 18  1  0  0  0  0
 16 15  1  0  0  0  0
 18 17  1  6  0  0  0
 18 19  1  0  0  0  0
 20 19  1  1  0  0  0
 20 23  1  0  0  0  0
 21 22  1  0  0  0  0
 21 20  1  0  0  0  0
 23 24  1  0  0  0  0
 25 26  1  0  0  0  0
 27 26  1  0  0  0  0
 27 29  2  0  0  0  0
 28 33  1  0  0  0  0
 28 32  1  0  0  0  0
 29 31  1  0  0  0  0
 30 29  1  0  0  0  0
 32 30  1  0  0  0  0
 33 27  1  0  0  0  0
M  END
>  <MODEL>
8

>  <REMARK>
 VINA RESULT:      -5.7      3.052      7.527
  Name = 
  13 active torsions:
  status: ('A' for Active; 'I' for Inactive)
    1  A    between atoms: C_3  and  N_28
    2  A    between atoms: C_4  and  C_17
    3  A    between atoms: C_4  and  C_27
    4  A    between atoms: C_6  and  C_14
    5  A    between atoms: C_8  and  O_10
    6  A    between atoms: C_8  and  C_20
    7  A    between atoms: C_8  and  C_29
    8  A    between atoms: C_16  and  C_17
    9  A    between atoms: C_16  and  N_28
   10  A    between atoms: C_17  and  C_25
   11  A    between atoms: C_22  and  C_23
   12  A    between atoms: C_22  and  C_29
   13  A    between atoms: C_23  and  C_27
                            x       y       z     vdW  Elec       q    Type
                         _______ _______ _______ _____ _____    ______ ____

>  <TORSDO>
F 13

$$$$
=
 OpenBabel11042415043D

 33 35  0  0  1  0  0  0  0  0999 V2000
  189.8130  174.5870  142.9610 C   0  0  1  0  0  3  0  0  0  0  0  0
  189.0260  173.9080  139.3660 N   0  0  0  0  0  0  0  0  0  0  0  0
  190.2090  173.4310  139.5740 C   0  0  0  0  0  0  0  0  0  0  0  0
  190.6790  173.6000  140.9050 N   0  0  0  0  0  0  0  0  0  0  0  0
  189.7150  174.1850  141.5260 C   0  0  0  0  0  0  0  0  0  0  0  0
  188.5520  174.4530  140.6280 C   0  0  0  0  0  2  0  0  0  0  0  0
  190.2230  171.8470  137.7010 C   0  0  0  0  0  2  0  0  0  0  0  0
  189.3130  171.5510  135.1460 Cl  0  0  0  0  0  0  0  0  0  0  0  0
  190.1570  172.3240  136.4710 C   0  0  0  0  0  0  0  0  0  0  0  0
  191.0350  172.8370  138.4800 C   0  0  1  0  0  3  0  0  0  0  0  0
  190.8530  173.5500  136.3530 N   0  0  0  0  0  0  0  0  0  0  0  0
  191.3540  173.8500  137.4800 N   0  0  0  0  0  2  0  0  0  0  0  0
  188.7180  175.5870  143.3100 C   0  0  0  0  0  2  0  0  0  0  0  0
  189.2730  177.9130  142.6000 C   0  0  0  0  0  1  0  0  0  0  0  0
  189.3130  176.9220  143.7470 C   0  0  1  0  0  3  0  0  0  0  0  0
  188.6380  177.4830  145.0040 C   0  0  0  0  0  2  0  0  0  0  0  0
  187.3740  176.4130  146.8850 C   0  0  0  0  0  1  0  0  0  0  0  0
  187.3640  176.7380  145.4020 C   0  0  1  0  0  3  0  0  0  0  0  0
  186.0690  177.4430  144.9560 C   0  0  0  0  0  2  0  0  0  0  0  0
  186.0160  178.9700  145.1240 C   0  0  2  0  0  3  0  0  0  0  0  0
  185.2680  179.3430  146.2460 O   0  0  0  0  0  0  0  0  0  0  0  0
  184.0620  178.6490  146.1250 C   0  0  0  0  0  1  0  0  0  0  0  0
  185.4920  179.6570  143.8710 C   0  0  0  0  0  2  0  0  0  0  0  0
  185.6980  178.7710  142.6570 C   0  0  0  0  0  1  0  0  0  0  0  0
  189.7080  173.3660  143.8570 C   0  0  0  0  0  2  0  0  0  0  0  0
  190.9360  173.2140  144.6240 N   0  0  0  0  0  2  0  0  0  0  0  0
  191.4010  174.2020  145.5480 C   0  0  0  0  0  0  0  0  0  0  0  0
  191.1900  175.4600  147.7360 C   0  0  0  0  0  2  0  0  0  0  0  0
  192.6310  174.7210  145.3790 C   0  0  0  0  0  0  0  0  0  0  0  0
  193.2130  175.7330  146.3310 C   0  0  0  0  0  2  0  0  0  0  0  0
  193.4290  174.2770  144.3310 O   0  0  0  0  0  1  0  0  0  0  0  0
  192.1450  176.4720  147.1300 C   0  0  0  0  0  2  0  0  0  0  0  0
  190.4640  174.7230  146.6140 C   0  0  0  0  0  2  0  0  0  0  0  0
  1 13  1  1  0  0  0
  1 25  1  0  0  0  0
  2  3  2  0  0  0  0
  2  6  1  0  0  0  0
  3  4  1  0  0  0  0
  4  5  2  0  0  0  0
  5  1  1  0  0  0  0
  6  5  1  0  0  0  0
  7 10  1  0  0  0  0
  8  9  1  0  0  0  0
  9  7  1  0  0  0  0
 10  3  1  1  0  0  0
 11  9  2  0  0  0  0
 11 12  1  0  0  0  0
 12 10  1  0  0  0  0
 13 15  1  0  0  0  0
 15 14  1  6  0  0  0
 15 16  1  0  0  0  0
 16 18  1  0  0  0  0
 18 17  1  1  0  0  0
 19 20  1  0  0  0  0
 19 18  1  0  0  0  0
 20 23  1  6  0  0  0
 20 21  1  0  0  0  0
 22 21  1  0  0  0  0
 24 23  1  0  0  0  0
 25 26  1  0  0  0  0
 26 27  1  0  0  0  0
 27 33  1  0  0  0  0
 29 27  2  0  0  0  0
 29 30  1  0  0  0  0
 30 32  1  0  0  0  0
 31 29  1  0  0  0  0
 32 28  1  0  0  0  0
 33 28  1  0  0  0  0
M  END
>  <MODEL>
9

>  <REMARK>
 VINA RESULT:      -5.7      3.542      4.639
  Name = 
  13 active torsions:
  status: ('A' for Active; 'I' for Inactive)
    1  A    between atoms: C_3  and  N_28
    2  A    between atoms: C_4  and  C_17
    3  A    between atoms: C_4  and  C_27
    4  A    between atoms: C_6  and  C_14
    5  A    between atoms: C_8  and  O_10
    6  A    between atoms: C_8  and  C_20
    7  A    between atoms: C_8  and  C_29
    8  A    between atoms: C_16  and  C_17
    9  A    between atoms: C_16  and  N_28
   10  A    between atoms: C_17  and  C_25
   11  A    between atoms: C_22  and  C_23
   12  A    between atoms: C_22  and  C_29
   13  A    between atoms: C_23  and  C_27
                            x       y       z     vdW  Elec       q    Type
                         _______ _______ _______ _____ _____    ______ ____

>  <TORSDO>
F 13

$$$$
