=
 OpenBabel11042413563D

 51 54  0  0  1  0  0  0  0  0999 V2000
  195.7120  172.0430  142.6130 C   0  0  1  0  0  3  0  0  0  0  0  0
  197.0860  173.2490  146.3440 O   0  0  0  0  0  0  0  0  0  0  0  0
  196.5130  173.8720  144.1530 C   0  0  0  0  0  2  0  0  0  0  0  0
  195.5270  169.2020  142.8190 Cl  0  0  0  0  0  0  0  0  0  0  0  0
  195.1130  172.2050  145.5950 C   0  0  2  0  0  3  0  0  0  0  0  0
  196.2860  173.1290  145.4310 C   0  0  0  0  0  0  0  0  0  0  0  0
  195.5030  170.8250  143.4960 C   0  0  0  0  0  0  0  0  0  0  0  0
  196.9020  172.9230  143.0300 C   0  0  0  0  0  2  0  0  0  0  0  0
  195.2400  170.9260  144.8090 C   0  0  0  0  0  3  0  0  0  0  0  0
  193.7940  172.8880  145.4000 C   0  0  0  0  0  0  0  0  0  0  0  0
  193.6220  174.2540  145.7830 N   0  0  0  0  0  2  0  0  0  0  0  0
  192.8390  172.2440  144.8930 O   0  0  0  0  0  0  0  0  0  0  0  0
  192.3450  174.9450  145.6800 C   0  0  2  0  0  3  0  0  0  0  0  0
  192.2730  175.6960  144.3520 C   0  0  1  0  0  3  0  0  0  0  0  0
  191.2770  175.0880  143.4820 N   0  0  0  0  0  2  0  0  0  0  0  0
  191.7900  177.0930  144.5730 C   0  0  0  0  0  2  0  0  0  0  0  0
  190.3650  177.0150  144.0940 C   0  0  1  0  0  3  0  0  0  0  0  0
  190.0770  175.6840  143.7420 O   0  0  0  0  0  0  0  0  0  0  0  0
  189.4390  177.4930  145.1220 N   0  0  0  0  0  2  0  0  0  0  0  0
  188.1830  176.8900  144.9220 N   0  0  0  0  0  0  0  0  0  0  0  0
  187.8390  176.2830  146.0830 O   0  0  0  0  0  1  0  0  0  0  0  0
  187.2050  177.9450  144.6460 C   0  0  0  0  0  2  0  0  0  0  0  0
  185.8360  177.4330  144.6780 N   0  0  0  0  0  0  0  0  0  0  0  0
  184.9980  178.5080  145.1890 C   0  0  0  0  0  3  0  0  0  0  0  0
  184.3480  178.0760  146.4920 C   0  0  0  0  0  2  0  0  0  0  0  0
  185.5450  178.9980  146.5180 C   0  0  0  0  0  2  0  0  0  0  0  0
  185.4470  177.2210  143.2900 C   0  0  0  0  0  2  0  0  0  0  0  0
  185.4550  178.5380  142.5340 C   0  0  0  0  0  2  0  0  0  0  0  0
  183.4260  178.1320  141.9780 O   0  0  0  0  0  1  0  0  0  0  0  0
  184.5810  178.4710  141.4490 O   0  0  0  0  0  0  0  0  0  0  0  0
  192.2050  175.9250  146.8390 C   0  0  0  0  0  2  0  0  0  0  0  0
  191.2120  175.4070  147.8620 C   0  0  0  0  0  1  0  0  0  0  0  0
  195.6540  171.7650  141.2270 O   0  0  0  0  0  0  0  0  0  0  0  0
  196.6120  172.5440  140.5520 C   0  0  0  0  0  2  0  0  0  0  0  0
  195.9730  173.2580  139.3750 C   0  0  0  0  0  2  0  0  0  0  0  0
  194.6140  172.6580  139.0670 C   0  0  0  0  0  2  0  0  0  0  0  0
  193.9550  175.0570  140.0560 O   0  0  0  0  0  0  0  0  0  0  0  0
  193.3340  173.8410  139.4260 S   0  0  0  0  0  0  0  0  0  0  0  0
  192.6380  174.2350  138.1540 O   0  0  0  0  0  0  0  0  0  0  0  0
  192.1890  173.1270  140.5110 N   0  0  0  0  0  2  0  0  0  0  0  0
  190.8480  171.0660  140.8720 C   0  0  0  0  0  0  0  0  0  0  0  0
  190.9620  169.5650  140.6820 C   0  0  0  0  0  1  0  0  0  0  0  0
  190.2120  171.8610  139.7390 C   0  0  2  0  0  0  0  0  0  0  0  0
  189.7970  171.1130  138.6340 O   0  0  0  0  0  1  0  0  0  0  0  0
  190.6860  171.5880  142.2950 C   0  0  0  0  0  1  0  0  0  0  0  0
  191.7350  171.8760  139.9140 C   0  0  1  0  0  3  0  0  0  0  0  0
  189.4140  173.1250  140.0730 C   0  0  2  0  0  3  0  0  0  0  0  0
  187.7930  173.3020  141.8150 O   0  0  0  0  0  1  0  0  0  0  0  0
  188.0200  172.7580  140.5520 C   0  0  0  0  0  2  0  0  0  0  0  0
  188.0380  173.9500  138.4920 O   0  0  0  0  0  1  0  0  0  0  0  0
  189.3270  173.9820  138.9030 N   0  0  0  0  0  2  0  0  0  0  0  0
  1 33  1  6  0  0  0
  1  8  1  0  0  0  0
  1  7  1  0  0  0  0
  3  6  1  0  0  0  0
  4  7  1  0  0  0  0
  5 10  1  6  0  0  0
  6  5  1  0  0  0  0
  6  2  2  0  0  0  0
  7  9  2  0  0  0  0
  8  3  1  0  0  0  0
  9  5  1  0  0  0  0
 10 11  1  0  0  0  0
 12 10  2  0  0  0  0
 13 11  1  0  0  0  0
 13 31  1  1  0  0  0
 14 16  1  0  0  0  0
 14 13  1  1  0  0  0
 15 18  1  0  0  0  0
 15 14  1  0  0  0  0
 17 16  1  0  0  0  0
 17 19  1  1  0  0  0
 18 17  1  0  0  0  0
 20 19  1  0  0  0  0
 20 21  1  0  0  0  0
 22 23  1  0  0  0  0
 22 20  1  0  0  0  0
 23 24  1  0  0  0  0
 24 25  1  0  0  0  0
 24 26  1  0  0  0  0
 25 26  1  0  0  0  0
 27 23  1  0  0  0  0
 28 27  1  0  0  0  0
 30 29  1  0  0  0  0
 30 28  1  0  0  0  0
 31 32  1  0  0  0  0
 34 33  1  0  0  0  0
 35 34  1  0  0  0  0
 36 35  1  0  0  0  0
 36 38  1  0  0  0  0
 38 37  2  0  0  0  0
 38 40  1  0  0  0  0
 39 38  2  0  0  0  0
 41 45  1  0  0  0  0
 42 41  1  0  0  0  0
 43 44  1  6  0  0  0
 43 46  1  0  0  0  0
 43 47  1  0  0  0  0
 43 41  1  0  0  0  0
 46 40  1  1  0  0  0
 46 41  1  0  0  0  0
 47 49  1  6  0  0  0
 49 48  1  0  0  0  0
 50 51  1  0  0  0  0
 51 47  1  0  0  0  0
M  END
>  <MODEL>
1

>  <REMARK>
 VINA RESULT:      -5.7      0.000      0.000
  Name = 
  22 active torsions:
  status: ('A' for Active; 'I' for Inactive)
    1  A    between atoms: C_2  and  C_14
    2  A    between atoms: C_2  and  N_21
    3  A    between atoms: C_2  and  C_40
    4  A    between atoms: C_3  and  C_28
    5  A    between atoms: C_5  and  N_23
    6  A    between atoms: O_7  and  C_8
    7  A    between atoms: O_7  and  C_19
    8  A    between atoms: O_11  and  C_37
    9  A    between atoms: C_12  and  C_24
   10  A    between atoms: C_12  and  S_36
   11  A    between atoms: C_15  and  C_42
   12  A    between atoms: C_18  and  N_23
   13  A    between atoms: C_18  and  N_31
   14  A    between atoms: C_19  and  C_24
   15  A    between atoms: N_20  and  N_31
   16  A    between atoms: N_20  and  C_38
   17  A    between atoms: N_23  and  C_27
   18  A    between atoms: C_27  and  C_37
   19  A    between atoms: C_29  and  C_42
   20  A    between atoms: N_35  and  C_42
   21  A    between atoms: S_36  and  N_44
   22  A    between atoms: N_44  and  C_51
                            x       y       z     vdW  Elec       q    Type
                         _______ _______ _______ _____ _____    ______ ____

>  <TORSDO>
F 22

$$$$
=
 OpenBabel11042413563D

 51 54  0  0  1  0  0  0  0  0999 V2000
  191.0360  175.4810  145.8200 C   0  0  1  0  0  3  0  0  0  0  0  0
  193.8060  172.3950  145.5620 O   0  0  0  0  0  0  0  0  0  0  0  0
  191.8240  173.3460  144.7340 C   0  0  0  0  0  2  0  0  0  0  0  0
  191.8870  176.9990  148.0820 Cl  0  0  0  0  0  0  0  0  0  0  0  0
  193.9500  174.7340  145.3430 C   0  0  2  0  0  3  0  0  0  0  0  0
  193.2360  173.4190  145.2230 C   0  0  0  0  0  0  0  0  0  0  0  0
  192.1770  175.9320  146.7150 C   0  0  0  0  0  0  0  0  0  0  0  0
  190.8640  173.9550  145.7450 C   0  0  0  0  0  2  0  0  0  0  0  0
  193.4540  175.5880  146.4800 C   0  0  0  0  0  3  0  0  0  0  0  0
  194.0360  175.4770  144.0440 C   0  0  0  0  0  0  0  0  0  0  0  0
  194.9280  175.0370  143.0160 N   0  0  0  0  0  2  0  0  0  0  0  0
  193.3140  176.4920  143.8680 O   0  0  0  0  0  0  0  0  0  0  0  0
  195.1020  175.7600  141.7650 C   0  0  2  0  0  3  0  0  0  0  0  0
  195.2570  174.7670  140.6150 C   0  0  1  0  0  3  0  0  0  0  0  0
  195.1660  173.4010  141.1130 N   0  0  0  0  0  2  0  0  0  0  0  0
  194.1210  174.9030  139.6550 C   0  0  0  0  0  2  0  0  0  0  0  0
  193.2780  173.7010  139.9880 C   0  0  1  0  0  3  0  0  0  0  0  0
  193.8520  173.0350  141.0870 O   0  0  0  0  0  0  0  0  0  0  0  0
  191.8980  174.0920  140.2800 N   0  0  0  0  0  2  0  0  0  0  0  0
  191.0830  172.9440  140.2610 N   0  0  0  0  0  0  0  0  0  0  0  0
  190.7010  172.7020  141.5380 O   0  0  0  0  0  1  0  0  0  0  0  0
  189.8870  173.2410  139.4700 C   0  0  0  0  0  2  0  0  0  0  0  0
  189.7850  172.3720  138.2990 N   0  0  0  0  0  0  0  0  0  0  0  0
  190.4680  173.0560  137.2100 C   0  0  0  0  0  3  0  0  0  0  0  0
  189.6480  172.9390  135.9380 C   0  0  0  0  0  2  0  0  0  0  0  0
  189.6280  174.2250  136.7310 C   0  0  0  0  0  2  0  0  0  0  0  0
  190.5680  171.1820  138.6050 C   0  0  0  0  0  2  0  0  0  0  0  0
  189.8140  169.9330  138.1830 C   0  0  0  0  0  2  0  0  0  0  0  0
  191.7150  169.7080  137.2190 O   0  0  0  0  0  1  0  0  0  0  0  0
  190.4620  169.3260  137.1060 O   0  0  0  0  0  0  0  0  0  0  0  0
  196.3410  176.6430  141.8590 C   0  0  0  0  0  2  0  0  0  0  0  0
  197.0830  176.3890  143.1570 C   0  0  0  0  0  1  0  0  0  0  0  0
  189.8300  176.1920  146.0250 O   0  0  0  0  0  0  0  0  0  0  0  0
  188.8540  175.3190  146.5410 C   0  0  0  0  0  2  0  0  0  0  0  0
  187.6860  176.1110  147.1000 C   0  0  0  0  0  2  0  0  0  0  0  0
  187.6140  177.4780  146.4490 C   0  0  0  0  0  2  0  0  0  0  0  0
  185.0060  176.9650  146.1270 O   0  0  0  0  0  0  0  0  0  0  0  0
  186.1740  177.5790  145.4070 S   0  0  0  0  0  0  0  0  0  0  0  0
  185.8740  179.0180  145.0970 O   0  0  0  0  0  0  0  0  0  0  0  0
  186.4800  176.7240  143.9320 N   0  0  0  0  0  2  0  0  0  0  0  0
  188.3840  176.1360  142.4460 C   0  0  0  0  0  0  0  0  0  0  0  0
  189.9000  176.0720  142.4800 C   0  0  0  0  0  1  0  0  0  0  0  0
  187.7570  177.4260  141.9350 C   0  0  2  0  0  0  0  0  0  0  0  0
  188.6550  178.4230  141.5470 O   0  0  0  0  0  1  0  0  0  0  0  0
  187.6270  174.8310  142.2250 C   0  0  0  0  0  1  0  0  0  0  0  0
  187.7890  177.1430  143.4410 C   0  0  1  0  0  3  0  0  0  0  0  0
  186.4160  177.3600  141.1960 C   0  0  2  0  0  3  0  0  0  0  0  0
  187.0480  176.1820  139.2190 O   0  0  0  0  0  1  0  0  0  0  0  0
  186.6370  177.4260  139.6940 C   0  0  0  0  0  2  0  0  0  0  0  0
  184.2980  177.9650  141.6680 O   0  0  0  0  0  1  0  0  0  0  0  0
  185.5600  178.4540  141.6210 N   0  0  0  0  0  2  0  0  0  0  0  0
  1 33  1  1  0  0  0
  1  7  1  0  0  0  0
  3  6  1  0  0  0  0
  3  8  1  0  0  0  0
  5 10  1  6  0  0  0
  5  9  1  0  0  0  0
  6  5  1  0  0  0  0
  6  2  2  0  0  0  0
  7  4  1  0  0  0  0
  8  1  1  0  0  0  0
  9  7  2  0  0  0  0
 11 10  1  0  0  0  0
 12 10  2  0  0  0  0
 13 31  1  1  0  0  0
 13 11  1  0  0  0  0
 14 15  1  0  0  0  0
 14 13  1  1  0  0  0
 16 17  1  0  0  0  0
 16 14  1  0  0  0  0
 17 19  1  1  0  0  0
 17 18  1  0  0  0  0
 18 15  1  0  0  0  0
 20 19  1  0  0  0  0
 20 21  1  0  0  0  0
 22 20  1  0  0  0  0
 23 27  1  0  0  0  0
 23 22  1  0  0  0  0
 24 23  1  0  0  0  0
 25 26  1  0  0  0  0
 25 24  1  0  0  0  0
 26 24  1  0  0  0  0
 28 27  1  0  0  0  0
 30 29  1  0  0  0  0
 30 28  1  0  0  0  0
 31 32  1  0  0  0  0
 33 34  1  0  0  0  0
 34 35  1  0  0  0  0
 36 35  1  0  0  0  0
 38 37  2  0  0  0  0
 38 36  1  0  0  0  0
 39 38  2  0  0  0  0
 40 38  1  0  0  0  0
 41 42  1  0  0  0  0
 41 46  1  0  0  0  0
 43 44  1  6  0  0  0
 43 41  1  0  0  0  0
 43 46  1  0  0  0  0
 45 41  1  0  0  0  0
 46 40  1  6  0  0  0
 47 49  1  6  0  0  0
 47 51  1  0  0  0  0
 47 43  1  0  0  0  0
 48 49  1  0  0  0  0
 51 50  1  0  0  0  0
M  END
>  <MODEL>
2

>  <REMARK>
 VINA RESULT:      -5.6      3.120      7.750
  Name = 
  22 active torsions:
  status: ('A' for Active; 'I' for Inactive)
    1  A    between atoms: C_2  and  C_14
    2  A    between atoms: C_2  and  N_21
    3  A    between atoms: C_2  and  C_40
    4  A    between atoms: C_3  and  C_28
    5  A    between atoms: C_5  and  N_23
    6  A    between atoms: O_7  and  C_8
    7  A    between atoms: O_7  and  C_19
    8  A    between atoms: O_11  and  C_37
    9  A    between atoms: C_12  and  C_24
   10  A    between atoms: C_12  and  S_36
   11  A    between atoms: C_15  and  C_42
   12  A    between atoms: C_18  and  N_23
   13  A    between atoms: C_18  and  N_31
   14  A    between atoms: C_19  and  C_24
   15  A    between atoms: N_20  and  N_31
   16  A    between atoms: N_20  and  C_38
   17  A    between atoms: N_23  and  C_27
   18  A    between atoms: C_27  and  C_37
   19  A    between atoms: C_29  and  C_42
   20  A    between atoms: N_35  and  C_42
   21  A    between atoms: S_36  and  N_44
   22  A    between atoms: N_44  and  C_51
                            x       y       z     vdW  Elec       q    Type
                         _______ _______ _______ _____ _____    ______ ____

>  <TORSDO>
F 22

$$$$
=
 OpenBabel11042413563D

 51 54  0  0  1  0  0  0  0  0999 V2000
  195.9270  171.6380  143.8530 C   0  0  1  0  0  3  0  0  0  0  0  0
  197.4060  175.5210  143.9010 O   0  0  0  0  0  0  0  0  0  0  0  0
  196.1740  173.8890  142.7440 C   0  0  0  0  0  2  0  0  0  0  0  0
  197.0210  170.4430  146.2040 Cl  0  0  0  0  0  0  0  0  0  0  0  0
  195.9600  174.3120  145.3120 C   0  0  2  0  0  3  0  0  0  0  0  0
  196.5610  174.6430  143.9760 C   0  0  0  0  0  0  0  0  0  0  0  0
  196.4490  171.8180  145.2680 C   0  0  0  0  0  0  0  0  0  0  0  0
  196.6850  172.4570  142.7960 C   0  0  0  0  0  2  0  0  0  0  0  0
  196.4510  173.0100  145.8870 C   0  0  0  0  0  3  0  0  0  0  0  0
  194.4670  174.4380  145.3310 C   0  0  0  0  0  0  0  0  0  0  0  0
  193.8420  175.6960  145.0620 N   0  0  0  0  0  2  0  0  0  0  0  0
  193.7680  173.4230  145.5870 O   0  0  0  0  0  0  0  0  0  0  0  0
  192.4020  175.8900  145.1360 C   0  0  2  0  0  3  0  0  0  0  0  0
  191.9640  176.8980  144.0750 C   0  0  1  0  0  3  0  0  0  0  0  0
  192.0290  176.2960  142.7510 N   0  0  0  0  0  2  0  0  0  0  0  0
  190.5260  177.2570  144.2640 C   0  0  0  0  0  2  0  0  0  0  0  0
  189.8580  176.4810  143.1610 C   0  0  1  0  0  3  0  0  0  0  0  0
  190.8270  175.7010  142.5040 O   0  0  0  0  0  0  0  0  0  0  0  0
  188.7830  175.6380  143.6900 N   0  0  0  0  0  2  0  0  0  0  0  0
  187.5660  176.3410  143.6010 N   0  0  0  0  0  0  0  0  0  0  0  0
  186.7460  175.6230  142.7970 O   0  0  0  0  0  1  0  0  0  0  0  0
  186.9680  176.3970  144.9370 C   0  0  0  0  0  2  0  0  0  0  0  0
  186.1330  177.5850  145.1040 N   0  0  0  0  0  0  0  0  0  0  0  0
  186.4490  178.1380  146.4130 C   0  0  0  0  0  3  0  0  0  0  0  0
  185.1660  178.3930  147.1850 C   0  0  0  0  0  2  0  0  0  0  0  0
  186.0030  177.1740  147.4980 C   0  0  0  0  0  2  0  0  0  0  0  0
  186.5960  178.5520  144.1180 C   0  0  0  0  0  2  0  0  0  0  0  0
  185.4140  179.1950  143.4150 C   0  0  0  0  0  2  0  0  0  0  0  0
  184.2480  177.8690  142.2010 O   0  0  0  0  0  1  0  0  0  0  0  0
  185.2840  178.6760  142.1270 O   0  0  0  0  0  0  0  0  0  0  0  0
  192.0310  176.4030  146.5230 C   0  0  0  0  0  2  0  0  0  0  0  0
  191.4550  175.2850  147.3720 C   0  0  0  0  0  1  0  0  0  0  0  0
  195.7020  170.2890  143.4910 O   0  0  0  0  0  0  0  0  0  0  0  0
  194.3400  170.1060  143.1910 C   0  0  0  0  0  2  0  0  0  0  0  0
  194.1570  169.8780  141.7020 C   0  0  0  0  0  2  0  0  0  0  0  0
  192.7720  169.3300  141.4170 C   0  0  0  0  0  2  0  0  0  0  0  0
  190.5880  170.5730  142.3410 O   0  0  0  0  0  0  0  0  0  0  0  0
  191.6130  170.6710  141.2460 S   0  0  0  0  0  0  0  0  0  0  0  0
  192.3380  171.9820  141.3530 O   0  0  0  0  0  0  0  0  0  0  0  0
  190.8450  170.5630  139.6990 N   0  0  0  0  0  2  0  0  0  0  0  0
  190.8800  171.5230  137.4060 C   0  0  0  0  0  0  0  0  0  0  0  0
  191.8700  171.8470  136.3040 C   0  0  0  0  0  1  0  0  0  0  0  0
  190.5490  172.6390  138.3890 C   0  0  2  0  0  0  0  0  0  0  0  0
  191.2010  173.8540  138.1670 O   0  0  0  0  0  1  0  0  0  0  0  0
  189.8020  170.4870  137.1060 C   0  0  0  0  0  1  0  0  0  0  0  0
  191.5030  171.5150  138.8100 C   0  0  1  0  0  3  0  0  0  0  0  0
  189.1480  172.6940  139.0080 C   0  0  2  0  0  3  0  0  0  0  0  0
  188.0310  174.7270  138.4500 O   0  0  0  0  0  1  0  0  0  0  0  0
  188.1830  173.3950  138.0690 C   0  0  0  0  0  2  0  0  0  0  0  0
  188.2880  172.7920  141.0880 O   0  0  0  0  0  1  0  0  0  0  0  0
  189.1950  173.3920  140.2830 N   0  0  0  0  0  2  0  0  0  0  0  0
  1 33  1  6  0  0  0
  1  7  1  0  0  0  0
  2  6  2  0  0  0  0
  3  8  1  0  0  0  0
  3  6  1  0  0  0  0
  5 10  1  6  0  0  0
  5  9  1  0  0  0  0
  6  5  1  0  0  0  0
  7  9  2  0  0  0  0
  7  4  1  0  0  0  0
  8  1  1  0  0  0  0
 10 12  2  0  0  0  0
 11 13  1  0  0  0  0
 11 10  1  0  0  0  0
 13 31  1  1  0  0  0
 14 16  1  0  0  0  0
 14 13  1  1  0  0  0
 15 14  1  0  0  0  0
 17 19  1  1  0  0  0
 17 16  1  0  0  0  0
 18 15  1  0  0  0  0
 18 17  1  0  0  0  0
 20 19  1  0  0  0  0
 20 22  1  0  0  0  0
 21 20  1  0  0  0  0
 22 23  1  0  0  0  0
 23 24  1  0  0  0  0
 24 25  1  0  0  0  0
 24 26  1  0  0  0  0
 25 26  1  0  0  0  0
 27 23  1  0  0  0  0
 28 27  1  0  0  0  0
 30 29  1  0  0  0  0
 30 28  1  0  0  0  0
 31 32  1  0  0  0  0
 34 33  1  0  0  0  0
 35 34  1  0  0  0  0
 36 35  1  0  0  0  0
 38 39  2  0  0  0  0
 38 36  1  0  0  0  0
 38 37  2  0  0  0  0
 40 38  1  0  0  0  0
 41 43  1  0  0  0  0
 41 46  1  0  0  0  0
 42 41  1  0  0  0  0
 43 44  1  6  0  0  0
 43 46  1  0  0  0  0
 43 47  1  0  0  0  0
 45 41  1  0  0  0  0
 46 40  1  1  0  0  0
 47 49  1  6  0  0  0
 47 51  1  0  0  0  0
 49 48  1  0  0  0  0
 51 50  1  0  0  0  0
M  END
>  <MODEL>
3

>  <REMARK>
 VINA RESULT:      -5.5      1.986      2.681
  Name = 
  22 active torsions:
  status: ('A' for Active; 'I' for Inactive)
    1  A    between atoms: C_2  and  C_14
    2  A    between atoms: C_2  and  N_21
    3  A    between atoms: C_2  and  C_40
    4  A    between atoms: C_3  and  C_28
    5  A    between atoms: C_5  and  N_23
    6  A    between atoms: O_7  and  C_8
    7  A    between atoms: O_7  and  C_19
    8  A    between atoms: O_11  and  C_37
    9  A    between atoms: C_12  and  C_24
   10  A    between atoms: C_12  and  S_36
   11  A    between atoms: C_15  and  C_42
   12  A    between atoms: C_18  and  N_23
   13  A    between atoms: C_18  and  N_31
   14  A    between atoms: C_19  and  C_24
   15  A    between atoms: N_20  and  N_31
   16  A    between atoms: N_20  and  C_38
   17  A    between atoms: N_23  and  C_27
   18  A    between atoms: C_27  and  C_37
   19  A    between atoms: C_29  and  C_42
   20  A    between atoms: N_35  and  C_42
   21  A    between atoms: S_36  and  N_44
   22  A    between atoms: N_44  and  C_51
                            x       y       z     vdW  Elec       q    Type
                         _______ _______ _______ _____ _____    ______ ____

>  <TORSDO>
F 22

$$$$
=
 OpenBabel11042413563D

 51 54  0  0  1  0  0  0  0  0999 V2000
  196.1380  172.8620  142.7830 C   0  0  1  0  0  3  0  0  0  0  0  0
  197.1740  173.6990  146.7180 O   0  0  0  0  0  0  0  0  0  0  0  0
  196.8410  174.5240  144.5440 C   0  0  0  0  0  2  0  0  0  0  0  0
  195.8400  170.0240  142.7250 Cl  0  0  0  0  0  0  0  0  0  0  0  0
  195.2520  172.8020  145.6960 C   0  0  2  0  0  3  0  0  0  0  0  0
  196.4640  173.6880  145.7260 C   0  0  0  0  0  0  0  0  0  0  0  0
  195.8020  171.5850  143.5330 C   0  0  0  0  0  0  0  0  0  0  0  0
  197.3080  173.6550  143.3860 C   0  0  0  0  0  2  0  0  0  0  0  0
  195.4140  171.5880  144.8190 C   0  0  0  0  0  3  0  0  0  0  0  0
  193.9820  173.5520  145.4350 C   0  0  0  0  0  0  0  0  0  0  0  0
  193.8280  174.8970  145.8930 N   0  0  0  0  0  2  0  0  0  0  0  0
  193.0510  172.9840  144.8060 O   0  0  0  0  0  0  0  0  0  0  0  0
  192.5920  175.6480  145.7280 C   0  0  2  0  0  3  0  0  0  0  0  0
  192.8090  176.7820  144.7280 C   0  0  1  0  0  3  0  0  0  0  0  0
  193.3470  176.2580  143.4800 N   0  0  0  0  0  2  0  0  0  0  0  0
  191.5020  177.4000  144.3530 C   0  0  0  0  0  2  0  0  0  0  0  0
  191.2650  176.8340  142.9790 C   0  0  1  0  0  3  0  0  0  0  0  0
  192.2940  175.9210  142.6810 O   0  0  0  0  0  0  0  0  0  0  0  0
  189.9540  176.1850  142.8970 N   0  0  0  0  0  2  0  0  0  0  0  0
  188.9570  177.1300  143.2030 N   0  0  0  0  0  0  0  0  0  0  0  0
  189.0200  178.1000  142.2610 O   0  0  0  0  0  1  0  0  0  0  0  0
  187.6520  176.4710  143.1010 C   0  0  0  0  0  2  0  0  0  0  0  0
  186.5790  177.3180  143.6200 N   0  0  0  0  0  0  0  0  0  0  0  0
  185.4640  177.1950  142.6920 C   0  0  0  0  0  3  0  0  0  0  0  0
  185.1340  178.5570  142.1050 C   0  0  0  0  0  2  0  0  0  0  0  0
  185.9200  177.5560  141.2900 C   0  0  0  0  0  2  0  0  0  0  0  0
  186.1510  176.7120  144.8730 C   0  0  0  0  0  2  0  0  0  0  0  0
  185.3370  177.7030  145.6860 C   0  0  0  0  0  2  0  0  0  0  0  0
  185.8540  179.3480  146.9580 O   0  0  0  0  0  1  0  0  0  0  0  0
  185.9800  178.9400  145.7140 O   0  0  0  0  0  0  0  0  0  0  0  0
  192.1620  176.2180  147.0740 C   0  0  0  0  0  2  0  0  0  0  0  0
  191.1520  175.3060  147.7460 C   0  0  0  0  0  1  0  0  0  0  0  0
  196.2070  172.7010  141.3790 O   0  0  0  0  0  0  0  0  0  0  0  0
  197.3120  173.4160  140.8800 C   0  0  0  0  0  2  0  0  0  0  0  0
  196.9070  174.2230  139.6600 C   0  0  0  0  0  2  0  0  0  0  0  0
  195.6300  173.6690  139.0590 C   0  0  0  0  0  2  0  0  0  0  0  0
  194.7560  175.9090  140.2350 O   0  0  0  0  0  0  0  0  0  0  0  0
  194.2940  174.8170  139.3120 S   0  0  0  0  0  0  0  0  0  0  0  0
  193.8830  175.4130  137.9950 O   0  0  0  0  0  0  0  0  0  0  0  0
  192.9480  173.9780  140.0070 N   0  0  0  0  0  2  0  0  0  0  0  0
  192.4270  171.5920  139.5490 C   0  0  0  0  0  0  0  0  0  0  0  0
  192.6650  170.5410  138.4800 C   0  0  0  0  0  1  0  0  0  0  0  0
  191.1350  172.3910  139.4580 C   0  0  2  0  0  0  0  0  0  0  0  0
  190.2970  172.0680  138.3870 O   0  0  0  0  0  1  0  0  0  0  0  0
  193.0220  171.3410  140.9310 C   0  0  0  0  0  1  0  0  0  0  0  0
  192.4550  173.0310  139.0140 C   0  0  1  0  0  3  0  0  0  0  0  0
  190.4700  172.8820  140.7480 C   0  0  2  0  0  3  0  0  0  0  0  0
  190.0310  171.7270  142.7900 O   0  0  0  0  0  1  0  0  0  0  0  0
  189.7320  171.7410  141.4280 C   0  0  0  0  0  2  0  0  0  0  0  0
  188.2980  173.4700  140.6300 O   0  0  0  0  0  1  0  0  0  0  0  0
  189.5460  173.9630  140.4520 N   0  0  0  0  0  2  0  0  0  0  0  0
  1 33  1  6  0  0  0
  1  8  1  0  0  0  0
  1  7  1  0  0  0  0
  3  6  1  0  0  0  0
  4  7  1  0  0  0  0
  5 10  1  6  0  0  0
  5  6  1  0  0  0  0
  6  2  2  0  0  0  0
  7  9  2  0  0  0  0
  8  3  1  0  0  0  0
  9  5  1  0  0  0  0
 10 11  1  0  0  0  0
 12 10  2  0  0  0  0
 13 11  1  0  0  0  0
 13 31  1  1  0  0  0
 14 13  1  1  0  0  0
 15 14  1  0  0  0  0
 16 14  1  0  0  0  0
 17 19  1  1  0  0  0
 17 16  1  0  0  0  0
 18 17  1  0  0  0  0
 18 15  1  0  0  0  0
 19 20  1  0  0  0  0
 21 20  1  0  0  0  0
 22 20  1  0  0  0  0
 22 23  1  0  0  0  0
 23 27  1  0  0  0  0
 24 23  1  0  0  0  0
 25 24  1  0  0  0  0
 26 25  1  0  0  0  0
 26 24  1  0  0  0  0
 27 28  1  0  0  0  0
 28 30  1  0  0  0  0
 30 29  1  0  0  0  0
 31 32  1  0  0  0  0
 34 33  1  0  0  0  0
 35 34  1  0  0  0  0
 36 38  1  0  0  0  0
 36 35  1  0  0  0  0
 38 40  1  0  0  0  0
 38 37  2  0  0  0  0
 39 38  2  0  0  0  0
 41 45  1  0  0  0  0
 42 41  1  0  0  0  0
 43 44  1  6  0  0  0
 43 41  1  0  0  0  0
 43 47  1  0  0  0  0
 46 43  1  0  0  0  0
 46 41  1  0  0  0  0
 46 40  1  1  0  0  0
 47 49  1  6  0  0  0
 49 48  1  0  0  0  0
 51 50  1  0  0  0  0
 51 47  1  0  0  0  0
M  END
>  <MODEL>
4

>  <REMARK>
 VINA RESULT:      -5.4      1.610      2.197
  Name = 
  22 active torsions:
  status: ('A' for Active; 'I' for Inactive)
    1  A    between atoms: C_2  and  C_14
    2  A    between atoms: C_2  and  N_21
    3  A    between atoms: C_2  and  C_40
    4  A    between atoms: C_3  and  C_28
    5  A    between atoms: C_5  and  N_23
    6  A    between atoms: O_7  and  C_8
    7  A    between atoms: O_7  and  C_19
    8  A    between atoms: O_11  and  C_37
    9  A    between atoms: C_12  and  C_24
   10  A    between atoms: C_12  and  S_36
   11  A    between atoms: C_15  and  C_42
   12  A    between atoms: C_18  and  N_23
   13  A    between atoms: C_18  and  N_31
   14  A    between atoms: C_19  and  C_24
   15  A    between atoms: N_20  and  N_31
   16  A    between atoms: N_20  and  C_38
   17  A    between atoms: N_23  and  C_27
   18  A    between atoms: C_27  and  C_37
   19  A    between atoms: C_29  and  C_42
   20  A    between atoms: N_35  and  C_42
   21  A    between atoms: S_36  and  N_44
   22  A    between atoms: N_44  and  C_51
                            x       y       z     vdW  Elec       q    Type
                         _______ _______ _______ _____ _____    ______ ____

>  <TORSDO>
F 22

$$$$
=
 OpenBabel11042413563D

 51 54  0  0  1  0  0  0  0  0999 V2000
  195.9600  174.3490  140.1590 C   0  0  1  0  0  3  0  0  0  0  0  0
  197.7450  176.7290  143.0600 O   0  0  0  0  0  0  0  0  0  0  0  0
  196.2050  176.5890  141.2910 C   0  0  0  0  0  2  0  0  0  0  0  0
  197.3280  171.8520  140.3630 Cl  0  0  0  0  0  0  0  0  0  0  0  0
  196.4590  174.7590  143.1360 C   0  0  2  0  0  3  0  0  0  0  0  0
  196.8540  176.0780  142.5380 C   0  0  0  0  0  0  0  0  0  0  0  0
  196.7240  173.3650  141.0270 C   0  0  0  0  0  0  0  0  0  0  0  0
  196.5960  175.7470  140.0870 C   0  0  0  0  0  2  0  0  0  0  0  0
  196.9290  173.5710  142.3380 C   0  0  0  0  0  3  0  0  0  0  0  0
  195.0060  174.6880  143.4960 C   0  0  0  0  0  0  0  0  0  0  0  0
  194.2620  175.8830  143.7440 N   0  0  0  0  0  2  0  0  0  0  0  0
  194.4470  173.5630  143.5770 O   0  0  0  0  0  0  0  0  0  0  0  0
  192.8690  175.8690  144.1640 C   0  0  2  0  0  3  0  0  0  0  0  0
  192.0470  176.7740  143.2490 C   0  0  1  0  0  3  0  0  0  0  0  0
  190.9870  176.0110  142.6040 N   0  0  0  0  0  2  0  0  0  0  0  0
  191.3370  177.8150  144.0510 C   0  0  0  0  0  2  0  0  0  0  0  0
  189.9240  177.2970  144.0650 C   0  0  1  0  0  3  0  0  0  0  0  0
  189.8920  176.0480  143.4180 O   0  0  0  0  0  0  0  0  0  0  0  0
  189.4190  177.1860  145.4350 N   0  0  0  0  0  2  0  0  0  0  0  0
  188.1270  176.6290  145.4020 N   0  0  0  0  0  0  0  0  0  0  0  0
  187.9090  176.0470  146.6060 O   0  0  0  0  0  1  0  0  0  0  0  0
  187.1600  177.7170  145.2350 C   0  0  0  0  0  2  0  0  0  0  0  0
  185.8480  177.2140  144.8300 N   0  0  0  0  0  0  0  0  0  0  0  0
  184.8990  178.2950  145.0550 C   0  0  0  0  0  3  0  0  0  0  0  0
  184.2000  178.0930  146.3890 C   0  0  0  0  0  2  0  0  0  0  0  0
  185.3190  179.1030  146.2700 C   0  0  0  0  0  2  0  0  0  0  0  0
  185.9160  177.0090  143.3890 C   0  0  0  0  0  2  0  0  0  0  0  0
  184.7340  177.6730  142.7060 C   0  0  0  0  0  2  0  0  0  0  0  0
  186.4440  178.2660  141.5580 O   0  0  0  0  0  1  0  0  0  0  0  0
  185.1850  178.5910  141.7570 O   0  0  0  0  0  0  0  0  0  0  0  0
  192.7700  176.3590  145.6040 C   0  0  0  0  0  2  0  0  0  0  0  0
  192.3760  175.2250  146.5310 C   0  0  0  0  0  1  0  0  0  0  0  0
  195.5660  173.8250  138.9060 O   0  0  0  0  0  0  0  0  0  0  0  0
  195.8490  174.7630  137.8950 C   0  0  0  0  0  2  0  0  0  0  0  0
  195.1240  174.3910  136.6160 C   0  0  0  0  0  2  0  0  0  0  0  0
  194.1490  173.2580  136.8710 C   0  0  0  0  0  2  0  0  0  0  0  0
  192.5360  175.3940  136.8850 O   0  0  0  0  0  0  0  0  0  0  0  0
  192.4870  173.8930  136.9440 S   0  0  0  0  0  0  0  0  0  0  0  0
  191.6950  173.3700  135.7800 O   0  0  0  0  0  0  0  0  0  0  0  0
  191.7470  173.3780  138.4220 N   0  0  0  0  0  2  0  0  0  0  0  0
  192.3080  171.3190  139.6960 C   0  0  0  0  0  0  0  0  0  0  0  0
  192.9760  169.9730  139.4830 C   0  0  0  0  0  1  0  0  0  0  0  0
  190.7960  171.3770  139.5180 C   0  0  2  0  0  0  0  0  0  0  0  0
  190.1810  170.1710  139.1730 O   0  0  0  0  0  1  0  0  0  0  0  0
  192.9520  172.2780  140.6910 C   0  0  0  0  0  1  0  0  0  0  0  0
  191.7120  171.9200  138.4140 C   0  0  1  0  0  3  0  0  0  0  0  0
  189.9850  172.3650  140.3620 C   0  0  2  0  0  3  0  0  0  0  0  0
  189.4350  172.8610  142.6300 O   0  0  0  0  0  1  0  0  0  0  0  0
  189.7920  171.8250  141.7680 C   0  0  0  0  0  2  0  0  0  0  0  0
  188.5890  173.9430  139.5630 O   0  0  0  0  0  1  0  0  0  0  0  0
  188.6930  172.6050  139.7410 N   0  0  0  0  0  2  0  0  0  0  0  0
  1 33  1  6  0  0  0
  1  7  1  0  0  0  0
  3  6  1  0  0  0  0
  4  7  1  0  0  0  0
  5 10  1  6  0  0  0
  6  2  2  0  0  0  0
  6  5  1  0  0  0  0
  7  9  2  0  0  0  0
  8  1  1  0  0  0  0
  8  3  1  0  0  0  0
  9  5  1  0  0  0  0
 10 12  2  0  0  0  0
 10 11  1  0  0  0  0
 11 13  1  0  0  0  0
 13 31  1  1  0  0  0
 14 16  1  0  0  0  0
 14 13  1  1  0  0  0
 15 14  1  0  0  0  0
 15 18  1  0  0  0  0
 16 17  1  0  0  0  0
 17 19  1  1  0  0  0
 18 17  1  0  0  0  0
 20 19  1  0  0  0  0
 20 21  1  0  0  0  0
 22 20  1  0  0  0  0
 23 24  1  0  0  0  0
 23 22  1  0  0  0  0
 24 26  1  0  0  0  0
 24 25  1  0  0  0  0
 26 25  1  0  0  0  0
 27 23  1  0  0  0  0
 28 27  1  0  0  0  0
 29 30  1  0  0  0  0
 30 28  1  0  0  0  0
 31 32  1  0  0  0  0
 34 33  1  0  0  0  0
 35 36  1  0  0  0  0
 35 34  1  0  0  0  0
 36 38  1  0  0  0  0
 37 38  2  0  0  0  0
 38 40  1  0  0  0  0
 39 38  2  0  0  0  0
 41 45  1  0  0  0  0
 42 41  1  0  0  0  0
 43 44  1  6  0  0  0
 43 41  1  0  0  0  0
 43 47  1  0  0  0  0
 46 40  1  1  0  0  0
 46 43  1  0  0  0  0
 46 41  1  0  0  0  0
 47 49  1  1  0  0  0
 49 48  1  0  0  0  0
 50 51  1  0  0  0  0
 51 47  1  0  0  0  0
M  END
>  <MODEL>
5

>  <REMARK>
 VINA RESULT:      -5.4      1.883      2.418
  Name = 
  22 active torsions:
  status: ('A' for Active; 'I' for Inactive)
    1  A    between atoms: C_2  and  C_14
    2  A    between atoms: C_2  and  N_21
    3  A    between atoms: C_2  and  C_40
    4  A    between atoms: C_3  and  C_28
    5  A    between atoms: C_5  and  N_23
    6  A    between atoms: O_7  and  C_8
    7  A    between atoms: O_7  and  C_19
    8  A    between atoms: O_11  and  C_37
    9  A    between atoms: C_12  and  C_24
   10  A    between atoms: C_12  and  S_36
   11  A    between atoms: C_15  and  C_42
   12  A    between atoms: C_18  and  N_23
   13  A    between atoms: C_18  and  N_31
   14  A    between atoms: C_19  and  C_24
   15  A    between atoms: N_20  and  N_31
   16  A    between atoms: N_20  and  C_38
   17  A    between atoms: N_23  and  C_27
   18  A    between atoms: C_27  and  C_37
   19  A    between atoms: C_29  and  C_42
   20  A    between atoms: N_35  and  C_42
   21  A    between atoms: S_36  and  N_44
   22  A    between atoms: N_44  and  C_51
                            x       y       z     vdW  Elec       q    Type
                         _______ _______ _______ _____ _____    ______ ____

>  <TORSDO>
F 22

$$$$
=
 OpenBabel11042413563D

 51 54  0  0  1  0  0  0  0  0999 V2000
  196.1520  172.8930  143.5750 C   0  0  1  0  0  3  0  0  0  0  0  0
  197.7210  175.6460  140.8880 O   0  0  0  0  0  0  0  0  0  0  0  0
  196.4890  173.6710  141.2010 C   0  0  0  0  0  2  0  0  0  0  0  0
  197.1380  173.7500  146.1130 Cl  0  0  0  0  0  0  0  0  0  0  0  0
  196.2000  175.8040  142.6790 C   0  0  2  0  0  3  0  0  0  0  0  0
  196.8530  175.0820  141.5350 C   0  0  0  0  0  0  0  0  0  0  0  0
  196.6300  174.0360  144.4540 C   0  0  0  0  0  0  0  0  0  0  0  0
  196.9640  172.7130  142.2830 C   0  0  0  0  0  2  0  0  0  0  0  0
  196.6410  175.3110  144.0320 C   0  0  0  0  0  3  0  0  0  0  0  0
  194.7110  175.8960  142.5420 C   0  0  0  0  0  0  0  0  0  0  0  0
  193.8620  175.5870  143.6500 N   0  0  0  0  0  2  0  0  0  0  0  0
  194.2160  176.2490  141.4400 O   0  0  0  0  0  0  0  0  0  0  0  0
  192.4090  175.5930  143.5520 C   0  0  2  0  0  3  0  0  0  0  0  0
  191.8600  176.8890  144.1460 C   0  0  1  0  0  3  0  0  0  0  0  0
  191.5530  177.8390  143.0870 N   0  0  0  0  0  2  0  0  0  0  0  0
  190.5530  176.6340  144.8240 C   0  0  0  0  0  2  0  0  0  0  0  0
  189.5670  177.1950  143.8340 C   0  0  1  0  0  3  0  0  0  0  0  0
  190.2660  177.6210  142.6890 O   0  0  0  0  0  0  0  0  0  0  0  0
  188.5520  176.2000  143.4830 N   0  0  0  0  0  2  0  0  0  0  0  0
  187.3880  176.8660  143.0540 N   0  0  0  0  0  0  0  0  0  0  0  0
  186.3800  175.9620  143.0670 O   0  0  0  0  0  1  0  0  0  0  0  0
  187.0770  177.9190  144.0230 C   0  0  0  0  0  2  0  0  0  0  0  0
  185.6670  177.8960  144.4090 N   0  0  0  0  0  0  0  0  0  0  0  0
  185.6260  178.0680  145.8540 C   0  0  0  0  0  3  0  0  0  0  0  0
  185.1440  176.7850  146.5090 C   0  0  0  0  0  2  0  0  0  0  0  0
  186.6160  177.1250  146.5110 C   0  0  0  0  0  2  0  0  0  0  0  0
  185.0650  179.0880  143.8270 C   0  0  0  0  0  2  0  0  0  0  0  0
  183.6990  178.7600  143.2480 C   0  0  0  0  0  2  0  0  0  0  0  0
  182.8090  178.2470  141.3670 O   0  0  0  0  0  1  0  0  0  0  0  0
  183.8400  177.9440  142.1260 O   0  0  0  0  0  0  0  0  0  0  0  0
  191.8470  174.3950  144.3090 C   0  0  0  0  0  2  0  0  0  0  0  0
  192.9340  173.7120  145.1160 C   0  0  0  0  0  1  0  0  0  0  0  0
  195.9060  171.6910  144.2800 O   0  0  0  0  0  0  0  0  0  0  0  0
  195.4840  170.6970  143.3770 C   0  0  0  0  0  2  0  0  0  0  0  0
  194.2280  170.0200  143.8920 C   0  0  0  0  0  2  0  0  0  0  0  0
  193.5250  169.2840  142.7680 C   0  0  0  0  0  2  0  0  0  0  0  0
  190.9620  168.9610  142.0660 O   0  0  0  0  0  0  0  0  0  0  0  0
  191.9420  170.0340  142.4490 S   0  0  0  0  0  0  0  0  0  0  0  0
  191.4580  170.7390  143.6850 O   0  0  0  0  0  0  0  0  0  0  0  0
  192.1060  171.1790  141.1610 N   0  0  0  0  0  2  0  0  0  0  0  0
  190.9520  173.2290  140.3580 C   0  0  0  0  0  0  0  0  0  0  0  0
  189.8800  174.2040  140.8100 C   0  0  0  0  0  1  0  0  0  0  0  0
  190.5010  172.0560  139.4970 C   0  0  2  0  0  0  0  0  0  0  0  0
  189.1340  172.0030  139.2130 O   0  0  0  0  0  1  0  0  0  0  0  0
  192.3610  173.7730  140.1510 C   0  0  0  0  0  1  0  0  0  0  0  0
  190.8140  171.8320  140.9820 C   0  0  1  0  0  3  0  0  0  0  0  0
  191.4620  171.4930  138.4440 C   0  0  2  0  0  3  0  0  0  0  0  0
  190.2630  172.0170  136.4480 O   0  0  0  0  0  1  0  0  0  0  0  0
  191.4080  172.3320  137.1790 C   0  0  0  0  0  2  0  0  0  0  0  0
  192.2770  169.4200  138.1080 O   0  0  0  0  0  1  0  0  0  0  0  0
  191.1150  170.1150  138.1410 N   0  0  0  0  0  2  0  0  0  0  0  0
  1 33  1  1  0  0  0
  1  7  1  0  0  0  0
  2  6  2  0  0  0  0
  3  6  1  0  0  0  0
  3  8  1  0  0  0  0
  5 10  1  6  0  0  0
  5  9  1  0  0  0  0
  6  5  1  0  0  0  0
  7  4  1  0  0  0  0
  8  1  1  0  0  0  0
  9  7  2  0  0  0  0
 10 11  1  0  0  0  0
 12 10  2  0  0  0  0
 13 11  1  0  0  0  0
 13 31  1  1  0  0  0
 14 13  1  6  0  0  0
 14 16  1  0  0  0  0
 15 14  1  0  0  0  0
 17 19  1  6  0  0  0
 17 16  1  0  0  0  0
 18 15  1  0  0  0  0
 18 17  1  0  0  0  0
 20 21  1  0  0  0  0
 20 19  1  0  0  0  0
 20 22  1  0  0  0  0
 22 23  1  0  0  0  0
 23 24  1  0  0  0  0
 24 25  1  0  0  0  0
 24 26  1  0  0  0  0
 25 26  1  0  0  0  0
 27 23  1  0  0  0  0
 28 27  1  0  0  0  0
 29 30  1  0  0  0  0
 30 28  1  0  0  0  0
 31 32  1  0  0  0  0
 34 35  1  0  0  0  0
 34 33  1  0  0  0  0
 36 35  1  0  0  0  0
 37 38  2  0  0  0  0
 38 36  1  0  0  0  0
 38 39  2  0  0  0  0
 40 38  1  0  0  0  0
 41 42  1  0  0  0  0
 41 46  1  0  0  0  0
 43 44  1  6  0  0  0
 43 41  1  0  0  0  0
 43 46  1  0  0  0  0
 45 41  1  0  0  0  0
 46 40  1  6  0  0  0
 47 49  1  6  0  0  0
 47 43  1  0  0  0  0
 48 49  1  0  0  0  0
 50 51  1  0  0  0  0
 51 47  1  0  0  0  0
M  END
>  <MODEL>
6

>  <REMARK>
 VINA RESULT:      -5.4      2.259      3.628
  Name = 
  22 active torsions:
  status: ('A' for Active; 'I' for Inactive)
    1  A    between atoms: C_2  and  C_14
    2  A    between atoms: C_2  and  N_21
    3  A    between atoms: C_2  and  C_40
    4  A    between atoms: C_3  and  C_28
    5  A    between atoms: C_5  and  N_23
    6  A    between atoms: O_7  and  C_8
    7  A    between atoms: O_7  and  C_19
    8  A    between atoms: O_11  and  C_37
    9  A    between atoms: C_12  and  C_24
   10  A    between atoms: C_12  and  S_36
   11  A    between atoms: C_15  and  C_42
   12  A    between atoms: C_18  and  N_23
   13  A    between atoms: C_18  and  N_31
   14  A    between atoms: C_19  and  C_24
   15  A    between atoms: N_20  and  N_31
   16  A    between atoms: N_20  and  C_38
   17  A    between atoms: N_23  and  C_27
   18  A    between atoms: C_27  and  C_37
   19  A    between atoms: C_29  and  C_42
   20  A    between atoms: N_35  and  C_42
   21  A    between atoms: S_36  and  N_44
   22  A    between atoms: N_44  and  C_51
                            x       y       z     vdW  Elec       q    Type
                         _______ _______ _______ _____ _____    ______ ____

>  <TORSDO>
F 22

$$$$
=
 OpenBabel11042413563D

 51 54  0  0  1  0  0  0  0  0999 V2000
  195.4030  172.7300  143.7370 C   0  0  1  0  0  3  0  0  0  0  0  0
  196.3760  176.7690  143.8070 O   0  0  0  0  0  0  0  0  0  0  0  0
  195.2110  175.0360  142.7330 C   0  0  0  0  0  2  0  0  0  0  0  0
  196.9530  171.5990  145.8500 Cl  0  0  0  0  0  0  0  0  0  0  0  0
  195.3020  175.3260  145.3260 C   0  0  2  0  0  3  0  0  0  0  0  0
  195.6670  175.7860  143.9440 C   0  0  0  0  0  0  0  0  0  0  0  0
  196.0890  172.9220  145.0780 C   0  0  0  0  0  0  0  0  0  0  0  0
  195.8990  173.6830  142.6370 C   0  0  0  0  0  2  0  0  0  0  0  0
  196.0280  174.0790  145.7580 C   0  0  0  0  0  3  0  0  0  0  0  0
  193.8220  175.2540  145.5510 C   0  0  0  0  0  0  0  0  0  0  0  0
  193.0110  176.4230  145.4160 N   0  0  0  0  0  2  0  0  0  0  0  0
  193.3010  174.1500  145.8580 O   0  0  0  0  0  0  0  0  0  0  0  0
  191.5810  176.4240  145.6900 C   0  0  2  0  0  3  0  0  0  0  0  0
  190.9350  177.6480  145.0440 C   0  0  1  0  0  3  0  0  0  0  0  0
  191.4740  177.8570  143.7080 N   0  0  0  0  0  2  0  0  0  0  0  0
  189.4750  177.4150  144.8380 C   0  0  0  0  0  2  0  0  0  0  0  0
  189.4010  177.1520  143.3570 C   0  0  1  0  0  3  0  0  0  0  0  0
  190.7070  177.1450  142.8330 O   0  0  0  0  0  0  0  0  0  0  0  0
  188.7240  175.8830  143.0830 N   0  0  0  0  0  2  0  0  0  0  0  0
  187.5040  176.1470  142.4320 N   0  0  0  0  0  0  0  0  0  0  0  0
  187.0310  174.9650  141.9700 O   0  0  0  0  0  1  0  0  0  0  0  0
  186.5580  176.6670  143.4220 C   0  0  0  0  0  2  0  0  0  0  0  0
  185.7550  177.7610  142.8790 N   0  0  0  0  0  0  0  0  0  0  0  0
  186.0220  178.9280  143.7080 C   0  0  0  0  0  3  0  0  0  0  0  0
  184.7300  179.4100  144.3440 C   0  0  0  0  0  2  0  0  0  0  0  0
  185.7160  178.6060  145.1600 C   0  0  0  0  0  2  0  0  0  0  0  0
  186.3000  178.0500  141.5590 C   0  0  0  0  0  2  0  0  0  0  0  0
  185.2140  177.9370  140.5040 C   0  0  0  0  0  2  0  0  0  0  0  0
  183.0940  177.9510  140.1860 O   0  0  0  0  0  1  0  0  0  0  0  0
  184.0070  178.4230  141.0070 O   0  0  0  0  0  0  0  0  0  0  0  0
  191.3550  176.4510  147.1970 C   0  0  0  0  0  2  0  0  0  0  0  0
  190.4790  175.2900  147.6290 C   0  0  0  0  0  1  0  0  0  0  0  0
  195.3020  171.3780  143.3320 O   0  0  0  0  0  0  0  0  0  0  0  0
  193.9590  171.0790  143.0350 C   0  0  0  0  0  2  0  0  0  0  0  0
  193.8850  169.9370  142.0380 C   0  0  0  0  0  2  0  0  0  0  0  0
  192.4720  169.3890  141.9650 C   0  0  0  0  0  2  0  0  0  0  0  0
  192.8720  168.9100  139.3620 O   0  0  0  0  0  0  0  0  0  0  0  0
  191.8610  169.5110  140.2980 S   0  0  0  0  0  0  0  0  0  0  0  0
  190.5620  168.7650  140.1800 O   0  0  0  0  0  0  0  0  0  0  0  0
  191.6040  171.1780  139.9080 N   0  0  0  0  0  2  0  0  0  0  0  0
  189.6920  172.6890  139.4190 C   0  0  0  0  0  0  0  0  0  0  0  0
  188.1760  172.6910  139.4790 C   0  0  0  0  0  1  0  0  0  0  0  0
  190.3320  172.2810  138.0990 C   0  0  2  0  0  0  0  0  0  0  0  0
  189.4430  171.9490  137.0730 O   0  0  0  0  0  1  0  0  0  0  0  0
  190.4360  173.6860  140.3000 C   0  0  0  0  0  1  0  0  0  0  0  0
  190.2990  171.2860  139.2650 C   0  0  1  0  0  3  0  0  0  0  0  0
  191.6700  172.9080  137.6950 C   0  0  2  0  0  3  0  0  0  0  0  0
  192.4560  175.0660  137.0470 O   0  0  0  0  0  1  0  0  0  0  0  0
  191.4390  174.1370  136.8330 C   0  0  0  0  0  2  0  0  0  0  0  0
  193.7390  172.0540  137.4420 O   0  0  0  0  0  1  0  0  0  0  0  0
  192.4750  171.9380  136.9710 N   0  0  0  0  0  2  0  0  0  0  0  0
  1 33  1  6  0  0  0
  1  7  1  0  0  0  0
  2  6  2  0  0  0  0
  3  6  1  0  0  0  0
  5 10  1  6  0  0  0
  5  9  1  0  0  0  0
  6  5  1  0  0  0  0
  7  9  2  0  0  0  0
  7  4  1  0  0  0  0
  8  3  1  0  0  0  0
  8  1  1  0  0  0  0
 10 12  2  0  0  0  0
 11 10  1  0  0  0  0
 11 13  1  0  0  0  0
 13 31  1  1  0  0  0
 14 13  1  6  0  0  0
 15 14  1  0  0  0  0
 16 14  1  0  0  0  0
 17 19  1  1  0  0  0
 17 16  1  0  0  0  0
 18 17  1  0  0  0  0
 18 15  1  0  0  0  0
 20 19  1  0  0  0  0
 20 22  1  0  0  0  0
 21 20  1  0  0  0  0
 23 22  1  0  0  0  0
 23 24  1  0  0  0  0
 24 25  1  0  0  0  0
 24 26  1  0  0  0  0
 25 26  1  0  0  0  0
 27 23  1  0  0  0  0
 28 30  1  0  0  0  0
 28 27  1  0  0  0  0
 29 30  1  0  0  0  0
 31 32  1  0  0  0  0
 34 33  1  0  0  0  0
 35 34  1  0  0  0  0
 36 35  1  0  0  0  0
 37 38  2  0  0  0  0
 38 36  1  0  0  0  0
 39 38  2  0  0  0  0
 40 38  1  0  0  0  0
 41 42  1  0  0  0  0
 41 45  1  0  0  0  0
 43 44  1  6  0  0  0
 43 46  1  0  0  0  0
 43 41  1  0  0  0  0
 46 41  1  0  0  0  0
 46 40  1  1  0  0  0
 47 49  1  6  0  0  0
 47 43  1  0  0  0  0
 49 48  1  0  0  0  0
 51 50  1  0  0  0  0
 51 47  1  0  0  0  0
M  END
>  <MODEL>
7

>  <REMARK>
 VINA RESULT:      -5.2      2.221      3.273
  Name = 
  22 active torsions:
  status: ('A' for Active; 'I' for Inactive)
    1  A    between atoms: C_2  and  C_14
    2  A    between atoms: C_2  and  N_21
    3  A    between atoms: C_2  and  C_40
    4  A    between atoms: C_3  and  C_28
    5  A    between atoms: C_5  and  N_23
    6  A    between atoms: O_7  and  C_8
    7  A    between atoms: O_7  and  C_19
    8  A    between atoms: O_11  and  C_37
    9  A    between atoms: C_12  and  C_24
   10  A    between atoms: C_12  and  S_36
   11  A    between atoms: C_15  and  C_42
   12  A    between atoms: C_18  and  N_23
   13  A    between atoms: C_18  and  N_31
   14  A    between atoms: C_19  and  C_24
   15  A    between atoms: N_20  and  N_31
   16  A    between atoms: N_20  and  C_38
   17  A    between atoms: N_23  and  C_27
   18  A    between atoms: C_27  and  C_37
   19  A    between atoms: C_29  and  C_42
   20  A    between atoms: N_35  and  C_42
   21  A    between atoms: S_36  and  N_44
   22  A    between atoms: N_44  and  C_51
                            x       y       z     vdW  Elec       q    Type
                         _______ _______ _______ _____ _____    ______ ____

>  <TORSDO>
F 22

$$$$
=
 OpenBabel11042413563D

 51 54  0  0  1  0  0  0  0  0999 V2000
  194.9420  173.4140  143.4260 C   0  0  1  0  0  3  0  0  0  0  0  0
  197.1450  176.8980  142.9020 O   0  0  0  0  0  0  0  0  0  0  0  0
  195.3310  175.5820  142.1990 C   0  0  0  0  0  2  0  0  0  0  0  0
  196.3750  171.9740  145.4320 Cl  0  0  0  0  0  0  0  0  0  0  0  0
  195.9310  175.9950  144.7060 C   0  0  2  0  0  3  0  0  0  0  0  0
  196.1930  176.2160  143.2440 C   0  0  0  0  0  0  0  0  0  0  0  0
  195.8620  173.4550  144.6340 C   0  0  0  0  0  0  0  0  0  0  0  0
  195.5290  174.0740  142.1680 C   0  0  0  0  0  2  0  0  0  0  0  0
  196.2830  174.6080  145.1780 C   0  0  0  0  0  3  0  0  0  0  0  0
  194.5620  176.4320  145.1310 C   0  0  0  0  0  0  0  0  0  0  0  0
  193.3990  175.8370  144.5510 N   0  0  0  0  0  2  0  0  0  0  0  0
  194.4480  177.3280  146.0070 O   0  0  0  0  0  0  0  0  0  0  0  0
  192.0490  176.2710  144.8760 C   0  0  2  0  0  3  0  0  0  0  0  0
  191.2380  175.0850  145.3950 C   0  0  1  0  0  3  0  0  0  0  0  0
  191.3900  174.9630  146.8380 N   0  0  0  0  0  2  0  0  0  0  0  0
  189.7790  175.3200  145.1800 C   0  0  0  0  0  2  0  0  0  0  0  0
  189.3070  175.6750  146.5650 C   0  0  1  0  0  3  0  0  0  0  0  0
  190.4200  175.7230  147.4240 O   0  0  0  0  0  0  0  0  0  0  0  0
  188.5940  176.9540  146.5650 N   0  0  0  0  0  2  0  0  0  0  0  0
  187.3620  176.7900  145.9040 N   0  0  0  0  0  0  0  0  0  0  0  0
  186.3950  176.7790  146.8520 O   0  0  0  0  0  1  0  0  0  0  0  0
  187.1460  177.9520  145.0390 C   0  0  0  0  0  2  0  0  0  0  0  0
  185.8780  177.8600  144.3180 N   0  0  0  0  0  0  0  0  0  0  0  0
  185.1900  179.1270  144.5170 C   0  0  0  0  0  3  0  0  0  0  0  0
  183.6920  178.9270  144.3630 C   0  0  0  0  0  2  0  0  0  0  0  0
  184.2980  179.0410  145.7430 C   0  0  0  0  0  2  0  0  0  0  0  0
  186.2160  177.7840  142.9040 C   0  0  0  0  0  2  0  0  0  0  0  0
  187.6590  178.2040  142.6840 C   0  0  0  0  0  2  0  0  0  0  0  0
  187.6510  176.2910  141.7180 O   0  0  0  0  0  1  0  0  0  0  0  0
  188.2130  177.4760  141.6300 O   0  0  0  0  0  0  0  0  0  0  0  0
  191.3880  176.8450  143.6280 C   0  0  0  0  0  2  0  0  0  0  0  0
  191.2450  178.3510  143.7410 C   0  0  0  0  0  1  0  0  0  0  0  0
  194.3520  172.1490  143.1970 O   0  0  0  0  0  0  0  0  0  0  0  0
  193.1380  172.0640  143.9030 C   0  0  0  0  0  2  0  0  0  0  0  0
  192.5860  170.6520  143.8300 C   0  0  0  0  0  2  0  0  0  0  0  0
  191.2440  170.6450  143.1240 C   0  0  0  0  0  2  0  0  0  0  0  0
  192.8320  169.7020  141.1860 O   0  0  0  0  0  0  0  0  0  0  0  0
  191.3810  169.7840  141.5720 S   0  0  0  0  0  0  0  0  0  0  0  0
  190.8190  168.3980  141.7100 O   0  0  0  0  0  0  0  0  0  0  0  0
  190.4920  170.6480  140.3630 N   0  0  0  0  0  2  0  0  0  0  0  0
  191.3050  171.3900  138.1350 C   0  0  0  0  0  0  0  0  0  0  0  0
  192.6120  171.6170  137.3980 C   0  0  0  0  0  1  0  0  0  0  0  0
  190.6940  172.5890  138.8470 C   0  0  2  0  0  0  0  0  0  0  0  0
  191.4110  173.7840  138.7440 O   0  0  0  0  0  1  0  0  0  0  0  0
  190.3640  170.3200  137.5900 C   0  0  0  0  0  1  0  0  0  0  0  0
  191.4290  171.5170  139.6600 C   0  0  1  0  0  3  0  0  0  0  0  0
  189.1690  172.6910  138.9590 C   0  0  2  0  0  3  0  0  0  0  0  0
  188.2860  174.5420  137.7400 O   0  0  0  0  0  1  0  0  0  0  0  0
  188.5750  173.1810  137.6500 C   0  0  0  0  0  2  0  0  0  0  0  0
  188.2300  172.8420  141.0010 O   0  0  0  0  0  1  0  0  0  0  0  0
  188.8090  173.5960  140.0380 N   0  0  0  0  0  2  0  0  0  0  0  0
  1 33  1  6  0  0  0
  1  7  1  0  0  0  0
  2  6  2  0  0  0  0
  3  6  1  0  0  0  0
  5 10  1  6  0  0  0
  5  9  1  0  0  0  0
  6  5  1  0  0  0  0
  7  9  2  0  0  0  0
  7  4  1  0  0  0  0
  8  3  1  0  0  0  0
  8  1  1  0  0  0  0
 10 12  2  0  0  0  0
 11 13  1  0  0  0  0
 11 10  1  0  0  0  0
 13 31  1  6  0  0  0
 14 13  1  1  0  0  0
 14 15  1  0  0  0  0
 15 18  1  0  0  0  0
 16 14  1  0  0  0  0
 16 17  1  0  0  0  0
 17 19  1  6  0  0  0
 17 18  1  0  0  0  0
 20 19  1  0  0  0  0
 20 21  1  0  0  0  0
 22 20  1  0  0  0  0
 23 24  1  0  0  0  0
 23 22  1  0  0  0  0
 24 26  1  0  0  0  0
 25 24  1  0  0  0  0
 25 26  1  0  0  0  0
 27 23  1  0  0  0  0
 28 27  1  0  0  0  0
 30 29  1  0  0  0  0
 30 28  1  0  0  0  0
 31 32  1  0  0  0  0
 33 34  1  0  0  0  0
 35 34  1  0  0  0  0
 36 35  1  0  0  0  0
 37 38  2  0  0  0  0
 38 39  2  0  0  0  0
 38 36  1  0  0  0  0
 40 38  1  0  0  0  0
 41 43  1  0  0  0  0
 41 46  1  0  0  0  0
 42 41  1  0  0  0  0
 43 44  1  6  0  0  0
 43 47  1  0  0  0  0
 43 46  1  0  0  0  0
 45 41  1  0  0  0  0
 46 40  1  1  0  0  0
 47 49  1  6  0  0  0
 47 51  1  0  0  0  0
 49 48  1  0  0  0  0
 51 50  1  0  0  0  0
M  END
>  <MODEL>
8

>  <REMARK>
 VINA RESULT:      -5.2      2.358      3.463
  Name = 
  22 active torsions:
  status: ('A' for Active; 'I' for Inactive)
    1  A    between atoms: C_2  and  C_14
    2  A    between atoms: C_2  and  N_21
    3  A    between atoms: C_2  and  C_40
    4  A    between atoms: C_3  and  C_28
    5  A    between atoms: C_5  and  N_23
    6  A    between atoms: O_7  and  C_8
    7  A    between atoms: O_7  and  C_19
    8  A    between atoms: O_11  and  C_37
    9  A    between atoms: C_12  and  C_24
   10  A    between atoms: C_12  and  S_36
   11  A    between atoms: C_15  and  C_42
   12  A    between atoms: C_18  and  N_23
   13  A    between atoms: C_18  and  N_31
   14  A    between atoms: C_19  and  C_24
   15  A    between atoms: N_20  and  N_31
   16  A    between atoms: N_20  and  C_38
   17  A    between atoms: N_23  and  C_27
   18  A    between atoms: C_27  and  C_37
   19  A    between atoms: C_29  and  C_42
   20  A    between atoms: N_35  and  C_42
   21  A    between atoms: S_36  and  N_44
   22  A    between atoms: N_44  and  C_51
                            x       y       z     vdW  Elec       q    Type
                         _______ _______ _______ _____ _____    ______ ____

>  <TORSDO>
F 22

$$$$
=
 OpenBabel11042413563D

 51 54  0  0  1  0  0  0  0  0999 V2000
  194.1600  174.2350  143.7860 C   0  0  1  0  0  3  0  0  0  0  0  0
  194.5670  177.0200  146.8420 O   0  0  0  0  0  0  0  0  0  0  0  0
  194.4530  176.6270  144.5290 C   0  0  0  0  0  2  0  0  0  0  0  0
  194.1510  171.7160  145.1290 Cl  0  0  0  0  0  0  0  0  0  0  0  0
  192.8980  175.4600  146.2730 C   0  0  2  0  0  3  0  0  0  0  0  0
  194.0030  176.4210  145.9410 C   0  0  0  0  0  0  0  0  0  0  0  0
  193.8520  173.4470  145.0470 C   0  0  0  0  0  0  0  0  0  0  0  0
  195.1550  175.3880  143.9930 C   0  0  0  0  0  2  0  0  0  0  0  0
  193.2950  174.0140  146.1300 C   0  0  0  0  0  3  0  0  0  0  0  0
  191.6080  175.7870  145.5850 C   0  0  0  0  0  0  0  0  0  0  0  0
  191.5480  175.8700  144.1590 N   0  0  0  0  0  2  0  0  0  0  0  0
  190.5760  175.9860  146.2780 O   0  0  0  0  0  0  0  0  0  0  0  0
  190.3390  176.2520  143.4440 C   0  0  2  0  0  3  0  0  0  0  0  0
  189.9960  175.1830  142.4080 C   0  0  1  0  0  3  0  0  0  0  0  0
  189.1440  174.1610  143.0000 N   0  0  0  0  0  2  0  0  0  0  0  0
  189.1790  175.7740  141.3060 C   0  0  0  0  0  2  0  0  0  0  0  0
  187.7980  175.2680  141.6280 C   0  0  1  0  0  3  0  0  0  0  0  0
  187.8480  174.5560  142.8400 O   0  0  0  0  0  0  0  0  0  0  0  0
  186.8400  176.3720  141.7120 N   0  0  0  0  0  2  0  0  0  0  0  0
  187.0060  177.0270  142.9470 N   0  0  0  0  0  0  0  0  0  0  0  0
  187.1860  178.3430  142.6820 O   0  0  0  0  0  1  0  0  0  0  0  0
  185.7690  176.8770  143.7170 C   0  0  0  0  0  2  0  0  0  0  0  0
  185.7820  177.7030  144.9230 N   0  0  0  0  0  0  0  0  0  0  0  0
  184.4560  178.2930  145.0400 C   0  0  0  0  0  3  0  0  0  0  0  0
  184.5240  179.7750  144.7130 C   0  0  0  0  0  2  0  0  0  0  0  0
  183.9980  178.8000  143.6840 C   0  0  0  0  0  2  0  0  0  0  0  0
  185.9340  176.7860  146.0440 C   0  0  0  0  0  2  0  0  0  0  0  0
  187.2240  177.0770  146.7920 C   0  0  0  0  0  2  0  0  0  0  0  0
  185.9370  177.9030  148.2940 O   0  0  0  0  0  1  0  0  0  0  0  0
  187.0480  178.1690  147.6410 O   0  0  0  0  0  0  0  0  0  0  0  0
  190.5610  177.5920  142.7530 C   0  0  0  0  0  2  0  0  0  0  0  0
  191.0190  178.6400  143.7500 C   0  0  0  0  0  1  0  0  0  0  0  0
  194.4340  173.4270  142.6570 O   0  0  0  0  0  0  0  0  0  0  0  0
  193.4690  173.6690  141.6620 C   0  0  0  0  0  2  0  0  0  0  0  0
  192.2920  172.7250  141.8330 C   0  0  0  0  0  2  0  0  0  0  0  0
  192.7330  171.2890  141.6250 C   0  0  0  0  0  2  0  0  0  0  0  0
  191.6880  168.9340  142.3520 O   0  0  0  0  0  0  0  0  0  0  0  0
  191.3170  170.2110  141.6520 S   0  0  0  0  0  0  0  0  0  0  0  0
  190.1880  170.8770  142.3870 O   0  0  0  0  0  0  0  0  0  0  0  0
  190.8270  169.8770  140.0250 N   0  0  0  0  0  2  0  0  0  0  0  0
  191.6650  169.8890  137.6850 C   0  0  0  0  0  0  0  0  0  0  0  0
  192.9460  169.6300  136.9150 C   0  0  0  0  0  1  0  0  0  0  0  0
  191.3870  171.3270  138.1030 C   0  0  2  0  0  0  0  0  0  0  0  0
  192.3530  172.2640  137.7280 O   0  0  0  0  0  1  0  0  0  0  0  0
  190.4740  168.9800  137.4020 C   0  0  0  0  0  1  0  0  0  0  0  0
  191.8990  170.3210  139.1410 C   0  0  1  0  0  3  0  0  0  0  0  0
  189.9350  171.8100  138.1900 C   0  0  2  0  0  3  0  0  0  0  0  0
  189.2050  173.7070  136.9410 O   0  0  0  0  0  1  0  0  0  0  0  0
  189.4740  172.3420  136.8450 C   0  0  0  0  0  2  0  0  0  0  0  0
  188.7390  172.5290  139.9590 O   0  0  0  0  0  1  0  0  0  0  0  0
  189.8160  172.8460  139.2020 N   0  0  0  0  0  2  0  0  0  0  0  0
  1 33  1  6  0  0  0
  1  8  1  0  0  0  0
  1  7  1  0  0  0  0
  3  6  1  0  0  0  0
  5 10  1  6  0  0  0
  6  5  1  0  0  0  0
  6  2  2  0  0  0  0
  7  4  1  0  0  0  0
  7  9  2  0  0  0  0
  8  3  1  0  0  0  0
  9  5  1  0  0  0  0
 10 12  2  0  0  0  0
 11 10  1  0  0  0  0
 13 31  1  6  0  0  0
 13 11  1  0  0  0  0
 14 15  1  0  0  0  0
 14 13  1  1  0  0  0
 16 17  1  0  0  0  0
 16 14  1  0  0  0  0
 17 19  1  1  0  0  0
 17 18  1  0  0  0  0
 18 15  1  0  0  0  0
 19 20  1  0  0  0  0
 20 22  1  0  0  0  0
 21 20  1  0  0  0  0
 22 23  1  0  0  0  0
 23 24  1  0  0  0  0
 23 27  1  0  0  0  0
 25 24  1  0  0  0  0
 26 25  1  0  0  0  0
 26 24  1  0  0  0  0
 27 28  1  0  0  0  0
 28 30  1  0  0  0  0
 30 29  1  0  0  0  0
 31 32  1  0  0  0  0
 34 35  1  0  0  0  0
 34 33  1  0  0  0  0
 36 38  1  0  0  0  0
 36 35  1  0  0  0  0
 38 37  2  0  0  0  0
 38 39  2  0  0  0  0
 40 38  1  0  0  0  0
 41 43  1  0  0  0  0
 41 46  1  0  0  0  0
 42 41  1  0  0  0  0
 43 44  1  6  0  0  0
 43 47  1  0  0  0  0
 43 46  1  0  0  0  0
 45 41  1  0  0  0  0
 46 40  1  1  0  0  0
 47 49  1  6  0  0  0
 47 51  1  0  0  0  0
 49 48  1  0  0  0  0
 51 50  1  0  0  0  0
M  END
>  <MODEL>
9

>  <REMARK>
 VINA RESULT:      -5.2      2.494      3.884
  Name = 
  22 active torsions:
  status: ('A' for Active; 'I' for Inactive)
    1  A    between atoms: C_2  and  C_14
    2  A    between atoms: C_2  and  N_21
    3  A    between atoms: C_2  and  C_40
    4  A    between atoms: C_3  and  C_28
    5  A    between atoms: C_5  and  N_23
    6  A    between atoms: O_7  and  C_8
    7  A    between atoms: O_7  and  C_19
    8  A    between atoms: O_11  and  C_37
    9  A    between atoms: C_12  and  C_24
   10  A    between atoms: C_12  and  S_36
   11  A    between atoms: C_15  and  C_42
   12  A    between atoms: C_18  and  N_23
   13  A    between atoms: C_18  and  N_31
   14  A    between atoms: C_19  and  C_24
   15  A    between atoms: N_20  and  N_31
   16  A    between atoms: N_20  and  C_38
   17  A    between atoms: N_23  and  C_27
   18  A    between atoms: C_27  and  C_37
   19  A    between atoms: C_29  and  C_42
   20  A    between atoms: N_35  and  C_42
   21  A    between atoms: S_36  and  N_44
   22  A    between atoms: N_44  and  C_51
                            x       y       z     vdW  Elec       q    Type
                         _______ _______ _______ _____ _____    ______ ____

>  <TORSDO>
F 22

$$$$
