=
 OpenBabel11042418103D

 40 44  0  0  0  0  0  0  0  0999 V2000
  193.0660  175.2420  145.5110 C   0  0  0  0  0  0  0  0  0  0  0  0
  188.5330  176.4420  145.0500 C   0  0  0  0  0  2  0  0  0  0  0  0
  194.2830  175.5160  146.1430 C   0  0  0  0  0  3  0  0  0  0  0  0
  190.7750  173.4250  140.3680 C   0  0  0  0  0  2  0  0  0  0  0  0
  190.3640  174.1510  141.5830 C   0  0  0  0  0  0  0  0  0  0  0  0
  190.4790  174.9820  144.3780 N   0  0  0  0  0  0  0  0  0  0  0  0
  185.6690  177.9680  146.5990 C   0  0  0  0  0  3  0  0  0  0  0  0
  194.0010  175.9890  143.4040 C   0  0  0  0  0  3  0  0  0  0  0  0
  186.3680  177.3030  145.7210 C   0  0  0  0  0  0  0  0  0  0  0  0
  190.7170  174.6420  145.7580 C   0  0  0  0  0  3  0  0  0  0  0  0
  192.6650  174.5230  141.2840 C   0  0  0  0  0  2  0  0  0  0  0  0
  186.4640  176.3290  143.5440 C   0  0  0  0  0  3  0  0  0  0  0  0
  192.1670  173.8020  140.1050 N   0  0  0  0  0  0  0  0  0  0  0  0
  191.6110  175.1230  143.4950 C   0  0  0  0  0  0  0  0  0  0  0  0
  195.3560  176.0250  145.4080 C   0  0  0  0  0  3  0  0  0  0  0  0
  188.5530  175.2080  142.8790 C   0  0  0  0  0  0  0  0  0  0  0  0
  192.9220  175.4570  144.1270 C   0  0  0  0  0  0  0  0  0  0  0  0
  191.5180  174.7430  142.2070 C   0  0  0  0  0  0  0  0  0  0  0  0
  189.1810  175.5050  144.0440 C   0  0  0  0  0  0  0  0  0  0  0  0
  191.9320  174.7470  146.3040 C   0  0  0  0  0  3  0  0  0  0  0  0
  187.1700  175.6640  142.6330 C   0  0  0  0  0  3  0  0  0  0  0  0
  195.2180  176.2690  144.0330 C   0  0  0  0  0  0  0  0  0  0  0  0
  187.0640  176.6460  144.8370 C   0  0  0  0  0  0  0  0  0  0  0  0
  189.1160  174.3790  141.8550 N   0  0  0  0  0  0  0  0  0  0  0  0
  184.0870  178.6660  146.1370 S   0  0  0  0  0  0  0  0  0  0  0  0
  183.9560  178.9350  143.4210 C   0  0  0  0  0  1  0  0  0  0  0  0
  184.7470  179.4190  144.6200 C   0  0  0  0  0  2  0  0  0  0  0  0
  192.9360  172.5710  140.0000 C   0  0  0  0  0  2  0  0  0  0  0  0
  193.5880  172.2520  141.3340 C   0  0  0  0  0  2  0  0  0  0  0  0
  193.4310  170.3690  142.8500 N   0  0  0  0  0  0  0  0  0  0  0  0
  193.3670  170.8520  141.6690 N   0  0  0  0  0  0  0  0  0  0  0  0
  192.8770  171.8060  144.6360 O   0  0  0  0  0  0  0  0  0  0  0  0
  193.7440  171.0990  144.0500 C   0  0  0  0  0  0  0  0  0  0  0  0
  195.0710  171.0180  144.5780 N   0  0  0  0  0  2  0  0  0  0  0  0
  195.4960  171.7620  145.7610 C   0  0  0  0  0  2  0  0  0  0  0  0
  196.7150  172.6080  145.4330 C   0  0  0  0  0  1  0  0  0  0  0  0
  196.2960  176.8010  143.2560 N   0  0  0  0  0  2  0  0  0  0  0  0
  197.3580  176.0000  142.6580 C   0  0  0  0  0  3  0  0  0  0  0  0
  196.8510  175.2300  141.6270 F   0  0  0  0  0  0  0  0  0  0  0  0
  197.9390  175.1860  143.6130 F   0  0  0  0  0  0  0  0  0  0  0  0
  1  3  1  0  0  0  0
  1 20  1  0  0  0  0
  4  5  1  0  0  0  0
  5 24  2  0  0  0  0
  5 18  1  0  0  0  0
  6 10  1  0  0  0  0
  8 22  2  0  0  0  0
  8 17  1  0  0  0  0
  9  7  2  0  0  0  0
 10 20  2  0  0  0  0
 11 18  1  0  0  0  0
 12 23  1  0  0  0  0
 13  4  1  0  0  0  0
 13 11  1  0  0  0  0
 14 17  1  0  0  0  0
 14  6  1  0  0  0  0
 15  3  2  0  0  0  0
 16 19  2  0  0  0  0
 17  1  2  0  0  0  0
 18 14  2  0  0  0  0
 19  6  1  0  0  0  0
 19  2  1  0  0  0  0
 21 16  1  0  0  0  0
 21 12  2  0  0  0  0
 22 15  1  0  0  0  0
 23  2  1  0  0  0  0
 23  9  2  0  0  0  0
 24 16  1  0  0  0  0
 25  7  1  0  0  0  0
 26 27  1  0  0  0  0
 27 25  1  0  0  0  0
 28 13  1  0  0  0  0
 28 29  1  0  0  0  0
 29 31  1  0  0  0  0
 30 33  1  0  0  0  0
 31 30  2  0  0  0  0
 33 34  1  0  0  0  0
 33 32  2  0  0  0  0
 34 35  1  0  0  0  0
 36 35  1  0  0  0  0
 37 22  1  0  0  0  0
 38 37  1  0  0  0  0
 38 40  1  0  0  0  0
 39 38  1  0  0  0  0
M  END
>  <MODEL>
1

>  <REMARK>
 VINA RESULT:      -7.0      0.000      0.000
  Name = 
  9 active torsions:
  status: ('A' for Active; 'I' for Inactive)
    1  A    between atoms: C_1  and  C_19
    2  A    between atoms: C_1  and  N_25
    3  A    between atoms: N_2  and  C_21
    4  A    between atoms: C_6  and  N_30
    5  A    between atoms: C_11  and  S_15
    6  A    between atoms: S_15  and  C_39
    7  A    between atoms: N_18  and  C_19
    8  A    between atoms: C_26  and  N_40
    9  A    between atoms: N_30  and  C_32
                            x       y       z     vdW  Elec       q    Type
                         _______ _______ _______ _____ _____    ______ ____

>  <TORSDO>
F 9

$$$$
=
 OpenBabel11042418103D

 40 44  0  0  0  0  0  0  0  0999 V2000
  193.0760  175.1790  145.4440 C   0  0  0  0  0  0  0  0  0  0  0  0
  188.5460  176.3860  144.9790 C   0  0  0  0  0  2  0  0  0  0  0  0
  194.2890  175.4410  146.0900 C   0  0  0  0  0  3  0  0  0  0  0  0
  190.8190  173.4690  140.2500 C   0  0  0  0  0  2  0  0  0  0  0  0
  190.4000  174.1690  141.4770 C   0  0  0  0  0  0  0  0  0  0  0  0
  190.4970  174.9420  144.2890 N   0  0  0  0  0  0  0  0  0  0  0  0
  185.6710  177.8790  146.5410 C   0  0  0  0  0  3  0  0  0  0  0  0
  194.0250  175.9700  143.3590 C   0  0  0  0  0  3  0  0  0  0  0  0
  186.3760  177.2330  145.6540 C   0  0  0  0  0  0  0  0  0  0  0  0
  190.7260  174.5730  145.6630 C   0  0  0  0  0  3  0  0  0  0  0  0
  192.7030  174.5480  141.2000 C   0  0  0  0  0  2  0  0  0  0  0  0
  186.4870  176.3040  143.4570 C   0  0  0  0  0  3  0  0  0  0  0  0
  192.2120  173.8520  140.0030 N   0  0  0  0  0  0  0  0  0  0  0  0
  191.6340  175.1020  143.4160 C   0  0  0  0  0  0  0  0  0  0  0  0
  195.3660  175.9650  145.3720 C   0  0  0  0  0  3  0  0  0  0  0  0
  188.5800  175.1980  142.7830 C   0  0  0  0  0  0  0  0  0  0  0  0
  192.9410  175.4230  144.0640 C   0  0  0  0  0  0  0  0  0  0  0  0
  191.5500  174.7490  142.1200 C   0  0  0  0  0  0  0  0  0  0  0  0
  189.2000  175.4710  143.9570 C   0  0  0  0  0  0  0  0  0  0  0  0
  191.9370  174.6670  146.2190 C   0  0  0  0  0  3  0  0  0  0  0  0
  187.1980  175.6590  142.5370 C   0  0  0  0  0  3  0  0  0  0  0  0
  195.2370  176.2370  144.0020 C   0  0  0  0  0  0  0  0  0  0  0  0
  187.0770  176.5950  144.7610 C   0  0  0  0  0  0  0  0  0  0  0  0
  189.1510  174.3910  141.7460 N   0  0  0  0  0  0  0  0  0  0  0  0
  184.0920  178.5860  146.0830 S   0  0  0  0  0  0  0  0  0  0  0  0
  183.9590  178.8610  143.3680 C   0  0  0  0  0  1  0  0  0  0  0  0
  184.7530  179.3400  144.5680 C   0  0  0  0  0  2  0  0  0  0  0  0
  192.9830  172.6240  139.8780 C   0  0  0  0  0  2  0  0  0  0  0  0
  192.0850  171.4940  139.4060 C   0  0  0  0  0  2  0  0  0  0  0  0
  192.7380  169.7150  140.9160 N   0  0  0  0  0  0  0  0  0  0  0  0
  192.6890  170.2110  139.7400 N   0  0  0  0  0  0  0  0  0  0  0  0
  190.9900  170.3880  142.3500 O   0  0  0  0  0  0  0  0  0  0  0  0
  192.2300  170.3260  142.1160 C   0  0  0  0  0  0  0  0  0  0  0  0
  193.1590  170.8760  143.0540 N   0  0  0  0  0  2  0  0  0  0  0  0
  192.7370  171.5580  144.2740 C   0  0  0  0  0  2  0  0  0  0  0  0
  193.9090  171.6820  145.2340 C   0  0  0  0  0  1  0  0  0  0  0  0
  196.3200  176.7860  143.2430 N   0  0  0  0  0  2  0  0  0  0  0  0
  196.9300  176.1400  142.0870 C   0  0  0  0  0  3  0  0  0  0  0  0
  196.2760  176.5200  140.9280 F   0  0  0  0  0  0  0  0  0  0  0  0
  196.8810  174.7650  142.2260 F   0  0  0  0  0  0  0  0  0  0  0  0
  1  3  1  0  0  0  0
  1 20  1  0  0  0  0
  4  5  1  0  0  0  0
  5 24  2  0  0  0  0
  5 18  1  0  0  0  0
  6 10  1  0  0  0  0
  8 22  2  0  0  0  0
  8 17  1  0  0  0  0
  9  7  2  0  0  0  0
 10 20  2  0  0  0  0
 11 18  1  0  0  0  0
 12 23  1  0  0  0  0
 13  4  1  0  0  0  0
 13 11  1  0  0  0  0
 14 17  1  0  0  0  0
 14  6  1  0  0  0  0
 15  3  2  0  0  0  0
 16 19  2  0  0  0  0
 17  1  2  0  0  0  0
 18 14  2  0  0  0  0
 19  6  1  0  0  0  0
 19  2  1  0  0  0  0
 21 16  1  0  0  0  0
 21 12  2  0  0  0  0
 22 15  1  0  0  0  0
 23  2  1  0  0  0  0
 23  9  2  0  0  0  0
 24 16  1  0  0  0  0
 25  7  1  0  0  0  0
 26 27  1  0  0  0  0
 27 25  1  0  0  0  0
 28 13  1  0  0  0  0
 29 31  1  0  0  0  0
 29 28  1  0  0  0  0
 30 33  1  0  0  0  0
 31 30  2  0  0  0  0
 33 32  2  0  0  0  0
 33 34  1  0  0  0  0
 34 35  1  0  0  0  0
 35 36  1  0  0  0  0
 37 22  1  0  0  0  0
 38 40  1  0  0  0  0
 38 37  1  0  0  0  0
 39 38  1  0  0  0  0
M  END
>  <MODEL>
2

>  <REMARK>
 VINA RESULT:      -7.0      0.990      1.268
  Name = 
  9 active torsions:
  status: ('A' for Active; 'I' for Inactive)
    1  A    between atoms: C_1  and  C_19
    2  A    between atoms: C_1  and  N_25
    3  A    between atoms: N_2  and  C_21
    4  A    between atoms: C_6  and  N_30
    5  A    between atoms: C_11  and  S_15
    6  A    between atoms: S_15  and  C_39
    7  A    between atoms: N_18  and  C_19
    8  A    between atoms: C_26  and  N_40
    9  A    between atoms: N_30  and  C_32
                            x       y       z     vdW  Elec       q    Type
                         _______ _______ _______ _____ _____    ______ ____

>  <TORSDO>
F 9

$$$$
=
 OpenBabel11042418103D

 40 44  0  0  0  0  0  0  0  0999 V2000
  190.6920  176.6350  145.3630 C   0  0  0  0  0  0  0  0  0  0  0  0
  193.6020  172.9650  144.8420 C   0  0  0  0  0  2  0  0  0  0  0  0
  190.1030  177.5330  146.2580 C   0  0  0  0  0  3  0  0  0  0  0  0
  189.6320  173.6170  140.3860 C   0  0  0  0  0  2  0  0  0  0  0  0
  190.5440  173.5850  141.5430 C   0  0  0  0  0  0  0  0  0  0  0  0
  192.0100  174.6440  143.8330 N   0  0  0  0  0  0  0  0  0  0  0  0
  196.4170  171.1660  146.1730 C   0  0  0  0  0  3  0  0  0  0  0  0
  188.5280  175.6220  144.9640 C   0  0  0  0  0  3  0  0  0  0  0  0
  195.4810  171.5140  145.3330 C   0  0  0  0  0  0  0  0  0  0  0  0
  192.7520  175.7260  144.4300 C   0  0  0  0  0  3  0  0  0  0  0  0
  188.5360  174.5740  142.2560 C   0  0  0  0  0  2  0  0  0  0  0  0
  194.2650  170.9960  143.3440 C   0  0  0  0  0  3  0  0  0  0  0  0
  188.3350  174.0820  140.8870 N   0  0  0  0  0  0  0  0  0  0  0  0
  190.5770  174.7640  143.7250 C   0  0  0  0  0  0  0  0  0  0  0  0
  188.7290  177.4770  146.5050 C   0  0  0  0  0  3  0  0  0  0  0  0
  192.5010  172.5600  142.6380 C   0  0  0  0  0  0  0  0  0  0  0  0
  189.9030  175.6820  144.6900 C   0  0  0  0  0  0  0  0  0  0  0  0
  189.9310  174.2500  142.6620 C   0  0  0  0  0  0  0  0  0  0  0  0
  192.6820  173.3770  143.7050 C   0  0  0  0  0  0  0  0  0  0  0  0
  192.1450  176.6780  145.1430 C   0  0  0  0  0  3  0  0  0  0  0  0
  193.3050  171.3300  142.4870 C   0  0  0  0  0  3  0  0  0  0  0  0
  187.9350  176.5150  145.8620 C   0  0  0  0  0  0  0  0  0  0  0  0
  194.5440  171.8520  144.4950 C   0  0  0  0  0  0  0  0  0  0  0  0
  191.6120  172.8490  141.5510 N   0  0  0  0  0  0  0  0  0  0  0  0
  197.1890  169.5580  146.0320 S   0  0  0  0  0  0  0  0  0  0  0  0
  195.2100  168.5400  147.6180 C   0  0  0  0  0  1  0  0  0  0  0  0
  195.6060  168.6730  146.1610 C   0  0  0  0  0  2  0  0  0  0  0  0
  187.9400  175.2230  140.0760 C   0  0  0  0  0  2  0  0  0  0  0  0
  187.3830  176.3220  140.9640 C   0  0  0  0  0  2  0  0  0  0  0  0
  186.0480  178.2820  140.4680 N   0  0  0  0  0  0  0  0  0  0  0  0
  186.9650  177.4530  140.1470 N   0  0  0  0  0  0  0  0  0  0  0  0
  184.2030  177.5510  141.7420 O   0  0  0  0  0  0  0  0  0  0  0  0
  185.2550  178.2470  141.6680 C   0  0  0  0  0  0  0  0  0  0  0  0
  185.6730  179.0250  142.7930 N   0  0  0  0  0  2  0  0  0  0  0  0
  184.9070  179.0920  144.0340 C   0  0  0  0  0  2  0  0  0  0  0  0
  185.7160  179.8010  145.1070 C   0  0  0  0  0  1  0  0  0  0  0  0
  186.5270  176.4250  146.1040 N   0  0  0  0  0  2  0  0  0  0  0  0
  185.8310  177.1020  147.1920 C   0  0  0  0  0  3  0  0  0  0  0  0
  185.9920  176.4000  148.3720 F   0  0  0  0  0  0  0  0  0  0  0  0
  184.4850  177.2250  146.8960 F   0  0  0  0  0  0  0  0  0  0  0  0
  1  3  1  0  0  0  0
  3 15  2  0  0  0  0
  4 13  1  0  0  0  0
  4  5  1  0  0  0  0
  5 24  2  0  0  0  0
  5 18  1  0  0  0  0
  6 10  1  0  0  0  0
  8 22  2  0  0  0  0
  9  7  2  0  0  0  0
 10 20  2  0  0  0  0
 11 18  1  0  0  0  0
 12 23  1  0  0  0  0
 13 11  1  0  0  0  0
 14  6  1  0  0  0  0
 14 17  1  0  0  0  0
 16 19  2  0  0  0  0
 17  8  1  0  0  0  0
 17  1  2  0  0  0  0
 18 14  2  0  0  0  0
 19  6  1  0  0  0  0
 19  2  1  0  0  0  0
 20  1  1  0  0  0  0
 21 16  1  0  0  0  0
 21 12  2  0  0  0  0
 22 37  1  0  0  0  0
 22 15  1  0  0  0  0
 23  2  1  0  0  0  0
 23  9  2  0  0  0  0
 24 16  1  0  0  0  0
 25 27  1  0  0  0  0
 25  7  1  0  0  0  0
 27 26  1  0  0  0  0
 28 13  1  0  0  0  0
 28 29  1  0  0  0  0
 30 33  1  0  0  0  0
 31 30  2  0  0  0  0
 31 29  1  0  0  0  0
 33 32  2  0  0  0  0
 33 34  1  0  0  0  0
 34 35  1  0  0  0  0
 35 36  1  0  0  0  0
 37 38  1  0  0  0  0
 38 39  1  0  0  0  0
 40 38  1  0  0  0  0
M  END
>  <MODEL>
3

>  <REMARK>
 VINA RESULT:      -6.9      4.770      8.972
  Name = 
  9 active torsions:
  status: ('A' for Active; 'I' for Inactive)
    1  A    between atoms: C_1  and  C_19
    2  A    between atoms: C_1  and  N_25
    3  A    between atoms: N_2  and  C_21
    4  A    between atoms: C_6  and  N_30
    5  A    between atoms: C_11  and  S_15
    6  A    between atoms: S_15  and  C_39
    7  A    between atoms: N_18  and  C_19
    8  A    between atoms: C_26  and  N_40
    9  A    between atoms: N_30  and  C_32
                            x       y       z     vdW  Elec       q    Type
                         _______ _______ _______ _____ _____    ______ ____

>  <TORSDO>
F 9

$$$$
=
 OpenBabel11042418103D

 40 44  0  0  0  0  0  0  0  0999 V2000
  190.5550  172.6570  141.1910 C   0  0  0  0  0  0  0  0  0  0  0  0
  188.1590  175.8850  143.6490 C   0  0  0  0  0  2  0  0  0  0  0  0
  190.4790  171.5900  140.2900 C   0  0  0  0  0  3  0  0  0  0  0  0
  193.5820  174.6080  145.8840 C   0  0  0  0  0  2  0  0  0  0  0  0
  192.2830  174.8210  145.2220 C   0  0  0  0  0  0  0  0  0  0  0  0
  190.3550  174.8050  143.0320 N   0  0  0  0  0  0  0  0  0  0  0  0
  185.1690  177.8730  143.8600 C   0  0  0  0  0  3  0  0  0  0  0  0
  191.2670  171.1270  142.9310 C   0  0  0  0  0  3  0  0  0  0  0  0
  186.3670  177.4420  144.1450 C   0  0  0  0  0  0  0  0  0  0  0  0
  190.0750  175.0050  141.6320 C   0  0  0  0  0  3  0  0  0  0  0  0
  192.9540  172.6150  144.7680 C   0  0  0  0  0  2  0  0  0  0  0  0
  188.2010  177.4530  145.6740 C   0  0  0  0  0  3  0  0  0  0  0  0
  193.9040  173.1860  145.7310 N   0  0  0  0  0  0  0  0  0  0  0  0
  191.0600  173.6120  143.4340 C   0  0  0  0  0  0  0  0  0  0  0  0
  190.7980  170.2960  140.7080 C   0  0  0  0  0  3  0  0  0  0  0  0
  190.1710  176.0880  145.1120 C   0  0  0  0  0  0  0  0  0  0  0  0
  190.9710  172.4360  142.5180 C   0  0  0  0  0  0  0  0  0  0  0  0
  191.9320  173.6520  144.4580 C   0  0  0  0  0  0  0  0  0  0  0  0
  189.6170  175.6080  143.9720 C   0  0  0  0  0  0  0  0  0  0  0  0
  190.1760  174.0070  140.7510 C   0  0  0  0  0  3  0  0  0  0  0  0
  189.4170  177.0120  145.9850 C   0  0  0  0  0  3  0  0  0  0  0  0
  191.1890  170.0580  142.0340 C   0  0  0  0  0  0  0  0  0  0  0  0
  187.5610  177.0100  144.4380 C   0  0  0  0  0  0  0  0  0  0  0  0
  191.5210  175.8280  145.5180 N   0  0  0  0  0  0  0  0  0  0  0  0
  184.2480  178.8130  145.0730 S   0  0  0  0  0  0  0  0  0  0  0  0
  185.1930  178.3490  147.5950 C   0  0  0  0  0  1  0  0  0  0  0  0
  184.5930  177.6260  146.4060 C   0  0  0  0  0  2  0  0  0  0  0  0
  195.2250  173.1030  145.1290 C   0  0  0  0  0  2  0  0  0  0  0  0
  196.0770  174.2750  145.5840 C   0  0  0  0  0  2  0  0  0  0  0  0
  197.7040  174.8940  143.8980 N   0  0  0  0  0  0  0  0  0  0  0  0
  197.3800  174.2200  144.9340 N   0  0  0  0  0  0  0  0  0  0  0  0
  196.8330  177.0390  143.4490 O   0  0  0  0  0  0  0  0  0  0  0  0
  196.8540  175.8050  143.1780 C   0  0  0  0  0  0  0  0  0  0  0  0
  196.0160  175.2910  142.1400 N   0  0  0  0  0  2  0  0  0  0  0  0
  195.0860  176.1290  141.3890 C   0  0  0  0  0  2  0  0  0  0  0  0
  193.6780  175.9630  141.9370 C   0  0  0  0  0  1  0  0  0  0  0  0
  191.5090  168.7400  142.4940 N   0  0  0  0  0  2  0  0  0  0  0  0
  192.7710  168.3690  143.1240 C   0  0  0  0  0  3  0  0  0  0  0  0
  192.7130  168.6070  144.4850 F   0  0  0  0  0  0  0  0  0  0  0  0
  193.8150  169.0850  142.5650 F   0  0  0  0  0  0  0  0  0  0  0  0
  1 17  1  0  0  0  0
  2 19  1  0  0  0  0
  2 23  1  0  0  0  0
  3 15  1  0  0  0  0
  3  1  2  0  0  0  0
  5 24  2  0  0  0  0
  5  4  1  0  0  0  0
  6 14  1  0  0  0  0
  6 19  1  0  0  0  0
  7  9  2  0  0  0  0
  7 25  1  0  0  0  0
  9 23  2  0  0  0  0
 10  6  1  0  0  0  0
 11 13  1  0  0  0  0
 12 21  2  0  0  0  0
 13  4  1  0  0  0  0
 14 18  2  0  0  0  0
 15 22  2  0  0  0  0
 16 24  1  0  0  0  0
 16 21  1  0  0  0  0
 17  8  2  0  0  0  0
 17 14  1  0  0  0  0
 18 11  1  0  0  0  0
 18  5  1  0  0  0  0
 19 16  2  0  0  0  0
 20  1  1  0  0  0  0
 20 10  2  0  0  0  0
 22 37  1  0  0  0  0
 22  8  1  0  0  0  0
 23 12  1  0  0  0  0
 25 27  1  0  0  0  0
 27 26  1  0  0  0  0
 28 29  1  0  0  0  0
 28 13  1  0  0  0  0
 30 31  2  0  0  0  0
 31 29  1  0  0  0  0
 33 32  2  0  0  0  0
 33 30  1  0  0  0  0
 34 33  1  0  0  0  0
 35 36  1  0  0  0  0
 35 34  1  0  0  0  0
 37 38  1  0  0  0  0
 38 39  1  0  0  0  0
 40 38  1  0  0  0  0
M  END
>  <MODEL>
4

>  <REMARK>
 VINA RESULT:      -6.8      2.689      5.359
  Name = 
  9 active torsions:
  status: ('A' for Active; 'I' for Inactive)
    1  A    between atoms: C_1  and  C_19
    2  A    between atoms: C_1  and  N_25
    3  A    between atoms: N_2  and  C_21
    4  A    between atoms: C_6  and  N_30
    5  A    between atoms: C_11  and  S_15
    6  A    between atoms: S_15  and  C_39
    7  A    between atoms: N_18  and  C_19
    8  A    between atoms: C_26  and  N_40
    9  A    between atoms: N_30  and  C_32
                            x       y       z     vdW  Elec       q    Type
                         _______ _______ _______ _____ _____    ______ ____

>  <TORSDO>
F 9

$$$$
=
 OpenBabel11042418103D

 40 44  0  0  0  0  0  0  0  0999 V2000
  188.2900  175.1030  140.7780 C   0  0  0  0  0  0  0  0  0  0  0  0
  184.4720  177.5470  142.0620 C   0  0  0  0  0  2  0  0  0  0  0  0
  188.7980  174.0770  139.9750 C   0  0  0  0  0  3  0  0  0  0  0  0
  188.9250  177.6340  146.0880 C   0  0  0  0  0  2  0  0  0  0  0  0
  187.9250  177.5260  145.0110 C   0  0  0  0  0  0  0  0  0  0  0  0
  186.9400  177.0790  142.3010 N   0  0  0  0  0  0  0  0  0  0  0  0
  181.2000  178.7010  141.1160 C   0  0  0  0  0  3  0  0  0  0  0  0
  188.7140  173.7600  142.7500 C   0  0  0  0  0  3  0  0  0  0  0  0
  182.2920  178.5820  141.8190 C   0  0  0  0  0  0  0  0  0  0  0  0
  187.1210  177.2390  140.8790 C   0  0  0  0  0  3  0  0  0  0  0  0
  189.2370  175.5770  144.9530 C   0  0  0  0  0  2  0  0  0  0  0  0
  183.4210  179.0190  143.8770 C   0  0  0  0  0  3  0  0  0  0  0  0
  189.6220  176.3460  146.1440 N   0  0  0  0  0  0  0  0  0  0  0  0
  187.7360  176.0950  142.9930 C   0  0  0  0  0  0  0  0  0  0  0  0
  189.2640  172.8960  140.5580 C   0  0  0  0  0  3  0  0  0  0  0  0
  185.7370  178.2170  144.1080 C   0  0  0  0  0  0  0  0  0  0  0  0
  188.2640  174.9600  142.1790 C   0  0  0  0  0  0  0  0  0  0  0  0
  188.1610  176.3290  144.2490 C   0  0  0  0  0  0  0  0  0  0  0  0
  185.7490  177.6420  142.8800 C   0  0  0  0  0  0  0  0  0  0  0  0
  187.7650  176.3240  140.1500 C   0  0  0  0  0  3  0  0  0  0  0  0
  184.5240  178.8930  144.6100 C   0  0  0  0  0  3  0  0  0  0  0  0
  189.2190  172.7300  141.9500 C   0  0  0  0  0  0  0  0  0  0  0  0
  183.3780  178.4610  142.5280 C   0  0  0  0  0  0  0  0  0  0  0  0
  186.8830  178.2980  144.9640 N   0  0  0  0  0  0  0  0  0  0  0  0
  179.7130  179.3410  141.8800 S   0  0  0  0  0  0  0  0  0  0  0  0
  178.0570  177.5440  143.1010 C   0  0  0  0  0  1  0  0  0  0  0  0
  178.8740  177.7290  141.8390 C   0  0  0  0  0  2  0  0  0  0  0  0
  191.0460  176.6190  146.0340 C   0  0  0  0  0  2  0  0  0  0  0  0
  191.7570  175.4230  145.4250 C   0  0  0  0  0  2  0  0  0  0  0  0
  194.0160  175.2720  146.2880 N   0  0  0  0  0  0  0  0  0  0  0  0
  192.7840  174.9400  146.3400 N   0  0  0  0  0  0  0  0  0  0  0  0
  194.7080  177.3970  145.5360 O   0  0  0  0  0  0  0  0  0  0  0  0
  194.6180  176.1550  145.3250 C   0  0  0  0  0  0  0  0  0  0  0  0
  195.1170  175.6040  144.1030 N   0  0  0  0  0  2  0  0  0  0  0  0
  195.6990  176.4270  143.0460 C   0  0  0  0  0  2  0  0  0  0  0  0
  197.2160  176.3790  143.1250 C   0  0  0  0  0  1  0  0  0  0  0  0
  189.6770  171.5260  142.5750 N   0  0  0  0  0  2  0  0  0  0  0  0
  190.9960  171.3550  143.1730 C   0  0  0  0  0  3  0  0  0  0  0  0
  191.0020  171.8520  144.4640 F   0  0  0  0  0  0  0  0  0  0  0  0
  191.9530  172.0040  142.4140 F   0  0  0  0  0  0  0  0  0  0  0  0
  1 17  1  0  0  0  0
  2 23  1  0  0  0  0
  2 19  1  0  0  0  0
  3 15  1  0  0  0  0
  3  1  2  0  0  0  0
  4 13  1  0  0  0  0
  5  4  1  0  0  0  0
  6 19  1  0  0  0  0
  6 14  1  0  0  0  0
  7  9  2  0  0  0  0
  7 25  1  0  0  0  0
  9 23  2  0  0  0  0
 10  6  1  0  0  0  0
 11 13  1  0  0  0  0
 12 21  2  0  0  0  0
 14 18  2  0  0  0  0
 15 22  2  0  0  0  0
 16 21  1  0  0  0  0
 16 24  1  0  0  0  0
 17  8  2  0  0  0  0
 17 14  1  0  0  0  0
 18 11  1  0  0  0  0
 18  5  1  0  0  0  0
 19 16  2  0  0  0  0
 20  1  1  0  0  0  0
 20 10  2  0  0  0  0
 22 37  1  0  0  0  0
 22  8  1  0  0  0  0
 23 12  1  0  0  0  0
 24  5  2  0  0  0  0
 27 25  1  0  0  0  0
 27 26  1  0  0  0  0
 28 13  1  0  0  0  0
 29 28  1  0  0  0  0
 29 31  1  0  0  0  0
 30 31  2  0  0  0  0
 33 32  2  0  0  0  0
 33 30  1  0  0  0  0
 34 33  1  0  0  0  0
 35 36  1  0  0  0  0
 35 34  1  0  0  0  0
 37 38  1  0  0  0  0
 38 39  1  0  0  0  0
 40 38  1  0  0  0  0
M  END
>  <MODEL>
5

>  <REMARK>
 VINA RESULT:      -6.8      3.128      6.125
  Name = 
  9 active torsions:
  status: ('A' for Active; 'I' for Inactive)
    1  A    between atoms: C_1  and  C_19
    2  A    between atoms: C_1  and  N_25
    3  A    between atoms: N_2  and  C_21
    4  A    between atoms: C_6  and  N_30
    5  A    between atoms: C_11  and  S_15
    6  A    between atoms: S_15  and  C_39
    7  A    between atoms: N_18  and  C_19
    8  A    between atoms: C_26  and  N_40
    9  A    between atoms: N_30  and  C_32
                            x       y       z     vdW  Elec       q    Type
                         _______ _______ _______ _____ _____    ______ ____

>  <TORSDO>
F 9

$$$$
=
 OpenBabel11042418103D

 40 44  0  0  0  0  0  0  0  0999 V2000
  191.7420  172.0930  142.2110 C   0  0  0  0  0  0  0  0  0  0  0  0
  188.8790  175.6370  143.4150 C   0  0  0  0  0  2  0  0  0  0  0  0
  191.8310  170.7720  141.7630 C   0  0  0  0  0  3  0  0  0  0  0  0
  194.3940  176.0170  145.7560 C   0  0  0  0  0  2  0  0  0  0  0  0
  193.0880  175.7940  145.1110 C   0  0  0  0  0  0  0  0  0  0  0  0
  191.2140  174.7160  143.1510 N   0  0  0  0  0  0  0  0  0  0  0  0
  185.6370  177.1370  143.0010 C   0  0  0  0  0  3  0  0  0  0  0  0
  192.6360  171.4170  144.3590 C   0  0  0  0  0  3  0  0  0  0  0  0
  186.8790  177.0080  143.3780 C   0  0  0  0  0  0  0  0  0  0  0  0
  190.9300  174.3510  141.7860 C   0  0  0  0  0  3  0  0  0  0  0  0
  194.0690  173.6880  145.4650 C   0  0  0  0  0  2  0  0  0  0  0  0
  188.6700  177.8260  144.7280 C   0  0  0  0  0  3  0  0  0  0  0  0
  194.9150  174.6960  146.1180 N   0  0  0  0  0  0  0  0  0  0  0  0
  192.0740  173.8610  143.9320 C   0  0  0  0  0  0  0  0  0  0  0  0
  192.3220  169.7760  142.6100 C   0  0  0  0  0  3  0  0  0  0  0  0
  190.8210  176.6330  144.6270 C   0  0  0  0  0  0  0  0  0  0  0  0
  192.1650  172.4320  143.5110 C   0  0  0  0  0  0  0  0  0  0  0  0
  192.9160  174.3910  144.8380 C   0  0  0  0  0  0  0  0  0  0  0  0
  190.3570  175.6990  143.7610 C   0  0  0  0  0  0  0  0  0  0  0  0
  191.1840  173.1240  141.3240 C   0  0  0  0  0  3  0  0  0  0  0  0
  189.9310  177.6990  145.1320 C   0  0  0  0  0  3  0  0  0  0  0  0
  192.7230  170.0950  143.9160 C   0  0  0  0  0  0  0  0  0  0  0  0
  188.1170  176.8800  143.7630 C   0  0  0  0  0  0  0  0  0  0  0  0
  192.1870  176.7260  145.0490 N   0  0  0  0  0  0  0  0  0  0  0  0
  184.5740  178.3190  143.8230 S   0  0  0  0  0  0  0  0  0  0  0  0
  185.4150  178.8020  146.3780 C   0  0  0  0  0  1  0  0  0  0  0  0
  184.9600  177.6710  145.4770 C   0  0  0  0  0  2  0  0  0  0  0  0
  196.2440  174.5790  145.5380 C   0  0  0  0  0  2  0  0  0  0  0  0
  196.6670  173.1220  145.5010 C   0  0  0  0  0  2  0  0  0  0  0  0
  197.5430  172.9210  143.2510 N   0  0  0  0  0  0  0  0  0  0  0  0
  197.7250  172.9390  144.5160 N   0  0  0  0  0  0  0  0  0  0  0  0
  195.5270  172.0620  142.3810 O   0  0  0  0  0  0  0  0  0  0  0  0
  196.2820  173.0560  142.5720 C   0  0  0  0  0  0  0  0  0  0  0  0
  195.8880  174.3490  142.1030 N   0  0  0  0  0  2  0  0  0  0  0  0
  194.6510  174.5750  141.3610 C   0  0  0  0  0  2  0  0  0  0  0  0
  194.2020  176.0170  141.5260 C   0  0  0  0  0  1  0  0  0  0  0  0
  193.2190  169.0930  144.8120 N   0  0  0  0  0  2  0  0  0  0  0  0
  194.5370  169.1210  145.4350 C   0  0  0  0  0  3  0  0  0  0  0  0
  194.4780  169.7860  146.6460 F   0  0  0  0  0  0  0  0  0  0  0  0
  195.4480  169.7420  144.6000 F   0  0  0  0  0  0  0  0  0  0  0  0
  1 17  1  0  0  0  0
  2 19  1  0  0  0  0
  2 23  1  0  0  0  0
  3  1  2  0  0  0  0
  3 15  1  0  0  0  0
  4 13  1  0  0  0  0
  5  4  1  0  0  0  0
  6 19  1  0  0  0  0
  6 14  1  0  0  0  0
  7  9  2  0  0  0  0
  7 25  1  0  0  0  0
  9 23  2  0  0  0  0
 10  6  1  0  0  0  0
 11 13  1  0  0  0  0
 12 21  2  0  0  0  0
 14 18  2  0  0  0  0
 15 22  2  0  0  0  0
 16 24  1  0  0  0  0
 16 21  1  0  0  0  0
 17 14  1  0  0  0  0
 17  8  2  0  0  0  0
 18  5  1  0  0  0  0
 18 11  1  0  0  0  0
 19 16  2  0  0  0  0
 20 10  2  0  0  0  0
 20  1  1  0  0  0  0
 22  8  1  0  0  0  0
 22 37  1  0  0  0  0
 23 12  1  0  0  0  0
 24  5  2  0  0  0  0
 25 27  1  0  0  0  0
 27 26  1  0  0  0  0
 28 13  1  0  0  0  0
 29 28  1  0  0  0  0
 30 31  2  0  0  0  0
 31 29  1  0  0  0  0
 32 33  2  0  0  0  0
 33 30  1  0  0  0  0
 34 33  1  0  0  0  0
 35 36  1  0  0  0  0
 35 34  1  0  0  0  0
 37 38  1  0  0  0  0
 38 39  1  0  0  0  0
 40 38  1  0  0  0  0
M  END
>  <MODEL>
6

>  <REMARK>
 VINA RESULT:      -6.7      2.452      4.925
  Name = 
  9 active torsions:
  status: ('A' for Active; 'I' for Inactive)
    1  A    between atoms: C_1  and  C_19
    2  A    between atoms: C_1  and  N_25
    3  A    between atoms: N_2  and  C_21
    4  A    between atoms: C_6  and  N_30
    5  A    between atoms: C_11  and  S_15
    6  A    between atoms: S_15  and  C_39
    7  A    between atoms: N_18  and  C_19
    8  A    between atoms: C_26  and  N_40
    9  A    between atoms: N_30  and  C_32
                            x       y       z     vdW  Elec       q    Type
                         _______ _______ _______ _____ _____    ______ ____

>  <TORSDO>
F 9

$$$$
=
 OpenBabel11042418103D

 40 44  0  0  0  0  0  0  0  0999 V2000
  193.1820  175.2380  145.5270 C   0  0  0  0  0  0  0  0  0  0  0  0
  188.6450  176.4400  145.1100 C   0  0  0  0  0  2  0  0  0  0  0  0
  194.4050  175.5130  146.1470 C   0  0  0  0  0  3  0  0  0  0  0  0
  190.8370  173.4160  140.4100 C   0  0  0  0  0  2  0  0  0  0  0  0
  190.4390  174.1430  141.6280 C   0  0  0  0  0  0  0  0  0  0  0  0
  190.5830  174.9790  144.4200 N   0  0  0  0  0  0  0  0  0  0  0  0
  185.7980  177.9710  146.6860 C   0  0  0  0  0  3  0  0  0  0  0  0
  194.0960  175.9820  143.4090 C   0  0  0  0  0  3  0  0  0  0  0  0
  186.4870  177.3050  145.8010 C   0  0  0  0  0  0  0  0  0  0  0  0
  190.8350  174.6400  145.7990 C   0  0  0  0  0  3  0  0  0  0  0  0
  192.7380  174.5130  141.3050 C   0  0  0  0  0  2  0  0  0  0  0  0
  186.5610  176.3270  143.6250 C   0  0  0  0  0  3  0  0  0  0  0  0
  192.2270  173.7910  140.1320 N   0  0  0  0  0  0  0  0  0  0  0  0
  191.7060  175.1180  143.5250 C   0  0  0  0  0  0  0  0  0  0  0  0
  195.4710  176.0190  145.4000 C   0  0  0  0  0  3  0  0  0  0  0  0
  188.6420  175.2040  142.9410 C   0  0  0  0  0  0  0  0  0  0  0  0
  193.0240  175.4520  144.1440 C   0  0  0  0  0  0  0  0  0  0  0  0
  191.6000  174.7360  142.2390 C   0  0  0  0  0  0  0  0  0  0  0  0
  189.2820  175.5020  144.0980 C   0  0  0  0  0  0  0  0  0  0  0  0
  192.0550  174.7450  146.3320 C   0  0  0  0  0  3  0  0  0  0  0  0
  187.2560  175.6600  142.7080 C   0  0  0  0  0  3  0  0  0  0  0  0
  195.3190  176.2610  144.0260 C   0  0  0  0  0  0  0  0  0  0  0  0
  187.1730  176.6460  144.9120 C   0  0  0  0  0  0  0  0  0  0  0  0
  189.1950  174.3730  141.9130 N   0  0  0  0  0  0  0  0  0  0  0  0
  184.2120  178.6690  146.2390 S   0  0  0  0  0  0  0  0  0  0  0  0
  184.0350  178.9390  143.5250 C   0  0  0  0  0  1  0  0  0  0  0  0
  184.8540  179.4120  144.7090 C   0  0  0  0  0  2  0  0  0  0  0  0
  192.9940  172.5600  140.0210 C   0  0  0  0  0  2  0  0  0  0  0  0
  192.5820  171.8030  138.7710 C   0  0  0  0  0  2  0  0  0  0  0  0
  192.5520  172.8990  136.6110 N   0  0  0  0  0  0  0  0  0  0  0  0
  193.1980  172.4120  137.6000 N   0  0  0  0  0  0  0  0  0  0  0  0
  190.4970  171.9520  135.9470 O   0  0  0  0  0  0  0  0  0  0  0  0
  191.1210  172.9230  136.4600 C   0  0  0  0  0  0  0  0  0  0  0  0
  190.4020  174.0780  136.9000 N   0  0  0  0  0  2  0  0  0  0  0  0
  188.9570  174.2140  136.7430 C   0  0  0  0  0  2  0  0  0  0  0  0
  188.2590  173.8920  138.0530 C   0  0  0  0  0  1  0  0  0  0  0  0
  196.3900  176.7920  143.2370 N   0  0  0  0  0  2  0  0  0  0  0  0
  197.0240  176.0910  142.1270 C   0  0  0  0  0  3  0  0  0  0  0  0
  196.4090  176.4300  140.9350 F   0  0  0  0  0  0  0  0  0  0  0  0
  196.9550  174.7230  142.3220 F   0  0  0  0  0  0  0  0  0  0  0  0
  1  3  1  0  0  0  0
  1 20  1  0  0  0  0
  4  5  1  0  0  0  0
  5 24  2  0  0  0  0
  5 18  1  0  0  0  0
  6 10  1  0  0  0  0
  8 22  2  0  0  0  0
  8 17  1  0  0  0  0
  9  7  2  0  0  0  0
 10 20  2  0  0  0  0
 11 18  1  0  0  0  0
 12 23  1  0  0  0  0
 13  4  1  0  0  0  0
 13 11  1  0  0  0  0
 14 17  1  0  0  0  0
 14  6  1  0  0  0  0
 15  3  2  0  0  0  0
 16 19  2  0  0  0  0
 17  1  2  0  0  0  0
 18 14  2  0  0  0  0
 19  6  1  0  0  0  0
 19  2  1  0  0  0  0
 21 16  1  0  0  0  0
 21 12  2  0  0  0  0
 22 15  1  0  0  0  0
 23  2  1  0  0  0  0
 23  9  2  0  0  0  0
 24 16  1  0  0  0  0
 25  7  1  0  0  0  0
 26 27  1  0  0  0  0
 27 25  1  0  0  0  0
 28 13  1  0  0  0  0
 29 28  1  0  0  0  0
 30 31  2  0  0  0  0
 31 29  1  0  0  0  0
 32 33  2  0  0  0  0
 33 30  1  0  0  0  0
 33 34  1  0  0  0  0
 35 34  1  0  0  0  0
 35 36  1  0  0  0  0
 37 22  1  0  0  0  0
 38 40  1  0  0  0  0
 38 37  1  0  0  0  0
 39 38  1  0  0  0  0
M  END
>  <MODEL>
7

>  <REMARK>
 VINA RESULT:      -6.7      2.256      3.793
  Name = 
  9 active torsions:
  status: ('A' for Active; 'I' for Inactive)
    1  A    between atoms: C_1  and  C_19
    2  A    between atoms: C_1  and  N_25
    3  A    between atoms: N_2  and  C_21
    4  A    between atoms: C_6  and  N_30
    5  A    between atoms: C_11  and  S_15
    6  A    between atoms: S_15  and  C_39
    7  A    between atoms: N_18  and  C_19
    8  A    between atoms: C_26  and  N_40
    9  A    between atoms: N_30  and  C_32
                            x       y       z     vdW  Elec       q    Type
                         _______ _______ _______ _____ _____    ______ ____

>  <TORSDO>
F 9

$$$$
=
 OpenBabel11042418103D

 40 44  0  0  0  0  0  0  0  0999 V2000
  190.1940  173.4350  141.5720 C   0  0  0  0  0  0  0  0  0  0  0  0
  194.3350  174.7090  139.7200 C   0  0  0  0  0  2  0  0  0  0  0  0
  188.8730  173.0550  141.3150 C   0  0  0  0  0  3  0  0  0  0  0  0
  193.5230  176.4790  145.4000 C   0  0  0  0  0  2  0  0  0  0  0  0
  193.5830  175.9780  144.0150 C   0  0  0  0  0  0  0  0  0  0  0  0
  192.8980  174.2730  141.7480 N   0  0  0  0  0  0  0  0  0  0  0  0
  196.5210  174.5300  136.8710 C   0  0  0  0  0  3  0  0  0  0  0  0
  189.4030  175.5210  142.5190 C   0  0  0  0  0  3  0  0  0  0  0  0
  196.1240  174.7900  138.0850 C   0  0  0  0  0  0  0  0  0  0  0  0
  192.5630  172.9640  141.2450 C   0  0  0  0  0  3  0  0  0  0  0  0
  191.3210  176.3520  144.5330 C   0  0  0  0  0  2  0  0  0  0  0  0
  196.5560  175.9120  140.1490 C   0  0  0  0  0  3  0  0  0  0  0  0
  192.1310  176.8630  145.6480 N   0  0  0  0  0  0  0  0  0  0  0  0
  191.8950  175.0130  142.4750 C   0  0  0  0  0  0  0  0  0  0  0  0
  187.8200  173.9060  141.6590 C   0  0  0  0  0  3  0  0  0  0  0  0
  194.9010  175.6700  141.9540 C   0  0  0  0  0  0  0  0  0  0  0  0
  190.4690  174.6660  142.1980 C   0  0  0  0  0  0  0  0  0  0  0  0
  192.2480  175.8020  143.5060 C   0  0  0  0  0  0  0  0  0  0  0  0
  194.0690  174.9070  141.2030 C   0  0  0  0  0  0  0  0  0  0  0  0
  191.2950  172.5500  141.1670 C   0  0  0  0  0  3  0  0  0  0  0  0
  196.1580  176.1980  141.3850 C   0  0  0  0  0  3  0  0  0  0  0  0
  188.0810  175.1470  142.2590 C   0  0  0  0  0  0  0  0  0  0  0  0
  195.7300  175.0600  139.2970 C   0  0  0  0  0  0  0  0  0  0  0  0
  194.6930  175.9510  143.3440 N   0  0  0  0  0  0  0  0  0  0  0  0
  197.9410  175.3830  136.1940 S   0  0  0  0  0  0  0  0  0  0  0  0
  196.3540  177.2590  134.9980 C   0  0  0  0  0  1  0  0  0  0  0  0
  197.0350  175.9340  134.7180 C   0  0  0  0  0  2  0  0  0  0  0  0
  191.6950  176.1630  146.8470 C   0  0  0  0  0  2  0  0  0  0  0  0
  190.3200  176.6550  147.2620 C   0  0  0  0  0  2  0  0  0  0  0  0
  188.1330  175.6770  146.8960 N   0  0  0  0  0  0  0  0  0  0  0  0
  189.3660  175.5550  147.2100 N   0  0  0  0  0  0  0  0  0  0  0  0
  187.7360  177.5340  145.4970 O   0  0  0  0  0  0  0  0  0  0  0  0
  187.4610  176.9030  146.5570 C   0  0  0  0  0  0  0  0  0  0  0  0
  186.4660  177.4120  147.4490 N   0  0  0  0  0  2  0  0  0  0  0  0
  185.7670  178.6730  147.2150 C   0  0  0  0  0  2  0  0  0  0  0  0
  184.4220  178.4080  146.5590 C   0  0  0  0  0  1  0  0  0  0  0  0
  187.0220  176.0450  142.6110 N   0  0  0  0  0  2  0  0  0  0  0  0
  186.6370  177.2140  141.8310 C   0  0  0  0  0  3  0  0  0  0  0  0
  187.2320  177.1720  140.5830 F   0  0  0  0  0  0  0  0  0  0  0  0
  187.0070  178.3730  142.4900 F   0  0  0  0  0  0  0  0  0  0  0  0
  1 17  1  0  0  0  0
  2 19  1  0  0  0  0
  3  1  2  0  0  0  0
  3 15  1  0  0  0  0
  4 13  1  0  0  0  0
  5  4  1  0  0  0  0
  6 14  1  0  0  0  0
  7  9  2  0  0  0  0
  9 23  2  0  0  0  0
 10  6  1  0  0  0  0
 11 13  1  0  0  0  0
 12 21  2  0  0  0  0
 13 28  1  0  0  0  0
 14 18  2  0  0  0  0
 15 22  2  0  0  0  0
 16 24  1  0  0  0  0
 17 14  1  0  0  0  0
 17  8  2  0  0  0  0
 18  5  1  0  0  0  0
 18 11  1  0  0  0  0
 19  6  1  0  0  0  0
 19 16  2  0  0  0  0
 20 10  2  0  0  0  0
 20  1  1  0  0  0  0
 21 16  1  0  0  0  0
 22  8  1  0  0  0  0
 22 37  1  0  0  0  0
 23  2  1  0  0  0  0
 23 12  1  0  0  0  0
 24  5  2  0  0  0  0
 25  7  1  0  0  0  0
 27 26  1  0  0  0  0
 27 25  1  0  0  0  0
 28 29  1  0  0  0  0
 30 31  2  0  0  0  0
 31 29  1  0  0  0  0
 32 33  2  0  0  0  0
 33 30  1  0  0  0  0
 33 34  1  0  0  0  0
 35 34  1  0  0  0  0
 36 35  1  0  0  0  0
 38 40  1  0  0  0  0
 38 37  1  0  0  0  0
 39 38  1  0  0  0  0
M  END
>  <MODEL>
8

>  <REMARK>
 VINA RESULT:      -6.6      4.670      9.205
  Name = 
  9 active torsions:
  status: ('A' for Active; 'I' for Inactive)
    1  A    between atoms: C_1  and  C_19
    2  A    between atoms: C_1  and  N_25
    3  A    between atoms: N_2  and  C_21
    4  A    between atoms: C_6  and  N_30
    5  A    between atoms: C_11  and  S_15
    6  A    between atoms: S_15  and  C_39
    7  A    between atoms: N_18  and  C_19
    8  A    between atoms: C_26  and  N_40
    9  A    between atoms: N_30  and  C_32
                            x       y       z     vdW  Elec       q    Type
                         _______ _______ _______ _____ _____    ______ ____

>  <TORSDO>
F 9

$$$$
=
 OpenBabel11042418103D

 40 44  0  0  0  0  0  0  0  0999 V2000
  193.0470  175.1580  145.5770 C   0  0  0  0  0  0  0  0  0  0  0  0
  188.5310  176.4080  145.0770 C   0  0  0  0  0  2  0  0  0  0  0  0
  194.2580  175.4130  146.2280 C   0  0  0  0  0  3  0  0  0  0  0  0
  190.8000  173.4270  140.3860 C   0  0  0  0  0  2  0  0  0  0  0  0
  190.3820  174.1410  141.6040 C   0  0  0  0  0  0  0  0  0  0  0  0
  190.4710  174.9380  144.4100 N   0  0  0  0  0  0  0  0  0  0  0  0
  185.6640  177.9430  146.6100 C   0  0  0  0  0  3  0  0  0  0  0  0
  194.0140  175.9210  143.4910 C   0  0  0  0  0  3  0  0  0  0  0  0
  186.3670  177.2820  145.7320 C   0  0  0  0  0  0  0  0  0  0  0  0
  190.6890  174.5780  145.7890 C   0  0  0  0  0  3  0  0  0  0  0  0
  192.6900  174.4940  141.3370 C   0  0  0  0  0  2  0  0  0  0  0  0
  186.4800  176.3330  143.5450 C   0  0  0  0  0  3  0  0  0  0  0  0
  192.1990  173.7920  140.1440 N   0  0  0  0  0  0  0  0  0  0  0  0
  191.6150  175.0780  143.5420 C   0  0  0  0  0  0  0  0  0  0  0  0
  195.3450  175.9190  145.5120 C   0  0  0  0  0  3  0  0  0  0  0  0
  188.5650  175.2000  142.8920 C   0  0  0  0  0  0  0  0  0  0  0  0
  192.9210  175.3910  144.1940 C   0  0  0  0  0  0  0  0  0  0  0  0
  191.5340  174.7140  142.2490 C   0  0  0  0  0  0  0  0  0  0  0  0
  189.1820  175.4770  144.0670 C   0  0  0  0  0  0  0  0  0  0  0  0
  191.8980  174.6640  146.3500 C   0  0  0  0  0  3  0  0  0  0  0  0
  187.1900  175.6730  142.6340 C   0  0  0  0  0  3  0  0  0  0  0  0
  195.2250  176.1810  144.1380 C   0  0  0  0  0  0  0  0  0  0  0  0
  187.0660  176.6290  144.8490 C   0  0  0  0  0  0  0  0  0  0  0  0
  189.1330  174.3780  141.8640 N   0  0  0  0  0  0  0  0  0  0  0  0
  184.0940  178.6620  146.1380 S   0  0  0  0  0  0  0  0  0  0  0  0
  184.0010  178.9320  143.4210 C   0  0  0  0  0  1  0  0  0  0  0  0
  184.7760  179.4150  144.6310 C   0  0  0  0  0  2  0  0  0  0  0  0
  192.9580  172.5560  140.0330 C   0  0  0  0  0  2  0  0  0  0  0  0
  194.2860  172.8230  139.3480 C   0  0  0  0  0  2  0  0  0  0  0  0
  194.5690  172.9870  136.9470 N   0  0  0  0  0  0  0  0  0  0  0  0
  194.2500  172.3120  137.9840 N   0  0  0  0  0  0  0  0  0  0  0  0
  194.2720  175.2840  137.3880 O   0  0  0  0  0  0  0  0  0  0  0  0
  194.9990  174.3600  136.9270 C   0  0  0  0  0  0  0  0  0  0  0  0
  196.2770  174.6720  136.3660 N   0  0  0  0  0  2  0  0  0  0  0  0
  196.7770  176.0400  136.2570 C   0  0  0  0  0  2  0  0  0  0  0  0
  196.8160  176.4650  134.7990 C   0  0  0  0  0  1  0  0  0  0  0  0
  196.3190  176.7130  143.3810 N   0  0  0  0  0  2  0  0  0  0  0  0
  197.4230  175.9190  142.8560 C   0  0  0  0  0  3  0  0  0  0  0  0
  197.4600  176.0060  141.4760 F   0  0  0  0  0  0  0  0  0  0  0  0
  197.2890  174.5970  143.2420 F   0  0  0  0  0  0  0  0  0  0  0  0
  1  3  1  0  0  0  0
  1 20  1  0  0  0  0
  4  5  1  0  0  0  0
  5 24  2  0  0  0  0
  5 18  1  0  0  0  0
  6 10  1  0  0  0  0
  8 22  2  0  0  0  0
  8 17  1  0  0  0  0
  9  7  2  0  0  0  0
 10 20  2  0  0  0  0
 11 18  1  0  0  0  0
 12 23  1  0  0  0  0
 13  4  1  0  0  0  0
 13 11  1  0  0  0  0
 14 17  1  0  0  0  0
 14  6  1  0  0  0  0
 15  3  2  0  0  0  0
 16 19  2  0  0  0  0
 17  1  2  0  0  0  0
 18 14  2  0  0  0  0
 19  6  1  0  0  0  0
 19  2  1  0  0  0  0
 21 16  1  0  0  0  0
 21 12  2  0  0  0  0
 22 15  1  0  0  0  0
 23  2  1  0  0  0  0
 23  9  2  0  0  0  0
 24 16  1  0  0  0  0
 25  7  1  0  0  0  0
 26 27  1  0  0  0  0
 27 25  1  0  0  0  0
 28 13  1  0  0  0  0
 29 28  1  0  0  0  0
 30 31  2  0  0  0  0
 31 29  1  0  0  0  0
 33 30  1  0  0  0  0
 33 32  2  0  0  0  0
 34 33  1  0  0  0  0
 35 34  1  0  0  0  0
 36 35  1  0  0  0  0
 37 22  1  0  0  0  0
 38 40  1  0  0  0  0
 38 37  1  0  0  0  0
 39 38  1  0  0  0  0
M  END
>  <MODEL>
9

>  <REMARK>
 VINA RESULT:      -6.3      2.475      3.593
  Name = 
  9 active torsions:
  status: ('A' for Active; 'I' for Inactive)
    1  A    between atoms: C_1  and  C_19
    2  A    between atoms: C_1  and  N_25
    3  A    between atoms: N_2  and  C_21
    4  A    between atoms: C_6  and  N_30
    5  A    between atoms: C_11  and  S_15
    6  A    between atoms: S_15  and  C_39
    7  A    between atoms: N_18  and  C_19
    8  A    between atoms: C_26  and  N_40
    9  A    between atoms: N_30  and  C_32
                            x       y       z     vdW  Elec       q    Type
                         _______ _______ _______ _____ _____    ______ ____

>  <TORSDO>
F 9

$$$$
