=
 OpenBabel11042415443D

 59 67  0  0  1  0  0  0  0  0999 V2000
  191.4190  174.2170  142.0340 C   0  0  0  0  0  1  0  0  0  0  0  0
  192.5420  174.6360  142.9680 C   0  0  2  0  0  0  0  0  0  0  0  0
  191.9810  174.7500  144.3940 C   0  0  1  0  0  3  0  0  0  0  0  0
  193.0800  175.8290  142.4760 O   0  0  0  0  0  1  0  0  0  0  0  0
  193.1750  172.6180  144.1820 C   0  0  0  0  0  2  0  0  0  0  0  0
  193.5790  173.5150  143.0200 C   0  0  2  0  0  3  0  0  0  0  0  0
  192.0120  173.3000  144.8870 C   0  0  0  0  0  2  0  0  0  0  0  0
  192.1400  175.8860  146.7800 C   0  0  1  0  0  3  0  0  0  0  0  0
  193.4630  175.1600  146.5760 C   0  0  0  0  0  2  0  0  0  0  0  0
  192.7260  175.7290  145.3720 C   0  0  1  0  0  0  0  0  0  0  0  0
  189.7080  175.2890  147.0870 C   0  0  0  0  0  0  0  0  0  0  0  0
  189.3180  176.6490  146.8750 N   0  0  0  0  0  2  0  0  0  0  0  0
  191.0870  174.9230  147.0660 N   0  0  0  0  0  2  0  0  0  0  0  0
  188.8390  174.4030  147.2870 O   0  0  0  0  0  0  0  0  0  0  0  0
  187.9250  177.0700  146.9240 C   0  0  0  0  0  2  0  0  0  0  0  0
  187.1300  176.4470  145.7830 C   0  0  0  0  0  2  0  0  0  0  0  0
  185.1280  177.1940  144.1000 O   0  0  0  0  0  0  0  0  0  0  0  0
  186.0660  179.0990  145.6060 O   0  0  0  0  0  1  0  0  0  0  0  0
  186.4140  177.7180  144.6930 P   0  0  1  0  0  0  0  0  0  0  0  0
  187.5950  178.1410  143.3510 C   0  0  1  0  0  3  0  0  0  0  0  0
  185.6440  178.8560  141.8600 C   0  0  0  0  0  1  0  0  0  0  0  0
  186.8490  176.7350  141.5280 N   0  0  0  0  0  0  0  0  0  0  0  0
  187.8150  174.6200  142.2340 C   0  0  0  0  0  1  0  0  0  0  0  0
  188.8980  176.8920  143.2970 S   0  0  0  0  0  0  0  0  0  0  0  0
  186.9730  178.1180  141.9620 C   0  0  2  0  0  3  0  0  0  0  0  0
  188.0970  176.0660  141.8790 C   0  0  2  0  0  3  0  0  0  0  0  0
  186.7820  176.7470  140.1740 O   0  0  0  0  0  1  0  0  0  0  0  0
  193.1980  177.0680  144.8900 C   0  0  0  0  0  0  0  0  0  0  0  0
  194.4080  177.3960  145.0080 O   0  0  0  0  0  1  0  0  0  0  0  0
  192.3060  177.9330  144.2710 O   0  0  0  0  0  0  0  0  0  0  0  0
  195.2710  174.1420  143.3110 S   0  0  0  0  0  0  0  0  0  0  0  0
  197.1670  171.3060  140.1780 C   0  0  0  0  0  3  0  0  0  0  0  0
  196.3720  171.7480  142.4140 C   0  0  0  0  0  0  0  0  0  0  0  0
  195.9970  173.0530  142.0830 C   0  0  0  0  0  0  0  0  0  0  0  0
  196.2750  170.9710  143.6890 C   0  0  1  0  0  3  0  0  0  0  0  0
  196.8200  172.6170  139.8200 C   0  0  0  0  0  3  0  0  0  0  0  0
  196.2390  173.4960  140.7630 C   0  0  0  0  0  0  0  0  0  0  0  0
  197.1830  169.6450  142.0610 N   0  0  0  0  0  0  0  0  0  0  0  0
  196.8260  169.6680  143.2840 N   0  0  0  0  0  0  0  0  0  0  0  0
  196.9200  170.9080  141.4870 C   0  0  0  0  0  0  0  0  0  0  0  0
  197.1640  171.5880  144.7610 C   0  0  0  0  0  3  0  0  0  0  0  0
  196.9220  170.9010  146.0940 C   0  0  0  0  0  2  0  0  0  0  0  0
  196.2950  172.2490  145.8150 C   0  0  0  0  0  2  0  0  0  0  0  0
  195.8800  174.8290  140.3800 N   0  0  0  0  0  2  0  0  0  0  0  0
  194.6480  175.1190  139.7730 N   0  0  0  0  0  2  0  0  0  0  0  0
  194.8860  175.1920  138.3420 C   0  0  0  0  0  2  0  0  0  0  0  0
  195.1990  172.6880  136.5960 Cl  0  0  0  0  0  0  0  0  0  0  0  0
  193.6350  174.7420  137.6050 C   0  0  2  0  0  3  0  0  0  0  0  0
  191.6490  173.4080  137.5500 C   0  0  2  0  0  3  0  0  0  0  0  0
  192.3700  173.0610  135.9070 S   0  0  0  0  0  0  0  0  0  0  0  0
  192.7060  173.9450  138.4900 C   0  0  0  0  0  2  0  0  0  0  0  0
  193.9130  173.9160  136.3530 C   0  0  2  0  0  3  0  0  0  0  0  0
  189.2590  172.2460  137.6180 C   0  0  1  0  0  3  0  0  0  0  0  0
  189.5490  172.6280  139.0720 C   0  0  1  0  0  3  0  0  0  0  0  0
  188.6060  173.6000  137.4040 C   0  0  0  0  0  2  0  0  0  0  0  0
  190.7010  172.3200  138.1170 C   0  0  2  0  0  0  0  0  0  0  0  0
  188.8960  173.9770  138.8380 C   0  0  0  0  0  2  0  0  0  0  0  0
  190.2170  170.1990  138.7050 C   0  0  0  0  0  1  0  0  0  0  0  0
  191.2520  171.0370  138.2660 O   0  0  0  0  0  0  0  0  0  0  0  0
  2  1  1  6  0  0  0
  2  6  1  0  0  0  0
  2  3  1  0  0  0  0
  3  7  1  1  0  0  0
  3 10  1  0  0  0  0
  4  2  1  0  0  0  0
  5  7  1  0  0  0  0
  6 31  1  1  0  0  0
  6  5  1  0  0  0  0
  8 13  1  6  0  0  0
  9  8  1  0  0  0  0
 10 28  1  6  0  0  0
 10  9  1  0  0  0  0
 10  8  1  0  0  0  0
 11 14  2  0  0  0  0
 12 15  1  0  0  0  0
 12 11  1  0  0  0  0
 13 11  1  0  0  0  0
 16 15  1  0  0  0  0
 19 17  2  6  0  0  0
 19 18  1  0  0  0  0
 19 16  1  0  0  0  0
 20 19  1  1  0  0  0
 22 26  1  0  0  0  0
 22 25  1  0  0  0  0
 24 20  1  0  0  0  0
 25 21  1  1  0  0  0
 25 20  1  0  0  0  0
 26 23  1  1  0  0  0
 26 24  1  0  0  0  0
 27 22  1  0  0  0  0
 28 29  1  0  0  0  0
 30 28  2  0  0  0  0
 32 40  1  0  0  0  0
 33 35  1  0  0  0  0
 34 33  1  0  0  0  0
 34 31  1  0  0  0  0
 35 41  1  1  0  0  0
 36 32  2  0  0  0  0
 36 37  1  0  0  0  0
 37 34  2  0  0  0  0
 38 39  2  0  0  0  0
 39 35  1  0  0  0  0
 40 38  1  0  0  0  0
 40 33  2  0  0  0  0
 41 43  1  0  0  0  0
 41 42  1  0  0  0  0
 43 42  1  0  0  0  0
 44 37  1  0  0  0  0
 45 44  1  0  0  0  0
 46 45  1  0  0  0  0
 48 46  1  1  0  0  0
 48 51  1  0  0  0  0
 49 56  1  0  0  0  0
 49 51  1  1  0  0  0
 50 52  1  0  0  0  0
 50 49  1  0  0  0  0
 52 47  1  1  0  0  0
 52 48  1  0  0  0  0
 53 55  1  6  0  0  0
 53 56  1  0  0  0  0
 53 54  1  0  0  0  0
 54 57  1  6  0  0  0
 55 57  1  0  0  0  0
 56 59  1  1  0  0  0
 56 54  1  0  0  0  0
 59 58  1  0  0  0  0
M  END
>  <MODEL>
1

>  <REMARK>
 VINA RESULT:      -6.4      0.000      0.000
  Name = 
  16 active torsions:
  status: ('A' for Active; 'I' for Inactive)
    1  A    between atoms: C_1  and  C_15
    2  A    between atoms: C_1  and  P_32
    3  A    between atoms: S_3  and  C_27
    4  A    between atoms: S_3  and  C_54
    5  A    between atoms: C_4  and  N_39
    6  A    between atoms: C_5  and  C_53
    7  A    between atoms: C_10  and  P_32
    8  A    between atoms: N_11  and  N_23
    9  A    between atoms: N_11  and  C_25
   10  A    between atoms: C_13  and  C_25
   11  A    between atoms: C_15  and  N_36
   12  A    between atoms: O_16  and  C_40
   13  A    between atoms: C_19  and  C_28
   14  A    between atoms: C_20  and  C_40
   15  A    between atoms: N_23  and  C_31
   16  A    between atoms: C_43  and  C_53
                            x       y       z     vdW  Elec       q    Type
                         _______ _______ _______ _____ _____    ______ ____

>  <TORSDO>
F 16

$$$$
=
 OpenBabel11042415443D

 59 67  0  0  1  0  0  0  0  0999 V2000
  190.8040  172.7080  141.9410 C   0  0  0  0  0  1  0  0  0  0  0  0
  191.9620  173.4890  142.5410 C   0  0  2  0  0  0  0  0  0  0  0  0
  191.5590  173.9690  143.9450 C   0  0  1  0  0  3  0  0  0  0  0  0
  192.2770  174.5260  141.6590 O   0  0  0  0  0  1  0  0  0  0  0  0
  192.9930  171.9910  144.1670 C   0  0  0  0  0  2  0  0  0  0  0  0
  193.1370  172.5350  142.7520 C   0  0  2  0  0  3  0  0  0  0  0  0
  191.8390  172.7410  144.8160 C   0  0  0  0  0  2  0  0  0  0  0  0
  191.8440  175.7700  145.8630 C   0  0  1  0  0  3  0  0  0  0  0  0
  193.2190  175.1440  145.6730 C   0  0  0  0  0  2  0  0  0  0  0  0
  192.2760  175.2590  144.4840 C   0  0  1  0  0  0  0  0  0  0  0  0
  189.5630  175.0490  146.6670 C   0  0  0  0  0  0  0  0  0  0  0  0
  188.9660  176.2270  146.1180 N   0  0  0  0  0  2  0  0  0  0  0  0
  190.9710  174.8390  146.5650 N   0  0  0  0  0  2  0  0  0  0  0  0
  188.8520  174.1840  147.2380 O   0  0  0  0  0  0  0  0  0  0  0  0
  187.5390  176.4960  146.2320 C   0  0  0  0  0  2  0  0  0  0  0  0
  187.1890  177.8400  145.6080 C   0  0  0  0  0  2  0  0  0  0  0  0
  185.9330  176.1950  143.8430 O   0  0  0  0  0  0  0  0  0  0  0  0
  184.4840  178.1680  144.7300 O   0  0  0  0  0  1  0  0  0  0  0  0
  186.0150  177.6530  144.2280 P   0  0  1  0  0  0  0  0  0  0  0  0
  186.5660  178.6510  142.7880 C   0  0  1  0  0  3  0  0  0  0  0  0
  184.2670  178.3560  141.7060 C   0  0  0  0  0  1  0  0  0  0  0  0
  186.2540  177.1230  140.9360 N   0  0  0  0  0  0  0  0  0  0  0  0
  188.2320  175.7400  141.2220 C   0  0  0  0  0  1  0  0  0  0  0  0
  188.2700  178.2130  142.3840 S   0  0  0  0  0  0  0  0  0  0  0  0
  185.7790  178.3700  141.5150 C   0  0  2  0  0  3  0  0  0  0  0  0
  187.7110  177.1480  141.0110 C   0  0  2  0  0  3  0  0  0  0  0  0
  185.9320  177.1460  139.6200 O   0  0  0  0  0  1  0  0  0  0  0  0
  192.5030  176.4340  143.5800 C   0  0  0  0  0  0  0  0  0  0  0  0
  191.5330  177.1430  143.2030 O   0  0  0  0  0  1  0  0  0  0  0  0
  193.7930  176.7670  143.1920 O   0  0  0  0  0  0  0  0  0  0  0  0
  194.7530  173.3750  142.5990 S   0  0  0  0  0  0  0  0  0  0  0  0
  196.4370  170.2150  139.6610 C   0  0  0  0  0  3  0  0  0  0  0  0
  195.9800  170.9740  141.9060 C   0  0  0  0  0  0  0  0  0  0  0  0
  195.3940  172.1570  141.4470 C   0  0  0  0  0  0  0  0  0  0  0  0
  196.1950  170.4340  143.2840 C   0  0  1  0  0  3  0  0  0  0  0  0
  195.8740  171.4010  139.1690 C   0  0  0  0  0  3  0  0  0  0  0  0
  195.3540  172.3770  140.0520 C   0  0  0  0  0  0  0  0  0  0  0  0
  196.9760  168.9290  141.7490 N   0  0  0  0  0  0  0  0  0  0  0  0
  196.8290  169.1370  142.9970 N   0  0  0  0  0  0  0  0  0  0  0  0
  196.4650  170.0360  141.0400 C   0  0  0  0  0  0  0  0  0  0  0  0
  197.1670  171.3140  144.0590 C   0  0  0  0  0  3  0  0  0  0  0  0
  197.3390  170.7800  145.4710 C   0  0  0  0  0  2  0  0  0  0  0  0
  196.4380  171.9680  145.2180 C   0  0  0  0  0  2  0  0  0  0  0  0
  194.7710  173.5790  139.5340 N   0  0  0  0  0  2  0  0  0  0  0  0
  194.3970  173.7000  138.1870 N   0  0  0  0  0  2  0  0  0  0  0  0
  193.1010  174.3540  138.1630 C   0  0  0  0  0  2  0  0  0  0  0  0
  190.6520  174.5360  136.3230 Cl  0  0  0  0  0  0  0  0  0  0  0  0
  192.0150  173.3180  138.4070 C   0  0  2  0  0  3  0  0  0  0  0  0
  191.0730  171.1730  137.9190 C   0  0  2  0  0  3  0  0  0  0  0  0
  189.5990  172.2500  137.8330 S   0  0  0  0  0  0  0  0  0  0  0  0
  192.3370  171.9910  137.7610 C   0  0  0  0  0  2  0  0  0  0  0  0
  190.6290  173.7460  137.9330 C   0  0  2  0  0  3  0  0  0  0  0  0
  190.2990  168.6380  137.7240 C   0  0  1  0  0  3  0  0  0  0  0  0
  191.8070  168.6070  137.4620 C   0  0  1  0  0  3  0  0  0  0  0  0
  190.5650  168.4540  139.2080 C   0  0  0  0  0  2  0  0  0  0  0  0
  190.9950  169.8510  137.1120 C   0  0  2  0  0  0  0  0  0  0  0  0
  192.0520  168.4270  138.9490 C   0  0  0  0  0  2  0  0  0  0  0  0
  191.6950  169.3130  135.0380 C   0  0  0  0  0  1  0  0  0  0  0  0
  190.6850  169.9770  135.7480 O   0  0  0  0  0  0  0  0  0  0  0  0
  2  1  1  6  0  0  0
  2  6  1  0  0  0  0
  2  3  1  0  0  0  0
  3 10  1  0  0  0  0
  3  7  1  1  0  0  0
  4  2  1  0  0  0  0
  5  7  1  0  0  0  0
  6 31  1  1  0  0  0
  6  5  1  0  0  0  0
  8 13  1  1  0  0  0
  9  8  1  0  0  0  0
 10 28  1  6  0  0  0
 10  9  1  0  0  0  0
 10  8  1  0  0  0  0
 11 14  2  0  0  0  0
 12 15  1  0  0  0  0
 12 11  1  0  0  0  0
 13 11  1  0  0  0  0
 16 15  1  0  0  0  0
 19 17  2  6  0  0  0
 19 18  1  0  0  0  0
 19 16  1  0  0  0  0
 20 19  1  1  0  0  0
 22 26  1  0  0  0  0
 22 25  1  0  0  0  0
 24 20  1  0  0  0  0
 25 21  1  1  0  0  0
 25 20  1  0  0  0  0
 26 23  1  1  0  0  0
 26 24  1  0  0  0  0
 27 22  1  0  0  0  0
 29 28  1  0  0  0  0
 30 28  2  0  0  0  0
 32 40  1  0  0  0  0
 33 35  1  0  0  0  0
 34 33  1  0  0  0  0
 34 31  1  0  0  0  0
 35 41  1  1  0  0  0
 36 32  2  0  0  0  0
 36 37  1  0  0  0  0
 37 34  2  0  0  0  0
 38 39  2  0  0  0  0
 39 35  1  0  0  0  0
 40 38  1  0  0  0  0
 40 33  2  0  0  0  0
 41 43  1  0  0  0  0
 41 42  1  0  0  0  0
 43 42  1  0  0  0  0
 44 37  1  0  0  0  0
 45 44  1  0  0  0  0
 46 45  1  0  0  0  0
 48 46  1  6  0  0  0
 49 51  1  6  0  0  0
 50 49  1  0  0  0  0
 50 52  1  0  0  0  0
 51 48  1  0  0  0  0
 52 47  1  6  0  0  0
 52 48  1  0  0  0  0
 53 55  1  1  0  0  0
 54 53  1  0  0  0  0
 54 57  1  1  0  0  0
 56 59  1  6  0  0  0
 56 54  1  0  0  0  0
 56 53  1  0  0  0  0
 56 49  1  0  0  0  0
 57 55  1  0  0  0  0
 58 59  1  0  0  0  0
M  END
>  <MODEL>
2

>  <REMARK>
 VINA RESULT:      -6.0      1.595      2.233
  Name = 
  16 active torsions:
  status: ('A' for Active; 'I' for Inactive)
    1  A    between atoms: C_1  and  C_15
    2  A    between atoms: C_1  and  P_32
    3  A    between atoms: S_3  and  C_27
    4  A    between atoms: S_3  and  C_54
    5  A    between atoms: C_4  and  N_39
    6  A    between atoms: C_5  and  C_53
    7  A    between atoms: C_10  and  P_32
    8  A    between atoms: N_11  and  N_23
    9  A    between atoms: N_11  and  C_25
   10  A    between atoms: C_13  and  C_25
   11  A    between atoms: C_15  and  N_36
   12  A    between atoms: O_16  and  C_40
   13  A    between atoms: C_19  and  C_28
   14  A    between atoms: C_20  and  C_40
   15  A    between atoms: N_23  and  C_31
   16  A    between atoms: C_43  and  C_53
                            x       y       z     vdW  Elec       q    Type
                         _______ _______ _______ _____ _____    ______ ____

>  <TORSDO>
F 16

$$$$
=
 OpenBabel11042415443D

 59 67  0  0  1  0  0  0  0  0999 V2000
  194.1100  172.1480  145.7490 C   0  0  0  0  0  1  0  0  0  0  0  0
  193.9320  173.1950  144.6630 C   0  0  2  0  0  0  0  0  0  0  0  0
  194.6280  174.4920  145.1090 C   0  0  1  0  0  3  0  0  0  0  0  0
  192.5610  173.3410  144.4340 O   0  0  0  0  0  1  0  0  0  0  0  0
  196.0800  173.3230  143.5140 C   0  0  0  0  0  2  0  0  0  0  0  0
  194.6790  172.7340  143.4120 C   0  0  2  0  0  3  0  0  0  0  0  0
  196.0900  174.2390  144.7290 C   0  0  0  0  0  2  0  0  0  0  0  0
  192.8710  176.4690  145.2060 C   0  0  1  0  0  3  0  0  0  0  0  0
  194.2410  177.1270  145.2920 C   0  0  0  0  0  2  0  0  0  0  0  0
  194.0770  175.8340  144.5050 C   0  0  1  0  0  0  0  0  0  0  0  0
  191.2070  175.6890  146.9360 C   0  0  0  0  0  0  0  0  0  0  0  0
  190.1220  176.2300  146.1770 N   0  0  0  0  0  2  0  0  0  0  0  0
  192.5500  175.8290  146.4740 N   0  0  0  0  0  2  0  0  0  0  0  0
  190.9870  175.0780  148.0130 O   0  0  0  0  0  0  0  0  0  0  0  0
  188.7410  176.1390  146.6310 C   0  0  0  0  0  2  0  0  0  0  0  0
  188.2010  177.5140  147.0030 C   0  0  0  0  0  2  0  0  0  0  0  0
  185.8890  176.3780  146.1270 O   0  0  0  0  0  0  0  0  0  0  0  0
  185.5810  178.4340  147.6950 O   0  0  0  0  0  1  0  0  0  0  0  0
  186.4800  177.7310  146.4470 P   0  0  1  0  0  0  0  0  0  0  0  0
  186.4250  178.8060  144.9590 C   0  0  1  0  0  3  0  0  0  0  0  0
  183.8780  178.9320  145.1450 C   0  0  0  0  0  1  0  0  0  0  0  0
  185.0080  177.5480  143.4510 N   0  0  0  0  0  0  0  0  0  0  0  0
  186.6160  175.9000  142.6740 C   0  0  0  0  0  1  0  0  0  0  0  0
  187.6230  178.2010  143.7500 S   0  0  0  0  0  0  0  0  0  0  0  0
  185.0870  178.7730  144.2320 C   0  0  2  0  0  3  0  0  0  0  0  0
  186.3010  177.3770  142.7970 C   0  0  2  0  0  3  0  0  0  0  0  0
  184.1000  177.7610  142.4680 O   0  0  0  0  0  1  0  0  0  0  0  0
  193.9130  175.9870  143.0230 C   0  0  0  0  0  0  0  0  0  0  0  0
  192.7850  175.8250  142.4880 O   0  0  0  0  0  1  0  0  0  0  0  0
  195.0010  176.3530  142.2420 O   0  0  0  0  0  0  0  0  0  0  0  0
  193.8940  173.3290  141.8720 S   0  0  0  0  0  0  0  0  0  0  0  0
  194.0720  169.1720  139.8370 C   0  0  0  0  0  3  0  0  0  0  0  0
  195.0420  171.3310  140.3100 C   0  0  0  0  0  0  0  0  0  0  0  0
  193.9510  171.7110  141.0970 C   0  0  0  0  0  0  0  0  0  0  0  0
  196.3100  172.0380  139.9500 C   0  0  1  0  0  3  0  0  0  0  0  0
  192.9540  169.5300  140.6030 C   0  0  0  0  0  3  0  0  0  0  0  0
  192.8830  170.7950  141.2330 C   0  0  0  0  0  0  0  0  0  0  0  0
  196.3090  169.9540  139.0070 N   0  0  0  0  0  0  0  0  0  0  0  0
  196.9910  171.0230  139.1290 N   0  0  0  0  0  0  0  0  0  0  0  0
  195.1000  170.1010  139.7200 C   0  0  0  0  0  0  0  0  0  0  0  0
  196.0160  173.2660  139.0970 C   0  0  0  0  0  3  0  0  0  0  0  0
  197.3060  173.8070  138.5050 C   0  0  0  0  0  2  0  0  0  0  0  0
  196.6910  174.4770  139.7130 C   0  0  0  0  0  2  0  0  0  0  0  0
  191.7400  171.1430  142.0230 N   0  0  0  0  0  2  0  0  0  0  0  0
  190.4380  171.1020  141.5000 N   0  0  0  0  0  2  0  0  0  0  0  0
  190.1900  172.3890  140.8760 C   0  0  0  0  0  2  0  0  0  0  0  0
  188.5030  174.4230  139.3160 Cl  0  0  0  0  0  0  0  0  0  0  0  0
  190.1820  172.2180  139.3650 C   0  0  2  0  0  3  0  0  0  0  0  0
  191.1270  172.7480  137.2320 C   0  0  2  0  0  3  0  0  0  0  0  0
  189.3420  172.9690  136.9080 S   0  0  0  0  0  0  0  0  0  0  0  0
  191.4090  172.8160  138.7170 C   0  0  0  0  0  2  0  0  0  0  0  0
  188.9540  172.8080  138.6780 C   0  0  2  0  0  3  0  0  0  0  0  0
  192.6460  172.8660  135.0540 C   0  0  1  0  0  3  0  0  0  0  0  0
  193.5820  173.2480  136.2040 C   0  0  1  0  0  3  0  0  0  0  0  0
  193.0210  171.4070  135.2490 C   0  0  0  0  0  2  0  0  0  0  0  0
  192.0870  173.5400  136.3060 C   0  0  2  0  0  0  0  0  0  0  0  0
  193.9410  171.7850  136.3850 C   0  0  0  0  0  2  0  0  0  0  0  0
  192.7900  175.6700  136.5200 C   0  0  0  0  0  1  0  0  0  0  0  0
  191.7360  174.8750  136.0480 O   0  0  0  0  0  0  0  0  0  0  0  0
  2  3  1  0  0  0  0
  2  1  1  1  0  0  0
  3  7  1  6  0  0  0
  4  2  1  0  0  0  0
  5  7  1  0  0  0  0
  6 31  1  6  0  0  0
  6  5  1  0  0  0  0
  6  2  1  0  0  0  0
  8  9  1  0  0  0  0
  8 13  1  1  0  0  0
 10 28  1  6  0  0  0
 10  3  1  0  0  0  0
 10  8  1  0  0  0  0
 10  9  1  0  0  0  0
 11 14  2  0  0  0  0
 12 15  1  0  0  0  0
 12 11  1  0  0  0  0
 13 11  1  0  0  0  0
 15 16  1  0  0  0  0
 19 17  2  6  0  0  0
 19 16  1  0  0  0  0
 19 18  1  0  0  0  0
 20 19  1  1  0  0  0
 22 25  1  0  0  0  0
 24 20  1  0  0  0  0
 25 20  1  0  0  0  0
 25 21  1  1  0  0  0
 26 23  1  1  0  0  0
 26 22  1  0  0  0  0
 26 24  1  0  0  0  0
 27 22  1  0  0  0  0
 29 28  1  0  0  0  0
 30 28  2  0  0  0  0
 32 36  1  0  0  0  0
 33 34  2  0  0  0  0
 34 37  1  0  0  0  0
 34 31  1  0  0  0  0
 35 41  1  6  0  0  0
 35 33  1  0  0  0  0
 36 37  2  0  0  0  0
 37 44  1  0  0  0  0
 38 39  2  0  0  0  0
 38 40  1  0  0  0  0
 39 35  1  0  0  0  0
 40 32  2  0  0  0  0
 40 33  1  0  0  0  0
 41 43  1  0  0  0  0
 42 41  1  0  0  0  0
 42 43  1  0  0  0  0
 45 44  1  0  0  0  0
 46 45  1  0  0  0  0
 48 46  1  1  0  0  0
 49 51  1  1  0  0  0
 50 49  1  0  0  0  0
 50 52  1  0  0  0  0
 51 48  1  0  0  0  0
 52 47  1  1  0  0  0
 52 48  1  0  0  0  0
 53 55  1  1  0  0  0
 53 54  1  0  0  0  0
 53 56  1  0  0  0  0
 54 56  1  0  0  0  0
 54 57  1  1  0  0  0
 55 57  1  0  0  0  0
 56 59  1  6  0  0  0
 56 49  1  0  0  0  0
 59 58  1  0  0  0  0
M  END
>  <MODEL>
3

>  <REMARK>
 VINA RESULT:      -6.0      2.533      3.887
  Name = 
  16 active torsions:
  status: ('A' for Active; 'I' for Inactive)
    1  A    between atoms: C_1  and  C_15
    2  A    between atoms: C_1  and  P_32
    3  A    between atoms: S_3  and  C_27
    4  A    between atoms: S_3  and  C_54
    5  A    between atoms: C_4  and  N_39
    6  A    between atoms: C_5  and  C_53
    7  A    between atoms: C_10  and  P_32
    8  A    between atoms: N_11  and  N_23
    9  A    between atoms: N_11  and  C_25
   10  A    between atoms: C_13  and  C_25
   11  A    between atoms: C_15  and  N_36
   12  A    between atoms: O_16  and  C_40
   13  A    between atoms: C_19  and  C_28
   14  A    between atoms: C_20  and  C_40
   15  A    between atoms: N_23  and  C_31
   16  A    between atoms: C_43  and  C_53
                            x       y       z     vdW  Elec       q    Type
                         _______ _______ _______ _____ _____    ______ ____

>  <TORSDO>
F 16

$$$$
=
 OpenBabel11042415443D

 59 67  0  0  1  0  0  0  0  0999 V2000
  191.0240  172.4610  142.0840 C   0  0  0  0  0  1  0  0  0  0  0  0
  191.9010  173.6030  142.5690 C   0  0  2  0  0  0  0  0  0  0  0  0
  191.2710  174.2050  143.8350 C   0  0  1  0  0  3  0  0  0  0  0  0
  192.0340  174.5130  141.5170 O   0  0  0  0  0  1  0  0  0  0  0  0
  193.1140  172.7260  144.4960 C   0  0  0  0  0  2  0  0  0  0  0  0
  193.2480  173.0310  143.0100 C   0  0  2  0  0  3  0  0  0  0  0  0
  191.7600  173.2620  144.9380 C   0  0  0  0  0  2  0  0  0  0  0  0
  191.1140  176.2700  145.4840 C   0  0  1  0  0  3  0  0  0  0  0  0
  192.6010  176.0390  145.2480 C   0  0  0  0  0  2  0  0  0  0  0  0
  191.6050  175.7100  144.1440 C   0  0  1  0  0  0  0  0  0  0  0  0
  189.3150  175.3620  147.0030 C   0  0  0  0  0  0  0  0  0  0  0  0
  188.5270  176.5410  146.8210 N   0  0  0  0  0  2  0  0  0  0  0  0
  190.5890  175.2420  146.3710 N   0  0  0  0  0  2  0  0  0  0  0  0
  188.8900  174.4170  147.7150 O   0  0  0  0  0  0  0  0  0  0  0  0
  187.2380  176.7180  147.4770 C   0  0  0  0  0  2  0  0  0  0  0  0
  186.6550  178.0900  147.1660 C   0  0  0  0  0  2  0  0  0  0  0  0
  185.1490  176.5500  145.5040 O   0  0  0  0  0  0  0  0  0  0  0  0
  183.9240  178.6230  146.4940 O   0  0  0  0  0  1  0  0  0  0  0  0
  185.3700  177.9960  145.8790 P   0  0  1  0  0  0  0  0  0  0  0  0
  185.8830  178.9550  144.3990 C   0  0  1  0  0  3  0  0  0  0  0  0
  183.4560  179.0140  143.5960 C   0  0  0  0  0  1  0  0  0  0  0  0
  185.1460  177.5450  142.5740 N   0  0  0  0  0  0  0  0  0  0  0  0
  186.9310  175.8950  142.5990 C   0  0  0  0  0  1  0  0  0  0  0  0
  187.4510  178.3000  143.7860 S   0  0  0  0  0  0  0  0  0  0  0  0
  184.9210  178.8260  143.2250 C   0  0  2  0  0  3  0  0  0  0  0  0
  186.5910  177.3660  142.4740 C   0  0  2  0  0  3  0  0  0  0  0  0
  184.6790  177.6550  141.3070 O   0  0  0  0  0  1  0  0  0  0  0  0
  191.4320  176.7580  143.0870 C   0  0  0  0  0  0  0  0  0  0  0  0
  192.4150  177.4480  142.7080 O   0  0  0  0  0  1  0  0  0  0  0  0
  190.1920  176.9390  142.4900 O   0  0  0  0  0  0  0  0  0  0  0  0
  194.6210  174.2120  142.7650 S   0  0  0  0  0  0  0  0  0  0  0  0
  197.5400  170.9450  141.2630 C   0  0  0  0  0  3  0  0  0  0  0  0
  196.4760  172.1580  143.0590 C   0  0  0  0  0  0  0  0  0  0  0  0
  195.7420  172.9440  142.1670 C   0  0  0  0  0  0  0  0  0  0  0  0
  196.5250  172.1190  144.5530 C   0  0  1  0  0  3  0  0  0  0  0  0
  196.8330  171.7320  140.3420 C   0  0  0  0  0  3  0  0  0  0  0  0
  195.9370  172.7340  140.7830 C   0  0  0  0  0  0  0  0  0  0  0  0
  197.9230  170.5180  143.7080 N   0  0  0  0  0  0  0  0  0  0  0  0
  197.4830  171.0260  144.7890 N   0  0  0  0  0  0  0  0  0  0  0  0
  197.3270  171.1860  142.6160 C   0  0  0  0  0  0  0  0  0  0  0  0
  197.0940  173.4210  145.1040 C   0  0  0  0  0  3  0  0  0  0  0  0
  196.9290  173.4610  146.6140 C   0  0  0  0  0  2  0  0  0  0  0  0
  195.9750  174.2320  145.7300 C   0  0  0  0  0  2  0  0  0  0  0  0
  195.2130  173.5230  139.8310 N   0  0  0  0  0  2  0  0  0  0  0  0
  195.4350  173.4050  138.4510 N   0  0  0  0  0  2  0  0  0  0  0  0
  195.2130  174.7170  137.8710 C   0  0  0  0  0  2  0  0  0  0  0  0
  194.8900  173.4830  135.0800 Cl  0  0  0  0  0  0  0  0  0  0  0  0
  193.8110  174.7730  137.2840 C   0  0  2  0  0  3  0  0  0  0  0  0
  191.6700  173.7490  136.9760 C   0  0  2  0  0  3  0  0  0  0  0  0
  192.0720  174.2800  135.2740 S   0  0  0  0  0  0  0  0  0  0  0  0
  192.9260  173.6700  137.8170 C   0  0  0  0  0  2  0  0  0  0  0  0
  193.7710  174.7100  135.7600 C   0  0  2  0  0  3  0  0  0  0  0  0
  189.1810  172.8170  136.9020 C   0  0  1  0  0  3  0  0  0  0  0  0
  189.7140  172.3990  138.2750 C   0  0  1  0  0  3  0  0  0  0  0  0
  188.6870  174.1210  137.5030 C   0  0  0  0  0  2  0  0  0  0  0  0
  190.6750  172.5660  137.1000 C   0  0  2  0  0  0  0  0  0  0  0  0
  189.2160  173.7090  138.8570 C   0  0  0  0  0  2  0  0  0  0  0  0
  189.9130  170.5820  136.3520 C   0  0  0  0  0  1  0  0  0  0  0  0
  191.0690  171.3610  136.4960 O   0  0  0  0  0  0  0  0  0  0  0  0
  2  1  1  6  0  0  0
  2  6  1  0  0  0  0
  2  3  1  0  0  0  0
  3 10  1  0  0  0  0
  3  7  1  1  0  0  0
  4  2  1  0  0  0  0
  5  7  1  0  0  0  0
  6 31  1  1  0  0  0
  6  5  1  0  0  0  0
  8 13  1  1  0  0  0
  9  8  1  0  0  0  0
 10 28  1  6  0  0  0
 10  9  1  0  0  0  0
 10  8  1  0  0  0  0
 11 14  2  0  0  0  0
 12 11  1  0  0  0  0
 12 15  1  0  0  0  0
 13 11  1  0  0  0  0
 16 15  1  0  0  0  0
 19 17  2  6  0  0  0
 19 18  1  0  0  0  0
 19 16  1  0  0  0  0
 20 19  1  1  0  0  0
 22 25  1  0  0  0  0
 24 20  1  0  0  0  0
 25 21  1  1  0  0  0
 25 20  1  0  0  0  0
 26 22  1  0  0  0  0
 26 23  1  1  0  0  0
 26 24  1  0  0  0  0
 27 22  1  0  0  0  0
 29 28  1  0  0  0  0
 30 28  2  0  0  0  0
 32 40  1  0  0  0  0
 33 35  1  0  0  0  0
 34 31  1  0  0  0  0
 34 33  1  0  0  0  0
 35 39  1  0  0  0  0
 35 41  1  6  0  0  0
 36 37  1  0  0  0  0
 36 32  2  0  0  0  0
 37 34  2  0  0  0  0
 38 39  2  0  0  0  0
 40 33  2  0  0  0  0
 40 38  1  0  0  0  0
 41 43  1  0  0  0  0
 41 42  1  0  0  0  0
 43 42  1  0  0  0  0
 44 37  1  0  0  0  0
 45 44  1  0  0  0  0
 46 45  1  0  0  0  0
 48 51  1  0  0  0  0
 48 46  1  1  0  0  0
 49 56  1  0  0  0  0
 49 51  1  6  0  0  0
 50 52  1  0  0  0  0
 50 49  1  0  0  0  0
 52 47  1  1  0  0  0
 52 48  1  0  0  0  0
 53 56  1  0  0  0  0
 53 55  1  1  0  0  0
 53 54  1  0  0  0  0
 54 57  1  1  0  0  0
 55 57  1  0  0  0  0
 56 59  1  6  0  0  0
 56 54  1  0  0  0  0
 58 59  1  0  0  0  0
M  END
>  <MODEL>
4

>  <REMARK>
 VINA RESULT:      -5.9      1.468      1.655
  Name = 
  16 active torsions:
  status: ('A' for Active; 'I' for Inactive)
    1  A    between atoms: C_1  and  C_15
    2  A    between atoms: C_1  and  P_32
    3  A    between atoms: S_3  and  C_27
    4  A    between atoms: S_3  and  C_54
    5  A    between atoms: C_4  and  N_39
    6  A    between atoms: C_5  and  C_53
    7  A    between atoms: C_10  and  P_32
    8  A    between atoms: N_11  and  N_23
    9  A    between atoms: N_11  and  C_25
   10  A    between atoms: C_13  and  C_25
   11  A    between atoms: C_15  and  N_36
   12  A    between atoms: O_16  and  C_40
   13  A    between atoms: C_19  and  C_28
   14  A    between atoms: C_20  and  C_40
   15  A    between atoms: N_23  and  C_31
   16  A    between atoms: C_43  and  C_53
                            x       y       z     vdW  Elec       q    Type
                         _______ _______ _______ _____ _____    ______ ____

>  <TORSDO>
F 16

$$$$
=
 OpenBabel11042415443D

 59 67  0  0  1  0  0  0  0  0999 V2000
  190.7510  172.3900  142.2050 C   0  0  0  0  0  1  0  0  0  0  0  0
  191.8360  173.3630  142.6370 C   0  0  2  0  0  0  0  0  0  0  0  0
  191.3970  174.0430  143.9440 C   0  0  1  0  0  3  0  0  0  0  0  0
  192.0500  174.2550  141.5820 O   0  0  0  0  0  1  0  0  0  0  0  0
  193.0060  172.2690  144.4760 C   0  0  0  0  0  2  0  0  0  0  0  0
  193.0940  172.5700  142.9850 C   0  0  2  0  0  3  0  0  0  0  0  0
  191.7920  173.0150  145.0090 C   0  0  0  0  0  2  0  0  0  0  0  0
  191.5180  176.1720  145.5110 C   0  0  1  0  0  3  0  0  0  0  0  0
  192.9430  175.6460  145.4150 C   0  0  0  0  0  2  0  0  0  0  0  0
  191.9960  175.4660  144.2370 C   0  0  1  0  0  0  0  0  0  0  0  0
  189.3230  175.4830  146.5480 C   0  0  0  0  0  0  0  0  0  0  0  0
  188.6460  176.5640  145.9010 N   0  0  0  0  0  2  0  0  0  0  0  0
  190.7290  175.3080  146.3780 N   0  0  0  0  0  2  0  0  0  0  0  0
  188.6850  174.6720  147.2660 O   0  0  0  0  0  0  0  0  0  0  0  0
  187.2190  176.7970  146.0780 C   0  0  0  0  0  2  0  0  0  0  0  0
  186.8070  178.1280  145.4620 C   0  0  0  0  0  2  0  0  0  0  0  0
  185.5670  176.4150  143.7500 O   0  0  0  0  0  0  0  0  0  0  0  0
  184.1740  178.5140  144.4090 O   0  0  0  0  0  1  0  0  0  0  0  0
  185.7010  177.8930  144.0340 P   0  0  1  0  0  0  0  0  0  0  0  0
  186.3780  178.7530  142.5590 C   0  0  1  0  0  3  0  0  0  0  0  0
  184.2050  178.2920  141.2930 C   0  0  0  0  0  1  0  0  0  0  0  0
  186.2770  177.0390  140.8540 N   0  0  0  0  0  0  0  0  0  0  0  0
  188.2390  175.7440  141.4740 C   0  0  0  0  0  1  0  0  0  0  0  0
  188.1210  178.3220  142.3720 S   0  0  0  0  0  0  0  0  0  0  0  0
  185.7270  178.3250  141.2510 C   0  0  2  0  0  3  0  0  0  0  0  0
  187.7190  177.1090  141.0690 C   0  0  2  0  0  3  0  0  0  0  0  0
  186.0890  176.9210  139.5170 O   0  0  0  0  0  1  0  0  0  0  0  0
  192.1200  176.4770  143.1380 C   0  0  0  0  0  0  0  0  0  0  0  0
  191.1190  177.1520  142.7790 O   0  0  0  0  0  1  0  0  0  0  0  0
  193.3530  176.7020  142.5420 O   0  0  0  0  0  0  0  0  0  0  0  0
  194.6260  173.5110  142.6560 S   0  0  0  0  0  0  0  0  0  0  0  0
  197.2420  169.7010  142.3350 C   0  0  0  0  0  3  0  0  0  0  0  0
  196.3240  171.5270  143.6210 C   0  0  0  0  0  0  0  0  0  0  0  0
  195.6290  172.0280  142.5170 C   0  0  0  0  0  0  0  0  0  0  0  0
  196.4110  171.9850  145.0420 C   0  0  1  0  0  3  0  0  0  0  0  0
  196.5730  170.1920  141.2030 C   0  0  0  0  0  3  0  0  0  0  0  0
  195.7690  171.3530  141.2840 C   0  0  0  0  0  0  0  0  0  0  0  0
  197.6570  170.0850  144.7810 N   0  0  0  0  0  0  0  0  0  0  0  0
  197.2870  170.9600  145.6310 N   0  0  0  0  0  0  0  0  0  0  0  0
  197.0850  170.3960  143.5290 C   0  0  0  0  0  0  0  0  0  0  0  0
  197.0930  173.3450  145.1260 C   0  0  0  0  0  3  0  0  0  0  0  0
  197.1920  173.7870  146.5750 C   0  0  0  0  0  2  0  0  0  0  0  0
  196.1160  174.3640  145.6830 C   0  0  0  0  0  2  0  0  0  0  0  0
  195.0830  171.8350  140.1220 N   0  0  0  0  0  2  0  0  0  0  0  0
  194.7130  170.9810  139.0730 N   0  0  0  0  0  2  0  0  0  0  0  0
  193.3840  170.4830  139.3790 C   0  0  0  0  0  2  0  0  0  0  0  0
  190.4780  169.5540  139.7110 Cl  0  0  0  0  0  0  0  0  0  0  0  0
  192.5090  170.6000  138.1400 C   0  0  2  0  0  3  0  0  0  0  0  0
  190.9800  171.8810  136.8180 C   0  0  2  0  0  3  0  0  0  0  0  0
  190.1420  170.2580  136.8810 S   0  0  0  0  0  0  0  0  0  0  0  0
  191.9840  172.0030  137.9450 C   0  0  0  0  0  2  0  0  0  0  0  0
  191.3170  169.6470  138.1280 C   0  0  2  0  0  3  0  0  0  0  0  0
  189.8540  174.1280  137.6820 C   0  0  1  0  0  3  0  0  0  0  0  0
  188.6850  173.2660  137.1970 C   0  0  1  0  0  3  0  0  0  0  0  0
  189.7170  173.5150  139.0650 C   0  0  0  0  0  2  0  0  0  0  0  0
  190.0650  173.1070  136.5660 C   0  0  2  0  0  0  0  0  0  0  0  0
  188.5660  172.6630  138.5850 C   0  0  0  0  0  2  0  0  0  0  0  0
  189.2500  174.7610  135.2700 C   0  0  0  0  0  1  0  0  0  0  0  0
  190.2120  173.7420  135.3220 O   0  0  0  0  0  0  0  0  0  0  0  0
  2  1  1  6  0  0  0
  2  6  1  0  0  0  0
  2  3  1  0  0  0  0
  3 10  1  0  0  0  0
  3  7  1  1  0  0  0
  4  2  1  0  0  0  0
  5  7  1  0  0  0  0
  6 31  1  1  0  0  0
  6  5  1  0  0  0  0
  8 13  1  1  0  0  0
  9  8  1  0  0  0  0
 10 28  1  6  0  0  0
 10  9  1  0  0  0  0
 10  8  1  0  0  0  0
 11 14  2  0  0  0  0
 12 15  1  0  0  0  0
 12 11  1  0  0  0  0
 13 11  1  0  0  0  0
 16 15  1  0  0  0  0
 19 17  2  6  0  0  0
 19 18  1  0  0  0  0
 19 16  1  0  0  0  0
 20 19  1  1  0  0  0
 22 26  1  0  0  0  0
 22 25  1  0  0  0  0
 24 20  1  0  0  0  0
 25 21  1  1  0  0  0
 25 20  1  0  0  0  0
 26 23  1  1  0  0  0
 26 24  1  0  0  0  0
 27 22  1  0  0  0  0
 29 28  1  0  0  0  0
 30 28  2  0  0  0  0
 32 40  1  0  0  0  0
 33 35  1  0  0  0  0
 34 31  1  0  0  0  0
 34 33  1  0  0  0  0
 35 41  1  6  0  0  0
 35 39  1  0  0  0  0
 36 37  1  0  0  0  0
 36 32  2  0  0  0  0
 37 34  2  0  0  0  0
 38 39  2  0  0  0  0
 40 33  2  0  0  0  0
 40 38  1  0  0  0  0
 41 43  1  0  0  0  0
 41 42  1  0  0  0  0
 43 42  1  0  0  0  0
 44 37  1  0  0  0  0
 45 46  1  0  0  0  0
 45 44  1  0  0  0  0
 48 46  1  1  0  0  0
 49 50  1  0  0  0  0
 49 51  1  1  0  0  0
 50 52  1  0  0  0  0
 51 48  1  0  0  0  0
 52 48  1  0  0  0  0
 52 47  1  1  0  0  0
 53 55  1  1  0  0  0
 54 53  1  0  0  0  0
 54 57  1  1  0  0  0
 56 59  1  6  0  0  0
 56 49  1  0  0  0  0
 56 54  1  0  0  0  0
 56 53  1  0  0  0  0
 57 55  1  0  0  0  0
 58 59  1  0  0  0  0
M  END
>  <MODEL>
5

>  <REMARK>
 VINA RESULT:      -5.8      1.958      2.506
  Name = 
  16 active torsions:
  status: ('A' for Active; 'I' for Inactive)
    1  A    between atoms: C_1  and  C_15
    2  A    between atoms: C_1  and  P_32
    3  A    between atoms: S_3  and  C_27
    4  A    between atoms: S_3  and  C_54
    5  A    between atoms: C_4  and  N_39
    6  A    between atoms: C_5  and  C_53
    7  A    between atoms: C_10  and  P_32
    8  A    between atoms: N_11  and  N_23
    9  A    between atoms: N_11  and  C_25
   10  A    between atoms: C_13  and  C_25
   11  A    between atoms: C_15  and  N_36
   12  A    between atoms: O_16  and  C_40
   13  A    between atoms: C_19  and  C_28
   14  A    between atoms: C_20  and  C_40
   15  A    between atoms: N_23  and  C_31
   16  A    between atoms: C_43  and  C_53
                            x       y       z     vdW  Elec       q    Type
                         _______ _______ _______ _____ _____    ______ ____

>  <TORSDO>
F 16

$$$$
=
 OpenBabel11042415443D

 59 67  0  0  1  0  0  0  0  0999 V2000
  191.9410  170.8510  143.3840 C   0  0  0  0  0  1  0  0  0  0  0  0
  192.7680  171.4430  142.2550 C   0  0  2  0  0  0  0  0  0  0  0  0
  193.8630  170.4370  141.8650 C   0  0  1  0  0  3  0  0  0  0  0  0
  193.2630  172.6740  142.6920 O   0  0  0  0  0  1  0  0  0  0  0  0
  192.0380  170.2920  140.2320 C   0  0  0  0  0  2  0  0  0  0  0  0
  191.8790  171.5850  141.0200 C   0  0  2  0  0  3  0  0  0  0  0  0
  193.1240  169.4810  140.9230 C   0  0  0  0  0  2  0  0  0  0  0  0
  196.2720  171.4890  142.1720 C   0  0  1  0  0  3  0  0  0  0  0  0
  196.4690  170.2430  141.3180 C   0  0  0  0  0  2  0  0  0  0  0  0
  195.1670  171.0260  141.2160 C   0  0  1  0  0  0  0  0  0  0  0  0
  195.9020  172.0700  144.6000 C   0  0  0  0  0  0  0  0  0  0  0  0
  196.0780  173.4620  144.3230 N   0  0  0  0  0  2  0  0  0  0  0  0
  196.0230  171.1060  143.5550 N   0  0  0  0  0  2  0  0  0  0  0  0
  195.6330  171.6830  145.7650 O   0  0  0  0  0  0  0  0  0  0  0  0
  195.9980  174.4730  145.3680 C   0  0  0  0  0  2  0  0  0  0  0  0
  194.5490  174.7380  145.7570 C   0  0  0  0  0  2  0  0  0  0  0  0
  193.7220  177.3130  145.4630 O   0  0  0  0  0  1  0  0  0  0  0  0
  194.7600  176.2410  143.3300 O   0  0  0  0  0  0  0  0  0  0  0  0
  193.7930  176.0130  144.6980 P   0  0  1  0  0  0  0  0  0  0  0  0
  192.1060  175.4950  144.1880 C   0  0  1  0  0  3  0  0  0  0  0  0
  191.5680  177.9040  143.5220 C   0  0  0  0  0  1  0  0  0  0  0  0
  190.6860  176.8770  145.5780 N   0  0  0  0  0  0  0  0  0  0  0  0
  190.8490  175.6450  147.6660 C   0  0  0  0  0  1  0  0  0  0  0  0
  191.4740  174.2910  145.3770 S   0  0  0  0  0  0  0  0  0  0  0  0
  191.0890  176.6280  144.2030 C   0  0  2  0  0  3  0  0  0  0  0  0
  190.4710  175.5750  146.2000 C   0  0  2  0  0  3  0  0  0  0  0  0
  189.4780  177.4900  145.5340 O   0  0  0  0  0  1  0  0  0  0  0  0
  195.0750  171.9950  140.0750 C   0  0  0  0  0  0  0  0  0  0  0  0
  195.2010  173.2310  140.2790 O   0  0  0  0  0  1  0  0  0  0  0  0
  194.8930  171.5240  138.7820 O   0  0  0  0  0  0  0  0  0  0  0  0
  192.3730  172.9920  139.9630 S   0  0  0  0  0  0  0  0  0  0  0  0
  188.2300  173.2890  137.9130 C   0  0  0  0  0  3  0  0  0  0  0  0
  190.5440  172.6010  137.9010 C   0  0  0  0  0  0  0  0  0  0  0  0
  190.7590  173.1080  139.1860 C   0  0  0  0  0  0  0  0  0  0  0  0
  191.4460  171.8920  136.9410 C   0  0  1  0  0  3  0  0  0  0  0  0
  188.4190  173.8270  139.1940 C   0  0  0  0  0  3  0  0  0  0  0  0
  189.6770  173.7440  139.8360 C   0  0  0  0  0  0  0  0  0  0  0  0
  189.3560  172.0710  136.0280 N   0  0  0  0  0  0  0  0  0  0  0  0
  190.5320  171.6280  135.8170 N   0  0  0  0  0  0  0  0  0  0  0  0
  189.3190  172.6770  137.3020 C   0  0  0  0  0  0  0  0  0  0  0  0
  192.5670  172.8150  136.4790 C   0  0  0  0  0  3  0  0  0  0  0  0
  192.5110  172.9830  134.9700 C   0  0  0  0  0  2  0  0  0  0  0  0
  193.5190  172.0400  135.5880 C   0  0  0  0  0  2  0  0  0  0  0  0
  189.8530  174.2870  141.1500 N   0  0  0  0  0  2  0  0  0  0  0  0
  189.0470  173.8920  142.2280 N   0  0  0  0  0  2  0  0  0  0  0  0
  187.7620  174.5490  142.0620 C   0  0  0  0  0  2  0  0  0  0  0  0
  187.0660  176.8980  140.2150 Cl  0  0  0  0  0  0  0  0  0  0  0  0
  187.8210  175.9280  142.7000 C   0  0  2  0  0  3  0  0  0  0  0  0
  186.7140  177.7070  143.8560 C   0  0  2  0  0  3  0  0  0  0  0  0
  187.5920  178.6170  142.5350 S   0  0  0  0  0  0  0  0  0  0  0  0
  186.5720  176.2460  143.4880 C   0  0  0  0  0  2  0  0  0  0  0  0
  188.0500  177.0640  141.7060 C   0  0  2  0  0  3  0  0  0  0  0  0
  185.5350  179.0720  145.8080 C   0  0  1  0  0  3  0  0  0  0  0  0
  184.6510  177.8380  145.6050 C   0  0  1  0  0  3  0  0  0  0  0  0
  186.3560  178.3030  146.8280 C   0  0  0  0  0  2  0  0  0  0  0  0
  185.4560  178.4030  144.4370 C   0  0  2  0  0  0  0  0  0  0  0  0
  185.4860  177.0850  146.6240 C   0  0  0  0  0  2  0  0  0  0  0  0
  183.9290  178.2910  142.7830 C   0  0  0  0  0  1  0  0  0  0  0  0
  184.7080  179.1800  143.5380 O   0  0  0  0  0  0  0  0  0  0  0  0
  2  4  1  0  0  0  0
  2  1  1  1  0  0  0
  3  7  1  6  0  0  0
  3  2  1  0  0  0  0
  5  7  1  0  0  0  0
  5  6  1  0  0  0  0
  6 31  1  6  0  0  0
  6  2  1  0  0  0  0
  8 13  1  1  0  0  0
  9  8  1  0  0  0  0
 10 28  1  6  0  0  0
 10  9  1  0  0  0  0
 10  3  1  0  0  0  0
 10  8  1  0  0  0  0
 11 14  2  0  0  0  0
 12 11  1  0  0  0  0
 12 15  1  0  0  0  0
 13 11  1  0  0  0  0
 15 16  1  0  0  0  0
 19 18  2  6  0  0  0
 19 17  1  0  0  0  0
 19 16  1  0  0  0  0
 20 25  1  0  0  0  0
 20 19  1  1  0  0  0
 20 24  1  0  0  0  0
 22 26  1  0  0  0  0
 24 26  1  0  0  0  0
 25 21  1  1  0  0  0
 25 22  1  0  0  0  0
 26 23  1  1  0  0  0
 27 22  1  0  0  0  0
 28 29  1  0  0  0  0
 30 28  2  0  0  0  0
 32 36  1  0  0  0  0
 33 34  2  0  0  0  0
 34 37  1  0  0  0  0
 34 31  1  0  0  0  0
 35 41  1  6  0  0  0
 35 33  1  0  0  0  0
 36 37  2  0  0  0  0
 37 44  1  0  0  0  0
 38 40  1  0  0  0  0
 39 38  2  0  0  0  0
 39 35  1  0  0  0  0
 40 33  1  0  0  0  0
 40 32  2  0  0  0  0
 42 43  1  0  0  0  0
 42 41  1  0  0  0  0
 43 41  1  0  0  0  0
 44 45  1  0  0  0  0
 46 45  1  0  0  0  0
 48 46  1  6  0  0  0
 48 51  1  0  0  0  0
 49 51  1  6  0  0  0
 49 56  1  0  0  0  0
 50 49  1  0  0  0  0
 52 47  1  6  0  0  0
 52 50  1  0  0  0  0
 52 48  1  0  0  0  0
 53 55  1  1  0  0  0
 54 53  1  0  0  0  0
 54 57  1  1  0  0  0
 56 59  1  6  0  0  0
 56 54  1  0  0  0  0
 56 53  1  0  0  0  0
 57 55  1  0  0  0  0
 58 59  1  0  0  0  0
M  END
>  <MODEL>
6

>  <REMARK>
 VINA RESULT:      -5.6      3.112      7.922
  Name = 
  16 active torsions:
  status: ('A' for Active; 'I' for Inactive)
    1  A    between atoms: C_1  and  C_15
    2  A    between atoms: C_1  and  P_32
    3  A    between atoms: S_3  and  C_27
    4  A    between atoms: S_3  and  C_54
    5  A    between atoms: C_4  and  N_39
    6  A    between atoms: C_5  and  C_53
    7  A    between atoms: C_10  and  P_32
    8  A    between atoms: N_11  and  N_23
    9  A    between atoms: N_11  and  C_25
   10  A    between atoms: C_13  and  C_25
   11  A    between atoms: C_15  and  N_36
   12  A    between atoms: O_16  and  C_40
   13  A    between atoms: C_19  and  C_28
   14  A    between atoms: C_20  and  C_40
   15  A    between atoms: N_23  and  C_31
   16  A    between atoms: C_43  and  C_53
                            x       y       z     vdW  Elec       q    Type
                         _______ _______ _______ _____ _____    ______ ____

>  <TORSDO>
F 16

$$$$
=
 OpenBabel11042415443D

 59 67  0  0  1  0  0  0  0  0999 V2000
  191.5820  173.6660  142.1920 C   0  0  0  0  0  1  0  0  0  0  0  0
  192.7860  174.0770  143.0240 C   0  0  2  0  0  0  0  0  0  0  0  0
  192.3150  174.3830  144.4550 C   0  0  1  0  0  3  0  0  0  0  0  0
  193.3910  175.1630  142.3850 O   0  0  0  0  0  1  0  0  0  0  0  0
  193.3170  172.1440  144.4130 C   0  0  0  0  0  2  0  0  0  0  0  0
  193.7280  172.8810  143.1450 C   0  0  2  0  0  3  0  0  0  0  0  0
  192.2550  172.9930  145.0950 C   0  0  0  0  0  2  0  0  0  0  0  0
  192.7000  175.7330  146.6990 C   0  0  1  0  0  3  0  0  0  0  0  0
  193.9460  174.8790  146.5100 C   0  0  0  0  0  2  0  0  0  0  0  0
  193.1910  175.3860  145.2890 C   0  0  1  0  0  0  0  0  0  0  0  0
  190.2320  175.3260  147.0320 C   0  0  0  0  0  0  0  0  0  0  0  0
  189.9210  176.6320  146.5380 N   0  0  0  0  0  2  0  0  0  0  0  0
  191.5890  174.8990  147.1340 N   0  0  0  0  0  2  0  0  0  0  0  0
  189.3110  174.5410  147.3730 O   0  0  0  0  0  0  0  0  0  0  0  0
  188.5510  177.1200  146.4520 C   0  0  0  0  0  2  0  0  0  0  0  0
  188.3220  177.8650  145.1430 C   0  0  0  0  0  2  0  0  0  0  0  0
  189.0140  177.3270  142.5680 O   0  0  0  0  0  0  0  0  0  0  0  0
  188.9860  175.2630  144.1550 O   0  0  0  0  0  1  0  0  0  0  0  0
  188.2520  176.7250  143.7250 P   0  0  1  0  0  0  0  0  0  0  0  0
  186.5070  176.4250  143.2370 C   0  0  1  0  0  3  0  0  0  0  0  0
  187.1500  176.6910  140.7760 C   0  0  0  0  0  1  0  0  0  0  0  0
  185.9450  178.4410  142.0200 N   0  0  0  0  0  0  0  0  0  0  0  0
  185.5660  179.9440  143.8910 C   0  0  0  0  0  1  0  0  0  0  0  0
  185.4160  177.2650  144.4050 S   0  0  0  0  0  0  0  0  0  0  0  0
  186.1460  177.0070  141.8770 C   0  0  2  0  0  3  0  0  0  0  0  0
  185.1600  178.6410  143.2330 C   0  0  2  0  0  3  0  0  0  0  0  0
  185.1680  178.8390  140.9840 O   0  0  0  0  0  1  0  0  0  0  0  0
  193.7420  176.6240  144.6480 C   0  0  0  0  0  0  0  0  0  0  0  0
  194.9870  176.7920  144.5550 O   0  0  0  0  0  1  0  0  0  0  0  0
  192.8770  177.5700  144.1150 O   0  0  0  0  0  0  0  0  0  0  0  0
  195.4800  173.3840  143.2900 S   0  0  0  0  0  0  0  0  0  0  0  0
  196.9650  170.0720  140.4130 C   0  0  0  0  0  3  0  0  0  0  0  0
  196.3490  170.8250  142.6220 C   0  0  0  0  0  0  0  0  0  0  0  0
  196.0460  172.1090  142.1610 C   0  0  0  0  0  0  0  0  0  0  0  0
  196.2780  170.2090  143.9830 C   0  0  1  0  0  3  0  0  0  0  0  0
  196.6910  171.3570  139.9220 C   0  0  0  0  0  3  0  0  0  0  0  0
  196.2350  172.3800  140.7860 C   0  0  0  0  0  0  0  0  0  0  0  0
  196.9830  168.6400  142.4760 N   0  0  0  0  0  0  0  0  0  0  0  0
  196.7080  168.8290  143.7050 N   0  0  0  0  0  0  0  0  0  0  0  0
  196.7750  169.8450  141.7720 C   0  0  0  0  0  0  0  0  0  0  0  0
  197.2750  170.8720  144.9240 C   0  0  0  0  0  3  0  0  0  0  0  0
  197.1910  170.2350  146.3010 C   0  0  0  0  0  2  0  0  0  0  0  0
  196.5230  171.5670  146.0440 C   0  0  0  0  0  2  0  0  0  0  0  0
  195.9470  173.6850  140.2690 N   0  0  0  0  0  2  0  0  0  0  0  0
  194.7020  174.0000  139.7050 N   0  0  0  0  0  2  0  0  0  0  0  0
  194.9450  174.9670  138.6490 C   0  0  0  0  0  2  0  0  0  0  0  0
  195.1580  174.6740  135.6020 Cl  0  0  0  0  0  0  0  0  0  0  0  0
  193.6570  175.1940  137.8740 C   0  0  2  0  0  3  0  0  0  0  0  0
  191.6620  174.3050  136.8960 C   0  0  2  0  0  3  0  0  0  0  0  0
  192.3020  175.3490  135.5400 S   0  0  0  0  0  0  0  0  0  0  0  0
  192.7670  173.9740  137.8770 C   0  0  0  0  0  2  0  0  0  0  0  0
  193.8700  175.6160  136.4230 C   0  0  2  0  0  3  0  0  0  0  0  0
  189.3170  173.4390  135.9920 C   0  0  1  0  0  3  0  0  0  0  0  0
  189.5390  172.6740  137.3000 C   0  0  1  0  0  3  0  0  0  0  0  0
  188.6220  174.5430  136.7700 C   0  0  0  0  0  2  0  0  0  0  0  0
  190.7350  173.1360  136.4720 C   0  0  2  0  0  0  0  0  0  0  0  0
  188.8440  173.7890  138.0590 C   0  0  0  0  0  2  0  0  0  0  0  0
  190.6460  170.9380  135.9840 C   0  0  0  0  0  1  0  0  0  0  0  0
  191.3280  172.1280  135.6940 O   0  0  0  0  0  0  0  0  0  0  0  0
  2  1  1  6  0  0  0
  2  6  1  0  0  0  0
  2  3  1  0  0  0  0
  3  7  1  1  0  0  0
  3 10  1  0  0  0  0
  4  2  1  0  0  0  0
  5  7  1  0  0  0  0
  6 31  1  1  0  0  0
  6  5  1  0  0  0  0
  8 13  1  1  0  0  0
  9  8  1  0  0  0  0
 10 28  1  6  0  0  0
 10  9  1  0  0  0  0
 10  8  1  0  0  0  0
 11 13  1  0  0  0  0
 11 14  2  0  0  0  0
 12 11  1  0  0  0  0
 15 12  1  0  0  0  0
 16 15  1  0  0  0  0
 19 17  2  6  0  0  0
 19 18  1  0  0  0  0
 19 16  1  0  0  0  0
 20 19  1  1  0  0  0
 20 24  1  0  0  0  0
 22 26  1  0  0  0  0
 25 21  1  6  0  0  0
 25 22  1  0  0  0  0
 25 20  1  0  0  0  0
 26 23  1  1  0  0  0
 26 24  1  0  0  0  0
 27 22  1  0  0  0  0
 29 28  1  0  0  0  0
 30 28  2  0  0  0  0
 32 40  1  0  0  0  0
 33 35  1  0  0  0  0
 34 33  1  0  0  0  0
 34 31  1  0  0  0  0
 35 41  1  1  0  0  0
 36 32  2  0  0  0  0
 36 37  1  0  0  0  0
 37 34  2  0  0  0  0
 38 39  2  0  0  0  0
 39 35  1  0  0  0  0
 40 38  1  0  0  0  0
 40 33  2  0  0  0  0
 41 43  1  0  0  0  0
 41 42  1  0  0  0  0
 43 42  1  0  0  0  0
 44 37  1  0  0  0  0
 45 44  1  0  0  0  0
 46 45  1  0  0  0  0
 48 51  1  0  0  0  0
 48 46  1  6  0  0  0
 49 51  1  6  0  0  0
 50 52  1  0  0  0  0
 50 49  1  0  0  0  0
 52 47  1  6  0  0  0
 52 48  1  0  0  0  0
 53 56  1  0  0  0  0
 53 55  1  1  0  0  0
 53 54  1  0  0  0  0
 54 57  1  1  0  0  0
 55 57  1  0  0  0  0
 56 59  1  6  0  0  0
 56 49  1  0  0  0  0
 56 54  1  0  0  0  0
 59 58  1  0  0  0  0
M  END
>  <MODEL>
7

>  <REMARK>
 VINA RESULT:      -5.5      1.547      1.890
  Name = 
  16 active torsions:
  status: ('A' for Active; 'I' for Inactive)
    1  A    between atoms: C_1  and  C_15
    2  A    between atoms: C_1  and  P_32
    3  A    between atoms: S_3  and  C_27
    4  A    between atoms: S_3  and  C_54
    5  A    between atoms: C_4  and  N_39
    6  A    between atoms: C_5  and  C_53
    7  A    between atoms: C_10  and  P_32
    8  A    between atoms: N_11  and  N_23
    9  A    between atoms: N_11  and  C_25
   10  A    between atoms: C_13  and  C_25
   11  A    between atoms: C_15  and  N_36
   12  A    between atoms: O_16  and  C_40
   13  A    between atoms: C_19  and  C_28
   14  A    between atoms: C_20  and  C_40
   15  A    between atoms: N_23  and  C_31
   16  A    between atoms: C_43  and  C_53
                            x       y       z     vdW  Elec       q    Type
                         _______ _______ _______ _____ _____    ______ ____

>  <TORSDO>
F 16

$$$$
=
 OpenBabel11042415443D

 59 67  0  0  1  0  0  0  0  0999 V2000
  193.2440  176.2110  142.6240 C   0  0  0  0  0  1  0  0  0  0  0  0
  194.0110  175.0580  143.2500 C   0  0  2  0  0  0  0  0  0  0  0  0
  195.3170  175.6030  143.8510 C   0  0  1  0  0  3  0  0  0  0  0  0
  194.2060  174.0910  142.2600 O   0  0  0  0  0  1  0  0  0  0  0  0
  193.6880  175.2830  145.6570 C   0  0  0  0  0  2  0  0  0  0  0  0
  193.2050  174.5190  144.4310 C   0  0  2  0  0  3  0  0  0  0  0  0
  194.8650  176.1390  145.2120 C   0  0  0  0  0  2  0  0  0  0  0  0
  197.3480  174.3450  142.7120 C   0  0  1  0  0  3  0  0  0  0  0  0
  197.9410  175.1150  143.8840 C   0  0  0  0  0  2  0  0  0  0  0  0
  196.5140  174.5920  143.9740 C   0  0  1  0  0  0  0  0  0  0  0  0
  196.7340  174.8100  140.3090 C   0  0  0  0  0  0  0  0  0  0  0  0
  196.8020  173.4170  139.9930 N   0  0  0  0  0  2  0  0  0  0  0  0
  197.0260  175.2640  141.6290 N   0  0  0  0  0  2  0  0  0  0  0  0
  196.4090  175.6460  139.4280 O   0  0  0  0  0  0  0  0  0  0  0  0
  196.5460  172.9160  138.6490 C   0  0  0  0  0  2  0  0  0  0  0  0
  195.1160  172.4070  138.5230 C   0  0  0  0  0  2  0  0  0  0  0  0
  193.7010  174.6660  137.9820 O   0  0  0  0  0  1  0  0  0  0  0  0
  195.1520  173.7780  136.0110 O   0  0  0  0  0  0  0  0  0  0  0  0
  194.1590  173.3870  137.3230 P   0  0  1  0  0  0  0  0  0  0  0  0
  192.7050  172.4290  136.7390 C   0  0  1  0  0  3  0  0  0  0  0  0
  191.9720  174.4170  135.3060 C   0  0  0  0  0  1  0  0  0  0  0  0
  190.8460  173.8260  137.4140 N   0  0  0  0  0  0  0  0  0  0  0  0
  190.7560  173.2550  139.7750 C   0  0  0  0  0  1  0  0  0  0  0  0
  192.0240  171.4880  138.1210 S   0  0  0  0  0  0  0  0  0  0  0  0
  191.5540  173.3020  136.2560 C   0  0  2  0  0  3  0  0  0  0  0  0
  190.7000  172.7220  138.3580 C   0  0  2  0  0  3  0  0  0  0  0  0
  189.5980  174.1540  137.0030 O   0  0  0  0  0  1  0  0  0  0  0  0
  196.3380  173.2940  144.7020 C   0  0  0  0  0  0  0  0  0  0  0  0
  196.1440  172.2270  144.0610 O   0  0  0  0  0  0  0  0  0  0  0  0
  196.4330  173.2590  146.0860 O   0  0  0  0  0  1  0  0  0  0  0  0
  193.4730  172.7310  144.7000 S   0  0  0  0  0  0  0  0  0  0  0  0
  189.4250  171.5470  142.7850 C   0  0  0  0  0  3  0  0  0  0  0  0
  191.7850  171.1730  143.1280 C   0  0  0  0  0  0  0  0  0  0  0  0
  191.8950  172.2810  143.9730 C   0  0  0  0  0  0  0  0  0  0  0  0
  192.7880  170.1650  142.6640 C   0  0  1  0  0  3  0  0  0  0  0  0
  189.5070  172.6770  143.6120 C   0  0  0  0  0  3  0  0  0  0  0  0
  190.7340  173.0520  144.2070 C   0  0  0  0  0  0  0  0  0  0  0  0
  190.7380  169.6530  141.7870 N   0  0  0  0  0  0  0  0  0  0  0  0
  191.9550  169.2800  141.8320 N   0  0  0  0  0  0  0  0  0  0  0  0
  190.5890  170.8170  142.5730 C   0  0  0  0  0  0  0  0  0  0  0  0
  193.8510  170.8260  141.7960 C   0  0  0  0  0  3  0  0  0  0  0  0
  194.4260  169.8150  140.8190 C   0  0  0  0  0  2  0  0  0  0  0  0
  195.1960  170.1790  142.0680 C   0  0  0  0  0  2  0  0  0  0  0  0
  190.8000  174.2020  145.0580 N   0  0  0  0  0  2  0  0  0  0  0  0
  189.7900  175.1760  145.0680 N   0  0  0  0  0  2  0  0  0  0  0  0
  189.9740  175.9910  143.8800 C   0  0  0  0  0  2  0  0  0  0  0  0
  188.1790  176.3820  141.4230 Cl  0  0  0  0  0  0  0  0  0  0  0  0
  189.0270  177.1790  143.9390 C   0  0  2  0  0  3  0  0  0  0  0  0
  186.8790  178.0700  144.5050 C   0  0  2  0  0  3  0  0  0  0  0  0
  187.1220  178.7370  142.8210 S   0  0  0  0  0  0  0  0  0  0  0  0
  187.7800  176.8760  144.7370 C   0  0  0  0  0  2  0  0  0  0  0  0
  188.5930  177.6970  142.5710 C   0  0  2  0  0  3  0  0  0  0  0  0
  184.9070  178.7840  146.1380 C   0  0  1  0  0  3  0  0  0  0  0  0
  185.0060  177.2640  146.2870 C   0  0  1  0  0  3  0  0  0  0  0  0
  185.9130  178.9490  147.2640 C   0  0  0  0  0  2  0  0  0  0  0  0
  185.4080  177.9310  144.9740 C   0  0  2  0  0  0  0  0  0  0  0  0
  186.0130  177.4490  147.4080 C   0  0  0  0  0  2  0  0  0  0  0  0
  183.6950  179.0310  144.0060 C   0  0  0  0  0  1  0  0  0  0  0  0
  184.4410  177.8440  143.9590 O   0  0  0  0  0  0  0  0  0  0  0  0
  2  1  1  6  0  0  0
  2  3  1  0  0  0  0
  2  6  1  0  0  0  0
  3 10  1  0  0  0  0
  3  7  1  1  0  0  0
  4  2  1  0  0  0  0
  6 31  1  1  0  0  0
  6  5  1  0  0  0  0
  7  5  1  0  0  0  0
  8 13  1  6  0  0  0
  8  9  1  0  0  0  0
  8 10  1  0  0  0  0
  9 10  1  0  0  0  0
 10 28  1  1  0  0  0
 11 13  1  0  0  0  0
 12 11  1  0  0  0  0
 14 11  2  0  0  0  0
 15 12  1  0  0  0  0
 16 15  1  0  0  0  0
 19 18  2  6  0  0  0
 19 17  1  0  0  0  0
 19 16  1  0  0  0  0
 20 19  1  1  0  0  0
 20 24  1  0  0  0  0
 22 26  1  0  0  0  0
 24 26  1  0  0  0  0
 25 21  1  1  0  0  0
 25 20  1  0  0  0  0
 25 22  1  0  0  0  0
 26 23  1  1  0  0  0
 27 22  1  0  0  0  0
 28 30  1  0  0  0  0
 29 28  2  0  0  0  0
 32 36  1  0  0  0  0
 33 34  2  0  0  0  0
 34 37  1  0  0  0  0
 34 31  1  0  0  0  0
 35 41  1  6  0  0  0
 35 33  1  0  0  0  0
 36 37  2  0  0  0  0
 37 44  1  0  0  0  0
 38 39  2  0  0  0  0
 38 40  1  0  0  0  0
 39 35  1  0  0  0  0
 40 32  2  0  0  0  0
 40 33  1  0  0  0  0
 41 43  1  0  0  0  0
 42 41  1  0  0  0  0
 42 43  1  0  0  0  0
 44 45  1  0  0  0  0
 46 45  1  0  0  0  0
 48 46  1  6  0  0  0
 48 51  1  0  0  0  0
 49 51  1  6  0  0  0
 49 56  1  0  0  0  0
 50 49  1  0  0  0  0
 52 47  1  6  0  0  0
 52 50  1  0  0  0  0
 52 48  1  0  0  0  0
 53 54  1  0  0  0  0
 53 55  1  1  0  0  0
 54 57  1  1  0  0  0
 55 57  1  0  0  0  0
 56 59  1  6  0  0  0
 56 53  1  0  0  0  0
 56 54  1  0  0  0  0
 59 58  1  0  0  0  0
M  END
>  <MODEL>
8

>  <REMARK>
 VINA RESULT:      -5.2      3.363      7.992
  Name = 
  16 active torsions:
  status: ('A' for Active; 'I' for Inactive)
    1  A    between atoms: C_1  and  C_15
    2  A    between atoms: C_1  and  P_32
    3  A    between atoms: S_3  and  C_27
    4  A    between atoms: S_3  and  C_54
    5  A    between atoms: C_4  and  N_39
    6  A    between atoms: C_5  and  C_53
    7  A    between atoms: C_10  and  P_32
    8  A    between atoms: N_11  and  N_23
    9  A    between atoms: N_11  and  C_25
   10  A    between atoms: C_13  and  C_25
   11  A    between atoms: C_15  and  N_36
   12  A    between atoms: O_16  and  C_40
   13  A    between atoms: C_19  and  C_28
   14  A    between atoms: C_20  and  C_40
   15  A    between atoms: N_23  and  C_31
   16  A    between atoms: C_43  and  C_53
                            x       y       z     vdW  Elec       q    Type
                         _______ _______ _______ _____ _____    ______ ____

>  <TORSDO>
F 16

$$$$
=
 OpenBabel11042415443D

 59 67  0  0  1  0  0  0  0  0999 V2000
  192.6990  175.6610  142.0340 C   0  0  0  0  0  1  0  0  0  0  0  0
  192.1220  174.4240  142.7010 C   0  0  2  0  0  0  0  0  0  0  0  0
  190.8600  173.9930  141.9360 C   0  0  1  0  0  3  0  0  0  0  0  0
  191.8900  174.7350  144.0440 O   0  0  0  0  0  1  0  0  0  0  0  0
  192.7270  172.5550  141.2550 C   0  0  0  0  0  2  0  0  0  0  0  0
  193.1160  173.2740  142.5400 C   0  0  2  0  0  3  0  0  0  0  0  0
  191.4320  173.1870  140.7670 C   0  0  0  0  0  2  0  0  0  0  0  0
  188.3830  173.0810  142.1300 C   0  0  1  0  0  3  0  0  0  0  0  0
  189.2840  171.8550  142.2020 C   0  0  0  0  0  2  0  0  0  0  0  0
  189.7830  173.1860  142.7470 C   0  0  1  0  0  0  0  0  0  0  0  0
  187.9160  174.9040  140.4490 C   0  0  0  0  0  0  0  0  0  0  0  0
  187.4880  175.7900  141.4870 N   0  0  0  0  0  2  0  0  0  0  0  0
  188.3280  173.5740  140.7610 N   0  0  0  0  0  2  0  0  0  0  0  0
  187.9410  175.2910  139.2530 O   0  0  0  0  0  0  0  0  0  0  0  0
  187.0260  177.1420  141.2060 C   0  0  0  0  0  2  0  0  0  0  0  0
  187.2840  178.0610  142.3930 C   0  0  0  0  0  2  0  0  0  0  0  0
  185.9180  179.9010  143.8590 O   0  0  0  0  0  1  0  0  0  0  0  0
  184.5060  178.6620  142.0560 O   0  0  0  0  0  0  0  0  0  0  0  0
  185.7330  178.5480  143.2140 P   0  0  1  0  0  0  0  0  0  0  0  0
  185.2730  177.3060  144.4870 C   0  0  1  0  0  3  0  0  0  0  0  0
  183.7930  179.0410  145.6440 C   0  0  0  0  0  1  0  0  0  0  0  0
  185.9840  178.3680  146.5430 N   0  0  0  0  0  0  0  0  0  0  0  0
  188.3690  177.9220  146.4190 C   0  0  0  0  0  1  0  0  0  0  0  0
  186.7320  176.3320  144.9160 S   0  0  0  0  0  0  0  0  0  0  0  0
  184.8140  177.9220  145.8020 C   0  0  2  0  0  3  0  0  0  0  0  0
  186.9830  177.3100  146.4370 C   0  0  2  0  0  3  0  0  0  0  0  0
  185.6260  178.4360  147.8480 O   0  0  0  0  0  1  0  0  0  0  0  0
  189.6470  173.3780  144.2280 C   0  0  0  0  0  0  0  0  0  0  0  0
  189.4210  174.5230  144.7030 O   0  0  0  0  0  0  0  0  0  0  0  0
  189.7290  172.2830  145.0770 O   0  0  0  0  0  1  0  0  0  0  0  0
  193.0440  172.0900  143.9310 S   0  0  0  0  0  0  0  0  0  0  0  0
  197.6340  171.4660  143.9570 C   0  0  0  0  0  3  0  0  0  0  0  0
  195.6580  172.6150  144.7330 C   0  0  0  0  0  0  0  0  0  0  0  0
  194.8200  171.8300  143.9360 C   0  0  0  0  0  0  0  0  0  0  0  0
  195.3720  173.7230  145.6960 C   0  0  1  0  0  3  0  0  0  0  0  0
  196.8220  170.6750  143.1300 C   0  0  0  0  0  3  0  0  0  0  0  0
  195.4190  170.8510  143.1110 C   0  0  0  0  0  0  0  0  0  0  0  0
  197.6230  173.3190  145.6510 N   0  0  0  0  0  0  0  0  0  0  0  0
  196.7220  174.0450  146.1850 N   0  0  0  0  0  0  0  0  0  0  0  0
  197.0100  172.4220  144.7500 C   0  0  0  0  0  0  0  0  0  0  0  0
  194.7950  174.9300  144.9680 C   0  0  0  0  0  3  0  0  0  0  0  0
  195.4870  176.1980  145.4360 C   0  0  0  0  0  2  0  0  0  0  0  0
  194.1180  175.8460  145.9710 C   0  0  0  0  0  2  0  0  0  0  0  0
  194.6010  170.0280  142.2690 N   0  0  0  0  0  2  0  0  0  0  0  0
  194.7430  168.6330  142.2350 N   0  0  0  0  0  2  0  0  0  0  0  0
  194.7760  168.2430  140.8360 C   0  0  0  0  0  2  0  0  0  0  0  0
  195.8470  168.6930  137.9970 Cl  0  0  0  0  0  0  0  0  0  0  0  0
  194.0370  169.2840  140.0110 C   0  0  2  0  0  3  0  0  0  0  0  0
  192.3030  169.8180  138.4510 C   0  0  2  0  0  3  0  0  0  0  0  0
  193.7290  170.7090  137.7340 S   0  0  0  0  0  0  0  0  0  0  0  0
  192.7750  168.7310  139.3920 C   0  0  0  0  0  2  0  0  0  0  0  0
  194.8740  169.9030  138.8960 C   0  0  2  0  0  3  0  0  0  0  0  0
  190.4640  170.5370  136.6710 C   0  0  1  0  0  3  0  0  0  0  0  0
  189.6970  169.7270  137.7190 C   0  0  1  0  0  3  0  0  0  0  0  0
  190.2000  171.8010  137.4700 C   0  0  0  0  0  2  0  0  0  0  0  0
  191.1730  169.4370  137.4590 C   0  0  2  0  0  0  0  0  0  0  0  0
  189.4460  171.0010  138.5060 C   0  0  0  0  0  2  0  0  0  0  0  0
  191.8780  168.7860  135.4200 C   0  0  0  0  0  1  0  0  0  0  0  0
  191.4120  168.3110  136.6540 O   0  0  0  0  0  0  0  0  0  0  0  0
  2  1  1  6  0  0  0
  2  4  1  0  0  0  0
  3  7  1  6  0  0  0
  3  2  1  0  0  0  0
  3 10  1  0  0  0  0
  5  6  1  0  0  0  0
  6  2  1  0  0  0  0
  6 31  1  1  0  0  0
  7  5  1  0  0  0  0
  8 13  1  6  0  0  0
  8  9  1  0  0  0  0
  8 10  1  0  0  0  0
  9 10  1  0  0  0  0
 10 28  1  1  0  0  0
 11 13  1  0  0  0  0
 11 12  1  0  0  0  0
 14 11  2  0  0  0  0
 15 12  1  0  0  0  0
 15 16  1  0  0  0  0
 16 19  1  0  0  0  0
 19 18  2  6  0  0  0
 19 17  1  0  0  0  0
 20 19  1  6  0  0  0
 20 24  1  0  0  0  0
 20 25  1  0  0  0  0
 22 27  1  0  0  0  0
 24 26  1  0  0  0  0
 25 21  1  6  0  0  0
 25 22  1  0  0  0  0
 26 23  1  6  0  0  0
 26 22  1  0  0  0  0
 28 29  2  0  0  0  0
 28 30  1  0  0  0  0
 31 34  1  0  0  0  0
 32 40  1  0  0  0  0
 33 40  2  0  0  0  0
 33 35  1  0  0  0  0
 34 33  1  0  0  0  0
 35 41  1  6  0  0  0
 35 39  1  0  0  0  0
 36 32  2  0  0  0  0
 37 36  1  0  0  0  0
 37 34  2  0  0  0  0
 38 39  2  0  0  0  0
 40 38  1  0  0  0  0
 41 42  1  0  0  0  0
 41 43  1  0  0  0  0
 42 43  1  0  0  0  0
 44 37  1  0  0  0  0
 45 44  1  0  0  0  0
 46 45  1  0  0  0  0
 48 46  1  6  0  0  0
 49 51  1  6  0  0  0
 50 49  1  0  0  0  0
 50 52  1  0  0  0  0
 51 48  1  0  0  0  0
 52 47  1  6  0  0  0
 52 48  1  0  0  0  0
 53 56  1  0  0  0  0
 53 55  1  1  0  0  0
 53 54  1  0  0  0  0
 54 57  1  1  0  0  0
 55 57  1  0  0  0  0
 56 59  1  6  0  0  0
 56 54  1  0  0  0  0
 56 49  1  0  0  0  0
 58 59  1  0  0  0  0
M  END
>  <MODEL>
9

>  <REMARK>
 VINA RESULT:      -5.1      2.656      4.618
  Name = 
  16 active torsions:
  status: ('A' for Active; 'I' for Inactive)
    1  A    between atoms: C_1  and  C_15
    2  A    between atoms: C_1  and  P_32
    3  A    between atoms: S_3  and  C_27
    4  A    between atoms: S_3  and  C_54
    5  A    between atoms: C_4  and  N_39
    6  A    between atoms: C_5  and  C_53
    7  A    between atoms: C_10  and  P_32
    8  A    between atoms: N_11  and  N_23
    9  A    between atoms: N_11  and  C_25
   10  A    between atoms: C_13  and  C_25
   11  A    between atoms: C_15  and  N_36
   12  A    between atoms: O_16  and  C_40
   13  A    between atoms: C_19  and  C_28
   14  A    between atoms: C_20  and  C_40
   15  A    between atoms: N_23  and  C_31
   16  A    between atoms: C_43  and  C_53
                            x       y       z     vdW  Elec       q    Type
                         _______ _______ _______ _____ _____    ______ ____

>  <TORSDO>
F 16

$$$$
