=
 OpenBabel11042418323D

 37 42  0  0  1  0  0  0  0  0999 V2000
  190.1300  174.9340  143.2950 N   0  0  0  0  0  0  0  0  0  0  0  0
  189.7490  176.2230  143.2620 C   0  0  0  0  0  0  0  0  0  0  0  0
  189.6040  174.3350  142.2370 N   0  0  0  0  0  0  0  0  0  0  0  0
  188.9500  176.4280  142.1480 C   0  0  0  0  0  0  0  0  0  0  0  0
  188.8690  175.2000  141.5120 C   0  0  0  0  0  3  0  0  0  0  0  0
  189.7390  172.9110  141.9540 C   0  0  1  0  0  3  0  0  0  0  0  0
  190.8330  171.3100  140.4430 C   0  0  0  0  0  2  0  0  0  0  0  0
  190.9080  172.6550  141.0130 C   0  0  2  0  0  3  0  0  0  0  0  0
  191.7260  171.5640  141.5860 N   0  0  1  0  0  0  0  0  0  0  0  0
  190.0610  172.1680  143.2220 C   0  0  0  0  0  2  0  0  0  0  0  0
  191.0400  171.0970  142.7870 C   0  0  2  0  0  3  0  0  0  0  0  0
  192.0180  170.8680  143.8430 N   0  0  0  0  0  2  0  0  0  0  0  0
  194.6340  171.3480  143.4860 S   0  0  0  0  0  0  0  0  0  0  0  0
  193.1520  171.7070  144.0920 C   0  0  0  0  0  0  0  0  0  0  0  0
  192.9990  172.8740  145.0010 C   0  0  0  0  0  2  0  0  0  0  0  0
  193.5580  174.0650  144.3790 N   0  0  0  0  0  2  0  0  0  0  0  0
  193.1040  175.1330  145.0860 O   0  0  0  0  0  0  0  0  0  0  0  0
  195.0960  176.7300  144.4440 O   0  0  0  0  0  0  0  0  0  0  0  0
  194.1090  177.0030  146.8610 O   0  0  0  0  0  1  0  0  0  0  0  0
  194.5050  175.9460  145.5970 P   0  0  0  0  0  0  0  0  0  0  0  0
  195.6480  174.8140  146.1450 O   0  0  0  0  0  1  0  0  0  0  0  0
  188.2980  177.6810  141.7430 C   0  0  0  0  0  3  0  0  0  0  0  0
  187.0770  177.6990  141.2250 C   0  0  0  0  0  2  0  0  0  0  0  0
  191.3060  177.7200  144.2390 O   0  0  0  0  0  0  0  0  0  0  0  0
  190.1510  177.2180  144.2840 C   0  0  0  0  0  0  0  0  0  0  0  0
  189.1440  177.7220  145.3060 C   0  0  2  0  0  3  0  0  0  0  0  0
  189.4840  175.6270  146.7030 O   0  0  0  0  0  0  0  0  0  0  0  0
  188.8800  176.9120  146.6250 C   0  0  2  0  0  0  0  0  0  0  0  0
  188.0340  176.7310  145.3610 C   0  0  1  0  0  3  0  0  0  0  0  0
  190.2790  176.6800  147.1070 C   0  0  0  0  0  2  0  0  0  0  0  0
  185.2230  179.2600  144.9330 C   0  0  0  0  0  0  0  0  0  0  0  0
  184.5300  177.6030  146.5630 C   0  0  0  0  0  3  0  0  0  0  0  0
  184.2630  178.7610  145.8220 C   0  0  0  0  0  3  0  0  0  0  0  0
  186.7110  177.4230  145.5020 C   0  0  0  0  0  0  0  0  0  0  0  0
  186.4450  178.5960  144.7780 C   0  0  0  0  0  3  0  0  0  0  0  0
  184.9650  180.3840  144.2180 F   0  0  0  0  0  0  0  0  0  0  0  0
  185.7520  176.9400  146.4080 C   0  0  0  0  0  3  0  0  0  0  0  0
  2  1  2  0  0  0  0
  2 25  1  0  0  0  0
  3  1  1  0  0  0  0
  4  2  1  0  0  0  0
  5  4  2  0  0  0  0
  5  3  1  0  0  0  0
  6  3  1  1  0  0  0
  6 10  1  0  0  0  0
  8  7  1  6  0  0  0
  8  9  1  0  0  0  0
  8  6  1  0  0  0  0
  9  7  1  6  0  0  0
  9 11  1  0  0  0  0
 11 10  1  0  0  0  0
 11 12  1  1  0  0  0
 12 14  1  0  0  0  0
 13 14  2  0  0  0  0
 14 15  1  0  0  0  0
 16 15  1  0  0  0  0
 16 17  1  0  0  0  0
 17 20  1  0  0  0  0
 18 20  2  0  0  0  0
 20 21  1  0  0  0  0
 20 19  1  0  0  0  0
 22  4  1  0  0  0  0
 23 22  2  0  0  0  0
 24 25  2  0  0  0  0
 26 25  1  6  0  0  0
 26 29  1  0  0  0  0
 26 28  1  0  0  0  0
 27 30  1  0  0  0  0
 28 27  1  0  0  0  0
 28 30  1  1  0  0  0
 29 34  1  1  0  0  0
 29 28  1  0  0  0  0
 31 33  1  0  0  0  0
 33 32  2  0  0  0  0
 34 37  2  0  0  0  0
 35 31  2  0  0  0  0
 35 34  1  0  0  0  0
 36 31  1  0  0  0  0
 37 32  1  0  0  0  0
M  END
>  <MODEL>
1

>  <REMARK>
 VINA RESULT:      -7.3      0.000      0.000
  Name = 
  11 active torsions:
  status: ('A' for Active; 'I' for Inactive)
    1  A    between atoms: C_2  and  N_32
    2  A    between atoms: C_4  and  C_33
    3  A    between atoms: C_8  and  N_14
    4  A    between atoms: C_8  and  C_27
    5  A    between atoms: C_11  and  C_13
    6  A    between atoms: C_13  and  C_21
    7  A    between atoms: N_14  and  C_35
    8  A    between atoms: O_19  and  P_25
    9  A    between atoms: O_19  and  N_36
   10  A    between atoms: C_22  and  C_30
   11  A    between atoms: C_27  and  N_36
                            x       y       z     vdW  Elec       q    Type
                         _______ _______ _______ _____ _____    ______ ____

>  <TORSDO>
F 11

$$$$
=
 OpenBabel11042418323D

 37 42  0  0  1  0  0  0  0  0999 V2000
  190.8950  176.1840  143.4940 N   0  0  0  0  0  0  0  0  0  0  0  0
  189.7640  175.6170  143.9490 C   0  0  0  0  0  0  0  0  0  0  0  0
  191.7710  176.1810  144.4870 N   0  0  0  0  0  0  0  0  0  0  0  0
  189.9420  175.2590  145.2760 C   0  0  0  0  0  0  0  0  0  0  0  0
  191.2360  175.6360  145.5970 C   0  0  0  0  0  3  0  0  0  0  0  0
  193.1030  176.7680  144.4030 C   0  0  1  0  0  3  0  0  0  0  0  0
  194.9310  177.6800  145.7690 C   0  0  0  0  0  2  0  0  0  0  0  0
  193.7740  176.7850  145.7680 C   0  0  2  0  0  3  0  0  0  0  0  0
  195.1360  176.2310  145.6160 N   0  0  1  0  0  0  0  0  0  0  0  0
  193.9790  175.9180  143.5230 C   0  0  0  0  0  2  0  0  0  0  0  0
  195.3370  175.9670  144.1940 C   0  0  2  0  0  3  0  0  0  0  0  0
  196.0110  174.6860  144.0310 N   0  0  0  0  0  2  0  0  0  0  0  0
  195.2460  172.6270  142.4870 S   0  0  0  0  0  0  0  0  0  0  0  0
  195.3390  173.4260  143.9180 C   0  0  0  0  0  0  0  0  0  0  0  0
  194.6270  172.8800  145.1050 C   0  0  0  0  0  2  0  0  0  0  0  0
  193.5970  171.9440  144.6800 N   0  0  0  0  0  2  0  0  0  0  0  0
  192.4000  172.5600  144.8610 O   0  0  0  0  0  0  0  0  0  0  0  0
  189.9810  171.9610  144.0130 O   0  0  0  0  0  1  0  0  0  0  0  0
  191.5920  173.0750  142.2650 O   0  0  0  0  0  0  0  0  0  0  0  0
  191.4300  172.0150  143.5770 P   0  0  0  0  0  0  0  0  0  0  0  0
  191.9300  170.4590  143.1110 O   0  0  0  0  0  1  0  0  0  0  0  0
  188.9540  174.6360  146.1660 C   0  0  0  0  0  3  0  0  0  0  0  0
  189.0700  174.6880  147.4870 C   0  0  0  0  0  2  0  0  0  0  0  0
  188.4840  174.4560  142.3270 O   0  0  0  0  0  0  0  0  0  0  0  0
  188.5510  175.4350  143.1160 C   0  0  0  0  0  0  0  0  0  0  0  0
  187.3490  176.3480  143.2970 C   0  0  2  0  0  3  0  0  0  0  0  0
  188.5460  178.2060  142.0430 O   0  0  0  0  0  0  0  0  0  0  0  0
  187.3280  177.7730  142.6370 C   0  0  2  0  0  0  0  0  0  0  0  0
  187.8040  177.5330  144.0730 C   0  0  1  0  0  3  0  0  0  0  0  0
  187.7290  177.4460  141.2320 C   0  0  0  0  0  2  0  0  0  0  0  0
  185.8540  177.9290  147.3170 C   0  0  0  0  0  0  0  0  0  0  0  0
  184.6510  179.0710  145.5480 C   0  0  0  0  0  3  0  0  0  0  0  0
  184.7580  178.6890  146.8910 C   0  0  0  0  0  3  0  0  0  0  0  0
  186.7570  177.9580  145.0590 C   0  0  0  0  0  0  0  0  0  0  0  0
  186.8470  177.5600  146.4020 C   0  0  0  0  0  3  0  0  0  0  0  0
  185.9550  177.5560  148.6170 F   0  0  0  0  0  0  0  0  0  0  0  0
  185.6440  178.7020  144.6340 C   0  0  0  0  0  3  0  0  0  0  0  0
  1  2  2  0  0  0  0
  1  3  1  0  0  0  0
  2  4  1  0  0  0  0
  3  5  1  0  0  0  0
  4  5  2  0  0  0  0
  4 22  1  0  0  0  0
  6 10  1  6  0  0  0
  6  3  1  0  0  0  0
  6  8  1  0  0  0  0
  8  7  1  6  0  0  0
  9  8  1  0  0  0  0
  9  7  1  6  0  0  0
 10 11  1  0  0  0  0
 11 12  1  1  0  0  0
 11  9  1  0  0  0  0
 13 14  2  0  0  0  0
 14 12  1  0  0  0  0
 14 15  1  0  0  0  0
 16 17  1  0  0  0  0
 16 15  1  0  0  0  0
 19 20  2  0  0  0  0
 20 18  1  0  0  0  0
 20 17  1  0  0  0  0
 21 20  1  0  0  0  0
 22 23  2  0  0  0  0
 24 25  2  0  0  0  0
 25  2  1  0  0  0  0
 26 25  1  6  0  0  0
 26 29  1  0  0  0  0
 27 28  1  0  0  0  0
 28 30  1  6  0  0  0
 28 26  1  0  0  0  0
 28 29  1  0  0  0  0
 29 34  1  1  0  0  0
 30 27  1  0  0  0  0
 31 36  1  0  0  0  0
 32 33  2  0  0  0  0
 33 31  1  0  0  0  0
 34 35  1  0  0  0  0
 35 31  2  0  0  0  0
 37 34  2  0  0  0  0
 37 32  1  0  0  0  0
M  END
>  <MODEL>
2

>  <REMARK>
 VINA RESULT:      -7.3      2.974      4.714
  Name = 
  11 active torsions:
  status: ('A' for Active; 'I' for Inactive)
    1  A    between atoms: C_2  and  N_32
    2  A    between atoms: C_4  and  C_33
    3  A    between atoms: C_8  and  N_14
    4  A    between atoms: C_8  and  C_27
    5  A    between atoms: C_11  and  C_13
    6  A    between atoms: C_13  and  C_21
    7  A    between atoms: N_14  and  C_35
    8  A    between atoms: O_19  and  P_25
    9  A    between atoms: O_19  and  N_36
   10  A    between atoms: C_22  and  C_30
   11  A    between atoms: C_27  and  N_36
                            x       y       z     vdW  Elec       q    Type
                         _______ _______ _______ _____ _____    ______ ____

>  <TORSDO>
F 11

$$$$
=
 OpenBabel11042418323D

 37 42  0  0  1  0  0  0  0  0999 V2000
  190.9110  176.2190  143.5150 N   0  0  0  0  0  0  0  0  0  0  0  0
  189.7990  175.6090  143.9610 C   0  0  0  0  0  0  0  0  0  0  0  0
  191.7870  176.2290  144.5070 N   0  0  0  0  0  0  0  0  0  0  0  0
  189.9900  175.2350  145.2820 C   0  0  0  0  0  0  0  0  0  0  0  0
  191.2700  175.6490  145.6090 C   0  0  0  0  0  3  0  0  0  0  0  0
  193.0990  176.8590  144.4320 C   0  0  1  0  0  3  0  0  0  0  0  0
  194.9510  177.6990  145.8120 C   0  0  0  0  0  2  0  0  0  0  0  0
  193.8190  176.7740  145.7700 C   0  0  2  0  0  3  0  0  0  0  0  0
  195.1880  176.2760  145.5220 N   0  0  1  0  0  0  0  0  0  0  0  0
  193.9650  176.1180  143.4500 C   0  0  0  0  0  2  0  0  0  0  0  0
  195.3440  176.1460  144.0760 C   0  0  2  0  0  3  0  0  0  0  0  0
  196.0450  174.9050  143.7750 N   0  0  0  0  0  2  0  0  0  0  0  0
  196.9460  175.3010  141.2780 S   0  0  0  0  0  0  0  0  0  0  0  0
  196.2510  174.3910  142.4540 C   0  0  0  0  0  0  0  0  0  0  0  0
  195.7340  173.0380  142.1180 C   0  0  0  0  0  2  0  0  0  0  0  0
  194.7790  172.6050  143.1270 N   0  0  0  0  0  2  0  0  0  0  0  0
  195.2990  171.4980  143.7180 O   0  0  0  0  0  0  0  0  0  0  0  0
  196.4060  172.2260  145.9940 O   0  0  0  0  0  1  0  0  0  0  0  0
  193.9060  172.9380  145.6280 O   0  0  0  0  0  0  0  0  0  0  0  0
  195.1000  171.7600  145.3850 P   0  0  0  0  0  0  0  0  0  0  0  0
  194.6230  170.3100  146.1330 O   0  0  0  0  0  1  0  0  0  0  0  0
  189.0230  174.5670  146.1640 C   0  0  0  0  0  3  0  0  0  0  0  0
  189.1070  174.6470  147.4850 C   0  0  0  0  0  2  0  0  0  0  0  0
  188.5450  174.4170  142.3400 O   0  0  0  0  0  0  0  0  0  0  0  0
  188.5910  175.4010  143.1270 C   0  0  0  0  0  0  0  0  0  0  0  0
  187.3710  176.2910  143.3010 C   0  0  2  0  0  3  0  0  0  0  0  0
  188.5170  178.1500  142.0030 O   0  0  0  0  0  0  0  0  0  0  0  0
  187.3140  177.7020  142.6160 C   0  0  2  0  0  0  0  0  0  0  0  0
  187.8080  177.5000  144.0520 C   0  0  1  0  0  3  0  0  0  0  0  0
  187.7090  177.3580  141.2130 C   0  0  0  0  0  2  0  0  0  0  0  0
  185.8580  177.8820  147.2970 C   0  0  0  0  0  0  0  0  0  0  0  0
  184.6530  179.0290  145.5330 C   0  0  0  0  0  3  0  0  0  0  0  0
  184.7610  178.6420  146.8740 C   0  0  0  0  0  3  0  0  0  0  0  0
  186.7600  177.9200  145.0390 C   0  0  0  0  0  0  0  0  0  0  0  0
  186.8510  177.5170  146.3810 C   0  0  0  0  0  3  0  0  0  0  0  0
  185.9600  177.5040  148.5960 F   0  0  0  0  0  0  0  0  0  0  0  0
  185.6460  178.6640  144.6170 C   0  0  0  0  0  3  0  0  0  0  0  0
  1  2  2  0  0  0  0
  1  3  1  0  0  0  0
  2  4  1  0  0  0  0
  3  5  1  0  0  0  0
  4  5  2  0  0  0  0
  4 22  1  0  0  0  0
  6 10  1  6  0  0  0
  6  3  1  0  0  0  0
  6  8  1  0  0  0  0
  8  7  1  6  0  0  0
  9  8  1  0  0  0  0
  9  7  1  6  0  0  0
 10 11  1  0  0  0  0
 11 12  1  1  0  0  0
 11  9  1  0  0  0  0
 13 14  2  0  0  0  0
 14 12  1  0  0  0  0
 15 14  1  0  0  0  0
 15 16  1  0  0  0  0
 16 17  1  0  0  0  0
 17 20  1  0  0  0  0
 20 19  2  0  0  0  0
 20 18  1  0  0  0  0
 20 21  1  0  0  0  0
 22 23  2  0  0  0  0
 24 25  2  0  0  0  0
 25  2  1  0  0  0  0
 26 25  1  6  0  0  0
 26 29  1  0  0  0  0
 27 28  1  0  0  0  0
 28 30  1  6  0  0  0
 28 26  1  0  0  0  0
 28 29  1  0  0  0  0
 29 34  1  1  0  0  0
 30 27  1  0  0  0  0
 31 36  1  0  0  0  0
 32 33  2  0  0  0  0
 33 31  1  0  0  0  0
 34 35  1  0  0  0  0
 35 31  2  0  0  0  0
 37 34  2  0  0  0  0
 37 32  1  0  0  0  0
M  END
>  <MODEL>
3

>  <REMARK>
 VINA RESULT:      -7.1      3.015      4.682
  Name = 
  11 active torsions:
  status: ('A' for Active; 'I' for Inactive)
    1  A    between atoms: C_2  and  N_32
    2  A    between atoms: C_4  and  C_33
    3  A    between atoms: C_8  and  N_14
    4  A    between atoms: C_8  and  C_27
    5  A    between atoms: C_11  and  C_13
    6  A    between atoms: C_13  and  C_21
    7  A    between atoms: N_14  and  C_35
    8  A    between atoms: O_19  and  P_25
    9  A    between atoms: O_19  and  N_36
   10  A    between atoms: C_22  and  C_30
   11  A    between atoms: C_27  and  N_36
                            x       y       z     vdW  Elec       q    Type
                         _______ _______ _______ _____ _____    ______ ____

>  <TORSDO>
F 11

$$$$
=
 OpenBabel11042418323D

 37 42  0  0  1  0  0  0  0  0999 V2000
  192.5130  176.7450  145.0030 N   0  0  0  0  0  0  0  0  0  0  0  0
  191.2290  176.7570  145.4030 C   0  0  0  0  0  0  0  0  0  0  0  0
  193.1870  175.9760  145.8440 N   0  0  0  0  0  0  0  0  0  0  0  0
  191.1050  175.9750  146.5410 C   0  0  0  0  0  0  0  0  0  0  0  0
  192.3760  175.4910  146.8050 C   0  0  0  0  0  3  0  0  0  0  0  0
  194.6270  175.7600  145.7790 C   0  0  1  0  0  3  0  0  0  0  0  0
  196.3370  174.0090  145.5580 C   0  0  0  0  0  2  0  0  0  0  0  0
  194.9420  174.3560  145.2870 C   0  0  2  0  0  3  0  0  0  0  0  0
  195.9520  174.4620  144.2120 N   0  0  1  0  0  0  0  0  0  0  0  0
  195.2360  176.6970  144.7700 C   0  0  0  0  0  2  0  0  0  0  0  0
  196.3190  175.8720  144.1050 C   0  0  2  0  0  3  0  0  0  0  0  0
  196.4200  176.2390  142.6980 N   0  0  0  0  0  2  0  0  0  0  0  0
  196.4910  174.5470  140.6160 S   0  0  0  0  0  0  0  0  0  0  0  0
  195.7230  175.5770  141.6370 C   0  0  0  0  0  0  0  0  0  0  0  0
  194.2930  175.9090  141.3960 C   0  0  0  0  0  2  0  0  0  0  0  0
  193.5020  174.6890  141.3350 N   0  0  0  0  0  2  0  0  0  0  0  0
  192.5800  174.7630  142.3290 O   0  0  0  0  0  0  0  0  0  0  0  0
  193.5440  172.3310  142.6260 O   0  0  0  0  0  1  0  0  0  0  0  0
  191.7350  173.0940  144.3690 O   0  0  0  0  0  1  0  0  0  0  0  0
  192.2760  173.1490  142.7640 P   0  0  0  0  0  0  0  0  0  0  0  0
  191.0820  172.5020  141.7420 O   0  0  0  0  0  0  0  0  0  0  0  0
  189.8850  175.7350  147.3230 C   0  0  0  0  0  3  0  0  0  0  0  0
  189.2530  174.5690  147.2960 C   0  0  0  0  0  2  0  0  0  0  0  0
  190.4770  178.4690  143.9470 O   0  0  0  0  0  0  0  0  0  0  0  0
  190.1630  177.5090  144.7010 C   0  0  0  0  0  0  0  0  0  0  0  0
  188.7140  177.0570  144.7890 C   0  0  2  0  0  3  0  0  0  0  0  0
  188.7850  176.2870  142.3690 O   0  0  0  0  0  0  0  0  0  0  0  0
  188.0360  176.3240  143.5770 C   0  0  2  0  0  0  0  0  0  0  0  0
  187.9430  177.8390  143.7850 C   0  0  1  0  0  3  0  0  0  0  0  0
  189.0580  175.2750  143.2660 C   0  0  0  0  0  2  0  0  0  0  0  0
  184.7250  177.7820  145.8150 C   0  0  0  0  0  0  0  0  0  0  0  0
  184.6320  179.6520  144.2730 C   0  0  0  0  0  3  0  0  0  0  0  0
  184.0460  178.8880  145.2900 C   0  0  0  0  0  3  0  0  0  0  0  0
  186.5970  178.2200  144.3260 C   0  0  0  0  0  0  0  0  0  0  0  0
  185.9940  177.4460  145.3310 C   0  0  0  0  0  3  0  0  0  0  0  0
  184.1550  177.0400  146.7970 F   0  0  0  0  0  0  0  0  0  0  0  0
  185.9010  179.3150  143.7890 C   0  0  0  0  0  3  0  0  0  0  0  0
  1  2  2  0  0  0  0
  1  3  1  0  0  0  0
  2  4  1  0  0  0  0
  3  5  1  0  0  0  0
  4  5  2  0  0  0  0
  4 22  1  0  0  0  0
  6 10  1  6  0  0  0
  6  3  1  0  0  0  0
  8  7  1  1  0  0  0
  8  6  1  0  0  0  0
  9  8  1  0  0  0  0
  9  7  1  1  0  0  0
 11 12  1  6  0  0  0
 11  9  1  0  0  0  0
 11 10  1  0  0  0  0
 13 14  2  0  0  0  0
 14 12  1  0  0  0  0
 15 14  1  0  0  0  0
 16 15  1  0  0  0  0
 16 17  1  0  0  0  0
 17 20  1  0  0  0  0
 18 20  1  0  0  0  0
 20 19  1  0  0  0  0
 21 20  2  0  0  0  0
 23 22  2  0  0  0  0
 24 25  2  0  0  0  0
 25  2  1  0  0  0  0
 26 25  1  6  0  0  0
 27 30  1  0  0  0  0
 27 28  1  0  0  0  0
 28 30  1  1  0  0  0
 28 29  1  0  0  0  0
 28 26  1  0  0  0  0
 29 34  1  1  0  0  0
 29 26  1  0  0  0  0
 31 36  1  0  0  0  0
 32 33  1  0  0  0  0
 33 31  2  0  0  0  0
 34 35  2  0  0  0  0
 35 31  1  0  0  0  0
 37 32  2  0  0  0  0
 37 34  1  0  0  0  0
M  END
>  <MODEL>
4

>  <REMARK>
 VINA RESULT:      -7.0      3.052      4.780
  Name = 
  11 active torsions:
  status: ('A' for Active; 'I' for Inactive)
    1  A    between atoms: C_2  and  N_32
    2  A    between atoms: C_4  and  C_33
    3  A    between atoms: C_8  and  N_14
    4  A    between atoms: C_8  and  C_27
    5  A    between atoms: C_11  and  C_13
    6  A    between atoms: C_13  and  C_21
    7  A    between atoms: N_14  and  C_35
    8  A    between atoms: O_19  and  P_25
    9  A    between atoms: O_19  and  N_36
   10  A    between atoms: C_22  and  C_30
   11  A    between atoms: C_27  and  N_36
                            x       y       z     vdW  Elec       q    Type
                         _______ _______ _______ _____ _____    ______ ____

>  <TORSDO>
F 11

$$$$
=
 OpenBabel11042418323D

 37 42  0  0  1  0  0  0  0  0999 V2000
  189.8230  174.8550  143.1660 N   0  0  0  0  0  0  0  0  0  0  0  0
  189.5900  176.1420  143.4760 C   0  0  0  0  0  0  0  0  0  0  0  0
  189.1470  174.5810  142.0600 N   0  0  0  0  0  0  0  0  0  0  0  0
  188.7290  176.6830  142.5340 C   0  0  0  0  0  0  0  0  0  0  0  0
  188.4570  175.6600  141.6410 C   0  0  0  0  0  3  0  0  0  0  0  0
  189.0970  173.2640  141.4390 C   0  0  1  0  0  3  0  0  0  0  0  0
  189.8690  171.9890  139.4840 C   0  0  0  0  0  2  0  0  0  0  0  0
  190.1440  173.1430  140.3410 C   0  0  2  0  0  3  0  0  0  0  0  0
  190.8800  171.8780  140.5480 N   0  0  1  0  0  0  0  0  0  0  0  0
  189.4410  172.2080  142.4540 C   0  0  0  0  0  2  0  0  0  0  0  0
  190.2530  171.1940  141.6750 C   0  0  2  0  0  3  0  0  0  0  0  0
  191.2860  170.6280  142.5330 N   0  0  0  0  0  2  0  0  0  0  0  0
  193.8430  171.4430  142.4970 S   0  0  0  0  0  0  0  0  0  0  0  0
  192.3360  171.3880  143.1440 C   0  0  0  0  0  0  0  0  0  0  0  0
  192.0770  172.0600  144.4450 C   0  0  0  0  0  2  0  0  0  0  0  0
  193.2900  172.7070  144.9210 N   0  0  0  0  0  2  0  0  0  0  0  0
  192.9650  173.9910  145.2220 O   0  0  0  0  0  0  0  0  0  0  0  0
  194.6490  175.6090  146.4380 O   0  0  0  0  0  1  0  0  0  0  0  0
  195.7050  173.7440  144.9220 O   0  0  0  0  0  1  0  0  0  0  0  0
  194.4340  174.8410  145.1500 P   0  0  0  0  0  0  0  0  0  0  0  0
  194.3920  175.9350  143.8500 O   0  0  0  0  0  0  0  0  0  0  0  0
  188.1920  178.0500  142.5070 C   0  0  0  0  0  3  0  0  0  0  0  0
  186.8960  178.2960  142.6490 C   0  0  0  0  0  2  0  0  0  0  0  0
  191.3790  177.2150  144.6010 O   0  0  0  0  0  0  0  0  0  0  0  0
  190.1850  176.8170  144.6540 C   0  0  0  0  0  0  0  0  0  0  0  0
  189.3320  177.1380  145.8710 C   0  0  2  0  0  3  0  0  0  0  0  0
  189.4130  174.7030  146.5930 O   0  0  0  0  0  0  0  0  0  0  0  0
  189.0170  176.0260  146.9350 C   0  0  2  0  0  0  0  0  0  0  0  0
  188.0830  176.3350  145.7610 C   0  0  1  0  0  3  0  0  0  0  0  0
  190.3870  175.4760  147.1900 C   0  0  0  0  0  2  0  0  0  0  0  0
  185.9720  179.0060  147.4610 C   0  0  0  0  0  0  0  0  0  0  0  0
  184.4880  177.4210  146.3800 C   0  0  0  0  0  3  0  0  0  0  0  0
  184.6770  178.5790  147.1440 C   0  0  0  0  0  3  0  0  0  0  0  0
  186.8980  177.1300  146.2200 C   0  0  0  0  0  0  0  0  0  0  0  0
  187.0790  178.2800  147.0050 C   0  0  0  0  0  3  0  0  0  0  0  0
  186.1540  180.1260  148.2040 F   0  0  0  0  0  0  0  0  0  0  0  0
  185.5950  176.6960  145.9240 C   0  0  0  0  0  3  0  0  0  0  0  0
  1  2  2  0  0  0  0
  2 25  1  0  0  0  0
  3  1  1  0  0  0  0
  4  2  1  0  0  0  0
  5  3  1  0  0  0  0
  5  4  2  0  0  0  0
  6  3  1  1  0  0  0
  6 10  1  0  0  0  0
  8  7  1  6  0  0  0
  8  9  1  0  0  0  0
  8  6  1  0  0  0  0
  9  7  1  6  0  0  0
  9 11  1  0  0  0  0
 11 10  1  0  0  0  0
 11 12  1  1  0  0  0
 12 14  1  0  0  0  0
 13 14  2  0  0  0  0
 14 15  1  0  0  0  0
 15 16  1  0  0  0  0
 16 17  1  0  0  0  0
 19 20  1  0  0  0  0
 20 17  1  0  0  0  0
 20 18  1  0  0  0  0
 21 20  2  0  0  0  0
 22  4  1  0  0  0  0
 22 23  2  0  0  0  0
 24 25  2  0  0  0  0
 26 25  1  6  0  0  0
 26 28  1  0  0  0  0
 27 28  1  0  0  0  0
 27 30  1  0  0  0  0
 28 30  1  1  0  0  0
 29 26  1  0  0  0  0
 29 34  1  1  0  0  0
 29 28  1  0  0  0  0
 31 36  1  0  0  0  0
 32 33  2  0  0  0  0
 33 31  1  0  0  0  0
 34 35  1  0  0  0  0
 35 31  2  0  0  0  0
 37 34  2  0  0  0  0
 37 32  1  0  0  0  0
M  END
>  <MODEL>
5

>  <REMARK>
 VINA RESULT:      -7.0      1.336      1.594
  Name = 
  11 active torsions:
  status: ('A' for Active; 'I' for Inactive)
    1  A    between atoms: C_2  and  N_32
    2  A    between atoms: C_4  and  C_33
    3  A    between atoms: C_8  and  N_14
    4  A    between atoms: C_8  and  C_27
    5  A    between atoms: C_11  and  C_13
    6  A    between atoms: C_13  and  C_21
    7  A    between atoms: N_14  and  C_35
    8  A    between atoms: O_19  and  P_25
    9  A    between atoms: O_19  and  N_36
   10  A    between atoms: C_22  and  C_30
   11  A    between atoms: C_27  and  N_36
                            x       y       z     vdW  Elec       q    Type
                         _______ _______ _______ _____ _____    ______ ____

>  <TORSDO>
F 11

$$$$
=
 OpenBabel11042418323D

 37 42  0  0  1  0  0  0  0  0999 V2000
  190.8650  176.0760  143.1070 N   0  0  0  0  0  0  0  0  0  0  0  0
  189.7770  175.5390  143.6870 C   0  0  0  0  0  0  0  0  0  0  0  0
  191.8520  176.0280  143.9880 N   0  0  0  0  0  0  0  0  0  0  0  0
  190.1000  175.1530  144.9790 C   0  0  0  0  0  0  0  0  0  0  0  0
  191.4350  175.4820  145.1470 C   0  0  0  0  0  3  0  0  0  0  0  0
  193.1840  176.5720  143.7520 C   0  0  1  0  0  3  0  0  0  0  0  0
  195.4800  176.5820  144.6300 C   0  0  0  0  0  2  0  0  0  0  0  0
  194.2260  175.8300  144.5760 C   0  0  2  0  0  3  0  0  0  0  0  0
  195.3440  175.4660  143.6800 N   0  0  1  0  0  0  0  0  0  0  0  0
  193.5720  176.3640  142.3130 C   0  0  0  0  0  2  0  0  0  0  0  0
  195.0510  176.0420  142.3710 C   0  0  2  0  0  3  0  0  0  0  0  0
  195.3820  175.0740  141.3320 N   0  0  0  0  0  2  0  0  0  0  0  0
  193.8760  174.4230  139.2090 S   0  0  0  0  0  0  0  0  0  0  0  0
  194.4400  174.1790  140.7300 C   0  0  0  0  0  0  0  0  0  0  0  0
  193.8910  173.0590  141.5400 C   0  0  0  0  0  2  0  0  0  0  0  0
  192.4490  172.9750  141.3600 N   0  0  0  0  0  2  0  0  0  0  0  0
  191.8980  172.8890  142.5990 O   0  0  0  0  0  0  0  0  0  0  0  0
  190.0660  171.6980  141.1300 O   0  0  0  0  0  0  0  0  0  0  0  0
  191.5260  170.1480  142.6650 O   0  0  0  0  0  1  0  0  0  0  0  0
  190.7500  171.6430  142.4800 P   0  0  0  0  0  0  0  0  0  0  0  0
  189.5840  171.8290  143.7030 O   0  0  0  0  0  1  0  0  0  0  0  0
  189.2040  174.5480  145.9730 C   0  0  0  0  0  3  0  0  0  0  0  0
  189.2860  174.8470  147.2630 C   0  0  0  0  0  2  0  0  0  0  0  0
  188.2850  174.4670  142.1900 O   0  0  0  0  0  0  0  0  0  0  0  0
  188.4680  175.4110  143.0040 C   0  0  0  0  0  0  0  0  0  0  0  0
  187.3150  176.3340  143.3680 C   0  0  2  0  0  3  0  0  0  0  0  0
  188.4130  178.2390  142.0940 O   0  0  0  0  0  0  0  0  0  0  0  0
  187.2580  177.7950  142.7950 C   0  0  2  0  0  0  0  0  0  0  0  0
  187.8830  177.4630  144.1540 C   0  0  1  0  0  3  0  0  0  0  0  0
  187.4930  177.5440  141.3380 C   0  0  0  0  0  2  0  0  0  0  0  0
  184.7970  178.6550  146.0340 C   0  0  0  0  0  0  0  0  0  0  0  0
  186.5700  178.2500  147.6390 C   0  0  0  0  0  3  0  0  0  0  0  0
  185.2560  178.6430  147.3570 C   0  0  0  0  0  3  0  0  0  0  0  0
  186.9610  177.8490  145.2720 C   0  0  0  0  0  0  0  0  0  0  0  0
  185.6490  178.2650  144.9950 C   0  0  0  0  0  3  0  0  0  0  0  0
  183.5250  179.0410  145.7620 F   0  0  0  0  0  0  0  0  0  0  0  0
  187.4210  177.8590  146.5990 C   0  0  0  0  0  3  0  0  0  0  0  0
  1  2  2  0  0  0  0
  1  3  1  0  0  0  0
  2  4  1  0  0  0  0
  3  5  1  0  0  0  0
  4  5  2  0  0  0  0
  4 22  1  0  0  0  0
  6 10  1  6  0  0  0
  6  3  1  0  0  0  0
  6  8  1  0  0  0  0
  8  7  1  1  0  0  0
  9  8  1  0  0  0  0
  9  7  1  1  0  0  0
 10 11  1  0  0  0  0
 11 12  1  6  0  0  0
 11  9  1  0  0  0  0
 13 14  2  0  0  0  0
 14 12  1  0  0  0  0
 14 15  1  0  0  0  0
 16 15  1  0  0  0  0
 16 17  1  0  0  0  0
 18 20  2  0  0  0  0
 20 17  1  0  0  0  0
 20 19  1  0  0  0  0
 20 21  1  0  0  0  0
 22 23  2  0  0  0  0
 24 25  2  0  0  0  0
 25  2  1  0  0  0  0
 26 25  1  6  0  0  0
 26 29  1  0  0  0  0
 27 28  1  0  0  0  0
 28 30  1  6  0  0  0
 28 26  1  0  0  0  0
 28 29  1  0  0  0  0
 29 34  1  1  0  0  0
 30 27  1  0  0  0  0
 31 33  1  0  0  0  0
 33 32  2  0  0  0  0
 34 37  2  0  0  0  0
 35 34  1  0  0  0  0
 35 31  2  0  0  0  0
 36 31  1  0  0  0  0
 37 32  1  0  0  0  0
M  END
>  <MODEL>
6

>  <REMARK>
 VINA RESULT:      -6.9      3.244      4.810
  Name = 
  11 active torsions:
  status: ('A' for Active; 'I' for Inactive)
    1  A    between atoms: C_2  and  N_32
    2  A    between atoms: C_4  and  C_33
    3  A    between atoms: C_8  and  N_14
    4  A    between atoms: C_8  and  C_27
    5  A    between atoms: C_11  and  C_13
    6  A    between atoms: C_13  and  C_21
    7  A    between atoms: N_14  and  C_35
    8  A    between atoms: O_19  and  P_25
    9  A    between atoms: O_19  and  N_36
   10  A    between atoms: C_22  and  C_30
   11  A    between atoms: C_27  and  N_36
                            x       y       z     vdW  Elec       q    Type
                         _______ _______ _______ _____ _____    ______ ____

>  <TORSDO>
F 11

$$$$
=
 OpenBabel11042418323D

 37 42  0  0  1  0  0  0  0  0999 V2000
  190.1840  173.6400  144.1890 N   0  0  0  0  0  0  0  0  0  0  0  0
  190.3870  174.3880  145.2880 C   0  0  0  0  0  0  0  0  0  0  0  0
  191.3580  173.1540  143.8140 N   0  0  0  0  0  0  0  0  0  0  0  0
  191.7380  174.3720  145.6000 C   0  0  0  0  0  0  0  0  0  0  0  0
  192.3370  173.5790  144.6360 C   0  0  0  0  0  3  0  0  0  0  0  0
  191.5610  172.3400  142.6220 C   0  0  1  0  0  3  0  0  0  0  0  0
  191.3500  170.0510  141.7540 C   0  0  0  0  0  2  0  0  0  0  0  0
  190.8630  170.9950  142.7590 C   0  0  2  0  0  3  0  0  0  0  0  0
  190.0790  170.7590  141.5270 N   0  0  1  0  0  0  0  0  0  0  0  0
  190.9310  173.0130  141.4330 C   0  0  0  0  0  2  0  0  0  0  0  0
  190.3560  171.8700  140.6220 C   0  0  2  0  0  3  0  0  0  0  0  0
  189.1160  172.2950  139.9860 N   0  0  0  0  0  2  0  0  0  0  0  0
  189.9460  173.0230  137.5390 S   0  0  0  0  0  0  0  0  0  0  0  0
  189.0410  173.2200  138.8950 C   0  0  0  0  0  0  0  0  0  0  0  0
  188.1970  174.4360  139.0370 C   0  0  0  0  0  2  0  0  0  0  0  0
  187.8300  174.6270  140.4320 N   0  0  0  0  0  2  0  0  0  0  0  0
  188.5720  175.6640  140.9000 O   0  0  0  0  0  0  0  0  0  0  0  0
  188.1450  178.0510  141.9260 O   0  0  0  0  0  1  0  0  0  0  0  0
  186.6180  177.3540  139.9070 O   0  0  0  0  0  0  0  0  0  0  0  0
  187.4390  176.8630  141.3060 P   0  0  0  0  0  0  0  0  0  0  0  0
  186.3240  176.2330  142.4230 O   0  0  0  0  0  1  0  0  0  0  0  0
  192.4010  175.0780  146.7050 C   0  0  0  0  0  3  0  0  0  0  0  0
  193.4750  175.8310  146.5110 C   0  0  0  0  0  2  0  0  0  0  0  0
  189.1180  174.8660  147.2320 O   0  0  0  0  0  0  0  0  0  0  0  0
  189.3000  175.0940  146.0060 C   0  0  0  0  0  0  0  0  0  0  0  0
  188.4870  176.1720  145.3060 C   0  0  2  0  0  3  0  0  0  0  0  0
  190.2210  177.9180  145.9410 O   0  0  0  0  0  0  0  0  0  0  0  0
  189.0400  177.6380  145.1990 C   0  0  2  0  0  0  0  0  0  0  0  0
  188.1160  177.1840  146.3330 C   0  0  1  0  0  3  0  0  0  0  0  0
  190.4240  177.3880  144.6840 C   0  0  0  0  0  2  0  0  0  0  0  0
  185.1480  179.0780  144.8890 C   0  0  0  0  0  0  0  0  0  0  0  0
  184.3830  177.7720  146.7840 C   0  0  0  0  0  3  0  0  0  0  0  0
  184.1160  178.6650  145.7380 C   0  0  0  0  0  3  0  0  0  0  0  0
  186.7180  177.6790  146.1110 C   0  0  0  0  0  0  0  0  0  0  0  0
  186.4470  178.5910  145.0780 C   0  0  0  0  0  3  0  0  0  0  0  0
  184.8890  179.9460  143.8790 F   0  0  0  0  0  0  0  0  0  0  0  0
  185.6810  177.2850  146.9730 C   0  0  0  0  0  3  0  0  0  0  0  0
  1  2  2  0  0  0  0
  2  4  1  0  0  0  0
  2 25  1  0  0  0  0
  3  1  1  0  0  0  0
  3  5  1  0  0  0  0
  4 22  1  0  0  0  0
  5  4  2  0  0  0  0
  6 10  1  6  0  0  0
  6  8  1  0  0  0  0
  6  3  1  0  0  0  0
  8  7  1  6  0  0  0
  9  7  1  6  0  0  0
  9  8  1  0  0  0  0
 11 12  1  1  0  0  0
 11 10  1  0  0  0  0
 11  9  1  0  0  0  0
 13 14  2  0  0  0  0
 14 15  1  0  0  0  0
 14 12  1  0  0  0  0
 15 16  1  0  0  0  0
 16 17  1  0  0  0  0
 17 20  1  0  0  0  0
 19 20  2  0  0  0  0
 20 18  1  0  0  0  0
 20 21  1  0  0  0  0
 23 22  2  0  0  0  0
 25 24  2  0  0  0  0
 26 25  1  1  0  0  0
 26 29  1  0  0  0  0
 28 30  1  6  0  0  0
 28 26  1  0  0  0  0
 28 27  1  0  0  0  0
 28 29  1  0  0  0  0
 29 34  1  6  0  0  0
 30 27  1  0  0  0  0
 31 35  2  0  0  0  0
 31 33  1  0  0  0  0
 32 37  1  0  0  0  0
 33 32  2  0  0  0  0
 34 37  2  0  0  0  0
 35 34  1  0  0  0  0
 36 31  1  0  0  0  0
M  END
>  <MODEL>
7

>  <REMARK>
 VINA RESULT:      -6.7      2.977      4.869
  Name = 
  11 active torsions:
  status: ('A' for Active; 'I' for Inactive)
    1  A    between atoms: C_2  and  N_32
    2  A    between atoms: C_4  and  C_33
    3  A    between atoms: C_8  and  N_14
    4  A    between atoms: C_8  and  C_27
    5  A    between atoms: C_11  and  C_13
    6  A    between atoms: C_13  and  C_21
    7  A    between atoms: N_14  and  C_35
    8  A    between atoms: O_19  and  P_25
    9  A    between atoms: O_19  and  N_36
   10  A    between atoms: C_22  and  C_30
   11  A    between atoms: C_27  and  N_36
                            x       y       z     vdW  Elec       q    Type
                         _______ _______ _______ _____ _____    ______ ____

>  <TORSDO>
F 11

$$$$
=
 OpenBabel11042418323D

 37 42  0  0  1  0  0  0  0  0999 V2000
  189.1560  175.9160  144.3350 N   0  0  0  0  0  0  0  0  0  0  0  0
  189.5880  174.8090  144.9640 C   0  0  0  0  0  0  0  0  0  0  0  0
  188.9730  175.6060  143.0610 N   0  0  0  0  0  0  0  0  0  0  0  0
  189.6860  173.7770  144.0430 C   0  0  0  0  0  0  0  0  0  0  0  0
  189.2910  174.3170  142.8310 C   0  0  0  0  0  3  0  0  0  0  0  0
  188.5650  176.5610  142.0390 C   0  0  1  0  0  3  0  0  0  0  0  0
  187.1360  176.8170  140.0550 C   0  0  0  0  0  2  0  0  0  0  0  0
  187.3340  176.0650  141.2940 C   0  0  2  0  0  3  0  0  0  0  0  0
  186.3500  177.1670  141.2490 N   0  0  1  0  0  0  0  0  0  0  0  0
  188.1590  177.8580  142.6870 C   0  0  0  0  0  2  0  0  0  0  0  0
  186.9810  178.3330  141.8600 C   0  0  2  0  0  3  0  0  0  0  0  0
  186.0190  179.0090  142.7210 N   0  0  0  0  0  2  0  0  0  0  0  0
  183.5420  178.2890  141.9780 S   0  0  0  0  0  0  0  0  0  0  0  0
  184.7410  178.4720  143.0830 C   0  0  0  0  0  0  0  0  0  0  0  0
  184.4670  178.1670  144.5130 C   0  0  0  0  0  2  0  0  0  0  0  0
  185.0610  179.1880  145.3630 N   0  0  0  0  0  2  0  0  0  0  0  0
  186.2540  178.7020  145.7940 O   0  0  0  0  0  0  0  0  0  0  0  0
  184.5690  178.6140  147.8150 O   0  0  0  0  0  1  0  0  0  0  0  0
  186.2780  176.6300  147.6280 O   0  0  0  0  0  0  0  0  0  0  0  0
  185.9940  178.2880  147.4210 P   0  0  0  0  0  0  0  0  0  0  0  0
  187.0610  179.1700  148.4070 O   0  0  0  0  0  1  0  0  0  0  0  0
  190.1440  172.4040  144.2960 C   0  0  0  0  0  3  0  0  0  0  0  0
  190.2940  171.5250  143.3140 C   0  0  0  0  0  2  0  0  0  0  0  0
  188.9540  174.6480  147.2430 O   0  0  0  0  0  0  0  0  0  0  0  0
  189.8960  174.7620  146.4130 C   0  0  0  0  0  0  0  0  0  0  0  0
  191.3390  174.7290  146.8940 C   0  0  2  0  0  3  0  0  0  0  0  0
  191.4700  177.2620  146.7330 O   0  0  0  0  0  0  0  0  0  0  0  0
  192.1200  176.0670  147.1490 C   0  0  2  0  0  0  0  0  0  0  0  0
  192.1780  175.3170  145.8140 C   0  0  1  0  0  3  0  0  0  0  0  0
  191.1390  176.8170  147.9960 C   0  0  0  0  0  2  0  0  0  0  0  0
  194.6740  172.4760  145.3890 C   0  0  0  0  0  0  0  0  0  0  0  0
  195.9030  174.5400  145.7230 C   0  0  0  0  0  3  0  0  0  0  0  0
  195.8910  173.1570  145.5040 C   0  0  0  0  0  3  0  0  0  0  0  0
  193.4710  174.5700  145.6800 C   0  0  0  0  0  0  0  0  0  0  0  0
  193.4680  173.1790  145.4830 C   0  0  0  0  0  3  0  0  0  0  0  0
  194.6640  171.1350  145.1810 F   0  0  0  0  0  0  0  0  0  0  0  0
  194.6970  175.2430  145.8170 C   0  0  0  0  0  3  0  0  0  0  0  0
  1  2  2  0  0  0  0
  2 25  1  0  0  0  0
  3  1  1  0  0  0  0
  4 22  1  0  0  0  0
  4  2  1  0  0  0  0
  5  3  1  0  0  0  0
  5  4  2  0  0  0  0
  6 10  1  1  0  0  0
  6  3  1  0  0  0  0
  8  7  1  6  0  0  0
  8  6  1  0  0  0  0
  9  7  1  6  0  0  0
  9  8  1  0  0  0  0
  9 11  1  0  0  0  0
 11 10  1  0  0  0  0
 11 12  1  1  0  0  0
 12 14  1  0  0  0  0
 13 14  2  0  0  0  0
 14 15  1  0  0  0  0
 15 16  1  0  0  0  0
 16 17  1  0  0  0  0
 17 20  1  0  0  0  0
 20 19  2  0  0  0  0
 20 18  1  0  0  0  0
 20 21  1  0  0  0  0
 23 22  2  0  0  0  0
 25 24  2  0  0  0  0
 26 25  1  6  0  0  0
 26 28  1  0  0  0  0
 27 28  1  0  0  0  0
 27 30  1  0  0  0  0
 28 30  1  1  0  0  0
 29 34  1  1  0  0  0
 29 26  1  0  0  0  0
 29 28  1  0  0  0  0
 31 35  2  0  0  0  0
 31 33  1  0  0  0  0
 32 37  1  0  0  0  0
 33 32  2  0  0  0  0
 34 37  2  0  0  0  0
 35 34  1  0  0  0  0
 36 31  1  0  0  0  0
M  END
>  <MODEL>
8

>  <REMARK>
 VINA RESULT:      -6.6      4.419      7.910
  Name = 
  11 active torsions:
  status: ('A' for Active; 'I' for Inactive)
    1  A    between atoms: C_2  and  N_32
    2  A    between atoms: C_4  and  C_33
    3  A    between atoms: C_8  and  N_14
    4  A    between atoms: C_8  and  C_27
    5  A    between atoms: C_11  and  C_13
    6  A    between atoms: C_13  and  C_21
    7  A    between atoms: N_14  and  C_35
    8  A    between atoms: O_19  and  P_25
    9  A    between atoms: O_19  and  N_36
   10  A    between atoms: C_22  and  C_30
   11  A    between atoms: C_27  and  N_36
                            x       y       z     vdW  Elec       q    Type
                         _______ _______ _______ _____ _____    ______ ____

>  <TORSDO>
F 11

$$$$
=
 OpenBabel11042418323D

 37 42  0  0  1  0  0  0  0  0999 V2000
  193.1780  176.7030  144.5010 N   0  0  0  0  0  0  0  0  0  0  0  0
  192.0400  176.8430  145.2040 C   0  0  0  0  0  0  0  0  0  0  0  0
  194.0680  176.1240  145.2920 N   0  0  0  0  0  0  0  0  0  0  0  0
  192.2360  176.3420  146.4820 C   0  0  0  0  0  0  0  0  0  0  0  0
  193.5460  175.8920  146.5130 C   0  0  0  0  0  3  0  0  0  0  0  0
  195.4490  175.8570  144.9100 C   0  0  1  0  0  3  0  0  0  0  0  0
  197.2260  174.1640  145.0440 C   0  0  0  0  0  2  0  0  0  0  0  0
  195.7800  174.3810  145.0720 C   0  0  2  0  0  3  0  0  0  0  0  0
  196.4330  173.9180  143.8280 N   0  0  1  0  0  0  0  0  0  0  0  0
  195.6410  176.1650  143.4490 C   0  0  0  0  0  2  0  0  0  0  0  0
  196.5870  175.0850  142.9640 C   0  0  2  0  0  3  0  0  0  0  0  0
  196.2520  174.7190  141.5940 N   0  0  0  0  0  2  0  0  0  0  0  0
  195.8820  172.2110  140.7150 S   0  0  0  0  0  0  0  0  0  0  0  0
  195.3440  173.6710  141.2350 C   0  0  0  0  0  0  0  0  0  0  0  0
  193.8830  173.9490  141.2420 C   0  0  0  0  0  2  0  0  0  0  0  0
  193.2970  173.5020  142.4960 N   0  0  0  0  0  2  0  0  0  0  0  0
  192.7400  172.2850  142.2630 O   0  0  0  0  0  0  0  0  0  0  0  0
  192.4270  170.6020  144.2630 O   0  0  0  0  0  1  0  0  0  0  0  0
  192.1340  173.1500  144.8210 O   0  0  0  0  0  1  0  0  0  0  0  0
  191.9060  171.9050  143.6940 P   0  0  0  0  0  0  0  0  0  0  0  0
  190.2480  171.7440  143.3580 O   0  0  0  0  0  0  0  0  0  0  0  0
  191.2650  176.3210  147.5840 C   0  0  0  0  0  3  0  0  0  0  0  0
  191.3060  177.2080  148.5700 C   0  0  0  0  0  2  0  0  0  0  0  0
  190.8950  178.4760  143.9240 O   0  0  0  0  0  0  0  0  0  0  0  0
  190.8070  177.4490  144.6480 C   0  0  0  0  0  0  0  0  0  0  0  0
  189.4600  176.7720  144.8450 C   0  0  2  0  0  3  0  0  0  0  0  0
  189.3140  176.2920  142.3540 O   0  0  0  0  0  0  0  0  0  0  0  0
  188.7340  176.0820  143.6360 C   0  0  2  0  0  0  0  0  0  0  0  0
  188.4610  177.5330  144.0450 C   0  0  1  0  0  3  0  0  0  0  0  0
  189.8410  175.2420  143.0770 C   0  0  0  0  0  2  0  0  0  0  0  0
  185.0350  178.7650  145.1530 C   0  0  0  0  0  0  0  0  0  0  0  0
  185.6830  176.9070  146.5700 C   0  0  0  0  0  3  0  0  0  0  0  0
  184.7560  177.8940  146.2120 C   0  0  0  0  0  3  0  0  0  0  0  0
  187.1600  177.6410  144.7830 C   0  0  0  0  0  0  0  0  0  0  0  0
  186.2360  178.6430  144.4440 C   0  0  0  0  0  3  0  0  0  0  0  0
  184.1390  179.7240  144.8090 F   0  0  0  0  0  0  0  0  0  0  0  0
  186.8830  176.7850  145.8610 C   0  0  0  0  0  3  0  0  0  0  0  0
  1  2  2  0  0  0  0
  1  3  1  0  0  0  0
  2  4  1  0  0  0  0
  3  5  1  0  0  0  0
  4  5  2  0  0  0  0
  4 22  1  0  0  0  0
  6 10  1  6  0  0  0
  6  8  1  0  0  0  0
  6  3  1  0  0  0  0
  8  7  1  1  0  0  0
  9  7  1  1  0  0  0
  9  8  1  0  0  0  0
 11 12  1  6  0  0  0
 11 10  1  0  0  0  0
 11  9  1  0  0  0  0
 13 14  2  0  0  0  0
 14 15  1  0  0  0  0
 14 12  1  0  0  0  0
 15 16  1  0  0  0  0
 17 16  1  0  0  0  0
 17 20  1  0  0  0  0
 20 18  1  0  0  0  0
 20 19  1  0  0  0  0
 21 20  2  0  0  0  0
 22 23  2  0  0  0  0
 24 25  2  0  0  0  0
 25  2  1  0  0  0  0
 26 25  1  6  0  0  0
 27 30  1  0  0  0  0
 27 28  1  0  0  0  0
 28 30  1  1  0  0  0
 28 29  1  0  0  0  0
 28 26  1  0  0  0  0
 29 34  1  1  0  0  0
 29 26  1  0  0  0  0
 31 33  1  0  0  0  0
 33 32  2  0  0  0  0
 34 37  2  0  0  0  0
 35 34  1  0  0  0  0
 35 31  2  0  0  0  0
 36 31  1  0  0  0  0
 37 32  1  0  0  0  0
M  END
>  <MODEL>
9

>  <REMARK>
 VINA RESULT:      -6.6      2.856      4.768
  Name = 
  11 active torsions:
  status: ('A' for Active; 'I' for Inactive)
    1  A    between atoms: C_2  and  N_32
    2  A    between atoms: C_4  and  C_33
    3  A    between atoms: C_8  and  N_14
    4  A    between atoms: C_8  and  C_27
    5  A    between atoms: C_11  and  C_13
    6  A    between atoms: C_13  and  C_21
    7  A    between atoms: N_14  and  C_35
    8  A    between atoms: O_19  and  P_25
    9  A    between atoms: O_19  and  N_36
   10  A    between atoms: C_22  and  C_30
   11  A    between atoms: C_27  and  N_36
                            x       y       z     vdW  Elec       q    Type
                         _______ _______ _______ _____ _____    ______ ____

>  <TORSDO>
F 11

$$$$
