=
 OpenBabel11042414263D

 41 40  0  0  1  0  0  0  0  0999 V2000
  189.6900  176.5640  145.4590 C   0  0  0  0  0  0  0  0  0  0  0  0
  190.5770  175.6820  144.7520 N   0  0  0  0  0  0  0  0  0  0  0  0
  190.0180  177.7670  145.6440 O   0  0  0  0  0  0  0  0  0  0  0  0
  191.8030  176.1630  144.2650 N   0  0  0  0  0  2  0  0  0  0  0  0
  192.8650  175.3560  144.8560 C   0  0  0  0  0  2  0  0  0  0  0  0
  194.0140  176.2330  145.3510 C   0  0  1  0  0  3  0  0  0  0  0  0
  193.7070  176.7740  146.7360 C   0  0  0  0  0  1  0  0  0  0  0  0
  195.3440  175.4850  145.3690 C   0  0  0  0  0  2  0  0  0  0  0  0
  195.1420  173.9790  145.4850 C   0  0  0  0  0  2  0  0  0  0  0  0
  196.4480  173.2610  145.4160 C   0  0  0  0  0  0  0  0  0  0  0  0
  197.1470  173.2090  144.2170 O   0  0  0  0  0  0  0  0  0  0  0  0
  196.9270  172.7260  146.4500 O   0  0  0  0  0  1  0  0  0  0  0  0
  188.3640  176.0890  145.9670 C   0  0  0  0  0  2  0  0  0  0  0  0
  187.8120  177.0540  146.9770 C   0  0  0  0  0  3  0  0  0  0  0  0
  186.5160  177.3730  147.0690 C   0  0  0  0  0  3  0  0  0  0  0  0
  185.4740  176.8250  146.1440 C   0  0  0  0  0  2  0  0  0  0  0  0
  184.6620  177.9390  145.5710 C   0  0  0  0  0  0  0  0  0  0  0  0
  183.9840  178.6390  146.3080 O   0  0  0  0  0  0  0  0  0  0  0  0
  184.6710  178.1710  144.0910 C   0  0  2  0  0  3  0  0  0  0  0  0
  185.2460  177.0270  143.4060 N   0  0  0  0  0  1  0  0  0  0  0  0
  186.2800  179.3820  142.8630 O   0  0  0  0  0  0  0  0  0  0  0  0
  185.4340  179.4080  143.7430 C   0  0  0  0  0  3  0  0  0  0  0  0
  190.3290  174.2460  144.7100 C   0  0  0  0  0  2  0  0  0  0  0  0
  189.2800  172.5180  143.4410 O   0  0  0  0  0  1  0  0  0  0  0  0
  189.4020  173.9050  143.5550 C   0  0  2  0  0  3  0  0  0  0  0  0
  189.9110  174.5120  142.2480 C   0  0  2  0  0  3  0  0  0  0  0  0
  188.2670  176.2860  141.4720 C   0  0  0  0  0  0  0  0  0  0  0  0
  188.7260  177.1280  142.2880 O   0  0  0  0  0  1  0  0  0  0  0  0
  187.2420  176.6530  140.6100 O   0  0  0  0  0  0  0  0  0  0  0  0
  188.7880  174.9580  141.4290 N   0  0  0  0  0  2  0  0  0  0  0  0
  190.6700  173.5740  141.5350 O   0  0  0  0  0  0  0  0  0  0  0  0
  190.4970  173.5220  137.9690 O   0  0  0  0  0  0  0  0  0  0  0  0
  190.1830  173.6060  140.2680 N   0  0  0  0  0  2  0  0  0  0  0  0
  191.0130  173.4300  139.1120 C   0  0  0  0  0  0  0  0  0  0  0  0
  192.8340  172.0900  138.3890 O   0  0  0  0  0  1  0  0  0  0  0  0
  192.4830  173.1590  139.2170 C   0  0  1  0  0  3  0  0  0  0  0  0
  193.2930  174.3790  138.8840 C   0  0  0  0  0  3  0  0  0  0  0  0
  193.9890  175.0730  139.7910 C   0  0  0  0  0  3  0  0  0  0  0  0
  194.0220  174.7070  141.2400 C   0  0  0  0  0  2  0  0  0  0  0  0
  195.4020  174.9810  141.7990 C   0  0  0  0  0  2  0  0  0  0  0  0
  195.8830  176.3320  141.3110 C   0  0  0  0  0  1  0  0  0  0  0  0
  1  3  2  0  0  0  0
  1 13  1  0  0  0  0
  2  1  1  0  0  0  0
  4  2  1  0  0  0  0
  4  5  1  0  0  0  0
  5  6  1  0  0  0  0
  6  8  1  0  0  0  0
  6  7  1  1  0  0  0
  8  9  1  0  0  0  0
 10  9  1  0  0  0  0
 10 12  1  0  0  0  0
 11 10  2  0  0  0  0
 13 14  1  0  0  0  0
 14 15  2  0  0  0  0
 16 15  1  0  0  0  0
 17 16  1  0  0  0  0
 17 18  2  0  0  0  0
 19 20  1  6  0  0  0
 19 17  1  0  0  0  0
 21 22  2  0  0  0  0
 22 19  1  0  0  0  0
 23  2  1  0  0  0  0
 25 24  1  6  0  0  0
 25 23  1  0  0  0  0
 26 30  1  6  0  0  0
 26 25  1  0  0  0  0
 27 28  1  0  0  0  0
 29 27  2  0  0  0  0
 30 27  1  0  0  0  0
 31 26  1  0  0  0  0
 32 34  2  0  0  0  0
 33 31  1  0  0  0  0
 34 36  1  0  0  0  0
 34 33  1  0  0  0  0
 36 35  1  6  0  0  0
 37 36  1  0  0  0  0
 37 38  2  0  0  0  0
 38 39  1  0  0  0  0
 39 40  1  0  0  0  0
 41 40  1  0  0  0  0
M  END
>  <MODEL>
1

>  <REMARK>
 VINA RESULT:      -5.3      0.000      0.000
  Name = 
  22 active torsions:
  status: ('A' for Active; 'I' for Inactive)
    1  A    between atoms: C_3  and  N_11
    2  A    between atoms: C_3  and  C_14
    3  A    between atoms: C_4  and  C_7
    4  A    between atoms: C_4  and  C_12
    5  A    between atoms: C_8  and  C_34
    6  A    between atoms: N_10  and  O_33
    7  A    between atoms: N_11  and  N_27
    8  A    between atoms: C_13  and  C_17
    9  A    between atoms: C_13  and  C_38
   10  A    between atoms: C_14  and  C_23
   11  A    between atoms: C_15  and  C_30
   12  A    between atoms: C_15  and  C_32
   13  A    between atoms: C_16  and  C_37
   14  A    between atoms: C_16  and  C_41
   15  A    between atoms: C_17  and  N_27
   16  A    between atoms: C_19  and  C_28
   17  A    between atoms: C_19  and  C_37
   18  A    between atoms: C_21  and  C_35
   19  A    between atoms: C_22  and  C_35
   20  A    between atoms: C_23  and  N_31
   21  A    between atoms: C_23  and  O_33
   22  A    between atoms: C_34  and  C_38
                            x       y       z     vdW  Elec       q    Type
                         _______ _______ _______ _____ _____    ______ ____

>  <TORSDO>
F 22

$$$$
=
 OpenBabel11042414263D

 41 40  0  0  1  0  0  0  0  0999 V2000
  191.9180  172.6990  142.9480 C   0  0  0  0  0  0  0  0  0  0  0  0
  191.9410  174.0060  142.3520 N   0  0  0  0  0  0  0  0  0  0  0  0
  192.1740  171.6850  142.2440 O   0  0  0  0  0  0  0  0  0  0  0  0
  192.2550  174.1520  140.9910 N   0  0  0  0  0  2  0  0  0  0  0  0
  193.5260  174.8650  140.9010 C   0  0  0  0  0  2  0  0  0  0  0  0
  194.7040  173.9270  141.1590 C   0  0  1  0  0  3  0  0  0  0  0  0
  195.2880  173.4410  139.8460 C   0  0  0  0  0  1  0  0  0  0  0  0
  195.7930  174.5880  142.0000 C   0  0  0  0  0  2  0  0  0  0  0  0
  195.4850  174.5000  143.4900 C   0  0  0  0  0  2  0  0  0  0  0  0
  195.6420  175.8310  144.1440 C   0  0  0  0  0  0  0  0  0  0  0  0
  196.4080  176.8160  143.5340 O   0  0  0  0  0  0  0  0  0  0  0  0
  195.0590  176.0700  145.2340 O   0  0  0  0  0  1  0  0  0  0  0  0
  191.6150  172.5130  144.4020 C   0  0  0  0  0  2  0  0  0  0  0  0
  190.1300  172.4750  144.6280 C   0  0  0  0  0  3  0  0  0  0  0  0
  189.4930  173.2610  145.5030 C   0  0  0  0  0  3  0  0  0  0  0  0
  190.2000  174.2430  146.3850 C   0  0  0  0  0  2  0  0  0  0  0  0
  189.3630  175.4640  146.5660 C   0  0  0  0  0  0  0  0  0  0  0  0
  188.1840  175.4480  146.2450 O   0  0  0  0  0  0  0  0  0  0  0  0
  189.9860  176.7090  147.1200 C   0  0  2  0  0  3  0  0  0  0  0  0
  190.1990  177.6800  146.0610 N   0  0  0  0  0  1  0  0  0  0  0  0
  192.3390  176.7420  147.2900 O   0  0  0  0  0  0  0  0  0  0  0  0
  191.2820  176.4070  147.8020 C   0  0  0  0  0  3  0  0  0  0  0  0
  191.4430  175.1680  143.0780 C   0  0  0  0  0  2  0  0  0  0  0  0
  190.0670  177.1040  142.8370 O   0  0  0  0  0  1  0  0  0  0  0  0
  190.3340  175.8470  142.2900 C   0  0  2  0  0  3  0  0  0  0  0  0
  189.0710  174.9870  142.2720 C   0  0  2  0  0  3  0  0  0  0  0  0
  188.6450  173.5810  140.1990 C   0  0  0  0  0  0  0  0  0  0  0  0
  189.1790  172.5690  140.7250 O   0  0  0  0  0  1  0  0  0  0  0  0
  188.1060  173.4880  138.9230 O   0  0  0  0  0  0  0  0  0  0  0  0
  188.5930  174.8220  140.9020 N   0  0  0  0  0  2  0  0  0  0  0  0
  188.0660  175.5740  143.0530 O   0  0  0  0  0  0  0  0  0  0  0  0
  185.3650  177.4540  141.6680 O   0  0  0  0  0  0  0  0  0  0  0  0
  187.1780  176.0910  142.1660 N   0  0  0  0  0  2  0  0  0  0  0  0
  186.1860  177.0590  142.5340 C   0  0  0  0  0  0  0  0  0  0  0  0
  187.2550  178.2680  144.2750 O   0  0  0  0  0  1  0  0  0  0  0  0
  186.0780  177.6020  143.9270 C   0  0  1  0  0  3  0  0  0  0  0  0
  184.8900  178.5110  144.0730 C   0  0  0  0  0  3  0  0  0  0  0  0
  184.1710  178.6110  145.1960 C   0  0  0  0  0  3  0  0  0  0  0  0
  184.4750  177.8160  146.4250 C   0  0  0  0  0  2  0  0  0  0  0  0
  185.1080  178.7160  147.4660 C   0  0  0  0  0  2  0  0  0  0  0  0
  186.5270  178.2590  147.7310 C   0  0  0  0  0  1  0  0  0  0  0  0
  1 13  1  0  0  0  0
  2  1  1  0  0  0  0
  2 23  1  0  0  0  0
  3  1  2  0  0  0  0
  4  2  1  0  0  0  0
  5  4  1  0  0  0  0
  5  6  1  0  0  0  0
  6  7  1  6  0  0  0
  6  8  1  0  0  0  0
  8  9  1  0  0  0  0
  9 10  1  0  0  0  0
 10 12  1  0  0  0  0
 11 10  2  0  0  0  0
 13 14  1  0  0  0  0
 14 15  2  0  0  0  0
 15 16  1  0  0  0  0
 16 17  1  0  0  0  0
 17 19  1  0  0  0  0
 18 17  2  0  0  0  0
 19 20  1  6  0  0  0
 19 22  1  0  0  0  0
 21 22  2  0  0  0  0
 25 24  1  1  0  0  0
 25 23  1  0  0  0  0
 26 30  1  6  0  0  0
 26 25  1  0  0  0  0
 26 31  1  0  0  0  0
 27 28  1  0  0  0  0
 27 30  1  0  0  0  0
 29 27  2  0  0  0  0
 32 34  2  0  0  0  0
 33 34  1  0  0  0  0
 33 31  1  0  0  0  0
 34 36  1  0  0  0  0
 36 37  1  0  0  0  0
 36 35  1  6  0  0  0
 37 38  2  0  0  0  0
 38 39  1  0  0  0  0
 39 40  1  0  0  0  0
 40 41  1  0  0  0  0
M  END
>  <MODEL>
2

>  <REMARK>
 VINA RESULT:      -5.2      2.197      6.431
  Name = 
  22 active torsions:
  status: ('A' for Active; 'I' for Inactive)
    1  A    between atoms: C_3  and  N_11
    2  A    between atoms: C_3  and  C_14
    3  A    between atoms: C_4  and  C_7
    4  A    between atoms: C_4  and  C_12
    5  A    between atoms: C_8  and  C_34
    6  A    between atoms: N_10  and  O_33
    7  A    between atoms: N_11  and  N_27
    8  A    between atoms: C_13  and  C_17
    9  A    between atoms: C_13  and  C_38
   10  A    between atoms: C_14  and  C_23
   11  A    between atoms: C_15  and  C_30
   12  A    between atoms: C_15  and  C_32
   13  A    between atoms: C_16  and  C_37
   14  A    between atoms: C_16  and  C_41
   15  A    between atoms: C_17  and  N_27
   16  A    between atoms: C_19  and  C_28
   17  A    between atoms: C_19  and  C_37
   18  A    between atoms: C_21  and  C_35
   19  A    between atoms: C_22  and  C_35
   20  A    between atoms: C_23  and  N_31
   21  A    between atoms: C_23  and  O_33
   22  A    between atoms: C_34  and  C_38
                            x       y       z     vdW  Elec       q    Type
                         _______ _______ _______ _____ _____    ______ ____

>  <TORSDO>
F 22

$$$$
=
 OpenBabel11042414263D

 41 40  0  0  1  0  0  0  0  0999 V2000
  189.4120  176.6010  145.2670 C   0  0  0  0  0  0  0  0  0  0  0  0
  190.2800  175.8920  144.3690 N   0  0  0  0  0  0  0  0  0  0  0  0
  189.6510  177.8070  145.5480 O   0  0  0  0  0  0  0  0  0  0  0  0
  191.3870  176.5430  143.8010 N   0  0  0  0  0  2  0  0  0  0  0  0
  192.5510  175.6820  143.9820 C   0  0  0  0  0  2  0  0  0  0  0  0
  193.6060  176.3570  144.8560 C   0  0  1  0  0  3  0  0  0  0  0  0
  193.1900  176.3130  146.3150 C   0  0  0  0  0  1  0  0  0  0  0  0
  194.9840  175.7220  144.6890 C   0  0  0  0  0  2  0  0  0  0  0  0
  195.4190  174.9800  145.9470 C   0  0  0  0  0  2  0  0  0  0  0  0
  196.6290  174.1500  145.6820 C   0  0  0  0  0  0  0  0  0  0  0  0
  197.1710  174.1030  144.4030 O   0  0  0  0  0  0  0  0  0  0  0  0
  197.1750  173.5130  146.6210 O   0  0  0  0  0  1  0  0  0  0  0  0
  188.2080  175.9440  145.8670 C   0  0  0  0  0  2  0  0  0  0  0  0
  187.7080  176.7340  147.0420 C   0  0  0  0  0  3  0  0  0  0  0  0
  186.4210  177.0440  147.2350 C   0  0  0  0  0  3  0  0  0  0  0  0
  185.3370  176.6640  146.2740 C   0  0  0  0  0  2  0  0  0  0  0  0
  184.6260  177.8850  145.7960 C   0  0  0  0  0  0  0  0  0  0  0  0
  183.9230  178.5210  146.5670 O   0  0  0  0  0  0  0  0  0  0  0  0
  184.7650  178.3060  144.3640 C   0  0  2  0  0  3  0  0  0  0  0  0
  185.1370  177.1690  143.5400 N   0  0  0  0  0  1  0  0  0  0  0  0
  186.1380  179.7540  143.1070 O   0  0  0  0  0  0  0  0  0  0  0  0
  185.7790  179.3940  144.2170 C   0  0  0  0  0  3  0  0  0  0  0  0
  190.1590  174.4490  144.1940 C   0  0  0  0  0  2  0  0  0  0  0  0
  188.9360  172.7460  143.0540 O   0  0  0  0  0  1  0  0  0  0  0  0
  189.0780  174.1300  143.1740 C   0  0  2  0  0  3  0  0  0  0  0  0
  189.4020  174.7600  141.8200 C   0  0  2  0  0  3  0  0  0  0  0  0
  187.9510  176.7810  141.3080 C   0  0  0  0  0  0  0  0  0  0  0  0
  188.7350  177.5520  141.9220 O   0  0  0  0  0  1  0  0  0  0  0  0
  186.8250  177.3020  140.6840 O   0  0  0  0  0  0  0  0  0  0  0  0
  188.2070  175.3790  141.2520 N   0  0  0  0  0  2  0  0  0  0  0  0
  189.8950  173.7920  140.9340 O   0  0  0  0  0  0  0  0  0  0  0  0
  193.3090  173.8230  139.8880 O   0  0  0  0  0  0  0  0  0  0  0  0
  191.2430  173.9520  140.9400 N   0  0  0  0  0  2  0  0  0  0  0  0
  192.0610  173.6990  139.7900 C   0  0  0  0  0  0  0  0  0  0  0  0
  191.8170  174.1910  137.4810 O   0  0  0  0  0  1  0  0  0  0  0  0
  191.4830  173.2700  138.4770 C   0  0  1  0  0  3  0  0  0  0  0  0
  191.9370  171.8890  138.0990 C   0  0  0  0  0  3  0  0  0  0  0  0
  191.1630  171.0070  137.4570 C   0  0  0  0  0  3  0  0  0  0  0  0
  189.7550  171.3080  137.0560 C   0  0  0  0  0  2  0  0  0  0  0  0
  189.6620  171.3770  135.5460 C   0  0  0  0  0  2  0  0  0  0  0  0
  190.7880  170.5690  134.9360 C   0  0  0  0  0  1  0  0  0  0  0  0
  1  3  2  0  0  0  0
  1 13  1  0  0  0  0
  2  1  1  0  0  0  0
  4  5  1  0  0  0  0
  4  2  1  0  0  0  0
  5  6  1  0  0  0  0
  6  7  1  1  0  0  0
  8  6  1  0  0  0  0
  8  9  1  0  0  0  0
 10  9  1  0  0  0  0
 10 12  1  0  0  0  0
 11 10  2  0  0  0  0
 13 14  1  0  0  0  0
 14 15  2  0  0  0  0
 16 15  1  0  0  0  0
 17 16  1  0  0  0  0
 17 18  2  0  0  0  0
 19 20  1  6  0  0  0
 19 17  1  0  0  0  0
 21 22  2  0  0  0  0
 22 19  1  0  0  0  0
 23  2  1  0  0  0  0
 25 24  1  6  0  0  0
 25 23  1  0  0  0  0
 26 31  1  6  0  0  0
 26 25  1  0  0  0  0
 27 28  1  0  0  0  0
 29 27  2  0  0  0  0
 30 27  1  0  0  0  0
 30 26  1  0  0  0  0
 31 33  1  0  0  0  0
 34 32  2  0  0  0  0
 34 33  1  0  0  0  0
 36 35  1  6  0  0  0
 36 34  1  0  0  0  0
 37 36  1  0  0  0  0
 38 37  2  0  0  0  0
 39 38  1  0  0  0  0
 40 39  1  0  0  0  0
 41 40  1  0  0  0  0
M  END
>  <MODEL>
3

>  <REMARK>
 VINA RESULT:      -5.1      1.481      2.735
  Name = 
  22 active torsions:
  status: ('A' for Active; 'I' for Inactive)
    1  A    between atoms: C_3  and  N_11
    2  A    between atoms: C_3  and  C_14
    3  A    between atoms: C_4  and  C_7
    4  A    between atoms: C_4  and  C_12
    5  A    between atoms: C_8  and  C_34
    6  A    between atoms: N_10  and  O_33
    7  A    between atoms: N_11  and  N_27
    8  A    between atoms: C_13  and  C_17
    9  A    between atoms: C_13  and  C_38
   10  A    between atoms: C_14  and  C_23
   11  A    between atoms: C_15  and  C_30
   12  A    between atoms: C_15  and  C_32
   13  A    between atoms: C_16  and  C_37
   14  A    between atoms: C_16  and  C_41
   15  A    between atoms: C_17  and  N_27
   16  A    between atoms: C_19  and  C_28
   17  A    between atoms: C_19  and  C_37
   18  A    between atoms: C_21  and  C_35
   19  A    between atoms: C_22  and  C_35
   20  A    between atoms: C_23  and  N_31
   21  A    between atoms: C_23  and  O_33
   22  A    between atoms: C_34  and  C_38
                            x       y       z     vdW  Elec       q    Type
                         _______ _______ _______ _____ _____    ______ ____

>  <TORSDO>
F 22

$$$$
=
 OpenBabel11042414263D

 41 40  0  0  1  0  0  0  0  0999 V2000
  189.0820  174.6100  142.0030 C   0  0  0  0  0  0  0  0  0  0  0  0
  190.0570  173.6470  142.4330 N   0  0  0  0  0  0  0  0  0  0  0  0
  188.5670  174.5110  140.8560 O   0  0  0  0  0  0  0  0  0  0  0  0
  190.4290  172.5950  141.5800 N   0  0  0  0  0  2  0  0  0  0  0  0
  190.1660  171.3410  142.2790 C   0  0  0  0  0  2  0  0  0  0  0  0
  191.2050  170.2810  141.9190 C   0  0  1  0  0  3  0  0  0  0  0  0
  190.7640  169.5040  140.6920 C   0  0  0  0  0  1  0  0  0  0  0  0
  192.5870  170.8840  141.6840 C   0  0  0  0  0  2  0  0  0  0  0  0
  193.6460  170.2230  142.5570 C   0  0  0  0  0  2  0  0  0  0  0  0
  194.0620  171.1290  143.6660 C   0  0  0  0  0  0  0  0  0  0  0  0
  193.1810  171.4010  144.7050 O   0  0  0  0  0  1  0  0  0  0  0  0
  195.2190  171.6240  143.6740 O   0  0  0  0  0  0  0  0  0  0  0  0
  188.6440  175.7270  142.8990 C   0  0  0  0  0  2  0  0  0  0  0  0
  189.1850  177.0380  142.4070 C   0  0  0  0  0  3  0  0  0  0  0  0
  188.4670  178.1660  142.3570 C   0  0  0  0  0  3  0  0  0  0  0  0
  187.0250  178.2330  142.7550 C   0  0  0  0  0  2  0  0  0  0  0  0
  186.1560  178.1610  141.5440 C   0  0  0  0  0  0  0  0  0  0  0  0
  186.6310  177.8110  140.4740 O   0  0  0  0  0  0  0  0  0  0  0  0
  184.7110  178.5440  141.6510 C   0  0  2  0  0  3  0  0  0  0  0  0
  184.1040  177.9010  142.8030 N   0  0  0  0  0  1  0  0  0  0  0  0
  182.7500  178.3210  140.3580 O   0  0  0  0  0  0  0  0  0  0  0  0
  183.9620  178.1770  140.4110 C   0  0  0  0  0  3  0  0  0  0  0  0
  190.8240  173.8540  143.6550 C   0  0  0  0  0  2  0  0  0  0  0  0
  192.8170  174.2890  142.4150 O   0  0  0  0  0  1  0  0  0  0  0  0
  191.9760  174.8130  143.4000 C   0  0  2  0  0  3  0  0  0  0  0  0
  192.7550  175.0860  144.6860 C   0  0  2  0  0  3  0  0  0  0  0  0
  195.2410  175.6020  144.7650 C   0  0  0  0  0  0  0  0  0  0  0  0
  195.0250  176.8000  145.0870 O   0  0  0  0  0  1  0  0  0  0  0  0
  196.5480  175.1470  144.6480 O   0  0  0  0  0  0  0  0  0  0  0  0
  194.1560  174.7090  144.5170 N   0  0  0  0  0  2  0  0  0  0  0  0
  192.2020  174.3680  145.7560 O   0  0  0  0  0  0  0  0  0  0  0  0
  191.2630  176.7810  148.2140 O   0  0  0  0  0  0  0  0  0  0  0  0
  192.2520  175.2120  146.8190 N   0  0  0  0  0  2  0  0  0  0  0  0
  191.1250  175.9840  147.2510 C   0  0  0  0  0  0  0  0  0  0  0  0
  188.9150  175.1250  147.3560 O   0  0  0  0  0  1  0  0  0  0  0  0
  189.7880  175.8920  146.5820 C   0  0  1  0  0  3  0  0  0  0  0  0
  189.2090  177.2530  146.3170 C   0  0  0  0  0  3  0  0  0  0  0  0
  187.8980  177.5150  146.3450 C   0  0  0  0  0  3  0  0  0  0  0  0
  186.8690  176.4700  146.6360 C   0  0  0  0  0  2  0  0  0  0  0  0
  185.5970  176.7880  145.8790 C   0  0  0  0  0  2  0  0  0  0  0  0
  184.9230  177.9880  146.5100 C   0  0  0  0  0  1  0  0  0  0  0  0
  1  2  1  0  0  0  0
  1 13  1  0  0  0  0
  2 23  1  0  0  0  0
  3  1  2  0  0  0  0
  4  5  1  0  0  0  0
  4  2  1  0  0  0  0
  6  7  1  6  0  0  0
  6  5  1  0  0  0  0
  8  6  1  0  0  0  0
  8  9  1  0  0  0  0
  9 10  1  0  0  0  0
 10 12  2  0  0  0  0
 10 11  1  0  0  0  0
 14 13  1  0  0  0  0
 15 14  2  0  0  0  0
 15 16  1  0  0  0  0
 17 19  1  0  0  0  0
 17 16  1  0  0  0  0
 18 17  2  0  0  0  0
 19 20  1  1  0  0  0
 21 22  2  0  0  0  0
 22 19  1  0  0  0  0
 25 24  1  6  0  0  0
 25 23  1  0  0  0  0
 25 26  1  0  0  0  0
 26 30  1  6  0  0  0
 26 31  1  0  0  0  0
 27 28  1  0  0  0  0
 29 27  2  0  0  0  0
 30 27  1  0  0  0  0
 31 33  1  0  0  0  0
 33 34  1  0  0  0  0
 34 32  2  0  0  0  0
 36 34  1  0  0  0  0
 36 35  1  1  0  0  0
 37 38  2  0  0  0  0
 37 36  1  0  0  0  0
 38 39  1  0  0  0  0
 40 41  1  0  0  0  0
 40 39  1  0  0  0  0
M  END
>  <MODEL>
4

>  <REMARK>
 VINA RESULT:      -5.1      2.666      6.620
  Name = 
  22 active torsions:
  status: ('A' for Active; 'I' for Inactive)
    1  A    between atoms: C_3  and  N_11
    2  A    between atoms: C_3  and  C_14
    3  A    between atoms: C_4  and  C_7
    4  A    between atoms: C_4  and  C_12
    5  A    between atoms: C_8  and  C_34
    6  A    between atoms: N_10  and  O_33
    7  A    between atoms: N_11  and  N_27
    8  A    between atoms: C_13  and  C_17
    9  A    between atoms: C_13  and  C_38
   10  A    between atoms: C_14  and  C_23
   11  A    between atoms: C_15  and  C_30
   12  A    between atoms: C_15  and  C_32
   13  A    between atoms: C_16  and  C_37
   14  A    between atoms: C_16  and  C_41
   15  A    between atoms: C_17  and  N_27
   16  A    between atoms: C_19  and  C_28
   17  A    between atoms: C_19  and  C_37
   18  A    between atoms: C_21  and  C_35
   19  A    between atoms: C_22  and  C_35
   20  A    between atoms: C_23  and  N_31
   21  A    between atoms: C_23  and  O_33
   22  A    between atoms: C_34  and  C_38
                            x       y       z     vdW  Elec       q    Type
                         _______ _______ _______ _____ _____    ______ ____

>  <TORSDO>
F 22

$$$$
=
 OpenBabel11042414263D

 41 40  0  0  1  0  0  0  0  0999 V2000
  188.4910  174.8100  140.7020 C   0  0  0  0  0  0  0  0  0  0  0  0
  188.4090  175.8170  141.7230 N   0  0  0  0  0  0  0  0  0  0  0  0
  187.9280  174.9990  139.5890 O   0  0  0  0  0  0  0  0  0  0  0  0
  187.7100  177.0100  141.4790 N   0  0  0  0  0  2  0  0  0  0  0  0
  186.3780  176.8720  142.0580 C   0  0  0  0  0  2  0  0  0  0  0  0
  185.9300  178.1690  142.7290 C   0  0  1  0  0  3  0  0  0  0  0  0
  184.4320  178.3540  142.5770 C   0  0  0  0  0  1  0  0  0  0  0  0
  186.3130  178.2160  144.2060 C   0  0  0  0  0  2  0  0  0  0  0  0
  185.2200  178.8580  145.0510 C   0  0  0  0  0  2  0  0  0  0  0  0
  184.9140  178.0220  146.2470 C   0  0  0  0  0  0  0  0  0  0  0  0
  185.0010  176.6380  146.1660 O   0  0  0  0  0  0  0  0  0  0  0  0
  184.6030  178.5720  147.3370 O   0  0  0  0  0  1  0  0  0  0  0  0
  189.2520  173.5400  140.9210 C   0  0  0  0  0  2  0  0  0  0  0  0
  190.7100  173.7430  140.6250 C   0  0  0  0  0  3  0  0  0  0  0  0
  191.6970  173.3180  141.4220 C   0  0  0  0  0  3  0  0  0  0  0  0
  191.4500  172.6200  142.7240 C   0  0  0  0  0  2  0  0  0  0  0  0
  191.4480  171.1420  142.5200 C   0  0  0  0  0  0  0  0  0  0  0  0
  190.4130  170.5720  142.2090 O   0  0  0  0  0  0  0  0  0  0  0  0
  192.7150  170.3690  142.7240 C   0  0  2  0  0  3  0  0  0  0  0  0
  193.6530  171.1400  143.5210 N   0  0  0  0  0  1  0  0  0  0  0  0
  192.7730  170.2670  140.3680 O   0  0  0  0  0  0  0  0  0  0  0  0
  193.3400  170.0030  141.4170 C   0  0  0  0  0  3  0  0  0  0  0  0
  188.8590  175.5420  143.0830 C   0  0  0  0  0  2  0  0  0  0  0  0
  190.9720  176.5870  142.7110 O   0  0  0  0  0  1  0  0  0  0  0  0
  189.8460  176.6050  143.5370 C   0  0  2  0  0  3  0  0  0  0  0  0
  190.2450  176.3910  144.9970 C   0  0  2  0  0  3  0  0  0  0  0  0
  188.5760  177.0800  146.7840 C   0  0  0  0  0  0  0  0  0  0  0  0
  188.1240  175.9080  146.8730 O   0  0  0  0  0  0  0  0  0  0  0  0
  188.0660  178.0770  147.6050 O   0  0  0  0  0  1  0  0  0  0  0  0
  189.6050  177.3920  145.8460 N   0  0  0  0  0  2  0  0  0  0  0  0
  191.6360  176.4730  145.1430 O   0  0  0  0  0  0  0  0  0  0  0  0
  193.6890  173.6400  145.8550 O   0  0  0  0  0  0  0  0  0  0  0  0
  192.0320  175.2310  145.5240 N   0  0  0  0  0  2  0  0  0  0  0  0
  193.4060  174.8230  145.5370 C   0  0  0  0  0  0  0  0  0  0  0  0
  194.7610  176.6560  146.1990 O   0  0  0  0  0  1  0  0  0  0  0  0
  194.5190  175.7520  145.1620 C   0  0  1  0  0  3  0  0  0  0  0  0
  195.7710  174.9990  144.8110 C   0  0  0  0  0  3  0  0  0  0  0  0
  196.6650  175.4300  143.9150 C   0  0  0  0  0  3  0  0  0  0  0  0
  196.5020  176.7110  143.1610 C   0  0  0  0  0  2  0  0  0  0  0  0
  196.4230  176.4170  141.6770 C   0  0  0  0  0  2  0  0  0  0  0  0
  194.9770  176.4700  141.2310 C   0  0  0  0  0  1  0  0  0  0  0  0
  1 13  1  0  0  0  0
  1  2  1  0  0  0  0
  2 23  1  0  0  0  0
  3  1  2  0  0  0  0
  4  2  1  0  0  0  0
  4  5  1  0  0  0  0
  5  6  1  0  0  0  0
  6  7  1  1  0  0  0
  6  8  1  0  0  0  0
  8  9  1  0  0  0  0
  9 10  1  0  0  0  0
 10 12  1  0  0  0  0
 11 10  2  0  0  0  0
 14 13  1  0  0  0  0
 14 15  2  0  0  0  0
 15 16  1  0  0  0  0
 17 19  1  0  0  0  0
 17 16  1  0  0  0  0
 18 17  2  0  0  0  0
 19 20  1  1  0  0  0
 21 22  2  0  0  0  0
 22 19  1  0  0  0  0
 23 25  1  0  0  0  0
 25 24  1  6  0  0  0
 25 26  1  0  0  0  0
 26 31  1  6  0  0  0
 26 30  1  0  0  0  0
 27 28  2  0  0  0  0
 27 29  1  0  0  0  0
 30 27  1  0  0  0  0
 31 33  1  0  0  0  0
 33 34  1  0  0  0  0
 34 32  2  0  0  0  0
 36 34  1  0  0  0  0
 36 35  1  1  0  0  0
 37 36  1  0  0  0  0
 38 37  2  0  0  0  0
 39 38  1  0  0  0  0
 40 39  1  0  0  0  0
 41 40  1  0  0  0  0
M  END
>  <MODEL>
5

>  <REMARK>
 VINA RESULT:      -5.1      2.352      7.984
  Name = 
  22 active torsions:
  status: ('A' for Active; 'I' for Inactive)
    1  A    between atoms: C_3  and  N_11
    2  A    between atoms: C_3  and  C_14
    3  A    between atoms: C_4  and  C_7
    4  A    between atoms: C_4  and  C_12
    5  A    between atoms: C_8  and  C_34
    6  A    between atoms: N_10  and  O_33
    7  A    between atoms: N_11  and  N_27
    8  A    between atoms: C_13  and  C_17
    9  A    between atoms: C_13  and  C_38
   10  A    between atoms: C_14  and  C_23
   11  A    between atoms: C_15  and  C_30
   12  A    between atoms: C_15  and  C_32
   13  A    between atoms: C_16  and  C_37
   14  A    between atoms: C_16  and  C_41
   15  A    between atoms: C_17  and  N_27
   16  A    between atoms: C_19  and  C_28
   17  A    between atoms: C_19  and  C_37
   18  A    between atoms: C_21  and  C_35
   19  A    between atoms: C_22  and  C_35
   20  A    between atoms: C_23  and  N_31
   21  A    between atoms: C_23  and  O_33
   22  A    between atoms: C_34  and  C_38
                            x       y       z     vdW  Elec       q    Type
                         _______ _______ _______ _____ _____    ______ ____

>  <TORSDO>
F 22

$$$$
=
 OpenBabel11042414263D

 41 40  0  0  1  0  0  0  0  0999 V2000
  190.9050  171.0530  141.2260 C   0  0  0  0  0  0  0  0  0  0  0  0
  190.7590  172.1140  142.1840 N   0  0  0  0  0  0  0  0  0  0  0  0
  191.5230  170.0010  141.5450 O   0  0  0  0  0  0  0  0  0  0  0  0
  191.2970  171.9740  143.4730 N   0  0  0  0  0  2  0  0  0  0  0  0
  192.3660  172.9570  143.6180 C   0  0  0  0  0  2  0  0  0  0  0  0
  192.7850  173.1050  145.0800 C   0  0  1  0  0  3  0  0  0  0  0  0
  193.9900  172.2310  145.3750 C   0  0  0  0  0  1  0  0  0  0  0  0
  193.0910  174.5540  145.4480 C   0  0  0  0  0  2  0  0  0  0  0  0
  194.5530  174.9020  145.1980 C   0  0  0  0  0  2  0  0  0  0  0  0
  194.6740  176.0000  144.1950 C   0  0  0  0  0  0  0  0  0  0  0  0
  195.8450  176.7420  144.1170 O   0  0  0  0  0  1  0  0  0  0  0  0
  193.7250  176.2350  143.4010 O   0  0  0  0  0  0  0  0  0  0  0  0
  190.3190  171.1590  139.8520 C   0  0  0  0  0  2  0  0  0  0  0  0
  191.1200  170.3460  138.8760 C   0  0  0  0  0  3  0  0  0  0  0  0
  190.9080  170.3530  137.5550 C   0  0  0  0  0  3  0  0  0  0  0  0
  189.8170  171.1490  136.9070 C   0  0  0  0  0  2  0  0  0  0  0  0
  190.3370  172.4850  136.4920 C   0  0  0  0  0  0  0  0  0  0  0  0
  191.3440  172.5600  135.8040 O   0  0  0  0  0  0  0  0  0  0  0  0
  189.6260  173.7240  136.9440 C   0  0  2  0  0  3  0  0  0  0  0  0
  188.4790  173.3750  137.7640 N   0  0  0  0  0  1  0  0  0  0  0  0
  189.8370  175.5250  135.4360 O   0  0  0  0  0  0  0  0  0  0  0  0
  189.1860  174.5500  135.7790 C   0  0  0  0  0  3  0  0  0  0  0  0
  190.2450  173.4180  141.7830 C   0  0  0  0  0  2  0  0  0  0  0  0
  187.8870  173.1100  141.5820 O   0  0  0  0  0  1  0  0  0  0  0  0
  188.8770  173.6590  142.4000 C   0  0  2  0  0  3  0  0  0  0  0  0
  188.6320  175.1520  142.6170 C   0  0  2  0  0  3  0  0  0  0  0  0
  190.2380  176.7690  143.7380 C   0  0  0  0  0  0  0  0  0  0  0  0
  190.4250  177.3950  142.6610 O   0  0  0  0  0  0  0  0  0  0  0  0
  190.8700  177.1960  144.8980 O   0  0  0  0  0  1  0  0  0  0  0  0
  189.3870  175.6240  143.7740 N   0  0  0  0  0  2  0  0  0  0  0  0
  187.2660  175.4000  142.8150 O   0  0  0  0  0  0  0  0  0  0  0  0
  186.1050  178.5440  141.5850 O   0  0  0  0  0  0  0  0  0  0  0  0
  186.9610  176.4210  141.9750 N   0  0  0  0  0  2  0  0  0  0  0  0
  186.4080  177.6640  142.4300 C   0  0  0  0  0  0  0  0  0  0  0  0
  187.3550  178.2790  144.5180 O   0  0  0  0  0  1  0  0  0  0  0  0
  186.1580  177.9440  143.8800 C   0  0  1  0  0  3  0  0  0  0  0  0
  185.1360  179.0300  144.0640 C   0  0  0  0  0  3  0  0  0  0  0  0
  184.2920  179.0810  145.1000 C   0  0  0  0  0  3  0  0  0  0  0  0
  184.2760  178.0500  146.1830 C   0  0  0  0  0  2  0  0  0  0  0  0
  185.0990  178.5380  147.3570 C   0  0  0  0  0  2  0  0  0  0  0  0
  186.1050  177.4730  147.7420 C   0  0  0  0  0  1  0  0  0  0  0  0
  1  3  2  0  0  0  0
  1  2  1  0  0  0  0
  2  4  1  0  0  0  0
  4  5  1  0  0  0  0
  5  6  1  0  0  0  0
  6  7  1  6  0  0  0
  6  8  1  0  0  0  0
  9  8  1  0  0  0  0
 10  9  1  0  0  0  0
 11 10  1  0  0  0  0
 12 10  2  0  0  0  0
 13  1  1  0  0  0  0
 14 13  1  0  0  0  0
 15 14  2  0  0  0  0
 16 15  1  0  0  0  0
 17 16  1  0  0  0  0
 17 19  1  0  0  0  0
 18 17  2  0  0  0  0
 19 20  1  6  0  0  0
 21 22  2  0  0  0  0
 22 19  1  0  0  0  0
 23  2  1  0  0  0  0
 23 25  1  0  0  0  0
 25 24  1  6  0  0  0
 25 26  1  0  0  0  0
 26 31  1  1  0  0  0
 26 30  1  0  0  0  0
 27 30  1  0  0  0  0
 27 29  1  0  0  0  0
 28 27  2  0  0  0  0
 32 34  2  0  0  0  0
 33 34  1  0  0  0  0
 33 31  1  0  0  0  0
 34 36  1  0  0  0  0
 36 37  1  0  0  0  0
 36 35  1  6  0  0  0
 37 38  2  0  0  0  0
 38 39  1  0  0  0  0
 39 40  1  0  0  0  0
 40 41  1  0  0  0  0
M  END
>  <MODEL>
6

>  <REMARK>
 VINA RESULT:      -5.0      2.488      7.831
  Name = 
  22 active torsions:
  status: ('A' for Active; 'I' for Inactive)
    1  A    between atoms: C_3  and  N_11
    2  A    between atoms: C_3  and  C_14
    3  A    between atoms: C_4  and  C_7
    4  A    between atoms: C_4  and  C_12
    5  A    between atoms: C_8  and  C_34
    6  A    between atoms: N_10  and  O_33
    7  A    between atoms: N_11  and  N_27
    8  A    between atoms: C_13  and  C_17
    9  A    between atoms: C_13  and  C_38
   10  A    between atoms: C_14  and  C_23
   11  A    between atoms: C_15  and  C_30
   12  A    between atoms: C_15  and  C_32
   13  A    between atoms: C_16  and  C_37
   14  A    between atoms: C_16  and  C_41
   15  A    between atoms: C_17  and  N_27
   16  A    between atoms: C_19  and  C_28
   17  A    between atoms: C_19  and  C_37
   18  A    between atoms: C_21  and  C_35
   19  A    between atoms: C_22  and  C_35
   20  A    between atoms: C_23  and  N_31
   21  A    between atoms: C_23  and  O_33
   22  A    between atoms: C_34  and  C_38
                            x       y       z     vdW  Elec       q    Type
                         _______ _______ _______ _____ _____    ______ ____

>  <TORSDO>
F 22

$$$$
=
 OpenBabel11042414263D

 41 40  0  0  1  0  0  0  0  0999 V2000
  190.8200  176.3610  147.0200 C   0  0  0  0  0  0  0  0  0  0  0  0
  189.5940  176.1990  146.2880 N   0  0  0  0  0  0  0  0  0  0  0  0
  190.8320  177.0450  148.0790 O   0  0  0  0  0  0  0  0  0  0  0  0
  188.4130  176.7950  146.7580 N   0  0  0  0  0  2  0  0  0  0  0  0
  187.4770  176.8680  145.6410 C   0  0  0  0  0  2  0  0  0  0  0  0
  186.1080  177.3690  146.0990 C   0  0  1  0  0  3  0  0  0  0  0  0
  185.9860  177.2650  147.6080 C   0  0  0  0  0  1  0  0  0  0  0  0
  185.8410  178.8040  145.6530 C   0  0  0  0  0  2  0  0  0  0  0  0
  184.5610  178.9100  144.8330 C   0  0  0  0  0  2  0  0  0  0  0  0
  184.8290  178.6320  143.3930 C   0  0  0  0  0  0  0  0  0  0  0  0
  186.0090  179.0750  142.8090 O   0  0  0  0  0  1  0  0  0  0  0  0
  183.9980  177.9740  142.7140 O   0  0  0  0  0  0  0  0  0  0  0  0
  192.0910  175.7150  146.5610 C   0  0  0  0  0  2  0  0  0  0  0  0
  193.2650  176.6080  146.8420 C   0  0  0  0  0  3  0  0  0  0  0  0
  194.5200  176.3190  146.4800 C   0  0  0  0  0  3  0  0  0  0  0  0
  194.8970  175.0480  145.7850 C   0  0  0  0  0  2  0  0  0  0  0  0
  195.6730  175.3520  144.5470 C   0  0  0  0  0  0  0  0  0  0  0  0
  195.3620  176.3090  143.8540 O   0  0  0  0  0  0  0  0  0  0  0  0
  196.8140  174.4630  144.1560 C   0  0  2  0  0  3  0  0  0  0  0  0
  197.5310  174.0150  145.3370 N   0  0  0  0  0  1  0  0  0  0  0  0
  197.9410  174.7310  142.1010 O   0  0  0  0  0  0  0  0  0  0  0  0
  197.7510  175.1640  143.2270 C   0  0  0  0  0  3  0  0  0  0  0  0
  189.5900  175.6020  144.9580 C   0  0  0  0  0  2  0  0  0  0  0  0
  190.3090  177.6950  144.0650 O   0  0  0  0  0  1  0  0  0  0  0  0
  190.5740  176.3240  144.0530 C   0  0  2  0  0  3  0  0  0  0  0  0
  190.5100  175.7740  142.6280 C   0  0  2  0  0  3  0  0  0  0  0  0
  188.6040  174.3930  141.6720 C   0  0  0  0  0  0  0  0  0  0  0  0
  188.2730  175.3190  140.8850 O   0  0  0  0  0  0  0  0  0  0  0  0
  187.9090  173.1910  141.6500 O   0  0  0  0  0  1  0  0  0  0  0  0
  189.6840  174.5710  142.5880 N   0  0  0  0  0  2  0  0  0  0  0  0
  191.7970  175.4760  142.1590 O   0  0  0  0  0  0  0  0  0  0  0  0
  193.4140  172.6810  143.6830 O   0  0  0  0  0  0  0  0  0  0  0  0
  192.3380  174.6520  143.0920 N   0  0  0  0  0  2  0  0  0  0  0  0
  192.9800  173.4150  142.7580 C   0  0  0  0  0  0  0  0  0  0  0  0
  194.4020  172.3900  141.1560 O   0  0  0  0  0  1  0  0  0  0  0  0
  193.1360  172.9520  141.3410 C   0  0  1  0  0  3  0  0  0  0  0  0
  192.0600  171.9770  140.9580 C   0  0  0  0  0  3  0  0  0  0  0  0
  191.1810  172.1960  139.9750 C   0  0  0  0  0  3  0  0  0  0  0  0
  191.1760  173.4480  139.1580 C   0  0  0  0  0  2  0  0  0  0  0  0
  191.1650  173.0920  137.6860 C   0  0  0  0  0  2  0  0  0  0  0  0
  191.5270  174.3140  136.8690 C   0  0  0  0  0  1  0  0  0  0  0  0
  1  3  2  0  0  0  0
  2  4  1  0  0  0  0
  2  1  1  0  0  0  0
  5  6  1  0  0  0  0
  5  4  1  0  0  0  0
  6  7  1  1  0  0  0
  8  6  1  0  0  0  0
  9  8  1  0  0  0  0
 10  9  1  0  0  0  0
 11 10  1  0  0  0  0
 12 10  2  0  0  0  0
 13 14  1  0  0  0  0
 13  1  1  0  0  0  0
 15 14  2  0  0  0  0
 16 15  1  0  0  0  0
 17 16  1  0  0  0  0
 18 17  2  0  0  0  0
 19 17  1  0  0  0  0
 19 20  1  1  0  0  0
 21 22  2  0  0  0  0
 22 19  1  0  0  0  0
 23  2  1  0  0  0  0
 25 24  1  6  0  0  0
 25 23  1  0  0  0  0
 26 31  1  1  0  0  0
 26 25  1  0  0  0  0
 27 30  1  0  0  0  0
 28 27  2  0  0  0  0
 29 27  1  0  0  0  0
 30 26  1  0  0  0  0
 31 33  1  0  0  0  0
 34 33  1  0  0  0  0
 34 32  2  0  0  0  0
 36 35  1  1  0  0  0
 36 34  1  0  0  0  0
 37 36  1  0  0  0  0
 38 37  2  0  0  0  0
 39 38  1  0  0  0  0
 40 39  1  0  0  0  0
 41 40  1  0  0  0  0
M  END
>  <MODEL>
7

>  <REMARK>
 VINA RESULT:      -5.0      2.178      7.605
  Name = 
  22 active torsions:
  status: ('A' for Active; 'I' for Inactive)
    1  A    between atoms: C_3  and  N_11
    2  A    between atoms: C_3  and  C_14
    3  A    between atoms: C_4  and  C_7
    4  A    between atoms: C_4  and  C_12
    5  A    between atoms: C_8  and  C_34
    6  A    between atoms: N_10  and  O_33
    7  A    between atoms: N_11  and  N_27
    8  A    between atoms: C_13  and  C_17
    9  A    between atoms: C_13  and  C_38
   10  A    between atoms: C_14  and  C_23
   11  A    between atoms: C_15  and  C_30
   12  A    between atoms: C_15  and  C_32
   13  A    between atoms: C_16  and  C_37
   14  A    between atoms: C_16  and  C_41
   15  A    between atoms: C_17  and  N_27
   16  A    between atoms: C_19  and  C_28
   17  A    between atoms: C_19  and  C_37
   18  A    between atoms: C_21  and  C_35
   19  A    between atoms: C_22  and  C_35
   20  A    between atoms: C_23  and  N_31
   21  A    between atoms: C_23  and  O_33
   22  A    between atoms: C_34  and  C_38
                            x       y       z     vdW  Elec       q    Type
                         _______ _______ _______ _____ _____    ______ ____

>  <TORSDO>
F 22

$$$$
=
 OpenBabel11042414263D

 41 40  0  0  1  0  0  0  0  0999 V2000
  188.9170  177.1240  142.0070 C   0  0  0  0  0  0  0  0  0  0  0  0
  190.1610  176.5100  142.3820 N   0  0  0  0  0  0  0  0  0  0  0  0
  188.8240  178.3810  141.9750 O   0  0  0  0  0  0  0  0  0  0  0  0
  191.2700  177.3100  142.7030 N   0  0  0  0  0  2  0  0  0  0  0  0
  190.9990  177.9500  143.9860 C   0  0  0  0  0  2  0  0  0  0  0  0
  191.1810  176.9690  145.1420 C   0  0  1  0  0  3  0  0  0  0  0  0
  192.6560  176.7810  145.4490 C   0  0  0  0  0  1  0  0  0  0  0  0
  190.4410  177.4150  146.4000 C   0  0  0  0  0  2  0  0  0  0  0  0
  189.2770  176.4890  146.7280 C   0  0  0  0  0  2  0  0  0  0  0  0
  189.7410  175.3130  147.5190 C   0  0  0  0  0  0  0  0  0  0  0  0
  188.9430  174.1800  147.6090 O   0  0  0  0  0  0  0  0  0  0  0  0
  190.8660  175.3380  148.0830 O   0  0  0  0  0  1  0  0  0  0  0  0
  187.7250  176.2990  141.6320 C   0  0  0  0  0  2  0  0  0  0  0  0
  187.0720  175.7320  142.8600 C   0  0  0  0  0  3  0  0  0  0  0  0
  186.0880  176.3470  143.5270 C   0  0  0  0  0  3  0  0  0  0  0  0
  185.5560  177.6920  143.1410 C   0  0  0  0  0  2  0  0  0  0  0  0
  184.7980  178.2880  144.2800 C   0  0  0  0  0  0  0  0  0  0  0  0
  183.8610  179.0420  144.0600 O   0  0  0  0  0  0  0  0  0  0  0  0
  185.2110  177.9720  145.6850 C   0  0  2  0  0  3  0  0  0  0  0  0
  184.0410  177.7490  146.5150 N   0  0  0  0  0  1  0  0  0  0  0  0
  185.9800  179.3280  147.4560 O   0  0  0  0  0  0  0  0  0  0  0  0
  186.0420  179.0720  146.2640 C   0  0  0  0  0  3  0  0  0  0  0  0
  190.2410  175.0770  142.6380 C   0  0  0  0  0  2  0  0  0  0  0  0
  191.3350  174.0500  140.7810 O   0  0  0  0  0  1  0  0  0  0  0  0
  191.5390  174.5140  142.0830 C   0  0  2  0  0  3  0  0  0  0  0  0
  192.0760  173.3960  142.9770 C   0  0  2  0  0  3  0  0  0  0  0  0
  190.1190  172.1620  144.0260 C   0  0  0  0  0  0  0  0  0  0  0  0
  189.9170  171.5000  142.9730 O   0  0  0  0  0  0  0  0  0  0  0  0
  189.3250  171.9350  145.1420 O   0  0  0  0  0  1  0  0  0  0  0  0
  191.1520  173.1450  144.0790 N   0  0  0  0  0  2  0  0  0  0  0  0
  193.3350  173.7380  143.4880 O   0  0  0  0  0  0  0  0  0  0  0  0
  195.3120  176.4200  142.2070 O   0  0  0  0  0  0  0  0  0  0  0  0
  193.7120  174.8480  142.8030 N   0  0  0  0  0  2  0  0  0  0  0  0
  195.0510  175.3580  142.8270 C   0  0  0  0  0  0  0  0  0  0  0  0
  197.3880  175.2190  143.2210 O   0  0  0  0  0  1  0  0  0  0  0  0
  196.1520  174.6800  143.5850 C   0  0  1  0  0  3  0  0  0  0  0  0
  195.9430  174.7830  145.0690 C   0  0  0  0  0  3  0  0  0  0  0  0
  196.3820  173.8690  145.9410 C   0  0  0  0  0  3  0  0  0  0  0  0
  197.1220  172.6390  145.5210 C   0  0  0  0  0  2  0  0  0  0  0  0
  196.4700  171.4200  146.1410 C   0  0  0  0  0  2  0  0  0  0  0  0
  195.0170  171.3580  145.7190 C   0  0  0  0  0  1  0  0  0  0  0  0
  1  2  1  0  0  0  0
  2 23  1  0  0  0  0
  2  4  1  0  0  0  0
  3  1  2  0  0  0  0
  4  5  1  0  0  0  0
  5  6  1  0  0  0  0
  6  7  1  1  0  0  0
  6  8  1  0  0  0  0
  8  9  1  0  0  0  0
  9 10  1  0  0  0  0
 10 11  2  0  0  0  0
 10 12  1  0  0  0  0
 13  1  1  0  0  0  0
 13 14  1  0  0  0  0
 14 15  2  0  0  0  0
 16 15  1  0  0  0  0
 16 17  1  0  0  0  0
 17 19  1  0  0  0  0
 18 17  2  0  0  0  0
 19 22  1  0  0  0  0
 19 20  1  1  0  0  0
 22 21  2  0  0  0  0
 25 24  1  6  0  0  0
 25 23  1  0  0  0  0
 25 26  1  0  0  0  0
 26 31  1  1  0  0  0
 26 30  1  0  0  0  0
 27 30  1  0  0  0  0
 27 29  1  0  0  0  0
 28 27  2  0  0  0  0
 32 34  2  0  0  0  0
 33 34  1  0  0  0  0
 33 31  1  0  0  0  0
 34 36  1  0  0  0  0
 36 35  1  1  0  0  0
 36 37  1  0  0  0  0
 37 38  2  0  0  0  0
 39 38  1  0  0  0  0
 39 40  1  0  0  0  0
 41 40  1  0  0  0  0
M  END
>  <MODEL>
8

>  <REMARK>
 VINA RESULT:      -4.9      2.246      4.896
  Name = 
  22 active torsions:
  status: ('A' for Active; 'I' for Inactive)
    1  A    between atoms: C_3  and  N_11
    2  A    between atoms: C_3  and  C_14
    3  A    between atoms: C_4  and  C_7
    4  A    between atoms: C_4  and  C_12
    5  A    between atoms: C_8  and  C_34
    6  A    between atoms: N_10  and  O_33
    7  A    between atoms: N_11  and  N_27
    8  A    between atoms: C_13  and  C_17
    9  A    between atoms: C_13  and  C_38
   10  A    between atoms: C_14  and  C_23
   11  A    between atoms: C_15  and  C_30
   12  A    between atoms: C_15  and  C_32
   13  A    between atoms: C_16  and  C_37
   14  A    between atoms: C_16  and  C_41
   15  A    between atoms: C_17  and  N_27
   16  A    between atoms: C_19  and  C_28
   17  A    between atoms: C_19  and  C_37
   18  A    between atoms: C_21  and  C_35
   19  A    between atoms: C_22  and  C_35
   20  A    between atoms: C_23  and  N_31
   21  A    between atoms: C_23  and  O_33
   22  A    between atoms: C_34  and  C_38
                            x       y       z     vdW  Elec       q    Type
                         _______ _______ _______ _____ _____    ______ ____

>  <TORSDO>
F 22

$$$$
=
 OpenBabel11042414263D

 41 40  0  0  1  0  0  0  0  0999 V2000
  191.7040  171.2960  143.0210 C   0  0  0  0  0  0  0  0  0  0  0  0
  190.6230  171.6200  142.1320 N   0  0  0  0  0  0  0  0  0  0  0  0
  192.5820  170.4650  142.6630 O   0  0  0  0  0  0  0  0  0  0  0  0
  190.5520  171.0190  140.8650 N   0  0  0  0  0  2  0  0  0  0  0  0
  191.3250  171.8400  139.9390 C   0  0  0  0  0  2  0  0  0  0  0  0
  191.4440  171.1670  138.5730 C   0  0  1  0  0  3  0  0  0  0  0  0
  190.2270  170.3010  138.3020 C   0  0  0  0  0  1  0  0  0  0  0  0
  191.6240  172.1790  137.4450 C   0  0  0  0  0  2  0  0  0  0  0  0
  192.5760  173.3010  137.8410 C   0  0  0  0  0  2  0  0  0  0  0  0
  192.2830  174.5430  137.0690 C   0  0  0  0  0  0  0  0  0  0  0  0
  193.1830  175.6010  137.0910 O   0  0  0  0  0  1  0  0  0  0  0  0
  191.2350  174.6220  136.3760 O   0  0  0  0  0  0  0  0  0  0  0  0
  191.8240  171.9410  144.3680 C   0  0  0  0  0  2  0  0  0  0  0  0
  193.2660  172.0460  144.7730 C   0  0  0  0  0  3  0  0  0  0  0  0
  193.7640  173.0620  145.4860 C   0  0  0  0  0  3  0  0  0  0  0  0
  192.9390  174.2310  145.9280 C   0  0  0  0  0  2  0  0  0  0  0  0
  193.7250  175.4920  145.7920 C   0  0  0  0  0  0  0  0  0  0  0  0
  194.7000  175.6820  146.5030 O   0  0  0  0  0  0  0  0  0  0  0  0
  193.2920  176.5260  144.7960 C   0  0  2  0  0  3  0  0  0  0  0  0
  191.9250  176.9370  145.0600 N   0  0  0  0  0  1  0  0  0  0  0  0
  194.4530  176.1360  142.7800 O   0  0  0  0  0  0  0  0  0  0  0  0
  193.4070  176.0100  143.3980 C   0  0  0  0  0  3  0  0  0  0  0  0
  189.4830  172.4030  142.5940 C   0  0  0  0  0  2  0  0  0  0  0  0
  190.0350  174.6170  143.2940 O   0  0  0  0  0  1  0  0  0  0  0  0
  189.6440  173.8590  142.1880 C   0  0  2  0  0  3  0  0  0  0  0  0
  188.3490  174.4060  141.5900 C   0  0  2  0  0  3  0  0  0  0  0  0
  188.2380  173.7180  139.1470 C   0  0  0  0  0  0  0  0  0  0  0  0
  187.8730  172.5510  139.4490 O   0  0  0  0  0  1  0  0  0  0  0  0
  188.3660  174.0740  137.8110 O   0  0  0  0  0  0  0  0  0  0  0  0
  188.5250  174.6750  140.1660 N   0  0  0  0  0  2  0  0  0  0  0  0
  187.9630  175.5830  142.2460 O   0  0  0  0  0  0  0  0  0  0  0  0
  185.5900  177.8910  140.9090 O   0  0  0  0  0  0  0  0  0  0  0  0
  187.1300  176.2190  141.3840 N   0  0  0  0  0  2  0  0  0  0  0  0
  186.3800  177.3860  141.7470 C   0  0  0  0  0  0  0  0  0  0  0  0
  186.0980  179.3570  143.0410 O   0  0  0  0  0  1  0  0  0  0  0  0
  186.4880  178.0170  143.1020 C   0  0  1  0  0  3  0  0  0  0  0  0
  185.6760  177.2720  144.1230 C   0  0  0  0  0  3  0  0  0  0  0  0
  186.1980  176.7290  145.2280 C   0  0  0  0  0  3  0  0  0  0  0  0
  187.6550  176.8020  145.5550 C   0  0  0  0  0  2  0  0  0  0  0  0
  187.9140  176.0950  146.8690 C   0  0  0  0  0  2  0  0  0  0  0  0
  189.0450  175.1040  146.6930 C   0  0  0  0  0  1  0  0  0  0  0  0
  1 13  1  0  0  0  0
  2 23  1  0  0  0  0
  2  1  1  0  0  0  0
  3  1  2  0  0  0  0
  4  2  1  0  0  0  0
  5  4  1  0  0  0  0
  6  7  1  6  0  0  0
  6  5  1  0  0  0  0
  8  9  1  0  0  0  0
  8  6  1  0  0  0  0
 10 11  1  0  0  0  0
 10  9  1  0  0  0  0
 12 10  2  0  0  0  0
 13 14  1  0  0  0  0
 14 15  2  0  0  0  0
 15 16  1  0  0  0  0
 17 16  1  0  0  0  0
 17 18  2  0  0  0  0
 19 20  1  1  0  0  0
 19 17  1  0  0  0  0
 21 22  2  0  0  0  0
 22 19  1  0  0  0  0
 25 23  1  0  0  0  0
 25 24  1  1  0  0  0
 26 30  1  6  0  0  0
 26 25  1  0  0  0  0
 26 31  1  0  0  0  0
 27 28  1  0  0  0  0
 27 30  1  0  0  0  0
 29 27  2  0  0  0  0
 32 34  2  0  0  0  0
 33 34  1  0  0  0  0
 33 31  1  0  0  0  0
 34 36  1  0  0  0  0
 36 35  1  6  0  0  0
 36 37  1  0  0  0  0
 37 38  2  0  0  0  0
 38 39  1  0  0  0  0
 39 40  1  0  0  0  0
 41 40  1  0  0  0  0
M  END
>  <MODEL>
9

>  <REMARK>
 VINA RESULT:      -4.9      2.264      7.631
  Name = 
  22 active torsions:
  status: ('A' for Active; 'I' for Inactive)
    1  A    between atoms: C_3  and  N_11
    2  A    between atoms: C_3  and  C_14
    3  A    between atoms: C_4  and  C_7
    4  A    between atoms: C_4  and  C_12
    5  A    between atoms: C_8  and  C_34
    6  A    between atoms: N_10  and  O_33
    7  A    between atoms: N_11  and  N_27
    8  A    between atoms: C_13  and  C_17
    9  A    between atoms: C_13  and  C_38
   10  A    between atoms: C_14  and  C_23
   11  A    between atoms: C_15  and  C_30
   12  A    between atoms: C_15  and  C_32
   13  A    between atoms: C_16  and  C_37
   14  A    between atoms: C_16  and  C_41
   15  A    between atoms: C_17  and  N_27
   16  A    between atoms: C_19  and  C_28
   17  A    between atoms: C_19  and  C_37
   18  A    between atoms: C_21  and  C_35
   19  A    between atoms: C_22  and  C_35
   20  A    between atoms: C_23  and  N_31
   21  A    between atoms: C_23  and  O_33
   22  A    between atoms: C_34  and  C_38
                            x       y       z     vdW  Elec       q    Type
                         _______ _______ _______ _____ _____    ______ ____

>  <TORSDO>
F 22

$$$$
