=
 OpenBabel11042419203D

 43 52  0  0  1  0  0  0  0  0999 V2000
  185.5300  178.2750  144.2630 C   0  0  0  0  0  0  0  0  0  0  0  0
  188.1030  177.2150  144.3980 C   0  0  0  0  0  0  0  0  0  0  0  0
  187.5560  177.8740  145.4570 N   0  0  0  0  0  0  0  0  0  0  0  0
  184.2340  178.7970  144.1820 C   0  0  0  0  0  3  0  0  0  0  0  0
  187.3750  177.0740  143.2030 C   0  0  0  0  0  0  0  0  0  0  0  0
  183.5010  178.6700  143.0040 C   0  0  0  0  0  3  0  0  0  0  0  0
  185.3320  177.5130  142.0000 N   0  0  0  0  0  0  0  0  0  0  0  0
  184.0750  178.0210  141.9110 C   0  0  0  0  0  3  0  0  0  0  0  0
  186.0710  177.6080  143.1400 C   0  0  0  0  0  0  0  0  0  0  0  0
  186.3080  178.4120  145.4260 C   0  0  0  0  0  0  0  0  0  0  0  0
  190.1610  177.1850  145.8160 C   0  0  2  0  0  3  0  0  0  0  0  0
  190.4910  177.8490  144.4700 C   0  0  1  0  0  3  0  0  0  0  0  0
  192.5010  176.3960  146.3550 C   0  0  0  0  0  2  0  0  0  0  0  0
  192.3300  176.0890  143.8310 C   0  0  0  0  0  2  0  0  0  0  0  0
  193.1750  175.8600  145.0930 C   0  0  1  0  0  3  0  0  0  0  0  0
  191.8130  177.5210  143.7420 C   0  0  0  0  0  2  0  0  0  0  0  0
  191.0240  176.0450  146.3530 C   0  0  0  0  0  2  0  0  0  0  0  0
  189.5060  176.6950  144.5230 C   0  0  2  0  0  3  0  0  0  0  0  0
  195.5710  175.3850  144.9190 N   0  0  1  0  0  0  0  0  0  0  0  0
  195.1690  176.0960  143.6830 C   0  0  2  0  0  3  0  0  0  0  0  0
  196.5770  175.7880  143.9190 C   0  0  0  0  0  2  0  0  0  0  0  0
  194.5660  176.4650  144.9610 C   0  0  1  0  0  3  0  0  0  0  0  0
  185.7690  179.0910  146.6570 C   0  0  0  0  0  3  0  0  0  0  0  0
  186.5730  178.6660  147.8720 C   0  0  0  0  0  2  0  0  0  0  0  0
  185.2030  178.0770  147.6380 C   0  0  0  0  0  2  0  0  0  0  0  0
  187.9810  176.4200  142.1210 O   0  0  0  0  0  0  0  0  0  0  0  0
  188.5620  174.6820  140.5720 C   0  0  0  0  0  2  0  0  0  0  0  0
  188.9070  174.2270  141.9730 C   0  0  1  0  0  3  0  0  0  0  0  0
  187.6830  175.0860  141.7360 C   0  0  1  0  0  3  0  0  0  0  0  0
  188.4630  172.7930  142.1870 C   0  0  0  0  0  2  0  0  0  0  0  0
  192.1490  169.4870  142.8030 C   0  0  0  0  0  0  0  0  0  0  0  0
  193.6230  170.2570  144.6920 C   0  0  0  0  0  2  0  0  0  0  0  0
  190.2470  170.9570  142.1430 N   0  0  0  0  0  0  0  0  0  0  0  0
  191.5950  171.5310  144.0620 C   0  0  2  0  0  3  0  0  0  0  0  0
  191.7860  168.4940  141.8510 N   0  0  0  0  0  1  0  0  0  0  0  0
  193.1490  169.2420  143.6660 C   0  0  0  0  0  3  0  0  0  0  0  0
  190.7120  173.0650  143.8170 S   0  0  0  0  0  0  0  0  0  0  0  0
  189.5340  171.9920  142.9320 C   0  0  1  0  0  3  0  0  0  0  0  0
  193.0390  171.6680  144.4960 C   0  0  0  0  0  2  0  0  0  0  0  0
  191.5880  170.8780  142.7090 C   0  0  1  0  0  3  0  0  0  0  0  0
  190.4400  171.3870  140.7570 C   0  0  0  0  0  2  0  0  0  0  0  0
  191.7090  171.9510  140.6210 O   0  0  0  0  0  0  0  0  0  0  0  0
  191.5800  172.8440  139.5590 C   0  0  0  0  0  1  0  0  0  0  0  0
  1 10  1  0  0  0  0
  2  3  1  0  0  0  0
  4  1  1  0  0  0  0
  5  2  2  0  0  0  0
  6  4  2  0  0  0  0
  7  9  1  0  0  0  0
  8  7  2  0  0  0  0
  8  6  1  0  0  0  0
  9  5  1  0  0  0  0
  9  1  2  0  0  0  0
 10  3  2  0  0  0  0
 10 23  1  0  0  0  0
 11 17  1  6  0  0  0
 12 16  1  6  0  0  0
 12 18  1  0  0  0  0
 12 11  1  0  0  0  0
 15 14  1  6  0  0  0
 15 13  1  0  0  0  0
 16 14  1  0  0  0  0
 17 13  1  0  0  0  0
 18  2  1  1  0  0  0
 18 11  1  0  0  0  0
 19 21  1  1  0  0  0
 19 22  1  0  0  0  0
 20 21  1  1  0  0  0
 20 19  1  0  0  0  0
 20 22  1  0  0  0  0
 22 15  1  6  0  0  0
 23 25  1  0  0  0  0
 23 24  1  0  0  0  0
 25 24  1  0  0  0  0
 26  5  1  0  0  0  0
 27 29  1  0  0  0  0
 27 28  1  0  0  0  0
 28 30  1  6  0  0  0
 29 28  1  0  0  0  0
 29 26  1  1  0  0  0
 31 36  2  0  0  0  0
 33 40  1  0  0  0  0
 33 38  1  0  0  0  0
 34 39  1  6  0  0  0
 35 31  1  0  0  0  0
 36 32  1  0  0  0  0
 37 34  1  0  0  0  0
 38 30  1  6  0  0  0
 38 37  1  0  0  0  0
 39 32  1  0  0  0  0
 40 31  1  1  0  0  0
 40 34  1  0  0  0  0
 41 33  1  0  0  0  0
 42 41  1  0  0  0  0
 43 42  1  0  0  0  0
M  END
>  <MODEL>
1

>  <REMARK>
 VINA RESULT:      -8.4      0.000      0.000
  Name = 
  9 active torsions:
  status: ('A' for Active; 'I' for Inactive)
    1  A    between atoms: C_3  and  C_43
    2  A    between atoms: O_4  and  C_11
    3  A    between atoms: O_4  and  C_19
    4  A    between atoms: C_6  and  C_32
    5  A    between atoms: C_12  and  C_16
    6  A    between atoms: C_16  and  C_36
    7  A    between atoms: N_17  and  C_38
    8  A    between atoms: C_29  and  C_30
    9  A    between atoms: O_34  and  C_38
                            x       y       z     vdW  Elec       q    Type
                         _______ _______ _______ _____ _____    ______ ____

>  <TORSDO>
F 9

$$$$
=
 OpenBabel11042419203D

 43 52  0  0  1  0  0  0  0  0999 V2000
  185.7170  178.1760  143.8870 C   0  0  0  0  0  0  0  0  0  0  0  0
  188.1670  177.0110  144.5230 C   0  0  0  0  0  0  0  0  0  0  0  0
  187.4620  177.7180  145.4480 N   0  0  0  0  0  0  0  0  0  0  0  0
  184.4850  178.7510  143.5540 C   0  0  0  0  0  3  0  0  0  0  0  0
  187.6720  176.8730  143.2140 C   0  0  0  0  0  0  0  0  0  0  0  0
  183.9820  178.6270  142.2600 C   0  0  0  0  0  3  0  0  0  0  0  0
  185.9130  177.3690  141.6390 N   0  0  0  0  0  0  0  0  0  0  0  0
  184.7210  177.9280  141.3060 C   0  0  0  0  0  3  0  0  0  0  0  0
  186.4280  177.4600  142.8970 C   0  0  0  0  0  0  0  0  0  0  0  0
  186.2680  178.3070  145.1740 C   0  0  0  0  0  0  0  0  0  0  0  0
  190.1040  177.2090  146.0890 C   0  0  2  0  0  3  0  0  0  0  0  0
  190.5970  177.4460  144.6520 C   0  0  1  0  0  3  0  0  0  0  0  0
  192.3050  176.4160  147.0450 C   0  0  0  0  0  2  0  0  0  0  0  0
  192.2830  175.4360  144.6930 C   0  0  0  0  0  2  0  0  0  0  0  0
  193.0080  175.4990  146.0460 C   0  0  1  0  0  3  0  0  0  0  0  0
  191.9260  176.8240  144.1720 C   0  0  0  0  0  2  0  0  0  0  0  0
  190.8030  176.1970  146.9940 C   0  0  0  0  0  2  0  0  0  0  0  0
  189.4960  176.4350  144.9180 C   0  0  2  0  0  3  0  0  0  0  0  0
  195.3400  174.7510  146.0180 N   0  0  1  0  0  0  0  0  0  0  0  0
  195.0470  175.3410  144.6910 C   0  0  2  0  0  3  0  0  0  0  0  0
  196.4060  174.9160  145.0130 C   0  0  0  0  0  2  0  0  0  0  0  0
  194.4600  175.9290  145.8920 C   0  0  1  0  0  3  0  0  0  0  0  0
  185.5400  179.0390  146.2690 C   0  0  0  0  0  3  0  0  0  0  0  0
  186.0020  178.5290  147.6220 C   0  0  0  0  0  2  0  0  0  0  0  0
  184.6660  178.0890  147.0740 C   0  0  0  0  0  2  0  0  0  0  0  0
  188.4390  176.1670  142.2760 O   0  0  0  0  0  0  0  0  0  0  0  0
  188.5660  174.4480  140.6070 C   0  0  0  0  0  2  0  0  0  0  0  0
  189.6890  174.2510  141.6020 C   0  0  1  0  0  3  0  0  0  0  0  0
  188.3440  174.7650  142.0700 C   0  0  1  0  0  3  0  0  0  0  0  0
  189.8110  172.7870  141.9800 C   0  0  0  0  0  2  0  0  0  0  0  0
  193.4520  170.0860  144.0630 C   0  0  0  0  0  0  0  0  0  0  0  0
  195.6260  171.3310  143.8230 C   0  0  0  0  0  2  0  0  0  0  0  0
  191.4160  171.0980  143.0400 N   0  0  0  0  0  0  0  0  0  0  0  0
  193.5010  172.3160  143.0150 C   0  0  2  0  0  3  0  0  0  0  0  0
  192.7100  168.9950  144.5970 N   0  0  0  0  0  1  0  0  0  0  0  0
  194.7520  170.2170  144.3750 C   0  0  0  0  0  3  0  0  0  0  0  0
  192.5560  173.2710  141.8390 S   0  0  0  0  0  0  0  0  0  0  0  0
  191.1360  172.5140  142.6950 C   0  0  1  0  0  3  0  0  0  0  0  0
  194.9700  172.1420  142.6900 C   0  0  0  0  0  2  0  0  0  0  0  0
  192.8660  170.9540  142.9860 C   0  0  1  0  0  3  0  0  0  0  0  0
  190.9020  170.1910  142.0130 C   0  0  0  0  0  2  0  0  0  0  0  0
  191.8840  169.9850  141.0440 O   0  0  0  0  0  0  0  0  0  0  0  0
  191.1920  170.0180  139.8350 C   0  0  0  0  0  1  0  0  0  0  0  0
  1 10  1  0  0  0  0
  2  3  1  0  0  0  0
  4  1  1  0  0  0  0
  5  2  2  0  0  0  0
  6  4  2  0  0  0  0
  7  9  1  0  0  0  0
  8  7  2  0  0  0  0
  8  6  1  0  0  0  0
  9  5  1  0  0  0  0
  9  1  2  0  0  0  0
 10  3  2  0  0  0  0
 10 23  1  0  0  0  0
 11 17  1  1  0  0  0
 12 16  1  1  0  0  0
 12 18  1  0  0  0  0
 12 11  1  0  0  0  0
 15 14  1  6  0  0  0
 15 13  1  0  0  0  0
 16 14  1  0  0  0  0
 17 13  1  0  0  0  0
 18  2  1  6  0  0  0
 18 11  1  0  0  0  0
 19 21  1  1  0  0  0
 20 21  1  1  0  0  0
 20 22  1  0  0  0  0
 20 19  1  0  0  0  0
 22 19  1  0  0  0  0
 22 15  1  6  0  0  0
 23 25  1  0  0  0  0
 23 24  1  0  0  0  0
 25 24  1  0  0  0  0
 26  5  1  0  0  0  0
 27 28  1  0  0  0  0
 27 29  1  0  0  0  0
 28 30  1  1  0  0  0
 28 29  1  0  0  0  0
 29 26  1  6  0  0  0
 31 36  2  0  0  0  0
 31 35  1  0  0  0  0
 32 36  1  0  0  0  0
 34 39  1  6  0  0  0
 37 38  1  0  0  0  0
 37 34  1  0  0  0  0
 38 30  1  6  0  0  0
 38 33  1  0  0  0  0
 39 32  1  0  0  0  0
 40 34  1  0  0  0  0
 40 33  1  0  0  0  0
 40 31  1  1  0  0  0
 41 33  1  0  0  0  0
 42 41  1  0  0  0  0
 43 42  1  0  0  0  0
M  END
>  <MODEL>
2

>  <REMARK>
 VINA RESULT:      -8.1      1.254      1.392
  Name = 
  9 active torsions:
  status: ('A' for Active; 'I' for Inactive)
    1  A    between atoms: C_3  and  C_43
    2  A    between atoms: O_4  and  C_11
    3  A    between atoms: O_4  and  C_19
    4  A    between atoms: C_6  and  C_32
    5  A    between atoms: C_12  and  C_16
    6  A    between atoms: C_16  and  C_36
    7  A    between atoms: N_17  and  C_38
    8  A    between atoms: C_29  and  C_30
    9  A    between atoms: O_34  and  C_38
                            x       y       z     vdW  Elec       q    Type
                         _______ _______ _______ _____ _____    ______ ____

>  <TORSDO>
F 9

$$$$
=
 OpenBabel11042419203D

 43 52  0  0  1  0  0  0  0  0999 V2000
  186.3520  177.7400  145.3610 C   0  0  0  0  0  0  0  0  0  0  0  0
  188.1260  175.8740  144.2950 C   0  0  0  0  0  0  0  0  0  0  0  0
  187.0680  176.3330  143.5710 N   0  0  0  0  0  0  0  0  0  0  0  0
  185.4720  178.6810  145.9080 C   0  0  0  0  0  3  0  0  0  0  0  0
  188.3300  176.3270  145.6100 C   0  0  0  0  0  0  0  0  0  0  0  0
  185.6570  179.1370  147.2120 C   0  0  0  0  0  3  0  0  0  0  0  0
  187.5760  177.7320  147.4200 N   0  0  0  0  0  0  0  0  0  0  0  0
  186.7250  178.6420  147.9610 C   0  0  0  0  0  3  0  0  0  0  0  0
  187.4320  177.2750  146.1450 C   0  0  0  0  0  0  0  0  0  0  0  0
  186.1770  177.2360  144.0590 C   0  0  0  0  0  0  0  0  0  0  0  0
  189.4000  175.2310  142.2430 C   0  0  2  0  0  3  0  0  0  0  0  0
  188.3200  174.1720  142.5130 C   0  0  1  0  0  3  0  0  0  0  0  0
  190.9890  173.7360  140.9670 C   0  0  0  0  0  2  0  0  0  0  0  0
  190.0390  172.2050  142.7680 C   0  0  0  0  0  2  0  0  0  0  0  0
  191.0560  172.3610  141.6270 C   0  0  1  0  0  3  0  0  0  0  0  0
  188.6460  172.6700  142.3580 C   0  0  0  0  0  2  0  0  0  0  0  0
  190.8550  174.8210  142.0220 C   0  0  0  0  0  2  0  0  0  0  0  0
  189.0270  174.8460  143.6760 C   0  0  2  0  0  3  0  0  0  0  0  0
  190.3920  171.8830  139.3190 N   0  0  1  0  0  0  0  0  0  0  0  0
  191.8150  171.4980  139.4600 C   0  0  2  0  0  3  0  0  0  0  0  0
  191.1060  171.2130  138.2160 C   0  0  0  0  0  2  0  0  0  0  0  0
  190.8920  171.2780  140.5690 C   0  0  1  0  0  3  0  0  0  0  0  0
  185.0570  177.7170  143.1750 C   0  0  0  0  0  3  0  0  0  0  0  0
  185.4100  177.4690  141.7200 C   0  0  0  0  0  2  0  0  0  0  0  0
  185.5150  178.8640  142.2880 C   0  0  0  0  0  2  0  0  0  0  0  0
  189.4100  175.8080  146.3400 O   0  0  0  0  0  0  0  0  0  0  0  0
  191.2480  176.5840  147.6740 C   0  0  0  0  0  2  0  0  0  0  0  0
  191.6730  175.3380  146.9270 C   0  0  1  0  0  3  0  0  0  0  0  0
  190.7300  176.3270  146.2740 C   0  0  1  0  0  3  0  0  0  0  0  0
  193.0580  175.5220  146.3380 C   0  0  0  0  0  2  0  0  0  0  0  0
  194.4820  174.4400  141.6800 C   0  0  0  0  0  0  0  0  0  0  0  0
  194.9130  171.9650  141.5170 C   0  0  0  0  0  2  0  0  0  0  0  0
  193.8450  175.3620  143.9070 N   0  0  0  0  0  0  0  0  0  0  0  0
  194.0950  172.9770  143.6250 C   0  0  2  0  0  3  0  0  0  0  0  0
  194.3540  175.7110  141.0540 N   0  0  0  0  0  1  0  0  0  0  0  0
  194.7290  173.3540  140.9280 C   0  0  0  0  0  3  0  0  0  0  0  0
  194.0590  173.0890  145.4070 S   0  0  0  0  0  0  0  0  0  0  0  0
  193.2320  174.6780  145.0720 C   0  0  1  0  0  3  0  0  0  0  0  0
  195.0430  171.9450  143.0510 C   0  0  0  0  0  2  0  0  0  0  0  0
  194.5700  174.3300  143.1760 C   0  0  1  0  0  3  0  0  0  0  0  0
  194.8670  176.3210  144.3310 C   0  0  0  0  0  2  0  0  0  0  0  0
  196.1310  175.8070  144.0430 O   0  0  0  0  0  0  0  0  0  0  0  0
  196.8000  176.8600  143.4220 C   0  0  0  0  0  1  0  0  0  0  0  0
  1  4  1  0  0  0  0
  1  9  1  0  0  0  0
  2  5  1  0  0  0  0
  3 10  1  0  0  0  0
  3  2  2  0  0  0  0
  4  6  2  0  0  0  0
  5  9  2  0  0  0  0
  5 26  1  0  0  0  0
  6  8  1  0  0  0  0
  7  8  2  0  0  0  0
  9  7  1  0  0  0  0
 10  1  2  0  0  0  0
 11 17  1  6  0  0  0
 11 12  1  0  0  0  0
 11 18  1  0  0  0  0
 12 16  1  6  0  0  0
 12 18  1  0  0  0  0
 13 17  1  0  0  0  0
 15 13  1  6  0  0  0
 15 14  1  0  0  0  0
 16 14  1  0  0  0  0
 18  2  1  1  0  0  0
 19 21  1  6  0  0  0
 19 20  1  0  0  0  0
 19 22  1  0  0  0  0
 20 21  1  6  0  0  0
 20 22  1  0  0  0  0
 22 15  1  1  0  0  0
 23 10  1  0  0  0  0
 24 25  1  0  0  0  0
 24 23  1  0  0  0  0
 25 23  1  0  0  0  0
 28 30  1  6  0  0  0
 28 27  1  0  0  0  0
 29 26  1  1  0  0  0
 29 28  1  0  0  0  0
 29 27  1  0  0  0  0
 32 39  1  0  0  0  0
 33 41  1  0  0  0  0
 33 38  1  0  0  0  0
 34 39  1  1  0  0  0
 34 37  1  0  0  0  0
 35 31  1  0  0  0  0
 36 32  1  0  0  0  0
 36 31  2  0  0  0  0
 38 37  1  0  0  0  0
 38 30  1  1  0  0  0
 40 31  1  6  0  0  0
 40 34  1  0  0  0  0
 40 33  1  0  0  0  0
 42 41  1  0  0  0  0
 43 42  1  0  0  0  0
M  END
>  <MODEL>
3

>  <REMARK>
 VINA RESULT:      -8.0      2.252      5.433
  Name = 
  9 active torsions:
  status: ('A' for Active; 'I' for Inactive)
    1  A    between atoms: C_3  and  C_43
    2  A    between atoms: O_4  and  C_11
    3  A    between atoms: O_4  and  C_19
    4  A    between atoms: C_6  and  C_32
    5  A    between atoms: C_12  and  C_16
    6  A    between atoms: C_16  and  C_36
    7  A    between atoms: N_17  and  C_38
    8  A    between atoms: C_29  and  C_30
    9  A    between atoms: O_34  and  C_38
                            x       y       z     vdW  Elec       q    Type
                         _______ _______ _______ _____ _____    ______ ____

>  <TORSDO>
F 9

$$$$
=
 OpenBabel11042419203D

 43 52  0  0  1  0  0  0  0  0999 V2000
  193.9060  173.4710  145.3720 C   0  0  0  0  0  0  0  0  0  0  0  0
  191.2900  174.4330  145.3690 C   0  0  0  0  0  0  0  0  0  0  0  0
  192.3230  175.2020  145.8110 N   0  0  0  0  0  0  0  0  0  0  0  0
  195.2140  172.9760  145.3630 C   0  0  0  0  0  3  0  0  0  0  0  0
  191.5290  173.1220  144.9200 C   0  0  0  0  0  0  0  0  0  0  0  0
  195.4680  171.6770  144.9250 C   0  0  0  0  0  3  0  0  0  0  0  0
  193.1370  171.3720  144.5090 N   0  0  0  0  0  0  0  0  0  0  0  0
  194.4040  170.8810  144.5010 C   0  0  0  0  0  3  0  0  0  0  0  0
  192.8550  172.6400  144.9190 C   0  0  0  0  0  0  0  0  0  0  0  0
  193.6100  174.7660  145.8350 C   0  0  0  0  0  0  0  0  0  0  0  0
  189.6360  175.9220  144.2330 C   0  0  2  0  0  3  0  0  0  0  0  0
  189.9610  176.5030  145.6190 C   0  0  1  0  0  3  0  0  0  0  0  0
  187.3400  176.9540  143.9960 C   0  0  0  0  0  2  0  0  0  0  0  0
  187.4830  176.3670  146.4710 C   0  0  0  0  0  2  0  0  0  0  0  0
  186.5970  176.8860  145.3290 C   0  0  1  0  0  3  0  0  0  0  0  0
  188.8350  177.0710  146.5100 C   0  0  0  0  0  2  0  0  0  0  0  0
  188.1870  175.7080  143.8000 C   0  0  0  0  0  2  0  0  0  0  0  0
  189.9010  174.9980  145.4230 C   0  0  2  0  0  3  0  0  0  0  0  0
  186.0760  179.1140  144.4570 N   0  0  1  0  0  0  0  0  0  0  0  0
  184.7960  178.4810  144.8520 C   0  0  2  0  0  3  0  0  0  0  0  0
  184.8120  179.8710  144.4060 C   0  0  0  0  0  2  0  0  0  0  0  0
  185.9970  178.2470  145.6490 C   0  0  1  0  0  3  0  0  0  0  0  0
  194.6950  175.6980  146.3060 C   0  0  0  0  0  3  0  0  0  0  0  0
  194.1150  177.0790  146.5470 C   0  0  0  0  0  2  0  0  0  0  0  0
  194.9280  176.8160  145.3020 C   0  0  0  0  0  2  0  0  0  0  0  0
  190.4390  172.3450  144.5040 O   0  0  0  0  0  0  0  0  0  0  0  0
  188.9320  172.2460  142.6390 C   0  0  0  0  0  2  0  0  0  0  0  0
  190.1720  173.0090  142.2290 C   0  0  1  0  0  3  0  0  0  0  0  0
  190.2840  171.8410  143.1850 C   0  0  1  0  0  3  0  0  0  0  0  0
  190.6370  172.5630  140.8560 C   0  0  0  0  0  2  0  0  0  0  0  0
  194.6540  173.8800  138.2030 C   0  0  0  0  0  0  0  0  0  0  0  0
  196.0790  175.4160  139.5970 C   0  0  0  0  0  2  0  0  0  0  0  0
  192.4970  173.0970  139.1780 N   0  0  0  0  0  0  0  0  0  0  0  0
  194.0070  174.4200  140.5190 C   0  0  2  0  0  3  0  0  0  0  0  0
  194.4670  173.1050  137.0250 N   0  0  0  0  0  1  0  0  0  0  0  0
  195.8090  174.5400  138.3850 C   0  0  0  0  0  3  0  0  0  0  0  0
  192.5290  174.5060  141.5180 S   0  0  0  0  0  0  0  0  0  0  0  0
  192.0840  172.9960  140.6000 C   0  0  1  0  0  3  0  0  0  0  0  0
  194.8370  175.6850  140.4670 C   0  0  0  0  0  2  0  0  0  0  0  0
  193.5010  174.1520  139.1300 C   0  0  1  0  0  3  0  0  0  0  0  0
  191.3970  173.5760  138.3390 C   0  0  0  0  0  2  0  0  0  0  0  0
  191.0930  172.6100  137.3800 O   0  0  0  0  0  0  0  0  0  0  0  0
  189.7170  172.7300  137.1900 C   0  0  0  0  0  1  0  0  0  0  0  0
  1 10  1  0  0  0  0
  2  3  1  0  0  0  0
  3 10  2  0  0  0  0
  4  1  1  0  0  0  0
  5  2  2  0  0  0  0
  6  4  2  0  0  0  0
  7  9  1  0  0  0  0
  8  7  2  0  0  0  0
  8  6  1  0  0  0  0
  9  5  1  0  0  0  0
  9  1  2  0  0  0  0
 10 23  1  0  0  0  0
 11 17  1  1  0  0  0
 11 18  1  0  0  0  0
 11 12  1  0  0  0  0
 12 16  1  1  0  0  0
 14 16  1  0  0  0  0
 15 13  1  6  0  0  0
 15 14  1  0  0  0  0
 17 13  1  0  0  0  0
 18  2  1  6  0  0  0
 18 12  1  0  0  0  0
 19 21  1  1  0  0  0
 19 20  1  0  0  0  0
 19 22  1  0  0  0  0
 20 21  1  1  0  0  0
 20 22  1  0  0  0  0
 22 15  1  6  0  0  0
 23 24  1  0  0  0  0
 25 23  1  0  0  0  0
 25 24  1  0  0  0  0
 26  5  1  0  0  0  0
 27 29  1  0  0  0  0
 28 30  1  6  0  0  0
 28 27  1  0  0  0  0
 28 29  1  0  0  0  0
 29 26  1  1  0  0  0
 31 36  2  0  0  0  0
 32 39  1  0  0  0  0
 33 38  1  0  0  0  0
 34 39  1  6  0  0  0
 34 37  1  0  0  0  0
 35 31  1  0  0  0  0
 36 32  1  0  0  0  0
 38 30  1  6  0  0  0
 38 37  1  0  0  0  0
 40 31  1  6  0  0  0
 40 33  1  0  0  0  0
 40 34  1  0  0  0  0
 41 33  1  0  0  0  0
 42 41  1  0  0  0  0
 43 42  1  0  0  0  0
M  END
>  <MODEL>
4

>  <REMARK>
 VINA RESULT:      -7.6      2.578      7.230
  Name = 
  9 active torsions:
  status: ('A' for Active; 'I' for Inactive)
    1  A    between atoms: C_3  and  C_43
    2  A    between atoms: O_4  and  C_11
    3  A    between atoms: O_4  and  C_19
    4  A    between atoms: C_6  and  C_32
    5  A    between atoms: C_12  and  C_16
    6  A    between atoms: C_16  and  C_36
    7  A    between atoms: N_17  and  C_38
    8  A    between atoms: C_29  and  C_30
    9  A    between atoms: O_34  and  C_38
                            x       y       z     vdW  Elec       q    Type
                         _______ _______ _______ _____ _____    ______ ____

>  <TORSDO>
F 9

$$$$
=
 OpenBabel11042419203D

 43 52  0  0  1  0  0  0  0  0999 V2000
  192.1300  174.9580  145.5180 C   0  0  0  0  0  0  0  0  0  0  0  0
  192.6430  174.6320  142.7980 C   0  0  0  0  0  0  0  0  0  0  0  0
  193.6290  175.0000  143.6620 N   0  0  0  0  0  0  0  0  0  0  0  0
  191.8590  175.1120  146.8820 C   0  0  0  0  0  3  0  0  0  0  0  0
  191.3340  174.4270  143.2690 C   0  0  0  0  0  0  0  0  0  0  0  0
  190.5660  174.9160  147.3650 C   0  0  0  0  0  3  0  0  0  0  0  0
  189.8250  174.4180  145.1510 N   0  0  0  0  0  0  0  0  0  0  0  0
  189.5510  174.5700  146.4730 C   0  0  0  0  0  3  0  0  0  0  0  0
  191.0790  174.5880  144.6480 C   0  0  0  0  0  0  0  0  0  0  0  0
  193.4170  175.1760  144.9930 C   0  0  0  0  0  0  0  0  0  0  0  0
  193.3650  173.0690  140.9880 C   0  0  2  0  0  3  0  0  0  0  0  0
  194.4430  174.1490  141.1740 C   0  0  1  0  0  3  0  0  0  0  0  0
  193.8910  172.5190  138.5770 C   0  0  0  0  0  2  0  0  0  0  0  0
  194.2530  175.0370  138.7120 C   0  0  0  0  0  2  0  0  0  0  0  0
  194.1920  173.8010  137.8030 C   0  0  1  0  0  3  0  0  0  0  0  0
  195.1170  174.7970  139.9450 C   0  0  0  0  0  2  0  0  0  0  0  0
  192.7980  172.7660  139.6020 C   0  0  0  0  0  2  0  0  0  0  0  0
  192.9760  174.5050  141.3400 C   0  0  2  0  0  3  0  0  0  0  0  0
  195.1680  173.7210  135.5590 N   0  0  1  0  0  0  0  0  0  0  0  0
  195.8020  174.8490  136.2790 C   0  0  2  0  0  3  0  0  0  0  0  0
  196.2750  174.4790  134.9480 C   0  0  0  0  0  2  0  0  0  0  0  0
  195.4730  173.6230  137.0000 C   0  0  1  0  0  3  0  0  0  0  0  0
  194.5750  175.5470  145.8810 C   0  0  0  0  0  3  0  0  0  0  0  0
  195.8250  175.7330  145.0410 C   0  0  0  0  0  2  0  0  0  0  0  0
  195.6500  174.4730  145.8530 C   0  0  0  0  0  2  0  0  0  0  0  0
  190.3350  174.0830  142.3480 O   0  0  0  0  0  0  0  0  0  0  0  0
  188.5690  174.3140  140.7390 C   0  0  0  0  0  2  0  0  0  0  0  0
  188.0920  174.8440  142.0740 C   0  0  1  0  0  3  0  0  0  0  0  0
  189.5350  175.0320  141.6580 C   0  0  1  0  0  3  0  0  0  0  0  0
  187.3550  176.1570  141.8890 C   0  0  0  0  0  2  0  0  0  0  0  0
  186.4540  177.9250  146.4670 C   0  0  0  0  0  0  0  0  0  0  0  0
  184.0670  178.7160  146.5770 C   0  0  0  0  0  2  0  0  0  0  0  0
  187.2910  177.0640  144.2820 N   0  0  0  0  0  0  0  0  0  0  0  0
  184.9650  177.6680  144.5200 C   0  0  2  0  0  3  0  0  0  0  0  0
  187.6880  177.6410  147.1160 N   0  0  0  0  0  1  0  0  0  0  0  0
  185.4100  178.3590  147.1920 C   0  0  0  0  0  3  0  0  0  0  0  0
  185.0850  177.5390  142.7430 S   0  0  0  0  0  0  0  0  0  0  0  0
  186.5350  176.5060  143.1340 C   0  0  1  0  0  3  0  0  0  0  0  0
  184.0780  178.7800  145.0380 C   0  0  0  0  0  2  0  0  0  0  0  0
  186.3690  177.9620  144.9670 C   0  0  1  0  0  3  0  0  0  0  0  0
  188.3920  177.9170  143.8290 C   0  0  0  0  0  2  0  0  0  0  0  0
  189.5640  177.5490  144.4890 O   0  0  0  0  0  0  0  0  0  0  0  0
  190.5860  178.0660  143.6960 C   0  0  0  0  0  1  0  0  0  0  0  0
  1  4  1  0  0  0  0
  2  5  2  0  0  0  0
  2  3  1  0  0  0  0
  3 10  2  0  0  0  0
  4  6  2  0  0  0  0
  5  9  1  0  0  0  0
  7  8  2  0  0  0  0
  8  6  1  0  0  0  0
  9  7  1  0  0  0  0
  9  1  2  0  0  0  0
 10  1  1  0  0  0  0
 10 23  1  0  0  0  0
 11 17  1  6  0  0  0
 11 12  1  0  0  0  0
 11 18  1  0  0  0  0
 12 16  1  6  0  0  0
 12 18  1  0  0  0  0
 13 17  1  0  0  0  0
 14 16  1  0  0  0  0
 15 13  1  1  0  0  0
 15 14  1  0  0  0  0
 18  2  1  1  0  0  0
 19 21  1  6  0  0  0
 19 20  1  0  0  0  0
 19 22  1  0  0  0  0
 20 21  1  6  0  0  0
 20 22  1  0  0  0  0
 22 15  1  1  0  0  0
 24 25  1  0  0  0  0
 24 23  1  0  0  0  0
 25 23  1  0  0  0  0
 26  5  1  0  0  0  0
 27 29  1  0  0  0  0
 27 28  1  0  0  0  0
 28 30  1  6  0  0  0
 29 28  1  0  0  0  0
 29 26  1  1  0  0  0
 31 35  1  0  0  0  0
 31 36  2  0  0  0  0
 32 36  1  0  0  0  0
 33 40  1  0  0  0  0
 34 40  1  0  0  0  0
 34 39  1  6  0  0  0
 37 38  1  0  0  0  0
 37 34  1  0  0  0  0
 38 30  1  6  0  0  0
 38 33  1  0  0  0  0
 39 32  1  0  0  0  0
 40 31  1  1  0  0  0
 41 33  1  0  0  0  0
 41 42  1  0  0  0  0
 43 42  1  0  0  0  0
M  END
>  <MODEL>
5

>  <REMARK>
 VINA RESULT:      -7.4      3.014      7.913
  Name = 
  9 active torsions:
  status: ('A' for Active; 'I' for Inactive)
    1  A    between atoms: C_3  and  C_43
    2  A    between atoms: O_4  and  C_11
    3  A    between atoms: O_4  and  C_19
    4  A    between atoms: C_6  and  C_32
    5  A    between atoms: C_12  and  C_16
    6  A    between atoms: C_16  and  C_36
    7  A    between atoms: N_17  and  C_38
    8  A    between atoms: C_29  and  C_30
    9  A    between atoms: O_34  and  C_38
                            x       y       z     vdW  Elec       q    Type
                         _______ _______ _______ _____ _____    ______ ____

>  <TORSDO>
F 9

$$$$
=
 OpenBabel11042419203D

 43 52  0  0  1  0  0  0  0  0999 V2000
  185.4820  178.2270  144.1740 C   0  0  0  0  0  0  0  0  0  0  0  0
  188.0420  177.1560  144.4360 C   0  0  0  0  0  0  0  0  0  0  0  0
  187.4300  177.7820  145.4780 N   0  0  0  0  0  0  0  0  0  0  0  0
  184.1950  178.7550  144.0300 C   0  0  0  0  0  3  0  0  0  0  0  0
  187.3900  177.0560  143.1940 C   0  0  0  0  0  0  0  0  0  0  0  0
  183.5360  178.6680  142.8040 C   0  0  0  0  0  3  0  0  0  0  0  0
  185.4260  177.5390  141.8800 N   0  0  0  0  0  0  0  0  0  0  0  0
  184.1770  178.0530  141.7290 C   0  0  0  0  0  3  0  0  0  0  0  0
  186.0920  177.5950  143.0660 C   0  0  0  0  0  0  0  0  0  0  0  0
  186.1870  178.3240  145.3880 C   0  0  0  0  0  0  0  0  0  0  0  0
  190.0660  177.2030  145.8990 C   0  0  2  0  0  3  0  0  0  0  0  0
  190.4370  177.7640  144.5170 C   0  0  1  0  0  3  0  0  0  0  0  0
  192.3820  176.4270  146.5490 C   0  0  0  0  0  2  0  0  0  0  0  0
  192.2630  175.9380  144.0510 C   0  0  0  0  0  2  0  0  0  0  0  0
  193.0760  175.7920  145.3460 C   0  0  1  0  0  3  0  0  0  0  0  0
  191.7700  177.3660  143.8460 C   0  0  0  0  0  2  0  0  0  0  0  0
  190.9000  176.0950  146.5380 C   0  0  0  0  0  2  0  0  0  0  0  0
  189.4340  176.6290  144.6310 C   0  0  2  0  0  3  0  0  0  0  0  0
  195.4560  175.2650  145.1000 N   0  0  1  0  0  0  0  0  0  0  0  0
  195.0440  176.0290  143.9000 C   0  0  2  0  0  3  0  0  0  0  0  0
  196.4480  175.6790  144.0910 C   0  0  0  0  0  2  0  0  0  0  0  0
  194.4790  176.3670  145.2030 C   0  0  1  0  0  3  0  0  0  0  0  0
  185.5730  178.9650  146.6030 C   0  0  0  0  0  3  0  0  0  0  0  0
  186.5340  178.8720  147.7740 C   0  0  0  0  0  2  0  0  0  0  0  0
  185.3470  177.9420  147.7060 C   0  0  0  0  0  2  0  0  0  0  0  0
  188.0620  176.4360  142.1310 O   0  0  0  0  0  0  0  0  0  0  0  0
  187.8200  174.0550  141.9480 C   0  0  0  0  0  2  0  0  0  0  0  0
  188.7900  174.5330  140.8900 C   0  0  1  0  0  3  0  0  0  0  0  0
  188.7590  175.2040  142.2470 C   0  0  1  0  0  3  0  0  0  0  0  0
  189.9970  173.6160  140.8260 C   0  0  0  0  0  2  0  0  0  0  0  0
  191.6940  170.8340  137.0480 C   0  0  0  0  0  0  0  0  0  0  0  0
  190.4040  171.4170  134.9660 C   0  0  0  0  0  2  0  0  0  0  0  0
  191.0430  171.9660  139.1720 N   0  0  0  0  0  0  0  0  0  0  0  0
  189.9800  172.6040  137.0990 C   0  0  2  0  0  3  0  0  0  0  0  0
  192.7650  170.1430  137.6790 N   0  0  0  0  0  1  0  0  0  0  0  0
  191.5380  170.7390  135.7170 C   0  0  0  0  0  3  0  0  0  0  0  0
  188.8870  173.3840  138.2760 S   0  0  0  0  0  0  0  0  0  0  0  0
  190.3330  173.2520  139.3770 C   0  0  1  0  0  3  0  0  0  0  0  0
  189.3130  172.0080  135.8780 C   0  0  0  0  0  2  0  0  0  0  0  0
  190.6110  171.4770  137.8670 C   0  0  1  0  0  3  0  0  0  0  0  0
  190.5920  170.9530  140.1280 C   0  0  0  0  0  2  0  0  0  0  0  0
  191.6830  170.5020  140.8710 O   0  0  0  0  0  0  0  0  0  0  0  0
  191.1180  169.9600  142.0240 C   0  0  0  0  0  1  0  0  0  0  0  0
  1 10  1  0  0  0  0
  2  3  1  0  0  0  0
  4  1  1  0  0  0  0
  5  2  2  0  0  0  0
  6  4  2  0  0  0  0
  7  9  1  0  0  0  0
  8  7  2  0  0  0  0
  8  6  1  0  0  0  0
  9  5  1  0  0  0  0
  9  1  2  0  0  0  0
 10  3  2  0  0  0  0
 10 23  1  0  0  0  0
 11 17  1  6  0  0  0
 12 16  1  6  0  0  0
 12 18  1  0  0  0  0
 12 11  1  0  0  0  0
 15 14  1  6  0  0  0
 15 13  1  0  0  0  0
 16 14  1  0  0  0  0
 17 13  1  0  0  0  0
 18  2  1  1  0  0  0
 18 11  1  0  0  0  0
 19 21  1  1  0  0  0
 19 22  1  0  0  0  0
 20 21  1  1  0  0  0
 20 19  1  0  0  0  0
 20 22  1  0  0  0  0
 22 15  1  6  0  0  0
 23 25  1  0  0  0  0
 23 24  1  0  0  0  0
 25 24  1  0  0  0  0
 26  5  1  0  0  0  0
 27 29  1  0  0  0  0
 28 30  1  1  0  0  0
 28 27  1  0  0  0  0
 28 29  1  0  0  0  0
 29 26  1  6  0  0  0
 31 35  1  0  0  0  0
 32 36  1  0  0  0  0
 32 39  1  0  0  0  0
 33 38  1  0  0  0  0
 33 41  1  0  0  0  0
 34 39  1  6  0  0  0
 34 40  1  0  0  0  0
 34 37  1  0  0  0  0
 36 31  2  0  0  0  0
 37 38  1  0  0  0  0
 38 30  1  1  0  0  0
 40 31  1  6  0  0  0
 40 33  1  0  0  0  0
 41 42  1  0  0  0  0
 42 43  1  0  0  0  0
M  END
>  <MODEL>
6

>  <REMARK>
 VINA RESULT:      -7.4      1.963      3.355
  Name = 
  9 active torsions:
  status: ('A' for Active; 'I' for Inactive)
    1  A    between atoms: C_3  and  C_43
    2  A    between atoms: O_4  and  C_11
    3  A    between atoms: O_4  and  C_19
    4  A    between atoms: C_6  and  C_32
    5  A    between atoms: C_12  and  C_16
    6  A    between atoms: C_16  and  C_36
    7  A    between atoms: N_17  and  C_38
    8  A    between atoms: C_29  and  C_30
    9  A    between atoms: O_34  and  C_38
                            x       y       z     vdW  Elec       q    Type
                         _______ _______ _______ _____ _____    ______ ____

>  <TORSDO>
F 9

$$$$
=
 OpenBabel11042419203D

 43 52  0  0  1  0  0  0  0  0999 V2000
  186.2270  178.1200  144.8130 C   0  0  0  0  0  0  0  0  0  0  0  0
  187.6970  176.0860  143.6020 C   0  0  0  0  0  0  0  0  0  0  0  0
  186.8690  176.8850  142.8750 N   0  0  0  0  0  0  0  0  0  0  0  0
  185.4990  179.1410  145.4340 C   0  0  0  0  0  3  0  0  0  0  0  0
  187.8090  176.2660  144.9920 C   0  0  0  0  0  0  0  0  0  0  0  0
  185.5960  179.3310  146.8120 C   0  0  0  0  0  3  0  0  0  0  0  0
  187.1270  177.5050  146.9470 N   0  0  0  0  0  0  0  0  0  0  0  0
  186.4210  178.4910  147.5580 C   0  0  0  0  0  3  0  0  0  0  0  0
  187.0670  177.3000  145.6010 C   0  0  0  0  0  0  0  0  0  0  0  0
  186.1300  177.8820  143.4300 C   0  0  0  0  0  0  0  0  0  0  0  0
  189.6840  175.5250  142.1960 C   0  0  2  0  0  3  0  0  0  0  0  0
  188.4060  175.2230  141.3970 C   0  0  1  0  0  3  0  0  0  0  0  0
  191.1930  173.8910  140.9950 C   0  0  0  0  0  2  0  0  0  0  0  0
  188.9570  172.6740  141.1070 C   0  0  0  0  0  2  0  0  0  0  0  0
  190.4430  172.5870  140.7290 C   0  0  1  0  0  3  0  0  0  0  0  0
  188.3000  173.9340  140.5540 C   0  0  0  0  0  2  0  0  0  0  0  0
  190.7810  174.4710  142.3370 C   0  0  0  0  0  2  0  0  0  0  0  0
  188.4360  174.9870  142.8960 C   0  0  2  0  0  3  0  0  0  0  0  0
  191.1200  173.3300  138.4960 N   0  0  1  0  0  0  0  0  0  0  0  0
  192.0450  172.2480  138.9020 C   0  0  2  0  0  3  0  0  0  0  0  0
  192.1290  172.8070  137.5570 C   0  0  0  0  0  2  0  0  0  0  0  0
  190.6350  172.1750  139.2760 C   0  0  1  0  0  3  0  0  0  0  0  0
  185.2690  178.7410  142.5440 C   0  0  0  0  0  3  0  0  0  0  0  0
  184.0040  177.9900  142.1720 C   0  0  0  0  0  2  0  0  0  0  0  0
  185.1180  178.1230  141.1630 C   0  0  0  0  0  2  0  0  0  0  0  0
  188.6440  175.4030  145.7170 O   0  0  0  0  0  0  0  0  0  0  0  0
  189.9870  174.8690  147.6320 C   0  0  0  0  0  2  0  0  0  0  0  0
  190.8530  174.8120  146.3930 C   0  0  1  0  0  3  0  0  0  0  0  0
  189.7470  175.8410  146.4970 C   0  0  1  0  0  3  0  0  0  0  0  0
  192.1820  175.4970  146.6450 C   0  0  0  0  0  2  0  0  0  0  0  0
  194.8170  175.7630  142.4160 C   0  0  0  0  0  0  0  0  0  0  0  0
  197.0760  174.7210  142.8000 C   0  0  0  0  0  2  0  0  0  0  0  0
  193.2570  175.8990  144.3560 N   0  0  0  0  0  0  0  0  0  0  0  0
  195.3680  174.7500  144.5940 C   0  0  2  0  0  3  0  0  0  0  0  0
  193.8560  176.3290  141.5320 N   0  0  0  0  0  1  0  0  0  0  0  0
  195.9810  175.3100  141.9240 C   0  0  0  0  0  3  0  0  0  0  0  0
  194.8880  174.9000  146.3070 S   0  0  0  0  0  0  0  0  0  0  0  0
  193.2200  175.0860  145.5970 C   0  0  1  0  0  3  0  0  0  0  0  0
  196.8460  174.9170  144.3090 C   0  0  0  0  0  2  0  0  0  0  0  0
  194.6430  175.8720  143.9050 C   0  0  1  0  0  3  0  0  0  0  0  0
  192.9730  177.3070  144.6370 C   0  0  0  0  0  2  0  0  0  0  0  0
  192.1770  177.8300  143.6180 O   0  0  0  0  0  0  0  0  0  0  0  0
  190.9150  177.9600  144.1950 C   0  0  0  0  0  1  0  0  0  0  0  0
  1  4  1  0  0  0  0
  1  9  1  0  0  0  0
  2  5  1  0  0  0  0
  3 10  1  0  0  0  0
  3  2  2  0  0  0  0
  4  6  2  0  0  0  0
  5  9  2  0  0  0  0
  5 26  1  0  0  0  0
  6  8  1  0  0  0  0
  7  8  2  0  0  0  0
  9  7  1  0  0  0  0
 10  1  2  0  0  0  0
 11 17  1  6  0  0  0
 11 18  1  0  0  0  0
 12 16  1  6  0  0  0
 12 11  1  0  0  0  0
 12 18  1  0  0  0  0
 13 17  1  0  0  0  0
 15 13  1  6  0  0  0
 15 14  1  0  0  0  0
 16 14  1  0  0  0  0
 18  2  1  1  0  0  0
 19 21  1  6  0  0  0
 19 20  1  0  0  0  0
 19 22  1  0  0  0  0
 20 21  1  6  0  0  0
 20 22  1  0  0  0  0
 22 15  1  1  0  0  0
 23 10  1  0  0  0  0
 24 23  1  0  0  0  0
 25 24  1  0  0  0  0
 25 23  1  0  0  0  0
 28 29  1  0  0  0  0
 28 30  1  1  0  0  0
 28 27  1  0  0  0  0
 29 26  1  6  0  0  0
 29 27  1  0  0  0  0
 32 39  1  0  0  0  0
 33 41  1  0  0  0  0
 33 38  1  0  0  0  0
 34 39  1  1  0  0  0
 34 37  1  0  0  0  0
 35 31  1  0  0  0  0
 36 31  2  0  0  0  0
 36 32  1  0  0  0  0
 38 37  1  0  0  0  0
 38 30  1  1  0  0  0
 40 31  1  6  0  0  0
 40 33  1  0  0  0  0
 40 34  1  0  0  0  0
 42 43  1  0  0  0  0
 42 41  1  0  0  0  0
M  END
>  <MODEL>
7

>  <REMARK>
 VINA RESULT:      -7.4      2.597      5.597
  Name = 
  9 active torsions:
  status: ('A' for Active; 'I' for Inactive)
    1  A    between atoms: C_3  and  C_43
    2  A    between atoms: O_4  and  C_11
    3  A    between atoms: O_4  and  C_19
    4  A    between atoms: C_6  and  C_32
    5  A    between atoms: C_12  and  C_16
    6  A    between atoms: C_16  and  C_36
    7  A    between atoms: N_17  and  C_38
    8  A    between atoms: C_29  and  C_30
    9  A    between atoms: O_34  and  C_38
                            x       y       z     vdW  Elec       q    Type
                         _______ _______ _______ _____ _____    ______ ____

>  <TORSDO>
F 9

$$$$
=
 OpenBabel11042419203D

 43 52  0  0  1  0  0  0  0  0999 V2000
  194.0970  173.3980  145.3470 C   0  0  0  0  0  0  0  0  0  0  0  0
  191.4980  174.3860  145.1560 C   0  0  0  0  0  0  0  0  0  0  0  0
  192.5230  175.1760  145.5800 N   0  0  0  0  0  0  0  0  0  0  0  0
  195.3980  172.8900  145.4330 C   0  0  0  0  0  3  0  0  0  0  0  0
  191.7370  173.0410  144.8220 C   0  0  0  0  0  0  0  0  0  0  0  0
  195.6510  171.5580  145.1100 C   0  0  0  0  0  3  0  0  0  0  0  0
  193.3360  171.2460  144.6200 N   0  0  0  0  0  0  0  0  0  0  0  0
  194.5940  170.7420  144.7050 C   0  0  0  0  0  3  0  0  0  0  0  0
  193.0550  172.5450  144.9160 C   0  0  0  0  0  0  0  0  0  0  0  0
  193.8010  174.7290  145.6940 C   0  0  0  0  0  0  0  0  0  0  0  0
  189.9460  175.8770  143.8880 C   0  0  2  0  0  3  0  0  0  0  0  0
  190.1820  176.4740  145.2840 C   0  0  1  0  0  3  0  0  0  0  0  0
  187.6860  176.9340  143.4780 C   0  0  0  0  0  2  0  0  0  0  0  0
  187.6490  176.3820  145.9650 C   0  0  0  0  0  2  0  0  0  0  0  0
  186.8520  176.8940  144.7570 C   0  0  1  0  0  3  0  0  0  0  0  0
  189.0050  177.0700  146.0870 C   0  0  0  0  0  2  0  0  0  0  0  0
  188.5270  175.6750  143.3580 C   0  0  0  0  0  2  0  0  0  0  0  0
  190.1160  174.9680  145.1050 C   0  0  2  0  0  3  0  0  0  0  0  0
  184.8040  178.2360  144.7170 N   0  0  1  0  0  0  0  0  0  0  0  0
  185.2900  178.2100  146.1160 C   0  0  2  0  0  3  0  0  0  0  0  0
  184.1430  179.0400  145.7620 C   0  0  0  0  0  2  0  0  0  0  0  0
  186.2490  178.2680  145.0160 C   0  0  1  0  0  3  0  0  0  0  0  0
  194.8780  175.6830  146.1350 C   0  0  0  0  0  3  0  0  0  0  0  0
  194.3460  177.1040  146.1110 C   0  0  0  0  0  2  0  0  0  0  0  0
  195.2640  176.6310  145.0100 C   0  0  0  0  0  2  0  0  0  0  0  0
  190.6540  172.2450  144.4220 O   0  0  0  0  0  0  0  0  0  0  0  0
  189.2520  172.0500  142.4840 C   0  0  0  0  0  2  0  0  0  0  0  0
  190.5490  172.7200  142.0880 C   0  0  1  0  0  3  0  0  0  0  0  0
  190.5500  171.6360  143.1440 C   0  0  1  0  0  3  0  0  0  0  0  0
  191.0690  172.1360  140.7880 C   0  0  0  0  0  2  0  0  0  0  0  0
  192.0340  174.8740  136.7290 C   0  0  0  0  0  0  0  0  0  0  0  0
  189.9630  174.9700  135.3030 C   0  0  0  0  0  2  0  0  0  0  0  0
  191.9510  173.4970  138.8060 N   0  0  0  0  0  0  0  0  0  0  0  0
  189.9530  173.7910  137.4810 C   0  0  2  0  0  3  0  0  0  0  0  0
  193.3630  175.3040  137.0010 N   0  0  0  0  0  1  0  0  0  0  0  0
  191.3710  175.3960  135.6850 C   0  0  0  0  0  3  0  0  0  0  0  0
  189.4420  172.4470  138.5410 S   0  0  0  0  0  0  0  0  0  0  0  0
  190.7790  173.0720  139.6110 C   0  0  1  0  0  3  0  0  0  0  0  0
  189.4590  173.7220  136.0520 C   0  0  0  0  0  2  0  0  0  0  0  0
  191.4520  173.6900  137.4500 C   0  0  1  0  0  3  0  0  0  0  0  0
  192.9390  172.4220  138.7000 C   0  0  0  0  0  2  0  0  0  0  0  0
  194.1560  172.8600  139.2220 O   0  0  0  0  0  0  0  0  0  0  0  0
  195.1000  171.9900  138.6800 C   0  0  0  0  0  1  0  0  0  0  0  0
  1  4  1  0  0  0  0
  1 10  1  0  0  0  0
  2  3  1  0  0  0  0
  3 10  2  0  0  0  0
  5  9  1  0  0  0  0
  5  2  2  0  0  0  0
  6  4  2  0  0  0  0
  7  8  2  0  0  0  0
  7  9  1  0  0  0  0
  8  6  1  0  0  0  0
  9  1  2  0  0  0  0
 10 23  1  0  0  0  0
 11 17  1  1  0  0  0
 11 18  1  0  0  0  0
 11 12  1  0  0  0  0
 12 16  1  1  0  0  0
 14 16  1  0  0  0  0
 15 13  1  6  0  0  0
 15 14  1  0  0  0  0
 17 13  1  0  0  0  0
 18  2  1  6  0  0  0
 18 12  1  0  0  0  0
 19 22  1  0  0  0  0
 19 21  1  1  0  0  0
 19 20  1  0  0  0  0
 20 21  1  1  0  0  0
 22 15  1  6  0  0  0
 22 20  1  0  0  0  0
 24 23  1  0  0  0  0
 25 24  1  0  0  0  0
 25 23  1  0  0  0  0
 26  5  1  0  0  0  0
 27 29  1  0  0  0  0
 28 30  1  6  0  0  0
 28 27  1  0  0  0  0
 28 29  1  0  0  0  0
 29 26  1  1  0  0  0
 31 35  1  0  0  0  0
 32 36  1  0  0  0  0
 32 39  1  0  0  0  0
 33 38  1  0  0  0  0
 34 39  1  6  0  0  0
 34 37  1  0  0  0  0
 36 31  2  0  0  0  0
 37 38  1  0  0  0  0
 38 30  1  1  0  0  0
 40 31  1  1  0  0  0
 40 34  1  0  0  0  0
 40 33  1  0  0  0  0
 41 33  1  0  0  0  0
 41 42  1  0  0  0  0
 43 42  1  0  0  0  0
M  END
>  <MODEL>
8

>  <REMARK>
 VINA RESULT:      -7.2      2.769      7.750
  Name = 
  9 active torsions:
  status: ('A' for Active; 'I' for Inactive)
    1  A    between atoms: C_3  and  C_43
    2  A    between atoms: O_4  and  C_11
    3  A    between atoms: O_4  and  C_19
    4  A    between atoms: C_6  and  C_32
    5  A    between atoms: C_12  and  C_16
    6  A    between atoms: C_16  and  C_36
    7  A    between atoms: N_17  and  C_38
    8  A    between atoms: C_29  and  C_30
    9  A    between atoms: O_34  and  C_38
                            x       y       z     vdW  Elec       q    Type
                         _______ _______ _______ _____ _____    ______ ____

>  <TORSDO>
F 9

$$$$
=
 OpenBabel11042419203D

 43 52  0  0  1  0  0  0  0  0999 V2000
  186.3500  178.1230  143.4600 C   0  0  0  0  0  0  0  0  0  0  0  0
  188.0610  176.0390  142.7540 C   0  0  0  0  0  0  0  0  0  0  0  0
  187.3790  176.7420  141.8080 N   0  0  0  0  0  0  0  0  0  0  0  0
  185.4990  179.1700  143.8300 C   0  0  0  0  0  3  0  0  0  0  0  0
  187.8950  176.3460  144.1160 C   0  0  0  0  0  0  0  0  0  0  0  0
  185.3210  179.4850  145.1750 C   0  0  0  0  0  3  0  0  0  0  0  0
  186.8250  177.7310  145.7760 N   0  0  0  0  0  0  0  0  0  0  0  0
  185.9970  178.7430  146.1440 C   0  0  0  0  0  3  0  0  0  0  0  0
  187.0320  177.4050  144.4700 C   0  0  0  0  0  0  0  0  0  0  0  0
  186.5310  177.7590  142.1130 C   0  0  0  0  0  0  0  0  0  0  0  0
  188.5540  174.4220  140.9140 C   0  0  2  0  0  3  0  0  0  0  0  0
  188.1190  173.6390  142.1630 C   0  0  1  0  0  3  0  0  0  0  0  0
  189.9220  172.5790  139.8550 C   0  0  0  0  0  2  0  0  0  0  0  0
  190.3700  172.3030  142.3470 C   0  0  0  0  0  2  0  0  0  0  0  0
  190.7250  171.8440  140.9250 C   0  0  1  0  0  3  0  0  0  0  0  0
  188.8630  172.3490  142.5730 C   0  0  0  0  0  2  0  0  0  0  0  0
  189.8430  174.0610  140.1790 C   0  0  0  0  0  2  0  0  0  0  0  0
  188.9420  174.9070  142.3120 C   0  0  2  0  0  3  0  0  0  0  0  0
  191.8670  169.6820  140.7970 N   0  0  1  0  0  0  0  0  0  0  0  0
  190.9570  169.6330  141.9640 C   0  0  2  0  0  3  0  0  0  0  0  0
  191.6870  168.4340  141.5630 C   0  0  0  0  0  2  0  0  0  0  0  0
  190.5480  170.3410  140.7540 C   0  0  1  0  0  3  0  0  0  0  0  0
  185.8470  178.5070  141.0000 C   0  0  0  0  0  3  0  0  0  0  0  0
  184.3930  178.0820  140.9140 C   0  0  0  0  0  2  0  0  0  0  0  0
  185.3860  177.5560  139.9060 C   0  0  0  0  0  2  0  0  0  0  0  0
  188.5860  175.5800  145.0670 O   0  0  0  0  0  0  0  0  0  0  0  0
  190.2820  174.9220  146.6310 C   0  0  0  0  0  2  0  0  0  0  0  0
  190.9370  175.2670  145.3120 C   0  0  1  0  0  3  0  0  0  0  0  0
  189.7240  176.0420  145.7790 C   0  0  1  0  0  3  0  0  0  0  0  0
  192.1750  176.1120  145.5400 C   0  0  0  0  0  2  0  0  0  0  0  0
  196.1040  176.4730  142.4850 C   0  0  0  0  0  0  0  0  0  0  0  0
  195.3760  175.8720  140.1520 C   0  0  0  0  0  2  0  0  0  0  0  0
  194.4110  176.3040  144.3080 N   0  0  0  0  0  0  0  0  0  0  0  0
  193.7470  175.9250  142.0180 C   0  0  2  0  0  3  0  0  0  0  0  0
  197.0970  176.9680  143.3760 N   0  0  0  0  0  1  0  0  0  0  0  0
  196.3650  176.4160  141.1690 C   0  0  0  0  0  3  0  0  0  0  0  0
  192.3180  175.2870  142.8780 S   0  0  0  0  0  0  0  0  0  0  0  0
  192.9300  176.3460  144.2290 C   0  0  1  0  0  3  0  0  0  0  0  0
  194.1590  175.1630  140.7760 C   0  0  0  0  0  2  0  0  0  0  0  0
  194.8650  175.8070  143.0150 C   0  0  1  0  0  3  0  0  0  0  0  0
  194.8620  175.3080  145.2820 C   0  0  0  0  0  2  0  0  0  0  0  0
  194.8480  174.0450  144.6900 O   0  0  0  0  0  0  0  0  0  0  0  0
  195.5840  173.2450  145.5620 C   0  0  0  0  0  1  0  0  0  0  0  0
  1  4  1  0  0  0  0
  1  9  1  0  0  0  0
  2  5  1  0  0  0  0
  3 10  1  0  0  0  0
  3  2  2  0  0  0  0
  4  6  2  0  0  0  0
  5  9  2  0  0  0  0
  5 26  1  0  0  0  0
  6  8  1  0  0  0  0
  7  8  2  0  0  0  0
  9  7  1  0  0  0  0
 10  1  2  0  0  0  0
 11 17  1  6  0  0  0
 11 12  1  0  0  0  0
 11 18  1  0  0  0  0
 12 18  1  0  0  0  0
 12 16  1  6  0  0  0
 13 17  1  0  0  0  0
 14 16  1  0  0  0  0
 15 13  1  6  0  0  0
 15 14  1  0  0  0  0
 18  2  1  1  0  0  0
 19 21  1  6  0  0  0
 19 20  1  0  0  0  0
 20 21  1  6  0  0  0
 22 19  1  0  0  0  0
 22 15  1  1  0  0  0
 22 20  1  0  0  0  0
 23 10  1  0  0  0  0
 24 23  1  0  0  0  0
 25 24  1  0  0  0  0
 25 23  1  0  0  0  0
 28 30  1  1  0  0  0
 28 29  1  0  0  0  0
 28 27  1  0  0  0  0
 29 26  1  6  0  0  0
 29 27  1  0  0  0  0
 31 35  1  0  0  0  0
 32 39  1  0  0  0  0
 32 36  1  0  0  0  0
 33 41  1  0  0  0  0
 34 39  1  6  0  0  0
 34 37  1  0  0  0  0
 34 40  1  0  0  0  0
 36 31  2  0  0  0  0
 37 38  1  0  0  0  0
 38 33  1  0  0  0  0
 38 30  1  1  0  0  0
 40 31  1  6  0  0  0
 40 33  1  0  0  0  0
 42 41  1  0  0  0  0
 42 43  1  0  0  0  0
M  END
>  <MODEL>
9

>  <REMARK>
 VINA RESULT:      -7.2      1.919      5.946
  Name = 
  9 active torsions:
  status: ('A' for Active; 'I' for Inactive)
    1  A    between atoms: C_3  and  C_43
    2  A    between atoms: O_4  and  C_11
    3  A    between atoms: O_4  and  C_19
    4  A    between atoms: C_6  and  C_32
    5  A    between atoms: C_12  and  C_16
    6  A    between atoms: C_16  and  C_36
    7  A    between atoms: N_17  and  C_38
    8  A    between atoms: C_29  and  C_30
    9  A    between atoms: O_34  and  C_38
                            x       y       z     vdW  Elec       q    Type
                         _______ _______ _______ _____ _____    ______ ____

>  <TORSDO>
F 9

$$$$
