=
 OpenBabel11042415013D

 39 44  0  0  1  0  0  0  0  0999 V2000
  189.6020  175.7010  142.7430 C   0  0  0  0  0  0  0  0  0  0  0  0
  188.7740  175.8410  141.4970 C   0  0  0  0  0  3  0  0  0  0  0  0
  188.5350  177.0550  145.9270 C   0  0  1  0  0  3  0  0  0  0  0  0
  186.2700  177.4350  145.3430 C   0  0  1  0  0  3  0  0  0  0  0  0
  187.5600  177.1770  144.9000 N   0  0  0  0  0  0  0  0  0  0  0  0
  185.2810  177.3080  144.4830 N   0  0  0  0  0  2  0  0  0  0  0  0
  186.0020  178.6180  147.4750 C   0  0  0  0  0  1  0  0  0  0  0  0
  186.2100  177.2670  146.8190 C   0  0  2  0  0  3  0  0  0  0  0  0
  185.6230  176.9940  143.0860 C   0  0  0  0  0  2  0  0  0  0  0  0
  187.6450  176.7300  147.1550 C   0  0  0  0  0  2  0  0  0  0  0  0
  189.5740  176.0290  145.3320 C   0  0  2  0  0  3  0  0  0  0  0  0
  189.0000  175.7540  143.9450 C   0  0  0  0  0  0  0  0  0  0  0  0
  186.8250  176.4110  142.8320 C   0  0  0  0  0  0  0  0  0  0  0  0
  187.5900  176.0520  144.0390 C   0  0  0  0  0  0  0  0  0  0  0  0
  187.4640  176.1790  141.5270 C   0  0  0  0  0  3  0  0  0  0  0  0
  189.7050  174.7560  146.2160 C   0  0  1  0  0  3  0  0  0  0  0  0
  192.5890  173.9510  146.1170 N   0  0  0  0  0  2  0  0  0  0  0  0
  191.6680  173.6330  145.0390 C   0  0  0  0  0  2  0  0  0  0  0  0
  190.2570  173.4650  145.5870 C   0  0  2  0  0  3  0  0  0  0  0  0
  190.2790  174.9760  147.4970 O   0  0  0  0  0  0  0  0  0  0  0  0
  192.4890  175.3840  146.3400 C   0  0  1  0  0  3  0  0  0  0  0  0
  191.5030  175.7060  147.4800 C   0  0  1  0  0  3  0  0  0  0  0  0
  191.4620  177.4020  148.9050 C   0  0  0  0  0  1  0  0  0  0  0  0
  191.2620  177.0820  147.5620 O   0  0  0  0  0  0  0  0  0  0  0  0
  193.8710  175.9930  146.5920 C   0  0  0  0  0  2  0  0  0  0  0  0
  194.2190  177.1090  145.6140 C   0  0  0  0  0  2  0  0  0  0  0  0
  193.1680  177.3080  144.7190 O   0  0  0  0  0  1  0  0  0  0  0  0
  189.3100  172.8660  144.5560 C   0  0  0  0  0  2  0  0  0  0  0  0
  189.6210  171.9080  142.3310 C   0  0  0  0  0  2  0  0  0  0  0  0
  190.0540  172.0180  143.5820 C   0  0  0  0  0  3  0  0  0  0  0  0
  191.0860  175.6050  142.6310 C   0  0  0  0  0  2  0  0  0  0  0  0
  191.4250  174.6850  141.6380 O   0  0  0  0  0  0  0  0  0  0  0  0
  192.7770  174.9200  141.3880 C   0  0  0  0  0  2  0  0  0  0  0  0
  195.2010  172.2060  143.6500 C   0  0  0  0  0  3  0  0  0  0  0  0
  193.6050  173.9780  142.1890 C   0  0  0  0  0  0  0  0  0  0  0  0
  194.1980  171.7120  142.8080 C   0  0  0  0  0  3  0  0  0  0  0  0
  193.4030  172.5970  142.0760 C   0  0  0  0  0  3  0  0  0  0  0  0
  194.6140  174.4690  143.0230 C   0  0  0  0  0  3  0  0  0  0  0  0
  195.4100  173.5840  143.7550 C   0  0  0  0  0  3  0  0  0  0  0  0
  1 12  1  0  0  0  0
  2 15  1  0  0  0  0
  2  1  2  0  0  0  0
  3 10  1  1  0  0  0
  4  6  1  6  0  0  0
  4  8  1  0  0  0  0
  5  4  1  0  0  0  0
  5  3  1  0  0  0  0
  8 10  1  0  0  0  0
  8  7  1  1  0  0  0
  9  6  1  0  0  0  0
 11 12  1  6  0  0  0
 11  3  1  0  0  0  0
 11 16  1  0  0  0  0
 12 14  2  0  0  0  0
 13  9  1  0  0  0  0
 13 14  1  0  0  0  0
 14  5  1  0  0  0  0
 15 13  2  0  0  0  0
 16 20  1  1  0  0  0
 17 21  1  0  0  0  0
 18 19  1  0  0  0  0
 18 17  1  0  0  0  0
 19 28  1  6  0  0  0
 19 16  1  0  0  0  0
 21 25  1  1  0  0  0
 21 22  1  0  0  0  0
 22 20  1  0  0  0  0
 22 24  1  6  0  0  0
 24 23  1  0  0  0  0
 26 25  1  0  0  0  0
 27 26  1  0  0  0  0
 29 30  2  0  0  0  0
 30 28  1  0  0  0  0
 31  1  1  0  0  0  0
 32 31  1  0  0  0  0
 33 32  1  0  0  0  0
 33 35  1  0  0  0  0
 34 39  1  0  0  0  0
 35 38  1  0  0  0  0
 36 34  2  0  0  0  0
 37 35  2  0  0  0  0
 37 36  1  0  0  0  0
 38 39  2  0  0  0  0
M  END
>  <MODEL>
1

>  <REMARK>
 VINA RESULT:      -6.6      0.000      0.000
  Name = 
  10 active torsions:
  status: ('A' for Active; 'I' for Inactive)
    1  A    between atoms: C_1  and  C_22
    2  A    between atoms: C_4  and  C_23
    3  A    between atoms: O_5  and  C_22
    4  A    between atoms: O_5  and  C_31
    5  A    between atoms: C_8  and  C_9
    6  A    between atoms: C_9  and  C_33
    7  A    between atoms: C_16  and  C_21
    8  A    between atoms: C_16  and  C_26
    9  A    between atoms: C_20  and  C_31
   10  A    between atoms: O_34  and  C_35
                            x       y       z     vdW  Elec       q    Type
                         _______ _______ _______ _____ _____    ______ ____

>  <TORSDO>
F 10

$$$$
=
 OpenBabel11042415013D

 39 44  0  0  1  0  0  0  0  0999 V2000
  191.8200  176.0160  143.7550 C   0  0  0  0  0  0  0  0  0  0  0  0
  192.4360  177.0370  144.6690 C   0  0  0  0  0  3  0  0  0  0  0  0
  193.5850  173.0210  142.7450 C   0  0  1  0  0  3  0  0  0  0  0  0
  195.3080  173.1290  144.3700 C   0  0  1  0  0  3  0  0  0  0  0  0
  194.2840  173.7970  143.7100 N   0  0  0  0  0  0  0  0  0  0  0  0
  195.8240  173.6920  145.4410 N   0  0  0  0  0  2  0  0  0  0  0  0
  196.4200  171.2850  143.1970 C   0  0  0  0  0  1  0  0  0  0  0  0
  195.2350  171.6780  144.0570 C   0  0  2  0  0  3  0  0  0  0  0  0
  195.3460  175.0340  145.8110 C   0  0  0  0  0  2  0  0  0  0  0  0
  193.9150  171.5800  143.2160 C   0  0  0  0  0  2  0  0  0  0  0  0
  192.1250  173.6160  142.7780 C   0  0  2  0  0  3  0  0  0  0  0  0
  192.2580  174.7440  143.7960 C   0  0  0  0  0  0  0  0  0  0  0  0
  194.1300  175.4340  145.3520 C   0  0  0  0  0  0  0  0  0  0  0  0
  193.3840  174.3900  144.6290 C   0  0  0  0  0  0  0  0  0  0  0  0
  193.5280  176.7750  145.4230 C   0  0  0  0  0  3  0  0  0  0  0  0
  191.0700  172.5430  143.1700 C   0  0  1  0  0  3  0  0  0  0  0  0
  188.4660  173.4510  141.9990 N   0  0  0  0  0  2  0  0  0  0  0  0
  188.9870  174.0130  143.2340 C   0  0  0  0  0  2  0  0  0  0  0  0
  189.8280  172.9760  143.9680 C   0  0  2  0  0  3  0  0  0  0  0  0
  190.7090  171.6500  142.1250 O   0  0  0  0  0  0  0  0  0  0  0  0
  189.5190  173.5790  141.0060 C   0  0  1  0  0  3  0  0  0  0  0  0
  190.3510  172.2860  140.9010 C   0  0  1  0  0  3  0  0  0  0  0  0
  191.8140  171.2000  139.6400 C   0  0  0  0  0  1  0  0  0  0  0  0
  191.4770  172.4770  140.0920 O   0  0  0  0  0  0  0  0  0  0  0  0
  188.9420  173.9970  139.6520 C   0  0  0  0  0  2  0  0  0  0  0  0
  188.2890  172.8430  138.8990 C   0  0  0  0  0  2  0  0  0  0  0  0
  188.9290  172.6440  137.6760 O   0  0  0  0  0  1  0  0  0  0  0  0
  190.1680  173.4150  145.3860 C   0  0  0  0  0  2  0  0  0  0  0  0
  189.2360  174.8810  147.1030 C   0  0  0  0  0  2  0  0  0  0  0  0
  189.2810  174.5300  145.8230 C   0  0  0  0  0  3  0  0  0  0  0  0
  190.8030  176.4460  142.7540 C   0  0  0  0  0  2  0  0  0  0  0  0
  190.4340  177.7690  142.9940 O   0  0  0  0  0  0  0  0  0  0  0  0
  189.2080  177.9170  142.3460 C   0  0  0  0  0  2  0  0  0  0  0  0
  186.0050  176.8470  144.9830 C   0  0  0  0  0  3  0  0  0  0  0  0
  188.1050  177.5270  143.2660 C   0  0  0  0  0  0  0  0  0  0  0  0
  187.1300  177.5120  145.4830 C   0  0  0  0  0  3  0  0  0  0  0  0
  188.1780  177.8540  144.6250 C   0  0  0  0  0  3  0  0  0  0  0  0
  186.9760  176.8720  142.7650 C   0  0  0  0  0  3  0  0  0  0  0  0
  185.9270  176.5300  143.6240 C   0  0  0  0  0  3  0  0  0  0  0  0
  1 12  2  0  0  0  0
  1  2  1  0  0  0  0
  2 15  2  0  0  0  0
  3 11  1  0  0  0  0
  3 10  1  1  0  0  0
  3  5  1  0  0  0  0
  4  6  1  1  0  0  0
  5  4  1  0  0  0  0
  5 14  1  0  0  0  0
  6  9  1  0  0  0  0
  8  7  1  6  0  0  0
  8  4  1  0  0  0  0
 10  8  1  0  0  0  0
 11 16  1  0  0  0  0
 11 12  1  1  0  0  0
 12 14  1  0  0  0  0
 13 15  1  0  0  0  0
 13  9  1  0  0  0  0
 14 13  2  0  0  0  0
 16 20  1  6  0  0  0
 16 19  1  0  0  0  0
 17 18  1  0  0  0  0
 18 19  1  0  0  0  0
 19 28  1  1  0  0  0
 21 25  1  6  0  0  0
 21 17  1  0  0  0  0
 22 24  1  1  0  0  0
 22 21  1  0  0  0  0
 22 20  1  0  0  0  0
 23 24  1  0  0  0  0
 26 25  1  0  0  0  0
 27 26  1  0  0  0  0
 28 30  1  0  0  0  0
 30 29  2  0  0  0  0
 31 32  1  0  0  0  0
 31  1  1  0  0  0  0
 33 32  1  0  0  0  0
 33 35  1  0  0  0  0
 34 36  1  0  0  0  0
 35 37  1  0  0  0  0
 37 36  2  0  0  0  0
 38 35  2  0  0  0  0
 38 39  1  0  0  0  0
 39 34  2  0  0  0  0
M  END
>  <MODEL>
2

>  <REMARK>
 VINA RESULT:      -6.4      2.327      7.596
  Name = 
  10 active torsions:
  status: ('A' for Active; 'I' for Inactive)
    1  A    between atoms: C_1  and  C_22
    2  A    between atoms: C_4  and  C_23
    3  A    between atoms: O_5  and  C_22
    4  A    between atoms: O_5  and  C_31
    5  A    between atoms: C_8  and  C_9
    6  A    between atoms: C_9  and  C_33
    7  A    between atoms: C_16  and  C_21
    8  A    between atoms: C_16  and  C_26
    9  A    between atoms: C_20  and  C_31
   10  A    between atoms: O_34  and  C_35
                            x       y       z     vdW  Elec       q    Type
                         _______ _______ _______ _____ _____    ______ ____

>  <TORSDO>
F 10

$$$$
=
 OpenBabel11042415013D

 39 44  0  0  1  0  0  0  0  0999 V2000
  191.3670  176.2220  143.4760 C   0  0  0  0  0  0  0  0  0  0  0  0
  191.8280  177.1850  144.5340 C   0  0  0  0  0  3  0  0  0  0  0  0
  193.6820  174.1660  141.6010 C   0  0  1  0  0  3  0  0  0  0  0  0
  195.5630  174.4770  143.0090 C   0  0  1  0  0  3  0  0  0  0  0  0
  194.2970  174.9150  142.6410 N   0  0  0  0  0  0  0  0  0  0  0  0
  196.0830  174.9500  144.1220 N   0  0  0  0  0  2  0  0  0  0  0  0
  196.9170  173.3250  141.3200 C   0  0  0  0  0  1  0  0  0  0  0  0
  195.8370  173.1620  142.3710 C   0  0  2  0  0  3  0  0  0  0  0  0
  195.3270  175.9830  144.8480 C   0  0  0  0  0  2  0  0  0  0  0  0
  194.4700  172.8320  141.6780 C   0  0  0  0  0  2  0  0  0  0  0  0
  192.1440  174.2680  141.9310 C   0  0  2  0  0  3  0  0  0  0  0  0
  192.1370  175.1630  143.1670 C   0  0  0  0  0  0  0  0  0  0  0  0
  193.9870  176.0740  144.6310 C   0  0  0  0  0  0  0  0  0  0  0  0
  193.4420  175.0140  143.7660 C   0  0  0  0  0  0  0  0  0  0  0  0
  193.0640  177.1270  145.0820 C   0  0  0  0  0  3  0  0  0  0  0  0
  191.5070  172.8700  142.1690 C   0  0  1  0  0  3  0  0  0  0  0  0
  188.6180  173.1170  141.4130 N   0  0  0  0  0  2  0  0  0  0  0  0
  189.1160  173.5860  142.6940 C   0  0  0  0  0  2  0  0  0  0  0  0
  190.3120  172.7490  143.1310 C   0  0  2  0  0  3  0  0  0  0  0  0
  191.2820  172.1070  140.9910 O   0  0  0  0  0  0  0  0  0  0  0  0
  189.4450  173.7380  140.3910 C   0  0  1  0  0  3  0  0  0  0  0  0
  190.5930  172.8060  139.9570 C   0  0  1  0  0  3  0  0  0  0  0  0
  192.1460  172.4650  138.4140 C   0  0  0  0  0  1  0  0  0  0  0  0
  191.4960  173.4750  139.1230 O   0  0  0  0  0  0  0  0  0  0  0  0
  188.5940  174.1880  139.2020 C   0  0  0  0  0  2  0  0  0  0  0  0
  188.3210  173.0660  138.2060 C   0  0  0  0  0  2  0  0  0  0  0  0
  188.8980  173.3680  136.9730 O   0  0  0  0  0  1  0  0  0  0  0  0
  190.6980  173.0150  144.5800 C   0  0  0  0  0  2  0  0  0  0  0  0
  189.8400  174.4320  146.3740 C   0  0  0  0  0  2  0  0  0  0  0  0
  189.5820  173.6750  145.3140 C   0  0  0  0  0  3  0  0  0  0  0  0
  190.1130  176.5080  142.7210 C   0  0  0  0  0  2  0  0  0  0  0  0
  189.4230  177.5550  143.3310 O   0  0  0  0  0  0  0  0  0  0  0  0
  188.0780  177.2030  143.2190 C   0  0  0  0  0  2  0  0  0  0  0  0
  186.2960  177.0830  147.1130 C   0  0  0  0  0  3  0  0  0  0  0  0
  187.4530  177.1810  144.5690 C   0  0  0  0  0  0  0  0  0  0  0  0
  185.5370  176.7480  145.9870 C   0  0  0  0  0  3  0  0  0  0  0  0
  186.1160  176.7950  144.7160 C   0  0  0  0  0  3  0  0  0  0  0  0
  188.2140  177.5050  145.6970 C   0  0  0  0  0  3  0  0  0  0  0  0
  187.6350  177.4580  146.9690 C   0  0  0  0  0  3  0  0  0  0  0  0
  1  2  1  0  0  0  0
  2 15  2  0  0  0  0
  3 10  1  1  0  0  0
  3 11  1  0  0  0  0
  3  5  1  0  0  0  0
  4  6  1  1  0  0  0
  5  4  1  0  0  0  0
  5 14  1  0  0  0  0
  6  9  1  0  0  0  0
  8  7  1  6  0  0  0
  8  4  1  0  0  0  0
 10  8  1  0  0  0  0
 11 16  1  0  0  0  0
 11 12  1  1  0  0  0
 12  1  2  0  0  0  0
 12 14  1  0  0  0  0
 13  9  1  0  0  0  0
 13 15  1  0  0  0  0
 14 13  2  0  0  0  0
 16 20  1  6  0  0  0
 16 19  1  0  0  0  0
 17 18  1  0  0  0  0
 18 19  1  0  0  0  0
 19 28  1  1  0  0  0
 21 25  1  6  0  0  0
 21 17  1  0  0  0  0
 22 24  1  1  0  0  0
 22 21  1  0  0  0  0
 22 20  1  0  0  0  0
 23 24  1  0  0  0  0
 26 25  1  0  0  0  0
 27 26  1  0  0  0  0
 28 30  1  0  0  0  0
 30 29  2  0  0  0  0
 31 32  1  0  0  0  0
 31  1  1  0  0  0  0
 33 32  1  0  0  0  0
 33 35  1  0  0  0  0
 35 37  2  0  0  0  0
 35 38  1  0  0  0  0
 36 34  2  0  0  0  0
 37 36  1  0  0  0  0
 38 39  2  0  0  0  0
 39 34  1  0  0  0  0
M  END
>  <MODEL>
3

>  <REMARK>
 VINA RESULT:      -6.2      2.438      7.772
  Name = 
  10 active torsions:
  status: ('A' for Active; 'I' for Inactive)
    1  A    between atoms: C_1  and  C_22
    2  A    between atoms: C_4  and  C_23
    3  A    between atoms: O_5  and  C_22
    4  A    between atoms: O_5  and  C_31
    5  A    between atoms: C_8  and  C_9
    6  A    between atoms: C_9  and  C_33
    7  A    between atoms: C_16  and  C_21
    8  A    between atoms: C_16  and  C_26
    9  A    between atoms: C_20  and  C_31
   10  A    between atoms: O_34  and  C_35
                            x       y       z     vdW  Elec       q    Type
                         _______ _______ _______ _____ _____    ______ ____

>  <TORSDO>
F 10

$$$$
=
 OpenBabel11042415013D

 39 44  0  0  1  0  0  0  0  0999 V2000
  192.5110  175.7930  144.7130 C   0  0  0  0  0  0  0  0  0  0  0  0
  193.3320  176.7100  145.5740 C   0  0  0  0  0  3  0  0  0  0  0  0
  193.5410  174.8520  141.3720 C   0  0  1  0  0  3  0  0  0  0  0  0
  195.7930  175.5730  141.5420 C   0  0  1  0  0  3  0  0  0  0  0  0
  194.5100  175.6210  142.0730 N   0  0  0  0  0  0  0  0  0  0  0  0
  196.7830  176.0430  142.2700 N   0  0  0  0  0  2  0  0  0  0  0  0
  196.0270  175.1450  139.1390 C   0  0  0  0  0  1  0  0  0  0  0  0
  195.8600  174.5100  140.5050 C   0  0  2  0  0  3  0  0  0  0  0  0
  196.4490  176.6760  143.5570 C   0  0  0  0  0  2  0  0  0  0  0  0
  194.4430  173.8460  140.6100 C   0  0  0  0  0  2  0  0  0  0  0  0
  192.5340  174.4080  142.5010 C   0  0  2  0  0  3  0  0  0  0  0  0
  193.1140  175.0880  143.7380 C   0  0  0  0  0  0  0  0  0  0  0  0
  195.2650  176.3550  144.1450 C   0  0  0  0  0  0  0  0  0  0  0  0
  194.5140  175.2950  143.4510 C   0  0  0  0  0  0  0  0  0  0  0  0
  194.6310  176.9860  145.3130 C   0  0  0  0  0  3  0  0  0  0  0  0
  192.4440  172.8610  142.6240 C   0  0  1  0  0  3  0  0  0  0  0  0
  189.6400  172.2420  143.4820 N   0  0  0  0  0  2  0  0  0  0  0  0
  190.6490  172.6910  144.4270 C   0  0  0  0  0  2  0  0  0  0  0  0
  192.0320  172.2430  143.9710 C   0  0  2  0  0  3  0  0  0  0  0  0
  191.7760  172.2140  141.5490 O   0  0  0  0  0  0  0  0  0  0  0  0
  189.6180  173.2170  142.4030 C   0  0  1  0  0  3  0  0  0  0  0  0
  190.5030  172.7690  141.2240 C   0  0  1  0  0  3  0  0  0  0  0  0
  190.9370  173.1370  139.0830 C   0  0  0  0  0  1  0  0  0  0  0  0
  190.6350  173.7920  140.2780 O   0  0  0  0  0  0  0  0  0  0  0  0
  188.1810  173.5050  141.9610 C   0  0  0  0  0  2  0  0  0  0  0  0
  187.7470  174.9390  142.2410 C   0  0  0  0  0  2  0  0  0  0  0  0
  188.8230  175.8090  142.0740 O   0  0  0  0  0  1  0  0  0  0  0  0
  193.0840  172.4440  145.0530 C   0  0  0  0  0  2  0  0  0  0  0  0
  195.5080  172.1850  145.1980 C   0  0  0  0  0  2  0  0  0  0  0  0
  194.3580  171.7620  144.6870 C   0  0  0  0  0  3  0  0  0  0  0  0
  191.0310  175.7510  144.8880 C   0  0  0  0  0  2  0  0  0  0  0  0
  190.6320  176.7560  145.7700 O   0  0  0  0  0  0  0  0  0  0  0  0
  189.8110  177.5870  145.0090 C   0  0  0  0  0  2  0  0  0  0  0  0
  185.7290  177.1110  146.2190 C   0  0  0  0  0  3  0  0  0  0  0  0
  188.3930  177.4030  145.4210 C   0  0  0  0  0  0  0  0  0  0  0  0
  186.7620  176.7000  147.0680 C   0  0  0  0  0  3  0  0  0  0  0  0
  188.0920  176.8480  146.6710 C   0  0  0  0  0  3  0  0  0  0  0  0
  187.3600  177.8240  144.5780 C   0  0  0  0  0  3  0  0  0  0  0  0
  186.0270  177.6750  144.9760 C   0  0  0  0  0  3  0  0  0  0  0  0
  1 31  1  0  0  0  0
  1  2  1  0  0  0  0
  3 10  1  1  0  0  0
  3  5  1  0  0  0  0
  3 11  1  0  0  0  0
  4  5  1  0  0  0  0
  4  6  1  1  0  0  0
  5 14  1  0  0  0  0
  6  9  1  0  0  0  0
  8  7  1  6  0  0  0
  8 10  1  0  0  0  0
  8  4  1  0  0  0  0
  9 13  1  0  0  0  0
 11 16  1  0  0  0  0
 11 12  1  1  0  0  0
 12  1  2  0  0  0  0
 13 15  1  0  0  0  0
 14 12  1  0  0  0  0
 14 13  2  0  0  0  0
 15  2  2  0  0  0  0
 16 20  1  6  0  0  0
 16 19  1  0  0  0  0
 17 18  1  0  0  0  0
 19 18  1  0  0  0  0
 19 28  1  1  0  0  0
 21 25  1  6  0  0  0
 21 17  1  0  0  0  0
 22 24  1  6  0  0  0
 22 20  1  0  0  0  0
 22 21  1  0  0  0  0
 23 24  1  0  0  0  0
 25 26  1  0  0  0  0
 27 26  1  0  0  0  0
 30 28  1  0  0  0  0
 30 29  2  0  0  0  0
 31 32  1  0  0  0  0
 33 35  1  0  0  0  0
 33 32  1  0  0  0  0
 34 36  1  0  0  0  0
 35 37  1  0  0  0  0
 37 36  2  0  0  0  0
 38 39  1  0  0  0  0
 38 35  2  0  0  0  0
 39 34  2  0  0  0  0
M  END
>  <MODEL>
4

>  <REMARK>
 VINA RESULT:      -6.2      2.304      7.698
  Name = 
  10 active torsions:
  status: ('A' for Active; 'I' for Inactive)
    1  A    between atoms: C_1  and  C_22
    2  A    between atoms: C_4  and  C_23
    3  A    between atoms: O_5  and  C_22
    4  A    between atoms: O_5  and  C_31
    5  A    between atoms: C_8  and  C_9
    6  A    between atoms: C_9  and  C_33
    7  A    between atoms: C_16  and  C_21
    8  A    between atoms: C_16  and  C_26
    9  A    between atoms: C_20  and  C_31
   10  A    between atoms: O_34  and  C_35
                            x       y       z     vdW  Elec       q    Type
                         _______ _______ _______ _____ _____    ______ ____

>  <TORSDO>
F 10

$$$$
=
 OpenBabel11042415013D

 39 44  0  0  1  0  0  0  0  0999 V2000
  190.6130  175.7220  143.2640 C   0  0  0  0  0  0  0  0  0  0  0  0
  190.4610  176.5700  144.4950 C   0  0  0  0  0  3  0  0  0  0  0  0
  193.8140  175.2370  141.6430 C   0  0  1  0  0  3  0  0  0  0  0  0
  195.1680  176.0420  143.4130 C   0  0  1  0  0  3  0  0  0  0  0  0
  193.8960  175.9640  142.8620 N   0  0  0  0  0  0  0  0  0  0  0  0
  195.2810  176.4710  144.6520 N   0  0  0  0  0  2  0  0  0  0  0  0
  197.0890  175.9150  141.8950 C   0  0  0  0  0  1  0  0  0  0  0  0
  196.0790  175.1140  142.6920 C   0  0  2  0  0  3  0  0  0  0  0  0
  194.0600  176.9290  145.3350 C   0  0  0  0  0  2  0  0  0  0  0  0
  195.1010  174.3730  141.7150 C   0  0  0  0  0  2  0  0  0  0  0  0
  192.3660  174.6130  141.6810 C   0  0  2  0  0  3  0  0  0  0  0  0
  191.8080  175.1690  142.9880 C   0  0  0  0  0  0  0  0  0  0  0  0
  192.8600  176.4830  144.8760 C   0  0  0  0  0  0  0  0  0  0  0  0
  192.9580  175.4760  143.8050 C   0  0  0  0  0  0  0  0  0  0  0  0
  191.5140  176.9390  145.2610 C   0  0  0  0  0  3  0  0  0  0  0  0
  192.4020  173.0590  141.6290 C   0  0  1  0  0  3  0  0  0  0  0  0
  189.8160  172.1950  140.3840 N   0  0  0  0  0  2  0  0  0  0  0  0
  189.9010  172.5810  141.7820 C   0  0  0  0  0  2  0  0  0  0  0  0
  191.2870  172.2640  142.3310 C   0  0  2  0  0  3  0  0  0  0  0  0
  192.6790  172.5110  140.3470 O   0  0  0  0  0  0  0  0  0  0  0  0
  190.3880  173.2900  139.6150 C   0  0  1  0  0  3  0  0  0  0  0  0
  191.8730  173.0330  139.2930 C   0  0  1  0  0  3  0  0  0  0  0  0
  193.6380  173.6970  138.1310 C   0  0  0  0  0  1  0  0  0  0  0  0
  192.4680  174.1660  138.7280 O   0  0  0  0  0  0  0  0  0  0  0  0
  189.5670  173.5520  138.3500 C   0  0  0  0  0  2  0  0  0  0  0  0
  188.1910  174.1410  138.6430 C   0  0  0  0  0  2  0  0  0  0  0  0
  187.7630  174.9180  137.5680 O   0  0  0  0  0  1  0  0  0  0  0  0
  191.3450  172.3890  143.8470 C   0  0  0  0  0  2  0  0  0  0  0  0
  189.6910  173.0630  145.5120 C   0  0  0  0  0  2  0  0  0  0  0  0
  189.9770  172.3400  144.4360 C   0  0  0  0  0  3  0  0  0  0  0  0
  189.4670  175.5870  142.3200 C   0  0  0  0  0  2  0  0  0  0  0  0
  188.2870  175.3880  143.0360 O   0  0  0  0  0  0  0  0  0  0  0  0
  187.3460  176.1920  142.3940 C   0  0  0  0  0  2  0  0  0  0  0  0
  185.7880  179.0470  145.1840 C   0  0  0  0  0  3  0  0  0  0  0  0
  186.7860  177.1760  143.3610 C   0  0  0  0  0  0  0  0  0  0  0  0
  186.2380  177.8020  145.6350 C   0  0  0  0  0  3  0  0  0  0  0  0
  186.7390  176.8680  144.7260 C   0  0  0  0  0  3  0  0  0  0  0  0
  186.3460  178.4250  142.9110 C   0  0  0  0  0  3  0  0  0  0  0  0
  185.8450  179.3600  143.8220 C   0  0  0  0  0  3  0  0  0  0  0  0
  1  2  1  0  0  0  0
  2 15  2  0  0  0  0
  3 11  1  0  0  0  0
  3 10  1  1  0  0  0
  3  5  1  0  0  0  0
  4  6  1  1  0  0  0
  5  4  1  0  0  0  0
  5 14  1  0  0  0  0
  6  9  1  0  0  0  0
  8  7  1  6  0  0  0
  8  4  1  0  0  0  0
 10  8  1  0  0  0  0
 11 12  1  1  0  0  0
 12  1  2  0  0  0  0
 12 14  1  0  0  0  0
 13 15  1  0  0  0  0
 13  9  1  0  0  0  0
 14 13  2  0  0  0  0
 16 20  1  6  0  0  0
 16 11  1  0  0  0  0
 16 19  1  0  0  0  0
 17 18  1  0  0  0  0
 18 19  1  0  0  0  0
 19 28  1  1  0  0  0
 21 25  1  6  0  0  0
 21 17  1  0  0  0  0
 22 24  1  1  0  0  0
 22 21  1  0  0  0  0
 22 20  1  0  0  0  0
 23 24  1  0  0  0  0
 25 26  1  0  0  0  0
 27 26  1  0  0  0  0
 28 30  1  0  0  0  0
 30 29  2  0  0  0  0
 31 32  1  0  0  0  0
 31  1  1  0  0  0  0
 33 32  1  0  0  0  0
 33 35  1  0  0  0  0
 34 36  1  0  0  0  0
 35 37  1  0  0  0  0
 37 36  2  0  0  0  0
 38 35  2  0  0  0  0
 38 39  1  0  0  0  0
 39 34  2  0  0  0  0
M  END
>  <MODEL>
5

>  <REMARK>
 VINA RESULT:      -6.1      2.805      7.698
  Name = 
  10 active torsions:
  status: ('A' for Active; 'I' for Inactive)
    1  A    between atoms: C_1  and  C_22
    2  A    between atoms: C_4  and  C_23
    3  A    between atoms: O_5  and  C_22
    4  A    between atoms: O_5  and  C_31
    5  A    between atoms: C_8  and  C_9
    6  A    between atoms: C_9  and  C_33
    7  A    between atoms: C_16  and  C_21
    8  A    between atoms: C_16  and  C_26
    9  A    between atoms: C_20  and  C_31
   10  A    between atoms: O_34  and  C_35
                            x       y       z     vdW  Elec       q    Type
                         _______ _______ _______ _____ _____    ______ ____

>  <TORSDO>
F 10

$$$$
=
 OpenBabel11042415013D

 39 44  0  0  1  0  0  0  0  0999 V2000
  192.3300  174.0220  145.2630 C   0  0  0  0  0  0  0  0  0  0  0  0
  192.9740  174.5490  146.5140 C   0  0  0  0  0  3  0  0  0  0  0  0
  188.9450  174.8960  144.3240 C   0  0  1  0  0  3  0  0  0  0  0  0
  188.6880  176.7250  145.8080 C   0  0  1  0  0  3  0  0  0  0  0  0
  189.4170  175.5930  145.4690 N   0  0  0  0  0  0  0  0  0  0  0  0
  189.2060  177.5550  146.6890 N   0  0  0  0  0  2  0  0  0  0  0  0
  186.3170  176.7950  145.1850 C   0  0  0  0  0  1  0  0  0  0  0  0
  187.7360  177.0490  144.7130 C   0  0  2  0  0  3  0  0  0  0  0  0
  190.4800  177.1770  147.3230 C   0  0  0  0  0  2  0  0  0  0  0  0
  188.1220  176.0020  143.6110 C   0  0  0  0  0  2  0  0  0  0  0  0
  190.2540  174.2740  143.7020 C   0  0  2  0  0  3  0  0  0  0  0  0
  191.3250  174.7140  144.6970 C   0  0  0  0  0  0  0  0  0  0  0  0
  191.2760  176.2790  146.6830 C   0  0  0  0  0  0  0  0  0  0  0  0
  190.7970  175.8910  145.3460 C   0  0  0  0  0  0  0  0  0  0  0  0
  192.4830  175.6100  147.1950 C   0  0  0  0  0  3  0  0  0  0  0  0
  190.5050  174.7780  142.2530 C   0  0  1  0  0  3  0  0  0  0  0  0
  192.0810  172.6350  140.8740 N   0  0  0  0  0  2  0  0  0  0  0  0
  192.7080  173.5870  141.7740 C   0  0  0  0  0  2  0  0  0  0  0  0
  191.9530  174.9090  141.7490 C   0  0  2  0  0  3  0  0  0  0  0  0
  189.6810  174.1790  141.2610 O   0  0  0  0  0  0  0  0  0  0  0  0
  190.9770  172.0350  141.6050 C   0  0  1  0  0  3  0  0  0  0  0  0
  189.6470  172.7540  141.3020 C   0  0  1  0  0  3  0  0  0  0  0  0
  187.4470  172.7530  141.5580 C   0  0  0  0  0  1  0  0  0  0  0  0
  188.6290  172.3060  142.1490 O   0  0  0  0  0  0  0  0  0  0  0  0
  190.8900  170.5340  141.3240 C   0  0  0  0  0  2  0  0  0  0  0  0
  191.1590  170.1830  139.8650 C   0  0  0  0  0  2  0  0  0  0  0  0
  189.9820  170.2790  139.1230 O   0  0  0  0  0  1  0  0  0  0  0  0
  192.7190  176.0200  142.4550 C   0  0  0  0  0  2  0  0  0  0  0  0
  194.8610  176.1010  143.6240 C   0  0  0  0  0  2  0  0  0  0  0  0
  194.1630  175.6720  142.5800 C   0  0  0  0  0  3  0  0  0  0  0  0
  192.7500  172.6960  144.7240 C   0  0  0  0  0  2  0  0  0  0  0  0
  193.6980  172.1220  145.5700 O   0  0  0  0  0  0  0  0  0  0  0  0
  194.6220  171.5270  144.7110 C   0  0  0  0  0  2  0  0  0  0  0  0
  197.9410  174.1570  144.0560 C   0  0  0  0  0  3  0  0  0  0  0  0
  195.7620  172.4570  144.4820 C   0  0  0  0  0  0  0  0  0  0  0  0
  197.4470  173.9640  145.3500 C   0  0  0  0  0  3  0  0  0  0  0  0
  196.3600  173.1130  145.5640 C   0  0  0  0  0  3  0  0  0  0  0  0
  196.2630  172.6420  143.1890 C   0  0  0  0  0  3  0  0  0  0  0  0
  197.3510  173.4940  142.9760 C   0  0  0  0  0  3  0  0  0  0  0  0
  1  2  1  0  0  0  0
  2 15  2  0  0  0  0
  3 10  1  6  0  0  0
  3  5  1  0  0  0  0
  4  6  1  6  0  0  0
  5  4  1  0  0  0  0
  6  9  1  0  0  0  0
  8  7  1  1  0  0  0
  8  4  1  0  0  0  0
 10  8  1  0  0  0  0
 11  3  1  0  0  0  0
 11 12  1  1  0  0  0
 12  1  2  0  0  0  0
 12 14  1  0  0  0  0
 13 15  1  0  0  0  0
 13  9  1  0  0  0  0
 14  5  1  0  0  0  0
 14 13  2  0  0  0  0
 16 20  1  6  0  0  0
 16 11  1  0  0  0  0
 17 21  1  0  0  0  0
 17 18  1  0  0  0  0
 19 18  1  0  0  0  0
 19 16  1  0  0  0  0
 19 28  1  1  0  0  0
 20 22  1  0  0  0  0
 21 25  1  6  0  0  0
 22 21  1  0  0  0  0
 22 24  1  1  0  0  0
 23 24  1  0  0  0  0
 26 25  1  0  0  0  0
 27 26  1  0  0  0  0
 28 30  1  0  0  0  0
 30 29  2  0  0  0  0
 31  1  1  0  0  0  0
 31 32  1  0  0  0  0
 33 32  1  0  0  0  0
 34 36  1  0  0  0  0
 35 33  1  0  0  0  0
 35 37  1  0  0  0  0
 36 37  2  0  0  0  0
 38 35  2  0  0  0  0
 39 38  1  0  0  0  0
 39 34  2  0  0  0  0
M  END
>  <MODEL>
6

>  <REMARK>
 VINA RESULT:      -6.0      2.318      5.410
  Name = 
  10 active torsions:
  status: ('A' for Active; 'I' for Inactive)
    1  A    between atoms: C_1  and  C_22
    2  A    between atoms: C_4  and  C_23
    3  A    between atoms: O_5  and  C_22
    4  A    between atoms: O_5  and  C_31
    5  A    between atoms: C_8  and  C_9
    6  A    between atoms: C_9  and  C_33
    7  A    between atoms: C_16  and  C_21
    8  A    between atoms: C_16  and  C_26
    9  A    between atoms: C_20  and  C_31
   10  A    between atoms: O_34  and  C_35
                            x       y       z     vdW  Elec       q    Type
                         _______ _______ _______ _____ _____    ______ ____

>  <TORSDO>
F 10

$$$$
=
 OpenBabel11042415013D

 39 44  0  0  1  0  0  0  0  0999 V2000
  188.0900  176.4640  145.6910 C   0  0  0  0  0  0  0  0  0  0  0  0
  187.7410  177.3100  146.8820 C   0  0  0  0  0  3  0  0  0  0  0  0
  186.0870  176.4640  142.6750 C   0  0  1  0  0  3  0  0  0  0  0  0
  184.8390  178.4230  143.1480 C   0  0  1  0  0  3  0  0  0  0  0  0
  185.6680  177.4220  143.6380 N   0  0  0  0  0  0  0  0  0  0  0  0
  184.6210  179.4750  143.9080 N   0  0  0  0  0  2  0  0  0  0  0  0
  183.4400  177.9060  141.2010 C   0  0  0  0  0  1  0  0  0  0  0  0
  184.8110  178.3600  141.6620 C   0  0  2  0  0  3  0  0  0  0  0  0
  185.1940  179.4740  145.2640 C   0  0  0  0  0  2  0  0  0  0  0  0
  185.8710  177.2460  141.3520 C   0  0  0  0  0  2  0  0  0  0  0  0
  187.5140  176.0280  143.1830 C   0  0  2  0  0  3  0  0  0  0  0  0
  187.6600  176.8330  144.4700 C   0  0  0  0  0  0  0  0  0  0  0  0
  186.2580  178.6630  145.5130 C   0  0  0  0  0  0  0  0  0  0  0  0
  186.7810  177.9700  144.3230 C   0  0  0  0  0  0  0  0  0  0  0  0
  186.8750  178.3470  146.8110 C   0  0  0  0  0  3  0  0  0  0  0  0
  188.6210  176.3240  142.1320 C   0  0  1  0  0  3  0  0  0  0  0  0
  190.9900  174.6600  142.9050 N   0  0  0  0  0  2  0  0  0  0  0  0
  190.6840  175.9130  143.5730 C   0  0  0  0  0  2  0  0  0  0  0  0
  189.9800  176.8630  142.6130 C   0  0  2  0  0  3  0  0  0  0  0  0
  188.8000  175.3120  141.1510 O   0  0  0  0  0  0  0  0  0  0  0  0
  189.7830  173.8510  142.9650 C   0  0  1  0  0  3  0  0  0  0  0  0
  188.9460  173.9960  141.6790 C   0  0  1  0  0  3  0  0  0  0  0  0
  187.5720  172.5680  140.6870 C   0  0  0  0  0  1  0  0  0  0  0  0
  187.6990  173.3760  141.8180 O   0  0  0  0  0  0  0  0  0  0  0  0
  190.1230  172.3890  143.2630 C   0  0  0  0  0  2  0  0  0  0  0  0
  190.9660  171.7380  142.1710 C   0  0  0  0  0  2  0  0  0  0  0  0
  190.3730  170.5480  141.7520 O   0  0  0  0  0  1  0  0  0  0  0  0
  189.8850  178.2760  143.1710 C   0  0  0  0  0  2  0  0  0  0  0  0
  191.8260  179.3410  144.2000 C   0  0  0  0  0  2  0  0  0  0  0  0
  190.8350  178.4640  144.3040 C   0  0  0  0  0  3  0  0  0  0  0  0
  188.8220  175.1810  145.8910 C   0  0  0  0  0  2  0  0  0  0  0  0
  189.7630  175.3290  146.9100 O   0  0  0  0  0  0  0  0  0  0  0  0
  190.7020  174.3250  146.6710 C   0  0  0  0  0  2  0  0  0  0  0  0
  194.5800  176.0860  146.2030 C   0  0  0  0  0  3  0  0  0  0  0  0
  192.0540  174.9290  146.5270 C   0  0  0  0  0  0  0  0  0  0  0  0
  194.3450  174.7830  145.7520 C   0  0  0  0  0  3  0  0  0  0  0  0
  193.0830  174.2060  145.9110 C   0  0  0  0  0  3  0  0  0  0  0  0
  192.2870  176.2350  146.9680 C   0  0  0  0  0  3  0  0  0  0  0  0
  193.5510  176.8130  146.8090 C   0  0  0  0  0  3  0  0  0  0  0  0
  1 31  1  0  0  0  0
  1  2  1  0  0  0  0
  3 10  1  6  0  0  0
  3 11  1  0  0  0  0
  3  5  1  0  0  0  0
  4  5  1  0  0  0  0
  4  6  1  6  0  0  0
  5 14  1  0  0  0  0
  6  9  1  0  0  0  0
  8  7  1  1  0  0  0
  8  4  1  0  0  0  0
  9 13  1  0  0  0  0
 10  8  1  0  0  0  0
 11 12  1  1  0  0  0
 12  1  2  0  0  0  0
 13 15  1  0  0  0  0
 14 12  1  0  0  0  0
 14 13  2  0  0  0  0
 15  2  2  0  0  0  0
 16 20  1  1  0  0  0
 16 19  1  0  0  0  0
 16 11  1  0  0  0  0
 17 21  1  0  0  0  0
 17 18  1  0  0  0  0
 19 28  1  1  0  0  0
 19 18  1  0  0  0  0
 20 22  1  0  0  0  0
 21 25  1  6  0  0  0
 22 24  1  1  0  0  0
 22 21  1  0  0  0  0
 23 24  1  0  0  0  0
 26 25  1  0  0  0  0
 27 26  1  0  0  0  0
 28 30  1  0  0  0  0
 29 30  2  0  0  0  0
 31 32  1  0  0  0  0
 33 32  1  0  0  0  0
 34 39  1  0  0  0  0
 35 33  1  0  0  0  0
 35 38  1  0  0  0  0
 36 37  1  0  0  0  0
 36 34  2  0  0  0  0
 37 35  2  0  0  0  0
 39 38  2  0  0  0  0
M  END
>  <MODEL>
7

>  <REMARK>
 VINA RESULT:      -6.0      2.002      5.302
  Name = 
  10 active torsions:
  status: ('A' for Active; 'I' for Inactive)
    1  A    between atoms: C_1  and  C_22
    2  A    between atoms: C_4  and  C_23
    3  A    between atoms: O_5  and  C_22
    4  A    between atoms: O_5  and  C_31
    5  A    between atoms: C_8  and  C_9
    6  A    between atoms: C_9  and  C_33
    7  A    between atoms: C_16  and  C_21
    8  A    between atoms: C_16  and  C_26
    9  A    between atoms: C_20  and  C_31
   10  A    between atoms: O_34  and  C_35
                            x       y       z     vdW  Elec       q    Type
                         _______ _______ _______ _____ _____    ______ ____

>  <TORSDO>
F 10

$$$$
=
 OpenBabel11042415013D

 39 44  0  0  1  0  0  0  0  0999 V2000
  192.5660  176.6300  144.1530 C   0  0  0  0  0  0  0  0  0  0  0  0
  191.9460  177.9980  144.1760 C   0  0  0  0  0  3  0  0  0  0  0  0
  190.7170  173.6930  143.1240 C   0  0  1  0  0  3  0  0  0  0  0  0
  188.9000  174.8270  142.1090 C   0  0  1  0  0  3  0  0  0  0  0  0
  189.9980  174.9080  142.9550 N   0  0  0  0  0  0  0  0  0  0  0  0
  188.3450  175.9500  141.7050 N   0  0  0  0  0  2  0  0  0  0  0  0
  187.7720  172.6600  141.8930 C   0  0  0  0  0  1  0  0  0  0  0  0
  188.9170  173.5220  141.3980 C   0  0  2  0  0  3  0  0  0  0  0  0
  188.8670  177.2110  142.2560 C   0  0  0  0  0  2  0  0  0  0  0  0
  190.2830  172.9040  141.8610 C   0  0  0  0  0  2  0  0  0  0  0  0
  192.2010  174.1710  143.3620 C   0  0  2  0  0  3  0  0  0  0  0  0
  192.0600  175.6890  143.3350 C   0  0  0  0  0  0  0  0  0  0  0  0
  190.1300  177.2200  142.7610 C   0  0  0  0  0  0  0  0  0  0  0  0
  190.8660  175.9590  142.5690 C   0  0  0  0  0  0  0  0  0  0  0  0
  190.7940  178.2870  143.5260 C   0  0  0  0  0  3  0  0  0  0  0  0
  193.1700  173.6140  142.2820 C   0  0  1  0  0  3  0  0  0  0  0  0
  195.8320  173.2930  143.6200 N   0  0  0  0  0  2  0  0  0  0  0  0
  195.3620  174.5850  143.1510 C   0  0  0  0  0  2  0  0  0  0  0  0
  194.4470  174.4060  141.9470 C   0  0  2  0  0  3  0  0  0  0  0  0
  193.4550  172.2260  142.3930 O   0  0  0  0  0  0  0  0  0  0  0  0
  194.7870  172.7550  144.4760 C   0  0  1  0  0  3  0  0  0  0  0  0
  193.8560  171.8060  143.6950 C   0  0  1  0  0  3  0  0  0  0  0  0
  192.2820  170.2610  143.8940 C   0  0  0  0  0  1  0  0  0  0  0  0
  192.7450  171.4470  144.4650 O   0  0  0  0  0  0  0  0  0  0  0  0
  195.3890  172.0770  145.7080 C   0  0  0  0  0  2  0  0  0  0  0  0
  196.8980  172.2640  145.8160 C   0  0  0  0  0  2  0  0  0  0  0  0
  197.1880  173.4350  146.5150 O   0  0  0  0  0  1  0  0  0  0  0  0
  194.1490  175.7270  141.2520 C   0  0  0  0  0  2  0  0  0  0  0  0
  195.4980  174.8390  139.4200 C   0  0  0  0  0  2  0  0  0  0  0  0
  194.5410  175.6700  139.8150 C   0  0  0  0  0  3  0  0  0  0  0  0
  193.6680  176.3080  145.1060 C   0  0  0  0  0  2  0  0  0  0  0  0
  193.3080  176.7030  146.3940 O   0  0  0  0  0  0  0  0  0  0  0  0
  192.6570  175.5940  146.9340 C   0  0  0  0  0  2  0  0  0  0  0  0
  188.4160  176.2010  146.8860 C   0  0  0  0  0  3  0  0  0  0  0  0
  191.1850  175.8100  146.8970 C   0  0  0  0  0  0  0  0  0  0  0  0
  188.9470  174.9500  146.5550 C   0  0  0  0  0  3  0  0  0  0  0  0
  190.3300  174.7530  146.5630 C   0  0  0  0  0  3  0  0  0  0  0  0
  190.6530  177.0580  147.2380 C   0  0  0  0  0  3  0  0  0  0  0  0
  189.2690  177.2540  147.2290 C   0  0  0  0  0  3  0  0  0  0  0  0
  1  2  1  0  0  0  0
  1 31  1  0  0  0  0
  3 10  1  6  0  0  0
  3 11  1  0  0  0  0
  4  6  1  6  0  0  0
  4  5  1  0  0  0  0
  5  3  1  0  0  0  0
  6  9  1  0  0  0  0
  8 10  1  0  0  0  0
  8  7  1  1  0  0  0
  8  4  1  0  0  0  0
  9 13  1  0  0  0  0
 11 12  1  6  0  0  0
 12  1  2  0  0  0  0
 13 15  1  0  0  0  0
 14 13  2  0  0  0  0
 14  5  1  0  0  0  0
 14 12  1  0  0  0  0
 15  2  2  0  0  0  0
 16 20  1  1  0  0  0
 16 11  1  0  0  0  0
 17 21  1  0  0  0  0
 18 17  1  0  0  0  0
 19 28  1  1  0  0  0
 19 16  1  0  0  0  0
 19 18  1  0  0  0  0
 20 22  1  0  0  0  0
 21 25  1  1  0  0  0
 22 24  1  1  0  0  0
 22 21  1  0  0  0  0
 23 24  1  0  0  0  0
 25 26  1  0  0  0  0
 26 27  1  0  0  0  0
 29 30  2  0  0  0  0
 30 28  1  0  0  0  0
 31 32  1  0  0  0  0
 32 33  1  0  0  0  0
 34 39  1  0  0  0  0
 35 33  1  0  0  0  0
 35 38  1  0  0  0  0
 36 37  1  0  0  0  0
 36 34  2  0  0  0  0
 37 35  2  0  0  0  0
 39 38  2  0  0  0  0
M  END
>  <MODEL>
8

>  <REMARK>
 VINA RESULT:      -5.9      2.325      5.704
  Name = 
  10 active torsions:
  status: ('A' for Active; 'I' for Inactive)
    1  A    between atoms: C_1  and  C_22
    2  A    between atoms: C_4  and  C_23
    3  A    between atoms: O_5  and  C_22
    4  A    between atoms: O_5  and  C_31
    5  A    between atoms: C_8  and  C_9
    6  A    between atoms: C_9  and  C_33
    7  A    between atoms: C_16  and  C_21
    8  A    between atoms: C_16  and  C_26
    9  A    between atoms: C_20  and  C_31
   10  A    between atoms: O_34  and  C_35
                            x       y       z     vdW  Elec       q    Type
                         _______ _______ _______ _____ _____    ______ ____

>  <TORSDO>
F 10

$$$$
=
 OpenBabel11042415013D

 39 44  0  0  1  0  0  0  0  0999 V2000
  192.2960  174.2420  145.3640 C   0  0  0  0  0  0  0  0  0  0  0  0
  192.6190  174.8450  146.7010 C   0  0  0  0  0  3  0  0  0  0  0  0
  189.1320  174.8240  143.7030 C   0  0  1  0  0  3  0  0  0  0  0  0
  188.4330  176.6590  145.0300 C   0  0  1  0  0  3  0  0  0  0  0  0
  189.2990  175.5810  144.8940 N   0  0  0  0  0  0  0  0  0  0  0  0
  188.6910  177.5460  145.9670 N   0  0  0  0  0  2  0  0  0  0  0  0
  186.2500  176.5270  143.9210 C   0  0  0  0  0  1  0  0  0  0  0  0
  187.7130  176.8810  143.7480 C   0  0  2  0  0  3  0  0  0  0  0  0
  189.8250  177.2840  146.8680 C   0  0  0  0  0  2  0  0  0  0  0  0
  188.4000  175.8450  142.7920 C   0  0  0  0  0  2  0  0  0  0  0  0
  190.5850  174.2940  143.3940 C   0  0  2  0  0  3  0  0  0  0  0  0
  191.3850  174.8390  144.5740 C   0  0  0  0  0  0  0  0  0  0  0  0
  190.8020  176.4380  146.4450 C   0  0  0  0  0  0  0  0  0  0  0  0
  190.6470  175.9840  145.0520 C   0  0  0  0  0  0  0  0  0  0  0  0
  191.9190  175.8790  147.2230 C   0  0  0  0  0  3  0  0  0  0  0  0
  191.0990  174.7840  142.0110 C   0  0  1  0  0  3  0  0  0  0  0  0
  192.9210  172.6410  140.9790 N   0  0  0  0  0  2  0  0  0  0  0  0
  193.3620  173.6080  141.9690 C   0  0  0  0  0  2  0  0  0  0  0  0
  192.6150  174.9230  141.7870 C   0  0  2  0  0  3  0  0  0  0  0  0
  190.4810  174.1670  140.8900 O   0  0  0  0  0  0  0  0  0  0  0  0
  191.7030  172.0390  141.4970 C   0  0  1  0  0  3  0  0  0  0  0  0
  190.4490  172.7430  140.9410 C   0  0  1  0  0  3  0  0  0  0  0  0
  188.2410  172.7080  140.7700 C   0  0  0  0  0  1  0  0  0  0  0  0
  189.2920  172.2950  141.5880 O   0  0  0  0  0  0  0  0  0  0  0  0
  191.6800  170.5340  141.2240 C   0  0  0  0  0  2  0  0  0  0  0  0
  192.8120  169.7840  141.9170 C   0  0  0  0  0  2  0  0  0  0  0  0
  192.5840  169.7340  143.2920 O   0  0  0  0  0  1  0  0  0  0  0  0
  193.2280  176.0480  142.6100 C   0  0  0  0  0  2  0  0  0  0  0  0
  195.1370  176.1590  144.1290 C   0  0  0  0  0  2  0  0  0  0  0  0
  194.6380  175.7320  142.9750 C   0  0  0  0  0  3  0  0  0  0  0  0
  192.9150  172.9420  144.9760 C   0  0  0  0  0  2  0  0  0  0  0  0
  194.0300  172.6940  145.7750 O   0  0  0  0  0  0  0  0  0  0  0  0
  194.8780  171.9320  144.9710 C   0  0  0  0  0  2  0  0  0  0  0  0
  196.3090  168.5860  147.2330 C   0  0  0  0  0  3  0  0  0  0  0  0
  195.3740  170.7580  145.7400 C   0  0  0  0  0  0  0  0  0  0  0  0
  197.2170  169.4360  146.5920 C   0  0  0  0  0  3  0  0  0  0  0  0
  196.7500  170.5230  145.8490 C   0  0  0  0  0  3  0  0  0  0  0  0
  194.4690  169.9130  146.3890 C   0  0  0  0  0  3  0  0  0  0  0  0
  194.9360  168.8260  147.1340 C   0  0  0  0  0  3  0  0  0  0  0  0
  1  2  1  0  0  0  0
  2 15  2  0  0  0  0
  3 10  1  6  0  0  0
  3  5  1  0  0  0  0
  4  6  1  6  0  0  0
  5  4  1  0  0  0  0
  5 14  1  0  0  0  0
  6  9  1  0  0  0  0
  8  7  1  1  0  0  0
  8  4  1  0  0  0  0
 10  8  1  0  0  0  0
 11  3  1  0  0  0  0
 11 12  1  1  0  0  0
 12 14  1  0  0  0  0
 12  1  2  0  0  0  0
 13  9  1  0  0  0  0
 13 15  1  0  0  0  0
 14 13  2  0  0  0  0
 16 20  1  6  0  0  0
 16 11  1  0  0  0  0
 17 21  1  0  0  0  0
 17 18  1  0  0  0  0
 19 18  1  0  0  0  0
 19 16  1  0  0  0  0
 19 28  1  1  0  0  0
 20 22  1  0  0  0  0
 21 25  1  6  0  0  0
 22 21  1  0  0  0  0
 22 24  1  1  0  0  0
 23 24  1  0  0  0  0
 25 26  1  0  0  0  0
 26 27  1  0  0  0  0
 28 30  1  0  0  0  0
 30 29  2  0  0  0  0
 31  1  1  0  0  0  0
 31 32  1  0  0  0  0
 33 35  1  0  0  0  0
 33 32  1  0  0  0  0
 35 37  2  0  0  0  0
 35 38  1  0  0  0  0
 36 34  2  0  0  0  0
 37 36  1  0  0  0  0
 38 39  2  0  0  0  0
 39 34  1  0  0  0  0
M  END
>  <MODEL>
9

>  <REMARK>
 VINA RESULT:      -5.8      2.568      5.580
  Name = 
  10 active torsions:
  status: ('A' for Active; 'I' for Inactive)
    1  A    between atoms: C_1  and  C_22
    2  A    between atoms: C_4  and  C_23
    3  A    between atoms: O_5  and  C_22
    4  A    between atoms: O_5  and  C_31
    5  A    between atoms: C_8  and  C_9
    6  A    between atoms: C_9  and  C_33
    7  A    between atoms: C_16  and  C_21
    8  A    between atoms: C_16  and  C_26
    9  A    between atoms: C_20  and  C_31
   10  A    between atoms: O_34  and  C_35
                            x       y       z     vdW  Elec       q    Type
                         _______ _______ _______ _____ _____    ______ ____

>  <TORSDO>
F 10

$$$$
