=
 OpenBabel11042416483D

 29 33  0  0  1  0  0  0  0  0999 V2000
  187.1200  178.0220  146.7750 C   0  0  0  0  0  3  0  0  0  0  0  0
  190.7220  174.8400  141.9620 C   0  0  0  0  0  2  0  0  0  0  0  0
  184.5390  178.5330  143.6350 C   0  0  0  0  0  0  0  0  0  0  0  0
  188.8720  177.7870  141.9820 C   0  0  0  0  0  3  0  0  0  0  0  0
  189.3210  177.4690  147.7260 N   0  0  0  0  0  0  0  0  0  0  0  0
  188.9240  176.8720  145.4630 C   0  0  0  0  0  3  0  0  0  0  0  0
  188.6390  175.1680  143.0670 O   0  0  0  0  0  1  0  0  0  0  0  0
  186.4400  178.2270  142.0050 C   0  0  2  0  0  3  0  0  0  0  0  0
  191.3720  176.9270  148.7400 F   0  0  0  0  0  0  0  0  0  0  0  0
  184.0770  178.1590  141.3060 C   0  0  0  0  0  3  0  0  0  0  0  0
  192.0720  174.5980  142.6250 C   0  0  2  0  0  3  0  0  0  0  0  0
  190.9880  176.3320  146.4980 N   0  0  0  0  0  0  0  0  0  0  0  0
  185.8970  178.2690  143.4060 C   0  0  0  0  0  0  0  0  0  0  0  0
  190.1910  176.3010  145.3950 C   0  0  0  0  0  0  0  0  0  0  0  0
  190.5620  176.9130  147.6540 C   0  0  0  0  0  0  0  0  0  0  0  0
  191.9080  174.9770  144.0870 C   0  0  0  0  0  2  0  0  0  0  0  0
  186.7310  178.1420  144.4640 N   0  0  0  0  0  0  0  0  0  0  0  0
  184.9610  178.6160  145.9710 C   0  0  0  0  0  3  0  0  0  0  0  0
  189.9180  175.7100  142.9100 C   0  0  1  0  0  0  0  0  0  0  0  0
  190.6400  175.6750  144.1780 N   0  0  0  0  0  0  0  0  0  0  0  0
  189.8870  177.0870  142.4000 N   0  0  0  0  0  0  0  0  0  0  0  0
  185.3630  177.9590  140.9920 C   0  0  0  0  0  3  0  0  0  0  0  0
  186.2970  178.2660  145.7450 C   0  0  0  0  0  0  0  0  0  0  0  0
  188.4930  177.4740  146.6480 C   0  0  0  0  0  0  0  0  0  0  0  0
  183.6890  178.5160  142.6480 N   0  0  0  0  0  0  0  0  0  0  0  0
  187.5400  177.2780  141.9060 N   0  0  0  0  0  2  0  0  0  0  0  0
  184.1110  178.7370  144.9120 N   0  0  0  0  0  0  0  0  0  0  0  0
  194.2880  175.7930  143.3850 C   0  0  0  0  0  1  0  0  0  0  0  0
  193.3160  175.6780  141.8560 S   0  0  0  0  0  0  0  0  0  0  0  0
  2 11  1  0  0  0  0
  2 19  1  0  0  0  0
  3 27  1  0  0  0  0
  4 21  2  0  0  0  0
  6 24  2  0  0  0  0
  8 22  1  6  0  0  0
  8 13  1  0  0  0  0
 10 25  1  0  0  0  0
 11 29  1  6  0  0  0
 11 16  1  0  0  0  0
 12 15  1  0  0  0  0
 13  3  1  0  0  0  0
 13 17  2  0  0  0  0
 14  6  1  0  0  0  0
 14 12  2  0  0  0  0
 15  5  2  0  0  0  0
 15  9  1  0  0  0  0
 16 20  1  0  0  0  0
 17 23  1  0  0  0  0
 19  7  1  1  0  0  0
 19 20  1  0  0  0  0
 20 14  1  0  0  0  0
 21 19  1  0  0  0  0
 22 10  2  0  0  0  0
 23 18  1  0  0  0  0
 23  1  2  0  0  0  0
 24  1  1  0  0  0  0
 24  5  1  0  0  0  0
 25  3  2  0  0  0  0
 26  4  1  0  0  0  0
 26  8  1  0  0  0  0
 27 18  2  0  0  0  0
 29 28  1  0  0  0  0
M  END
>  <MODEL>
1

>  <REMARK>
 VINA RESULT:      -8.3      0.000      0.000
  Name = 
  1 active torsions:
  status: ('A' for Active; 'I' for Inactive)
    1  A    between atoms: C_11  and  S_24
                            x       y       z     vdW  Elec       q    Type
                         _______ _______ _______ _____ _____    ______ ____

>  <TORSDO>
F 1

$$$$
=
 OpenBabel11042416483D

 29 33  0  0  1  0  0  0  0  0999 V2000
  187.2460  176.9500  146.8740 C   0  0  0  0  0  3  0  0  0  0  0  0
  190.1890  174.1440  141.4220 C   0  0  0  0  0  2  0  0  0  0  0  0
  184.6200  178.2580  144.0150 C   0  0  0  0  0  0  0  0  0  0  0  0
  188.7430  177.2560  142.0000 C   0  0  0  0  0  3  0  0  0  0  0  0
  189.3950  175.9890  147.5910 N   0  0  0  0  0  0  0  0  0  0  0  0
  188.8250  175.8070  145.2940 C   0  0  0  0  0  3  0  0  0  0  0  0
  188.2170  174.5470  142.6930 O   0  0  0  0  0  1  0  0  0  0  0  0
  186.3920  177.9800  142.2410 C   0  0  2  0  0  3  0  0  0  0  0  0
  191.3990  175.0480  148.3810 F   0  0  0  0  0  0  0  0  0  0  0  0
  184.0130  178.3120  141.6900 C   0  0  0  0  0  3  0  0  0  0  0  0
  191.5240  173.6370  141.9550 C   0  0  2  0  0  3  0  0  0  0  0  0
  190.8430  174.8630  146.1050 N   0  0  0  0  0  0  0  0  0  0  0  0
  185.9200  177.8690  143.6640 C   0  0  0  0  0  0  0  0  0  0  0  0
  190.0030  175.1030  145.0620 C   0  0  0  0  0  0  0  0  0  0  0  0
  190.5480  175.3030  147.3590 C   0  0  0  0  0  0  0  0  0  0  0  0
  191.4730  173.8000  143.4650 C   0  0  0  0  0  2  0  0  0  0  0  0
  186.7750  177.4770  144.6370 N   0  0  0  0  0  0  0  0  0  0  0  0
  185.1500  177.9220  146.3060 C   0  0  0  0  0  3  0  0  0  0  0  0
  189.5470  174.9460  142.5380 C   0  0  1  0  0  0  0  0  0  0  0  0
  190.3130  174.6250  143.7390 N   0  0  0  0  0  0  0  0  0  0  0  0
  189.6750  176.3790  142.2430 N   0  0  0  0  0  0  0  0  0  0  0  0
  185.2460  178.0090  141.2690 C   0  0  0  0  0  3  0  0  0  0  0  0
  186.4170  177.4510  145.9470 C   0  0  0  0  0  0  0  0  0  0  0  0
  188.5280  176.2640  146.5810 C   0  0  0  0  0  0  0  0  0  0  0  0
  183.7330  178.5000  143.0920 N   0  0  0  0  0  0  0  0  0  0  0  0
  187.3540  176.9320  141.9330 N   0  0  0  0  0  2  0  0  0  0  0  0
  184.2780  178.3110  145.3320 N   0  0  0  0  0  0  0  0  0  0  0  0
  193.7690  174.6690  142.8530 C   0  0  0  0  0  1  0  0  0  0  0  0
  192.8630  174.6640  141.2800 S   0  0  0  0  0  0  0  0  0  0  0  0
  2 11  1  0  0  0  0
  2 19  1  0  0  0  0
  3 27  1  0  0  0  0
  4 21  2  0  0  0  0
  6 24  2  0  0  0  0
  8 22  1  6  0  0  0
  8 13  1  0  0  0  0
 10 25  1  0  0  0  0
 11 29  1  6  0  0  0
 11 16  1  0  0  0  0
 12 15  1  0  0  0  0
 13  3  1  0  0  0  0
 13 17  2  0  0  0  0
 14  6  1  0  0  0  0
 14 12  2  0  0  0  0
 15  5  2  0  0  0  0
 15  9  1  0  0  0  0
 16 20  1  0  0  0  0
 17 23  1  0  0  0  0
 19  7  1  1  0  0  0
 19 20  1  0  0  0  0
 20 14  1  0  0  0  0
 21 19  1  0  0  0  0
 22 10  2  0  0  0  0
 23 18  1  0  0  0  0
 23  1  2  0  0  0  0
 24  1  1  0  0  0  0
 24  5  1  0  0  0  0
 25  3  2  0  0  0  0
 26  4  1  0  0  0  0
 26  8  1  0  0  0  0
 27 18  2  0  0  0  0
 29 28  1  0  0  0  0
M  END
>  <MODEL>
2

>  <REMARK>
 VINA RESULT:      -8.2      1.044      1.044
  Name = 
  1 active torsions:
  status: ('A' for Active; 'I' for Inactive)
    1  A    between atoms: C_11  and  S_24
                            x       y       z     vdW  Elec       q    Type
                         _______ _______ _______ _____ _____    ______ ____

>  <TORSDO>
F 1

$$$$
=
 OpenBabel11042416483D

 29 33  0  0  1  0  0  0  0  0999 V2000
  186.5420  176.3410  142.0530 C   0  0  0  0  0  3  0  0  0  0  0  0
  192.2810  176.2850  145.7030 C   0  0  0  0  0  2  0  0  0  0  0  0
  185.1570  178.2420  145.4080 C   0  0  0  0  0  0  0  0  0  0  0  0
  188.9480  175.6980  146.5130 C   0  0  0  0  0  3  0  0  0  0  0  0
  188.1910  174.9780  140.8380 N   0  0  0  0  0  0  0  0  0  0  0  0
  188.8560  175.9040  142.9200 C   0  0  0  0  0  3  0  0  0  0  0  0
  190.4120  177.4950  144.8630 O   0  0  0  0  0  1  0  0  0  0  0  0
  187.0080  177.2060  146.7750 C   0  0  2  0  0  3  0  0  0  0  0  0
  189.7190  173.7120  139.5760 F   0  0  0  0  0  0  0  0  0  0  0  0
  185.6350  179.0750  147.6100 C   0  0  0  0  0  3  0  0  0  0  0  0
  193.2060  175.3760  144.9030 C   0  0  2  0  0  3  0  0  0  0  0  0
  190.3850  174.6250  141.6380 N   0  0  0  0  0  0  0  0  0  0  0  0
  186.3020  177.4350  145.4670 C   0  0  0  0  0  0  0  0  0  0  0  0
  190.1220  175.3510  142.7580 C   0  0  0  0  0  0  0  0  0  0  0  0
  189.4310  174.4350  140.6850 C   0  0  0  0  0  0  0  0  0  0  0  0
  192.5000  175.0940  143.5870 C   0  0  0  0  0  2  0  0  0  0  0  0
  186.7120  176.7910  144.3500 N   0  0  0  0  0  0  0  0  0  0  0  0
  184.8590  177.6310  143.1320 C   0  0  0  0  0  3  0  0  0  0  0  0
  190.9150  176.2050  145.0480 C   0  0  1  0  0  0  0  0  0  0  0  0
  191.1390  175.5610  143.7570 N   0  0  0  0  0  0  0  0  0  0  0  0
  190.0300  175.3670  145.8680 N   0  0  0  0  0  0  0  0  0  0  0  0
  186.7050  178.2880  147.7730 C   0  0  0  0  0  3  0  0  0  0  0  0
  186.0490  176.8970  143.1690 C   0  0  0  0  0  0  0  0  0  0  0  0
  187.8760  175.7010  141.9450 C   0  0  0  0  0  0  0  0  0  0  0  0
  184.8230  178.9860  146.4230 N   0  0  0  0  0  0  0  0  0  0  0  0
  188.4380  177.0310  146.5660 N   0  0  0  0  0  2  0  0  0  0  0  0
  184.4410  178.2910  144.2500 N   0  0  0  0  0  0  0  0  0  0  0  0
  193.3500  172.8210  144.2950 C   0  0  0  0  0  1  0  0  0  0  0  0
  193.4410  173.8180  145.8100 S   0  0  0  0  0  0  0  0  0  0  0  0
  1 23  2  0  0  0  0
  3 13  1  0  0  0  0
  3 25  2  0  0  0  0
  4 26  1  0  0  0  0
  5 24  1  0  0  0  0
  8 22  1  1  0  0  0
  9 15  1  0  0  0  0
 10 22  2  0  0  0  0
 11  2  1  0  0  0  0
 11 29  1  1  0  0  0
 12 14  2  0  0  0  0
 13  8  1  0  0  0  0
 14  6  1  0  0  0  0
 14 20  1  0  0  0  0
 15  5  2  0  0  0  0
 15 12  1  0  0  0  0
 16 20  1  0  0  0  0
 16 11  1  0  0  0  0
 17 13  2  0  0  0  0
 18 23  1  0  0  0  0
 18 27  2  0  0  0  0
 19  7  1  6  0  0  0
 19  2  1  0  0  0  0
 19 21  1  0  0  0  0
 20 19  1  0  0  0  0
 21  4  2  0  0  0  0
 23 17  1  0  0  0  0
 24  1  1  0  0  0  0
 24  6  2  0  0  0  0
 25 10  1  0  0  0  0
 26  8  1  0  0  0  0
 27  3  1  0  0  0  0
 28 29  1  0  0  0  0
M  END
>  <MODEL>
3

>  <REMARK>
 VINA RESULT:      -8.1      2.578      4.538
  Name = 
  1 active torsions:
  status: ('A' for Active; 'I' for Inactive)
    1  A    between atoms: C_11  and  S_24
                            x       y       z     vdW  Elec       q    Type
                         _______ _______ _______ _____ _____    ______ ____

>  <TORSDO>
F 1

$$$$
=
 OpenBabel11042416483D

 29 33  0  0  1  0  0  0  0  0999 V2000
  188.2430  176.1980  146.9810 C   0  0  0  0  0  3  0  0  0  0  0  0
  186.3520  178.1250  140.7380 C   0  0  0  0  0  2  0  0  0  0  0  0
  191.3300  174.5370  144.8610 C   0  0  0  0  0  0  0  0  0  0  0  0
  187.6460  175.1580  142.0150 C   0  0  0  0  0  3  0  0  0  0  0  0
  186.0070  177.2120  147.1520 N   0  0  0  0  0  0  0  0  0  0  0  0
  186.9820  177.0690  144.9920 C   0  0  0  0  0  3  0  0  0  0  0  0
  188.0590  177.9480  142.3860 O   0  0  0  0  0  1  0  0  0  0  0  0
  189.9090  174.5210  142.7770 C   0  0  2  0  0  3  0  0  0  0  0  0
  183.9000  178.2200  147.4230 F   0  0  0  0  0  0  0  0  0  0  0  0
  192.3460  174.1570  142.7170 C   0  0  0  0  0  3  0  0  0  0  0  0
  184.9460  178.6780  140.9420 C   0  0  2  0  0  3  0  0  0  0  0  0
  184.8580  178.0820  145.2810 N   0  0  0  0  0  0  0  0  0  0  0  0
  190.1170  174.8470  144.2300 C   0  0  0  0  0  0  0  0  0  0  0  0
  185.8720  177.7090  144.4520 C   0  0  0  0  0  0  0  0  0  0  0  0
  184.9200  177.8350  146.6190 C   0  0  0  0  0  0  0  0  0  0  0  0
  184.7230  178.7370  142.4440 C   0  0  0  0  0  2  0  0  0  0  0  0
  189.1040  175.3600  144.9650 N   0  0  0  0  0  0  0  0  0  0  0  0
  190.3990  175.1940  146.9460 C   0  0  0  0  0  3  0  0  0  0  0  0
  186.7750  177.5060  142.0560 C   0  0  1  0  0  0  0  0  0  0  0  0
  185.8080  177.9840  143.0400 N   0  0  0  0  0  0  0  0  0  0  0  0
  186.6920  176.0420  141.9560 N   0  0  0  0  0  0  0  0  0  0  0  0
  191.2110  174.3730  142.0420 C   0  0  0  0  0  3  0  0  0  0  0  0
  189.2210  175.5830  146.3000 C   0  0  0  0  0  0  0  0  0  0  0  0
  187.0390  176.8100  146.3640 C   0  0  0  0  0  0  0  0  0  0  0  0
  192.3670  174.1810  144.1580 N   0  0  0  0  0  0  0  0  0  0  0  0
  189.0270  175.4950  142.1510 N   0  0  0  0  0  2  0  0  0  0  0  0
  191.4290  174.6840  146.2120 N   0  0  0  0  0  0  0  0  0  0  0  0
  182.3590  178.2500  141.1310 C   0  0  0  0  0  1  0  0  0  0  0  0
  183.7430  177.5390  140.1960 S   0  0  0  0  0  0  0  0  0  0  0  0
  2 11  1  0  0  0  0
  2 19  1  0  0  0  0
  3 27  1  0  0  0  0
  4 26  1  0  0  0  0
  6 24  2  0  0  0  0
  8 22  1  6  0  0  0
  8 13  1  0  0  0  0
 10 25  1  0  0  0  0
 11 29  1  6  0  0  0
 11 16  1  0  0  0  0
 12 15  1  0  0  0  0
 13  3  1  0  0  0  0
 13 17  2  0  0  0  0
 14  6  1  0  0  0  0
 14 12  2  0  0  0  0
 15  5  2  0  0  0  0
 15  9  1  0  0  0  0
 16 20  1  0  0  0  0
 17 23  1  0  0  0  0
 19  7  1  1  0  0  0
 19 20  1  0  0  0  0
 20 14  1  0  0  0  0
 21  4  2  0  0  0  0
 21 19  1  0  0  0  0
 22 10  2  0  0  0  0
 23 18  1  0  0  0  0
 23  1  2  0  0  0  0
 24  1  1  0  0  0  0
 24  5  1  0  0  0  0
 25  3  2  0  0  0  0
 26  8  1  0  0  0  0
 27 18  2  0  0  0  0
 29 28  1  0  0  0  0
M  END
>  <MODEL>
4

>  <REMARK>
 VINA RESULT:      -7.9      2.832      6.360
  Name = 
  1 active torsions:
  status: ('A' for Active; 'I' for Inactive)
    1  A    between atoms: C_11  and  S_24
                            x       y       z     vdW  Elec       q    Type
                         _______ _______ _______ _____ _____    ______ ____

>  <TORSDO>
F 1

$$$$
=
 OpenBabel11042416483D

 29 33  0  0  1  0  0  0  0  0999 V2000
  188.8300  176.5150  146.4050 C   0  0  0  0  0  3  0  0  0  0  0  0
  188.1910  173.3960  140.3940 C   0  0  0  0  0  2  0  0  0  0  0  0
  185.4480  178.4120  145.0830 C   0  0  0  0  0  0  0  0  0  0  0  0
  187.8160  176.7060  141.4020 C   0  0  0  0  0  3  0  0  0  0  0  0
  190.8350  175.1300  146.0600 N   0  0  0  0  0  0  0  0  0  0  0  0
  189.2050  175.1470  144.3340 C   0  0  0  0  0  3  0  0  0  0  0  0
  187.1930  174.1260  142.4280 O   0  0  0  0  0  1  0  0  0  0  0  0
  186.0560  177.8620  142.6970 C   0  0  2  0  0  3  0  0  0  0  0  0
  192.7550  173.7900  145.8470 F   0  0  0  0  0  0  0  0  0  0  0  0
  183.8170  178.6690  143.3370 C   0  0  0  0  0  3  0  0  0  0  0  0
  189.4960  172.6220  140.2500 C   0  0  2  0  0  3  0  0  0  0  0  0
  191.1460  173.8010  144.1320 N   0  0  0  0  0  0  0  0  0  0  0  0
  186.3180  177.7910  144.1750 C   0  0  0  0  0  0  0  0  0  0  0  0
  189.9680  174.2380  143.6090 C   0  0  0  0  0  0  0  0  0  0  0  0
  191.5810  174.2430  145.3450 C   0  0  0  0  0  0  0  0  0  0  0  0
  190.2120  172.7350  141.5860 C   0  0  0  0  0  2  0  0  0  0  0  0
  187.4460  177.2050  144.6400 N   0  0  0  0  0  0  0  0  0  0  0  0
  186.9440  177.8940  146.8540 C   0  0  0  0  0  3  0  0  0  0  0  0
  188.3310  174.2660  141.6290 C   0  0  1  0  0  0  0  0  0  0  0  0
  189.5060  173.7580  142.3320 N   0  0  0  0  0  0  0  0  0  0  0  0
  188.5660  175.6570  141.2210 N   0  0  0  0  0  0  0  0  0  0  0  0
  184.6120  178.1480  142.3950 C   0  0  0  0  0  3  0  0  0  0  0  0
  187.7670  177.2000  145.9600 C   0  0  0  0  0  0  0  0  0  0  0  0
  189.6570  175.6050  145.5740 C   0  0  0  0  0  0  0  0  0  0  0  0
  184.2890  178.8540  144.6860 N   0  0  0  0  0  0  0  0  0  0  0  0
  186.5340  176.6590  142.0300 N   0  0  0  0  0  2  0  0  0  0  0  0
  185.8010  178.4800  146.3960 N   0  0  0  0  0  0  0  0  0  0  0  0
  189.0570  173.7890  137.9350 C   0  0  0  0  0  1  0  0  0  0  0  0
  190.5080  173.3940  138.9530 S   0  0  0  0  0  0  0  0  0  0  0  0
  2 19  1  0  0  0  0
  3 27  1  0  0  0  0
  4 26  1  0  0  0  0
  6 24  2  0  0  0  0
  8 22  1  1  0  0  0
  8 13  1  0  0  0  0
 10 25  1  0  0  0  0
 11 29  1  6  0  0  0
 11  2  1  0  0  0  0
 11 16  1  0  0  0  0
 12 15  1  0  0  0  0
 13 17  2  0  0  0  0
 13  3  1  0  0  0  0
 14 12  2  0  0  0  0
 14  6  1  0  0  0  0
 15  9  1  0  0  0  0
 15  5  2  0  0  0  0
 16 20  1  0  0  0  0
 17 23  1  0  0  0  0
 19 20  1  0  0  0  0
 19  7  1  1  0  0  0
 20 14  1  0  0  0  0
 21  4  2  0  0  0  0
 21 19  1  0  0  0  0
 22 10  2  0  0  0  0
 23  1  2  0  0  0  0
 23 18  1  0  0  0  0
 24  5  1  0  0  0  0
 24  1  1  0  0  0  0
 25  3  2  0  0  0  0
 26  8  1  0  0  0  0
 27 18  2  0  0  0  0
 28 29  1  0  0  0  0
M  END
>  <MODEL>
5

>  <REMARK>
 VINA RESULT:      -7.9      2.200      3.006
  Name = 
  1 active torsions:
  status: ('A' for Active; 'I' for Inactive)
    1  A    between atoms: C_11  and  S_24
                            x       y       z     vdW  Elec       q    Type
                         _______ _______ _______ _____ _____    ______ ____

>  <TORSDO>
F 1

$$$$
=
 OpenBabel11042416483D

 29 33  0  0  1  0  0  0  0  0999 V2000
  191.9650  173.7050  141.3350 C   0  0  0  0  0  3  0  0  0  0  0  0
  187.2970  176.9260  145.0900 C   0  0  0  0  0  2  0  0  0  0  0  0
  194.3790  174.9110  144.4180 C   0  0  0  0  0  0  0  0  0  0  0  0
  190.5870  177.6760  144.2370 C   0  0  0  0  0  3  0  0  0  0  0  0
  189.8800  173.7910  140.0310 N   0  0  0  0  0  0  0  0  0  0  0  0
  189.8760  174.8150  142.1720 C   0  0  0  0  0  3  0  0  0  0  0  0
  189.0920  175.3680  144.9660 O   0  0  0  0  0  1  0  0  0  0  0  0
  192.7530  176.7540  144.9880 C   0  0  2  0  0  3  0  0  0  0  0  0
  187.9170  173.7680  138.7370 F   0  0  0  0  0  0  0  0  0  0  0  0
  194.5670  176.0730  146.5120 C   0  0  0  0  0  3  0  0  0  0  0  0
  186.0770  176.9790  144.1790 C   0  0  2  0  0  3  0  0  0  0  0  0
  187.9040  174.7860  140.8560 N   0  0  0  0  0  0  0  0  0  0  0  0
  193.1630  175.5630  144.1670 C   0  0  0  0  0  0  0  0  0  0  0  0
  188.5340  175.1440  142.0080 C   0  0  0  0  0  0  0  0  0  0  0  0
  188.5680  174.1180  139.8720 C   0  0  0  0  0  0  0  0  0  0  0  0
  186.4030  176.1130  142.9730 C   0  0  0  0  0  2  0  0  0  0  0  0
  192.4070  175.1650  143.1180 N   0  0  0  0  0  0  0  0  0  0  0  0
  194.0390  173.5620  142.4920 C   0  0  0  0  0  3  0  0  0  0  0  0
  188.4430  176.3830  144.2570 C   0  0  1  0  0  0  0  0  0  0  0  0
  187.8250  175.8390  143.0520 N   0  0  0  0  0  0  0  0  0  0  0  0
  189.3460  177.4820  143.8930 N   0  0  0  0  0  0  0  0  0  0  0  0
  193.4500  176.7860  146.3190 C   0  0  0  0  0  3  0  0  0  0  0  0
  192.7870  174.1540  142.2950 C   0  0  0  0  0  0  0  0  0  0  0  0
  190.5570  174.1370  141.1580 C   0  0  0  0  0  0  0  0  0  0  0  0
  195.0560  175.1720  145.4990 N   0  0  0  0  0  0  0  0  0  0  0  0
  191.3050  176.8140  145.1210 N   0  0  0  0  0  2  0  0  0  0  0  0
  194.8050  173.9500  143.5510 N   0  0  0  0  0  0  0  0  0  0  0  0
  184.2220  178.2910  142.8560 C   0  0  0  0  0  1  0  0  0  0  0  0
  185.8100  178.6930  143.6390 S   0  0  0  0  0  0  0  0  0  0  0  0
  1 23  2  0  0  0  0
  3 25  2  0  0  0  0
  4 26  1  0  0  0  0
  5 24  1  0  0  0  0
  8 26  1  0  0  0  0
  8 22  1  1  0  0  0
  9 15  1  0  0  0  0
 11 29  1  6  0  0  0
 11  2  1  0  0  0  0
 12 14  2  0  0  0  0
 13  3  1  0  0  0  0
 13  8  1  0  0  0  0
 14  6  1  0  0  0  0
 14 20  1  0  0  0  0
 15  5  2  0  0  0  0
 15 12  1  0  0  0  0
 16 20  1  0  0  0  0
 16 11  1  0  0  0  0
 17 13  2  0  0  0  0
 18 27  2  0  0  0  0
 19  7  1  1  0  0  0
 19  2  1  0  0  0  0
 20 19  1  0  0  0  0
 21  4  2  0  0  0  0
 21 19  1  0  0  0  0
 22 10  2  0  0  0  0
 23 18  1  0  0  0  0
 23 17  1  0  0  0  0
 24  1  1  0  0  0  0
 24  6  2  0  0  0  0
 25 10  1  0  0  0  0
 27  3  1  0  0  0  0
 28 29  1  0  0  0  0
M  END
>  <MODEL>
6

>  <REMARK>
 VINA RESULT:      -7.4      3.416      7.818
  Name = 
  1 active torsions:
  status: ('A' for Active; 'I' for Inactive)
    1  A    between atoms: C_11  and  S_24
                            x       y       z     vdW  Elec       q    Type
                         _______ _______ _______ _____ _____    ______ ____

>  <TORSDO>
F 1

$$$$
=
 OpenBabel11042416483D

 29 33  0  0  1  0  0  0  0  0999 V2000
  188.3720  175.0590  141.7640 C   0  0  0  0  0  3  0  0  0  0  0  0
  193.9030  176.8250  145.3080 C   0  0  0  0  0  2  0  0  0  0  0  0
  186.5220  176.9580  144.8880 C   0  0  0  0  0  0  0  0  0  0  0  0
  190.7980  175.5540  146.2330 C   0  0  0  0  0  3  0  0  0  0  0  0
  190.3190  173.9980  140.6970 N   0  0  0  0  0  0  0  0  0  0  0  0
  190.7110  175.3000  142.6430 C   0  0  0  0  0  3  0  0  0  0  0  0
  191.8090  177.4390  144.3570 O   0  0  0  0  0  1  0  0  0  0  0  0
  188.5480  176.5700  146.3410 C   0  0  2  0  0  3  0  0  0  0  0  0
  192.1240  172.9950  139.5730 F   0  0  0  0  0  0  0  0  0  0  0  0
  186.7540  178.1400  146.9670 C   0  0  0  0  0  3  0  0  0  0  0  0
  195.0310  176.0760  144.6100 C   0  0  2  0  0  3  0  0  0  0  0  0
  192.5220  174.2820  141.5000 N   0  0  0  0  0  0  0  0  0  0  0  0
  187.8270  176.4640  145.0260 C   0  0  0  0  0  0  0  0  0  0  0  0
  192.0750  175.0520  142.5290 C   0  0  0  0  0  0  0  0  0  0  0  0
  191.6550  173.7550  140.5910 C   0  0  0  0  0  0  0  0  0  0  0  0
  194.4330  175.4760  143.3480 C   0  0  0  0  0  2  0  0  0  0  0  0
  188.3960  175.8080  143.9880 N   0  0  0  0  0  0  0  0  0  0  0  0
  186.4130  176.0250  142.7060 C   0  0  0  0  0  3  0  0  0  0  0  0
  192.6060  176.3400  144.6890 C   0  0  1  0  0  0  0  0  0  0  0  0
  192.9970  175.6190  143.4810 N   0  0  0  0  0  0  0  0  0  0  0  0
  191.9370  175.4180  145.6160 N   0  0  0  0  0  0  0  0  0  0  0  0
  187.9790  177.6590  147.2070 C   0  0  0  0  0  3  0  0  0  0  0  0
  187.7440  175.6090  142.8130 C   0  0  0  0  0  0  0  0  0  0  0  0
  189.8230  174.7510  141.7140 C   0  0  0  0  0  0  0  0  0  0  0  0
  186.0040  177.7160  145.8110 N   0  0  0  0  0  0  0  0  0  0  0  0
  189.9810  176.7210  146.1330 N   0  0  0  0  0  2  0  0  0  0  0  0
  185.8330  176.6940  143.7430 N   0  0  0  0  0  0  0  0  0  0  0  0
  197.0980  174.4510  144.6770 C   0  0  0  0  0  1  0  0  0  0  0  0
  195.6210  174.7410  145.6930 S   0  0  0  0  0  0  0  0  0  0  0  0
  1 23  2  0  0  0  0
  3 13  1  0  0  0  0
  3 25  2  0  0  0  0
  5 24  1  0  0  0  0
  8 22  1  6  0  0  0
  9 15  1  0  0  0  0
 10 22  2  0  0  0  0
 11  2  1  0  0  0  0
 11 29  1  1  0  0  0
 12 14  2  0  0  0  0
 13  8  1  0  0  0  0
 14  6  1  0  0  0  0
 14 20  1  0  0  0  0
 15  5  2  0  0  0  0
 15 12  1  0  0  0  0
 16 20  1  0  0  0  0
 16 11  1  0  0  0  0
 17 13  2  0  0  0  0
 18 23  1  0  0  0  0
 18 27  2  0  0  0  0
 19  7  1  6  0  0  0
 19  2  1  0  0  0  0
 19 21  1  0  0  0  0
 20 19  1  0  0  0  0
 21  4  2  0  0  0  0
 23 17  1  0  0  0  0
 24  1  1  0  0  0  0
 24  6  2  0  0  0  0
 25 10  1  0  0  0  0
 26  4  1  0  0  0  0
 26  8  1  0  0  0  0
 27  3  1  0  0  0  0
 28 29  1  0  0  0  0
M  END
>  <MODEL>
7

>  <REMARK>
 VINA RESULT:      -7.4      2.868      5.021
  Name = 
  1 active torsions:
  status: ('A' for Active; 'I' for Inactive)
    1  A    between atoms: C_11  and  S_24
                            x       y       z     vdW  Elec       q    Type
                         _______ _______ _______ _____ _____    ______ ____

>  <TORSDO>
F 1

$$$$
=
 OpenBabel11042416483D

 29 33  0  0  1  0  0  0  0  0999 V2000
  191.8930  174.7810  144.1470 C   0  0  0  0  0  3  0  0  0  0  0  0
  186.2540  178.4810  143.2680 C   0  0  0  0  0  2  0  0  0  0  0  0
  190.9700  173.6010  140.3340 C   0  0  0  0  0  0  0  0  0  0  0  0
  187.0940  175.2050  142.4490 C   0  0  0  0  0  3  0  0  0  0  0  0
  191.3430  175.8360  146.3010 N   0  0  0  0  0  0  0  0  0  0  0  0
  189.8810  176.2450  144.4760 C   0  0  0  0  0  3  0  0  0  0  0  0
  188.3630  177.7520  142.4390 O   0  0  0  0  0  1  0  0  0  0  0  0
  188.5600  174.2490  140.7030 C   0  0  2  0  0  3  0  0  0  0  0  0
  190.9330  176.8500  148.3820 F   0  0  0  0  0  0  0  0  0  0  0  0
  189.4730  173.7750  138.4630 C   0  0  0  0  0  3  0  0  0  0  0  0
  185.9670  179.0360  144.6580 C   0  0  2  0  0  3  0  0  0  0  0  0
  189.4790  177.2590  146.5810 N   0  0  0  0  0  0  0  0  0  0  0  0
  189.9840  174.1440  141.1710 C   0  0  0  0  0  0  0  0  0  0  0  0
  189.1100  177.0740  145.2840 C   0  0  0  0  0  0  0  0  0  0  0  0
  190.5830  176.6450  147.0900 C   0  0  0  0  0  0  0  0  0  0  0  0
  187.1720  178.6870  145.5160 C   0  0  0  0  0  2  0  0  0  0  0  0
  190.3130  174.4900  142.4370 N   0  0  0  0  0  0  0  0  0  0  0  0
  192.5290  173.7030  142.1240 C   0  0  0  0  0  3  0  0  0  0  0  0
  187.3960  177.4940  143.4160 C   0  0  1  0  0  0  0  0  0  0  0  0
  187.9480  177.7350  144.7460 N   0  0  0  0  0  0  0  0  0  0  0  0
  186.8710  176.1250  143.3430 N   0  0  0  0  0  0  0  0  0  0  0  0
  188.4580  174.2360  139.2040 C   0  0  0  0  0  3  0  0  0  0  0  0
  191.5680  174.3250  142.9290 C   0  0  0  0  0  0  0  0  0  0  0  0
  191.0090  175.6100  145.0030 C   0  0  0  0  0  0  0  0  0  0  0  0
  190.7230  173.3950  139.0720 N   0  0  0  0  0  0  0  0  0  0  0  0
  187.9070  175.4090  141.2920 N   0  0  0  0  0  2  0  0  0  0  0  0
  192.2100  173.3580  140.8440 N   0  0  0  0  0  0  0  0  0  0  0  0
  185.0300  178.4650  147.0470 C   0  0  0  0  0  1  0  0  0  0  0  0
  184.4880  178.2230  145.3320 S   0  0  0  0  0  0  0  0  0  0  0  0
  1 24  1  0  0  0  0
  2 19  1  0  0  0  0
  2 11  1  0  0  0  0
  3 27  1  0  0  0  0
  3 13  1  0  0  0  0
  4 21  2  0  0  0  0
  5 15  2  0  0  0  0
  6 24  2  0  0  0  0
  6 14  1  0  0  0  0
  8 22  1  6  0  0  0
  8 13  1  0  0  0  0
  8 26  1  0  0  0  0
 10 25  1  0  0  0  0
 10 22  2  0  0  0  0
 11 29  1  1  0  0  0
 11 16  1  0  0  0  0
 12 15  1  0  0  0  0
 13 17  2  0  0  0  0
 14 12  2  0  0  0  0
 15  9  1  0  0  0  0
 17 23  1  0  0  0  0
 18 23  1  0  0  0  0
 19  7  1  6  0  0  0
 19 20  1  0  0  0  0
 20 14  1  0  0  0  0
 20 16  1  0  0  0  0
 21 19  1  0  0  0  0
 23  1  2  0  0  0  0
 24  5  1  0  0  0  0
 25  3  2  0  0  0  0
 26  4  1  0  0  0  0
 27 18  2  0  0  0  0
 29 28  1  0  0  0  0
M  END
>  <MODEL>
8

>  <REMARK>
 VINA RESULT:      -7.3      2.784      6.039
  Name = 
  1 active torsions:
  status: ('A' for Active; 'I' for Inactive)
    1  A    between atoms: C_11  and  S_24
                            x       y       z     vdW  Elec       q    Type
                         _______ _______ _______ _____ _____    ______ ____

>  <TORSDO>
F 1

$$$$
=
 OpenBabel11042416483D

 29 33  0  0  1  0  0  0  0  0999 V2000
  191.5970  176.6130  145.1640 C   0  0  0  0  0  3  0  0  0  0  0  0
  188.1910  173.1720  140.3860 C   0  0  0  0  0  2  0  0  0  0  0  0
  187.7830  177.4040  146.4350 C   0  0  0  0  0  0  0  0  0  0  0  0
  187.7020  176.2790  141.8750 C   0  0  0  0  0  3  0  0  0  0  0  0
  193.2250  175.8440  143.4870 N   0  0  0  0  0  0  0  0  0  0  0  0
  190.9410  175.3160  143.1180 C   0  0  0  0  0  3  0  0  0  0  0  0
  188.5200  173.6780  142.6880 O   0  0  0  0  0  1  0  0  0  0  0  0
  186.9010  176.9430  144.1170 C   0  0  2  0  0  3  0  0  0  0  0  0
  194.8610  175.0990  141.9720 F   0  0  0  0  0  0  0  0  0  0  0  0
  185.4250  177.1050  146.0840 C   0  0  0  0  0  3  0  0  0  0  0  0
  189.2700  172.7960  139.3770 C   0  0  2  0  0  3  0  0  0  0  0  0
  192.6010  174.5730  141.5970 N   0  0  0  0  0  0  0  0  0  0  0  0
  188.0270  177.0170  145.1090 C   0  0  0  0  0  0  0  0  0  0  0  0
  191.2900  174.6300  141.9590 C   0  0  0  0  0  0  0  0  0  0  0  0
  193.5630  175.1750  142.3500 C   0  0  0  0  0  0  0  0  0  0  0  0
  190.6000  173.1700  140.0090 C   0  0  0  0  0  2  0  0  0  0  0  0
  189.3020  176.7990  144.7110 N   0  0  0  0  0  0  0  0  0  0  0  0
  190.1220  177.4160  146.8500 C   0  0  0  0  0  3  0  0  0  0  0  0
  188.8400  174.1000  141.3950 C   0  0  1  0  0  0  0  0  0  0  0  0
  190.2770  173.9810  141.1670 N   0  0  0  0  0  0  0  0  0  0  0  0
  188.4140  175.4810  141.1310 N   0  0  0  0  0  0  0  0  0  0  0  0
  185.5660  176.7910  144.7910 C   0  0  0  0  0  3  0  0  0  0  0  0
  190.3580  176.9460  145.5530 C   0  0  0  0  0  0  0  0  0  0  0  0
  191.9290  175.9400  143.8840 C   0  0  0  0  0  0  0  0  0  0  0  0
  186.5640  177.4790  146.8850 N   0  0  0  0  0  0  0  0  0  0  0  0
  187.1470  175.8970  143.1340 N   0  0  0  0  0  2  0  0  0  0  0  0
  188.8400  177.6300  147.2630 N   0  0  0  0  0  0  0  0  0  0  0  0
  190.8060  173.7910  137.4880 C   0  0  0  0  0  1  0  0  0  0  0  0
  189.0280  173.7650  137.8580 S   0  0  0  0  0  0  0  0  0  0  0  0
  1 23  2  0  0  0  0
  2 19  1  0  0  0  0
  3 25  2  0  0  0  0
  3 27  1  0  0  0  0
  4 26  1  0  0  0  0
  5 24  1  0  0  0  0
  6 24  2  0  0  0  0
  8 22  1  1  0  0  0
  8 13  1  0  0  0  0
  9 15  1  0  0  0  0
 10 25  1  0  0  0  0
 11 29  1  6  0  0  0
 11 16  1  0  0  0  0
 11  2  1  0  0  0  0
 12 14  2  0  0  0  0
 12 15  1  0  0  0  0
 13  3  1  0  0  0  0
 14  6  1  0  0  0  0
 15  5  2  0  0  0  0
 16 20  1  0  0  0  0
 17 13  2  0  0  0  0
 17 23  1  0  0  0  0
 18 27  2  0  0  0  0
 19  7  1  1  0  0  0
 20 19  1  0  0  0  0
 20 14  1  0  0  0  0
 21 19  1  0  0  0  0
 21  4  2  0  0  0  0
 22 10  2  0  0  0  0
 23 18  1  0  0  0  0
 24  1  1  0  0  0  0
 26  8  1  0  0  0  0
 28 29  1  0  0  0  0
M  END
>  <MODEL>
9

>  <REMARK>
 VINA RESULT:      -7.2      2.813      4.578
  Name = 
  1 active torsions:
  status: ('A' for Active; 'I' for Inactive)
    1  A    between atoms: C_11  and  S_24
                            x       y       z     vdW  Elec       q    Type
                         _______ _______ _______ _____ _____    ______ ____

>  <TORSDO>
F 1

$$$$
