=
 OpenBabel11042414533D

 32 36  0  0  1  0  0  0  0  0999 V2000
  191.7100  177.3350  143.2920 C   0  0  0  0  0  3  0  0  0  0  0  0
  190.3850  175.6390  142.7390 C   0  0  0  0  0  0  0  0  0  0  0  0
  189.1550  174.8850  142.3380 C   0  0  0  0  0  2  0  0  0  0  0  0
  191.5510  175.1180  143.0190 O   0  0  0  0  0  0  0  0  0  0  0  0
  188.1350  175.8340  141.6930 C   0  0  0  0  0  2  0  0  0  0  0  0
  189.2900  177.9160  142.5950 C   0  0  0  0  0  2  0  0  0  0  0  0
  192.3610  176.1040  143.3500 C   0  0  0  0  0  0  0  0  0  0  0  0
  187.9740  177.1230  142.5160 C   0  0  1  0  0  3  0  0  0  0  0  0
  190.4270  176.9980  142.9120 C   0  0  0  0  0  0  0  0  0  0  0  0
  194.8200  176.2960  141.4560 C   0  0  0  0  0  1  0  0  0  0  0  0
  195.5950  175.4820  144.9600 C   0  0  0  0  0  3  0  0  0  0  0  0
  197.2610  175.7210  143.1680 O   0  0  0  0  0  1  0  0  0  0  0  0
  194.8280  175.9830  142.9150 C   0  0  0  0  0  0  0  0  0  0  0  0
  194.2100  175.6030  144.9530 C   0  0  0  0  0  0  0  0  0  0  0  0
  195.9590  175.7290  143.6530 C   0  0  0  0  0  0  0  0  0  0  0  0
  193.7420  175.9060  143.7170 N   0  0  0  0  0  0  0  0  0  0  0  0
  191.0040  175.0410  146.2220 C   0  0  0  0  0  0  0  0  0  0  0  0
  193.3430  175.4170  146.1640 C   0  0  1  0  0  3  0  0  0  0  0  0
  192.6330  176.7280  146.5420 C   0  0  0  0  0  2  0  0  0  0  0  0
  191.2040  176.3540  146.5660 C   0  0  0  0  0  0  0  0  0  0  0  0
  188.8350  176.6590  146.8480 C   0  0  0  0  0  3  0  0  0  0  0  0
  188.6300  175.3130  146.4940 C   0  0  0  0  0  3  0  0  0  0  0  0
  192.2700  174.3440  145.9170 C   0  0  0  0  0  2  0  0  0  0  0  0
  189.7230  174.4920  146.1760 C   0  0  0  0  0  3  0  0  0  0  0  0
  190.1330  177.1900  146.8840 C   0  0  0  0  0  3  0  0  0  0  0  0
  186.8810  177.9790  141.9540 C   0  0  0  0  0  0  0  0  0  0  0  0
  186.7200  178.0530  140.7070 O   0  0  0  0  0  0  0  0  0  0  0  0
  186.0180  178.7220  142.8150 N   0  0  0  0  0  2  0  0  0  0  0  0
  186.1460  178.6910  144.2650 C   0  0  0  0  0  2  0  0  0  0  0  0
  184.2510  178.7150  145.8760 C   0  0  0  0  0  1  0  0  0  0  0  0
  185.5420  176.7580  145.5060 O   0  0  0  0  0  1  0  0  0  0  0  0
  185.0150  177.8790  144.8670 C   0  0  2  0  0  3  0  0  0  0  0  0
  1  7  2  0  0  0  0
  2  9  2  0  0  0  0
  2  4  1  0  0  0  0
  3  2  1  0  0  0  0
  4  7  1  0  0  0  0
  5  3  1  0  0  0  0
  5  8  1  0  0  0  0
  6  9  1  0  0  0  0
  7 16  1  0  0  0  0
  8 26  1  6  0  0  0
  8  6  1  0  0  0  0
  9  1  1  0  0  0  0
 10 13  1  0  0  0  0
 12 15  1  0  0  0  0
 13 15  2  0  0  0  0
 13 16  1  0  0  0  0
 14 11  2  0  0  0  0
 15 11  1  0  0  0  0
 16 14  1  0  0  0  0
 17 20  1  0  0  0  0
 18 14  1  6  0  0  0
 18 19  1  0  0  0  0
 19 20  1  0  0  0  0
 20 25  2  0  0  0  0
 21 25  1  0  0  0  0
 22 21  2  0  0  0  0
 23 18  1  0  0  0  0
 23 17  1  0  0  0  0
 24 17  2  0  0  0  0
 24 22  1  0  0  0  0
 26 28  1  0  0  0  0
 27 26  2  0  0  0  0
 28 29  1  0  0  0  0
 29 32  1  0  0  0  0
 32 31  1  0  0  0  0
 32 30  1  1  0  0  0
M  END
>  <MODEL>
1

>  <REMARK>
 VINA RESULT:      -8.4      0.000      0.000
  Name = 
  5 active torsions:
  status: ('A' for Active; 'I' for Inactive)
    1  A    between atoms: C_3  and  C_25
    2  A    between atoms: C_6  and  C_19
    3  A    between atoms: C_14  and  N_18
    4  A    between atoms: C_14  and  C_30
    5  A    between atoms: C_16  and  N_31
                            x       y       z     vdW  Elec       q    Type
                         _______ _______ _______ _____ _____    ______ ____

>  <TORSDO>
F 5

$$$$
=
 OpenBabel11042414533D

 32 36  0  0  1  0  0  0  0  0999 V2000
  188.3040  175.7980  143.4710 C   0  0  0  0  0  3  0  0  0  0  0  0
  189.9690  177.2550  143.2660 C   0  0  0  0  0  0  0  0  0  0  0  0
  191.3600  177.7980  143.1530 C   0  0  0  0  0  2  0  0  0  0  0  0
  188.8700  177.9600  143.3270 O   0  0  0  0  0  0  0  0  0  0  0  0
  192.3250  176.6980  142.6870 C   0  0  0  0  0  2  0  0  0  0  0  0
  190.6910  174.8290  143.2510 C   0  0  0  0  0  2  0  0  0  0  0  0
  187.8610  177.1190  143.4470 C   0  0  0  0  0  0  0  0  0  0  0  0
  192.1040  175.3940  143.4710 C   0  0  1  0  0  3  0  0  0  0  0  0
  189.6750  175.9210  143.3710 C   0  0  0  0  0  0  0  0  0  0  0  0
  185.9300  177.6340  141.0650 C   0  0  0  0  0  1  0  0  0  0  0  0
  184.4830  178.1730  144.4060 C   0  0  0  0  0  3  0  0  0  0  0  0
  183.2790  178.4750  142.2840 O   0  0  0  0  0  1  0  0  0  0  0  0
  185.6250  177.7720  142.5190 C   0  0  0  0  0  0  0  0  0  0  0  0
  185.7910  177.7840  144.6760 C   0  0  0  0  0  0  0  0  0  0  0  0
  184.4080  178.1550  143.0280 C   0  0  0  0  0  0  0  0  0  0  0  0
  186.4850  177.5400  143.5370 N   0  0  0  0  0  0  0  0  0  0  0  0
  188.6320  177.3470  146.6610 C   0  0  0  0  0  0  0  0  0  0  0  0
  186.3610  177.6540  146.0590 C   0  0  1  0  0  3  0  0  0  0  0  0
  186.5870  176.1780  146.4270 C   0  0  0  0  0  2  0  0  0  0  0  0
  188.0160  176.1290  146.8000 C   0  0  0  0  0  0  0  0  0  0  0  0
  190.0810  175.1500  147.5490 C   0  0  0  0  0  3  0  0  0  0  0  0
  190.7130  176.3980  147.4040 C   0  0  0  0  0  3  0  0  0  0  0  0
  187.7060  178.3890  146.1730 C   0  0  0  0  0  2  0  0  0  0  0  0
  189.9850  177.5110  146.9550 C   0  0  0  0  0  3  0  0  0  0  0  0
  188.7190  175.0080  147.2430 C   0  0  0  0  0  3  0  0  0  0  0  0
  193.1370  174.3730  143.1060 C   0  0  0  0  0  0  0  0  0  0  0  0
  193.3030  174.0520  141.8990 O   0  0  0  0  0  0  0  0  0  0  0  0
  193.9380  173.7500  144.1110 N   0  0  0  0  0  2  0  0  0  0  0  0
  193.8010  174.0660  145.5250 C   0  0  0  0  0  2  0  0  0  0  0  0
  194.3450  176.3630  146.3070 C   0  0  0  0  0  1  0  0  0  0  0  0
  195.8300  175.1410  144.9160 O   0  0  0  0  0  1  0  0  0  0  0  0
  194.9140  175.0020  145.9570 C   0  0  2  0  0  3  0  0  0  0  0  0
  2  4  1  0  0  0  0
  2  9  2  0  0  0  0
  3  2  1  0  0  0  0
  4  7  1  0  0  0  0
  5  3  1  0  0  0  0
  5  8  1  0  0  0  0
  6  9  1  0  0  0  0
  6  8  1  0  0  0  0
  7  1  2  0  0  0  0
  7 16  1  0  0  0  0
  8 26  1  6  0  0  0
  9  1  1  0  0  0  0
 10 13  1  0  0  0  0
 11 14  2  0  0  0  0
 12 15  1  0  0  0  0
 13 15  2  0  0  0  0
 13 16  1  0  0  0  0
 15 11  1  0  0  0  0
 16 14  1  0  0  0  0
 17 20  2  0  0  0  0
 17 24  1  0  0  0  0
 18 14  1  6  0  0  0
 18 23  1  0  0  0  0
 18 19  1  0  0  0  0
 19 20  1  0  0  0  0
 20 25  1  0  0  0  0
 22 21  1  0  0  0  0
 23 17  1  0  0  0  0
 24 22  2  0  0  0  0
 25 21  2  0  0  0  0
 26 28  1  0  0  0  0
 27 26  2  0  0  0  0
 28 29  1  0  0  0  0
 29 32  1  0  0  0  0
 31 32  1  0  0  0  0
 32 30  1  6  0  0  0
M  END
>  <MODEL>
2

>  <REMARK>
 VINA RESULT:      -7.8      1.782      7.250
  Name = 
  5 active torsions:
  status: ('A' for Active; 'I' for Inactive)
    1  A    between atoms: C_3  and  C_25
    2  A    between atoms: C_6  and  C_19
    3  A    between atoms: C_14  and  N_18
    4  A    between atoms: C_14  and  C_30
    5  A    between atoms: C_16  and  N_31
                            x       y       z     vdW  Elec       q    Type
                         _______ _______ _______ _____ _____    ______ ____

>  <TORSDO>
F 5

$$$$
=
 OpenBabel11042414533D

 32 36  0  0  1  0  0  0  0  0999 V2000
  192.2280  175.3110  142.6790 C   0  0  0  0  0  3  0  0  0  0  0  0
  191.3130  177.0850  143.6540 C   0  0  0  0  0  0  0  0  0  0  0  0
  190.2790  178.0800  144.0830 C   0  0  0  0  0  2  0  0  0  0  0  0
  192.5940  177.1490  143.9040 O   0  0  0  0  0  0  0  0  0  0  0  0
  188.8750  177.4680  143.9810 C   0  0  0  0  0  2  0  0  0  0  0  0
  189.6620  175.5590  142.4910 C   0  0  0  0  0  2  0  0  0  0  0  0
  193.1650  176.1050  143.3370 C   0  0  0  0  0  0  0  0  0  0  0  0
  188.6820  176.7350  142.6430 C   0  0  1  0  0  3  0  0  0  0  0  0
  191.0410  175.9830  142.8870 C   0  0  0  0  0  0  0  0  0  0  0  0
  195.2610  176.6440  141.1040 C   0  0  0  0  0  1  0  0  0  0  0  0
  196.6070  175.1870  144.2040 C   0  0  0  0  0  3  0  0  0  0  0  0
  197.9410  175.7550  142.2200 O   0  0  0  0  0  1  0  0  0  0  0  0
  195.5120  176.0630  142.4560 C   0  0  0  0  0  0  0  0  0  0  0  0
  195.2460  175.3100  144.4660 C   0  0  0  0  0  0  0  0  0  0  0  0
  196.7450  175.6740  142.9210 C   0  0  0  0  0  0  0  0  0  0  0  0
  194.5810  175.8390  143.4100 N   0  0  0  0  0  0  0  0  0  0  0  0
  192.2800  174.7390  146.2210 C   0  0  0  0  0  0  0  0  0  0  0  0
  194.5980  174.9020  145.7570 C   0  0  1  0  0  3  0  0  0  0  0  0
  194.1610  176.1330  146.5690 C   0  0  0  0  0  2  0  0  0  0  0  0
  192.7220  175.8980  146.8080 C   0  0  0  0  0  0  0  0  0  0  0  0
  190.5120  176.3360  147.6490 C   0  0  0  0  0  3  0  0  0  0  0  0
  190.0580  175.1490  147.0450 C   0  0  0  0  0  3  0  0  0  0  0  0
  193.3580  174.0300  145.5020 C   0  0  0  0  0  2  0  0  0  0  0  0
  190.9480  174.3400  146.3220 C   0  0  0  0  0  3  0  0  0  0  0  0
  191.8570  176.7190  147.5300 C   0  0  0  0  0  3  0  0  0  0  0  0
  187.2690  176.2600  142.4960 C   0  0  0  0  0  0  0  0  0  0  0  0
  187.0270  175.0260  142.4220 O   0  0  0  0  0  0  0  0  0  0  0  0
  186.1870  177.1890  142.4330 N   0  0  0  0  0  2  0  0  0  0  0  0
  186.3890  178.6290  142.5070 C   0  0  0  0  0  2  0  0  0  0  0  0
  185.8190  178.8370  144.9200 C   0  0  0  0  0  1  0  0  0  0  0  0
  184.1370  178.7800  143.2460 O   0  0  0  0  0  1  0  0  0  0  0  0
  185.4270  179.2360  143.5100 C   0  0  2  0  0  3  0  0  0  0  0  0
  1  9  1  0  0  0  0
  1  7  2  0  0  0  0
  2  4  1  0  0  0  0
  2  3  1  0  0  0  0
  5  3  1  0  0  0  0
  6  8  1  0  0  0  0
  6  9  1  0  0  0  0
  7 16  1  0  0  0  0
  7  4  1  0  0  0  0
  8 26  1  1  0  0  0
  8  5  1  0  0  0  0
  9  2  2  0  0  0  0
 10 13  1  0  0  0  0
 11 14  2  0  0  0  0
 12 15  1  0  0  0  0
 13 15  2  0  0  0  0
 13 16  1  0  0  0  0
 15 11  1  0  0  0  0
 16 14  1  0  0  0  0
 17 24  2  0  0  0  0
 17 20  1  0  0  0  0
 18 14  1  6  0  0  0
 18 19  1  0  0  0  0
 19 20  1  0  0  0  0
 20 25  2  0  0  0  0
 22 21  2  0  0  0  0
 23 18  1  0  0  0  0
 23 17  1  0  0  0  0
 24 22  1  0  0  0  0
 25 21  1  0  0  0  0
 27 26  2  0  0  0  0
 28 26  1  0  0  0  0
 28 29  1  0  0  0  0
 29 32  1  0  0  0  0
 31 32  1  0  0  0  0
 32 30  1  1  0  0  0
M  END
>  <MODEL>
3

>  <REMARK>
 VINA RESULT:      -7.8      1.422      1.893
  Name = 
  5 active torsions:
  status: ('A' for Active; 'I' for Inactive)
    1  A    between atoms: C_3  and  C_25
    2  A    between atoms: C_6  and  C_19
    3  A    between atoms: C_14  and  N_18
    4  A    between atoms: C_14  and  C_30
    5  A    between atoms: C_16  and  N_31
                            x       y       z     vdW  Elec       q    Type
                         _______ _______ _______ _____ _____    ______ ____

>  <TORSDO>
F 5

$$$$
=
 OpenBabel11042414533D

 32 36  0  0  1  0  0  0  0  0999 V2000
  189.3990  177.6070  144.5240 C   0  0  0  0  0  3  0  0  0  0  0  0
  189.6640  175.7980  145.7870 C   0  0  0  0  0  0  0  0  0  0  0  0
  190.3300  174.7420  146.6130 C   0  0  0  0  0  2  0  0  0  0  0  0
  188.3990  175.8340  145.4570 O   0  0  0  0  0  0  0  0  0  0  0  0
  191.6830  175.2480  147.1330 C   0  0  0  0  0  2  0  0  0  0  0  0
  191.7670  177.1670  145.4630 C   0  0  0  0  0  2  0  0  0  0  0  0
  188.2110  176.9020  144.7070 C   0  0  0  0  0  0  0  0  0  0  0  0
  192.4910  175.9280  146.0160 C   0  0  1  0  0  3  0  0  0  0  0  0
  190.3240  176.8560  145.2200 C   0  0  0  0  0  0  0  0  0  0  0  0
  186.1000  178.7520  146.0450 C   0  0  0  0  0  1  0  0  0  0  0  0
  185.1560  177.4180  142.7480 C   0  0  0  0  0  3  0  0  0  0  0  0
  183.7610  178.9090  144.1150 O   0  0  0  0  0  1  0  0  0  0  0  0
  185.9930  178.0710  144.7210 C   0  0  0  0  0  0  0  0  0  0  0  0
  186.4190  176.8780  142.9680 C   0  0  0  0  0  0  0  0  0  0  0  0
  184.9130  178.1710  143.8770 C   0  0  0  0  0  0  0  0  0  0  0  0
  186.9280  177.2710  144.1610 N   0  0  0  0  0  0  0  0  0  0  0  0
  188.5860  174.1760  142.5150 C   0  0  0  0  0  0  0  0  0  0  0  0
  187.1250  175.9700  142.0040 C   0  0  1  0  0  3  0  0  0  0  0  0
  188.5770  176.4250  141.7780 C   0  0  0  0  0  2  0  0  0  0  0  0
  189.3720  175.2230  142.1050 C   0  0  0  0  0  0  0  0  0  0  0  0
  191.3450  173.8790  142.3920 C   0  0  0  0  0  3  0  0  0  0  0  0
  190.5400  172.8050  142.8140 C   0  0  0  0  0  3  0  0  0  0  0  0
  187.1510  174.5240  142.5240 C   0  0  0  0  0  2  0  0  0  0  0  0
  189.1450  172.9510  142.8790 C   0  0  0  0  0  3  0  0  0  0  0  0
  190.7600  175.1030  142.0350 C   0  0  0  0  0  3  0  0  0  0  0  0
  193.8610  176.2950  146.4980 C   0  0  0  0  0  0  0  0  0  0  0  0
  194.0380  177.3750  147.1220 O   0  0  0  0  0  0  0  0  0  0  0  0
  194.9760  175.4370  146.2560 N   0  0  0  0  0  2  0  0  0  0  0  0
  194.8510  174.1760  145.5400 C   0  0  0  0  0  2  0  0  0  0  0  0
  197.0620  173.1410  146.0120 C   0  0  0  0  0  1  0  0  0  0  0  0
  196.8290  174.9150  144.4520 O   0  0  0  0  0  1  0  0  0  0  0  0
  196.1900  173.7800  144.9480 C   0  0  2  0  0  3  0  0  0  0  0  0
  1  7  2  0  0  0  0
  1  9  1  0  0  0  0
  2  3  1  0  0  0  0
  3  5  1  0  0  0  0
  4  2  1  0  0  0  0
  6  8  1  0  0  0  0
  7  4  1  0  0  0  0
  8 26  1  1  0  0  0
  8  5  1  0  0  0  0
  9  6  1  0  0  0  0
  9  2  2  0  0  0  0
 11 14  2  0  0  0  0
 11 15  1  0  0  0  0
 13 10  1  0  0  0  0
 14 16  1  0  0  0  0
 15 12  1  0  0  0  0
 15 13  2  0  0  0  0
 16  7  1  0  0  0  0
 16 13  1  0  0  0  0
 17 23  1  0  0  0  0
 17 24  1  0  0  0  0
 18 23  1  0  0  0  0
 18 14  1  1  0  0  0
 19 18  1  0  0  0  0
 19 20  1  0  0  0  0
 20 17  2  0  0  0  0
 21 22  1  0  0  0  0
 22 24  2  0  0  0  0
 25 20  1  0  0  0  0
 25 21  2  0  0  0  0
 26 27  2  0  0  0  0
 28 26  1  0  0  0  0
 29 28  1  0  0  0  0
 31 32  1  0  0  0  0
 32 29  1  0  0  0  0
 32 30  1  1  0  0  0
M  END
>  <MODEL>
4

>  <REMARK>
 VINA RESULT:      -7.4      2.123      7.957
  Name = 
  5 active torsions:
  status: ('A' for Active; 'I' for Inactive)
    1  A    between atoms: C_3  and  C_25
    2  A    between atoms: C_6  and  C_19
    3  A    between atoms: C_14  and  N_18
    4  A    between atoms: C_14  and  C_30
    5  A    between atoms: C_16  and  N_31
                            x       y       z     vdW  Elec       q    Type
                         _______ _______ _______ _____ _____    ______ ____

>  <TORSDO>
F 5

$$$$
=
 OpenBabel11042414533D

 32 36  0  0  1  0  0  0  0  0999 V2000
  191.4460  176.3660  143.5680 C   0  0  0  0  0  3  0  0  0  0  0  0
  189.6280  175.7640  144.6950 C   0  0  0  0  0  0  0  0  0  0  0  0
  188.2060  175.7350  145.1610 C   0  0  0  0  0  2  0  0  0  0  0  0
  190.6090  175.0400  145.1660 O   0  0  0  0  0  0  0  0  0  0  0  0
  187.2880  176.3860  144.1170 C   0  0  0  0  0  2  0  0  0  0  0  0
  189.2260  177.5160  142.9130 C   0  0  0  0  0  2  0  0  0  0  0  0
  191.7040  175.3750  144.5140 C   0  0  0  0  0  0  0  0  0  0  0  0
  187.8710  177.7170  143.6140 C   0  0  1  0  0  3  0  0  0  0  0  0
  190.0970  176.6100  143.7240 C   0  0  0  0  0  0  0  0  0  0  0  0
  193.9060  176.4530  146.4270 C   0  0  0  0  0  1  0  0  0  0  0  0
  194.7430  173.3310  144.6670 C   0  0  0  0  0  3  0  0  0  0  0  0
  196.2170  174.4900  146.2560 O   0  0  0  0  0  1  0  0  0  0  0  0
  193.9640  175.2200  145.5870 C   0  0  0  0  0  0  0  0  0  0  0  0
  193.4640  173.6300  144.2080 C   0  0  0  0  0  0  0  0  0  0  0  0
  195.0330  174.3570  145.5410 C   0  0  0  0  0  0  0  0  0  0  0  0
  192.9910  174.7730  144.7630 N   0  0  0  0  0  0  0  0  0  0  0  0
  190.8240  173.4290  141.9300 C   0  0  0  0  0  0  0  0  0  0  0  0
  192.7080  172.7930  143.2190 C   0  0  1  0  0  3  0  0  0  0  0  0
  191.4400  172.1960  143.8540 C   0  0  0  0  0  2  0  0  0  0  0  0
  190.3580  172.6420  142.9530 C   0  0  0  0  0  0  0  0  0  0  0  0
  188.1120  172.8610  142.1210 C   0  0  0  0  0  3  0  0  0  0  0  0
  188.5900  173.6690  141.0730 C   0  0  0  0  0  3  0  0  0  0  0  0
  192.2870  173.6250  141.9970 C   0  0  0  0  0  2  0  0  0  0  0  0
  189.9590  173.9590  140.9730 C   0  0  0  0  0  3  0  0  0  0  0  0
  189.0010  172.3420  143.0740 C   0  0  0  0  0  3  0  0  0  0  0  0
  186.9080  178.4080  142.7000 C   0  0  0  0  0  0  0  0  0  0  0  0
  186.9690  178.2100  141.4570 O   0  0  0  0  0  0  0  0  0  0  0  0
  185.9180  179.2980  143.2170 N   0  0  0  0  0  2  0  0  0  0  0  0
  185.7890  179.5800  144.6390 C   0  0  0  0  0  2  0  0  0  0  0  0
  184.5800  177.9280  146.0520 C   0  0  0  0  0  1  0  0  0  0  0  0
  183.6330  178.7770  144.0470 O   0  0  0  0  0  1  0  0  0  0  0  0
  184.4290  179.1270  145.1360 C   0  0  2  0  0  3  0  0  0  0  0  0
  1  9  1  0  0  0  0
  1  7  2  0  0  0  0
  2  3  1  0  0  0  0
  2  4  1  0  0  0  0
  5  3  1  0  0  0  0
  6  8  1  0  0  0  0
  6  9  1  0  0  0  0
  7 16  1  0  0  0  0
  7  4  1  0  0  0  0
  8 26  1  6  0  0  0
  8  5  1  0  0  0  0
  9  2  2  0  0  0  0
 11 15  1  0  0  0  0
 13 10  1  0  0  0  0
 14 11  2  0  0  0  0
 14 16  1  0  0  0  0
 15 13  2  0  0  0  0
 15 12  1  0  0  0  0
 16 13  1  0  0  0  0
 17 23  1  0  0  0  0
 17 20  1  0  0  0  0
 18 19  1  0  0  0  0
 18 14  1  1  0  0  0
 20 25  2  0  0  0  0
 20 19  1  0  0  0  0
 21 25  1  0  0  0  0
 22 21  2  0  0  0  0
 23 18  1  0  0  0  0
 24 22  1  0  0  0  0
 24 17  2  0  0  0  0
 26 28  1  0  0  0  0
 27 26  2  0  0  0  0
 28 29  1  0  0  0  0
 29 32  1  0  0  0  0
 31 32  1  0  0  0  0
 32 30  1  1  0  0  0
M  END
>  <MODEL>
5

>  <REMARK>
 VINA RESULT:      -7.3      1.962      3.353
  Name = 
  5 active torsions:
  status: ('A' for Active; 'I' for Inactive)
    1  A    between atoms: C_3  and  C_25
    2  A    between atoms: C_6  and  C_19
    3  A    between atoms: C_14  and  N_18
    4  A    between atoms: C_14  and  C_30
    5  A    between atoms: C_16  and  N_31
                            x       y       z     vdW  Elec       q    Type
                         _______ _______ _______ _____ _____    ______ ____

>  <TORSDO>
F 5

$$$$
=
 OpenBabel11042414533D

 32 36  0  0  1  0  0  0  0  0999 V2000
  191.0400  175.0930  143.3890 C   0  0  0  0  0  3  0  0  0  0  0  0
  190.4000  172.9700  143.5350 C   0  0  0  0  0  0  0  0  0  0  0  0
  190.1130  171.5550  143.1390 C   0  0  0  0  0  2  0  0  0  0  0  0
  190.1530  173.5090  144.7000 O   0  0  0  0  0  0  0  0  0  0  0  0
  190.9090  171.1820  141.8800 C   0  0  0  0  0  2  0  0  0  0  0  0
  191.4060  173.6110  141.3030 C   0  0  0  0  0  2  0  0  0  0  0  0
  190.5250  174.7720  144.6440 C   0  0  0  0  0  0  0  0  0  0  0  0
  190.8090  172.2820  140.8100 C   0  0  1  0  0  3  0  0  0  0  0  0
  190.9270  173.9090  142.6890 C   0  0  0  0  0  0  0  0  0  0  0  0
  192.7840  175.5620  146.6300 C   0  0  0  0  0  1  0  0  0  0  0  0
  189.5240  177.1540  147.2450 C   0  0  0  0  0  3  0  0  0  0  0  0
  191.5470  177.5220  148.5910 O   0  0  0  0  0  1  0  0  0  0  0  0
  191.3710  176.0430  146.6330 C   0  0  0  0  0  0  0  0  0  0  0  0
  189.2910  176.3570  146.1280 C   0  0  0  0  0  0  0  0  0  0  0  0
  190.8530  176.9340  147.5420 C   0  0  0  0  0  0  0  0  0  0  0  0
  190.4080  175.6840  145.7560 N   0  0  0  0  0  0  0  0  0  0  0  0
  186.5490  178.0310  144.7580 C   0  0  0  0  0  0  0  0  0  0  0  0
  187.9680  176.2560  145.4280 C   0  0  1  0  0  3  0  0  0  0  0  0
  186.8040  176.3720  146.4270 C   0  0  0  0  0  2  0  0  0  0  0  0
  185.9940  177.4840  145.8870 C   0  0  0  0  0  0  0  0  0  0  0  0
  184.1700  179.0470  145.7700 C   0  0  0  0  0  3  0  0  0  0  0  0
  184.7400  179.6090  144.6130 C   0  0  0  0  0  3  0  0  0  0  0  0
  187.8120  177.3660  144.3770 C   0  0  0  0  0  2  0  0  0  0  0  0
  185.9420  179.1000  144.0980 C   0  0  0  0  0  3  0  0  0  0  0  0
  184.8010  177.9750  146.4180 C   0  0  0  0  0  3  0  0  0  0  0  0
  191.4740  171.8490  139.5400 C   0  0  0  0  0  0  0  0  0  0  0  0
  192.7160  171.6400  139.5210 O   0  0  0  0  0  0  0  0  0  0  0  0
  190.7180  171.6750  138.3410 N   0  0  0  0  0  2  0  0  0  0  0  0
  189.2810  171.9010  138.2840 C   0  0  0  0  0  2  0  0  0  0  0  0
  190.2750  173.8000  137.0210 C   0  0  0  0  0  1  0  0  0  0  0  0
  188.2170  174.0230  138.1830 O   0  0  0  0  0  1  0  0  0  0  0  0
  188.9830  173.1260  137.4400 C   0  0  2  0  0  3  0  0  0  0  0  0
  1  7  2  0  0  0  0
  2  4  1  0  0  0  0
  3  2  1  0  0  0  0
  5  3  1  0  0  0  0
  6  9  1  0  0  0  0
  7  4  1  0  0  0  0
  7 16  1  0  0  0  0
  8 26  1  6  0  0  0
  8  6  1  0  0  0  0
  8  5  1  0  0  0  0
  9  1  1  0  0  0  0
  9  2  2  0  0  0  0
 10 13  1  0  0  0  0
 11 15  1  0  0  0  0
 13 15  2  0  0  0  0
 14 11  2  0  0  0  0
 15 12  1  0  0  0  0
 16 14  1  0  0  0  0
 16 13  1  0  0  0  0
 17 20  1  0  0  0  0
 18 14  1  1  0  0  0
 18 19  1  0  0  0  0
 20 25  2  0  0  0  0
 20 19  1  0  0  0  0
 21 25  1  0  0  0  0
 22 21  2  0  0  0  0
 23 17  1  0  0  0  0
 23 18  1  0  0  0  0
 24 22  1  0  0  0  0
 24 17  2  0  0  0  0
 27 26  2  0  0  0  0
 28 26  1  0  0  0  0
 29 28  1  0  0  0  0
 32 30  1  1  0  0  0
 32 31  1  0  0  0  0
 32 29  1  0  0  0  0
M  END
>  <MODEL>
6

>  <REMARK>
 VINA RESULT:      -7.3      3.324      6.392
  Name = 
  5 active torsions:
  status: ('A' for Active; 'I' for Inactive)
    1  A    between atoms: C_3  and  C_25
    2  A    between atoms: C_6  and  C_19
    3  A    between atoms: C_14  and  N_18
    4  A    between atoms: C_14  and  C_30
    5  A    between atoms: C_16  and  N_31
                            x       y       z     vdW  Elec       q    Type
                         _______ _______ _______ _____ _____    ______ ____

>  <TORSDO>
F 5

$$$$
=
 OpenBabel11042414533D

 32 36  0  0  1  0  0  0  0  0999 V2000
  189.5930  177.7530  143.2710 C   0  0  0  0  0  3  0  0  0  0  0  0
  190.0840  175.5960  143.4800 C   0  0  0  0  0  0  0  0  0  0  0  0
  190.8910  174.3400  143.6010 C   0  0  0  0  0  2  0  0  0  0  0  0
  188.7810  175.6700  143.4080 O   0  0  0  0  0  0  0  0  0  0  0  0
  192.3130  174.6650  144.0780 C   0  0  0  0  0  2  0  0  0  0  0  0
  192.0920  177.1370  143.5120 C   0  0  0  0  0  2  0  0  0  0  0  0
  188.4590  176.9430  143.2850 C   0  0  0  0  0  0  0  0  0  0  0  0
  192.9070  175.8500  143.2990 C   0  0  1  0  0  3  0  0  0  0  0  0
  190.6300  176.8490  143.3800 C   0  0  0  0  0  0  0  0  0  0  0  0
  186.9000  177.5330  140.6590 C   0  0  0  0  0  1  0  0  0  0  0  0
  185.0160  178.1040  143.7690 C   0  0  0  0  0  3  0  0  0  0  0  0
  184.1330  178.4560  141.5030 O   0  0  0  0  0  1  0  0  0  0  0  0
  186.3980  177.6740  142.0580 C   0  0  0  0  0  0  0  0  0  0  0  0
  186.2590  177.6700  144.2170 C   0  0  0  0  0  0  0  0  0  0  0  0
  185.1340  178.0950  142.3950 C   0  0  0  0  0  0  0  0  0  0  0  0
  187.0980  177.4090  143.1840 N   0  0  0  0  0  0  0  0  0  0  0  0
  188.7960  177.3120  146.5920 C   0  0  0  0  0  0  0  0  0  0  0  0
  186.6250  177.5160  145.6640 C   0  0  1  0  0  3  0  0  0  0  0  0
  186.8850  176.0410  146.0140 C   0  0  0  0  0  2  0  0  0  0  0  0
  188.2430  176.0570  146.5960 C   0  0  0  0  0  0  0  0  0  0  0  0
  190.2320  175.1660  147.6140 C   0  0  0  0  0  3  0  0  0  0  0  0
  190.7990  176.4530  147.6080 C   0  0  0  0  0  3  0  0  0  0  0  0
  187.8900  178.3200  146.0040 C   0  0  0  0  0  2  0  0  0  0  0  0
  190.0780  177.5410  147.0920 C   0  0  0  0  0  3  0  0  0  0  0  0
  188.9410  174.9600  147.1030 C   0  0  0  0  0  3  0  0  0  0  0  0
  194.3390  176.0700  143.6770 C   0  0  0  0  0  0  0  0  0  0  0  0
  194.6840  176.0230  144.8880 O   0  0  0  0  0  0  0  0  0  0  0  0
  195.3260  176.3410  142.6800 N   0  0  0  0  0  2  0  0  0  0  0  0
  195.0030  176.4160  141.2630 C   0  0  0  0  0  2  0  0  0  0  0  0
  194.3880  174.2200  140.2690 C   0  0  0  0  0  1  0  0  0  0  0  0
  196.4770  174.5540  141.3470 O   0  0  0  0  0  1  0  0  0  0  0  0
  195.5250  175.1840  140.5460 C   0  0  2  0  0  3  0  0  0  0  0  0
  1  7  2  0  0  0  0
  1  9  1  0  0  0  0
  2  3  1  0  0  0  0
  3  5  1  0  0  0  0
  4  2  1  0  0  0  0
  7  4  1  0  0  0  0
  8  6  1  0  0  0  0
  8 26  1  1  0  0  0
  8  5  1  0  0  0  0
  9  2  2  0  0  0  0
  9  6  1  0  0  0  0
 10 13  1  0  0  0  0
 11 14  2  0  0  0  0
 12 15  1  0  0  0  0
 13 15  2  0  0  0  0
 13 16  1  0  0  0  0
 15 11  1  0  0  0  0
 16  7  1  0  0  0  0
 16 14  1  0  0  0  0
 17 20  2  0  0  0  0
 17 24  1  0  0  0  0
 18 14  1  6  0  0  0
 18 23  1  0  0  0  0
 18 19  1  0  0  0  0
 19 20  1  0  0  0  0
 20 25  1  0  0  0  0
 22 21  1  0  0  0  0
 23 17  1  0  0  0  0
 24 22  2  0  0  0  0
 25 21  2  0  0  0  0
 26 27  2  0  0  0  0
 28 26  1  0  0  0  0
 29 28  1  0  0  0  0
 32 30  1  1  0  0  0
 32 29  1  0  0  0  0
 32 31  1  0  0  0  0
M  END
>  <MODEL>
7

>  <REMARK>
 VINA RESULT:      -7.2      1.688      7.305
  Name = 
  5 active torsions:
  status: ('A' for Active; 'I' for Inactive)
    1  A    between atoms: C_3  and  C_25
    2  A    between atoms: C_6  and  C_19
    3  A    between atoms: C_14  and  N_18
    4  A    between atoms: C_14  and  C_30
    5  A    between atoms: C_16  and  N_31
                            x       y       z     vdW  Elec       q    Type
                         _______ _______ _______ _____ _____    ______ ____

>  <TORSDO>
F 5

$$$$
=
 OpenBabel11042414533D

 32 36  0  0  1  0  0  0  0  0999 V2000
  188.8780  174.5770  143.2280 C   0  0  0  0  0  3  0  0  0  0  0  0
  190.9930  175.1100  142.8020 C   0  0  0  0  0  0  0  0  0  0  0  0
  192.4850  175.0090  142.7370 C   0  0  0  0  0  2  0  0  0  0  0  0
  190.2730  176.1350  142.4270 O   0  0  0  0  0  0  0  0  0  0  0  0
  192.9260  173.5440  142.8570 C   0  0  0  0  0  2  0  0  0  0  0  0
  190.6690  172.7920  143.7650 C   0  0  0  0  0  2  0  0  0  0  0  0
  189.0090  175.8460  142.6670 C   0  0  0  0  0  0  0  0  0  0  0  0
  192.1880  172.8310  144.0030 C   0  0  1  0  0  3  0  0  0  0  0  0
  190.1820  174.1350  143.3200 C   0  0  0  0  0  0  0  0  0  0  0  0
  187.4410  176.0290  139.9870 C   0  0  0  0  0  1  0  0  0  0  0  0
  186.3490  178.3670  142.6100 C   0  0  0  0  0  3  0  0  0  0  0  0
  185.3620  178.2080  140.3660 O   0  0  0  0  0  1  0  0  0  0  0  0
  187.2240  176.8450  141.2170 C   0  0  0  0  0  0  0  0  0  0  0  0
  187.3890  177.6660  143.2120 C   0  0  0  0  0  0  0  0  0  0  0  0
  186.2670  177.8230  141.3460 C   0  0  0  0  0  0  0  0  0  0  0  0
  187.9210  176.7450  142.3710 N   0  0  0  0  0  0  0  0  0  0  0  0
  189.7110  176.9000  145.7070 C   0  0  0  0  0  0  0  0  0  0  0  0
  187.8640  177.9060  144.6160 C   0  0  1  0  0  3  0  0  0  0  0  0
  187.3500  176.8120  145.5670 C   0  0  0  0  0  2  0  0  0  0  0  0
  188.5820  176.2890  146.1920 C   0  0  0  0  0  0  0  0  0  0  0  0
  189.9260  174.9150  147.6380 C   0  0  0  0  0  3  0  0  0  0  0  0
  191.0840  175.5400  147.1390 C   0  0  0  0  0  3  0  0  0  0  0  0
  189.3990  177.9200  144.6850 C   0  0  0  0  0  2  0  0  0  0  0  0
  190.9800  176.5430  146.1630 C   0  0  0  0  0  3  0  0  0  0  0  0
  188.6610  175.2890  147.1610 C   0  0  0  0  0  3  0  0  0  0  0  0
  192.7220  171.4460  144.1990 C   0  0  0  0  0  0  0  0  0  0  0  0
  192.1680  170.4720  143.6230 O   0  0  0  0  0  0  0  0  0  0  0  0
  193.8540  171.2090  145.0370 N   0  0  0  0  0  2  0  0  0  0  0  0
  194.5440  172.2820  145.7380 C   0  0  0  0  0  2  0  0  0  0  0  0
  196.7490  173.3620  146.1380 C   0  0  0  0  0  1  0  0  0  0  0  0
  196.1600  172.4910  144.0090 O   0  0  0  0  0  1  0  0  0  0  0  0
  196.0180  172.2720  145.3780 C   0  0  2  0  0  3  0  0  0  0  0  0
  1  9  1  0  0  0  0
  2  9  2  0  0  0  0
  3  2  1  0  0  0  0
  3  5  1  0  0  0  0
  4  7  1  0  0  0  0
  4  2  1  0  0  0  0
  5  8  1  0  0  0  0
  6  8  1  0  0  0  0
  7  1  2  0  0  0  0
  8 26  1  6  0  0  0
  9  6  1  0  0  0  0
 10 13  1  0  0  0  0
 11 14  2  0  0  0  0
 12 15  1  0  0  0  0
 13 15  2  0  0  0  0
 13 16  1  0  0  0  0
 15 11  1  0  0  0  0
 16  7  1  0  0  0  0
 16 14  1  0  0  0  0
 17 24  2  0  0  0  0
 17 20  1  0  0  0  0
 18 14  1  6  0  0  0
 18 23  1  0  0  0  0
 18 19  1  0  0  0  0
 19 20  1  0  0  0  0
 20 25  2  0  0  0  0
 22 21  2  0  0  0  0
 23 17  1  0  0  0  0
 24 22  1  0  0  0  0
 25 21  1  0  0  0  0
 26 28  1  0  0  0  0
 27 26  2  0  0  0  0
 28 29  1  0  0  0  0
 31 32  1  0  0  0  0
 32 29  1  0  0  0  0
 32 30  1  1  0  0  0
M  END
>  <MODEL>
8

>  <REMARK>
 VINA RESULT:      -7.1      2.395      7.343
  Name = 
  5 active torsions:
  status: ('A' for Active; 'I' for Inactive)
    1  A    between atoms: C_3  and  C_25
    2  A    between atoms: C_6  and  C_19
    3  A    between atoms: C_14  and  N_18
    4  A    between atoms: C_14  and  C_30
    5  A    between atoms: C_16  and  N_31
                            x       y       z     vdW  Elec       q    Type
                         _______ _______ _______ _____ _____    ______ ____

>  <TORSDO>
F 5

$$$$
=
 OpenBabel11042414533D

 32 36  0  0  1  0  0  0  0  0999 V2000
  190.0800  173.7340  144.4900 C   0  0  0  0  0  3  0  0  0  0  0  0
  191.3160  174.3430  142.7470 C   0  0  0  0  0  0  0  0  0  0  0  0
  192.0220  174.2750  141.4280 C   0  0  0  0  0  2  0  0  0  0  0  0
  191.3570  175.3390  143.5920 O   0  0  0  0  0  0  0  0  0  0  0  0
  191.4100  173.1720  140.5530 C   0  0  0  0  0  2  0  0  0  0  0  0
  190.2330  172.0670  142.5210 C   0  0  0  0  0  2  0  0  0  0  0  0
  190.6290  175.0070  144.6390 C   0  0  0  0  0  0  0  0  0  0  0  0
  191.2120  171.8720  141.3500 C   0  0  1  0  0  3  0  0  0  0  0  0
  190.5600  173.3240  143.2630 C   0  0  0  0  0  0  0  0  0  0  0  0
  192.7640  175.7440  146.7770 C   0  0  0  0  0  1  0  0  0  0  0  0
  189.4510  177.2680  147.2730 C   0  0  0  0  0  3  0  0  0  0  0  0
  191.3920  177.6070  148.7430 O   0  0  0  0  0  1  0  0  0  0  0  0
  191.3460  176.2060  146.7210 C   0  0  0  0  0  0  0  0  0  0  0  0
  189.2920  176.5140  146.1150 C   0  0  0  0  0  0  0  0  0  0  0  0
  190.7650  177.0530  147.6340 C   0  0  0  0  0  0  0  0  0  0  0  0
  190.4370  175.8710  145.7780 N   0  0  0  0  0  0  0  0  0  0  0  0
  186.5560  178.1980  144.7430 C   0  0  0  0  0  0  0  0  0  0  0  0
  188.0110  176.4240  145.3390 C   0  0  1  0  0  3  0  0  0  0  0  0
  186.7940  176.4140  146.2800 C   0  0  0  0  0  2  0  0  0  0  0  0
  185.9680  177.5380  145.7920 C   0  0  0  0  0  0  0  0  0  0  0  0
  184.0910  179.0380  145.7070 C   0  0  0  0  0  3  0  0  0  0  0  0
  184.6940  179.7160  144.6320 C   0  0  0  0  0  3  0  0  0  0  0  0
  187.8630  177.6130  144.3760 C   0  0  0  0  0  2  0  0  0  0  0  0
  185.9410  179.2950  144.1420 C   0  0  0  0  0  3  0  0  0  0  0  0
  184.7310  177.9380  146.2970 C   0  0  0  0  0  3  0  0  0  0  0  0
  190.7430  170.7660  140.4560 C   0  0  0  0  0  0  0  0  0  0  0  0
  190.0770  171.0350  139.4210 O   0  0  0  0  0  0  0  0  0  0  0  0
  191.0370  169.4030  140.7630 N   0  0  0  0  0  2  0  0  0  0  0  0
  191.7970  169.0140  141.9420 C   0  0  0  0  0  2  0  0  0  0  0  0
  194.1930  169.6480  141.7350 C   0  0  0  0  0  1  0  0  0  0  0  0
  193.1620  168.1690  140.1910 O   0  0  0  0  0  1  0  0  0  0  0  0
  193.1790  168.5390  141.5350 C   0  0  2  0  0  3  0  0  0  0  0  0
  1  7  2  0  0  0  0
  2  9  2  0  0  0  0
  2  4  1  0  0  0  0
  3  2  1  0  0  0  0
  4  7  1  0  0  0  0
  5  8  1  0  0  0  0
  5  3  1  0  0  0  0
  6  9  1  0  0  0  0
  7 16  1  0  0  0  0
  8 26  1  6  0  0  0
  8  6  1  0  0  0  0
  9  1  1  0  0  0  0
 11 15  1  0  0  0  0
 13 10  1  0  0  0  0
 13 15  2  0  0  0  0
 14 11  2  0  0  0  0
 15 12  1  0  0  0  0
 16 14  1  0  0  0  0
 16 13  1  0  0  0  0
 17 20  1  0  0  0  0
 18 14  1  1  0  0  0
 18 19  1  0  0  0  0
 20 19  1  0  0  0  0
 20 25  2  0  0  0  0
 21 25  1  0  0  0  0
 22 21  2  0  0  0  0
 23 17  1  0  0  0  0
 23 18  1  0  0  0  0
 24 22  1  0  0  0  0
 24 17  2  0  0  0  0
 26 28  1  0  0  0  0
 27 26  2  0  0  0  0
 28 29  1  0  0  0  0
 31 32  1  0  0  0  0
 32 30  1  6  0  0  0
 32 29  1  0  0  0  0
M  END
>  <MODEL>
9

>  <REMARK>
 VINA RESULT:      -7.1      3.708      7.078
  Name = 
  5 active torsions:
  status: ('A' for Active; 'I' for Inactive)
    1  A    between atoms: C_3  and  C_25
    2  A    between atoms: C_6  and  C_19
    3  A    between atoms: C_14  and  N_18
    4  A    between atoms: C_14  and  C_30
    5  A    between atoms: C_16  and  N_31
                            x       y       z     vdW  Elec       q    Type
                         _______ _______ _______ _____ _____    ______ ____

>  <TORSDO>
F 5

$$$$
