=
 OpenBabel11042417203D

 26 30  0  0  1  0  0  0  0  0999 V2000
  189.8000  175.4260  146.6610 C   0  0  2  0  0  3  0  0  0  0  0  0
  190.7670  175.9900  147.7060 C   0  0  0  0  0  2  0  0  0  0  0  0
  192.1120  176.3420  147.0850 C   0  0  0  0  0  2  0  0  0  0  0  0
  194.0060  172.2850  143.4380 C   0  0  0  0  0  2  0  0  0  0  0  0
  191.5530  172.6380  143.8780 C   0  0  0  0  0  0  0  0  0  0  0  0
  190.4490  174.4270  145.7430 C   0  0  0  0  0  0  0  0  0  0  0  0
  191.8900  174.3770  145.6150 N   0  0  0  0  0  0  0  0  0  0  0  0
  192.4280  173.4540  144.6630 C   0  0  0  0  0  0  0  0  0  0  0  0
  192.7700  175.0760  146.5530 C   0  0  0  0  0  2  0  0  0  0  0  0
  193.6870  173.2880  144.4540 N   0  0  0  0  0  0  0  0  0  0  0  0
  190.2290  172.7270  144.0420 C   0  0  0  0  0  0  0  0  0  0  0  0
  189.6940  173.6630  144.9990 N   0  0  0  0  0  0  0  0  0  0  0  0
  192.4420  171.5680  142.7710 S   0  0  0  0  0  0  0  0  0  0  0  0
  189.2950  171.8850  143.2440 C   0  0  0  0  0  1  0  0  0  0  0  0
  188.5970  177.9120  144.0030 C   0  0  0  0  0  2  0  0  0  0  0  0
  189.1380  176.4990  145.9160 N   0  0  0  0  0  0  0  0  0  0  0  0
  185.2360  178.0420  145.8710 C   0  0  0  0  0  0  0  0  0  0  0  0
  186.8810  176.6620  147.0300 C   0  0  0  0  0  3  0  0  0  0  0  0
  183.9550  178.5750  145.8200 O   0  0  0  0  0  1  0  0  0  0  0  0
  187.4490  177.7640  144.9510 C   0  0  0  0  0  0  0  0  0  0  0  0
  190.7650  176.8290  144.2380 O   0  0  0  0  0  0  0  0  0  0  0  0
  187.7930  176.9500  146.0140 C   0  0  0  0  0  0  0  0  0  0  0  0
  185.8070  179.2000  143.7020 C   0  0  0  0  0  1  0  0  0  0  0  0
  189.6130  177.0540  144.6930 C   0  0  0  0  0  0  0  0  0  0  0  0
  186.1710  178.3250  144.8540 C   0  0  0  0  0  0  0  0  0  0  0  0
  185.5960  177.2140  146.9520 C   0  0  0  0  0  3  0  0  0  0  0  0
  1 16  1  6  0  0  0
  1  2  1  0  0  0  0
  3  2  1  0  0  0  0
  4 10  1  0  0  0  0
  5 11  2  0  0  0  0
  5  8  1  0  0  0  0
  6  1  1  0  0  0  0
  7  6  1  0  0  0  0
  7  9  1  0  0  0  0
  8  7  1  0  0  0  0
  9  3  1  0  0  0  0
 10  8  2  0  0  0  0
 11 12  1  0  0  0  0
 12  6  2  0  0  0  0
 13  4  1  0  0  0  0
 13  5  1  0  0  0  0
 14 11  1  0  0  0  0
 15 24  1  0  0  0  0
 15 20  1  0  0  0  0
 16 22  1  0  0  0  0
 17 26  1  0  0  0  0
 19 17  1  0  0  0  0
 20 22  2  0  0  0  0
 21 24  2  0  0  0  0
 22 18  1  0  0  0  0
 23 25  1  0  0  0  0
 24 16  1  0  0  0  0
 25 20  1  0  0  0  0
 25 17  2  0  0  0  0
 26 18  2  0  0  0  0
M  END
>  <MODEL>
1

>  <REMARK>
 VINA RESULT:      -8.3      0.000      0.000
  Name = 
  1 active torsions:
  status: ('A' for Active; 'I' for Inactive)
    1  A    between atoms: C_1  and  N_4
                            x       y       z     vdW  Elec       q    Type
                         _______ _______ _______ _____ _____    ______ ____

>  <TORSDO>
F 1

$$$$
=
 OpenBabel11042417203D

 26 30  0  0  1  0  0  0  0  0999 V2000
  189.0960  176.2250  145.5680 C   0  0  2  0  0  3  0  0  0  0  0  0
  189.8450  177.5170  145.9050 C   0  0  0  0  0  2  0  0  0  0  0  0
  190.4190  178.1690  144.6540 C   0  0  0  0  0  2  0  0  0  0  0  0
  192.9020  174.3530  141.1010 C   0  0  0  0  0  2  0  0  0  0  0  0
  191.0390  173.7000  142.6640 C   0  0  0  0  0  0  0  0  0  0  0  0
  189.8350  175.3600  144.5850 C   0  0  0  0  0  0  0  0  0  0  0  0
  190.8830  175.9210  143.7590 N   0  0  0  0  0  0  0  0  0  0  0  0
  191.4850  175.0530  142.7920 C   0  0  0  0  0  0  0  0  0  0  0  0
  191.4530  177.2410  144.0300 C   0  0  0  0  0  2  0  0  0  0  0  0
  192.4390  175.4070  142.0030 N   0  0  0  0  0  0  0  0  0  0  0  0
  190.0670  173.2370  143.4570 C   0  0  0  0  0  0  0  0  0  0  0  0
  189.4620  174.1180  144.4250 N   0  0  0  0  0  0  0  0  0  0  0  0
  191.9320  172.8130  141.4080 S   0  0  0  0  0  0  0  0  0  0  0  0
  189.5890  171.8310  143.3500 C   0  0  0  0  0  1  0  0  0  0  0  0
  185.4370  177.3300  145.2710 C   0  0  0  0  0  2  0  0  0  0  0  0
  187.7280  176.5040  145.1260 N   0  0  0  0  0  0  0  0  0  0  0  0
  186.0300  177.7280  141.4900 C   0  0  0  0  0  0  0  0  0  0  0  0
  187.9850  176.8260  142.6380 C   0  0  0  0  0  3  0  0  0  0  0  0
  185.4300  178.1410  140.3070 O   0  0  0  0  0  1  0  0  0  0  0  0
  185.9720  177.3580  143.8720 C   0  0  0  0  0  0  0  0  0  0  0  0
  186.6840  176.6270  147.2400 O   0  0  0  0  0  0  0  0  0  0  0  0
  187.2720  176.8920  143.8360 C   0  0  0  0  0  0  0  0  0  0  0  0
  183.9210  178.2900  142.7590 C   0  0  0  0  0  1  0  0  0  0  0  0
  186.6350  176.7930  145.9930 C   0  0  0  0  0  0  0  0  0  0  0  0
  185.3240  177.7860  142.7090 C   0  0  0  0  0  0  0  0  0  0  0  0
  187.3530  177.2490  141.4610 C   0  0  0  0  0  3  0  0  0  0  0  0
  1 16  1  6  0  0  0
  1  2  1  0  0  0  0
  3  2  1  0  0  0  0
  4 13  1  0  0  0  0
  4 10  1  0  0  0  0
  5  8  1  0  0  0  0
  5 11  2  0  0  0  0
  6  1  1  0  0  0  0
  7  9  1  0  0  0  0
  7  6  1  0  0  0  0
  8  7  1  0  0  0  0
  9  3  1  0  0  0  0
 10  8  2  0  0  0  0
 11 12  1  0  0  0  0
 12  6  2  0  0  0  0
 13  5  1  0  0  0  0
 14 11  1  0  0  0  0
 15 24  1  0  0  0  0
 16 24  1  0  0  0  0
 17 25  1  0  0  0  0
 18 22  2  0  0  0  0
 19 17  1  0  0  0  0
 20 15  1  0  0  0  0
 22 20  1  0  0  0  0
 22 16  1  0  0  0  0
 24 21  2  0  0  0  0
 25 23  1  0  0  0  0
 25 20  2  0  0  0  0
 26 17  2  0  0  0  0
 26 18  1  0  0  0  0
M  END
>  <MODEL>
2

>  <REMARK>
 VINA RESULT:      -7.9      2.309      3.148
  Name = 
  1 active torsions:
  status: ('A' for Active; 'I' for Inactive)
    1  A    between atoms: C_1  and  N_4
                            x       y       z     vdW  Elec       q    Type
                         _______ _______ _______ _____ _____    ______ ____

>  <TORSDO>
F 1

$$$$
=
 OpenBabel11042417203D

 26 30  0  0  1  0  0  0  0  0999 V2000
  189.9740  176.0740  144.9010 C   0  0  2  0  0  3  0  0  0  0  0  0
  191.2560  176.7530  145.3910 C   0  0  0  0  0  2  0  0  0  0  0  0
  192.0810  177.2880  144.2280 C   0  0  0  0  0  2  0  0  0  0  0  0
  192.4080  173.5540  139.8340 C   0  0  0  0  0  2  0  0  0  0  0  0
  190.4550  173.5710  141.4240 C   0  0  0  0  0  0  0  0  0  0  0  0
  190.2030  175.1790  143.7140 C   0  0  0  0  0  0  0  0  0  0  0  0
  191.3950  175.3240  142.9070 N   0  0  0  0  0  0  0  0  0  0  0  0
  191.5030  174.4900  141.7480 C   0  0  0  0  0  0  0  0  0  0  0  0
  192.5340  176.1260  143.3540 C   0  0  0  0  0  2  0  0  0  0  0  0
  192.5120  174.4950  140.9480 N   0  0  0  0  0  0  0  0  0  0  0  0
  189.3770  173.4800  142.2100 C   0  0  0  0  0  0  0  0  0  0  0  0
  189.2740  174.3280  143.3710 N   0  0  0  0  0  0  0  0  0  0  0  0
  190.8090  172.6400  139.9510 S   0  0  0  0  0  0  0  0  0  0  0  0
  188.2750  172.5280  141.8990 C   0  0  0  0  0  1  0  0  0  0  0  0
  187.3450  178.3850  143.3390 C   0  0  0  0  0  2  0  0  0  0  0  0
  188.9170  177.0550  144.6460 N   0  0  0  0  0  0  0  0  0  0  0  0
  185.3730  178.1060  146.6310 C   0  0  0  0  0  0  0  0  0  0  0  0
  187.5150  176.9420  146.7400 C   0  0  0  0  0  3  0  0  0  0  0  0
  184.1880  178.4780  147.2530 O   0  0  0  0  0  1  0  0  0  0  0  0
  186.8460  178.1000  144.7220 C   0  0  0  0  0  0  0  0  0  0  0  0
  189.4430  177.5770  142.4050 O   0  0  0  0  0  0  0  0  0  0  0  0
  187.7600  177.3380  145.4240 C   0  0  0  0  0  0  0  0  0  0  0  0
  184.6570  179.3190  144.5360 C   0  0  0  0  0  1  0  0  0  0  0  0
  188.6550  177.6600  143.3830 C   0  0  0  0  0  0  0  0  0  0  0  0
  185.6390  178.4990  145.3030 C   0  0  0  0  0  0  0  0  0  0  0  0
  186.3110  177.3330  147.3410 C   0  0  0  0  0  3  0  0  0  0  0  0
  1 16  1  6  0  0  0
  1  2  1  0  0  0  0
  3  2  1  0  0  0  0
  4 13  1  0  0  0  0
  4 10  1  0  0  0  0
  5  8  1  0  0  0  0
  5 11  2  0  0  0  0
  6  1  1  0  0  0  0
  7  9  1  0  0  0  0
  7  6  1  0  0  0  0
  8  7  1  0  0  0  0
  9  3  1  0  0  0  0
 10  8  2  0  0  0  0
 11 12  1  0  0  0  0
 12  6  2  0  0  0  0
 13  5  1  0  0  0  0
 14 11  1  0  0  0  0
 15 24  1  0  0  0  0
 15 20  1  0  0  0  0
 16 22  1  0  0  0  0
 17 19  1  0  0  0  0
 17 26  1  0  0  0  0
 18 26  2  0  0  0  0
 20 25  1  0  0  0  0
 20 22  2  0  0  0  0
 21 24  2  0  0  0  0
 22 18  1  0  0  0  0
 23 25  1  0  0  0  0
 24 16  1  0  0  0  0
 25 17  2  0  0  0  0
M  END
>  <MODEL>
3

>  <REMARK>
 VINA RESULT:      -7.7      2.152      2.300
  Name = 
  1 active torsions:
  status: ('A' for Active; 'I' for Inactive)
    1  A    between atoms: C_1  and  N_4
                            x       y       z     vdW  Elec       q    Type
                         _______ _______ _______ _____ _____    ______ ____

>  <TORSDO>
F 1

$$$$
=
 OpenBabel11042417203D

 26 30  0  0  1  0  0  0  0  0999 V2000
  189.1460  175.1060  143.9610 C   0  0  2  0  0  3  0  0  0  0  0  0
  188.9700  174.4190  142.6050 C   0  0  0  0  0  2  0  0  0  0  0  0
  188.4160  175.3820  141.5620 C   0  0  0  0  0  2  0  0  0  0  0  0
  184.1160  178.6450  143.6140 C   0  0  0  0  0  2  0  0  0  0  0  0
  185.9140  177.7170  145.1120 C   0  0  0  0  0  0  0  0  0  0  0  0
  187.9740  175.9710  144.3360 C   0  0  0  0  0  0  0  0  0  0  0  0
  187.0390  176.4160  143.3240 N   0  0  0  0  0  0  0  0  0  0  0  0
  185.9960  177.3010  143.7460 C   0  0  0  0  0  0  0  0  0  0  0  0
  187.0240  175.8340  141.9820 C   0  0  0  0  0  2  0  0  0  0  0  0
  185.0840  177.7630  142.9630 N   0  0  0  0  0  0  0  0  0  0  0  0
  186.8060  177.2710  146.0020 C   0  0  0  0  0  0  0  0  0  0  0  0
  187.8570  176.3850  145.5690 N   0  0  0  0  0  0  0  0  0  0  0  0
  184.5390  178.8060  145.4030 S   0  0  0  0  0  0  0  0  0  0  0  0
  186.7410  177.6830  147.4320 C   0  0  0  0  0  1  0  0  0  0  0  0
  191.8770  177.7880  144.1760 C   0  0  0  0  0  2  0  0  0  0  0  0
  190.4090  175.8460  144.0220 N   0  0  0  0  0  0  0  0  0  0  0  0
  194.1090  175.1530  145.8740 C   0  0  0  0  0  0  0  0  0  0  0  0
  191.9680  174.2250  145.1630 C   0  0  0  0  0  3  0  0  0  0  0  0
  195.3460  174.9660  146.4780 O   0  0  0  0  0  1  0  0  0  0  0  0
  192.4870  176.5570  144.7710 C   0  0  0  0  0  0  0  0  0  0  0  0
  189.6450  177.9290  143.2160 O   0  0  0  0  0  0  0  0  0  0  0  0
  191.6210  175.4840  144.6730 C   0  0  0  0  0  0  0  0  0  0  0  0
  194.6700  177.5830  145.4770 C   0  0  0  0  0  1  0  0  0  0  0  0
  190.5510  177.2370  143.7490 C   0  0  0  0  0  0  0  0  0  0  0  0
  193.7430  176.4190  145.3720 C   0  0  0  0  0  0  0  0  0  0  0  0
  193.2220  174.0650  145.7670 C   0  0  0  0  0  3  0  0  0  0  0  0
  1  2  1  6  0  0  0
  1 16  1  0  0  0  0
  1  6  1  0  0  0  0
  3  9  1  0  0  0  0
  3  2  1  0  0  0  0
  4 13  1  0  0  0  0
  5 13  1  0  0  0  0
  5 11  2  0  0  0  0
  6 12  2  0  0  0  0
  7  8  1  0  0  0  0
  7  6  1  0  0  0  0
  8  5  1  0  0  0  0
  9  7  1  0  0  0  0
 10  4  1  0  0  0  0
 10  8  2  0  0  0  0
 11 14  1  0  0  0  0
 12 11  1  0  0  0  0
 15 20  1  0  0  0  0
 16 22  1  0  0  0  0
 17 19  1  0  0  0  0
 18 26  2  0  0  0  0
 20 25  1  0  0  0  0
 21 24  2  0  0  0  0
 22 20  2  0  0  0  0
 22 18  1  0  0  0  0
 24 16  1  0  0  0  0
 24 15  1  0  0  0  0
 25 23  1  0  0  0  0
 25 17  2  0  0  0  0
 26 17  1  0  0  0  0
M  END
>  <MODEL>
4

>  <REMARK>
 VINA RESULT:      -7.6      3.301      7.092
  Name = 
  1 active torsions:
  status: ('A' for Active; 'I' for Inactive)
    1  A    between atoms: C_1  and  N_4
                            x       y       z     vdW  Elec       q    Type
                         _______ _______ _______ _____ _____    ______ ____

>  <TORSDO>
F 1

$$$$
=
 OpenBabel11042417203D

 26 30  0  0  1  0  0  0  0  0999 V2000
  189.8150  174.8770  143.5500 C   0  0  2  0  0  3  0  0  0  0  0  0
  189.2420  173.5970  142.9370 C   0  0  0  0  0  2  0  0  0  0  0  0
  189.5890  172.3750  143.7770 C   0  0  0  0  0  2  0  0  0  0  0  0
  195.0800  172.3930  145.5650 C   0  0  0  0  0  2  0  0  0  0  0  0
  193.8330  174.5240  145.0730 C   0  0  0  0  0  0  0  0  0  0  0  0
  191.2320  174.7140  144.0270 C   0  0  0  0  0  0  0  0  0  0  0  0
  191.7790  173.3940  144.2630 N   0  0  0  0  0  0  0  0  0  0  0  0
  193.1070  173.3240  144.7910 C   0  0  0  0  0  0  0  0  0  0  0  0
  191.1000  172.1860  143.7940 C   0  0  0  0  0  2  0  0  0  0  0  0
  193.7280  172.2230  145.0340 N   0  0  0  0  0  0  0  0  0  0  0  0
  193.2770  175.7160  144.8320 C   0  0  0  0  0  0  0  0  0  0  0  0
  191.9360  175.7780  144.3060 N   0  0  0  0  0  0  0  0  0  0  0  0
  195.4580  174.1930  145.7140 S   0  0  0  0  0  0  0  0  0  0  0  0
  194.0120  176.9810  145.1100 C   0  0  0  0  0  1  0  0  0  0  0  0
  188.2600  176.0050  146.8680 C   0  0  0  0  0  2  0  0  0  0  0  0
  188.9440  175.3970  144.6060 N   0  0  0  0  0  0  0  0  0  0  0  0
  186.2910  178.6370  144.8670 C   0  0  0  0  0  0  0  0  0  0  0  0
  187.6090  177.1790  143.4210 C   0  0  0  0  0  3  0  0  0  0  0  0
  185.4100  179.7030  144.9970 O   0  0  0  0  0  1  0  0  0  0  0  0
  187.6360  176.8780  145.8230 C   0  0  0  0  0  0  0  0  0  0  0  0
  189.8490  174.2120  146.4370 O   0  0  0  0  0  0  0  0  0  0  0  0
  188.0560  176.5070  144.5600 C   0  0  0  0  0  0  0  0  0  0  0  0
  186.3040  178.3400  147.3740 C   0  0  0  0  0  1  0  0  0  0  0  0
  189.0890  175.1130  145.9950 C   0  0  0  0  0  0  0  0  0  0  0  0
  186.7500  177.9450  146.0070 C   0  0  0  0  0  0  0  0  0  0  0  0
  186.7210  178.2510  143.5840 C   0  0  0  0  0  3  0  0  0  0  0  0
  1  2  1  1  0  0  0
  1  6  1  0  0  0  0
  1 16  1  0  0  0  0
  2  3  1  0  0  0  0
  3  9  1  0  0  0  0
  4 13  1  0  0  0  0
  5 13  1  0  0  0  0
  6  7  1  0  0  0  0
  6 12  2  0  0  0  0
  7  8  1  0  0  0  0
  8 10  2  0  0  0  0
  8  5  1  0  0  0  0
  9  7  1  0  0  0  0
 10  4  1  0  0  0  0
 11  5  2  0  0  0  0
 11 14  1  0  0  0  0
 12 11  1  0  0  0  0
 16 24  1  0  0  0  0
 17 19  1  0  0  0  0
 17 25  1  0  0  0  0
 18 26  1  0  0  0  0
 18 22  2  0  0  0  0
 20 25  2  0  0  0  0
 20 15  1  0  0  0  0
 22 16  1  0  0  0  0
 22 20  1  0  0  0  0
 24 21  2  0  0  0  0
 24 15  1  0  0  0  0
 25 23  1  0  0  0  0
 26 17  2  0  0  0  0
M  END
>  <MODEL>
5

>  <REMARK>
 VINA RESULT:      -7.5      1.934      3.450
  Name = 
  1 active torsions:
  status: ('A' for Active; 'I' for Inactive)
    1  A    between atoms: C_1  and  N_4
                            x       y       z     vdW  Elec       q    Type
                         _______ _______ _______ _____ _____    ______ ____

>  <TORSDO>
F 1

$$$$
=
 OpenBabel11042417203D

 26 30  0  0  1  0  0  0  0  0999 V2000
  188.5590  176.6750  142.0060 C   0  0  2  0  0  3  0  0  0  0  0  0
  187.8160  175.6000  141.2090 C   0  0  0  0  0  2  0  0  0  0  0  0
  187.6110  174.3370  142.0360 C   0  0  0  0  0  2  0  0  0  0  0  0
  192.3280  172.8420  145.0130 C   0  0  0  0  0  2  0  0  0  0  0  0
  191.8600  175.2320  144.3730 C   0  0  0  0  0  0  0  0  0  0  0  0
  189.7260  176.1280  142.7790 C   0  0  0  0  0  0  0  0  0  0  0  0
  189.8210  174.7110  143.0580 N   0  0  0  0  0  0  0  0  0  0  0  0
  190.9200  174.2790  143.8670 C   0  0  0  0  0  0  0  0  0  0  0  0
  188.9660  173.7350  142.3820 C   0  0  0  0  0  2  0  0  0  0  0  0
  191.1430  173.0500  144.1820 N   0  0  0  0  0  0  0  0  0  0  0  0
  191.7220  176.5280  144.0790 C   0  0  0  0  0  0  0  0  0  0  0  0
  190.6100  176.9570  143.2690 N   0  0  0  0  0  0  0  0  0  0  0  0
  193.1390  174.4660  145.3430 S   0  0  0  0  0  0  0  0  0  0  0  0
  192.6900  177.5410  144.5860 C   0  0  0  0  0  1  0  0  0  0  0  0
  185.6430  178.6880  143.4700 C   0  0  0  0  0  2  0  0  0  0  0  0
  187.6420  177.4270  142.8660 N   0  0  0  0  0  0  0  0  0  0  0  0
  186.4300  177.0580  146.8650 C   0  0  0  0  0  0  0  0  0  0  0  0
  188.0360  176.4180  145.1430 C   0  0  0  0  0  3  0  0  0  0  0  0
  185.9970  176.9650  148.1820 O   0  0  0  0  0  1  0  0  0  0  0  0
  186.2100  177.9200  144.6240 C   0  0  0  0  0  0  0  0  0  0  0  0
  186.5190  178.6660  141.1990 O   0  0  0  0  0  0  0  0  0  0  0  0
  187.3330  177.2140  144.2380 C   0  0  0  0  0  0  0  0  0  0  0  0
  184.5180  178.6220  146.3440 C   0  0  0  0  0  1  0  0  0  0  0  0
  186.6100  178.2910  142.3970 C   0  0  0  0  0  0  0  0  0  0  0  0
  185.7330  177.8590  145.9370 C   0  0  0  0  0  0  0  0  0  0  0  0
  187.5750  176.3440  146.4650 C   0  0  0  0  0  3  0  0  0  0  0  0
  1  2  1  1  0  0  0
  1  6  1  0  0  0  0
  1 16  1  0  0  0  0
  2  3  1  0  0  0  0
  3  9  1  0  0  0  0
  4 13  1  0  0  0  0
  5 13  1  0  0  0  0
  6  7  1  0  0  0  0
  6 12  2  0  0  0  0
  7  8  1  0  0  0  0
  8 10  2  0  0  0  0
  8  5  1  0  0  0  0
  9  7  1  0  0  0  0
 10  4  1  0  0  0  0
 11  5  2  0  0  0  0
 11 14  1  0  0  0  0
 12 11  1  0  0  0  0
 15 20  1  0  0  0  0
 16 22  1  0  0  0  0
 17 19  1  0  0  0  0
 18 26  2  0  0  0  0
 20 25  1  0  0  0  0
 21 24  2  0  0  0  0
 22 20  2  0  0  0  0
 22 18  1  0  0  0  0
 24 16  1  0  0  0  0
 24 15  1  0  0  0  0
 25 23  1  0  0  0  0
 25 17  2  0  0  0  0
 26 17  1  0  0  0  0
M  END
>  <MODEL>
6

>  <REMARK>
 VINA RESULT:      -7.3      2.419      3.957
  Name = 
  1 active torsions:
  status: ('A' for Active; 'I' for Inactive)
    1  A    between atoms: C_1  and  N_4
                            x       y       z     vdW  Elec       q    Type
                         _______ _______ _______ _____ _____    ______ ____

>  <TORSDO>
F 1

$$$$
=
 OpenBabel11042417203D

 26 30  0  0  1  0  0  0  0  0999 V2000
  192.3660  175.6320  145.3830 C   0  0  2  0  0  3  0  0  0  0  0  0
  193.2960  176.0800  146.5130 C   0  0  0  0  0  2  0  0  0  0  0  0
  194.2570  177.1650  146.0450 C   0  0  0  0  0  2  0  0  0  0  0  0
  196.5190  176.0410  140.8520 C   0  0  0  0  0  2  0  0  0  0  0  0
  194.2660  175.1530  141.5430 C   0  0  0  0  0  0  0  0  0  0  0  0
  193.0840  175.4380  144.0760 C   0  0  0  0  0  0  0  0  0  0  0  0
  194.3840  176.0370  143.8580 N   0  0  0  0  0  0  0  0  0  0  0  0
  194.9670  175.8730  142.5610 C   0  0  0  0  0  0  0  0  0  0  0  0
  195.1640  176.6020  144.9590 C   0  0  0  0  0  2  0  0  0  0  0  0
  196.1230  176.3340  142.2280 N   0  0  0  0  0  0  0  0  0  0  0  0
  193.0690  174.6190  141.8040 C   0  0  0  0  0  0  0  0  0  0  0  0
  192.4850  174.7940  143.1100 N   0  0  0  0  0  0  0  0  0  0  0  0
  195.1850  175.0730  140.0220 S   0  0  0  0  0  0  0  0  0  0  0  0
  192.3200  173.8590  140.7650 C   0  0  0  0  0  1  0  0  0  0  0  0
  189.7000  178.0920  144.1430 C   0  0  0  0  0  2  0  0  0  0  0  0
  191.2230  176.5370  145.2450 N   0  0  0  0  0  0  0  0  0  0  0  0
  187.2750  176.4880  146.6630 C   0  0  0  0  0  0  0  0  0  0  0  0
  189.5260  175.5640  146.8370 C   0  0  0  0  0  3  0  0  0  0  0  0
  185.9580  176.5050  147.1060 O   0  0  0  0  0  1  0  0  0  0  0  0
  189.0290  177.2920  145.2170 C   0  0  0  0  0  0  0  0  0  0  0  0
  192.0270  177.8640  143.4650 O   0  0  0  0  0  0  0  0  0  0  0  0
  189.9220  176.4190  145.8080 C   0  0  0  0  0  0  0  0  0  0  0  0
  186.7340  178.2900  144.9800 C   0  0  0  0  0  1  0  0  0  0  0  0
  191.0830  177.5230  144.2250 C   0  0  0  0  0  0  0  0  0  0  0  0
  187.6920  177.3470  145.6260 C   0  0  0  0  0  0  0  0  0  0  0  0
  188.1920  175.6030  147.2630 C   0  0  0  0  0  3  0  0  0  0  0  0
  1 16  1  6  0  0  0
  1  2  1  0  0  0  0
  3  2  1  0  0  0  0
  4 10  1  0  0  0  0
  5 11  2  0  0  0  0
  5  8  1  0  0  0  0
  6  1  1  0  0  0  0
  7  6  1  0  0  0  0
  7  9  1  0  0  0  0
  8  7  1  0  0  0  0
  9  3  1  0  0  0  0
 10  8  2  0  0  0  0
 11 12  1  0  0  0  0
 12  6  2  0  0  0  0
 13  4  1  0  0  0  0
 13  5  1  0  0  0  0
 14 11  1  0  0  0  0
 15 24  1  0  0  0  0
 15 20  1  0  0  0  0
 16 22  1  0  0  0  0
 17 19  1  0  0  0  0
 17 26  1  0  0  0  0
 18 26  2  0  0  0  0
 20 25  1  0  0  0  0
 20 22  2  0  0  0  0
 21 24  2  0  0  0  0
 22 18  1  0  0  0  0
 23 25  1  0  0  0  0
 24 16  1  0  0  0  0
 25 17  2  0  0  0  0
M  END
>  <MODEL>
7

>  <REMARK>
 VINA RESULT:      -7.3      2.695      3.261
  Name = 
  1 active torsions:
  status: ('A' for Active; 'I' for Inactive)
    1  A    between atoms: C_1  and  N_4
                            x       y       z     vdW  Elec       q    Type
                         _______ _______ _______ _____ _____    ______ ____

>  <TORSDO>
F 1

$$$$
=
 OpenBabel11042417203D

 26 30  0  0  1  0  0  0  0  0999 V2000
  191.0600  174.7890  145.3880 C   0  0  2  0  0  3  0  0  0  0  0  0
  192.0910  175.8140  145.8680 C   0  0  0  0  0  2  0  0  0  0  0  0
  192.4490  176.8010  144.7650 C   0  0  0  0  0  2  0  0  0  0  0  0
  193.2500  174.2260  139.6580 C   0  0  0  0  0  2  0  0  0  0  0  0
  191.7400  173.2480  141.4190 C   0  0  0  0  0  0  0  0  0  0  0  0
  191.3650  174.2510  144.0180 C   0  0  0  0  0  0  0  0  0  0  0  0
  192.2630  174.9630  143.1330 N   0  0  0  0  0  0  0  0  0  0  0  0
  192.4420  174.4290  141.8170 C   0  0  0  0  0  0  0  0  0  0  0  0
  193.1120  176.0530  143.6150 C   0  0  0  0  0  2  0  0  0  0  0  0
  193.2210  174.9440  140.9310 N   0  0  0  0  0  0  0  0  0  0  0  0
  190.9250  172.6310  142.2810 C   0  0  0  0  0  0  0  0  0  0  0  0
  190.7460  173.1780  143.6030 N   0  0  0  0  0  0  0  0  0  0  0  0
  192.1210  172.7690  139.7500 S   0  0  0  0  0  0  0  0  0  0  0  0
  190.1870  171.3960  141.8950 C   0  0  0  0  0  1  0  0  0  0  0  0
  187.6860  176.2080  146.5270 C   0  0  0  0  0  2  0  0  0  0  0  0
  189.6990  175.3250  145.4700 N   0  0  0  0  0  0  0  0  0  0  0  0
  187.4700  177.9970  143.1270 C   0  0  0  0  0  0  0  0  0  0  0  0
  189.4410  176.5680  143.2910 C   0  0  0  0  0  3  0  0  0  0  0  0
  186.7010  178.8830  142.3830 O   0  0  0  0  0  1  0  0  0  0  0  0
  187.8860  176.7350  145.1390 C   0  0  0  0  0  0  0  0  0  0  0  0
  189.1990  174.6980  147.6910 O   0  0  0  0  0  0  0  0  0  0  0  0
  189.0400  176.2190  144.5820 C   0  0  0  0  0  0  0  0  0  0  0  0
  185.8360  178.1860  145.0430 C   0  0  0  0  0  1  0  0  0  0  0  0
  188.9000  175.3400  146.6500 C   0  0  0  0  0  0  0  0  0  0  0  0
  187.0790  177.6310  144.4310 C   0  0  0  0  0  0  0  0  0  0  0  0
  188.6450  177.4640  142.5640 C   0  0  0  0  0  3  0  0  0  0  0  0
  1 16  1  6  0  0  0
  1  2  1  0  0  0  0
  3  2  1  0  0  0  0
  4 13  1  0  0  0  0
  4 10  1  0  0  0  0
  5  8  1  0  0  0  0
  5 11  2  0  0  0  0
  6  1  1  0  0  0  0
  7  9  1  0  0  0  0
  7  6  1  0  0  0  0
  8  7  1  0  0  0  0
  9  3  1  0  0  0  0
 10  8  2  0  0  0  0
 11 12  1  0  0  0  0
 12  6  2  0  0  0  0
 13  5  1  0  0  0  0
 14 11  1  0  0  0  0
 15 24  1  0  0  0  0
 16 24  1  0  0  0  0
 17 25  1  0  0  0  0
 18 22  2  0  0  0  0
 19 17  1  0  0  0  0
 20 15  1  0  0  0  0
 22 20  1  0  0  0  0
 22 16  1  0  0  0  0
 24 21  2  0  0  0  0
 25 23  1  0  0  0  0
 25 20  2  0  0  0  0
 26 17  2  0  0  0  0
 26 18  1  0  0  0  0
M  END
>  <MODEL>
8

>  <REMARK>
 VINA RESULT:      -7.2      2.356      2.998
  Name = 
  1 active torsions:
  status: ('A' for Active; 'I' for Inactive)
    1  A    between atoms: C_1  and  N_4
                            x       y       z     vdW  Elec       q    Type
                         _______ _______ _______ _____ _____    ______ ____

>  <TORSDO>
F 1

$$$$
=
 OpenBabel11042417203D

 26 30  0  0  1  0  0  0  0  0999 V2000
  190.4630  176.3280  144.4240 C   0  0  2  0  0  3  0  0  0  0  0  0
  191.4960  176.7960  145.4510 C   0  0  0  0  0  2  0  0  0  0  0  0
  190.9970  176.5910  146.8750 C   0  0  0  0  0  2  0  0  0  0  0  0
  185.4850  178.1780  147.5450 C   0  0  0  0  0  2  0  0  0  0  0  0
  186.3860  177.4000  145.3270 C   0  0  0  0  0  0  0  0  0  0  0  0
  189.0640  176.7630  144.7620 C   0  0  0  0  0  0  0  0  0  0  0  0
  188.7300  177.1760  146.1080 N   0  0  0  0  0  0  0  0  0  0  0  0
  187.3600  177.5000  146.3700 C   0  0  0  0  0  0  0  0  0  0  0  0
  189.7630  177.4530  147.1060 C   0  0  0  0  0  2  0  0  0  0  0  0
  186.9200  177.8980  147.5120 N   0  0  0  0  0  0  0  0  0  0  0  0
  186.7550  177.0150  144.1010 C   0  0  0  0  0  0  0  0  0  0  0  0
  188.1350  176.6850  143.8470 N   0  0  0  0  0  0  0  0  0  0  0  0
  184.7590  177.8560  145.8800 S   0  0  0  0  0  0  0  0  0  0  0  0
  185.7630  176.9090  142.9950 C   0  0  0  0  0  1  0  0  0  0  0  0
  189.9100  172.5350  144.4080 C   0  0  0  0  0  2  0  0  0  0  0  0
  190.5450  174.8820  144.2090 N   0  0  0  0  0  0  0  0  0  0  0  0
  191.5270  172.4720  140.9180 C   0  0  0  0  0  0  0  0  0  0  0  0
  191.5660  174.7010  141.9100 C   0  0  0  0  0  3  0  0  0  0  0  0
  191.8380  171.6390  139.8500 O   0  0  0  0  0  1  0  0  0  0  0  0
  190.5900  172.8380  143.1090 C   0  0  0  0  0  0  0  0  0  0  0  0
  189.3920  174.1650  146.1410 O   0  0  0  0  0  0  0  0  0  0  0  0
  190.9230  174.1770  143.0330 C   0  0  0  0  0  0  0  0  0  0  0  0
  190.5140  170.5160  142.1510 C   0  0  0  0  0  1  0  0  0  0  0  0
  189.9100  173.9000  145.0240 C   0  0  0  0  0  0  0  0  0  0  0  0
  190.8810  171.9600  142.0610 C   0  0  0  0  0  0  0  0  0  0  0  0
  191.8670  173.8370  140.8490 C   0  0  0  0  0  3  0  0  0  0  0  0
  1 16  1  1  0  0  0
  1  6  1  0  0  0  0
  1  2  1  0  0  0  0
  2  3  1  0  0  0  0
  3  9  1  0  0  0  0
  5 13  1  0  0  0  0
  5  8  1  0  0  0  0
  6  7  1  0  0  0  0
  7  8  1  0  0  0  0
  7  9  1  0  0  0  0
  8 10  2  0  0  0  0
 10  4  1  0  0  0  0
 11  5  2  0  0  0  0
 12 11  1  0  0  0  0
 12  6  2  0  0  0  0
 13  4  1  0  0  0  0
 14 11  1  0  0  0  0
 15 24  1  0  0  0  0
 16 24  1  0  0  0  0
 17 25  1  0  0  0  0
 18 22  2  0  0  0  0
 19 17  1  0  0  0  0
 20 15  1  0  0  0  0
 22 20  1  0  0  0  0
 22 16  1  0  0  0  0
 24 21  2  0  0  0  0
 25 23  1  0  0  0  0
 25 20  2  0  0  0  0
 26 17  2  0  0  0  0
 26 18  1  0  0  0  0
M  END
>  <MODEL>
9

>  <REMARK>
 VINA RESULT:      -7.0      3.091      6.845
  Name = 
  1 active torsions:
  status: ('A' for Active; 'I' for Inactive)
    1  A    between atoms: C_1  and  N_4
                            x       y       z     vdW  Elec       q    Type
                         _______ _______ _______ _____ _____    ______ ____

>  <TORSDO>
F 1

$$$$
