=
 OpenBabel11042419473D

 50 53  0  0  1  0  0  0  0  0999 V2000
  187.9040  172.6040  138.7680 O   0  0  0  0  0  0  0  0  0  0  0  0
  192.2980  173.9140  138.7040 C   0  0  0  0  0  0  0  0  0  0  0  0
  190.3120  173.8950  137.5650 C   0  0  0  0  0  0  0  0  0  0  0  0
  191.1750  173.9640  142.8250 C   0  0  0  0  0  2  0  0  0  0  0  0
  190.1670  173.4060  138.7900 C   0  0  0  0  0  0  0  0  0  0  0  0
  191.7450  174.2780  137.3590 C   0  0  2  0  0  3  0  0  0  0  0  0
  192.5420  173.7010  143.3670 C   0  0  1  0  0  3  0  0  0  0  0  0
  193.7490  173.9230  139.0730 C   0  0  0  0  0  2  0  0  0  0  0  0
  191.4060  173.4100  139.4860 N   0  0  0  0  0  0  0  0  0  0  0  0
  194.1300  175.0560  140.0340 C   0  0  1  0  0  3  0  0  0  0  0  0
  192.3100  173.4630  136.3780 O   0  0  0  0  0  1  0  0  0  0  0  0
  189.0400  172.5240  140.8090 N   0  0  0  0  0  0  0  0  0  0  0  0
  188.9490  172.8560  139.4240 C   0  0  0  0  0  0  0  0  0  0  0  0
  189.2330  174.0450  136.5460 C   0  0  0  0  0  1  0  0  0  0  0  0
  190.1080  173.1610  142.8340 C   0  0  1  0  0  3  0  0  0  0  0  0
  189.2210  173.4560  141.6920 C   0  0  0  0  0  0  0  0  0  0  0  0
  193.3750  175.0620  141.3680 C   0  0  0  0  0  2  0  0  0  0  0  0
  193.5680  173.7980  142.2210 C   0  0  0  0  0  2  0  0  0  0  0  0
  195.6090  175.1070  140.2420 C   0  0  0  0  0  0  0  0  0  0  0  0
  196.1410  176.1630  140.6740 O   0  0  0  0  0  1  0  0  0  0  0  0
  196.3970  173.9900  139.9940 O   0  0  0  0  0  0  0  0  0  0  0  0
  192.0880  174.5930  145.5870 C   0  0  0  0  0  3  0  0  0  0  0  0
  192.8740  174.6250  144.5030 C   0  0  0  0  0  0  0  0  0  0  0  0
  195.1800  174.8430  145.0360 O   0  0  0  0  0  1  0  0  0  0  0  0
  194.0990  175.4970  144.4420 C   0  0  0  0  0  2  0  0  0  0  0  0
  192.3360  175.4320  146.8020 C   0  0  0  0  0  2  0  0  0  0  0  0
  191.2270  175.2880  147.7310 N   0  0  0  0  0  2  0  0  0  0  0  0
  190.1010  176.0260  147.1790 C   0  0  0  0  0  2  0  0  0  0  0  0
  188.8240  175.2080  147.2940 C   0  0  0  0  0  2  0  0  0  0  0  0
  187.6980  175.8800  146.5250 C   0  0  0  0  0  2  0  0  0  0  0  0
  186.9030  176.7840  147.4510 C   0  0  0  0  0  2  0  0  0  0  0  0
  185.7470  176.7530  145.4180 C   0  0  0  0  0  2  0  0  0  0  0  0
  185.6400  179.1250  145.1100 C   0  0  0  0  0  2  0  0  0  0  0  0
  186.0680  178.7670  146.5180 C   0  0  0  0  0  2  0  0  0  0  0  0
  185.2970  177.8160  144.4440 C   0  0  0  0  0  2  0  0  0  0  0  0
  185.7710  177.3580  146.7410 N   0  0  0  0  0  0  0  0  0  0  0  0
  190.1410  171.7910  143.4780 C   0  0  2  0  0  3  0  0  0  0  0  0
  189.6900  171.8630  144.9300 C   0  0  0  0  0  1  0  0  0  0  0  0
  191.4030  170.3090  142.4140 C   0  0  0  0  0  1  0  0  0  0  0  0
  191.4330  171.2560  143.4390 O   0  0  0  0  0  0  0  0  0  0  0  0
  188.8340  174.7740  141.3940 O   0  0  0  0  0  0  0  0  0  0  0  0
  187.1830  176.5550  141.2970 C   0  0  0  0  0  2  0  0  0  0  0  0
  189.6550  177.2070  142.8900 C   0  0  1  0  0  3  0  0  0  0  0  0
  187.6930  177.9890  141.4830 C   0  0  0  0  0  2  0  0  0  0  0  0
  187.9040  175.5190  142.1760 C   0  0  2  0  0  3  0  0  0  0  0  0
  188.6270  176.1670  143.3570 C   0  0  0  0  0  2  0  0  0  0  0  0
  189.2090  178.0110  141.6570 C   0  0  0  0  0  2  0  0  0  0  0  0
  190.0240  178.1140  144.0160 C   0  0  0  0  0  0  0  0  0  0  0  0
  191.2170  178.8200  143.9670 O   0  0  0  0  0  0  0  0  0  0  0  0
  189.2720  178.2270  145.0210 O   0  0  0  0  0  1  0  0  0  0  0  0
  1 13  2  0  0  0  0
  2  8  1  0  0  0  0
  2  9  2  0  0  0  0
  3  5  2  0  0  0  0
  4 15  1  0  0  0  0
  4  7  1  0  0  0  0
  5 13  1  0  0  0  0
  5  9  1  0  0  0  0
  6 11  1  6  0  0  0
  6  3  1  0  0  0  0
  6  2  1  0  0  0  0
  7 23  1  1  0  0  0
  8 10  1  0  0  0  0
 10 19  1  1  0  0  0
 10 17  1  0  0  0  0
 12 16  2  0  0  0  0
 13 12  1  0  0  0  0
 14  3  1  0  0  0  0
 15 37  1  6  0  0  0
 16 15  1  0  0  0  0
 17 18  1  0  0  0  0
 18  7  1  0  0  0  0
 19 20  1  0  0  0  0
 21 19  2  0  0  0  0
 22 26  1  0  0  0  0
 23 22  2  0  0  0  0
 25 23  1  0  0  0  0
 25 24  1  0  0  0  0
 26 27  1  0  0  0  0
 28 29  1  0  0  0  0
 28 27  1  0  0  0  0
 30 29  1  0  0  0  0
 30 31  1  0  0  0  0
 32 36  1  0  0  0  0
 33 34  1  0  0  0  0
 34 36  1  0  0  0  0
 35 33  1  0  0  0  0
 35 32  1  0  0  0  0
 36 31  1  0  0  0  0
 37 38  1  1  0  0  0
 39 40  1  0  0  0  0
 40 37  1  0  0  0  0
 41 16  1  0  0  0  0
 42 44  1  0  0  0  0
 42 45  1  0  0  0  0
 43 46  1  0  0  0  0
 43 48  1  1  0  0  0
 44 47  1  0  0  0  0
 45 41  1  6  0  0  0
 45 46  1  0  0  0  0
 47 43  1  0  0  0  0
 48 50  1  0  0  0  0
 49 48  2  0  0  0  0
M  END
>  <MODEL>
1

>  <REMARK>
 VINA RESULT:      -6.5      0.000      0.000
  Name = 
  15 active torsions:
  status: ('A' for Active; 'I' for Inactive)
    1  A    between atoms: N_1  and  C_5
    2  A    between atoms: N_1  and  C_15
    3  A    between atoms: C_2  and  C_25
    4  A    between atoms: C_5  and  C_26
    5  A    between atoms: C_7  and  C_30
    6  A    between atoms: C_7  and  C_48
    7  A    between atoms: C_8  and  C_17
    8  A    between atoms: C_15  and  C_48
    9  A    between atoms: C_19  and  C_47
   10  A    between atoms: C_22  and  O_46
   11  A    between atoms: C_29  and  C_39
   12  A    between atoms: C_29  and  O_45
   13  A    between atoms: C_30  and  N_44
   14  A    between atoms: C_35  and  C_47
   15  A    between atoms: C_41  and  O_46
                            x       y       z     vdW  Elec       q    Type
                         _______ _______ _______ _____ _____    ______ ____

>  <TORSDO>
F 15

$$$$
=
 OpenBabel11042419473D

 50 53  0  0  1  0  0  0  0  0999 V2000
  190.7960  170.1590  139.6010 O   0  0  0  0  0  0  0  0  0  0  0  0
  194.0190  173.4090  139.3540 C   0  0  0  0  0  0  0  0  0  0  0  0
  192.2550  172.4100  138.2920 C   0  0  0  0  0  0  0  0  0  0  0  0
  193.1250  173.0340  143.5140 C   0  0  0  0  0  2  0  0  0  0  0  0
  192.3970  171.9460  139.5270 C   0  0  0  0  0  0  0  0  0  0  0  0
  193.3220  173.4260  138.0270 C   0  0  2  0  0  3  0  0  0  0  0  0
  194.4650  173.4730  144.0060 C   0  0  1  0  0  3  0  0  0  0  0  0
  195.2980  174.1240  139.6670 C   0  0  0  0  0  2  0  0  0  0  0  0
  193.5000  172.5630  140.1750 N   0  0  0  0  0  0  0  0  0  0  0  0
  195.1160  175.3270  140.5990 C   0  0  1  0  0  3  0  0  0  0  0  0
  194.1820  172.9540  137.0350 O   0  0  0  0  0  1  0  0  0  0  0  0
  191.8860  170.6910  141.5980 N   0  0  0  0  0  0  0  0  0  0  0  0
  191.6090  170.8990  140.2140 C   0  0  0  0  0  0  0  0  0  0  0  0
  191.2080  171.9960  137.3140 C   0  0  0  0  0  1  0  0  0  0  0  0
  192.5750  171.8180  143.5730 C   0  0  1  0  0  3  0  0  0  0  0  0
  191.6230  171.6200  142.4630 C   0  0  0  0  0  0  0  0  0  0  0  0
  194.4880  175.0100  141.9620 C   0  0  0  0  0  2  0  0  0  0  0  0
  195.2870  174.0160  142.8210 C   0  0  0  0  0  2  0  0  0  0  0  0
  196.3940  176.0860  140.7500 C   0  0  0  0  0  0  0  0  0  0  0  0
  196.4030  177.1710  141.3890 O   0  0  0  0  0  1  0  0  0  0  0  0
  197.5780  175.5890  140.2200 O   0  0  0  0  0  0  0  0  0  0  0  0
  193.1170  174.8790  145.4690 C   0  0  0  0  0  3  0  0  0  0  0  0
  194.3450  174.4750  145.1180 C   0  0  0  0  0  0  0  0  0  0  0  0
  196.4230  173.8630  146.0960 O   0  0  0  0  0  1  0  0  0  0  0  0
  195.5700  174.9420  145.8580 C   0  0  0  0  0  2  0  0  0  0  0  0
  192.8610  175.8410  146.5860 C   0  0  0  0  0  2  0  0  0  0  0  0
  191.9490  175.2430  147.5470 N   0  0  0  0  0  2  0  0  0  0  0  0
  190.6640  175.9080  147.3980 C   0  0  0  0  0  2  0  0  0  0  0  0
  189.5750  174.8930  147.0860 C   0  0  0  0  0  2  0  0  0  0  0  0
  188.2760  175.6030  146.7420 C   0  0  0  0  0  2  0  0  0  0  0  0
  188.4010  177.0880  147.0380 C   0  0  0  0  0  2  0  0  0  0  0  0
  186.5680  178.4070  147.6430 C   0  0  0  0  0  2  0  0  0  0  0  0
  184.9200  177.2080  146.3880 C   0  0  0  0  0  2  0  0  0  0  0  0
  186.3250  176.8080  145.9850 C   0  0  0  0  0  2  0  0  0  0  0  0
  185.0850  178.3460  147.3630 C   0  0  0  0  0  2  0  0  0  0  0  0
  187.2500  177.8030  146.5100 N   0  0  0  0  0  0  0  0  0  0  0  0
  193.2790  170.6500  144.2320 C   0  0  2  0  0  3  0  0  0  0  0  0
  194.4770  170.2020  143.4070 C   0  0  0  0  0  1  0  0  0  0  0  0
  193.2110  168.4330  144.2420 C   0  0  0  0  0  1  0  0  0  0  0  0
  192.4060  169.5660  144.3760 O   0  0  0  0  0  0  0  0  0  0  0  0
  190.6430  172.5830  142.1640 O   0  0  0  0  0  0  0  0  0  0  0  0
  188.2450  172.8640  142.4370 C   0  0  0  0  0  2  0  0  0  0  0  0
  189.8240  175.4290  142.4080 C   0  0  1  0  0  3  0  0  0  0  0  0
  187.6440  174.2000  141.9860 C   0  0  0  0  0  2  0  0  0  0  0  0
  189.6360  172.9930  143.0830 C   0  0  2  0  0  3  0  0  0  0  0  0
  189.9210  174.4170  143.5600 C   0  0  0  0  0  2  0  0  0  0  0  0
  188.7170  175.1080  141.3900 C   0  0  0  0  0  2  0  0  0  0  0  0
  189.6740  176.8130  142.9460 C   0  0  0  0  0  0  0  0  0  0  0  0
  189.0220  177.7760  142.1890 O   0  0  0  0  0  0  0  0  0  0  0  0
  190.1520  177.1200  144.0710 O   0  0  0  0  0  1  0  0  0  0  0  0
  1 13  2  0  0  0  0
  2  8  1  0  0  0  0
  2  9  2  0  0  0  0
  3  5  2  0  0  0  0
  4 15  1  0  0  0  0
  4  7  1  0  0  0  0
  5  9  1  0  0  0  0
  5 13  1  0  0  0  0
  6 11  1  6  0  0  0
  6  3  1  0  0  0  0
  6  2  1  0  0  0  0
  7 23  1  1  0  0  0
  8 10  1  0  0  0  0
 10 19  1  1  0  0  0
 10 17  1  0  0  0  0
 12 16  2  0  0  0  0
 13 12  1  0  0  0  0
 14  3  1  0  0  0  0
 15 37  1  6  0  0  0
 16 15  1  0  0  0  0
 17 18  1  0  0  0  0
 18  7  1  0  0  0  0
 19 20  1  0  0  0  0
 21 19  2  0  0  0  0
 22 26  1  0  0  0  0
 23 22  2  0  0  0  0
 23 25  1  0  0  0  0
 25 24  1  0  0  0  0
 26 27  1  0  0  0  0
 28 27  1  0  0  0  0
 29 28  1  0  0  0  0
 30 31  1  0  0  0  0
 30 29  1  0  0  0  0
 33 35  1  0  0  0  0
 34 33  1  0  0  0  0
 34 36  1  0  0  0  0
 35 32  1  0  0  0  0
 36 31  1  0  0  0  0
 36 32  1  0  0  0  0
 37 38  1  6  0  0  0
 37 40  1  0  0  0  0
 39 40  1  0  0  0  0
 41 16  1  0  0  0  0
 42 45  1  0  0  0  0
 43 48  1  1  0  0  0
 43 46  1  0  0  0  0
 44 42  1  0  0  0  0
 45 41  1  6  0  0  0
 45 46  1  0  0  0  0
 47 44  1  0  0  0  0
 47 43  1  0  0  0  0
 48 50  1  0  0  0  0
 49 48  2  0  0  0  0
M  END
>  <MODEL>
2

>  <REMARK>
 VINA RESULT:      -6.5      1.808      2.470
  Name = 
  15 active torsions:
  status: ('A' for Active; 'I' for Inactive)
    1  A    between atoms: N_1  and  C_5
    2  A    between atoms: N_1  and  C_15
    3  A    between atoms: C_2  and  C_25
    4  A    between atoms: C_5  and  C_26
    5  A    between atoms: C_7  and  C_30
    6  A    between atoms: C_7  and  C_48
    7  A    between atoms: C_8  and  C_17
    8  A    between atoms: C_15  and  C_48
    9  A    between atoms: C_19  and  C_47
   10  A    between atoms: C_22  and  O_46
   11  A    between atoms: C_29  and  C_39
   12  A    between atoms: C_29  and  O_45
   13  A    between atoms: C_30  and  N_44
   14  A    between atoms: C_35  and  C_47
   15  A    between atoms: C_41  and  O_46
                            x       y       z     vdW  Elec       q    Type
                         _______ _______ _______ _____ _____    ______ ____

>  <TORSDO>
F 15

$$$$
=
 OpenBabel11042419473D

 50 53  0  0  1  0  0  0  0  0999 V2000
  196.9270  173.9940  145.0520 O   0  0  0  0  0  0  0  0  0  0  0  0
  194.5060  170.4470  143.4450 C   0  0  0  0  0  0  0  0  0  0  0  0
  195.8570  171.2080  145.1300 C   0  0  0  0  0  0  0  0  0  0  0  0
  192.4490  173.9260  142.0600 C   0  0  0  0  0  2  0  0  0  0  0  0
  195.5540  172.1810  144.2800 C   0  0  0  0  0  0  0  0  0  0  0  0
  195.2080  169.9390  144.6690 C   0  0  2  0  0  3  0  0  0  0  0  0
  191.8640  173.2910  140.8420 C   0  0  1  0  0  3  0  0  0  0  0  0
  193.7910  169.5940  142.4430 C   0  0  0  0  0  2  0  0  0  0  0  0
  194.7250  171.6990  143.2330 N   0  0  0  0  0  0  0  0  0  0  0  0
  192.2660  169.7420  142.4890 C   0  0  1  0  0  3  0  0  0  0  0  0
  196.1890  169.0180  144.3030 O   0  0  0  0  0  1  0  0  0  0  0  0
  195.4120  174.4650  143.3370 N   0  0  0  0  0  0  0  0  0  0  0  0
  196.0040  173.5900  144.2960 C   0  0  0  0  0  0  0  0  0  0  0  0
  196.7060  171.3380  146.3490 C   0  0  0  0  0  1  0  0  0  0  0  0
  193.4000  174.8600  142.1360 C   0  0  1  0  0  3  0  0  0  0  0  0
  194.1480  174.7450  143.4030 C   0  0  0  0  0  0  0  0  0  0  0  0
  191.7400  171.1630  142.2560 C   0  0  0  0  0  2  0  0  0  0  0  0
  192.1120  171.7710  140.8930 C   0  0  0  0  0  2  0  0  0  0  0  0
  191.6050  168.7590  141.5780 C   0  0  0  0  0  0  0  0  0  0  0  0
  190.4590  168.3210  141.8600 O   0  0  0  0  0  1  0  0  0  0  0  0
  192.2300  168.3490  140.4070 O   0  0  0  0  0  0  0  0  0  0  0  0
  189.8020  174.2650  141.6980 C   0  0  0  0  0  3  0  0  0  0  0  0
  190.4070  173.6220  140.6910 C   0  0  0  0  0  0  0  0  0  0  0  0
  190.4620  173.6810  138.3150 O   0  0  0  0  0  1  0  0  0  0  0  0
  189.6830  173.3030  139.4100 C   0  0  0  0  0  2  0  0  0  0  0  0
  188.3680  174.6880  141.6540 C   0  0  0  0  0  2  0  0  0  0  0  0
  188.2760  176.1290  141.8200 N   0  0  0  0  0  2  0  0  0  0  0  0
  187.0430  176.4050  142.5400 C   0  0  0  0  0  2  0  0  0  0  0  0
  186.0930  177.2170  141.6730 C   0  0  0  0  0  2  0  0  0  0  0  0
  185.2200  178.1080  142.5410 C   0  0  0  0  0  2  0  0  0  0  0  0
  186.0750  179.1450  143.2490 C   0  0  0  0  0  2  0  0  0  0  0  0
  186.1450  179.1300  145.5860 C   0  0  0  0  0  2  0  0  0  0  0  0
  183.8500  178.5490  145.9410 C   0  0  0  0  0  2  0  0  0  0  0  0
  184.1040  178.9570  144.5040 C   0  0  0  0  0  2  0  0  0  0  0  0
  185.1470  178.7980  146.6690 C   0  0  0  0  0  2  0  0  0  0  0  0
  185.3960  179.6260  144.4420 N   0  0  0  0  0  0  0  0  0  0  0  0
  194.0250  175.4710  140.9000 C   0  0  2  0  0  3  0  0  0  0  0  0
  194.9050  174.4590  140.1800 C   0  0  0  0  0  1  0  0  0  0  0  0
  196.0860  176.2810  140.7640 C   0  0  0  0  0  1  0  0  0  0  0  0
  194.8070  176.5800  141.2380 O   0  0  0  0  0  0  0  0  0  0  0  0
  193.4790  174.6310  144.6350 O   0  0  0  0  0  0  0  0  0  0  0  0
  192.7650  175.1950  146.8880 C   0  0  0  0  0  2  0  0  0  0  0  0
  191.0120  176.2860  144.6950 C   0  0  1  0  0  3  0  0  0  0  0  0
  191.2760  175.4970  147.0920 C   0  0  0  0  0  2  0  0  0  0  0  0
  193.3270  175.7110  145.5520 C   0  0  2  0  0  3  0  0  0  0  0  0
  192.4420  176.7920  144.9320 C   0  0  0  0  0  2  0  0  0  0  0  0
  190.5020  175.3310  145.7870 C   0  0  0  0  0  2  0  0  0  0  0  0
  190.0790  177.4360  144.5100 C   0  0  0  0  0  0  0  0  0  0  0  0
  188.9520  177.5420  145.3120 O   0  0  0  0  0  1  0  0  0  0  0  0
  190.2940  178.3000  143.6170 O   0  0  0  0  0  0  0  0  0  0  0  0
  2  6  1  0  0  0  0
  3 14  1  0  0  0  0
  4 15  1  0  0  0  0
  5 13  1  0  0  0  0
  5  3  2  0  0  0  0
  6 11  1  6  0  0  0
  6  3  1  0  0  0  0
  7 23  1  1  0  0  0
  7 18  1  0  0  0  0
  7  4  1  0  0  0  0
  8 10  1  0  0  0  0
  8  2  1  0  0  0  0
  9  2  2  0  0  0  0
  9  5  1  0  0  0  0
 10 19  1  6  0  0  0
 12 16  2  0  0  0  0
 12 13  1  0  0  0  0
 13  1  2  0  0  0  0
 15 37  1  6  0  0  0
 15 16  1  0  0  0  0
 16 41  1  0  0  0  0
 17 10  1  0  0  0  0
 18 17  1  0  0  0  0
 19 20  1  0  0  0  0
 21 19  2  0  0  0  0
 23 22  2  0  0  0  0
 24 25  1  0  0  0  0
 25 23  1  0  0  0  0
 26 22  1  0  0  0  0
 26 27  1  0  0  0  0
 27 28  1  0  0  0  0
 29 28  1  0  0  0  0
 29 30  1  0  0  0  0
 30 31  1  0  0  0  0
 31 36  1  0  0  0  0
 32 35  1  0  0  0  0
 33 35  1  0  0  0  0
 34 33  1  0  0  0  0
 36 34  1  0  0  0  0
 36 32  1  0  0  0  0
 37 38  1  1  0  0  0
 37 40  1  0  0  0  0
 39 40  1  0  0  0  0
 42 44  1  0  0  0  0
 43 48  1  1  0  0  0
 43 46  1  0  0  0  0
 43 47  1  0  0  0  0
 45 41  1  6  0  0  0
 45 42  1  0  0  0  0
 46 45  1  0  0  0  0
 47 44  1  0  0  0  0
 48 49  1  0  0  0  0
 50 48  2  0  0  0  0
M  END
>  <MODEL>
3

>  <REMARK>
 VINA RESULT:      -6.3      2.558      6.348
  Name = 
  15 active torsions:
  status: ('A' for Active; 'I' for Inactive)
    1  A    between atoms: N_1  and  C_5
    2  A    between atoms: N_1  and  C_15
    3  A    between atoms: C_2  and  C_25
    4  A    between atoms: C_5  and  C_26
    5  A    between atoms: C_7  and  C_30
    6  A    between atoms: C_7  and  C_48
    7  A    between atoms: C_8  and  C_17
    8  A    between atoms: C_15  and  C_48
    9  A    between atoms: C_19  and  C_47
   10  A    between atoms: C_22  and  O_46
   11  A    between atoms: C_29  and  C_39
   12  A    between atoms: C_29  and  O_45
   13  A    between atoms: C_30  and  N_44
   14  A    between atoms: C_35  and  C_47
   15  A    between atoms: C_41  and  O_46
                            x       y       z     vdW  Elec       q    Type
                         _______ _______ _______ _____ _____    ______ ____

>  <TORSDO>
F 15

$$$$
=
 OpenBabel11042419473D

 50 53  0  0  1  0  0  0  0  0999 V2000
  188.2800  172.8720  140.2240 O   0  0  0  0  0  0  0  0  0  0  0  0
  192.1650  173.7450  137.9520 C   0  0  0  0  0  0  0  0  0  0  0  0
  189.8780  173.7910  137.8760 C   0  0  0  0  0  0  0  0  0  0  0  0
  193.1190  174.3490  142.0720 C   0  0  0  0  0  2  0  0  0  0  0  0
  190.3120  173.4540  139.0840 C   0  0  0  0  0  0  0  0  0  0  0  0
  191.0570  174.0120  136.9790 C   0  0  2  0  0  3  0  0  0  0  0  0
  194.5700  174.0190  141.9500 C   0  0  1  0  0  3  0  0  0  0  0  0
  193.6190  173.6570  137.6020 C   0  0  0  0  0  2  0  0  0  0  0  0
  191.7310  173.4170  139.1200 N   0  0  0  0  0  0  0  0  0  0  0  0
  194.4440  174.8460  138.1080 C   0  0  1  0  0  3  0  0  0  0  0  0
  191.0670  173.0450  135.9730 O   0  0  0  0  0  1  0  0  0  0  0  0
  190.2400  172.9080  141.4970 N   0  0  0  0  0  0  0  0  0  0  0  0
  189.5190  173.0940  140.2800 C   0  0  0  0  0  0  0  0  0  0  0  0
  188.4530  173.9310  137.4620 C   0  0  0  0  0  1  0  0  0  0  0  0
  192.1570  173.6560  142.6860 C   0  0  1  0  0  3  0  0  0  0  0  0
  190.8460  173.9090  142.0550 C   0  0  0  0  0  0  0  0  0  0  0  0
  194.4080  175.0690  139.6240 C   0  0  0  0  0  2  0  0  0  0  0  0
  194.9380  173.8920  140.4600 C   0  0  0  0  0  2  0  0  0  0  0  0
  195.8480  174.7800  137.5990 C   0  0  0  0  0  0  0  0  0  0  0  0
  196.1090  174.0890  136.5800 O   0  0  0  0  0  0  0  0  0  0  0  0
  196.8610  175.4980  138.2220 O   0  0  0  0  0  1  0  0  0  0  0  0
  194.8810  175.7140  143.6710 C   0  0  0  0  0  3  0  0  0  0  0  0
  195.4280  175.0240  142.6620 C   0  0  0  0  0  0  0  0  0  0  0  0
  197.0460  176.3300  141.5110 O   0  0  0  0  0  1  0  0  0  0  0  0
  196.8780  175.1860  142.2920 C   0  0  0  0  0  2  0  0  0  0  0  0
  195.6400  176.7130  144.4860 C   0  0  0  0  0  2  0  0  0  0  0  0
  194.7810  177.2510  145.5270 N   0  0  0  0  0  2  0  0  0  0  0  0
  194.2050  176.1220  146.2410 C   0  0  0  0  0  2  0  0  0  0  0  0
  192.6870  176.1700  146.1730 C   0  0  0  0  0  2  0  0  0  0  0  0
  192.0840  175.2940  147.2590 C   0  0  0  0  0  2  0  0  0  0  0  0
  190.8790  175.9850  147.8760 C   0  0  0  0  0  2  0  0  0  0  0  0
  189.3700  177.5390  146.9960 C   0  0  0  0  0  2  0  0  0  0  0  0
  187.4370  176.1270  147.0490 C   0  0  0  0  0  2  0  0  0  0  0  0
  188.7100  175.3350  147.2700 C   0  0  0  0  0  2  0  0  0  0  0  0
  187.8830  177.5320  146.7320 C   0  0  0  0  0  2  0  0  0  0  0  0
  189.8380  176.1680  146.8770 N   0  0  0  0  0  0  0  0  0  0  0  0
  192.4440  172.3670  143.4270 C   0  0  2  0  0  3  0  0  0  0  0  0
  193.0990  172.6490  144.7720 C   0  0  0  0  0  1  0  0  0  0  0  0
  193.6240  170.4920  143.5330 C   0  0  0  0  0  1  0  0  0  0  0  0
  193.2950  171.5460  142.6800 O   0  0  0  0  0  0  0  0  0  0  0  0
  190.4070  175.2170  141.7880 O   0  0  0  0  0  0  0  0  0  0  0  0
  189.0100  175.2920  143.7750 C   0  0  0  0  0  2  0  0  0  0  0  0
  187.8590  176.6870  141.3650 C   0  0  1  0  0  3  0  0  0  0  0  0
  187.5020  175.4630  143.5600 C   0  0  0  0  0  2  0  0  0  0  0  0
  189.8750  176.0880  142.7820 C   0  0  2  0  0  3  0  0  0  0  0  0
  189.0920  177.2170  142.1120 C   0  0  0  0  0  2  0  0  0  0  0  0
  187.1640  175.5110  142.0720 C   0  0  0  0  0  2  0  0  0  0  0  0
  186.8970  177.7960  141.0990 C   0  0  0  0  0  0  0  0  0  0  0  0
  186.2740  177.8820  139.8620 O   0  0  0  0  0  0  0  0  0  0  0  0
  186.6630  178.6680  141.9790 O   0  0  0  0  0  1  0  0  0  0  0  0
  1 13  2  0  0  0  0
  2  9  2  0  0  0  0
  3  5  2  0  0  0  0
  4 15  1  0  0  0  0
  5  9  1  0  0  0  0
  5 13  1  0  0  0  0
  6 11  1  6  0  0  0
  6  3  1  0  0  0  0
  6  2  1  0  0  0  0
  7  4  1  0  0  0  0
  7 23  1  6  0  0  0
  8  2  1  0  0  0  0
  8 10  1  0  0  0  0
 10 19  1  1  0  0  0
 10 17  1  0  0  0  0
 12 16  2  0  0  0  0
 13 12  1  0  0  0  0
 14  3  1  0  0  0  0
 15 37  1  6  0  0  0
 16 15  1  0  0  0  0
 17 18  1  0  0  0  0
 18  7  1  0  0  0  0
 19 21  1  0  0  0  0
 20 19  2  0  0  0  0
 22 26  1  0  0  0  0
 23 22  2  0  0  0  0
 24 25  1  0  0  0  0
 25 23  1  0  0  0  0
 26 27  1  0  0  0  0
 27 28  1  0  0  0  0
 29 28  1  0  0  0  0
 29 30  1  0  0  0  0
 30 31  1  0  0  0  0
 33 34  1  0  0  0  0
 35 32  1  0  0  0  0
 35 33  1  0  0  0  0
 36 32  1  0  0  0  0
 36 34  1  0  0  0  0
 36 31  1  0  0  0  0
 37 38  1  1  0  0  0
 40 37  1  0  0  0  0
 40 39  1  0  0  0  0
 41 16  1  0  0  0  0
 43 48  1  1  0  0  0
 43 47  1  0  0  0  0
 43 46  1  0  0  0  0
 44 42  1  0  0  0  0
 45 41  1  6  0  0  0
 45 42  1  0  0  0  0
 46 45  1  0  0  0  0
 47 44  1  0  0  0  0
 48 50  1  0  0  0  0
 49 48  2  0  0  0  0
M  END
>  <MODEL>
4

>  <REMARK>
 VINA RESULT:      -6.3      1.925      3.090
  Name = 
  15 active torsions:
  status: ('A' for Active; 'I' for Inactive)
    1  A    between atoms: N_1  and  C_5
    2  A    between atoms: N_1  and  C_15
    3  A    between atoms: C_2  and  C_25
    4  A    between atoms: C_5  and  C_26
    5  A    between atoms: C_7  and  C_30
    6  A    between atoms: C_7  and  C_48
    7  A    between atoms: C_8  and  C_17
    8  A    between atoms: C_15  and  C_48
    9  A    between atoms: C_19  and  C_47
   10  A    between atoms: C_22  and  O_46
   11  A    between atoms: C_29  and  C_39
   12  A    between atoms: C_29  and  O_45
   13  A    between atoms: C_30  and  N_44
   14  A    between atoms: C_35  and  C_47
   15  A    between atoms: C_41  and  O_46
                            x       y       z     vdW  Elec       q    Type
                         _______ _______ _______ _____ _____    ______ ____

>  <TORSDO>
F 15

$$$$
=
 OpenBabel11042419473D

 50 53  0  0  1  0  0  0  0  0999 V2000
  196.2050  172.1280  142.0680 O   0  0  0  0  0  0  0  0  0  0  0  0
  193.6570  175.1220  144.4280 C   0  0  0  0  0  0  0  0  0  0  0  0
  195.7710  174.5440  143.7660 C   0  0  0  0  0  0  0  0  0  0  0  0
  191.1280  173.7400  141.2740 C   0  0  0  0  0  2  0  0  0  0  0  0
  194.8600  173.7690  143.1920 C   0  0  0  0  0  0  0  0  0  0  0  0
  195.0810  175.5250  144.6640 C   0  0  2  0  0  3  0  0  0  0  0  0
  189.8390  173.9510  141.9990 C   0  0  1  0  0  3  0  0  0  0  0  0
  192.4740  175.6480  145.1810 C   0  0  0  0  0  2  0  0  0  0  0  0
  193.5520  174.1260  143.6160 N   0  0  0  0  0  0  0  0  0  0  0  0
  191.5830  176.5780  144.3500 C   0  0  1  0  0  3  0  0  0  0  0  0
  195.4310  175.2720  145.9900 O   0  0  0  0  0  1  0  0  0  0  0  0
  193.9010  172.0560  141.6860 N   0  0  0  0  0  0  0  0  0  0  0  0
  195.0680  172.6320  142.2690 C   0  0  0  0  0  0  0  0  0  0  0  0
  197.2460  174.4650  143.5630 C   0  0  0  0  0  1  0  0  0  0  0  0
  191.7100  172.5880  140.9340 C   0  0  1  0  0  3  0  0  0  0  0  0
  193.1760  172.7450  140.8610 C   0  0  0  0  0  0  0  0  0  0  0  0
  191.0040  175.9600  143.0720 C   0  0  0  0  0  2  0  0  0  0  0  0
  190.1110  174.7290  143.3010 C   0  0  0  0  0  2  0  0  0  0  0  0
  190.5120  177.1900  145.1940 C   0  0  0  0  0  0  0  0  0  0  0  0
  189.6940  177.9950  144.6770 O   0  0  0  0  0  0  0  0  0  0  0  0
  190.3920  176.8520  146.5370 O   0  0  0  0  0  1  0  0  0  0  0  0
  188.2010  175.7150  141.6270 C   0  0  0  0  0  3  0  0  0  0  0  0
  188.8220  174.6370  141.1320 C   0  0  0  0  0  0  0  0  0  0  0  0
  188.0820  172.8570  139.7420 O   0  0  0  0  0  1  0  0  0  0  0  0
  188.5770  174.1620  139.7250 C   0  0  0  0  0  2  0  0  0  0  0  0
  187.1990  176.5110  140.8500 C   0  0  0  0  0  2  0  0  0  0  0  0
  187.5520  177.9200  140.8950 N   0  0  0  0  0  2  0  0  0  0  0  0
  187.1970  178.4140  142.2170 C   0  0  0  0  0  2  0  0  0  0  0  0
  185.6930  178.3350  142.4260 C   0  0  0  0  0  2  0  0  0  0  0  0
  185.3720  178.2570  143.9090 C   0  0  0  0  0  2  0  0  0  0  0  0
  185.8400  176.9270  144.4750 C   0  0  0  0  0  2  0  0  0  0  0  0
  184.5470  177.8180  146.2070 C   0  0  0  0  0  2  0  0  0  0  0  0
  186.3610  178.3600  147.6730 C   0  0  0  0  0  2  0  0  0  0  0  0
  186.8120  177.4600  146.5410 C   0  0  0  0  0  2  0  0  0  0  0  0
  184.8640  178.4740  147.5300 C   0  0  0  0  0  2  0  0  0  0  0  0
  185.6280  176.8900  145.9130 N   0  0  0  0  0  0  0  0  0  0  0  0
  191.0700  171.2470  141.2260 C   0  0  2  0  0  3  0  0  0  0  0  0
  191.3380  170.8190  142.6620 C   0  0  0  0  0  1  0  0  0  0  0  0
  190.6330  170.1690  139.3360 C   0  0  0  0  0  1  0  0  0  0  0  0
  191.5710  170.2630  140.3660 O   0  0  0  0  0  0  0  0  0  0  0  0
  193.7600  173.8120  140.1560 O   0  0  0  0  0  0  0  0  0  0  0  0
  194.7850  175.0030  138.3020 C   0  0  0  0  0  2  0  0  0  0  0  0
  192.5300  173.1600  137.5300 C   0  0  1  0  0  3  0  0  0  0  0  0
  193.9220  175.2300  137.0570 C   0  0  0  0  0  2  0  0  0  0  0  0
  194.5510  173.6430  138.9830 C   0  0  2  0  0  3  0  0  0  0  0  0
  193.8780  172.6380  138.0480 C   0  0  0  0  0  2  0  0  0  0  0  0
  192.5140  174.6740  137.2590 C   0  0  0  0  0  2  0  0  0  0  0  0
  192.1080  172.3950  136.3210 C   0  0  0  0  0  0  0  0  0  0  0  0
  192.8700  171.3190  135.8890 O   0  0  0  0  0  1  0  0  0  0  0  0
  191.0780  172.7300  135.6770 O   0  0  0  0  0  0  0  0  0  0  0  0
  1 13  2  0  0  0  0
  2  6  1  0  0  0  0
  2  8  1  0  0  0  0
  3  6  1  0  0  0  0
  4  7  1  0  0  0  0
  5  9  1  0  0  0  0
  5  3  2  0  0  0  0
  6 11  1  1  0  0  0
  7 23  1  6  0  0  0
  7 18  1  0  0  0  0
  9  2  2  0  0  0  0
 10  8  1  0  0  0  0
 10 19  1  1  0  0  0
 12 13  1  0  0  0  0
 13  5  1  0  0  0  0
 14  3  1  0  0  0  0
 15 37  1  1  0  0  0
 15  4  1  0  0  0  0
 16 15  1  0  0  0  0
 16 12  2  0  0  0  0
 17 18  1  0  0  0  0
 17 10  1  0  0  0  0
 19 21  1  0  0  0  0
 20 19  2  0  0  0  0
 23 22  2  0  0  0  0
 25 24  1  0  0  0  0
 25 23  1  0  0  0  0
 26 27  1  0  0  0  0
 26 22  1  0  0  0  0
 27 28  1  0  0  0  0
 28 29  1  0  0  0  0
 29 30  1  0  0  0  0
 30 31  1  0  0  0  0
 31 36  1  0  0  0  0
 32 35  1  0  0  0  0
 34 33  1  0  0  0  0
 35 33  1  0  0  0  0
 36 32  1  0  0  0  0
 36 34  1  0  0  0  0
 37 38  1  1  0  0  0
 39 40  1  0  0  0  0
 40 37  1  0  0  0  0
 41 16  1  0  0  0  0
 42 45  1  0  0  0  0
 43 48  1  6  0  0  0
 43 46  1  0  0  0  0
 44 47  1  0  0  0  0
 44 42  1  0  0  0  0
 45 41  1  1  0  0  0
 46 45  1  0  0  0  0
 47 43  1  0  0  0  0
 49 48  1  0  0  0  0
 50 48  2  0  0  0  0
M  END
>  <MODEL>
5

>  <REMARK>
 VINA RESULT:      -6.2      2.071      6.565
  Name = 
  15 active torsions:
  status: ('A' for Active; 'I' for Inactive)
    1  A    between atoms: N_1  and  C_5
    2  A    between atoms: N_1  and  C_15
    3  A    between atoms: C_2  and  C_25
    4  A    between atoms: C_5  and  C_26
    5  A    between atoms: C_7  and  C_30
    6  A    between atoms: C_7  and  C_48
    7  A    between atoms: C_8  and  C_17
    8  A    between atoms: C_15  and  C_48
    9  A    between atoms: C_19  and  C_47
   10  A    between atoms: C_22  and  O_46
   11  A    between atoms: C_29  and  C_39
   12  A    between atoms: C_29  and  O_45
   13  A    between atoms: C_30  and  N_44
   14  A    between atoms: C_35  and  C_47
   15  A    between atoms: C_41  and  O_46
                            x       y       z     vdW  Elec       q    Type
                         _______ _______ _______ _____ _____    ______ ____

>  <TORSDO>
F 15

$$$$
=
 OpenBabel11042419473D

 50 53  0  0  1  0  0  0  0  0999 V2000
  196.4990  177.1600  141.6340 O   0  0  0  0  0  0  0  0  0  0  0  0
  194.3940  173.9890  139.0780 C   0  0  0  0  0  0  0  0  0  0  0  0
  196.4060  174.8740  139.7180 C   0  0  0  0  0  0  0  0  0  0  0  0
  191.8330  174.5940  142.4430 C   0  0  0  0  0  2  0  0  0  0  0  0
  195.4050  175.4150  140.3990 C   0  0  0  0  0  0  0  0  0  0  0  0
  195.8530  173.8720  138.7510 C   0  0  2  0  0  3  0  0  0  0  0  0
  190.5650  174.2220  141.7470 C   0  0  1  0  0  3  0  0  0  0  0  0
  193.2840  173.3300  138.3190 C   0  0  0  0  0  2  0  0  0  0  0  0
  194.1600  174.8690  139.9890 N   0  0  0  0  0  0  0  0  0  0  0  0
  192.6160  172.1810  139.0840 C   0  0  1  0  0  3  0  0  0  0  0  0
  196.0820  174.3060  137.4450 O   0  0  0  0  0  1  0  0  0  0  0  0
  194.2410  176.7810  142.1030 N   0  0  0  0  0  0  0  0  0  0  0  0
  195.4590  176.4810  141.4240 C   0  0  0  0  0  0  0  0  0  0  0  0
  197.8530  175.1980  139.8750 C   0  0  0  0  0  1  0  0  0  0  0  0
  192.2220  175.7960  142.8770 C   0  0  1  0  0  3  0  0  0  0  0  0
  193.6940  175.8990  142.8810 C   0  0  0  0  0  0  0  0  0  0  0  0
  192.0060  172.5650  140.4370 C   0  0  0  0  0  2  0  0  0  0  0  0
  190.9000  173.6300  140.3650 C   0  0  0  0  0  2  0  0  0  0  0  0
  191.6260  171.4680  138.2210 C   0  0  0  0  0  0  0  0  0  0  0  0
  190.8670  170.6010  138.7290 O   0  0  0  0  0  1  0  0  0  0  0  0
  191.5130  171.7760  136.8710 O   0  0  0  0  0  0  0  0  0  0  0  0
  190.2300  172.8800  143.7520 C   0  0  0  0  0  3  0  0  0  0  0  0
  189.7330  173.2870  142.5770 C   0  0  0  0  0  0  0  0  0  0  0  0
  187.5370  174.0210  142.0410 O   0  0  0  0  0  1  0  0  0  0  0  0
  188.3520  172.8920  142.1250 C   0  0  0  0  0  2  0  0  0  0  0  0
  189.4840  171.9830  144.6890 C   0  0  0  0  0  2  0  0  0  0  0  0
  189.3130  172.6460  145.9710 N   0  0  0  0  0  2  0  0  0  0  0  0
  189.7780  174.0160  145.8150 C   0  0  0  0  0  2  0  0  0  0  0  0
  189.0830  174.9280  146.8130 C   0  0  0  0  0  2  0  0  0  0  0  0
  189.5250  176.3680  146.6070 C   0  0  0  0  0  2  0  0  0  0  0  0
  188.3590  177.3110  146.8530 C   0  0  0  0  0  2  0  0  0  0  0  0
  186.7830  177.6860  145.1670 C   0  0  0  0  0  2  0  0  0  0  0  0
  184.8320  177.3800  146.5200 C   0  0  0  0  0  2  0  0  0  0  0  0
  186.0820  176.9000  147.2300 C   0  0  0  0  0  2  0  0  0  0  0  0
  185.2750  177.7580  145.1290 C   0  0  0  0  0  2  0  0  0  0  0  0
  187.1480  176.7810  146.2450 N   0  0  0  0  0  0  0  0  0  0  0  0
  191.3410  177.0200  142.7440 C   0  0  2  0  0  3  0  0  0  0  0  0
  191.6040  178.0030  143.8760 C   0  0  0  0  0  1  0  0  0  0  0  0
  189.3000  177.8200  142.4030 C   0  0  0  0  0  1  0  0  0  0  0  0
  189.9890  176.6620  142.7700 O   0  0  0  0  0  0  0  0  0  0  0  0
  194.4930  174.8940  143.4530 O   0  0  0  0  0  0  0  0  0  0  0  0
  195.7560  174.8870  145.5290 C   0  0  0  0  0  2  0  0  0  0  0  0
  195.2130  172.1600  144.3690 C   0  0  1  0  0  3  0  0  0  0  0  0
  196.6680  173.6830  145.7860 C   0  0  0  0  0  2  0  0  0  0  0  0
  194.4340  174.5290  144.8290 C   0  0  2  0  0  3  0  0  0  0  0  0
  194.0990  173.0420  144.9530 C   0  0  0  0  0  2  0  0  0  0  0  0
  196.6300  172.7080  144.6110 C   0  0  0  0  0  2  0  0  0  0  0  0
  195.0860  170.7620  144.8740 C   0  0  0  0  0  0  0  0  0  0  0  0
  195.4070  169.7000  144.0410 O   0  0  0  0  0  0  0  0  0  0  0  0
  194.6690  170.5370  146.0420 O   0  0  0  0  0  1  0  0  0  0  0  0
  2  9  2  0  0  0  0
  3 14  1  0  0  0  0
  3  5  2  0  0  0  0
  4 15  1  0  0  0  0
  5 13  1  0  0  0  0
  6 11  1  6  0  0  0
  6  2  1  0  0  0  0
  6  3  1  0  0  0  0
  7  4  1  0  0  0  0
  7 23  1  1  0  0  0
  8  2  1  0  0  0  0
  8 10  1  0  0  0  0
  9  5  1  0  0  0  0
 10 19  1  6  0  0  0
 10 17  1  0  0  0  0
 12 16  2  0  0  0  0
 13  1  2  0  0  0  0
 13 12  1  0  0  0  0
 15 37  1  6  0  0  0
 15 16  1  0  0  0  0
 16 41  1  0  0  0  0
 18 17  1  0  0  0  0
 18  7  1  0  0  0  0
 19 20  1  0  0  0  0
 21 19  2  0  0  0  0
 22 26  1  0  0  0  0
 23 22  2  0  0  0  0
 24 25  1  0  0  0  0
 25 23  1  0  0  0  0
 26 27  1  0  0  0  0
 28 27  1  0  0  0  0
 28 29  1  0  0  0  0
 30 29  1  0  0  0  0
 30 31  1  0  0  0  0
 32 36  1  0  0  0  0
 33 34  1  0  0  0  0
 35 32  1  0  0  0  0
 35 33  1  0  0  0  0
 36 31  1  0  0  0  0
 36 34  1  0  0  0  0
 37 40  1  0  0  0  0
 37 38  1  1  0  0  0
 39 40  1  0  0  0  0
 42 44  1  0  0  0  0
 43 47  1  0  0  0  0
 43 48  1  1  0  0  0
 43 46  1  0  0  0  0
 45 41  1  6  0  0  0
 45 46  1  0  0  0  0
 45 42  1  0  0  0  0
 47 44  1  0  0  0  0
 48 50  1  0  0  0  0
 49 48  2  0  0  0  0
M  END
>  <MODEL>
6

>  <REMARK>
 VINA RESULT:      -6.1      2.253      5.942
  Name = 
  15 active torsions:
  status: ('A' for Active; 'I' for Inactive)
    1  A    between atoms: N_1  and  C_5
    2  A    between atoms: N_1  and  C_15
    3  A    between atoms: C_2  and  C_25
    4  A    between atoms: C_5  and  C_26
    5  A    between atoms: C_7  and  C_30
    6  A    between atoms: C_7  and  C_48
    7  A    between atoms: C_8  and  C_17
    8  A    between atoms: C_15  and  C_48
    9  A    between atoms: C_19  and  C_47
   10  A    between atoms: C_22  and  O_46
   11  A    between atoms: C_29  and  C_39
   12  A    between atoms: C_29  and  O_45
   13  A    between atoms: C_30  and  N_44
   14  A    between atoms: C_35  and  C_47
   15  A    between atoms: C_41  and  O_46
                            x       y       z     vdW  Elec       q    Type
                         _______ _______ _______ _____ _____    ______ ____

>  <TORSDO>
F 15

$$$$
=
 OpenBabel11042419473D

 50 53  0  0  1  0  0  0  0  0999 V2000
  190.5870  168.6690  141.2470 O   0  0  0  0  0  0  0  0  0  0  0  0
  193.4420  171.8260  139.5440 C   0  0  0  0  0  0  0  0  0  0  0  0
  191.5170  170.6360  139.2030 C   0  0  0  0  0  0  0  0  0  0  0  0
  193.7110  172.2450  143.7870 C   0  0  0  0  0  2  0  0  0  0  0  0
  192.0080  170.4160  140.4160 C   0  0  0  0  0  0  0  0  0  0  0  0
  192.4170  171.5880  138.4770 C   0  0  2  0  0  3  0  0  0  0  0  0
  195.1070  172.7760  143.8070 C   0  0  1  0  0  3  0  0  0  0  0  0
  194.7160  172.5920  139.3620 C   0  0  0  0  0  2  0  0  0  0  0  0
  193.2080  171.1500  140.6160 N   0  0  0  0  0  0  0  0  0  0  0  0
  194.7230  173.9500  140.0730 C   0  0  1  0  0  3  0  0  0  0  0  0
  193.0060  170.9380  137.3920 O   0  0  0  0  0  1  0  0  0  0  0  0
  192.1390  169.5760  142.7400 N   0  0  0  0  0  0  0  0  0  0  0  0
  191.4920  169.5160  141.4700 C   0  0  0  0  0  0  0  0  0  0  0  0
  190.2720  170.0400  138.6390 C   0  0  0  0  0  1  0  0  0  0  0  0
  193.2660  171.0610  144.2130 C   0  0  1  0  0  3  0  0  0  0  0  0
  192.0650  170.6520  143.4590 C   0  0  0  0  0  0  0  0  0  0  0  0
  194.4990  173.8950  141.5890 C   0  0  0  0  0  2  0  0  0  0  0  0
  195.5520  173.0870  142.3650 C   0  0  0  0  0  2  0  0  0  0  0  0
  195.9510  174.7290  139.7300 C   0  0  0  0  0  0  0  0  0  0  0  0
  196.7510  174.2820  138.8680 O   0  0  0  0  0  0  0  0  0  0  0  0
  196.2000  175.9570  140.3300 O   0  0  0  0  0  1  0  0  0  0  0  0
  194.1140  174.4660  145.2520 C   0  0  0  0  0  3  0  0  0  0  0  0
  195.2330  173.9710  144.7080 C   0  0  0  0  0  0  0  0  0  0  0  0
  197.1780  173.7860  146.0610 O   0  0  0  0  0  1  0  0  0  0  0  0
  196.5880  174.5340  145.0410 C   0  0  0  0  0  2  0  0  0  0  0  0
  194.1080  175.6260  146.1980 C   0  0  0  0  0  2  0  0  0  0  0  0
  193.4610  176.7660  145.5710 N   0  0  0  0  0  2  0  0  0  0  0  0
  192.2060  176.2950  145.0050 C   0  0  0  0  0  2  0  0  0  0  0  0
  191.7570  177.2090  143.8760 C   0  0  0  0  0  2  0  0  0  0  0  0
  190.4650  177.9140  144.2510 C   0  0  0  0  0  2  0  0  0  0  0  0
  189.8110  177.2100  145.4290 C   0  0  0  0  0  2  0  0  0  0  0  0
  187.7980  176.8270  146.5550 C   0  0  0  0  0  2  0  0  0  0  0  0
  186.3460  177.2020  144.6880 C   0  0  0  0  0  2  0  0  0  0  0  0
  187.7570  177.6730  144.3980 C   0  0  0  0  0  2  0  0  0  0  0  0
  186.3470  176.7840  146.1370 C   0  0  0  0  0  2  0  0  0  0  0  0
  188.4800  177.7490  145.6600 N   0  0  0  0  0  0  0  0  0  0  0  0
  194.1830  170.0430  144.8570 C   0  0  2  0  0  3  0  0  0  0  0  0
  194.7730  170.5840  146.1510 C   0  0  0  0  0  1  0  0  0  0  0  0
  196.2930  169.3590  144.8320 C   0  0  0  0  0  1  0  0  0  0  0  0
  195.2320  169.7080  143.9940 O   0  0  0  0  0  0  0  0  0  0  0  0
  190.9890  171.5360  143.2690 O   0  0  0  0  0  0  0  0  0  0  0  0
  190.1790  173.6440  144.1670 C   0  0  0  0  0  2  0  0  0  0  0  0
  189.4690  173.1420  141.2830 C   0  0  1  0  0  3  0  0  0  0  0  0
  188.9410  174.2550  143.5020 C   0  0  0  0  0  2  0  0  0  0  0  0
  191.1370  172.9500  143.1830 C   0  0  2  0  0  3  0  0  0  0  0  0
  190.9110  173.4060  141.7410 C   0  0  0  0  0  2  0  0  0  0  0  0
  188.4190  173.3530  142.3860 C   0  0  0  0  0  2  0  0  0  0  0  0
  189.1510  173.9600  140.0760 C   0  0  0  0  0  0  0  0  0  0  0  0
  188.1890  174.9570  140.1570 O   0  0  0  0  0  1  0  0  0  0  0  0
  189.7320  173.7390  138.9800 O   0  0  0  0  0  0  0  0  0  0  0  0
  1 13  2  0  0  0  0
  2  9  2  0  0  0  0
  3  5  2  0  0  0  0
  4  7  1  0  0  0  0
  4 15  1  0  0  0  0
  5  9  1  0  0  0  0
  5 13  1  0  0  0  0
  6 11  1  6  0  0  0
  6  3  1  0  0  0  0
  6  2  1  0  0  0  0
  7 23  1  1  0  0  0
  8  2  1  0  0  0  0
  8 10  1  0  0  0  0
 10 19  1  1  0  0  0
 10 17  1  0  0  0  0
 12 16  2  0  0  0  0
 13 12  1  0  0  0  0
 14  3  1  0  0  0  0
 15 37  1  6  0  0  0
 16 15  1  0  0  0  0
 17 18  1  0  0  0  0
 18  7  1  0  0  0  0
 19 21  1  0  0  0  0
 20 19  2  0  0  0  0
 22 26  1  0  0  0  0
 23 25  1  0  0  0  0
 23 22  2  0  0  0  0
 25 24  1  0  0  0  0
 27 26  1  0  0  0  0
 28 27  1  0  0  0  0
 29 30  1  0  0  0  0
 29 28  1  0  0  0  0
 30 31  1  0  0  0  0
 31 36  1  0  0  0  0
 33 35  1  0  0  0  0
 34 33  1  0  0  0  0
 34 36  1  0  0  0  0
 35 32  1  0  0  0  0
 36 32  1  0  0  0  0
 37 38  1  1  0  0  0
 40 39  1  0  0  0  0
 40 37  1  0  0  0  0
 41 16  1  0  0  0  0
 43 48  1  6  0  0  0
 43 46  1  0  0  0  0
 43 47  1  0  0  0  0
 44 42  1  0  0  0  0
 45 41  1  6  0  0  0
 45 42  1  0  0  0  0
 46 45  1  0  0  0  0
 47 44  1  0  0  0  0
 48 49  1  0  0  0  0
 50 48  2  0  0  0  0
M  END
>  <MODEL>
7

>  <REMARK>
 VINA RESULT:      -5.9      2.368      3.832
  Name = 
  15 active torsions:
  status: ('A' for Active; 'I' for Inactive)
    1  A    between atoms: N_1  and  C_5
    2  A    between atoms: N_1  and  C_15
    3  A    between atoms: C_2  and  C_25
    4  A    between atoms: C_5  and  C_26
    5  A    between atoms: C_7  and  C_30
    6  A    between atoms: C_7  and  C_48
    7  A    between atoms: C_8  and  C_17
    8  A    between atoms: C_15  and  C_48
    9  A    between atoms: C_19  and  C_47
   10  A    between atoms: C_22  and  O_46
   11  A    between atoms: C_29  and  C_39
   12  A    between atoms: C_29  and  O_45
   13  A    between atoms: C_30  and  N_44
   14  A    between atoms: C_35  and  C_47
   15  A    between atoms: C_41  and  O_46
                            x       y       z     vdW  Elec       q    Type
                         _______ _______ _______ _____ _____    ______ ____

>  <TORSDO>
F 15

$$$$
=
 OpenBabel11042419473D

 50 53  0  0  1  0  0  0  0  0999 V2000
  196.6910  175.8660  144.0360 O   0  0  0  0  0  0  0  0  0  0  0  0
  195.1290  171.5760  143.6140 C   0  0  0  0  0  0  0  0  0  0  0  0
  196.0410  173.1280  145.0290 C   0  0  0  0  0  0  0  0  0  0  0  0
  192.8610  173.8740  140.8160 C   0  0  0  0  0  2  0  0  0  0  0  0
  195.7520  173.6640  143.8510 C   0  0  0  0  0  0  0  0  0  0  0  0
  195.6730  171.6760  145.0080 C   0  0  2  0  0  3  0  0  0  0  0  0
  192.5960  172.7520  139.8660 C   0  0  1  0  0  3  0  0  0  0  0  0
  194.7310  170.3040  142.9300 C   0  0  0  0  0  2  0  0  0  0  0  0
  195.1970  172.6930  142.9750 N   0  0  0  0  0  0  0  0  0  0  0  0
  193.2160  170.1520  142.7510 C   0  0  1  0  0  3  0  0  0  0  0  0
  196.8260  170.8990  145.1210 O   0  0  0  0  0  1  0  0  0  0  0  0
  195.4460  175.4010  142.1140 N   0  0  0  0  0  0  0  0  0  0  0  0
  195.9820  175.0500  143.3890 C   0  0  0  0  0  0  0  0  0  0  0  0
  196.6360  173.8390  146.1970 C   0  0  0  0  0  1  0  0  0  0  0  0
  193.6370  174.9460  140.6410 C   0  0  1  0  0  3  0  0  0  0  0  0
  194.1620  175.4290  141.9330 C   0  0  0  0  0  0  0  0  0  0  0  0
  192.5380  171.2690  141.9490 C   0  0  0  0  0  2  0  0  0  0  0  0
  193.0490  171.4270  140.5080 C   0  0  0  0  0  2  0  0  0  0  0  0
  192.8740  168.8030  142.2070 C   0  0  0  0  0  0  0  0  0  0  0  0
  193.7190  168.1780  141.5150 O   0  0  0  0  0  0  0  0  0  0  0  0
  191.6430  168.2200  142.4850 O   0  0  0  0  0  1  0  0  0  0  0  0
  190.2630  173.3670  140.1990 C   0  0  0  0  0  3  0  0  0  0  0  0
  191.1550  172.7130  139.4440 C   0  0  0  0  0  0  0  0  0  0  0  0
  191.8480  171.9380  137.3080 O   0  0  0  0  0  1  0  0  0  0  0  0
  190.7530  172.0220  138.1690 C   0  0  0  0  0  2  0  0  0  0  0  0
  188.8050  173.4400  139.8650 C   0  0  0  0  0  2  0  0  0  0  0  0
  188.3020  174.7720  140.1570 N   0  0  0  0  0  2  0  0  0  0  0  0
  188.5320  175.0220  141.5720 C   0  0  0  0  0  2  0  0  0  0  0  0
  188.2910  176.4870  141.8970 C   0  0  0  0  0  2  0  0  0  0  0  0
  187.1730  176.6230  142.9170 C   0  0  0  0  0  2  0  0  0  0  0  0
  187.7550  176.7580  144.3140 C   0  0  0  0  0  2  0  0  0  0  0  0
  187.3120  177.3370  146.5360 C   0  0  0  0  0  2  0  0  0  0  0  0
  184.9830  176.7800  146.5210 C   0  0  0  0  0  2  0  0  0  0  0  0
  185.5530  176.8210  145.1180 C   0  0  0  0  0  2  0  0  0  0  0  0
  186.0940  177.2530  147.4250 C   0  0  0  0  0  2  0  0  0  0  0  0
  186.8410  177.4990  145.1690 N   0  0  0  0  0  0  0  0  0  0  0  0
  194.3730  175.2000  139.3420 C   0  0  2  0  0  3  0  0  0  0  0  0
  193.4160  175.1620  138.1590 C   0  0  0  0  0  1  0  0  0  0  0  0
  195.4220  174.0540  137.7580 C   0  0  0  0  0  1  0  0  0  0  0  0
  195.3690  174.2380  139.1410 O   0  0  0  0  0  0  0  0  0  0  0  0
  193.3130  175.6190  143.0370 O   0  0  0  0  0  0  0  0  0  0  0  0
  191.7090  177.4290  143.2800 C   0  0  0  0  0  2  0  0  0  0  0  0
  191.4210  175.2030  145.2910 C   0  0  1  0  0  3  0  0  0  0  0  0
  191.1090  177.6460  144.6740 C   0  0  0  0  0  2  0  0  0  0  0  0
  191.9320  175.9490  142.9220 C   0  0  2  0  0  3  0  0  0  0  0  0
  191.1030  175.0110  143.8000 C   0  0  0  0  0  2  0  0  0  0  0  0
  191.7010  176.6640  145.6820 C   0  0  0  0  0  2  0  0  0  0  0  0
  190.3330  174.6220  146.1310 C   0  0  0  0  0  0  0  0  0  0  0  0
  190.2530  174.9560  147.4750 O   0  0  0  0  0  1  0  0  0  0  0  0
  189.5020  173.8150  145.6360 O   0  0  0  0  0  0  0  0  0  0  0  0
  2  6  1  0  0  0  0
  3 14  1  0  0  0  0
  5  3  2  0  0  0  0
  6  3  1  0  0  0  0
  6 11  1  6  0  0  0
  7 23  1  1  0  0  0
  7 18  1  0  0  0  0
  7  4  1  0  0  0  0
  8  2  1  0  0  0  0
  9  2  2  0  0  0  0
  9  5  1  0  0  0  0
 10 19  1  6  0  0  0
 10  8  1  0  0  0  0
 12 13  1  0  0  0  0
 13  5  1  0  0  0  0
 13  1  2  0  0  0  0
 15 37  1  6  0  0  0
 15  4  1  0  0  0  0
 15 16  1  0  0  0  0
 16 12  2  0  0  0  0
 16 41  1  0  0  0  0
 17 10  1  0  0  0  0
 18 17  1  0  0  0  0
 19 21  1  0  0  0  0
 20 19  2  0  0  0  0
 23 22  2  0  0  0  0
 24 25  1  0  0  0  0
 25 23  1  0  0  0  0
 26 27  1  0  0  0  0
 26 22  1  0  0  0  0
 27 28  1  0  0  0  0
 28 29  1  0  0  0  0
 29 30  1  0  0  0  0
 30 31  1  0  0  0  0
 31 36  1  0  0  0  0
 32 35  1  0  0  0  0
 33 35  1  0  0  0  0
 34 36  1  0  0  0  0
 34 33  1  0  0  0  0
 36 32  1  0  0  0  0
 37 38  1  6  0  0  0
 39 40  1  0  0  0  0
 40 37  1  0  0  0  0
 42 44  1  0  0  0  0
 43 47  1  0  0  0  0
 43 48  1  1  0  0  0
 44 47  1  0  0  0  0
 45 41  1  1  0  0  0
 45 42  1  0  0  0  0
 45 46  1  0  0  0  0
 46 43  1  0  0  0  0
 48 49  1  0  0  0  0
 50 48  2  0  0  0  0
M  END
>  <MODEL>
8

>  <REMARK>
 VINA RESULT:      -5.7      2.453      6.304
  Name = 
  15 active torsions:
  status: ('A' for Active; 'I' for Inactive)
    1  A    between atoms: N_1  and  C_5
    2  A    between atoms: N_1  and  C_15
    3  A    between atoms: C_2  and  C_25
    4  A    between atoms: C_5  and  C_26
    5  A    between atoms: C_7  and  C_30
    6  A    between atoms: C_7  and  C_48
    7  A    between atoms: C_8  and  C_17
    8  A    between atoms: C_15  and  C_48
    9  A    between atoms: C_19  and  C_47
   10  A    between atoms: C_22  and  O_46
   11  A    between atoms: C_29  and  C_39
   12  A    between atoms: C_29  and  O_45
   13  A    between atoms: C_30  and  N_44
   14  A    between atoms: C_35  and  C_47
   15  A    between atoms: C_41  and  O_46
                            x       y       z     vdW  Elec       q    Type
                         _______ _______ _______ _____ _____    ______ ____

>  <TORSDO>
F 15

$$$$
=
 OpenBabel11042419473D

 50 53  0  0  1  0  0  0  0  0999 V2000
  189.5840  172.2420  136.8700 O   0  0  0  0  0  0  0  0  0  0  0  0
  193.4850  174.4700  137.7860 C   0  0  0  0  0  0  0  0  0  0  0  0
  191.4990  174.5200  136.6470 C   0  0  0  0  0  0  0  0  0  0  0  0
  192.6560  172.1750  141.2930 C   0  0  0  0  0  2  0  0  0  0  0  0
  191.5640  173.4680  137.4520 C   0  0  0  0  0  0  0  0  0  0  0  0
  192.7710  175.3030  136.7630 C   0  0  2  0  0  3  0  0  0  0  0  0
  194.0770  172.0330  141.7300 C   0  0  1  0  0  3  0  0  0  0  0  0
  194.9070  174.6610  138.2160 C   0  0  0  0  0  2  0  0  0  0  0  0
  192.8030  173.4380  138.1470 N   0  0  0  0  0  0  0  0  0  0  0  0
  195.0480  175.2180  139.6370 C   0  0  1  0  0  3  0  0  0  0  0  0
  193.4610  175.2570  135.5520 O   0  0  0  0  0  1  0  0  0  0  0  0
  190.8320  171.4460  138.6780 N   0  0  0  0  0  0  0  0  0  0  0  0
  190.5700  172.3890  137.6390 C   0  0  0  0  0  0  0  0  0  0  0  0
  190.3550  174.8800  135.7620 C   0  0  0  0  0  1  0  0  0  0  0  0
  191.8320  171.2350  140.8230 C   0  0  1  0  0  3  0  0  0  0  0  0
  190.8270  171.8250  139.9180 C   0  0  0  0  0  0  0  0  0  0  0  0
  194.4050  174.3680  140.7390 C   0  0  0  0  0  2  0  0  0  0  0  0
  194.9680  172.9430  140.8630 C   0  0  0  0  0  2  0  0  0  0  0  0
  196.4750  175.5300  139.9510 C   0  0  0  0  0  0  0  0  0  0  0  0
  197.3930  174.9870  139.2830 O   0  0  0  0  0  0  0  0  0  0  0  0
  196.7970  176.4390  140.9510 O   0  0  0  0  0  1  0  0  0  0  0  0
  193.3230  173.1000  143.7860 C   0  0  0  0  0  3  0  0  0  0  0  0
  194.2360  172.3170  143.1960 C   0  0  0  0  0  0  0  0  0  0  0  0
  194.9300  170.4310  144.4650 O   0  0  0  0  0  1  0  0  0  0  0  0
  195.3470  171.6720  143.9810 C   0  0  0  0  0  2  0  0  0  0  0  0
  193.3450  173.4250  145.2470 C   0  0  0  0  0  2  0  0  0  0  0  0
  193.9380  174.7360  145.4480 N   0  0  0  0  0  2  0  0  0  0  0  0
  193.4680  175.5950  144.3710 C   0  0  0  0  0  2  0  0  0  0  0  0
  193.0150  176.9370  144.9230 C   0  0  0  0  0  2  0  0  0  0  0  0
  191.5100  177.0870  144.7750 C   0  0  0  0  0  2  0  0  0  0  0  0
  190.8220  176.7500  146.0860 C   0  0  0  0  0  2  0  0  0  0  0  0
  188.6230  176.6710  146.8770 C   0  0  0  0  0  2  0  0  0  0  0  0
  187.5790  177.5760  144.9210 C   0  0  0  0  0  2  0  0  0  0  0  0
  189.0820  177.7660  144.8880 C   0  0  0  0  0  2  0  0  0  0  0  0
  187.2740  176.9920  146.2770 C   0  0  0  0  0  2  0  0  0  0  0  0
  189.6020  177.5290  146.2270 N   0  0  0  0  0  0  0  0  0  0  0  0
  192.2540  169.7860  140.7020 C   0  0  2  0  0  3  0  0  0  0  0  0
  192.4300  169.1550  142.0760 C   0  0  0  0  0  1  0  0  0  0  0  0
  194.0520  168.5060  140.4780 C   0  0  0  0  0  1  0  0  0  0  0  0
  193.4620  169.6800  140.0050 O   0  0  0  0  0  0  0  0  0  0  0  0
  190.0980  172.9700  140.2860 O   0  0  0  0  0  0  0  0  0  0  0  0
  188.2000  174.3250  140.9690 C   0  0  0  0  0  2  0  0  0  0  0  0
  189.8460  173.2190  143.2370 C   0  0  1  0  0  3  0  0  0  0  0  0
  188.2890  175.0100  142.3370 C   0  0  0  0  0  2  0  0  0  0  0  0
  188.8300  172.9210  140.9340 C   0  0  2  0  0  3  0  0  0  0  0  0
  188.9870  172.3240  142.3320 C   0  0  0  0  0  2  0  0  0  0  0  0
  189.6320  174.7240  143.0050 C   0  0  0  0  0  2  0  0  0  0  0  0
  189.6340  172.8630  144.6700 C   0  0  0  0  0  0  0  0  0  0  0  0
  189.3220  171.5550  145.0130 O   0  0  0  0  0  0  0  0  0  0  0  0
  189.7160  173.7420  145.5690 O   0  0  0  0  0  1  0  0  0  0  0  0
  1 13  2  0  0  0  0
  2  9  2  0  0  0  0
  2  8  1  0  0  0  0
  3  6  1  0  0  0  0
  3  5  2  0  0  0  0
  4  7  1  0  0  0  0
  5 13  1  0  0  0  0
  5  9  1  0  0  0  0
  6 11  1  6  0  0  0
  6  2  1  0  0  0  0
  7 23  1  1  0  0  0
  8 10  1  0  0  0  0
 10 19  1  1  0  0  0
 10 17  1  0  0  0  0
 12 16  2  0  0  0  0
 13 12  1  0  0  0  0
 14  3  1  0  0  0  0
 15 37  1  6  0  0  0
 15  4  1  0  0  0  0
 16 41  1  0  0  0  0
 16 15  1  0  0  0  0
 17 18  1  0  0  0  0
 18  7  1  0  0  0  0
 19 21  1  0  0  0  0
 20 19  2  0  0  0  0
 22 26  1  0  0  0  0
 23 22  2  0  0  0  0
 23 25  1  0  0  0  0
 25 24  1  0  0  0  0
 26 27  1  0  0  0  0
 28 29  1  0  0  0  0
 28 27  1  0  0  0  0
 30 29  1  0  0  0  0
 30 31  1  0  0  0  0
 31 36  1  0  0  0  0
 33 35  1  0  0  0  0
 34 33  1  0  0  0  0
 34 36  1  0  0  0  0
 35 32  1  0  0  0  0
 36 32  1  0  0  0  0
 37 38  1  1  0  0  0
 40 39  1  0  0  0  0
 40 37  1  0  0  0  0
 42 44  1  0  0  0  0
 43 48  1  1  0  0  0
 44 47  1  0  0  0  0
 45 41  1  1  0  0  0
 45 42  1  0  0  0  0
 45 46  1  0  0  0  0
 46 43  1  0  0  0  0
 47 43  1  0  0  0  0
 48 49  2  0  0  0  0
 48 50  1  0  0  0  0
M  END
>  <MODEL>
9

>  <REMARK>
 VINA RESULT:      -5.6      2.185      3.355
  Name = 
  15 active torsions:
  status: ('A' for Active; 'I' for Inactive)
    1  A    between atoms: N_1  and  C_5
    2  A    between atoms: N_1  and  C_15
    3  A    between atoms: C_2  and  C_25
    4  A    between atoms: C_5  and  C_26
    5  A    between atoms: C_7  and  C_30
    6  A    between atoms: C_7  and  C_48
    7  A    between atoms: C_8  and  C_17
    8  A    between atoms: C_15  and  C_48
    9  A    between atoms: C_19  and  C_47
   10  A    between atoms: C_22  and  O_46
   11  A    between atoms: C_29  and  C_39
   12  A    between atoms: C_29  and  O_45
   13  A    between atoms: C_30  and  N_44
   14  A    between atoms: C_35  and  C_47
   15  A    between atoms: C_41  and  O_46
                            x       y       z     vdW  Elec       q    Type
                         _______ _______ _______ _____ _____    ______ ____

>  <TORSDO>
F 15

$$$$
