=
 OpenBabel11042414113D

 49 53  0  0  1  0  0  0  0  0999 V2000
  193.5310  175.5020  142.3030 C   0  0  0  0  0  2  0  0  0  0  0  0
  194.3090  173.5270  144.1200 C   0  0  2  0  0  3  0  0  0  0  0  0
  190.6480  175.8710  144.8290 C   0  0  1  0  0  3  0  0  0  0  0  0
  194.4850  173.1370  142.6460 C   0  0  0  0  0  2  0  0  0  0  0  0
  192.8860  174.0710  144.3340 C   0  0  1  0  0  3  0  0  0  0  0  0
  194.2350  174.2950  141.6620 C   0  0  2  0  0  3  0  0  0  0  0  0
  192.6550  174.5650  145.7650 C   0  0  0  0  0  2  0  0  0  0  0  0
  192.4060  175.0650  143.2390 C   0  0  1  0  0  3  0  0  0  0  0  0
  191.7120  176.2940  143.8200 C   0  0  0  0  0  2  0  0  0  0  0  0
  191.2030  175.0000  145.9670 C   0  0  0  0  0  2  0  0  0  0  0  0
  189.9850  177.0710  145.4000 C   0  0  0  0  0  3  0  0  0  0  0  0
  187.6460  177.8110  144.5030 C   0  0  0  0  0  0  0  0  0  0  0  0
  184.3680  178.2800  146.3680 C   0  0  0  0  0  1  0  0  0  0  0  0
  188.8200  177.4440  144.9520 C   0  0  0  0  0  0  0  0  0  0  0  0
  184.8260  177.4530  144.0680 C   0  0  0  0  0  2  0  0  0  0  0  0
  188.1090  176.6650  142.4440 O   0  0  0  0  0  1  0  0  0  0  0  0
  187.1840  177.4800  143.1020 C   0  0  1  0  0  0  0  0  0  0  0  0
  185.8410  176.7420  143.1680 C   0  0  0  0  0  2  0  0  0  0  0  0
  186.6690  178.4300  145.4520 C   0  0  0  0  0  2  0  0  0  0  0  0
  185.3890  177.6030  145.4800 C   0  0  1  0  0  3  0  0  0  0  0  0
  187.0220  178.7600  142.3030 C   0  0  0  0  0  1  0  0  0  0  0  0
  195.5080  174.7040  141.0840 N   0  0  0  0  0  2  0  0  0  0  0  0
  194.4970  175.6470  138.8320 O   0  0  0  0  0  0  0  0  0  0  0  0
  196.8050  174.8500  138.8050 O   0  0  0  0  0  0  0  0  0  0  0  0
  195.4320  174.5970  139.3580 S   0  0  0  0  0  0  0  0  0  0  0  0
  194.8610  172.9860  138.8380 C   0  0  0  0  0  2  0  0  0  0  0  0
  192.5260  172.0680  139.1400 C   0  0  0  0  0  0  0  0  0  0  0  0
  193.4300  173.0230  138.5750 N   0  0  0  0  0  2  0  0  0  0  0  0
  192.9270  171.2370  140.0000 O   0  0  0  0  0  0  0  0  0  0  0  0
  191.0960  172.0610  138.7220 C   0  0  0  0  0  2  0  0  0  0  0  0
  190.4510  173.5990  140.4260 C   0  0  0  0  0  2  0  0  0  0  0  0
  190.4890  173.3650  138.9750 N   0  0  0  0  0  0  0  0  0  0  0  0
  189.3590  172.7610  141.1030 C   0  0  0  0  0  2  0  0  0  0  0  0
  189.1380  173.4010  138.3920 C   0  0  0  0  0  2  0  0  0  0  0  0
  188.1110  173.0620  140.5370 O   0  0  0  0  0  0  0  0  0  0  0  0
  188.1460  172.5780  139.2210 C   0  0  0  0  0  2  0  0  0  0  0  0
  195.3850  174.5250  144.5620 C   0  0  0  0  0  2  0  0  0  0  0  0
  196.7820  173.9340  144.4350 C   0  0  0  0  0  2  0  0  0  0  0  0
  197.1110  173.0650  145.6090 C   0  0  0  0  0  0  0  0  0  0  0  0
  197.0810  173.5380  146.7370 O   0  0  0  0  0  0  0  0  0  0  0  0
  196.5860  170.3930  143.3780 C   0  0  0  0  0  3  0  0  0  0  0  0
  197.4290  171.6140  145.3960 C   0  0  1  0  0  3  0  0  0  0  0  0
  196.5310  170.6960  146.2430 C   0  0  0  0  0  2  0  0  0  0  0  0
  197.4260  171.2840  143.9220 C   0  0  0  0  0  3  0  0  0  0  0  0
  195.2550  170.3300  145.4940 C   0  0  0  0  0  2  0  0  0  0  0  0
  195.6290  169.5870  144.2180 C   0  0  1  0  0  3  0  0  0  0  0  0
  194.3770  169.2460  143.4220 C   0  0  0  0  0  2  0  0  0  0  0  0
  193.3060  170.0180  143.8730 O   0  0  0  0  0  0  0  0  0  0  0  0
  192.2520  169.6870  143.0200 C   0  0  0  0  0  1  0  0  0  0  0  0
  2  5  1  0  0  0  0
  2 37  1  6  0  0  0
  3 11  1  1  0  0  0
  3 10  1  0  0  0  0
  4  2  1  0  0  0  0
  5  7  1  1  0  0  0
  6 22  1  1  0  0  0
  6  1  1  0  0  0  0
  6  4  1  0  0  0  0
  7 10  1  0  0  0  0
  8  1  1  1  0  0  0
  8  9  1  0  0  0  0
  8  5  1  0  0  0  0
  9  3  1  0  0  0  0
 12 14  2  0  0  0  0
 12 19  1  0  0  0  0
 14 11  2  0  0  0  0
 15 20  1  0  0  0  0
 16 17  1  0  0  0  0
 17 21  1  6  0  0  0
 17 18  1  0  0  0  0
 17 12  1  0  0  0  0
 18 15  1  0  0  0  0
 19 20  1  0  0  0  0
 20 13  1  1  0  0  0
 23 25  2  0  0  0  0
 24 25  2  0  0  0  0
 25 22  1  0  0  0  0
 26 25  1  0  0  0  0
 27 29  2  0  0  0  0
 28 26  1  0  0  0  0
 28 27  1  0  0  0  0
 30 32  1  0  0  0  0
 30 27  1  0  0  0  0
 31 33  1  0  0  0  0
 32 31  1  0  0  0  0
 34 32  1  0  0  0  0
 34 36  1  0  0  0  0
 35 33  1  0  0  0  0
 36 35  1  0  0  0  0
 38 37  1  0  0  0  0
 38 39  1  0  0  0  0
 39 40  2  0  0  0  0
 41 44  2  0  0  0  0
 41 46  1  0  0  0  0
 42 39  1  6  0  0  0
 42 43  1  0  0  0  0
 44 42  1  0  0  0  0
 45 43  1  0  0  0  0
 46 47  1  6  0  0  0
 46 45  1  0  0  0  0
 47 48  1  0  0  0  0
 49 48  1  0  0  0  0
M  END
>  <MODEL>
1

>  <REMARK>
 VINA RESULT:      -6.7      0.000      0.000
  Name = 
  13 active torsions:
  status: ('A' for Active; 'I' for Inactive)
    1  A    between atoms: C_1  and  C_13
    2  A    between atoms: C_2  and  C_32
    3  A    between atoms: N_4  and  C_32
    4  A    between atoms: N_7  and  C_35
    5  A    between atoms: C_8  and  C_43
    6  A    between atoms: C_16  and  C_41
    7  A    between atoms: C_16  and  C_43
    8  A    between atoms: N_21  and  C_22
    9  A    between atoms: N_21  and  S_38
   10  A    between atoms: C_26  and  O_31
   11  A    between atoms: C_26  and  C_46
   12  A    between atoms: C_28  and  C_41
   13  A    between atoms: C_35  and  S_38
                            x       y       z     vdW  Elec       q    Type
                         _______ _______ _______ _____ _____    ______ ____

>  <TORSDO>
F 13

$$$$
=
 OpenBabel11042414113D

 49 53  0  0  1  0  0  0  0  0999 V2000
  189.3940  177.1790  144.3930 C   0  0  0  0  0  2  0  0  0  0  0  0
  189.1950  175.9370  146.8880 C   0  0  2  0  0  3  0  0  0  0  0  0
  193.1390  177.0670  145.2830 C   0  0  1  0  0  3  0  0  0  0  0  0
  188.1220  177.0010  146.6230 C   0  0  0  0  0  2  0  0  0  0  0  0
  190.5820  176.5260  146.5720 C   0  0  1  0  0  3  0  0  0  0  0  0
  188.1240  177.5420  145.1800 C   0  0  2  0  0  3  0  0  0  0  0  0
  191.7060  175.4970  146.7290 C   0  0  0  0  0  2  0  0  0  0  0  0
  190.6490  177.3370  145.2480 C   0  0  1  0  0  3  0  0  0  0  0  0
  191.8850  177.0050  144.4140 C   0  0  0  0  0  2  0  0  0  0  0  0
  193.0730  176.1430  146.5080 C   0  0  0  0  0  2  0  0  0  0  0  0
  194.3350  176.7320  144.4690 C   0  0  0  0  0  3  0  0  0  0  0  0
  194.9080  174.2330  143.9730 C   0  0  0  0  0  0  0  0  0  0  0  0
  195.3200  172.4520  140.6410 C   0  0  0  0  0  1  0  0  0  0  0  0
  194.6250  175.4870  144.2230 C   0  0  0  0  0  0  0  0  0  0  0  0
  194.3890  171.6570  142.8050 C   0  0  0  0  0  2  0  0  0  0  0  0
  193.6730  173.5940  145.9310 O   0  0  0  0  0  1  0  0  0  0  0  0
  194.4770  173.1130  144.8940 C   0  0  1  0  0  0  0  0  0  0  0  0
  193.6780  172.0750  144.0960 C   0  0  0  0  0  2  0  0  0  0  0  0
  195.5310  173.8800  142.6590 C   0  0  0  0  0  2  0  0  0  0  0  0
  194.6450  172.8790  141.9260 C   0  0  1  0  0  3  0  0  0  0  0  0
  195.7000  172.4560  145.5040 C   0  0  0  0  0  1  0  0  0  0  0  0
  186.9440  177.0400  144.4900 N   0  0  0  0  0  2  0  0  0  0  0  0
  184.5160  177.6880  145.3100 O   0  0  0  0  0  0  0  0  0  0  0  0
  186.2090  179.4470  145.2410 O   0  0  0  0  0  0  0  0  0  0  0  0
  185.6850  178.2280  144.5380 S   0  0  0  0  0  0  0  0  0  0  0  0
  185.1510  178.6670  142.8900 C   0  0  0  0  0  2  0  0  0  0  0  0
  183.1290  178.3280  141.4130 C   0  0  0  0  0  0  0  0  0  0  0  0
  183.7590  178.2860  142.6980 N   0  0  0  0  0  2  0  0  0  0  0  0
  183.8040  178.5700  140.3750 O   0  0  0  0  0  0  0  0  0  0  0  0
  181.6650  178.0710  141.2960 C   0  0  0  0  0  2  0  0  0  0  0  0
  179.8760  178.8660  142.6560 C   0  0  0  0  0  2  0  0  0  0  0  0
  180.9110  179.2580  141.6880 N   0  0  0  0  0  0  0  0  0  0  0  0
  178.7130  178.1350  141.9720 C   0  0  0  0  0  2  0  0  0  0  0  0
  180.3170  179.8810  140.4940 C   0  0  0  0  0  2  0  0  0  0  0  0
  178.1550  178.9550  140.9810 O   0  0  0  0  0  0  0  0  0  0  0  0
  179.1240  179.0730  139.9730 C   0  0  0  0  0  2  0  0  0  0  0  0
  188.9130  174.6560  146.0960 C   0  0  0  0  0  2  0  0  0  0  0  0
  190.1990  173.9440  145.7050 C   0  0  0  0  0  2  0  0  0  0  0  0
  189.9160  172.7240  144.8860 C   0  0  0  0  0  0  0  0  0  0  0  0
  189.2490  171.8170  145.3640 O   0  0  0  0  0  0  0  0  0  0  0  0
  190.2250  174.6080  141.9280 C   0  0  0  0  0  3  0  0  0  0  0  0
  190.4120  172.6440  143.4720 C   0  0  1  0  0  3  0  0  0  0  0  0
  189.4210  171.9120  142.5520 C   0  0  0  0  0  2  0  0  0  0  0  0
  190.8130  174.0130  142.9750 C   0  0  0  0  0  3  0  0  0  0  0  0
  188.4150  172.8820  141.9430 C   0  0  0  0  0  2  0  0  0  0  0  0
  189.1680  173.9120  141.1100 C   0  0  1  0  0  3  0  0  0  0  0  0
  188.1950  174.9250  140.5240 C   0  0  0  0  0  2  0  0  0  0  0  0
  188.2410  176.1080  141.2630 O   0  0  0  0  0  0  0  0  0  0  0  0
  187.2390  176.9060  140.7090 C   0  0  0  0  0  1  0  0  0  0  0  0
  1  6  1  0  0  0  0
  2 37  1  6  0  0  0
  3 11  1  6  0  0  0
  3 10  1  0  0  0  0
  4  2  1  0  0  0  0
  5  7  1  6  0  0  0
  5  2  1  0  0  0  0
  6 22  1  6  0  0  0
  6  4  1  0  0  0  0
  8  1  1  6  0  0  0
  8  5  1  0  0  0  0
  9  8  1  0  0  0  0
  9  3  1  0  0  0  0
 10  7  1  0  0  0  0
 12 14  2  0  0  0  0
 12 17  1  0  0  0  0
 14 11  2  0  0  0  0
 15 18  1  0  0  0  0
 17 21  1  1  0  0  0
 17 16  1  0  0  0  0
 18 17  1  0  0  0  0
 19 12  1  0  0  0  0
 20 13  1  6  0  0  0
 20 19  1  0  0  0  0
 20 15  1  0  0  0  0
 22 25  1  0  0  0  0
 25 24  2  0  0  0  0
 25 23  2  0  0  0  0
 26 25  1  0  0  0  0
 27 28  1  0  0  0  0
 28 26  1  0  0  0  0
 29 27  2  0  0  0  0
 30 27  1  0  0  0  0
 30 32  1  0  0  0  0
 32 31  1  0  0  0  0
 33 31  1  0  0  0  0
 34 32  1  0  0  0  0
 35 33  1  0  0  0  0
 36 34  1  0  0  0  0
 36 35  1  0  0  0  0
 38 37  1  0  0  0  0
 39 40  2  0  0  0  0
 39 38  1  0  0  0  0
 41 44  2  0  0  0  0
 42 39  1  1  0  0  0
 43 42  1  0  0  0  0
 44 42  1  0  0  0  0
 45 43  1  0  0  0  0
 46 47  1  1  0  0  0
 46 41  1  0  0  0  0
 46 45  1  0  0  0  0
 47 48  1  0  0  0  0
 49 48  1  0  0  0  0
M  END
>  <MODEL>
2

>  <REMARK>
 VINA RESULT:      -6.6      4.294      9.127
  Name = 
  13 active torsions:
  status: ('A' for Active; 'I' for Inactive)
    1  A    between atoms: C_1  and  C_13
    2  A    between atoms: C_2  and  C_32
    3  A    between atoms: N_4  and  C_32
    4  A    between atoms: N_7  and  C_35
    5  A    between atoms: C_8  and  C_43
    6  A    between atoms: C_16  and  C_41
    7  A    between atoms: C_16  and  C_43
    8  A    between atoms: N_21  and  C_22
    9  A    between atoms: N_21  and  S_38
   10  A    between atoms: C_26  and  O_31
   11  A    between atoms: C_26  and  C_46
   12  A    between atoms: C_28  and  C_41
   13  A    between atoms: C_35  and  S_38
                            x       y       z     vdW  Elec       q    Type
                         _______ _______ _______ _____ _____    ______ ____

>  <TORSDO>
F 13

$$$$
=
 OpenBabel11042414113D

 49 53  0  0  1  0  0  0  0  0999 V2000
  193.3930  173.2220  144.9860 C   0  0  0  0  0  2  0  0  0  0  0  0
  195.7410  174.6850  145.3830 C   0  0  2  0  0  3  0  0  0  0  0  0
  191.9770  175.9780  147.2720 C   0  0  1  0  0  3  0  0  0  0  0  0
  195.9290  173.1620  145.4220 C   0  0  0  0  0  2  0  0  0  0  0  0
  194.5760  175.0750  146.3100 C   0  0  1  0  0  3  0  0  0  0  0  0
  194.6720  172.3690  145.0150 C   0  0  2  0  0  3  0  0  0  0  0  0
  194.2650  176.5750  146.2630 C   0  0  0  0  0  2  0  0  0  0  0  0
  193.3200  174.1670  146.1830 C   0  0  1  0  0  3  0  0  0  0  0  0
  192.0180  174.9620  146.1330 C   0  0  0  0  0  2  0  0  0  0  0  0
  193.1750  176.9400  147.2710 C   0  0  0  0  0  2  0  0  0  0  0  0
  190.7140  176.7560  147.2110 C   0  0  0  0  0  3  0  0  0  0  0  0
  189.6100  177.2580  144.8980 C   0  0  0  0  0  0  0  0  0  0  0  0
  186.1330  176.3960  143.6290 C   0  0  0  0  0  1  0  0  0  0  0  0
  190.1630  177.0110  146.0590 C   0  0  0  0  0  0  0  0  0  0  0  0
  188.3160  176.4970  142.4440 C   0  0  0  0  0  2  0  0  0  0  0  0
  191.7540  176.9860  143.8510 O   0  0  0  0  0  1  0  0  0  0  0  0
  190.4180  177.3270  143.6220 C   0  0  1  0  0  0  0  0  0  0  0  0
  189.8340  176.3510  142.5930 C   0  0  0  0  0  2  0  0  0  0  0  0
  188.1170  177.3110  144.8030 C   0  0  0  0  0  2  0  0  0  0  0  0
  187.6320  176.2790  143.7930 C   0  0  1  0  0  3  0  0  0  0  0  0
  190.3740  178.7380  143.0660 C   0  0  0  0  0  1  0  0  0  0  0  0
  194.9020  171.7630  143.7110 N   0  0  0  0  0  2  0  0  0  0  0  0
  195.1010  169.3900  142.5640 O   0  0  0  0  0  0  0  0  0  0  0  0
  195.1800  169.4920  145.0030 O   0  0  0  0  0  0  0  0  0  0  0  0
  194.5360  170.0710  143.7760 S   0  0  0  0  0  0  0  0  0  0  0  0
  192.7710  169.7980  143.8370 C   0  0  0  0  0  2  0  0  0  0  0  0
  191.0160  171.1460  142.6180 C   0  0  0  0  0  0  0  0  0  0  0  0
  192.1490  170.2710  142.6090 N   0  0  0  0  0  2  0  0  0  0  0  0
  190.6010  171.6470  143.6980 O   0  0  0  0  0  0  0  0  0  0  0  0
  190.3280  171.4820  141.3390 C   0  0  0  0  0  2  0  0  0  0  0  0
  188.6590  173.0970  140.7990 C   0  0  0  0  0  2  0  0  0  0  0  0
  190.0360  172.9110  141.2810 N   0  0  0  0  0  0  0  0  0  0  0  0
  188.5500  172.8330  139.2920 C   0  0  0  0  0  2  0  0  0  0  0  0
  191.0060  173.5760  140.3970 C   0  0  0  0  0  2  0  0  0  0  0  0
  189.4190  173.6860  138.5960 O   0  0  0  0  0  0  0  0  0  0  0  0
  190.7210  173.2750  138.9210 C   0  0  0  0  0  2  0  0  0  0  0  0
  195.5330  175.1810  143.9480 C   0  0  0  0  0  2  0  0  0  0  0  0
  196.8500  175.5720  143.2950 C   0  0  0  0  0  2  0  0  0  0  0  0
  196.6670  175.8690  141.8400 C   0  0  0  0  0  0  0  0  0  0  0  0
  196.3100  176.9870  141.4930 O   0  0  0  0  0  0  0  0  0  0  0  0
  196.9730  175.3470  138.3720 C   0  0  0  0  0  3  0  0  0  0  0  0
  196.9660  174.8110  140.8190 C   0  0  1  0  0  3  0  0  0  0  0  0
  195.7510  173.9080  140.5490 C   0  0  0  0  0  2  0  0  0  0  0  0
  197.5580  175.4300  139.5750 C   0  0  0  0  0  3  0  0  0  0  0  0
  194.8820  174.4730  139.4300 C   0  0  0  0  0  2  0  0  0  0  0  0
  195.7130  174.5500  138.1550 C   0  0  1  0  0  3  0  0  0  0  0  0
  194.8870  175.1530  137.0270 C   0  0  0  0  0  2  0  0  0  0  0  0
  193.5850  175.3880  137.4680 O   0  0  0  0  0  0  0  0  0  0  0  0
  192.9490  175.9880  136.3800 C   0  0  0  0  0  1  0  0  0  0  0  0
  1  6  1  0  0  0  0
  2 37  1  6  0  0  0
  2  4  1  0  0  0  0
  2  5  1  0  0  0  0
  3 11  1  6  0  0  0
  5  7  1  6  0  0  0
  6 22  1  6  0  0  0
  6  4  1  0  0  0  0
  7 10  1  0  0  0  0
  8  1  1  6  0  0  0
  8  5  1  0  0  0  0
  9  8  1  0  0  0  0
  9  3  1  0  0  0  0
 10  3  1  0  0  0  0
 12 14  2  0  0  0  0
 14 11  2  0  0  0  0
 15 18  1  0  0  0  0
 15 20  1  0  0  0  0
 17 21  1  6  0  0  0
 17 16  1  0  0  0  0
 17 12  1  0  0  0  0
 18 17  1  0  0  0  0
 19 12  1  0  0  0  0
 20 13  1  6  0  0  0
 20 19  1  0  0  0  0
 22 25  1  0  0  0  0
 23 25  2  0  0  0  0
 25 26  1  0  0  0  0
 25 24  2  0  0  0  0
 27 29  2  0  0  0  0
 28 27  1  0  0  0  0
 28 26  1  0  0  0  0
 30 27  1  0  0  0  0
 31 32  1  0  0  0  0
 32 30  1  0  0  0  0
 33 31  1  0  0  0  0
 34 32  1  0  0  0  0
 35 36  1  0  0  0  0
 35 33  1  0  0  0  0
 36 34  1  0  0  0  0
 38 37  1  0  0  0  0
 39 38  1  0  0  0  0
 40 39  2  0  0  0  0
 41 44  2  0  0  0  0
 42 39  1  1  0  0  0
 43 42  1  0  0  0  0
 44 42  1  0  0  0  0
 45 43  1  0  0  0  0
 46 47  1  6  0  0  0
 46 41  1  0  0  0  0
 46 45  1  0  0  0  0
 47 48  1  0  0  0  0
 49 48  1  0  0  0  0
M  END
>  <MODEL>
3

>  <REMARK>
 VINA RESULT:      -6.6      2.454      4.728
  Name = 
  13 active torsions:
  status: ('A' for Active; 'I' for Inactive)
    1  A    between atoms: C_1  and  C_13
    2  A    between atoms: C_2  and  C_32
    3  A    between atoms: N_4  and  C_32
    4  A    between atoms: N_7  and  C_35
    5  A    between atoms: C_8  and  C_43
    6  A    between atoms: C_16  and  C_41
    7  A    between atoms: C_16  and  C_43
    8  A    between atoms: N_21  and  C_22
    9  A    between atoms: N_21  and  S_38
   10  A    between atoms: C_26  and  O_31
   11  A    between atoms: C_26  and  C_46
   12  A    between atoms: C_28  and  C_41
   13  A    between atoms: C_35  and  S_38
                            x       y       z     vdW  Elec       q    Type
                         _______ _______ _______ _____ _____    ______ ____

>  <TORSDO>
F 13

$$$$
=
 OpenBabel11042414113D

 49 53  0  0  1  0  0  0  0  0999 V2000
  190.8480  172.8050  140.6870 C   0  0  0  0  0  2  0  0  0  0  0  0
  191.3880  170.5250  142.2110 C   0  0  2  0  0  3  0  0  0  0  0  0
  189.3460  173.9760  144.0340 C   0  0  1  0  0  3  0  0  0  0  0  0
  190.8990  170.2340  140.7860 C   0  0  0  0  0  2  0  0  0  0  0  0
  190.4350  171.5330  142.8780 C   0  0  1  0  0  3  0  0  0  0  0  0
  190.7870  171.4870  139.8980 C   0  0  2  0  0  3  0  0  0  0  0  0
  190.9020  171.9450  144.2780 C   0  0  0  0  0  2  0  0  0  0  0  0
  190.0270  172.7280  141.9730 C   0  0  1  0  0  3  0  0  0  0  0  0
  190.0850  174.0680  142.7010 C   0  0  0  0  0  2  0  0  0  0  0  0
  189.8800  172.8630  144.9480 C   0  0  0  0  0  2  0  0  0  0  0  0
  189.4170  175.2790  144.7430 C   0  0  0  0  0  3  0  0  0  0  0  0
  187.5870  177.0920  144.3120 C   0  0  0  0  0  0  0  0  0  0  0  0
  185.2380  178.8020  146.7610 C   0  0  0  0  0  1  0  0  0  0  0  0
  188.5070  176.1860  144.5270 C   0  0  0  0  0  0  0  0  0  0  0  0
  184.8970  178.1050  144.3990 C   0  0  0  0  0  2  0  0  0  0  0  0
  187.1380  176.0850  142.1780 O   0  0  0  0  0  1  0  0  0  0  0  0
  186.8140  177.1580  143.0130 C   0  0  1  0  0  0  0  0  0  0  0  0
  185.3100  177.1090  143.3110 C   0  0  0  0  0  2  0  0  0  0  0  0
  187.1710  177.9840  145.4390 C   0  0  0  0  0  2  0  0  0  0  0  0
  185.6750  177.8320  145.6850 C   0  0  1  0  0  3  0  0  0  0  0  0
  187.1470  178.4470  142.2870 C   0  0  0  0  0  1  0  0  0  0  0  0
  191.8460  171.4500  138.8980 N   0  0  0  0  0  2  0  0  0  0  0  0
  191.8550  171.3830  136.2570 O   0  0  0  0  0  0  0  0  0  0  0  0
  189.7840  172.0280  137.3780 O   0  0  0  0  0  0  0  0  0  0  0  0
  191.2800  172.1430  137.4160 S   0  0  0  0  0  0  0  0  0  0  0  0
  191.7550  173.8610  137.2870 C   0  0  0  0  0  2  0  0  0  0  0  0
  193.8840  175.1410  137.7510 C   0  0  0  0  0  0  0  0  0  0  0  0
  192.9470  174.1110  138.0850 N   0  0  0  0  0  2  0  0  0  0  0  0
  193.6350  175.9590  136.8240 O   0  0  0  0  0  0  0  0  0  0  0  0
  195.1600  175.2580  138.5140 C   0  0  0  0  0  2  0  0  0  0  0  0
  194.6930  175.7760  140.7940 C   0  0  0  0  0  2  0  0  0  0  0  0
  195.0040  174.6920  139.8500 N   0  0  0  0  0  0  0  0  0  0  0  0
  195.9340  176.6240  141.1040 C   0  0  0  0  0  2  0  0  0  0  0  0
  196.2370  173.9870  140.2330 C   0  0  0  0  0  2  0  0  0  0  0  0
  196.9470  175.8090  141.6300 O   0  0  0  0  0  0  0  0  0  0  0  0
  197.3600  174.9690  140.5840 C   0  0  0  0  0  2  0  0  0  0  0  0
  192.8410  171.0130  142.2090 C   0  0  0  0  0  2  0  0  0  0  0  0
  193.7330  170.1210  143.0590 C   0  0  0  0  0  2  0  0  0  0  0  0
  195.1460  170.6140  143.0650 C   0  0  0  0  0  0  0  0  0  0  0  0
  195.8870  170.3330  142.1330 O   0  0  0  0  0  0  0  0  0  0  0  0
  194.0070  172.5720  145.7600 C   0  0  0  0  0  3  0  0  0  0  0  0
  195.6270  171.4850  144.1870 C   0  0  1  0  0  3  0  0  0  0  0  0
  196.0010  172.8970  143.7050 C   0  0  0  0  0  2  0  0  0  0  0  0
  194.6370  171.4700  145.3290 C   0  0  0  0  0  3  0  0  0  0  0  0
  194.7960  173.8310  143.7490 C   0  0  0  0  0  2  0  0  0  0  0  0
  194.3060  173.9330  145.1880 C   0  0  1  0  0  3  0  0  0  0  0  0
  193.0740  174.8240  145.2600 C   0  0  0  0  0  2  0  0  0  0  0  0
  193.4610  176.1630  145.3120 O   0  0  0  0  0  0  0  0  0  0  0  0
  194.1630  176.2800  146.5130 C   0  0  0  0  0  1  0  0  0  0  0  0
  2 37  1  6  0  0  0
  2  5  1  0  0  0  0
  3 11  1  1  0  0  0
  3 10  1  0  0  0  0
  4  2  1  0  0  0  0
  5  7  1  1  0  0  0
  6 22  1  6  0  0  0
  6  1  1  0  0  0  0
  6  4  1  0  0  0  0
  7 10  1  0  0  0  0
  8  1  1  6  0  0  0
  8  9  1  0  0  0  0
  8  5  1  0  0  0  0
  9  3  1  0  0  0  0
 12 14  2  0  0  0  0
 12 19  1  0  0  0  0
 14 11  2  0  0  0  0
 15 20  1  0  0  0  0
 16 17  1  0  0  0  0
 17 21  1  6  0  0  0
 17 18  1  0  0  0  0
 17 12  1  0  0  0  0
 18 15  1  0  0  0  0
 19 20  1  0  0  0  0
 20 13  1  1  0  0  0
 23 25  2  0  0  0  0
 24 25  2  0  0  0  0
 25 22  1  0  0  0  0
 26 25  1  0  0  0  0
 26 28  1  0  0  0  0
 27 28  1  0  0  0  0
 27 30  1  0  0  0  0
 29 27  2  0  0  0  0
 30 32  1  0  0  0  0
 31 33  1  0  0  0  0
 32 34  1  0  0  0  0
 32 31  1  0  0  0  0
 33 35  1  0  0  0  0
 34 36  1  0  0  0  0
 36 35  1  0  0  0  0
 37 38  1  0  0  0  0
 38 39  1  0  0  0  0
 40 39  2  0  0  0  0
 42 39  1  6  0  0  0
 42 44  1  0  0  0  0
 43 45  1  0  0  0  0
 43 42  1  0  0  0  0
 44 41  2  0  0  0  0
 45 46  1  0  0  0  0
 46 47  1  6  0  0  0
 46 41  1  0  0  0  0
 47 48  1  0  0  0  0
 48 49  1  0  0  0  0
M  END
>  <MODEL>
4

>  <REMARK>
 VINA RESULT:      -6.6      2.189      4.618
  Name = 
  13 active torsions:
  status: ('A' for Active; 'I' for Inactive)
    1  A    between atoms: C_1  and  C_13
    2  A    between atoms: C_2  and  C_32
    3  A    between atoms: N_4  and  C_32
    4  A    between atoms: N_7  and  C_35
    5  A    between atoms: C_8  and  C_43
    6  A    between atoms: C_16  and  C_41
    7  A    between atoms: C_16  and  C_43
    8  A    between atoms: N_21  and  C_22
    9  A    between atoms: N_21  and  S_38
   10  A    between atoms: C_26  and  O_31
   11  A    between atoms: C_26  and  C_46
   12  A    between atoms: C_28  and  C_41
   13  A    between atoms: C_35  and  S_38
                            x       y       z     vdW  Elec       q    Type
                         _______ _______ _______ _____ _____    ______ ____

>  <TORSDO>
F 13

$$$$
=
 OpenBabel11042414113D

 49 53  0  0  1  0  0  0  0  0999 V2000
  190.9200  173.1210  140.5440 C   0  0  0  0  0  2  0  0  0  0  0  0
  193.6430  172.8730  141.1220 C   0  0  2  0  0  3  0  0  0  0  0  0
  190.6300  171.8810  144.1780 C   0  0  1  0  0  3  0  0  0  0  0  0
  193.2460  172.3880  139.7210 C   0  0  0  0  0  2  0  0  0  0  0  0
  192.7050  172.2370  142.1630 C   0  0  1  0  0  3  0  0  0  0  0  0
  191.7860  172.7040  139.3440 C   0  0  2  0  0  3  0  0  0  0  0  0
  192.9800  172.7380  143.5840 C   0  0  0  0  0  2  0  0  0  0  0  0
  191.2020  172.2530  141.7680 C   0  0  1  0  0  3  0  0  0  0  0  0
  190.2930  172.6780  142.9200 C   0  0  0  0  0  2  0  0  0  0  0  0
  192.1020  172.0090  144.6010 C   0  0  0  0  0  2  0  0  0  0  0  0
  189.7520  172.3070  145.2970 C   0  0  0  0  0  3  0  0  0  0  0  0
  189.8260  174.7780  146.1370 C   0  0  0  0  0  0  0  0  0  0  0  0
  187.0390  177.3510  146.3660 C   0  0  0  0  0  1  0  0  0  0  0  0
  189.7890  173.5380  145.7200 C   0  0  0  0  0  0  0  0  0  0  0  0
  189.4520  177.6130  145.8310 C   0  0  0  0  0  2  0  0  0  0  0  0
  192.0520  174.9770  145.2560 O   0  0  0  0  0  1  0  0  0  0  0  0
  191.0590  175.6410  145.9820 C   0  0  1  0  0  0  0  0  0  0  0  0
  190.6890  176.9310  145.2380 C   0  0  0  0  0  2  0  0  0  0  0  0
  188.5660  175.4140  146.6330 C   0  0  0  0  0  2  0  0  0  0  0  0
  188.2610  176.6570  145.8060 C   0  0  1  0  0  3  0  0  0  0  0  0
  191.6170  175.9850  147.3500 C   0  0  0  0  0  1  0  0  0  0  0  0
  191.7780  173.7500  138.3300 N   0  0  0  0  0  2  0  0  0  0  0  0
  190.8860  174.2750  135.8990 O   0  0  0  0  0  0  0  0  0  0  0  0
  191.1290  171.9340  136.5470 O   0  0  0  0  0  0  0  0  0  0  0  0
  190.7300  173.2990  137.0280 S   0  0  0  0  0  0  0  0  0  0  0  0
  189.0230  173.2770  137.5550 C   0  0  0  0  0  2  0  0  0  0  0  0
  188.0610  174.4310  139.5870 C   0  0  0  0  0  0  0  0  0  0  0  0
  188.7180  174.4800  138.3160 N   0  0  0  0  0  2  0  0  0  0  0  0
  187.8430  173.3260  140.1540 O   0  0  0  0  0  0  0  0  0  0  0  0
  187.6410  175.6960  140.2540 C   0  0  0  0  0  2  0  0  0  0  0  0
  186.6790  176.0690  142.4030 C   0  0  0  0  0  2  0  0  0  0  0  0
  187.8830  175.6140  141.6910 N   0  0  0  0  0  0  0  0  0  0  0  0
  186.5270  177.5940  142.3350 C   0  0  0  0  0  2  0  0  0  0  0  0
  189.0520  176.4350  142.0410 C   0  0  0  0  0  2  0  0  0  0  0  0
  187.6650  178.2090  142.8790 O   0  0  0  0  0  0  0  0  0  0  0  0
  188.7230  177.9310  142.0000 C   0  0  0  0  0  2  0  0  0  0  0  0
  193.6450  174.4040  141.1980 C   0  0  0  0  0  2  0  0  0  0  0  0
  194.9780  174.9370  141.7000 C   0  0  0  0  0  2  0  0  0  0  0  0
  194.7910  175.8470  142.8740 C   0  0  0  0  0  0  0  0  0  0  0  0
  193.7450  176.4700  142.9940 O   0  0  0  0  0  0  0  0  0  0  0  0
  197.4070  174.0290  144.3720 C   0  0  0  0  0  3  0  0  0  0  0  0
  195.8650  175.9500  143.9160 C   0  0  1  0  0  3  0  0  0  0  0  0
  195.3120  175.7570  145.3380 C   0  0  0  0  0  2  0  0  0  0  0  0
  197.0190  175.0360  143.5770 C   0  0  0  0  0  3  0  0  0  0  0  0
  195.3290  174.2860  145.7400 C   0  0  0  0  0  2  0  0  0  0  0  0
  196.7680  173.7860  145.7150 C   0  0  1  0  0  3  0  0  0  0  0  0
  196.8150  172.3060  146.0680 C   0  0  0  0  0  2  0  0  0  0  0  0
  195.5720  171.7220  145.8260 O   0  0  0  0  0  0  0  0  0  0  0  0
  195.8360  170.6990  144.9130 C   0  0  0  0  0  1  0  0  0  0  0  0
  2 37  1  6  0  0  0
  2  5  1  0  0  0  0
  3 10  1  0  0  0  0
  3 11  1  1  0  0  0
  4  2  1  0  0  0  0
  5  7  1  1  0  0  0
  6 22  1  6  0  0  0
  6  4  1  0  0  0  0
  6  1  1  0  0  0  0
  7 10  1  0  0  0  0
  8  1  1  6  0  0  0
  8  5  1  0  0  0  0
  8  9  1  0  0  0  0
  9  3  1  0  0  0  0
 11 14  2  0  0  0  0
 12 19  1  0  0  0  0
 14 12  2  0  0  0  0
 16 17  1  0  0  0  0
 17 12  1  0  0  0  0
 17 21  1  1  0  0  0
 18 15  1  0  0  0  0
 18 17  1  0  0  0  0
 20 15  1  0  0  0  0
 20 13  1  1  0  0  0
 20 19  1  0  0  0  0
 23 25  2  0  0  0  0
 24 25  2  0  0  0  0
 25 26  1  0  0  0  0
 25 22  1  0  0  0  0
 26 28  1  0  0  0  0
 27 29  2  0  0  0  0
 27 30  1  0  0  0  0
 28 27  1  0  0  0  0
 30 32  1  0  0  0  0
 32 34  1  0  0  0  0
 32 31  1  0  0  0  0
 33 31  1  0  0  0  0
 33 35  1  0  0  0  0
 36 34  1  0  0  0  0
 36 35  1  0  0  0  0
 37 38  1  0  0  0  0
 38 39  1  0  0  0  0
 39 40  2  0  0  0  0
 41 46  1  0  0  0  0
 42 39  1  6  0  0  0
 42 43  1  0  0  0  0
 43 45  1  0  0  0  0
 44 42  1  0  0  0  0
 44 41  2  0  0  0  0
 46 45  1  0  0  0  0
 46 47  1  6  0  0  0
 48 47  1  0  0  0  0
 49 48  1  0  0  0  0
M  END
>  <MODEL>
5

>  <REMARK>
 VINA RESULT:      -6.5      2.283      4.631
  Name = 
  13 active torsions:
  status: ('A' for Active; 'I' for Inactive)
    1  A    between atoms: C_1  and  C_13
    2  A    between atoms: C_2  and  C_32
    3  A    between atoms: N_4  and  C_32
    4  A    between atoms: N_7  and  C_35
    5  A    between atoms: C_8  and  C_43
    6  A    between atoms: C_16  and  C_41
    7  A    between atoms: C_16  and  C_43
    8  A    between atoms: N_21  and  C_22
    9  A    between atoms: N_21  and  S_38
   10  A    between atoms: C_26  and  O_31
   11  A    between atoms: C_26  and  C_46
   12  A    between atoms: C_28  and  C_41
   13  A    between atoms: C_35  and  S_38
                            x       y       z     vdW  Elec       q    Type
                         _______ _______ _______ _____ _____    ______ ____

>  <TORSDO>
F 13

$$$$
=
 OpenBabel11042414113D

 49 53  0  0  1  0  0  0  0  0999 V2000
  192.8160  174.0830  142.0850 C   0  0  0  0  0  2  0  0  0  0  0  0
  192.8770  172.3900  139.8620 C   0  0  2  0  0  3  0  0  0  0  0  0
  189.1010  174.2960  141.0920 C   0  0  1  0  0  3  0  0  0  0  0  0
  194.0810  173.3360  139.9720 C   0  0  0  0  0  2  0  0  0  0  0  0
  191.5790  173.2010  140.0160 C   0  0  1  0  0  3  0  0  0  0  0  0
  194.1330  174.1270  141.2930 C   0  0  2  0  0  3  0  0  0  0  0  0
  190.3290  172.3160  140.0050 C   0  0  0  0  0  2  0  0  0  0  0  0
  191.6040  174.2430  141.1700 C   0  0  1  0  0  3  0  0  0  0  0  0
  190.3240  174.2320  142.0030 C   0  0  0  0  0  2  0  0  0  0  0  0
  189.0580  173.1630  140.0550 C   0  0  0  0  0  2  0  0  0  0  0  0
  187.8610  174.2740  141.9070 C   0  0  0  0  0  3  0  0  0  0  0  0
  187.0370  176.4590  143.0770 C   0  0  0  0  0  0  0  0  0  0  0  0
  183.7240  178.2900  142.7440 C   0  0  0  0  0  1  0  0  0  0  0  0
  187.4490  175.3610  142.4940 C   0  0  0  0  0  0  0  0  0  0  0  0
  186.0310  179.1530  143.0820 C   0  0  0  0  0  2  0  0  0  0  0  0
  189.2860  177.2990  143.0200 O   0  0  0  0  0  1  0  0  0  0  0  0
  187.9890  177.5680  143.4650 C   0  0  1  0  0  0  0  0  0  0  0  0
  187.5190  178.8870  142.8380 C   0  0  0  0  0  2  0  0  0  0  0  0
  185.5660  176.6970  143.2150 C   0  0  0  0  0  2  0  0  0  0  0  0
  185.1930  178.0030  142.5250 C   0  0  1  0  0  3  0  0  0  0  0  0
  188.0220  177.7060  144.9760 C   0  0  0  0  0  1  0  0  0  0  0  0
  195.2260  173.6120  142.1050 N   0  0  0  0  0  2  0  0  0  0  0  0
  197.6050  174.7190  141.7880 O   0  0  0  0  0  0  0  0  0  0  0  0
  195.6860  176.1980  142.0950 O   0  0  0  0  0  0  0  0  0  0  0  0
  196.3070  174.8990  142.5210 S   0  0  0  0  0  0  0  0  0  0  0  0
  196.6230  174.9310  144.2800 C   0  0  0  0  0  2  0  0  0  0  0  0
  194.6280  175.6950  145.6290 C   0  0  0  0  0  0  0  0  0  0  0  0
  195.3960  174.6550  145.0130 N   0  0  0  0  0  2  0  0  0  0  0  0
  194.9200  176.9070  145.4390 O   0  0  0  0  0  0  0  0  0  0  0  0
  193.4630  175.3450  146.4910 C   0  0  0  0  0  2  0  0  0  0  0  0
  191.6970  176.4910  147.6090 C   0  0  0  0  0  2  0  0  0  0  0  0
  192.3990  176.3310  146.3270 N   0  0  0  0  0  0  0  0  0  0  0  0
  190.7860  175.2930  147.9060 C   0  0  0  0  0  2  0  0  0  0  0  0
  191.4790  175.8900  145.2660 C   0  0  0  0  0  2  0  0  0  0  0  0
  189.8550  175.1370  146.8680 O   0  0  0  0  0  0  0  0  0  0  0  0
  190.5860  174.7380  145.7390 C   0  0  0  0  0  2  0  0  0  0  0  0
  192.9750  171.2500  140.8820 C   0  0  0  0  0  2  0  0  0  0  0  0
  193.3750  169.9400  140.2210 C   0  0  0  0  0  2  0  0  0  0  0  0
  192.1710  169.1390  139.8340 C   0  0  0  0  0  0  0  0  0  0  0  0
  191.3790  168.7840  140.6970 O   0  0  0  0  0  0  0  0  0  0  0  0
  191.7900  170.6360  136.6700 C   0  0  0  0  0  3  0  0  0  0  0  0
  191.9210  168.8180  138.3900 C   0  0  1  0  0  3  0  0  0  0  0  0
  190.4360  168.5370  138.1080 C   0  0  0  0  0  2  0  0  0  0  0  0
  192.5230  169.8820  137.5010 C   0  0  0  0  0  3  0  0  0  0  0  0
  189.6900  169.8200  137.7550 C   0  0  0  0  0  2  0  0  0  0  0  0
  190.3090  170.4190  136.4990 C   0  0  1  0  0  3  0  0  0  0  0  0
  189.6150  171.7270  136.1450 C   0  0  0  0  0  2  0  0  0  0  0  0
  190.4390  172.8030  136.4750 O   0  0  0  0  0  0  0  0  0  0  0  0
  190.0750  173.8100  135.5800 C   0  0  0  0  0  1  0  0  0  0  0  0
  2  4  1  0  0  0  0
  2  5  1  0  0  0  0
  2 37  1  1  0  0  0
  3 11  1  1  0  0  0
  3  9  1  0  0  0  0
  4  6  1  0  0  0  0
  5  7  1  1  0  0  0
  5  8  1  0  0  0  0
  6  1  1  0  0  0  0
  6 22  1  1  0  0  0
  7 10  1  0  0  0  0
  8  9  1  1  0  0  0
  8  1  1  0  0  0  0
 10  3  1  0  0  0  0
 11 14  2  0  0  0  0
 12 19  1  0  0  0  0
 12 17  1  0  0  0  0
 14 12  2  0  0  0  0
 16 17  1  0  0  0  0
 17 21  1  1  0  0  0
 18 15  1  0  0  0  0
 18 17  1  0  0  0  0
 20 13  1  1  0  0  0
 20 15  1  0  0  0  0
 20 19  1  0  0  0  0
 22 25  1  0  0  0  0
 23 25  2  0  0  0  0
 24 25  2  0  0  0  0
 25 26  1  0  0  0  0
 26 28  1  0  0  0  0
 27 30  1  0  0  0  0
 28 27  1  0  0  0  0
 29 27  2  0  0  0  0
 31 33  1  0  0  0  0
 32 30  1  0  0  0  0
 32 31  1  0  0  0  0
 34 36  1  0  0  0  0
 34 32  1  0  0  0  0
 35 33  1  0  0  0  0
 36 35  1  0  0  0  0
 38 37  1  0  0  0  0
 39 38  1  0  0  0  0
 39 40  2  0  0  0  0
 41 44  2  0  0  0  0
 42 39  1  1  0  0  0
 43 42  1  0  0  0  0
 44 42  1  0  0  0  0
 45 43  1  0  0  0  0
 46 47  1  1  0  0  0
 46 41  1  0  0  0  0
 46 45  1  0  0  0  0
 47 48  1  0  0  0  0
 49 48  1  0  0  0  0
M  END
>  <MODEL>
6

>  <REMARK>
 VINA RESULT:      -6.4      2.708      6.269
  Name = 
  13 active torsions:
  status: ('A' for Active; 'I' for Inactive)
    1  A    between atoms: C_1  and  C_13
    2  A    between atoms: C_2  and  C_32
    3  A    between atoms: N_4  and  C_32
    4  A    between atoms: N_7  and  C_35
    5  A    between atoms: C_8  and  C_43
    6  A    between atoms: C_16  and  C_41
    7  A    between atoms: C_16  and  C_43
    8  A    between atoms: N_21  and  C_22
    9  A    between atoms: N_21  and  S_38
   10  A    between atoms: C_26  and  O_31
   11  A    between atoms: C_26  and  C_46
   12  A    between atoms: C_28  and  C_41
   13  A    between atoms: C_35  and  S_38
                            x       y       z     vdW  Elec       q    Type
                         _______ _______ _______ _____ _____    ______ ____

>  <TORSDO>
F 13

$$$$
=
 OpenBabel11042414113D

 49 53  0  0  1  0  0  0  0  0999 V2000
  191.8080  173.8460  143.8380 C   0  0  0  0  0  2  0  0  0  0  0  0
  193.8470  173.7870  145.7480 C   0  0  2  0  0  3  0  0  0  0  0  0
  190.2690  176.2690  146.4050 C   0  0  1  0  0  3  0  0  0  0  0  0
  193.5140  172.4200  145.1330 C   0  0  0  0  0  2  0  0  0  0  0  0
  192.5470  174.4610  146.2180 C   0  0  1  0  0  3  0  0  0  0  0  0
  192.5270  172.4920  143.9520 C   0  0  2  0  0  3  0  0  0  0  0  0
  192.7830  175.8710  146.7670 C   0  0  0  0  0  2  0  0  0  0  0  0
  191.3710  174.3670  145.2050 C   0  0  1  0  0  3  0  0  0  0  0  0
  190.6280  175.6910  145.0390 C   0  0  0  0  0  2  0  0  0  0  0  0
  191.4880  176.4680  147.3190 C   0  0  0  0  0  2  0  0  0  0  0  0
  189.5570  177.5620  146.2360 C   0  0  0  0  0  3  0  0  0  0  0  0
  187.7230  177.8020  144.3930 C   0  0  0  0  0  0  0  0  0  0  0  0
  184.0620  178.7680  144.7210 C   0  0  0  0  0  1  0  0  0  0  0  0
  188.6440  177.6850  145.3160 C   0  0  0  0  0  0  0  0  0  0  0  0
  185.1900  177.1720  143.1850 C   0  0  0  0  0  2  0  0  0  0  0  0
  188.7480  175.9990  143.1830 O   0  0  0  0  0  1  0  0  0  0  0  0
  187.7280  176.9530  143.1410 C   0  0  1  0  0  0  0  0  0  0  0  0
  186.3830  176.2280  143.0100 C   0  0  0  0  0  2  0  0  0  0  0  0
  186.5410  178.6810  144.6570 C   0  0  0  0  0  2  0  0  0  0  0  0
  185.2600  177.8620  144.5460 C   0  0  1  0  0  3  0  0  0  0  0  0
  187.9510  177.8370  141.9270 C   0  0  0  0  0  1  0  0  0  0  0  0
  193.2480  172.2000  142.7200 N   0  0  0  0  0  2  0  0  0  0  0  0
  194.6020  169.9410  142.5120 O   0  0  0  0  0  0  0  0  0  0  0  0
  192.3480  169.8420  143.4470 O   0  0  0  0  0  0  0  0  0  0  0  0
  193.2120  170.4970  142.4080 S   0  0  0  0  0  0  0  0  0  0  0  0
  192.5610  170.1560  140.7800 C   0  0  0  0  0  2  0  0  0  0  0  0
  190.6650  171.8130  140.5670 C   0  0  0  0  0  0  0  0  0  0  0  0
  191.9770  171.3620  140.2120 N   0  0  0  0  0  2  0  0  0  0  0  0
  190.0220  171.2470  141.4930 O   0  0  0  0  0  0  0  0  0  0  0  0
  190.0570  172.9680  139.8480 C   0  0  0  0  0  2  0  0  0  0  0  0
  189.3490  171.5200  138.0910 C   0  0  0  0  0  2  0  0  0  0  0  0
  188.9060  172.5280  139.0660 N   0  0  0  0  0  0  0  0  0  0  0  0
  190.1180  172.1610  136.9290 C   0  0  0  0  0  2  0  0  0  0  0  0
  188.2940  173.6860  138.3960 C   0  0  0  0  0  2  0  0  0  0  0  0
  189.3100  173.1160  136.2950 O   0  0  0  0  0  0  0  0  0  0  0  0
  189.1430  174.1640  137.2120 C   0  0  0  0  0  2  0  0  0  0  0  0
  194.6330  174.6600  144.7630 C   0  0  0  0  0  2  0  0  0  0  0  0
  195.8970  175.2210  145.3970 C   0  0  0  0  0  2  0  0  0  0  0  0
  196.9560  174.1700  145.5140 C   0  0  0  0  0  0  0  0  0  0  0  0
  196.9880  173.4510  146.5030 O   0  0  0  0  0  0  0  0  0  0  0  0
  197.5390  174.9810  142.1380 C   0  0  0  0  0  3  0  0  0  0  0  0
  197.9410  173.9770  144.3980 C   0  0  1  0  0  3  0  0  0  0  0  0
  197.8000  172.5970  143.7350 C   0  0  0  0  0  2  0  0  0  0  0  0
  197.8720  175.1330  143.4270 C   0  0  0  0  0  3  0  0  0  0  0  0
  196.7960  172.6360  142.5880 C   0  0  0  0  0  2  0  0  0  0  0  0
  197.2900  173.6220  141.5360 C   0  0  1  0  0  3  0  0  0  0  0  0
  196.2860  173.7200  140.3960 C   0  0  0  0  0  2  0  0  0  0  0  0
  196.3010  175.0080  139.8620 O   0  0  0  0  0  0  0  0  0  0  0  0
  195.4460  174.9410  138.7600 C   0  0  0  0  0  1  0  0  0  0  0  0
  1  6  1  0  0  0  0
  2 37  1  6  0  0  0
  2  5  1  0  0  0  0
  3 11  1  6  0  0  0
  3 10  1  0  0  0  0
  4  2  1  0  0  0  0
  5  7  1  6  0  0  0
  6 22  1  6  0  0  0
  6  4  1  0  0  0  0
  7 10  1  0  0  0  0
  8  1  1  6  0  0  0
  8  5  1  0  0  0  0
  9  8  1  0  0  0  0
  9  3  1  0  0  0  0
 12 19  1  0  0  0  0
 12 14  2  0  0  0  0
 14 11  2  0  0  0  0
 15 20  1  0  0  0  0
 17 21  1  6  0  0  0
 17 16  1  0  0  0  0
 17 12  1  0  0  0  0
 18 17  1  0  0  0  0
 18 15  1  0  0  0  0
 20 19  1  0  0  0  0
 20 13  1  6  0  0  0
 25 23  2  0  0  0  0
 25 22  1  0  0  0  0
 25 24  2  0  0  0  0
 26 25  1  0  0  0  0
 27 29  2  0  0  0  0
 28 27  1  0  0  0  0
 28 26  1  0  0  0  0
 30 27  1  0  0  0  0
 31 32  1  0  0  0  0
 32 30  1  0  0  0  0
 33 31  1  0  0  0  0
 34 32  1  0  0  0  0
 35 33  1  0  0  0  0
 35 36  1  0  0  0  0
 36 34  1  0  0  0  0
 37 38  1  0  0  0  0
 38 39  1  0  0  0  0
 39 40  2  0  0  0  0
 41 44  2  0  0  0  0
 42 39  1  1  0  0  0
 43 42  1  0  0  0  0
 44 42  1  0  0  0  0
 45 43  1  0  0  0  0
 46 47  1  6  0  0  0
 46 41  1  0  0  0  0
 46 45  1  0  0  0  0
 48 47  1  0  0  0  0
 49 48  1  0  0  0  0
M  END
>  <MODEL>
7

>  <REMARK>
 VINA RESULT:      -6.3      2.042      3.408
  Name = 
  13 active torsions:
  status: ('A' for Active; 'I' for Inactive)
    1  A    between atoms: C_1  and  C_13
    2  A    between atoms: C_2  and  C_32
    3  A    between atoms: N_4  and  C_32
    4  A    between atoms: N_7  and  C_35
    5  A    between atoms: C_8  and  C_43
    6  A    between atoms: C_16  and  C_41
    7  A    between atoms: C_16  and  C_43
    8  A    between atoms: N_21  and  C_22
    9  A    between atoms: N_21  and  S_38
   10  A    between atoms: C_26  and  O_31
   11  A    between atoms: C_26  and  C_46
   12  A    between atoms: C_28  and  C_41
   13  A    between atoms: C_35  and  S_38
                            x       y       z     vdW  Elec       q    Type
                         _______ _______ _______ _____ _____    ______ ____

>  <TORSDO>
F 13

$$$$
=
 OpenBabel11042414113D

 49 53  0  0  1  0  0  0  0  0999 V2000
  191.0250  173.8900  143.8350 C   0  0  0  0  0  2  0  0  0  0  0  0
  193.5550  173.8780  145.0210 C   0  0  2  0  0  3  0  0  0  0  0  0
  190.2860  176.2370  146.7960 C   0  0  1  0  0  3  0  0  0  0  0  0
  193.0870  172.5080  144.5130 C   0  0  0  0  0  2  0  0  0  0  0  0
  192.4450  174.5060  145.8820 C   0  0  1  0  0  3  0  0  0  0  0  0
  191.7820  172.5590  143.6950 C   0  0  2  0  0  3  0  0  0  0  0  0
  192.7990  175.9180  146.3590 C   0  0  0  0  0  2  0  0  0  0  0  0
  191.0170  174.3840  145.2790 C   0  0  1  0  0  3  0  0  0  0  0  0
  190.2220  175.6840  145.3750 C   0  0  0  0  0  2  0  0  0  0  0  0
  191.7210  176.4660  147.2940 C   0  0  0  0  0  2  0  0  0  0  0  0
  189.5210  177.5080  146.8800 C   0  0  0  0  0  3  0  0  0  0  0  0
  187.5020  177.9140  145.2740 C   0  0  0  0  0  0  0  0  0  0  0  0
  183.8660  178.6630  146.0860 C   0  0  0  0  0  1  0  0  0  0  0  0
  188.5160  177.7140  146.0780 C   0  0  0  0  0  0  0  0  0  0  0  0
  184.8800  177.3420  144.2400 C   0  0  0  0  0  2  0  0  0  0  0  0
  188.4540  176.3400  143.7300 O   0  0  0  0  0  1  0  0  0  0  0  0
  187.4060  177.2450  143.9210 C   0  0  1  0  0  0  0  0  0  0  0  0
  186.0780  176.4850  143.8200 C   0  0  0  0  0  2  0  0  0  0  0  0
  186.3270  178.6950  145.7710 C   0  0  0  0  0  2  0  0  0  0  0  0
  185.0670  177.8430  145.6710 C   0  0  1  0  0  3  0  0  0  0  0  0
  187.4760  178.2950  142.8270 C   0  0  0  0  0  1  0  0  0  0  0  0
  192.0950  172.3020  142.2960 N   0  0  0  0  0  2  0  0  0  0  0  0
  191.6540  169.7120  142.0150 O   0  0  0  0  0  0  0  0  0  0  0  0
  189.7250  171.1710  142.3500 O   0  0  0  0  0  0  0  0  0  0  0  0
  191.0650  171.0520  141.6840 S   0  0  0  0  0  0  0  0  0  0  0  0
  190.8710  171.1890  139.9130 C   0  0  0  0  0  2  0  0  0  0  0  0
  191.9430  172.9400  138.4400 C   0  0  0  0  0  0  0  0  0  0  0  0
  192.0450  171.8220  139.3290 N   0  0  0  0  0  2  0  0  0  0  0  0
  190.8320  173.5000  138.2380 O   0  0  0  0  0  0  0  0  0  0  0  0
  193.1630  173.4560  137.7550 C   0  0  0  0  0  2  0  0  0  0  0  0
  194.2700  175.4760  137.1420 C   0  0  0  0  0  2  0  0  0  0  0  0
  193.4240  174.8340  138.1590 N   0  0  0  0  0  0  0  0  0  0  0  0
  195.7220  174.9880  137.2280 C   0  0  0  0  0  2  0  0  0  0  0  0
  194.0740  174.8450  139.4790 C   0  0  0  0  0  2  0  0  0  0  0  0
  196.2350  175.2450  138.5080 O   0  0  0  0  0  0  0  0  0  0  0  0
  195.5390  174.4030  139.3890 C   0  0  0  0  0  2  0  0  0  0  0  0
  193.9730  174.7860  143.8590 C   0  0  0  0  0  2  0  0  0  0  0  0
  195.1830  174.2300  143.1220 C   0  0  0  0  0  2  0  0  0  0  0  0
  196.4550  174.8180  143.6470 C   0  0  0  0  0  0  0  0  0  0  0  0
  196.5760  176.0330  143.7120 O   0  0  0  0  0  0  0  0  0  0  0  0
  197.2960  171.4230  144.0470 C   0  0  0  0  0  3  0  0  0  0  0  0
  197.5500  173.9140  144.1320 C   0  0  1  0  0  3  0  0  0  0  0  0
  197.5620  173.7920  145.6660 C   0  0  0  0  0  2  0  0  0  0  0  0
  197.4960  172.5870  143.4130 C   0  0  0  0  0  3  0  0  0  0  0  0
  196.6700  172.6480  146.1350 C   0  0  0  0  0  2  0  0  0  0  0  0
  197.1940  171.3430  145.5480 C   0  0  1  0  0  3  0  0  0  0  0  0
  196.2960  170.1850  145.9610 C   0  0  0  0  0  2  0  0  0  0  0  0
  197.0750  169.0690  146.2680 O   0  0  0  0  0  0  0  0  0  0  0  0
  196.8430  168.8420  147.6250 C   0  0  0  0  0  1  0  0  0  0  0  0
  2 37  1  6  0  0  0
  2  5  1  0  0  0  0
  3 11  1  6  0  0  0
  3 10  1  0  0  0  0
  4  2  1  0  0  0  0
  5  7  1  6  0  0  0
  6 22  1  6  0  0  0
  6  1  1  0  0  0  0
  6  4  1  0  0  0  0
  7 10  1  0  0  0  0
  8  1  1  6  0  0  0
  8  9  1  0  0  0  0
  8  5  1  0  0  0  0
  9  3  1  0  0  0  0
 12 19  1  0  0  0  0
 12 14  2  0  0  0  0
 14 11  2  0  0  0  0
 15 20  1  0  0  0  0
 16 17  1  0  0  0  0
 17 21  1  6  0  0  0
 17 12  1  0  0  0  0
 18 17  1  0  0  0  0
 18 15  1  0  0  0  0
 20 19  1  0  0  0  0
 20 13  1  6  0  0  0
 25 23  2  0  0  0  0
 25 22  1  0  0  0  0
 25 24  2  0  0  0  0
 26 25  1  0  0  0  0
 27 28  1  0  0  0  0
 28 26  1  0  0  0  0
 29 27  2  0  0  0  0
 30 32  1  0  0  0  0
 30 27  1  0  0  0  0
 31 33  1  0  0  0  0
 31 32  1  0  0  0  0
 32 34  1  0  0  0  0
 33 35  1  0  0  0  0
 35 36  1  0  0  0  0
 36 34  1  0  0  0  0
 38 39  1  0  0  0  0
 38 37  1  0  0  0  0
 39 40  2  0  0  0  0
 41 46  1  0  0  0  0
 42 39  1  1  0  0  0
 42 43  1  0  0  0  0
 43 45  1  0  0  0  0
 44 41  2  0  0  0  0
 44 42  1  0  0  0  0
 46 47  1  6  0  0  0
 46 45  1  0  0  0  0
 47 48  1  0  0  0  0
 48 49  1  0  0  0  0
M  END
>  <MODEL>
8

>  <REMARK>
 VINA RESULT:      -6.3      2.032      3.781
  Name = 
  13 active torsions:
  status: ('A' for Active; 'I' for Inactive)
    1  A    between atoms: C_1  and  C_13
    2  A    between atoms: C_2  and  C_32
    3  A    between atoms: N_4  and  C_32
    4  A    between atoms: N_7  and  C_35
    5  A    between atoms: C_8  and  C_43
    6  A    between atoms: C_16  and  C_41
    7  A    between atoms: C_16  and  C_43
    8  A    between atoms: N_21  and  C_22
    9  A    between atoms: N_21  and  S_38
   10  A    between atoms: C_26  and  O_31
   11  A    between atoms: C_26  and  C_46
   12  A    between atoms: C_28  and  C_41
   13  A    between atoms: C_35  and  S_38
                            x       y       z     vdW  Elec       q    Type
                         _______ _______ _______ _____ _____    ______ ____

>  <TORSDO>
F 13

$$$$
=
 OpenBabel11042414113D

 49 53  0  0  1  0  0  0  0  0999 V2000
  189.7500  174.6950  142.2710 C   0  0  0  0  0  2  0  0  0  0  0  0
  188.8170  172.2570  141.2760 C   0  0  2  0  0  3  0  0  0  0  0  0
  192.2710  172.3580  144.0070 C   0  0  1  0  0  3  0  0  0  0  0  0
  187.7110  173.2400  141.6840 C   0  0  0  0  0  2  0  0  0  0  0  0
  189.8350  172.1350  142.4230 C   0  0  1  0  0  3  0  0  0  0  0  0
  188.2300  174.6440  142.0500 C   0  0  2  0  0  3  0  0  0  0  0  0
  191.0210  171.2350  142.0620 C   0  0  0  0  0  2  0  0  0  0  0  0
  190.2440  173.4890  143.0670 C   0  0  1  0  0  3  0  0  0  0  0  0
  191.7490  173.6040  143.2950 C   0  0  0  0  0  2  0  0  0  0  0  0
  191.9550  171.0550  143.2580 C   0  0  0  0  0  2  0  0  0  0  0  0
  193.7370  172.4710  144.2160 C   0  0  0  0  0  3  0  0  0  0  0  0
  195.1870  173.8340  142.5250 C   0  0  0  0  0  0  0  0  0  0  0  0
  197.4640  176.8150  143.1310 C   0  0  0  0  0  1  0  0  0  0  0  0
  194.4630  173.1470  143.3730 C   0  0  0  0  0  0  0  0  0  0  0  0
  196.0040  176.2520  141.2000 C   0  0  0  0  0  2  0  0  0  0  0  0
  193.5040  173.4830  140.8480 O   0  0  0  0  0  1  0  0  0  0  0  0
  194.7710  174.0250  141.0840 C   0  0  1  0  0  0  0  0  0  0  0  0
  194.7310  175.5230  140.7580 C   0  0  0  0  0  2  0  0  0  0  0  0
  196.3750  174.5880  143.0330 C   0  0  0  0  0  2  0  0  0  0  0  0
  196.2220  176.0670  142.7000 C   0  0  1  0  0  3  0  0  0  0  0  0
  195.7640  173.3320  140.1700 C   0  0  0  0  0  1  0  0  0  0  0  0
  187.8420  175.5760  141.0000 N   0  0  0  0  0  2  0  0  0  0  0  0
  186.0000  177.4360  140.6440 O   0  0  0  0  0  0  0  0  0  0  0  0
  186.1230  176.3520  142.8280 O   0  0  0  0  0  0  0  0  0  0  0  0
  186.9330  176.8830  141.6810 S   0  0  0  0  0  0  0  0  0  0  0  0
  188.0120  178.1850  142.2570 C   0  0  0  0  0  2  0  0  0  0  0  0
  189.7310  177.9040  144.0880 C   0  0  0  0  0  0  0  0  0  0  0  0
  188.3690  177.9600  143.6500 N   0  0  0  0  0  2  0  0  0  0  0  0
  190.6710  178.1860  143.2960 O   0  0  0  0  0  0  0  0  0  0  0  0
  190.0420  177.5240  145.4950 C   0  0  0  0  0  2  0  0  0  0  0  0
  189.8820  175.2030  146.0190 C   0  0  0  0  0  2  0  0  0  0  0  0
  190.7770  176.2620  145.5270 N   0  0  0  0  0  0  0  0  0  0  0  0
  189.6550  175.3150  147.5320 C   0  0  0  0  0  2  0  0  0  0  0  0
  191.9610  176.4040  146.3890 C   0  0  0  0  0  2  0  0  0  0  0  0
  190.8860  175.2510  148.2020 O   0  0  0  0  0  0  0  0  0  0  0  0
  191.5770  176.4260  147.8730 C   0  0  0  0  0  2  0  0  0  0  0  0
  189.4740  172.6790  139.9570 C   0  0  0  0  0  2  0  0  0  0  0  0
  188.5740  172.3890  138.7650 C   0  0  0  0  0  2  0  0  0  0  0  0
  188.7150  173.4430  137.7110 C   0  0  0  0  0  0  0  0  0  0  0  0
  188.1570  174.5210  137.8570 O   0  0  0  0  0  0  0  0  0  0  0  0
  190.7100  170.9730  136.1890 C   0  0  0  0  0  3  0  0  0  0  0  0
  189.5750  173.1840  136.5090 C   0  0  1  0  0  3  0  0  0  0  0  0
  190.9740  173.8050  136.6550 C   0  0  0  0  0  2  0  0  0  0  0  0
  189.5900  171.7100  136.1780 C   0  0  0  0  0  3  0  0  0  0  0  0
  191.9420  172.8320  137.3200 C   0  0  0  0  0  2  0  0  0  0  0  0
  192.0610  171.5860  136.4520 C   0  0  1  0  0  3  0  0  0  0  0  0
  192.9870  170.5740  137.1110 C   0  0  0  0  0  2  0  0  0  0  0  0
  193.8960  171.2330  137.9390 O   0  0  0  0  0  0  0  0  0  0  0  0
  194.7380  170.2240  138.4090 C   0  0  0  0  0  1  0  0  0  0  0  0
  2 37  1  6  0  0  0
  2  4  1  0  0  0  0
  2  5  1  0  0  0  0
  3 11  1  6  0  0  0
  4  6  1  0  0  0  0
  5  7  1  6  0  0  0
  5  8  1  0  0  0  0
  6 22  1  6  0  0  0
  6  1  1  0  0  0  0
  7 10  1  0  0  0  0
  8  1  1  6  0  0  0
  8  9  1  0  0  0  0
  9  3  1  0  0  0  0
 10  3  1  0  0  0  0
 12 19  1  0  0  0  0
 12 14  2  0  0  0  0
 14 11  2  0  0  0  0
 15 20  1  0  0  0  0
 16 17  1  0  0  0  0
 17 21  1  6  0  0  0
 17 12  1  0  0  0  0
 18 17  1  0  0  0  0
 18 15  1  0  0  0  0
 20 19  1  0  0  0  0
 20 13  1  6  0  0  0
 22 25  1  0  0  0  0
 23 25  2  0  0  0  0
 25 26  1  0  0  0  0
 25 24  2  0  0  0  0
 26 28  1  0  0  0  0
 27 30  1  0  0  0  0
 28 27  1  0  0  0  0
 29 27  2  0  0  0  0
 30 32  1  0  0  0  0
 31 33  1  0  0  0  0
 32 31  1  0  0  0  0
 32 34  1  0  0  0  0
 33 35  1  0  0  0  0
 34 36  1  0  0  0  0
 36 35  1  0  0  0  0
 38 37  1  0  0  0  0
 39 40  2  0  0  0  0
 39 38  1  0  0  0  0
 41 46  1  0  0  0  0
 42 43  1  0  0  0  0
 42 39  1  1  0  0  0
 43 45  1  0  0  0  0
 44 41  2  0  0  0  0
 44 42  1  0  0  0  0
 46 47  1  1  0  0  0
 46 45  1  0  0  0  0
 47 48  1  0  0  0  0
 48 49  1  0  0  0  0
M  END
>  <MODEL>
9

>  <REMARK>
 VINA RESULT:      -6.1      3.287      8.562
  Name = 
  13 active torsions:
  status: ('A' for Active; 'I' for Inactive)
    1  A    between atoms: C_1  and  C_13
    2  A    between atoms: C_2  and  C_32
    3  A    between atoms: N_4  and  C_32
    4  A    between atoms: N_7  and  C_35
    5  A    between atoms: C_8  and  C_43
    6  A    between atoms: C_16  and  C_41
    7  A    between atoms: C_16  and  C_43
    8  A    between atoms: N_21  and  C_22
    9  A    between atoms: N_21  and  S_38
   10  A    between atoms: C_26  and  O_31
   11  A    between atoms: C_26  and  C_46
   12  A    between atoms: C_28  and  C_41
   13  A    between atoms: C_35  and  S_38
                            x       y       z     vdW  Elec       q    Type
                         _______ _______ _______ _____ _____    ______ ____

>  <TORSDO>
F 13

$$$$
