=
 OpenBabel11042417163D

 31 33  0  0  1  0  0  0  0  0999 V2000
  189.8890  174.3400  145.6490 C   0  0  0  0  0  2  0  0  0  0  0  0
  190.6290  173.9470  144.3740 C   0  0  0  0  0  2  0  0  0  0  0  0
  189.7570  174.1710  143.1450 C   0  0  0  0  0  2  0  0  0  0  0  0
  190.1350  175.4550  142.3880 C   0  0  0  0  0  2  0  0  0  0  0  0
  190.0020  176.7050  143.1570 N   0  0  0  0  0  0  0  0  0  0  0  0
  191.2980  177.3670  143.1990 C   0  0  0  0  0  1  0  0  0  0  0  0
  187.6390  177.2980  143.0470 C   0  0  1  0  0  3  0  0  0  0  0  0
  188.0730  176.8490  141.6690 C   0  0  0  0  0  2  0  0  0  0  0  0
  189.0380  177.6220  142.5490 C   0  0  2  0  0  3  0  0  0  0  0  0
  186.2230  178.4710  145.3490 N   0  0  0  0  0  2  0  0  0  0  0  0
  185.4370  180.1080  143.8780 O   0  0  0  0  0  0  0  0  0  0  0  0
  186.1300  179.0710  144.0530 C   0  0  0  0  0  0  0  0  0  0  0  0
  186.8270  178.5000  142.9440 N   0  0  0  0  0  2  0  0  0  0  0  0
  184.1900  178.2930  146.6780 C   0  0  0  0  0  1  0  0  0  0  0  0
  185.5230  179.0000  146.5110 C   0  0  1  0  0  3  0  0  0  0  0  0
  186.2980  178.7940  147.6510 O   0  0  0  0  0  1  0  0  0  0  0  0
  190.8080  175.0420  146.6420 C   0  0  2  0  0  3  0  0  0  0  0  0
  188.8410  176.5780  146.6070 C   0  0  0  0  0  1  0  0  0  0  0  0
  190.3210  176.4600  146.9090 C   0  0  0  0  0  2  0  0  0  0  0  0
  192.1800  175.0550  146.1450 N   0  0  0  0  0  0  0  0  0  0  0  0
  192.9070  176.0980  146.2220 N   0  0  0  0  0  0  0  0  0  0  0  0
  194.2500  176.1020  145.7340 C   0  0  0  0  0  0  0  0  0  0  0  0
  194.9030  177.1800  145.7400 O   0  0  0  0  0  0  0  0  0  0  0  0
  197.1130  174.4770  145.0600 N   0  0  0  0  0  0  0  0  0  0  0  0
  197.5520  175.4660  142.4350 S   0  0  0  0  0  0  0  0  0  0  0  0
  196.1210  176.5750  142.1490 C   0  0  0  0  0  2  0  0  0  0  0  0
  196.6260  174.7440  143.7670 C   0  0  2  0  0  3  0  0  0  0  0  0
  194.8710  175.9180  142.7370 C   0  0  0  0  0  2  0  0  0  0  0  0
  195.3620  175.0020  143.7950 C   0  0  2  0  0  3  0  0  0  0  0  0
  194.8720  174.8420  145.1990 C   0  0  1  0  0  3  0  0  0  0  0  0
  196.0570  174.4610  145.9880 N   0  0  0  0  0  0  0  0  0  0  0  0
  2  1  1  0  0  0  0
  3  2  1  0  0  0  0
  4  3  1  0  0  0  0
  4  5  1  0  0  0  0
  5  6  1  0  0  0  0
  7 13  1  6  0  0  0
  8  9  1  0  0  0  0
  8  7  1  0  0  0  0
  9  7  1  0  0  0  0
  9  5  1  1  0  0  0
 10 15  1  0  0  0  0
 11 12  2  0  0  0  0
 12 10  1  0  0  0  0
 13 12  1  0  0  0  0
 15 14  1  1  0  0  0
 15 16  1  0  0  0  0
 17  1  1  6  0  0  0
 17 19  1  0  0  0  0
 18 19  1  0  0  0  0
 20 21  2  0  0  0  0
 20 17  1  0  0  0  0
 22 23  2  0  0  0  0
 22 21  1  0  0  0  0
 24 31  2  0  0  0  0
 26 25  1  0  0  0  0
 26 28  1  0  0  0  0
 27 25  1  1  0  0  0
 27 29  1  0  0  0  0
 27 24  1  0  0  0  0
 29 28  1  1  0  0  0
 29 30  1  0  0  0  0
 30 22  1  1  0  0  0
 30 31  1  0  0  0  0
M  END
>  <MODEL>
1

>  <REMARK>
 VINA RESULT:      -6.0      0.000      0.000
  Name = 
  12 active torsions:
  status: ('A' for Active; 'I' for Inactive)
    1  A    between atoms: C_3  and  N_28
    2  A    between atoms: C_7  and  C_13
    3  A    between atoms: C_7  and  C_29
    4  A    between atoms: N_9  and  C_25
    5  A    between atoms: C_10  and  N_12
    6  A    between atoms: C_10  and  C_26
    7  A    between atoms: C_13  and  C_15
    8  A    between atoms: N_14  and  C_24
    9  A    between atoms: C_15  and  N_16
   10  A    between atoms: N_16  and  C_27
   11  A    between atoms: C_18  and  C_25
   12  A    between atoms: C_25  and  C_29
                            x       y       z     vdW  Elec       q    Type
                         _______ _______ _______ _____ _____    ______ ____

>  <TORSDO>
F 12

$$$$
=
 OpenBabel11042417163D

 31 33  0  0  1  0  0  0  0  0999 V2000
  190.9170  176.0010  144.6640 C   0  0  0  0  0  2  0  0  0  0  0  0
  192.0910  176.5880  143.8870 C   0  0  0  0  0  2  0  0  0  0  0  0
  193.3240  176.7160  144.7730 C   0  0  0  0  0  2  0  0  0  0  0  0
  194.5930  176.1860  144.0860 C   0  0  0  0  0  2  0  0  0  0  0  0
  194.6480  174.7250  143.8980 N   0  0  0  0  0  0  0  0  0  0  0  0
  194.6310  174.4380  142.4710 C   0  0  0  0  0  1  0  0  0  0  0  0
  195.4950  173.1110  145.5180 C   0  0  1  0  0  3  0  0  0  0  0  0
  195.9580  174.4870  145.9440 C   0  0  0  0  0  2  0  0  0  0  0  0
  195.8640  174.1460  144.4690 C   0  0  2  0  0  3  0  0  0  0  0  0
  195.0740  170.2350  146.0020 N   0  0  0  0  0  2  0  0  0  0  0  0
  197.4010  170.0130  145.9710 O   0  0  0  0  0  0  0  0  0  0  0  0
  196.3970  170.7670  145.8730 C   0  0  0  0  0  0  0  0  0  0  0  0
  196.5900  172.1620  145.6310 N   0  0  0  0  0  2  0  0  0  0  0  0
  194.6100  168.6070  147.7520 C   0  0  0  0  0  1  0  0  0  0  0  0
  194.8170  168.8260  146.2640 C   0  0  1  0  0  3  0  0  0  0  0  0
  193.6710  168.4300  145.5770 O   0  0  0  0  0  1  0  0  0  0  0  0
  189.9150  177.0760  145.0710 C   0  0  2  0  0  3  0  0  0  0  0  0
  190.5260  176.1230  147.2960 C   0  0  0  0  0  1  0  0  0  0  0  0
  189.9990  177.3430  146.5670 C   0  0  0  0  0  2  0  0  0  0  0  0
  188.5620  176.6790  144.6960 N   0  0  0  0  0  0  0  0  0  0  0  0
  187.9340  177.2610  143.7520 N   0  0  0  0  0  0  0  0  0  0  0  0
  186.6100  176.8650  143.3890 C   0  0  0  0  0  0  0  0  0  0  0  0
  186.4430  175.7900  142.7530 O   0  0  0  0  0  0  0  0  0  0  0  0
  185.5940  179.8160  144.6330 N   0  0  0  0  0  0  0  0  0  0  0  0
  185.5370  179.1180  147.3840 S   0  0  0  0  0  0  0  0  0  0  0  0
  186.0600  177.3610  147.3930 C   0  0  0  0  0  2  0  0  0  0  0  0
  185.2010  178.9280  145.6510 C   0  0  2  0  0  3  0  0  0  0  0  0
  185.4090  176.6540  146.2030 C   0  0  0  0  0  2  0  0  0  0  0  0
  185.1350  177.7190  145.2070 C   0  0  2  0  0  3  0  0  0  0  0  0
  185.4310  177.7300  143.7410 C   0  0  1  0  0  3  0  0  0  0  0  0
  185.6920  179.1400  143.4040 N   0  0  0  0  0  0  0  0  0  0  0  0
  2  1  1  0  0  0  0
  2  3  1  0  0  0  0
  4  3  1  0  0  0  0
  5  4  1  0  0  0  0
  6  5  1  0  0  0  0
  7 13  1  1  0  0  0
  7  8  1  0  0  0  0
  9  5  1  6  0  0  0
  9  7  1  0  0  0  0
  9  8  1  0  0  0  0
 10 15  1  0  0  0  0
 12 11  2  0  0  0  0
 12 10  1  0  0  0  0
 13 12  1  0  0  0  0
 15 14  1  1  0  0  0
 16 15  1  0  0  0  0
 17  1  1  1  0  0  0
 17 19  1  0  0  0  0
 19 18  1  0  0  0  0
 20 17  1  0  0  0  0
 21 20  2  0  0  0  0
 22 21  1  0  0  0  0
 23 22  2  0  0  0  0
 25 26  1  0  0  0  0
 27 24  1  6  0  0  0
 27 25  1  0  0  0  0
 28 26  1  0  0  0  0
 29 27  1  0  0  0  0
 29 28  1  1  0  0  0
 30 22  1  1  0  0  0
 30 29  1  0  0  0  0
 31 30  1  0  0  0  0
 31 24  2  0  0  0  0
M  END
>  <MODEL>
2

>  <REMARK>
 VINA RESULT:      -5.9      4.114      9.672
  Name = 
  12 active torsions:
  status: ('A' for Active; 'I' for Inactive)
    1  A    between atoms: C_3  and  N_28
    2  A    between atoms: C_7  and  C_13
    3  A    between atoms: C_7  and  C_29
    4  A    between atoms: N_9  and  C_25
    5  A    between atoms: C_10  and  N_12
    6  A    between atoms: C_10  and  C_26
    7  A    between atoms: C_13  and  C_15
    8  A    between atoms: N_14  and  C_24
    9  A    between atoms: C_15  and  N_16
   10  A    between atoms: N_16  and  C_27
   11  A    between atoms: C_18  and  C_25
   12  A    between atoms: C_25  and  C_29
                            x       y       z     vdW  Elec       q    Type
                         _______ _______ _______ _____ _____    ______ ____

>  <TORSDO>
F 12

$$$$
=
 OpenBabel11042417163D

 31 33  0  0  1  0  0  0  0  0999 V2000
  189.2100  173.1750  142.7370 C   0  0  0  0  0  2  0  0  0  0  0  0
  190.0430  174.1000  143.6180 C   0  0  0  0  0  2  0  0  0  0  0  0
  189.8520  173.7700  145.0930 C   0  0  0  0  0  2  0  0  0  0  0  0
  190.5140  174.8080  146.0130 C   0  0  0  0  0  2  0  0  0  0  0  0
  191.0660  175.9940  145.3350 N   0  0  0  0  0  0  0  0  0  0  0  0
  190.2820  177.1590  145.7190 C   0  0  0  0  0  1  0  0  0  0  0  0
  193.3830  175.5610  144.7070 C   0  0  1  0  0  3  0  0  0  0  0  0
  193.1390  174.9270  146.0590 C   0  0  0  0  0  2  0  0  0  0  0  0
  192.4600  176.2380  145.7060 C   0  0  2  0  0  3  0  0  0  0  0  0
  195.0750  175.8130  142.3080 N   0  0  0  0  0  2  0  0  0  0  0  0
  196.5830  176.9980  143.6430 O   0  0  0  0  0  0  0  0  0  0  0  0
  195.4870  176.3840  143.5540 C   0  0  0  0  0  0  0  0  0  0  0  0
  194.6560  176.2630  144.7100 N   0  0  0  0  0  2  0  0  0  0  0  0
  196.9600  174.8180  141.1310 C   0  0  0  0  0  1  0  0  0  0  0  0
  195.8870  175.8910  141.1020 C   0  0  1  0  0  3  0  0  0  0  0  0
  195.0760  175.7000  139.9850 O   0  0  0  0  0  1  0  0  0  0  0  0
  188.1410  173.9400  141.9660 C   0  0  2  0  0  3  0  0  0  0  0  0
  189.5050  172.9550  140.1230 C   0  0  0  0  0  1  0  0  0  0  0  0
  188.5120  174.0380  140.4930 C   0  0  0  0  0  2  0  0  0  0  0  0
  187.9540  175.2700  142.5370 N   0  0  0  0  0  0  0  0  0  0  0  0
  186.8360  175.8760  142.4650 N   0  0  0  0  0  0  0  0  0  0  0  0
  186.6610  177.1770  143.0300 C   0  0  0  0  0  0  0  0  0  0  0  0
  187.6330  177.9790  143.0360 O   0  0  0  0  0  0  0  0  0  0  0  0
  184.9180  179.6160  144.5480 N   0  0  0  0  0  0  0  0  0  0  0  0
  185.6370  179.0390  147.2340 S   0  0  0  0  0  0  0  0  0  0  0  0
  186.7420  177.5850  147.0800 C   0  0  0  0  0  2  0  0  0  0  0  0
  185.0680  178.6820  145.5900 C   0  0  2  0  0  3  0  0  0  0  0  0
  186.1720  176.6510  146.0100 C   0  0  0  0  0  2  0  0  0  0  0  0
  185.3530  177.5130  145.1230 C   0  0  2  0  0  3  0  0  0  0  0  0
  185.3420  177.5780  143.6290 C   0  0  1  0  0  3  0  0  0  0  0  0
  185.0150  178.9770  143.3000 N   0  0  0  0  0  0  0  0  0  0  0  0
  1  2  1  0  0  0  0
  2  3  1  0  0  0  0
  3  4  1  0  0  0  0
  5  6  1  0  0  0  0
  5  4  1  0  0  0  0
  7 13  1  1  0  0  0
  7  9  1  0  0  0  0
  7  8  1  0  0  0  0
  9  5  1  6  0  0  0
  9  8  1  0  0  0  0
 10 12  1  0  0  0  0
 12 11  2  0  0  0  0
 12 13  1  0  0  0  0
 15 14  1  1  0  0  0
 15 10  1  0  0  0  0
 16 15  1  0  0  0  0
 17 19  1  6  0  0  0
 17 20  1  0  0  0  0
 17  1  1  0  0  0  0
 18 19  1  0  0  0  0
 21 20  2  0  0  0  0
 21 22  1  0  0  0  0
 22 23  2  0  0  0  0
 26 25  1  0  0  0  0
 27 24  1  6  0  0  0
 27 25  1  0  0  0  0
 28 26  1  0  0  0  0
 29 27  1  0  0  0  0
 29 28  1  1  0  0  0
 30 22  1  1  0  0  0
 30 29  1  0  0  0  0
 31 30  1  0  0  0  0
 31 24  2  0  0  0  0
M  END
>  <MODEL>
3

>  <REMARK>
 VINA RESULT:      -5.8      3.292      8.897
  Name = 
  12 active torsions:
  status: ('A' for Active; 'I' for Inactive)
    1  A    between atoms: C_3  and  N_28
    2  A    between atoms: C_7  and  C_13
    3  A    between atoms: C_7  and  C_29
    4  A    between atoms: N_9  and  C_25
    5  A    between atoms: C_10  and  N_12
    6  A    between atoms: C_10  and  C_26
    7  A    between atoms: C_13  and  C_15
    8  A    between atoms: N_14  and  C_24
    9  A    between atoms: C_15  and  N_16
   10  A    between atoms: N_16  and  C_27
   11  A    between atoms: C_18  and  C_25
   12  A    between atoms: C_25  and  C_29
                            x       y       z     vdW  Elec       q    Type
                         _______ _______ _______ _____ _____    ______ ____

>  <TORSDO>
F 12

$$$$
=
 OpenBabel11042417163D

 31 33  0  0  1  0  0  0  0  0999 V2000
  191.1390  176.1980  144.5730 C   0  0  0  0  0  2  0  0  0  0  0  0
  192.3520  177.0950  144.3430 C   0  0  0  0  0  2  0  0  0  0  0  0
  193.5680  176.5750  145.1000 C   0  0  0  0  0  2  0  0  0  0  0  0
  194.3900  175.5770  144.2670 C   0  0  0  0  0  2  0  0  0  0  0  0
  194.5250  175.9070  142.8370 N   0  0  0  0  0  0  0  0  0  0  0  0
  195.8870  176.3560  142.5890 C   0  0  0  0  0  1  0  0  0  0  0  0
  192.8020  174.7500  141.5560 C   0  0  1  0  0  3  0  0  0  0  0  0
  193.2680  173.8220  142.6570 C   0  0  0  0  0  2  0  0  0  0  0  0
  194.2600  174.7500  141.9810 C   0  0  2  0  0  3  0  0  0  0  0  0
  190.2320  173.7580  140.5110 N   0  0  0  0  0  2  0  0  0  0  0  0
  191.4380  172.8900  138.7070 O   0  0  0  0  0  0  0  0  0  0  0  0
  191.4490  173.5260  139.7940 C   0  0  0  0  0  0  0  0  0  0  0  0
  192.6890  174.0190  140.3050 N   0  0  0  0  0  2  0  0  0  0  0  0
  188.0640  172.9160  141.2350 C   0  0  0  0  0  1  0  0  0  0  0  0
  188.9420  173.2670  140.0470 C   0  0  1  0  0  3  0  0  0  0  0  0
  188.3170  174.2550  139.2890 O   0  0  0  0  0  1  0  0  0  0  0  0
  190.0130  176.9420  145.2820 C   0  0  2  0  0  3  0  0  0  0  0  0
  189.3510  175.3460  147.0830 C   0  0  0  0  0  1  0  0  0  0  0  0
  190.0450  176.6580  146.7770 C   0  0  0  0  0  2  0  0  0  0  0  0
  188.7210  176.5680  144.7150 N   0  0  0  0  0  0  0  0  0  0  0  0
  188.1140  177.3220  143.8870 N   0  0  0  0  0  0  0  0  0  0  0  0
  186.8490  176.9480  143.3350 C   0  0  0  0  0  0  0  0  0  0  0  0
  186.7840  175.9470  142.5720 O   0  0  0  0  0  0  0  0  0  0  0  0
  185.6350  179.8210  144.5840 N   0  0  0  0  0  0  0  0  0  0  0  0
  185.4670  179.0570  147.3140 S   0  0  0  0  0  0  0  0  0  0  0  0
  186.0700  177.3260  147.3130 C   0  0  0  0  0  2  0  0  0  0  0  0
  185.2310  178.8920  145.5610 C   0  0  2  0  0  3  0  0  0  0  0  0
  185.5150  176.6180  146.0760 C   0  0  0  0  0  2  0  0  0  0  0  0
  185.2440  177.6920  145.0890 C   0  0  2  0  0  3  0  0  0  0  0  0
  185.6150  177.7500  143.6420 C   0  0  1  0  0  3  0  0  0  0  0  0
  185.8280  179.1790  143.3480 N   0  0  0  0  0  0  0  0  0  0  0  0
  2  1  1  0  0  0  0
  2  3  1  0  0  0  0
  4  3  1  0  0  0  0
  5  4  1  0  0  0  0
  6  5  1  0  0  0  0
  7 13  1  6  0  0  0
  7  9  1  0  0  0  0
  7  8  1  0  0  0  0
  9  8  1  0  0  0  0
  9  5  1  1  0  0  0
 11 12  2  0  0  0  0
 12 13  1  0  0  0  0
 12 10  1  0  0  0  0
 15 10  1  0  0  0  0
 15 14  1  1  0  0  0
 16 15  1  0  0  0  0
 17  1  1  6  0  0  0
 17 19  1  0  0  0  0
 19 18  1  0  0  0  0
 20 17  1  0  0  0  0
 21 20  2  0  0  0  0
 22 21  1  0  0  0  0
 23 22  2  0  0  0  0
 26 25  1  0  0  0  0
 27 24  1  6  0  0  0
 27 25  1  0  0  0  0
 28 26  1  0  0  0  0
 29 27  1  0  0  0  0
 29 28  1  1  0  0  0
 30 22  1  1  0  0  0
 30 29  1  0  0  0  0
 31 30  1  0  0  0  0
 31 24  2  0  0  0  0
M  END
>  <MODEL>
4

>  <REMARK>
 VINA RESULT:      -5.8      3.973      8.117
  Name = 
  12 active torsions:
  status: ('A' for Active; 'I' for Inactive)
    1  A    between atoms: C_3  and  N_28
    2  A    between atoms: C_7  and  C_13
    3  A    between atoms: C_7  and  C_29
    4  A    between atoms: N_9  and  C_25
    5  A    between atoms: C_10  and  N_12
    6  A    between atoms: C_10  and  C_26
    7  A    between atoms: C_13  and  C_15
    8  A    between atoms: N_14  and  C_24
    9  A    between atoms: C_15  and  N_16
   10  A    between atoms: N_16  and  C_27
   11  A    between atoms: C_18  and  C_25
   12  A    between atoms: C_25  and  C_29
                            x       y       z     vdW  Elec       q    Type
                         _______ _______ _______ _____ _____    ______ ____

>  <TORSDO>
F 12

$$$$
=
 OpenBabel11042417163D

 31 33  0  0  1  0  0  0  0  0999 V2000
  192.8070  174.5630  142.2930 C   0  0  0  0  0  2  0  0  0  0  0  0
  193.7130  173.5040  142.9130 C   0  0  0  0  0  2  0  0  0  0  0  0
  195.1810  173.8300  142.6690 C   0  0  0  0  0  2  0  0  0  0  0  0
  195.7470  174.7930  143.7260 C   0  0  0  0  0  2  0  0  0  0  0  0
  195.5210  174.3980  145.1280 N   0  0  0  0  0  0  0  0  0  0  0  0
  196.7720  173.8950  145.6780 C   0  0  0  0  0  1  0  0  0  0  0  0
  193.5620  175.6100  145.9270 C   0  0  1  0  0  3  0  0  0  0  0  0
  194.3850  176.5580  145.0820 C   0  0  0  0  0  2  0  0  0  0  0  0
  195.0780  175.5240  145.9500 C   0  0  2  0  0  3  0  0  0  0  0  0
  190.7210  176.0850  146.5520 N   0  0  0  0  0  2  0  0  0  0  0  0
  191.4510  177.1230  148.5150 O   0  0  0  0  0  0  0  0  0  0  0  0
  191.7480  176.5230  147.4470 C   0  0  0  0  0  0  0  0  0  0  0  0
  193.1230  176.2810  147.1400 N   0  0  0  0  0  2  0  0  0  0  0  0
  188.8290  177.5180  146.0100 C   0  0  0  0  0  1  0  0  0  0  0  0
  189.3060  176.3170  146.8060 C   0  0  1  0  0  3  0  0  0  0  0  0
  188.5780  175.1930  146.4230 O   0  0  0  0  0  1  0  0  0  0  0  0
  191.4970  174.7060  143.0600 C   0  0  2  0  0  3  0  0  0  0  0  0
  190.5110  172.9350  144.5170 C   0  0  0  0  0  1  0  0  0  0  0  0
  190.7490  173.3810  143.0880 C   0  0  0  0  0  2  0  0  0  0  0  0
  190.6700  175.7500  142.4650 N   0  0  0  0  0  0  0  0  0  0  0  0
  189.4560  175.9200  142.8140 N   0  0  0  0  0  0  0  0  0  0  0  0
  188.6540  176.9470  142.2280 C   0  0  0  0  0  0  0  0  0  0  0  0
  189.0210  178.1470  142.3310 O   0  0  0  0  0  0  0  0  0  0  0  0
  185.8960  178.1390  140.7240 N   0  0  0  0  0  0  0  0  0  0  0  0
  184.2290  178.3610  143.0120 S   0  0  0  0  0  0  0  0  0  0  0  0
  185.2960  177.7680  144.3800 C   0  0  0  0  0  2  0  0  0  0  0  0
  185.3590  177.5690  141.8940 C   0  0  2  0  0  3  0  0  0  0  0  0
  186.1010  176.5650  143.8840 C   0  0  0  0  0  2  0  0  0  0  0  0
  186.1800  176.7180  142.4100 C   0  0  2  0  0  3  0  0  0  0  0  0
  187.3740  176.6030  141.5180 C   0  0  1  0  0  3  0  0  0  0  0  0
  187.1220  177.5320  140.4030 N   0  0  0  0  0  0  0  0  0  0  0  0
  1  2  1  0  0  0  0
  3  2  1  0  0  0  0
  3  4  1  0  0  0  0
  4  5  1  0  0  0  0
  5  6  1  0  0  0  0
  7  9  1  0  0  0  0
  7 13  1  1  0  0  0
  8  7  1  0  0  0  0
  8  9  1  0  0  0  0
  9  5  1  6  0  0  0
 10 15  1  0  0  0  0
 10 12  1  0  0  0  0
 12 11  2  0  0  0  0
 13 12  1  0  0  0  0
 15 14  1  6  0  0  0
 16 15  1  0  0  0  0
 17  1  1  6  0  0  0
 17 19  1  0  0  0  0
 19 18  1  0  0  0  0
 20 21  2  0  0  0  0
 20 17  1  0  0  0  0
 22 23  2  0  0  0  0
 22 21  1  0  0  0  0
 25 26  1  0  0  0  0
 27 24  1  1  0  0  0
 27 29  1  0  0  0  0
 27 25  1  0  0  0  0
 28 26  1  0  0  0  0
 29 28  1  1  0  0  0
 30 22  1  1  0  0  0
 30 29  1  0  0  0  0
 31 24  2  0  0  0  0
 31 30  1  0  0  0  0
M  END
>  <MODEL>
5

>  <REMARK>
 VINA RESULT:      -5.7      3.275      7.534
  Name = 
  12 active torsions:
  status: ('A' for Active; 'I' for Inactive)
    1  A    between atoms: C_3  and  N_28
    2  A    between atoms: C_7  and  C_13
    3  A    between atoms: C_7  and  C_29
    4  A    between atoms: N_9  and  C_25
    5  A    between atoms: C_10  and  N_12
    6  A    between atoms: C_10  and  C_26
    7  A    between atoms: C_13  and  C_15
    8  A    between atoms: N_14  and  C_24
    9  A    between atoms: C_15  and  N_16
   10  A    between atoms: N_16  and  C_27
   11  A    between atoms: C_18  and  C_25
   12  A    between atoms: C_25  and  C_29
                            x       y       z     vdW  Elec       q    Type
                         _______ _______ _______ _____ _____    ______ ____

>  <TORSDO>
F 12

$$$$
=
 OpenBabel11042417163D

 31 33  0  0  1  0  0  0  0  0999 V2000
  190.8940  176.0970  146.1200 C   0  0  0  0  0  2  0  0  0  0  0  0
  192.1190  176.4530  146.9560 C   0  0  0  0  0  2  0  0  0  0  0  0
  193.3900  175.8910  146.3310 C   0  0  0  0  0  2  0  0  0  0  0  0
  193.0910  174.9240  145.1730 C   0  0  0  0  0  2  0  0  0  0  0  0
  193.4210  175.4270  143.8280 N   0  0  0  0  0  0  0  0  0  0  0  0
  194.7220  176.0770  143.8790 C   0  0  0  0  0  1  0  0  0  0  0  0
  192.3880  174.5380  141.8060 C   0  0  1  0  0  3  0  0  0  0  0  0
  192.2190  173.5130  142.9060 C   0  0  0  0  0  2  0  0  0  0  0  0
  193.4840  174.3500  142.8410 C   0  0  2  0  0  3  0  0  0  0  0  0
  190.4730  173.6010  139.7710 N   0  0  0  0  0  2  0  0  0  0  0  0
  192.3200  172.8470  138.5540 O   0  0  0  0  0  0  0  0  0  0  0  0
  191.8800  173.4170  139.5880 C   0  0  0  0  0  0  0  0  0  0  0  0
  192.8020  173.8820  140.5760 N   0  0  0  0  0  2  0  0  0  0  0  0
  188.2190  172.7120  139.5250 C   0  0  0  0  0  1  0  0  0  0  0  0
  189.4870  173.1340  138.8060 C   0  0  1  0  0  3  0  0  0  0  0  0
  189.1900  174.1640  137.9160 O   0  0  0  0  0  1  0  0  0  0  0  0
  189.6520  175.9180  146.9850 C   0  0  2  0  0  3  0  0  0  0  0  0
  189.6860  173.7330  145.7780 C   0  0  0  0  0  1  0  0  0  0  0  0
  189.2460  174.4510  147.0370 C   0  0  0  0  0  2  0  0  0  0  0  0
  188.5550  176.7360  146.4770 N   0  0  0  0  0  0  0  0  0  0  0  0
  187.3490  176.3260  146.5030 N   0  0  0  0  0  0  0  0  0  0  0  0
  186.2810  177.1340  146.0060 C   0  0  0  0  0  0  0  0  0  0  0  0
  185.0930  176.7460  146.1640 O   0  0  0  0  0  0  0  0  0  0  0  0
  185.0450  179.5620  144.0390 N   0  0  0  0  0  0  0  0  0  0  0  0
  185.5550  178.3630  141.5170 S   0  0  0  0  0  0  0  0  0  0  0  0
  186.3510  176.7700  141.9510 C   0  0  0  0  0  2  0  0  0  0  0  0
  185.9330  178.9100  143.1640 C   0  0  2  0  0  3  0  0  0  0  0  0
  187.3090  177.0070  143.1200 C   0  0  0  0  0  2  0  0  0  0  0  0
  186.7960  178.2110  143.8190 C   0  0  2  0  0  3  0  0  0  0  0  0
  186.5700  178.4200  145.2820 C   0  0  1  0  0  3  0  0  0  0  0  0
  185.4280  179.3460  145.3750 N   0  0  0  0  0  0  0  0  0  0  0  0
  1  2  1  0  0  0  0
  3  2  1  0  0  0  0
  4  3  1  0  0  0  0
  5  6  1  0  0  0  0
  5  4  1  0  0  0  0
  7 13  1  6  0  0  0
  7  9  1  0  0  0  0
  7  8  1  0  0  0  0
  9  8  1  0  0  0  0
  9  5  1  1  0  0  0
 11 12  2  0  0  0  0
 12 10  1  0  0  0  0
 12 13  1  0  0  0  0
 15 14  1  1  0  0  0
 15 10  1  0  0  0  0
 16 15  1  0  0  0  0
 17  1  1  6  0  0  0
 17 19  1  0  0  0  0
 18 19  1  0  0  0  0
 20 21  2  0  0  0  0
 20 17  1  0  0  0  0
 22 23  2  0  0  0  0
 22 21  1  0  0  0  0
 24 31  2  0  0  0  0
 25 26  1  0  0  0  0
 26 28  1  0  0  0  0
 27 25  1  6  0  0  0
 27 29  1  0  0  0  0
 27 24  1  0  0  0  0
 29 28  1  1  0  0  0
 29 30  1  0  0  0  0
 30 31  1  0  0  0  0
 30 22  1  1  0  0  0
M  END
>  <MODEL>
6

>  <REMARK>
 VINA RESULT:      -5.6      3.967      8.039
  Name = 
  12 active torsions:
  status: ('A' for Active; 'I' for Inactive)
    1  A    between atoms: C_3  and  N_28
    2  A    between atoms: C_7  and  C_13
    3  A    between atoms: C_7  and  C_29
    4  A    between atoms: N_9  and  C_25
    5  A    between atoms: C_10  and  N_12
    6  A    between atoms: C_10  and  C_26
    7  A    between atoms: C_13  and  C_15
    8  A    between atoms: N_14  and  C_24
    9  A    between atoms: C_15  and  N_16
   10  A    between atoms: N_16  and  C_27
   11  A    between atoms: C_18  and  C_25
   12  A    between atoms: C_25  and  C_29
                            x       y       z     vdW  Elec       q    Type
                         _______ _______ _______ _____ _____    ______ ____

>  <TORSDO>
F 12

$$$$
=
 OpenBabel11042417163D

 31 33  0  0  1  0  0  0  0  0999 V2000
  191.4120  176.2150  145.2040 C   0  0  0  0  0  2  0  0  0  0  0  0
  192.6360  176.9290  144.6380 C   0  0  0  0  0  2  0  0  0  0  0  0
  193.8320  176.7870  145.5700 C   0  0  0  0  0  2  0  0  0  0  0  0
  194.9240  175.8770  144.9830 C   0  0  0  0  0  2  0  0  0  0  0  0
  194.5250  175.0930  143.8010 N   0  0  0  0  0  0  0  0  0  0  0  0
  195.3640  175.4840  142.6770 C   0  0  0  0  0  1  0  0  0  0  0  0
  193.4180  173.0780  144.6150 C   0  0  1  0  0  3  0  0  0  0  0  0
  194.6160  173.3430  145.5000 C   0  0  0  0  0  2  0  0  0  0  0  0
  194.6890  173.6550  144.0170 C   0  0  2  0  0  3  0  0  0  0  0  0
  191.1670  171.8940  143.1260 N   0  0  0  0  0  2  0  0  0  0  0  0
  192.2750  169.8450  143.3200 O   0  0  0  0  0  0  0  0  0  0  0  0
  192.2620  171.0810  143.5630 C   0  0  0  0  0  0  0  0  0  0  0  0
  193.3520  171.6660  144.2780 N   0  0  0  0  0  2  0  0  0  0  0  0
  188.8070  172.2320  142.6310 C   0  0  0  0  0  1  0  0  0  0  0  0
  190.0230  171.3500  142.4090 C   0  0  1  0  0  3  0  0  0  0  0  0
  190.3130  171.3010  141.0470 O   0  0  0  0  0  1  0  0  0  0  0  0
  190.4940  177.1740  145.9530 C   0  0  2  0  0  3  0  0  0  0  0  0
  190.9570  175.4330  147.6810 C   0  0  0  0  0  1  0  0  0  0  0  0
  190.4910  176.8550  147.4410 C   0  0  0  0  0  2  0  0  0  0  0  0
  189.1410  177.1110  145.4110 N   0  0  0  0  0  0  0  0  0  0  0  0
  188.1420  177.5670  146.0570 N   0  0  0  0  0  0  0  0  0  0  0  0
  186.8200  177.5030  145.5180 C   0  0  0  0  0  0  0  0  0  0  0  0
  186.2120  176.3990  145.5120 O   0  0  0  0  0  0  0  0  0  0  0  0
  184.0860  178.7710  144.0330 N   0  0  0  0  0  0  0  0  0  0  0  0
  184.7830  178.2320  141.3340 S   0  0  0  0  0  0  0  0  0  0  0  0
  186.4250  177.4270  141.4670 C   0  0  0  0  0  2  0  0  0  0  0  0
  185.0280  178.8260  142.9900 C   0  0  2  0  0  3  0  0  0  0  0  0
  187.2330  178.1450  142.5490 C   0  0  0  0  0  2  0  0  0  0  0  0
  186.2310  178.7630  143.4520 C   0  0  2  0  0  3  0  0  0  0  0  0
  186.1700  178.7320  144.9450 C   0  0  1  0  0  3  0  0  0  0  0  0
  184.7350  178.7750  145.2800 N   0  0  0  0  0  0  0  0  0  0  0  0
  2  1  1  0  0  0  0
  2  3  1  0  0  0  0
  4  3  1  0  0  0  0
  5  4  1  0  0  0  0
  6  5  1  0  0  0  0
  7 13  1  6  0  0  0
  7  8  1  0  0  0  0
  9  5  1  1  0  0  0
  9  7  1  0  0  0  0
  9  8  1  0  0  0  0
 10 12  1  0  0  0  0
 11 12  2  0  0  0  0
 12 13  1  0  0  0  0
 15 14  1  6  0  0  0
 15 10  1  0  0  0  0
 16 15  1  0  0  0  0
 17  1  1  6  0  0  0
 17 19  1  0  0  0  0
 19 18  1  0  0  0  0
 20 17  1  0  0  0  0
 20 21  2  0  0  0  0
 22 21  1  0  0  0  0
 23 22  2  0  0  0  0
 24 31  2  0  0  0  0
 25 26  1  0  0  0  0
 26 28  1  0  0  0  0
 27 25  1  6  0  0  0
 27 29  1  0  0  0  0
 27 24  1  0  0  0  0
 29 28  1  6  0  0  0
 29 30  1  0  0  0  0
 30 31  1  0  0  0  0
 30 22  1  6  0  0  0
M  END
>  <MODEL>
7

>  <REMARK>
 VINA RESULT:      -5.6      3.817      8.407
  Name = 
  12 active torsions:
  status: ('A' for Active; 'I' for Inactive)
    1  A    between atoms: C_3  and  N_28
    2  A    between atoms: C_7  and  C_13
    3  A    between atoms: C_7  and  C_29
    4  A    between atoms: N_9  and  C_25
    5  A    between atoms: C_10  and  N_12
    6  A    between atoms: C_10  and  C_26
    7  A    between atoms: C_13  and  C_15
    8  A    between atoms: N_14  and  C_24
    9  A    between atoms: C_15  and  N_16
   10  A    between atoms: N_16  and  C_27
   11  A    between atoms: C_18  and  C_25
   12  A    between atoms: C_25  and  C_29
                            x       y       z     vdW  Elec       q    Type
                         _______ _______ _______ _____ _____    ______ ____

>  <TORSDO>
F 12

$$$$
=
 OpenBabel11042417163D

 31 33  0  0  1  0  0  0  0  0999 V2000
  191.8900  176.9600  146.5270 C   0  0  0  0  0  2  0  0  0  0  0  0
  192.8400  175.8100  146.8470 C   0  0  0  0  0  2  0  0  0  0  0  0
  194.2700  176.1580  146.4560 C   0  0  0  0  0  2  0  0  0  0  0  0
  194.8850  175.1150  145.5070 C   0  0  0  0  0  2  0  0  0  0  0  0
  194.1070  174.8330  144.2880 N   0  0  0  0  0  0  0  0  0  0  0  0
  194.7950  175.4240  143.1490 C   0  0  0  0  0  1  0  0  0  0  0  0
  192.6830  172.8910  144.6750 C   0  0  1  0  0  3  0  0  0  0  0  0
  194.0080  172.6440  145.3630 C   0  0  0  0  0  2  0  0  0  0  0  0
  193.9700  173.3970  144.0460 C   0  0  2  0  0  3  0  0  0  0  0  0
  190.6110  172.9260  142.5810 N   0  0  0  0  0  2  0  0  0  0  0  0
  190.9380  170.6190  142.3890 O   0  0  0  0  0  0  0  0  0  0  0  0
  191.2540  171.7020  142.9510 C   0  0  0  0  0  0  0  0  0  0  0  0
  192.2630  171.6960  143.9630 N   0  0  0  0  0  2  0  0  0  0  0  0
  188.2010  172.9160  142.2310 C   0  0  0  0  0  1  0  0  0  0  0  0
  189.5650  172.9890  141.5690 C   0  0  1  0  0  3  0  0  0  0  0  0
  189.6730  174.1880  140.8680 O   0  0  0  0  0  1  0  0  0  0  0  0
  190.4890  176.7040  147.0700 C   0  0  2  0  0  3  0  0  0  0  0  0
  189.2150  174.5570  147.0710 C   0  0  0  0  0  1  0  0  0  0  0  0
  190.3940  175.3050  147.6620 C   0  0  0  0  0  2  0  0  0  0  0  0
  189.4940  176.8860  146.0190 N   0  0  0  0  0  0  0  0  0  0  0  0
  189.8280  177.2150  144.8340 N   0  0  0  0  0  0  0  0  0  0  0  0
  188.8470  177.3890  143.8100 C   0  0  0  0  0  0  0  0  0  0  0  0
  189.0370  178.2610  142.9200 O   0  0  0  0  0  0  0  0  0  0  0  0
  185.8910  176.8190  142.3170 N   0  0  0  0  0  0  0  0  0  0  0  0
  184.3150  178.6730  143.7790 S   0  0  0  0  0  0  0  0  0  0  0  0
  185.5110  179.4290  144.9450 C   0  0  0  0  0  2  0  0  0  0  0  0
  185.4870  177.3590  143.5520 C   0  0  2  0  0  3  0  0  0  0  0  0
  186.4440  178.3330  145.4640 C   0  0  0  0  0  2  0  0  0  0  0  0
  186.4350  177.2750  144.4230 C   0  0  2  0  0  3  0  0  0  0  0  0
  187.5930  176.5600  143.8040 C   0  0  1  0  0  3  0  0  0  0  0  0
  187.1710  176.2480  142.4270 N   0  0  0  0  0  0  0  0  0  0  0  0
  1  2  1  0  0  0  0
  3  2  1  0  0  0  0
  4  3  1  0  0  0  0
  5  4  1  0  0  0  0
  6  5  1  0  0  0  0
  7 13  1  6  0  0  0
  7  8  1  0  0  0  0
  9  5  1  1  0  0  0
  9  7  1  0  0  0  0
  9  8  1  0  0  0  0
 10 12  1  0  0  0  0
 11 12  2  0  0  0  0
 12 13  1  0  0  0  0
 15 14  1  1  0  0  0
 15 10  1  0  0  0  0
 16 15  1  0  0  0  0
 17  1  1  6  0  0  0
 17 19  1  0  0  0  0
 18 19  1  0  0  0  0
 20 17  1  0  0  0  0
 21 20  2  0  0  0  0
 22 21  1  0  0  0  0
 23 22  2  0  0  0  0
 24 31  2  0  0  0  0
 25 26  1  0  0  0  0
 26 28  1  0  0  0  0
 27 24  1  6  0  0  0
 27 25  1  0  0  0  0
 27 29  1  0  0  0  0
 29 28  1  6  0  0  0
 30 22  1  6  0  0  0
 30 29  1  0  0  0  0
 31 30  1  0  0  0  0
M  END
>  <MODEL>
8

>  <REMARK>
 VINA RESULT:      -5.6      3.809      7.762
  Name = 
  12 active torsions:
  status: ('A' for Active; 'I' for Inactive)
    1  A    between atoms: C_3  and  N_28
    2  A    between atoms: C_7  and  C_13
    3  A    between atoms: C_7  and  C_29
    4  A    between atoms: N_9  and  C_25
    5  A    between atoms: C_10  and  N_12
    6  A    between atoms: C_10  and  C_26
    7  A    between atoms: C_13  and  C_15
    8  A    between atoms: N_14  and  C_24
    9  A    between atoms: C_15  and  N_16
   10  A    between atoms: N_16  and  C_27
   11  A    between atoms: C_18  and  C_25
   12  A    between atoms: C_25  and  C_29
                            x       y       z     vdW  Elec       q    Type
                         _______ _______ _______ _____ _____    ______ ____

>  <TORSDO>
F 12

$$$$
=
 OpenBabel11042417163D

 31 33  0  0  1  0  0  0  0  0999 V2000
  190.6280  175.1000  145.0060 C   0  0  0  0  0  2  0  0  0  0  0  0
  190.0700  173.7840  144.4730 C   0  0  0  0  0  2  0  0  0  0  0  0
  189.9470  173.8180  142.9550 C   0  0  0  0  0  2  0  0  0  0  0  0
  188.5470  174.2540  142.4940 C   0  0  0  0  0  2  0  0  0  0  0  0
  188.5180  175.3540  141.5130 N   0  0  0  0  0  0  0  0  0  0  0  0
  188.3770  174.7870  140.1800 C   0  0  0  0  0  1  0  0  0  0  0  0
  187.6370  177.0610  143.0170 C   0  0  1  0  0  3  0  0  0  0  0  0
  186.6810  175.8880  143.0300 C   0  0  0  0  0  2  0  0  0  0  0  0
  187.3960  176.2650  141.7460 C   0  0  2  0  0  3  0  0  0  0  0  0
  186.2530  178.2700  145.3210 N   0  0  0  0  0  2  0  0  0  0  0  0
  185.5790  179.9720  143.8680 O   0  0  0  0  0  0  0  0  0  0  0  0
  186.2130  178.8960  144.0340 C   0  0  0  0  0  0  0  0  0  0  0  0
  186.8930  178.3060  142.9250 N   0  0  0  0  0  2  0  0  0  0  0  0
  184.4230  177.9010  146.8840 C   0  0  0  0  0  1  0  0  0  0  0  0
  185.5660  178.8160  146.4820 C   0  0  1  0  0  3  0  0  0  0  0  0
  186.4640  178.9230  147.5420 O   0  0  0  0  0  1  0  0  0  0  0  0
  191.3020  174.9210  146.3620 C   0  0  2  0  0  3  0  0  0  0  0  0
  189.0560  174.8760  147.4500 C   0  0  0  0  0  1  0  0  0  0  0  0
  190.4360  175.5030  147.4700 C   0  0  0  0  0  2  0  0  0  0  0  0
  192.6210  175.5440  146.3600 N   0  0  0  0  0  0  0  0  0  0  0  0
  193.1480  175.9870  145.2890 N   0  0  0  0  0  0  0  0  0  0  0  0
  194.4410  176.5980  145.2960 C   0  0  0  0  0  0  0  0  0  0  0  0
  194.6920  177.4910  146.1480 O   0  0  0  0  0  0  0  0  0  0  0  0
  195.1120  174.7410  142.5770 N   0  0  0  0  0  0  0  0  0  0  0  0
  195.8680  172.3360  143.8850 S   0  0  0  0  0  0  0  0  0  0  0  0
  195.7020  172.7440  145.6640 C   0  0  0  0  0  2  0  0  0  0  0  0
  195.8680  174.0830  143.5660 C   0  0  2  0  0  3  0  0  0  0  0  0
  196.2150  174.1680  145.8870 C   0  0  0  0  0  2  0  0  0  0  0  0
  196.0690  174.8540  144.5800 C   0  0  2  0  0  3  0  0  0  0  0  0
  195.4800  176.1960  144.2870 C   0  0  1  0  0  3  0  0  0  0  0  0
  194.8920  176.0810  142.9400 N   0  0  0  0  0  0  0  0  0  0  0  0
  2  1  1  0  0  0  0
  3  2  1  0  0  0  0
  4  3  1  0  0  0  0
  5  4  1  0  0  0  0
  6  5  1  0  0  0  0
  7 13  1  6  0  0  0
  7  8  1  0  0  0  0
  9  5  1  1  0  0  0
  9  7  1  0  0  0  0
  9  8  1  0  0  0  0
 10 15  1  0  0  0  0
 11 12  2  0  0  0  0
 12 10  1  0  0  0  0
 13 12  1  0  0  0  0
 15 14  1  1  0  0  0
 15 16  1  0  0  0  0
 17  1  1  6  0  0  0
 17 19  1  0  0  0  0
 18 19  1  0  0  0  0
 20 17  1  0  0  0  0
 21 22  1  0  0  0  0
 21 20  2  0  0  0  0
 22 23  2  0  0  0  0
 24 31  2  0  0  0  0
 25 26  1  0  0  0  0
 26 28  1  0  0  0  0
 27 24  1  1  0  0  0
 27 25  1  0  0  0  0
 27 29  1  0  0  0  0
 29 28  1  1  0  0  0
 30 29  1  0  0  0  0
 30 22  1  1  0  0  0
 31 30  1  0  0  0  0
M  END
>  <MODEL>
9

>  <REMARK>
 VINA RESULT:      -5.6      1.603      2.128
  Name = 
  12 active torsions:
  status: ('A' for Active; 'I' for Inactive)
    1  A    between atoms: C_3  and  N_28
    2  A    between atoms: C_7  and  C_13
    3  A    between atoms: C_7  and  C_29
    4  A    between atoms: N_9  and  C_25
    5  A    between atoms: C_10  and  N_12
    6  A    between atoms: C_10  and  C_26
    7  A    between atoms: C_13  and  C_15
    8  A    between atoms: N_14  and  C_24
    9  A    between atoms: C_15  and  N_16
   10  A    between atoms: N_16  and  C_27
   11  A    between atoms: C_18  and  C_25
   12  A    between atoms: C_25  and  C_29
                            x       y       z     vdW  Elec       q    Type
                         _______ _______ _______ _____ _____    ______ ____

>  <TORSDO>
F 12

$$$$
