=
 OpenBabel11042416543D

 35 38  0  0  1  0  0  0  0  0999 V2000
  190.4140  173.0820  143.5980 N   0  0  0  0  0  0  0  0  0  0  0  0
  189.7770  174.3220  143.6310 N   0  0  0  0  0  0  0  0  0  0  0  0
  190.5170  172.5810  142.4170 C   0  0  0  0  0  0  0  0  0  0  0  0
  189.8210  173.5760  141.0970 S   0  0  0  0  0  0  0  0  0  0  0  0
  189.3530  174.8400  142.3390 C   0  0  1  0  0  3  0  0  0  0  0  0
  187.4560  176.4760  142.4880 C   0  0  2  0  0  0  0  0  0  0  0  0
  187.8400  175.0470  142.3260 C   0  0  1  0  0  3  0  0  0  0  0  0
  187.4750  175.8570  141.2280 O   0  0  0  0  0  0  0  0  0  0  0  0
  188.4470  177.6310  142.5100 C   0  0  0  0  0  2  0  0  0  0  0  0
  188.3500  178.3710  141.3360 O   0  0  0  0  0  1  0  0  0  0  0  0
  186.0810  176.7500  142.8870 N   0  0  0  0  0  2  0  0  0  0  0  0
  184.3060  178.6590  145.5510 C   0  0  0  0  0  3  0  0  0  0  0  0
  184.6910  178.1790  144.2940 C   0  0  0  0  0  3  0  0  0  0  0  0
  184.9250  178.1680  146.7060 C   0  0  0  0  0  3  0  0  0  0  0  0
  185.6970  177.2140  144.1830 C   0  0  0  0  0  0  0  0  0  0  0  0
  186.3060  176.7190  145.3450 C   0  0  0  0  0  3  0  0  0  0  0  0
  185.9220  177.1960  146.6010 C   0  0  0  0  0  3  0  0  0  0  0  0
  190.5140  170.2620  141.9600 O   0  0  0  0  0  0  0  0  0  0  0  0
  191.1940  171.2990  142.1810 C   0  0  0  0  0  0  0  0  0  0  0  0
  192.6830  171.2050  142.2720 C   0  0  0  0  0  2  0  0  0  0  0  0
  193.0940  170.9040  143.6320 N   0  0  0  0  0  2  0  0  0  0  0  0
  194.2040  171.8620  145.5610 C   0  0  0  0  0  1  0  0  0  0  0  0
  195.0950  172.0630  143.3670 O   0  0  0  0  0  1  0  0  0  0  0  0
  193.8990  172.0260  144.0860 C   0  0  1  0  0  3  0  0  0  0  0  0
  189.6660  175.0870  144.8620 C   0  0  0  0  0  2  0  0  0  0  0  0
  189.5290  174.1410  146.0420 C   0  0  0  0  0  2  0  0  0  0  0  0
  189.2390  174.9330  147.3000 C   0  0  0  0  0  2  0  0  0  0  0  0
  189.9430  176.2800  147.2590 C   0  0  0  0  0  2  0  0  0  0  0  0
  191.4990  175.0230  148.5900 F   0  0  0  0  0  0  0  0  0  0  0  0
  191.2980  177.2190  148.9290 F   0  0  0  0  0  0  0  0  0  0  0  0
  191.3090  176.2430  147.9510 C   0  0  0  0  0  0  0  0  0  0  0  0
  192.3450  176.5560  147.0430 O   0  0  0  0  0  0  0  0  0  0  0  0
  193.3830  175.5080  145.1720 C   0  0  0  0  0  2  0  0  0  0  0  0
  192.9940  175.3800  146.6280 C   0  0  0  0  0  3  0  0  0  0  0  0
  194.4200  175.7150  146.2510 C   0  0  0  0  0  2  0  0  0  0  0  0
  1  2  1  0  0  0  0
  2 25  1  0  0  0  0
  3  1  2  0  0  0  0
  4  3  1  0  0  0  0
  5  4  1  6  0  0  0
  5  2  1  0  0  0  0
  6  9  1  1  0  0  0
  6 11  1  0  0  0  0
  7  8  1  6  0  0  0
  7  5  1  0  0  0  0
  7  6  1  0  0  0  0
  8  6  1  0  0  0  0
 10  9  1  0  0  0  0
 11 15  1  0  0  0  0
 12 14  1  0  0  0  0
 13 12  2  0  0  0  0
 15 13  1  0  0  0  0
 15 16  2  0  0  0  0
 16 17  1  0  0  0  0
 17 14  2  0  0  0  0
 18 19  2  0  0  0  0
 19 20  1  0  0  0  0
 19  3  1  0  0  0  0
 20 21  1  0  0  0  0
 21 24  1  0  0  0  0
 23 24  1  0  0  0  0
 24 22  1  1  0  0  0
 25 26  1  0  0  0  0
 26 27  1  0  0  0  0
 28 27  1  0  0  0  0
 28 31  1  0  0  0  0
 31 29  1  0  0  0  0
 31 30  1  0  0  0  0
 32 31  1  0  0  0  0
 33 35  1  0  0  0  0
 33 34  1  0  0  0  0
 34 32  1  0  0  0  0
 35 34  1  0  0  0  0
M  END
>  <MODEL>
1

>  <REMARK>
 VINA RESULT:      -6.3      0.000      0.000
  Name = 
  15 active torsions:
  status: ('A' for Active; 'I' for Inactive)
    1  A    between atoms: C_4  and  C_22
    2  A    between atoms: C_4  and  N_28
    3  A    between atoms: C_5  and  C_11
    4  A    between atoms: C_5  and  C_23
    5  A    between atoms: N_9  and  C_23
    6  A    between atoms: C_10  and  C_14
    7  A    between atoms: C_10  and  N_20
    8  A    between atoms: C_11  and  C_19
    9  A    between atoms: C_13  and  C_19
   10  A    between atoms: C_13  and  O_29
   11  A    between atoms: C_14  and  C_25
   12  A    between atoms: C_15  and  O_29
   13  A    between atoms: C_17  and  C_35
   14  A    between atoms: N_20  and  C_31
   15  A    between atoms: C_24  and  N_28
                            x       y       z     vdW  Elec       q    Type
                         _______ _______ _______ _____ _____    ______ ____

>  <TORSDO>
F 15

$$$$
=
 OpenBabel11042416543D

 35 38  0  0  1  0  0  0  0  0999 V2000
  193.1110  176.1700  143.4730 N   0  0  0  0  0  0  0  0  0  0  0  0
  191.8100  176.1350  143.9700 N   0  0  0  0  0  0  0  0  0  0  0  0
  194.0090  175.8580  144.3420 C   0  0  0  0  0  0  0  0  0  0  0  0
  193.3900  175.4610  145.9770 S   0  0  0  0  0  0  0  0  0  0  0  0
  191.6850  175.7450  145.3670 C   0  0  1  0  0  3  0  0  0  0  0  0
  189.6650  176.5000  146.6500 C   0  0  2  0  0  0  0  0  0  0  0  0
  191.0260  176.8650  146.1690 C   0  0  1  0  0  3  0  0  0  0  0  0
  190.7860  176.4330  147.4920 O   0  0  0  0  0  0  0  0  0  0  0  0
  189.0470  175.1170  146.5010 C   0  0  0  0  0  2  0  0  0  0  0  0
  189.0990  174.4330  147.7110 O   0  0  0  0  0  1  0  0  0  0  0  0
  188.7960  177.5940  147.0650 N   0  0  0  0  0  2  0  0  0  0  0  0
  185.2210  178.5020  147.6020 C   0  0  0  0  0  3  0  0  0  0  0  0
  186.6180  178.5100  147.6780 C   0  0  0  0  0  3  0  0  0  0  0  0
  184.5700  177.5570  146.8000 C   0  0  0  0  0  3  0  0  0  0  0  0
  187.3710  177.5730  146.9610 C   0  0  0  0  0  0  0  0  0  0  0  0
  186.7130  176.6370  146.1510 C   0  0  0  0  0  3  0  0  0  0  0  0
  185.3180  176.6280  146.0740 C   0  0  0  0  0  3  0  0  0  0  0  0
  195.9060  176.6150  143.1520 O   0  0  0  0  0  0  0  0  0  0  0  0
  195.4340  175.8000  143.9890 C   0  0  0  0  0  0  0  0  0  0  0  0
  196.3110  174.7360  144.5660 C   0  0  0  0  0  2  0  0  0  0  0  0
  195.9260  173.4290  144.0620 N   0  0  0  0  0  2  0  0  0  0  0  0
  196.9790  173.1050  146.2200 C   0  0  0  0  0  1  0  0  0  0  0  0
  194.8370  172.2080  145.7180 O   0  0  0  0  0  1  0  0  0  0  0  0
  196.0850  172.4920  145.1620 C   0  0  1  0  0  3  0  0  0  0  0  0
  190.6610  176.3530  143.1080 C   0  0  0  0  0  2  0  0  0  0  0  0
  190.3500  177.8380  143.0340 C   0  0  0  0  0  2  0  0  0  0  0  0
  189.1880  178.0710  142.0910 C   0  0  0  0  0  2  0  0  0  0  0  0
  188.3360  176.8180  141.9720 C   0  0  0  0  0  2  0  0  0  0  0  0
  186.2600  175.9070  142.7690 F   0  0  0  0  0  0  0  0  0  0  0  0
  186.2270  177.4560  141.1630 F   0  0  0  0  0  0  0  0  0  0  0  0
  186.8690  177.0770  142.3260 C   0  0  0  0  0  0  0  0  0  0  0  0
  186.7510  178.1400  143.2480 O   0  0  0  0  0  0  0  0  0  0  0  0
  184.4600  178.7590  143.4640 C   0  0  0  0  0  2  0  0  0  0  0  0
  185.7870  179.0610  142.8030 C   0  0  0  0  0  3  0  0  0  0  0  0
  185.3200  179.8890  143.9790 C   0  0  0  0  0  2  0  0  0  0  0  0
  1  2  1  0  0  0  0
  1  3  2  0  0  0  0
  2  5  1  0  0  0  0
  3  4  1  0  0  0  0
  5  4  1  1  0  0  0
  5  7  1  0  0  0  0
  6  9  1  6  0  0  0
  6 11  1  0  0  0  0
  6  8  1  0  0  0  0
  7  6  1  0  0  0  0
  7  8  1  1  0  0  0
  9 10  1  0  0  0  0
 12 13  1  0  0  0  0
 14 12  2  0  0  0  0
 15 11  1  0  0  0  0
 15 13  2  0  0  0  0
 16 15  1  0  0  0  0
 17 16  2  0  0  0  0
 17 14  1  0  0  0  0
 18 19  2  0  0  0  0
 19  3  1  0  0  0  0
 19 20  1  0  0  0  0
 21 20  1  0  0  0  0
 21 24  1  0  0  0  0
 24 23  1  0  0  0  0
 24 22  1  1  0  0  0
 25  2  1  0  0  0  0
 26 25  1  0  0  0  0
 27 26  1  0  0  0  0
 28 27  1  0  0  0  0
 28 31  1  0  0  0  0
 30 31  1  0  0  0  0
 31 29  1  0  0  0  0
 31 32  1  0  0  0  0
 33 35  1  0  0  0  0
 34 32  1  0  0  0  0
 34 33  1  0  0  0  0
 34 35  1  0  0  0  0
M  END
>  <MODEL>
2

>  <REMARK>
 VINA RESULT:      -6.3      3.374      5.729
  Name = 
  15 active torsions:
  status: ('A' for Active; 'I' for Inactive)
    1  A    between atoms: C_4  and  C_22
    2  A    between atoms: C_4  and  N_28
    3  A    between atoms: C_5  and  C_11
    4  A    between atoms: C_5  and  C_23
    5  A    between atoms: N_9  and  C_23
    6  A    between atoms: C_10  and  C_14
    7  A    between atoms: C_10  and  N_20
    8  A    between atoms: C_11  and  C_19
    9  A    between atoms: C_13  and  C_19
   10  A    between atoms: C_13  and  O_29
   11  A    between atoms: C_14  and  C_25
   12  A    between atoms: C_15  and  O_29
   13  A    between atoms: C_17  and  C_35
   14  A    between atoms: N_20  and  C_31
   15  A    between atoms: C_24  and  N_28
                            x       y       z     vdW  Elec       q    Type
                         _______ _______ _______ _____ _____    ______ ____

>  <TORSDO>
F 15

$$$$
=
 OpenBabel11042416543D

 35 38  0  0  1  0  0  0  0  0999 V2000
  188.7620  177.7710  141.9320 N   0  0  0  0  0  0  0  0  0  0  0  0
  189.7550  177.1680  142.7030 N   0  0  0  0  0  0  0  0  0  0  0  0
  187.9170  176.9390  141.4310 C   0  0  0  0  0  0  0  0  0  0  0  0
  188.2080  175.2140  141.8270 S   0  0  0  0  0  0  0  0  0  0  0  0
  189.6630  175.7210  142.8200 C   0  0  1  0  0  3  0  0  0  0  0  0
  191.5370  174.0990  143.2150 C   0  0  2  0  0  0  0  0  0  0  0  0
  190.9260  175.0670  142.2630 C   0  0  1  0  0  3  0  0  0  0  0  0
  190.7340  173.6730  142.1460 O   0  0  0  0  0  0  0  0  0  0  0  0
  190.9040  173.6810  144.5350 C   0  0  0  0  0  2  0  0  0  0  0  0
  190.8230  172.2950  144.6130 O   0  0  0  0  0  1  0  0  0  0  0  0
  192.9240  173.7230  142.9760 N   0  0  0  0  0  2  0  0  0  0  0  0
  195.7140  172.8970  145.3060 C   0  0  0  0  0  3  0  0  0  0  0  0
  194.6870  172.7640  144.3660 C   0  0  0  0  0  3  0  0  0  0  0  0
  196.0410  174.1620  145.8080 C   0  0  0  0  0  3  0  0  0  0  0  0
  193.9780  173.8880  143.9270 C   0  0  0  0  0  0  0  0  0  0  0  0
  194.3180  175.1530  144.4260 C   0  0  0  0  0  3  0  0  0  0  0  0
  195.3450  175.2880  145.3650 C   0  0  0  0  0  3  0  0  0  0  0  0
  186.8240  177.3070  139.3670 O   0  0  0  0  0  0  0  0  0  0  0  0
  186.7760  177.3930  140.6230 C   0  0  0  0  0  0  0  0  0  0  0  0
  185.5900  178.0220  141.2800 C   0  0  0  0  0  2  0  0  0  0  0  0
  185.2130  177.2790  142.4690 N   0  0  0  0  0  2  0  0  0  0  0  0
  185.4540  179.4190  143.5790 C   0  0  0  0  0  1  0  0  0  0  0  0
  183.3520  178.6410  142.7900 O   0  0  0  0  0  1  0  0  0  0  0  0
  184.5540  178.2200  143.3610 C   0  0  1  0  0  3  0  0  0  0  0  0
  190.7320  177.9570  143.4350 C   0  0  0  0  0  2  0  0  0  0  0  0
  190.8570  177.4300  144.8530 C   0  0  0  0  0  2  0  0  0  0  0  0
  189.6160  177.7910  145.6440 C   0  0  0  0  0  2  0  0  0  0  0  0
  189.4680  176.8790  146.8510 C   0  0  0  0  0  2  0  0  0  0  0  0
  188.5310  174.6950  147.2070 F   0  0  0  0  0  0  0  0  0  0  0  0
  187.9190  175.8650  145.4080 F   0  0  0  0  0  0  0  0  0  0  0  0
  188.2360  175.9750  146.7480 C   0  0  0  0  0  0  0  0  0  0  0  0
  187.1280  176.5520  147.4070 O   0  0  0  0  0  0  0  0  0  0  0  0
  184.8910  176.8910  146.6600 C   0  0  0  0  0  2  0  0  0  0  0  0
  186.3440  177.2740  146.4900 C   0  0  0  0  0  3  0  0  0  0  0  0
  185.4060  178.1810  147.2550 C   0  0  0  0  0  2  0  0  0  0  0  0
  1  2  1  0  0  0  0
  2  5  1  0  0  0  0
  2 25  1  0  0  0  0
  3  4  1  0  0  0  0
  3  1  2  0  0  0  0
  5  4  1  6  0  0  0
  6  9  1  1  0  0  0
  7  8  1  6  0  0  0
  7  5  1  0  0  0  0
  7  6  1  0  0  0  0
  8  6  1  0  0  0  0
  9 10  1  0  0  0  0
 11  6  1  0  0  0  0
 11 15  1  0  0  0  0
 12 14  1  0  0  0  0
 13 12  2  0  0  0  0
 15 13  1  0  0  0  0
 15 16  2  0  0  0  0
 16 17  1  0  0  0  0
 17 14  2  0  0  0  0
 18 19  2  0  0  0  0
 19 20  1  0  0  0  0
 19  3  1  0  0  0  0
 20 21  1  0  0  0  0
 21 24  1  0  0  0  0
 23 24  1  0  0  0  0
 24 22  1  6  0  0  0
 25 26  1  0  0  0  0
 26 27  1  0  0  0  0
 27 28  1  0  0  0  0
 30 31  1  0  0  0  0
 31 28  1  0  0  0  0
 31 29  1  0  0  0  0
 31 32  1  0  0  0  0
 33 35  1  0  0  0  0
 34 33  1  0  0  0  0
 34 35  1  0  0  0  0
 34 32  1  0  0  0  0
M  END
>  <MODEL>
3

>  <REMARK>
 VINA RESULT:      -6.3      2.499      7.614
  Name = 
  15 active torsions:
  status: ('A' for Active; 'I' for Inactive)
    1  A    between atoms: C_4  and  C_22
    2  A    between atoms: C_4  and  N_28
    3  A    between atoms: C_5  and  C_11
    4  A    between atoms: C_5  and  C_23
    5  A    between atoms: N_9  and  C_23
    6  A    between atoms: C_10  and  C_14
    7  A    between atoms: C_10  and  N_20
    8  A    between atoms: C_11  and  C_19
    9  A    between atoms: C_13  and  C_19
   10  A    between atoms: C_13  and  O_29
   11  A    between atoms: C_14  and  C_25
   12  A    between atoms: C_15  and  O_29
   13  A    between atoms: C_17  and  C_35
   14  A    between atoms: N_20  and  C_31
   15  A    between atoms: C_24  and  N_28
                            x       y       z     vdW  Elec       q    Type
                         _______ _______ _______ _____ _____    ______ ____

>  <TORSDO>
F 15

$$$$
=
 OpenBabel11042416543D

 35 38  0  0  1  0  0  0  0  0999 V2000
  190.4790  173.3340  143.3460 N   0  0  0  0  0  0  0  0  0  0  0  0
  189.7580  174.5140  143.5170 N   0  0  0  0  0  0  0  0  0  0  0  0
  190.5410  172.9340  142.1230 C   0  0  0  0  0  0  0  0  0  0  0  0
  189.6890  173.9700  140.9330 S   0  0  0  0  0  0  0  0  0  0  0  0
  189.2130  175.0950  142.2990 C   0  0  1  0  0  3  0  0  0  0  0  0
  187.2130  176.5720  142.6350 C   0  0  2  0  0  0  0  0  0  0  0  0
  187.6910  175.1840  142.3940 C   0  0  1  0  0  3  0  0  0  0  0  0
  187.1920  175.9990  141.3550 O   0  0  0  0  0  0  0  0  0  0  0  0
  188.1130  177.8000  142.6370 C   0  0  0  0  0  2  0  0  0  0  0  0
  188.2650  178.2870  141.3430 O   0  0  0  0  0  1  0  0  0  0  0  0
  185.8520  176.7250  143.1350 N   0  0  0  0  0  2  0  0  0  0  0  0
  185.8460  177.2250  146.8290 C   0  0  0  0  0  3  0  0  0  0  0  0
  186.1620  176.7370  145.5560 C   0  0  0  0  0  3  0  0  0  0  0  0
  184.8890  178.2360  146.9710 C   0  0  0  0  0  3  0  0  0  0  0  0
  185.5210  177.2490  144.4230 C   0  0  0  0  0  0  0  0  0  0  0  0
  184.5710  178.2690  144.5720 C   0  0  0  0  0  3  0  0  0  0  0  0
  184.2550  178.7580  145.8420 C   0  0  0  0  0  3  0  0  0  0  0  0
  192.5390  171.6860  141.9240 O   0  0  0  0  0  0  0  0  0  0  0  0
  191.2930  171.7300  141.7440 C   0  0  0  0  0  0  0  0  0  0  0  0
  190.5970  170.5860  141.0810 C   0  0  0  0  0  2  0  0  0  0  0  0
  191.1160  170.3810  139.7400 N   0  0  0  0  0  2  0  0  0  0  0  0
  190.6100  171.8590  137.8880 C   0  0  0  0  0  1  0  0  0  0  0  0
  189.6510  169.6920  138.0670 O   0  0  0  0  0  1  0  0  0  0  0  0
  190.0700  170.7910  138.8180 C   0  0  1  0  0  3  0  0  0  0  0  0
  189.6720  175.1710  144.8110 C   0  0  0  0  0  2  0  0  0  0  0  0
  189.5900  174.1280  145.9110 C   0  0  0  0  0  2  0  0  0  0  0  0
  189.2880  174.8020  147.2340 C   0  0  0  0  0  2  0  0  0  0  0  0
  189.8980  176.1940  147.2750 C   0  0  0  0  0  2  0  0  0  0  0  0
  191.5160  175.0080  148.5960 F   0  0  0  0  0  0  0  0  0  0  0  0
  191.2920  177.2120  148.8650 F   0  0  0  0  0  0  0  0  0  0  0  0
  191.2860  176.2020  147.9220 C   0  0  0  0  0  0  0  0  0  0  0  0
  192.2860  176.4970  146.9690 O   0  0  0  0  0  0  0  0  0  0  0  0
  193.4140  175.3680  145.2000 C   0  0  0  0  0  2  0  0  0  0  0  0
  193.0140  175.3360  146.6590 C   0  0  0  0  0  3  0  0  0  0  0  0
  194.4210  175.7290  146.2670 C   0  0  0  0  0  2  0  0  0  0  0  0
  1  2  1  0  0  0  0
  2 25  1  0  0  0  0
  3  1  2  0  0  0  0
  4  3  1  0  0  0  0
  5  4  1  6  0  0  0
  5  7  1  0  0  0  0
  5  2  1  0  0  0  0
  6  9  1  1  0  0  0
  6 11  1  0  0  0  0
  7  8  1  6  0  0  0
  7  6  1  0  0  0  0
  8  6  1  0  0  0  0
 10  9  1  0  0  0  0
 11 15  1  0  0  0  0
 12 14  1  0  0  0  0
 13 12  2  0  0  0  0
 15 16  2  0  0  0  0
 15 13  1  0  0  0  0
 16 17  1  0  0  0  0
 17 14  2  0  0  0  0
 19 18  2  0  0  0  0
 19  3  1  0  0  0  0
 20 19  1  0  0  0  0
 21 20  1  0  0  0  0
 23 24  1  0  0  0  0
 24 22  1  6  0  0  0
 24 21  1  0  0  0  0
 25 26  1  0  0  0  0
 26 27  1  0  0  0  0
 27 28  1  0  0  0  0
 28 31  1  0  0  0  0
 31 29  1  0  0  0  0
 31 30  1  0  0  0  0
 32 31  1  0  0  0  0
 33 35  1  0  0  0  0
 33 34  1  0  0  0  0
 34 32  1  0  0  0  0
 35 34  1  0  0  0  0
M  END
>  <MODEL>
4

>  <REMARK>
 VINA RESULT:      -6.3      1.492      2.598
  Name = 
  15 active torsions:
  status: ('A' for Active; 'I' for Inactive)
    1  A    between atoms: C_4  and  C_22
    2  A    between atoms: C_4  and  N_28
    3  A    between atoms: C_5  and  C_11
    4  A    between atoms: C_5  and  C_23
    5  A    between atoms: N_9  and  C_23
    6  A    between atoms: C_10  and  C_14
    7  A    between atoms: C_10  and  N_20
    8  A    between atoms: C_11  and  C_19
    9  A    between atoms: C_13  and  C_19
   10  A    between atoms: C_13  and  O_29
   11  A    between atoms: C_14  and  C_25
   12  A    between atoms: C_15  and  O_29
   13  A    between atoms: C_17  and  C_35
   14  A    between atoms: N_20  and  C_31
   15  A    between atoms: C_24  and  N_28
                            x       y       z     vdW  Elec       q    Type
                         _______ _______ _______ _____ _____    ______ ____

>  <TORSDO>
F 15

$$$$
=
 OpenBabel11042416543D

 35 38  0  0  1  0  0  0  0  0999 V2000
  193.2990  176.0850  143.8830 N   0  0  0  0  0  0  0  0  0  0  0  0
  191.9520  176.0940  144.2400 N   0  0  0  0  0  0  0  0  0  0  0  0
  194.0880  175.7370  144.8390 C   0  0  0  0  0  0  0  0  0  0  0  0
  193.2870  175.3530  146.3960 S   0  0  0  0  0  0  0  0  0  0  0  0
  191.6670  175.7010  145.6120 C   0  0  1  0  0  3  0  0  0  0  0  0
  189.5490  176.5190  146.6820 C   0  0  2  0  0  0  0  0  0  0  0  0
  190.9650  176.8390  146.3500 C   0  0  1  0  0  3  0  0  0  0  0  0
  190.5720  176.4080  147.6360 O   0  0  0  0  0  0  0  0  0  0  0  0
  188.9030  175.1590  146.4560 C   0  0  0  0  0  2  0  0  0  0  0  0
  188.9490  174.4040  147.6230 O   0  0  0  0  0  1  0  0  0  0  0  0
  188.6790  177.6400  147.0130 N   0  0  0  0  0  2  0  0  0  0  0  0
  185.2830  176.6870  145.8080 C   0  0  0  0  0  3  0  0  0  0  0  0
  186.6700  176.7100  145.9840 C   0  0  0  0  0  3  0  0  0  0  0  0
  184.4740  177.5820  146.5180 C   0  0  0  0  0  3  0  0  0  0  0  0
  187.2580  177.6280  146.8610 C   0  0  0  0  0  0  0  0  0  0  0  0
  186.4410  178.5140  147.5770 C   0  0  0  0  0  3  0  0  0  0  0  0
  185.0550  178.4920  147.4030 C   0  0  0  0  0  3  0  0  0  0  0  0
  196.2190  174.8590  145.3650 O   0  0  0  0  0  0  0  0  0  0  0  0
  195.5400  175.6320  144.6380 C   0  0  0  0  0  0  0  0  0  0  0  0
  196.2240  176.4900  143.6240 C   0  0  0  0  0  2  0  0  0  0  0  0
  196.6610  175.6920  142.4910 N   0  0  0  0  0  2  0  0  0  0  0  0
  197.1220  175.8890  140.1210 C   0  0  0  0  0  1  0  0  0  0  0  0
  194.9820  176.3770  141.0310 O   0  0  0  0  0  1  0  0  0  0  0  0
  196.3500  176.4570  141.2940 C   0  0  1  0  0  3  0  0  0  0  0  0
  190.9080  176.3560  143.2630 C   0  0  0  0  0  2  0  0  0  0  0  0
  190.6740  177.8530  143.1540 C   0  0  0  0  0  2  0  0  0  0  0  0
  189.3340  178.1140  142.4960 C   0  0  0  0  0  2  0  0  0  0  0  0
  188.3560  176.9950  142.8140 C   0  0  0  0  0  2  0  0  0  0  0  0
  187.4740  175.6710  141.0130 F   0  0  0  0  0  0  0  0  0  0  0  0
  187.4270  177.8960  140.8560 F   0  0  0  0  0  0  0  0  0  0  0  0
  187.2780  176.8420  141.7370 C   0  0  0  0  0  0  0  0  0  0  0  0
  185.9850  176.9310  142.2980 O   0  0  0  0  0  0  0  0  0  0  0  0
  184.0430  178.2740  142.6180 C   0  0  0  0  0  2  0  0  0  0  0  0
  185.3680  178.1300  141.9030 C   0  0  0  0  0  3  0  0  0  0  0  0
  185.2490  179.0400  143.1060 C   0  0  0  0  0  2  0  0  0  0  0  0
  1  2  1  0  0  0  0
  1  3  2  0  0  0  0
  2  5  1  0  0  0  0
  3  4  1  0  0  0  0
  5  7  1  0  0  0  0
  5  4  1  1  0  0  0
  6  9  1  6  0  0  0
  6 11  1  0  0  0  0
  6  8  1  0  0  0  0
  7  6  1  0  0  0  0
  7  8  1  1  0  0  0
  9 10  1  0  0  0  0
 12 13  2  0  0  0  0
 12 14  1  0  0  0  0
 13 15  1  0  0  0  0
 14 17  2  0  0  0  0
 15 11  1  0  0  0  0
 15 16  2  0  0  0  0
 17 16  1  0  0  0  0
 19  3  1  0  0  0  0
 19 18  2  0  0  0  0
 20 19  1  0  0  0  0
 21 20  1  0  0  0  0
 23 24  1  0  0  0  0
 24 22  1  6  0  0  0
 24 21  1  0  0  0  0
 25  2  1  0  0  0  0
 26 25  1  0  0  0  0
 27 28  1  0  0  0  0
 27 26  1  0  0  0  0
 29 31  1  0  0  0  0
 30 31  1  0  0  0  0
 31 32  1  0  0  0  0
 31 28  1  0  0  0  0
 33 35  1  0  0  0  0
 34 32  1  0  0  0  0
 34 33  1  0  0  0  0
 34 35  1  0  0  0  0
M  END
>  <MODEL>
5

>  <REMARK>
 VINA RESULT:      -6.0      3.728      6.110
  Name = 
  15 active torsions:
  status: ('A' for Active; 'I' for Inactive)
    1  A    between atoms: C_4  and  C_22
    2  A    between atoms: C_4  and  N_28
    3  A    between atoms: C_5  and  C_11
    4  A    between atoms: C_5  and  C_23
    5  A    between atoms: N_9  and  C_23
    6  A    between atoms: C_10  and  C_14
    7  A    between atoms: C_10  and  N_20
    8  A    between atoms: C_11  and  C_19
    9  A    between atoms: C_13  and  C_19
   10  A    between atoms: C_13  and  O_29
   11  A    between atoms: C_14  and  C_25
   12  A    between atoms: C_15  and  O_29
   13  A    between atoms: C_17  and  C_35
   14  A    between atoms: N_20  and  C_31
   15  A    between atoms: C_24  and  N_28
                            x       y       z     vdW  Elec       q    Type
                         _______ _______ _______ _____ _____    ______ ____

>  <TORSDO>
F 15

$$$$
=
 OpenBabel11042416543D

 35 38  0  0  1  0  0  0  0  0999 V2000
  191.4330  173.6630  142.5040 N   0  0  0  0  0  0  0  0  0  0  0  0
  190.9730  174.9750  142.5950 N   0  0  0  0  0  0  0  0  0  0  0  0
  190.5240  172.8140  142.1720 C   0  0  0  0  0  0  0  0  0  0  0  0
  188.8890  173.5030  141.9120 S   0  0  0  0  0  0  0  0  0  0  0  0
  189.5620  175.1640  142.2910 C   0  0  1  0  0  3  0  0  0  0  0  0
  188.3650  177.1460  143.2580 C   0  0  2  0  0  0  0  0  0  0  0  0
  188.8380  175.7560  143.4990 C   0  0  1  0  0  3  0  0  0  0  0  0
  187.4980  176.0470  143.1610 O   0  0  0  0  0  0  0  0  0  0  0  0
  188.4480  177.8590  141.9160 C   0  0  0  0  0  2  0  0  0  0  0  0
  187.2170  177.8160  141.2710 O   0  0  0  0  0  1  0  0  0  0  0  0
  188.0300  177.9430  144.4320 N   0  0  0  0  0  2  0  0  0  0  0  0
  184.9420  177.5880  146.4890 C   0  0  0  0  0  3  0  0  0  0  0  0
  186.2440  177.4120  146.0100 C   0  0  0  0  0  3  0  0  0  0  0  0
  184.0890  178.5110  145.8730 C   0  0  0  0  0  3  0  0  0  0  0  0
  186.6990  178.1500  144.9110 C   0  0  0  0  0  0  0  0  0  0  0  0
  185.8440  179.0800  144.3050 C   0  0  0  0  0  3  0  0  0  0  0  0
  184.5430  179.2580  144.7840 C   0  0  0  0  0  3  0  0  0  0  0  0
  191.4580  170.7620  142.8840 O   0  0  0  0  0  0  0  0  0  0  0  0
  190.8310  171.3890  141.9890 C   0  0  0  0  0  0  0  0  0  0  0  0
  190.4660  170.6980  140.7150 C   0  0  0  0  0  2  0  0  0  0  0  0
  191.0990  171.3490  139.5810 N   0  0  0  0  0  2  0  0  0  0  0  0
  189.9290  169.7620  138.1730 C   0  0  0  0  0  1  0  0  0  0  0  0
  188.9720  171.8510  138.7790 O   0  0  0  0  0  1  0  0  0  0  0  0
  190.1800  171.2280  138.4610 C   0  0  1  0  0  3  0  0  0  0  0  0
  191.8780  176.0820  142.8530 C   0  0  0  0  0  2  0  0  0  0  0  0
  193.3090  175.5740  142.8970 C   0  0  0  0  0  2  0  0  0  0  0  0
  194.0260  176.1690  144.0920 C   0  0  0  0  0  2  0  0  0  0  0  0
  193.0300  176.7850  145.0600 C   0  0  0  0  0  2  0  0  0  0  0  0
  194.3560  177.1820  147.0240 F   0  0  0  0  0  0  0  0  0  0  0  0
  193.7570  175.0940  146.5160 F   0  0  0  0  0  0  0  0  0  0  0  0
  193.3220  176.4050  146.5150 C   0  0  0  0  0  0  0  0  0  0  0  0
  192.1490  176.4690  147.3000 O   0  0  0  0  0  0  0  0  0  0  0  0
  189.9570  175.5410  147.1930 C   0  0  0  0  0  2  0  0  0  0  0  0
  191.0130  176.3570  146.4810 C   0  0  0  0  0  3  0  0  0  0  0  0
  189.8500  177.0470  147.1580 C   0  0  0  0  0  2  0  0  0  0  0  0
  1  2  1  0  0  0  0
  2 25  1  0  0  0  0
  3  1  2  0  0  0  0
  4  3  1  0  0  0  0
  5  4  1  1  0  0  0
  5  2  1  0  0  0  0
  5  7  1  0  0  0  0
  6  9  1  6  0  0  0
  6  7  1  0  0  0  0
  6 11  1  0  0  0  0
  7  8  1  6  0  0  0
  8  6  1  0  0  0  0
 10  9  1  0  0  0  0
 11 15  1  0  0  0  0
 13 12  1  0  0  0  0
 14 12  2  0  0  0  0
 15 13  2  0  0  0  0
 16 17  2  0  0  0  0
 16 15  1  0  0  0  0
 17 14  1  0  0  0  0
 19  3  1  0  0  0  0
 19 18  2  0  0  0  0
 20 19  1  0  0  0  0
 21 20  1  0  0  0  0
 24 22  1  1  0  0  0
 24 23  1  0  0  0  0
 24 21  1  0  0  0  0
 25 26  1  0  0  0  0
 26 27  1  0  0  0  0
 27 28  1  0  0  0  0
 28 31  1  0  0  0  0
 31 30  1  0  0  0  0
 31 29  1  0  0  0  0
 31 32  1  0  0  0  0
 34 35  1  0  0  0  0
 34 33  1  0  0  0  0
 34 32  1  0  0  0  0
 35 33  1  0  0  0  0
M  END
>  <MODEL>
6

>  <REMARK>
 VINA RESULT:      -6.0      2.062      3.521
  Name = 
  15 active torsions:
  status: ('A' for Active; 'I' for Inactive)
    1  A    between atoms: C_4  and  C_22
    2  A    between atoms: C_4  and  N_28
    3  A    between atoms: C_5  and  C_11
    4  A    between atoms: C_5  and  C_23
    5  A    between atoms: N_9  and  C_23
    6  A    between atoms: C_10  and  C_14
    7  A    between atoms: C_10  and  N_20
    8  A    between atoms: C_11  and  C_19
    9  A    between atoms: C_13  and  C_19
   10  A    between atoms: C_13  and  O_29
   11  A    between atoms: C_14  and  C_25
   12  A    between atoms: C_15  and  O_29
   13  A    between atoms: C_17  and  C_35
   14  A    between atoms: N_20  and  C_31
   15  A    between atoms: C_24  and  N_28
                            x       y       z     vdW  Elec       q    Type
                         _______ _______ _______ _____ _____    ______ ____

>  <TORSDO>
F 15

$$$$
=
 OpenBabel11042416543D

 35 38  0  0  1  0  0  0  0  0999 V2000
  190.1340  176.0600  142.5990 N   0  0  0  0  0  0  0  0  0  0  0  0
  191.4750  175.7420  142.8040 N   0  0  0  0  0  0  0  0  0  0  0  0
  189.8360  177.2770  142.8980 C   0  0  0  0  0  0  0  0  0  0  0  0
  191.1960  178.2730  143.5100 S   0  0  0  0  0  0  0  0  0  0  0  0
  192.3050  176.8280  143.3040 C   0  0  1  0  0  3  0  0  0  0  0  0
  194.3690  176.1340  144.5510 C   0  0  2  0  0  0  0  0  0  0  0  0
  192.9170  176.4460  144.6500 C   0  0  1  0  0  3  0  0  0  0  0  0
  193.9140  177.3800  145.0080 O   0  0  0  0  0  0  0  0  0  0  0  0
  195.2000  176.3190  143.2890 C   0  0  0  0  0  2  0  0  0  0  0  0
  196.4540  176.8280  143.6080 O   0  0  0  0  0  1  0  0  0  0  0  0
  194.9610  175.3850  145.6530 N   0  0  0  0  0  2  0  0  0  0  0  0
  196.9030  172.2060  145.7610 C   0  0  0  0  0  3  0  0  0  0  0  0
  196.5810  173.5660  145.8130 C   0  0  0  0  0  3  0  0  0  0  0  0
  195.9030  171.2600  145.5080 C   0  0  0  0  0  3  0  0  0  0  0  0
  195.2630  173.9890  145.6070 C   0  0  0  0  0  0  0  0  0  0  0  0
  194.2640  173.0360  145.3650 C   0  0  0  0  0  3  0  0  0  0  0  0
  194.5850  171.6760  145.3130 C   0  0  0  0  0  3  0  0  0  0  0  0
  188.1430  178.2920  141.5970 O   0  0  0  0  0  0  0  0  0  0  0  0
  188.4780  177.8050  142.7100 C   0  0  0  0  0  0  0  0  0  0  0  0
  187.5150  177.8320  143.8520 C   0  0  0  0  0  2  0  0  0  0  0  0
  186.2310  178.3620  143.4250 N   0  0  0  0  0  2  0  0  0  0  0  0
  185.6470  177.0480  145.3750 C   0  0  0  0  0  1  0  0  0  0  0  0
  185.5540  179.4220  145.3840 O   0  0  0  0  0  1  0  0  0  0  0  0
  185.3480  178.3020  144.5790 C   0  0  1  0  0  3  0  0  0  0  0  0
  192.0160  174.4490  142.4220 C   0  0  0  0  0  2  0  0  0  0  0  0
  191.0160  173.7130  141.5470 C   0  0  0  0  0  2  0  0  0  0  0  0
  190.5780  172.4360  142.2350 C   0  0  0  0  0  2  0  0  0  0  0  0
  189.6130  172.7430  143.3680 C   0  0  0  0  0  2  0  0  0  0  0  0
  191.3630  171.6980  144.6410 F   0  0  0  0  0  0  0  0  0  0  0  0
  189.3150  171.8400  145.5140 F   0  0  0  0  0  0  0  0  0  0  0  0
  190.2430  172.5160  144.7450 C   0  0  0  0  0  0  0  0  0  0  0  0
  190.5180  173.7450  145.3850 O   0  0  0  0  0  0  0  0  0  0  0  0
  189.2650  174.6370  147.2050 C   0  0  0  0  0  2  0  0  0  0  0  0
  189.3170  174.3980  145.7120 C   0  0  0  0  0  3  0  0  0  0  0  0
  189.6400  175.7650  146.2730 C   0  0  0  0  0  2  0  0  0  0  0  0
  1  2  1  0  0  0  0
  1  3  2  0  0  0  0
  2  5  1  0  0  0  0
  3  4  1  0  0  0  0
  5  4  1  1  0  0  0
  5  7  1  0  0  0  0
  6  9  1  6  0  0  0
  6  7  1  0  0  0  0
  6  8  1  0  0  0  0
  6 11  1  0  0  0  0
  7  8  1  1  0  0  0
  9 10  1  0  0  0  0
 12 13  1  0  0  0  0
 14 12  2  0  0  0  0
 15 11  1  0  0  0  0
 15 13  2  0  0  0  0
 16 15  1  0  0  0  0
 17 16  2  0  0  0  0
 17 14  1  0  0  0  0
 18 19  2  0  0  0  0
 19  3  1  0  0  0  0
 19 20  1  0  0  0  0
 21 20  1  0  0  0  0
 21 24  1  0  0  0  0
 24 22  1  1  0  0  0
 24 23  1  0  0  0  0
 25  2  1  0  0  0  0
 26 27  1  0  0  0  0
 26 25  1  0  0  0  0
 27 28  1  0  0  0  0
 28 31  1  0  0  0  0
 29 31  1  0  0  0  0
 31 32  1  0  0  0  0
 31 30  1  0  0  0  0
 32 34  1  0  0  0  0
 34 35  1  0  0  0  0
 34 33  1  0  0  0  0
 35 33  1  0  0  0  0
M  END
>  <MODEL>
7

>  <REMARK>
 VINA RESULT:      -6.0      2.713      7.896
  Name = 
  15 active torsions:
  status: ('A' for Active; 'I' for Inactive)
    1  A    between atoms: C_4  and  C_22
    2  A    between atoms: C_4  and  N_28
    3  A    between atoms: C_5  and  C_11
    4  A    between atoms: C_5  and  C_23
    5  A    between atoms: N_9  and  C_23
    6  A    between atoms: C_10  and  C_14
    7  A    between atoms: C_10  and  N_20
    8  A    between atoms: C_11  and  C_19
    9  A    between atoms: C_13  and  C_19
   10  A    between atoms: C_13  and  O_29
   11  A    between atoms: C_14  and  C_25
   12  A    between atoms: C_15  and  O_29
   13  A    between atoms: C_17  and  C_35
   14  A    between atoms: N_20  and  C_31
   15  A    between atoms: C_24  and  N_28
                            x       y       z     vdW  Elec       q    Type
                         _______ _______ _______ _____ _____    ______ ____

>  <TORSDO>
F 15

$$$$
=
 OpenBabel11042416543D

 35 38  0  0  1  0  0  0  0  0999 V2000
  190.0990  173.0140  144.2280 N   0  0  0  0  0  0  0  0  0  0  0  0
  189.5270  174.2840  144.2680 N   0  0  0  0  0  0  0  0  0  0  0  0
  190.4080  172.6200  143.0420 C   0  0  0  0  0  0  0  0  0  0  0  0
  190.0320  173.7780  141.7250 S   0  0  0  0  0  0  0  0  0  0  0  0
  189.3900  174.9480  142.9810 C   0  0  1  0  0  3  0  0  0  0  0  0
  187.6260  176.7150  142.7240 C   0  0  2  0  0  0  0  0  0  0  0  0
  187.9200  175.2560  142.7020 C   0  0  1  0  0  3  0  0  0  0  0  0
  187.8040  176.0180  141.5190 O   0  0  0  0  0  0  0  0  0  0  0  0
  188.6850  177.8000  142.8560 C   0  0  0  0  0  2  0  0  0  0  0  0
  188.8730  178.4400  141.6360 O   0  0  0  0  0  1  0  0  0  0  0  0
  186.2290  177.1050  142.8720 N   0  0  0  0  0  2  0  0  0  0  0  0
  185.4100  177.1150  146.5080 C   0  0  0  0  0  3  0  0  0  0  0  0
  186.0000  176.7920  145.2820 C   0  0  0  0  0  3  0  0  0  0  0  0
  184.4370  178.1190  146.5710 C   0  0  0  0  0  3  0  0  0  0  0  0
  185.6200  177.4620  144.1140 C   0  0  0  0  0  0  0  0  0  0  0  0
  184.6520  178.4740  144.1860 C   0  0  0  0  0  3  0  0  0  0  0  0
  184.0620  178.7990  145.4110 C   0  0  0  0  0  3  0  0  0  0  0  0
  190.6820  170.5990  141.8460 O   0  0  0  0  0  0  0  0  0  0  0  0
  191.0570  171.3230  142.8070 C   0  0  0  0  0  0  0  0  0  0  0  0
  192.1110  170.8270  143.7430 C   0  0  0  0  0  2  0  0  0  0  0  0
  193.3770  171.4920  143.4840 N   0  0  0  0  0  2  0  0  0  0  0  0
  195.4190  172.2150  144.5690 C   0  0  0  0  0  1  0  0  0  0  0  0
  193.2760  172.6860  145.4800 O   0  0  0  0  0  1  0  0  0  0  0  0
  194.0010  171.7240  144.7770 C   0  0  1  0  0  3  0  0  0  0  0  0
  189.2130  174.9370  145.5290 C   0  0  0  0  0  2  0  0  0  0  0  0
  190.4230  174.8900  146.4450 C   0  0  0  0  0  2  0  0  0  0  0  0
  191.4660  175.8790  145.9660 C   0  0  0  0  0  2  0  0  0  0  0  0
  192.6800  175.8610  146.8800 C   0  0  0  0  0  2  0  0  0  0  0  0
  194.9000  175.2630  146.1810 F   0  0  0  0  0  0  0  0  0  0  0  0
  194.4940  177.3500  146.8570 F   0  0  0  0  0  0  0  0  0  0  0  0
  193.9600  176.2870  146.1540 C   0  0  0  0  0  0  0  0  0  0  0  0
  193.6740  176.7360  144.8460 O   0  0  0  0  0  0  0  0  0  0  0  0
  193.4830  175.1200  143.1060 C   0  0  0  0  0  2  0  0  0  0  0  0
  194.4170  175.9980  143.9090 C   0  0  0  0  0  3  0  0  0  0  0  0
  193.9980  176.4120  142.5150 C   0  0  0  0  0  2  0  0  0  0  0  0
  1  2  1  0  0  0  0
  2 25  1  0  0  0  0
  3  1  2  0  0  0  0
  4  3  1  0  0  0  0
  5  4  1  6  0  0  0
  5  2  1  0  0  0  0
  6  9  1  1  0  0  0
  6 11  1  0  0  0  0
  7  8  1  6  0  0  0
  7  6  1  0  0  0  0
  7  5  1  0  0  0  0
  8  6  1  0  0  0  0
 10  9  1  0  0  0  0
 11 15  1  0  0  0  0
 12 14  1  0  0  0  0
 13 12  2  0  0  0  0
 15 16  2  0  0  0  0
 15 13  1  0  0  0  0
 16 17  1  0  0  0  0
 17 14  2  0  0  0  0
 18 19  2  0  0  0  0
 19  3  1  0  0  0  0
 19 20  1  0  0  0  0
 21 20  1  0  0  0  0
 21 24  1  0  0  0  0
 24 22  1  6  0  0  0
 24 23  1  0  0  0  0
 25 26  1  0  0  0  0
 27 26  1  0  0  0  0
 27 28  1  0  0  0  0
 31 29  1  0  0  0  0
 31 30  1  0  0  0  0
 31 28  1  0  0  0  0
 32 31  1  0  0  0  0
 33 34  1  0  0  0  0
 34 32  1  0  0  0  0
 35 33  1  0  0  0  0
 35 34  1  0  0  0  0
M  END
>  <MODEL>
8

>  <REMARK>
 VINA RESULT:      -5.8      1.509      1.985
  Name = 
  15 active torsions:
  status: ('A' for Active; 'I' for Inactive)
    1  A    between atoms: C_4  and  C_22
    2  A    between atoms: C_4  and  N_28
    3  A    between atoms: C_5  and  C_11
    4  A    between atoms: C_5  and  C_23
    5  A    between atoms: N_9  and  C_23
    6  A    between atoms: C_10  and  C_14
    7  A    between atoms: C_10  and  N_20
    8  A    between atoms: C_11  and  C_19
    9  A    between atoms: C_13  and  C_19
   10  A    between atoms: C_13  and  O_29
   11  A    between atoms: C_14  and  C_25
   12  A    between atoms: C_15  and  O_29
   13  A    between atoms: C_17  and  C_35
   14  A    between atoms: N_20  and  C_31
   15  A    between atoms: C_24  and  N_28
                            x       y       z     vdW  Elec       q    Type
                         _______ _______ _______ _____ _____    ______ ____

>  <TORSDO>
F 15

$$$$
=
 OpenBabel11042416543D

 35 38  0  0  1  0  0  0  0  0999 V2000
  187.9300  178.1670  142.9150 N   0  0  0  0  0  0  0  0  0  0  0  0
  188.9250  177.1950  142.8330 N   0  0  0  0  0  0  0  0  0  0  0  0
  186.7430  177.6870  143.0530 C   0  0  0  0  0  0  0  0  0  0  0  0
  186.6400  175.8970  143.1030 S   0  0  0  0  0  0  0  0  0  0  0  0
  188.4620  175.8180  142.9300 C   0  0  1  0  0  3  0  0  0  0  0  0
  189.5180  173.7600  141.9560 C   0  0  2  0  0  0  0  0  0  0  0  0
  188.8320  175.0490  141.6630 C   0  0  1  0  0  3  0  0  0  0  0  0
  188.1520  173.8120  141.6370 O   0  0  0  0  0  0  0  0  0  0  0  0
  189.7000  173.1860  143.3530 C   0  0  0  0  0  2  0  0  0  0  0  0
  189.3630  171.8360  143.3670 O   0  0  0  0  0  1  0  0  0  0  0  0
  190.2610  173.1450  140.8640 N   0  0  0  0  0  2  0  0  0  0  0  0
  193.7230  171.9440  140.1830 C   0  0  0  0  0  3  0  0  0  0  0  0
  192.3280  171.9890  140.2730 C   0  0  0  0  0  3  0  0  0  0  0  0
  194.4850  173.0470  140.5850 C   0  0  0  0  0  3  0  0  0  0  0  0
  191.6870  173.1290  140.7700 C   0  0  0  0  0  0  0  0  0  0  0  0
  192.4560  174.2340  141.1610 C   0  0  0  0  0  3  0  0  0  0  0  0
  193.8500  174.1910  141.0710 C   0  0  0  0  0  3  0  0  0  0  0  0
  184.7460  178.6640  142.2500 O   0  0  0  0  0  0  0  0  0  0  0  0
  185.5710  178.5610  143.1960 C   0  0  0  0  0  0  0  0  0  0  0  0
  185.3900  179.3830  144.4310 C   0  0  0  0  0  2  0  0  0  0  0  0
  184.1450  179.0380  145.0960 N   0  0  0  0  0  2  0  0  0  0  0  0
  184.8400  177.1900  146.5010 C   0  0  0  0  0  1  0  0  0  0  0  0
  185.5820  179.4140  146.8890 O   0  0  0  0  0  1  0  0  0  0  0  0
  184.4870  178.6630  146.4590 C   0  0  1  0  0  3  0  0  0  0  0  0
  190.3330  177.5510  142.7820 C   0  0  0  0  0  2  0  0  0  0  0  0
  190.8350  177.8560  144.1830 C   0  0  0  0  0  2  0  0  0  0  0  0
  192.1500  177.1440  144.4210 C   0  0  0  0  0  2  0  0  0  0  0  0
  191.9130  175.7740  145.0360 C   0  0  0  0  0  2  0  0  0  0  0  0
  193.0290  176.7600  146.9220 F   0  0  0  0  0  0  0  0  0  0  0  0
  192.6750  174.5570  146.8920 F   0  0  0  0  0  0  0  0  0  0  0  0
  192.1190  175.7750  146.5540 C   0  0  0  0  0  0  0  0  0  0  0  0
  190.8840  175.8880  147.2310 O   0  0  0  0  0  0  0  0  0  0  0  0
  188.9520  174.5410  147.5940 C   0  0  0  0  0  2  0  0  0  0  0  0
  189.9010  175.1290  146.5730 C   0  0  0  0  0  3  0  0  0  0  0  0
  188.5500  175.7680  146.8090 C   0  0  0  0  0  2  0  0  0  0  0  0
  1  3  2  0  0  0  0
  2  1  1  0  0  0  0
  2  5  1  0  0  0  0
  3  4  1  0  0  0  0
  3 19  1  0  0  0  0
  5  4  1  6  0  0  0
  6  9  1  1  0  0  0
  7  8  1  1  0  0  0
  7  6  1  0  0  0  0
  7  5  1  0  0  0  0
  8  6  1  0  0  0  0
  9 10  1  0  0  0  0
 11  6  1  0  0  0  0
 12 13  2  0  0  0  0
 12 14  1  0  0  0  0
 13 15  1  0  0  0  0
 14 17  2  0  0  0  0
 15 11  1  0  0  0  0
 15 16  2  0  0  0  0
 17 16  1  0  0  0  0
 18 19  2  0  0  0  0
 19 20  1  0  0  0  0
 20 21  1  0  0  0  0
 21 24  1  0  0  0  0
 24 22  1  6  0  0  0
 24 23  1  0  0  0  0
 25  2  1  0  0  0  0
 25 26  1  0  0  0  0
 26 27  1  0  0  0  0
 27 28  1  0  0  0  0
 28 31  1  0  0  0  0
 31 30  1  0  0  0  0
 31 29  1  0  0  0  0
 31 32  1  0  0  0  0
 34 35  1  0  0  0  0
 34 32  1  0  0  0  0
 34 33  1  0  0  0  0
 35 33  1  0  0  0  0
M  END
>  <MODEL>
9

>  <REMARK>
 VINA RESULT:      -5.8      2.485      7.403
  Name = 
  15 active torsions:
  status: ('A' for Active; 'I' for Inactive)
    1  A    between atoms: C_4  and  C_22
    2  A    between atoms: C_4  and  N_28
    3  A    between atoms: C_5  and  C_11
    4  A    between atoms: C_5  and  C_23
    5  A    between atoms: N_9  and  C_23
    6  A    between atoms: C_10  and  C_14
    7  A    between atoms: C_10  and  N_20
    8  A    between atoms: C_11  and  C_19
    9  A    between atoms: C_13  and  C_19
   10  A    between atoms: C_13  and  O_29
   11  A    between atoms: C_14  and  C_25
   12  A    between atoms: C_15  and  O_29
   13  A    between atoms: C_17  and  C_35
   14  A    between atoms: N_20  and  C_31
   15  A    between atoms: C_24  and  N_28
                            x       y       z     vdW  Elec       q    Type
                         _______ _______ _______ _____ _____    ______ ____

>  <TORSDO>
F 15

$$$$
