=
 OpenBabel11042413503D

 25 28  0  0  1  0  0  0  0  0999 V2000
  186.0520  178.0100  141.4010 C   0  0  0  0  0  3  0  0  0  0  0  0
  185.8460  177.9780  144.5280 C   0  0  0  0  0  0  0  0  0  0  0  0
  184.6860  178.2450  141.6140 C   0  0  0  0  0  0  0  0  0  0  0  0
  186.2340  177.8830  145.8570 C   0  0  0  0  0  3  0  0  0  0  0  0
  190.2980  177.1650  145.4070 C   0  0  0  0  0  0  0  0  0  0  0  0
  184.5400  178.2160  144.1450 C   0  0  0  0  0  3  0  0  0  0  0  0
  187.5930  177.6420  145.8410 C   0  0  0  0  0  0  0  0  0  0  0  0
  184.0450  178.3310  142.8520 C   0  0  0  0  0  3  0  0  0  0  0  0
  187.0910  177.8070  142.2990 C   0  0  0  0  0  3  0  0  0  0  0  0
  189.4430  177.3430  144.2990 C   0  0  0  0  0  0  0  0  0  0  0  0
  189.7890  177.2330  146.7170 C   0  0  0  0  0  3  0  0  0  0  0  0
  187.0170  177.7860  143.6810 C   0  0  0  0  0  0  0  0  0  0  0  0
  188.0780  177.5800  144.5490 C   0  0  0  0  0  0  0  0  0  0  0  0
  188.4260  177.4730  146.9450 C   0  0  0  0  0  3  0  0  0  0  0  0
  191.6540  176.9220  145.2200 O   0  0  0  0  0  1  0  0  0  0  0  0
  182.4650  178.1090  140.5070 C   0  0  0  0  0  1  0  0  0  0  0  0
  183.8540  178.4140  140.5010 O   0  0  0  0  0  0  0  0  0  0  0  0
  189.9860  177.2440  142.9080 C   0  0  0  0  0  2  0  0  0  0  0  0
  190.2900  175.7830  142.5660 C   0  0  0  0  0  2  0  0  0  0  0  0
  189.8970  173.6290  143.5570 C   0  0  2  0  0  3  0  0  0  0  0  0
  189.1330  172.4490  143.0070 C   0  0  0  0  0  2  0  0  0  0  0  0
  188.5280  172.9620  141.7290 C   0  0  0  0  0  2  0  0  0  0  0  0
  189.8420  173.6160  145.0710 C   0  0  0  0  0  1  0  0  0  0  0  0
  189.2680  174.8440  143.0430 N   0  0  0  0  0  0  0  0  0  0  0  0
  188.3940  174.4550  141.9370 C   0  0  0  0  0  2  0  0  0  0  0  0
  1  3  2  0  0  0  0
  1  9  1  0  0  0  0
  2  4  2  0  0  0  0
  3  8  1  0  0  0  0
  5 11  1  0  0  0  0
  6  2  1  0  0  0  0
  7  4  1  0  0  0  0
  7 14  1  0  0  0  0
  8  6  2  0  0  0  0
  9 12  2  0  0  0  0
 10 13  1  0  0  0  0
 10  5  2  0  0  0  0
 11 14  2  0  0  0  0
 12  2  1  0  0  0  0
 12 13  1  0  0  0  0
 13  7  2  0  0  0  0
 15  5  1  0  0  0  0
 17 16  1  0  0  0  0
 17  3  1  0  0  0  0
 18 10  1  0  0  0  0
 19 18  1  0  0  0  0
 19 24  1  0  0  0  0
 20 23  1  1  0  0  0
 21 20  1  0  0  0  0
 22 25  1  0  0  0  0
 22 21  1  0  0  0  0
 24 20  1  0  0  0  0
 25 24  1  0  0  0  0
M  END
>  <MODEL>
1

>  <REMARK>
 VINA RESULT:      -7.7      0.000      0.000
  Name = 
  4 active torsions:
  status: ('A' for Active; 'I' for Inactive)
    1  A    between atoms: C_6  and  C_16
    2  A    between atoms: C_6  and  C_25
    3  A    between atoms: C_7  and  O_15
    4  A    between atoms: N_22  and  C_25
                            x       y       z     vdW  Elec       q    Type
                         _______ _______ _______ _____ _____    ______ ____

>  <TORSDO>
F 4

$$$$
=
 OpenBabel11042413503D

 25 28  0  0  1  0  0  0  0  0999 V2000
  185.8450  178.0340  142.8710 C   0  0  0  0  0  3  0  0  0  0  0  0
  186.7140  177.7690  145.8700 C   0  0  0  0  0  0  0  0  0  0  0  0
  184.6460  178.2870  143.5540 C   0  0  0  0  0  0  0  0  0  0  0  0
  187.5260  177.5630  146.9760 C   0  0  0  0  0  3  0  0  0  0  0  0
  191.1530  176.7770  145.1150 C   0  0  0  0  0  0  0  0  0  0  0  0
  185.3700  178.0690  145.9740 C   0  0  0  0  0  3  0  0  0  0  0  0
  188.7850  177.2890  146.4800 C   0  0  0  0  0  0  0  0  0  0  0  0
  184.4710  178.2950  144.9390 C   0  0  0  0  0  3  0  0  0  0  0  0
  187.1160  177.7370  143.3430 C   0  0  0  0  0  3  0  0  0  0  0  0
  189.9820  177.0610  144.3810 C   0  0  0  0  0  0  0  0  0  0  0  0
  191.1250  176.7580  146.5210 C   0  0  0  0  0  3  0  0  0  0  0  0
  187.5160  177.6120  144.6620 C   0  0  0  0  0  0  0  0  0  0  0  0
  188.7970  177.3130  145.0990 C   0  0  0  0  0  0  0  0  0  0  0  0
  189.9350  177.0150  147.2180 C   0  0  0  0  0  3  0  0  0  0  0  0
  192.3500  176.5140  144.4580 O   0  0  0  0  0  1  0  0  0  0  0  0
  183.3500  178.2200  141.4350 C   0  0  0  0  0  1  0  0  0  0  0  0
  183.4950  178.5630  142.8080 O   0  0  0  0  0  0  0  0  0  0  0  0
  190.0130  177.0550  142.8850 C   0  0  0  0  0  2  0  0  0  0  0  0
  190.1030  175.6160  142.3680 C   0  0  0  0  0  2  0  0  0  0  0  0
  189.7440  173.4410  143.3250 C   0  0  2  0  0  3  0  0  0  0  0  0
  188.8280  172.3330  142.8640 C   0  0  0  0  0  2  0  0  0  0  0  0
  188.0540  172.9420  141.7270 C   0  0  0  0  0  2  0  0  0  0  0  0
  189.9380  173.3560  144.8260 C   0  0  0  0  0  1  0  0  0  0  0  0
  189.1170  174.7130  142.9720 N   0  0  0  0  0  0  0  0  0  0  0  0
  188.0500  174.4280  142.0130 C   0  0  0  0  0  2  0  0  0  0  0  0
  1  9  2  0  0  0  0
  1  3  1  0  0  0  0
  2  6  2  0  0  0  0
  2  4  1  0  0  0  0
  3  8  2  0  0  0  0
  5 11  1  0  0  0  0
  7  4  2  0  0  0  0
  7 14  1  0  0  0  0
  8  6  1  0  0  0  0
  9 12  1  0  0  0  0
 10 13  1  0  0  0  0
 10  5  2  0  0  0  0
 11 14  2  0  0  0  0
 12 13  2  0  0  0  0
 12  2  1  0  0  0  0
 13  7  1  0  0  0  0
 15  5  1  0  0  0  0
 16 17  1  0  0  0  0
 17  3  1  0  0  0  0
 18 10  1  0  0  0  0
 19 18  1  0  0  0  0
 19 24  1  0  0  0  0
 20 23  1  1  0  0  0
 21 20  1  0  0  0  0
 22 25  1  0  0  0  0
 22 21  1  0  0  0  0
 24 20  1  0  0  0  0
 25 24  1  0  0  0  0
M  END
>  <MODEL>
2

>  <REMARK>
 VINA RESULT:      -7.6      0.923      1.274
  Name = 
  4 active torsions:
  status: ('A' for Active; 'I' for Inactive)
    1  A    between atoms: C_6  and  C_16
    2  A    between atoms: C_6  and  C_25
    3  A    between atoms: C_7  and  O_15
    4  A    between atoms: N_22  and  C_25
                            x       y       z     vdW  Elec       q    Type
                         _______ _______ _______ _____ _____    ______ ____

>  <TORSDO>
F 4

$$$$
=
 OpenBabel11042413503D

 25 28  0  0  1  0  0  0  0  0999 V2000
  187.3730  177.4390  141.0270 C   0  0  0  0  0  3  0  0  0  0  0  0
  184.6830  178.2420  142.4200 C   0  0  0  0  0  0  0  0  0  0  0  0
  186.4910  177.5400  139.9410 C   0  0  0  0  0  0  0  0  0  0  0  0
  183.7850  178.5690  143.4260 C   0  0  0  0  0  3  0  0  0  0  0  0
  186.2540  178.3010  146.7530 C   0  0  0  0  0  0  0  0  0  0  0  0
  184.3250  178.1910  141.0860 C   0  0  0  0  0  3  0  0  0  0  0  0
  184.5000  178.5160  144.6070 C   0  0  0  0  0  0  0  0  0  0  0  0
  185.1380  177.8790  140.0040 C   0  0  0  0  0  3  0  0  0  0  0  0
  187.1680  177.6310  142.3860 C   0  0  0  0  0  3  0  0  0  0  0  0
  186.7290  178.0520  145.4480 C   0  0  0  0  0  0  0  0  0  0  0  0
  184.9100  178.6590  146.9670 C   0  0  0  0  0  3  0  0  0  0  0  0
  185.9870  177.9820  143.0180 C   0  0  0  0  0  0  0  0  0  0  0  0
  185.8170  178.1660  144.3810 C   0  0  0  0  0  0  0  0  0  0  0  0
  184.0190  178.7700  145.8890 C   0  0  0  0  0  3  0  0  0  0  0  0
  187.1080  178.1980  147.8460 O   0  0  0  0  0  1  0  0  0  0  0  0
  186.4610  176.2700  137.8050 C   0  0  0  0  0  1  0  0  0  0  0  0
  186.9800  177.2850  138.6540 O   0  0  0  0  0  0  0  0  0  0  0  0
  188.1530  177.6470  145.2320 C   0  0  0  0  0  2  0  0  0  0  0  0
  188.3180  176.1470  145.4940 C   0  0  0  0  0  2  0  0  0  0  0  0
  190.6490  176.6640  145.2150 C   0  0  2  0  0  3  0  0  0  0  0  0
  191.4920  176.6290  143.9630 C   0  0  0  0  0  2  0  0  0  0  0  0
  190.5790  176.0490  142.9170 C   0  0  0  0  0  2  0  0  0  0  0  0
  191.5190  176.3990  146.4270 C   0  0  0  0  0  1  0  0  0  0  0  0
  189.6300  175.6230  145.0930 N   0  0  0  0  0  0  0  0  0  0  0  0
  189.5910  175.2050  143.6920 C   0  0  0  0  0  2  0  0  0  0  0  0
  1  9  1  0  0  0  0
  2 12  1  0  0  0  0
  2  4  2  0  0  0  0
  3  8  1  0  0  0  0
  3  1  2  0  0  0  0
  4  7  1  0  0  0  0
  5 11  1  0  0  0  0
  5 15  1  0  0  0  0
  6  2  1  0  0  0  0
  7 14  1  0  0  0  0
  8  6  2  0  0  0  0
  9 12  2  0  0  0  0
 10  5  2  0  0  0  0
 12 13  1  0  0  0  0
 13  7  2  0  0  0  0
 13 10  1  0  0  0  0
 14 11  2  0  0  0  0
 16 17  1  0  0  0  0
 17  3  1  0  0  0  0
 18 10  1  0  0  0  0
 18 19  1  0  0  0  0
 20 23  1  1  0  0  0
 21 20  1  0  0  0  0
 22 25  1  0  0  0  0
 22 21  1  0  0  0  0
 24 20  1  0  0  0  0
 24 19  1  0  0  0  0
 25 24  1  0  0  0  0
M  END
>  <MODEL>
3

>  <REMARK>
 VINA RESULT:      -7.6      2.009      3.507
  Name = 
  4 active torsions:
  status: ('A' for Active; 'I' for Inactive)
    1  A    between atoms: C_6  and  C_16
    2  A    between atoms: C_6  and  C_25
    3  A    between atoms: C_7  and  O_15
    4  A    between atoms: N_22  and  C_25
                            x       y       z     vdW  Elec       q    Type
                         _______ _______ _______ _____ _____    ______ ____

>  <TORSDO>
F 4

$$$$
=
 OpenBabel11042413503D

 25 28  0  0  1  0  0  0  0  0999 V2000
  188.3970  175.1570  142.4320 C   0  0  0  0  0  3  0  0  0  0  0  0
  186.4620  177.6150  142.2450 C   0  0  0  0  0  0  0  0  0  0  0  0
  188.2220  175.2970  141.0470 C   0  0  0  0  0  0  0  0  0  0  0  0
  185.6570  178.6710  142.6480 C   0  0  0  0  0  3  0  0  0  0  0  0
  186.0520  178.3900  146.7720 C   0  0  0  0  0  0  0  0  0  0  0  0
  186.6580  177.2870  140.9180 C   0  0  0  0  0  3  0  0  0  0  0  0
  185.7080  178.6850  144.0280 C   0  0  0  0  0  0  0  0  0  0  0  0
  187.4400  176.2590  140.4070 C   0  0  0  0  0  3  0  0  0  0  0  0
  187.8760  175.8840  143.4930 C   0  0  0  0  0  3  0  0  0  0  0  0
  186.7110  177.5020  145.8950 C   0  0  0  0  0  0  0  0  0  0  0  0
  185.2340  179.4160  146.2640 C   0  0  0  0  0  3  0  0  0  0  0  0
  187.0180  176.9690  143.4290 C   0  0  0  0  0  0  0  0  0  0  0  0
  186.5160  177.6740  144.5110 C   0  0  0  0  0  0  0  0  0  0  0  0
  185.0550  179.5710  144.8810 C   0  0  0  0  0  3  0  0  0  0  0  0
  186.2030  178.2650  148.1480 O   0  0  0  0  0  1  0  0  0  0  0  0
  188.4850  174.1660  138.8500 C   0  0  0  0  0  1  0  0  0  0  0  0
  188.8820  174.4030  140.1950 O   0  0  0  0  0  0  0  0  0  0  0  0
  187.5590  176.3990  146.4430 C   0  0  0  0  0  2  0  0  0  0  0  0
  189.0020  176.8820  146.6180 C   0  0  0  0  0  2  0  0  0  0  0  0
  191.1060  175.8940  146.0070 C   0  0  2  0  0  3  0  0  0  0  0  0
  191.3940  174.5080  145.4820 C   0  0  0  0  0  2  0  0  0  0  0  0
  190.0690  173.8000  145.5560 C   0  0  0  0  0  2  0  0  0  0  0  0
  192.3090  176.4170  146.7650 C   0  0  0  0  0  1  0  0  0  0  0  0
  189.9530  175.8000  146.9000 N   0  0  0  0  0  0  0  0  0  0  0  0
  189.3160  174.5040  146.6640 C   0  0  0  0  0  2  0  0  0  0  0  0
  1  9  1  0  0  0  0
  2  4  2  0  0  0  0
  2 12  1  0  0  0  0
  3  1  2  0  0  0  0
  4  7  1  0  0  0  0
  5 15  1  0  0  0  0
  6  2  1  0  0  0  0
  7 13  2  0  0  0  0
  7 14  1  0  0  0  0
  8  6  2  0  0  0  0
  8  3  1  0  0  0  0
 10 18  1  0  0  0  0
 10  5  2  0  0  0  0
 11  5  1  0  0  0  0
 12  9  2  0  0  0  0
 12 13  1  0  0  0  0
 13 10  1  0  0  0  0
 14 11  2  0  0  0  0
 16 17  1  0  0  0  0
 17  3  1  0  0  0  0
 18 19  1  0  0  0  0
 19 24  1  0  0  0  0
 20 23  1  1  0  0  0
 20 24  1  0  0  0  0
 21 22  1  0  0  0  0
 21 20  1  0  0  0  0
 22 25  1  0  0  0  0
 25 24  1  0  0  0  0
M  END
>  <MODEL>
4

>  <REMARK>
 VINA RESULT:      -7.4      2.559      4.296
  Name = 
  4 active torsions:
  status: ('A' for Active; 'I' for Inactive)
    1  A    between atoms: C_6  and  C_16
    2  A    between atoms: C_6  and  C_25
    3  A    between atoms: C_7  and  O_15
    4  A    between atoms: N_22  and  C_25
                            x       y       z     vdW  Elec       q    Type
                         _______ _______ _______ _____ _____    ______ ____

>  <TORSDO>
F 4

$$$$
=
 OpenBabel11042413503D

 25 28  0  0  1  0  0  0  0  0999 V2000
  189.7010  177.3360  145.4800 C   0  0  0  0  0  3  0  0  0  0  0  0
  186.6520  177.8970  145.9380 C   0  0  0  0  0  0  0  0  0  0  0  0
  189.6090  177.3740  146.8790 C   0  0  0  0  0  0  0  0  0  0  0  0
  185.3150  178.1330  145.6520 C   0  0  0  0  0  3  0  0  0  0  0  0
  185.4080  178.0660  141.5020 C   0  0  0  0  0  0  0  0  0  0  0  0
  187.1400  177.8280  147.2290 C   0  0  0  0  0  3  0  0  0  0  0  0
  185.2130  178.1330  144.2750 C   0  0  0  0  0  0  0  0  0  0  0  0
  188.4500  177.5960  147.6260 C   0  0  0  0  0  3  0  0  0  0  0  0
  188.7310  177.4980  144.5010 C   0  0  0  0  0  3  0  0  0  0  0  0
  186.5680  177.8640  142.2790 C   0  0  0  0  0  0  0  0  0  0  0  0
  184.1660  178.2950  142.1220 C   0  0  0  0  0  3  0  0  0  0  0  0
  187.3820  177.7490  144.6850 C   0  0  0  0  0  0  0  0  0  0  0  0
  186.4400  177.9060  143.6810 C   0  0  0  0  0  0  0  0  0  0  0  0
  184.0590  178.3300  143.5200 C   0  0  0  0  0  3  0  0  0  0  0  0
  185.4760  178.0410  140.1130 O   0  0  0  0  0  1  0  0  0  0  0  0
  191.7540  176.1980  147.3140 C   0  0  0  0  0  1  0  0  0  0  0  0
  190.7720  177.1750  147.6320 O   0  0  0  0  0  0  0  0  0  0  0  0
  187.8900  177.6470  141.6120 C   0  0  0  0  0  2  0  0  0  0  0  0
  187.9960  176.2030  141.1140 C   0  0  0  0  0  2  0  0  0  0  0  0
  189.7210  174.6210  141.6630 C   0  0  2  0  0  3  0  0  0  0  0  0
  189.6050  173.1460  141.9630 C   0  0  0  0  0  2  0  0  0  0  0  0
  188.1230  172.8880  141.9890 C   0  0  0  0  0  2  0  0  0  0  0  0
  190.9210  175.2000  142.3860 C   0  0  0  0  0  1  0  0  0  0  0  0
  188.4950  175.2670  142.1290 N   0  0  0  0  0  0  0  0  0  0  0  0
  187.5060  174.2170  142.3680 C   0  0  0  0  0  2  0  0  0  0  0  0
  1  3  1  0  0  0  0
  2  6  2  0  0  0  0
  3  8  2  0  0  0  0
  3 17  1  0  0  0  0
  4  2  1  0  0  0  0
  5 11  1  0  0  0  0
  5 10  2  0  0  0  0
  6  8  1  0  0  0  0
  7  4  2  0  0  0  0
  9 12  1  0  0  0  0
  9  1  2  0  0  0  0
 10 13  1  0  0  0  0
 11 14  2  0  0  0  0
 12  2  1  0  0  0  0
 13  7  1  0  0  0  0
 13 12  2  0  0  0  0
 14  7  1  0  0  0  0
 15  5  1  0  0  0  0
 16 17  1  0  0  0  0
 18 10  1  0  0  0  0
 19 18  1  0  0  0  0
 19 24  1  0  0  0  0
 20 21  1  0  0  0  0
 20 24  1  0  0  0  0
 20 23  1  1  0  0  0
 21 22  1  0  0  0  0
 22 25  1  0  0  0  0
 24 25  1  0  0  0  0
M  END
>  <MODEL>
5

>  <REMARK>
 VINA RESULT:      -7.0      1.321      5.062
  Name = 
  4 active torsions:
  status: ('A' for Active; 'I' for Inactive)
    1  A    between atoms: C_6  and  C_16
    2  A    between atoms: C_6  and  C_25
    3  A    between atoms: C_7  and  O_15
    4  A    between atoms: N_22  and  C_25
                            x       y       z     vdW  Elec       q    Type
                         _______ _______ _______ _____ _____    ______ ____

>  <TORSDO>
F 4

$$$$
=
 OpenBabel11042413503D

 25 28  0  0  1  0  0  0  0  0999 V2000
  187.0700  177.9060  145.8370 C   0  0  0  0  0  3  0  0  0  0  0  0
  184.3910  178.5120  144.3280 C   0  0  0  0  0  0  0  0  0  0  0  0
  186.2150  178.2870  146.8820 C   0  0  0  0  0  0  0  0  0  0  0  0
  183.4880  178.6480  143.2830 C   0  0  0  0  0  3  0  0  0  0  0  0
  185.8830  177.5640  140.0700 C   0  0  0  0  0  0  0  0  0  0  0  0
  184.0570  178.7700  145.6430 C   0  0  0  0  0  3  0  0  0  0  0  0
  184.1770  178.3080  142.1360 C   0  0  0  0  0  0  0  0  0  0  0  0
  184.8770  178.6650  146.7600 C   0  0  0  0  0  3  0  0  0  0  0  0
  186.8460  177.8060  144.4710 C   0  0  0  0  0  3  0  0  0  0  0  0
  186.3700  177.5790  141.3940 C   0  0  0  0  0  0  0  0  0  0  0  0
  184.5480  177.9170  139.7980 C   0  0  0  0  0  3  0  0  0  0  0  0
  185.6720  178.0730  143.7880 C   0  0  0  0  0  0  0  0  0  0  0  0
  185.4840  177.9620  142.4190 C   0  0  0  0  0  0  0  0  0  0  0  0
  183.6810  178.2930  140.8340 C   0  0  0  0  0  3  0  0  0  0  0  0
  186.7140  177.1990  139.0160 O   0  0  0  0  0  1  0  0  0  0  0  0
  187.3820  179.4170  148.7630 C   0  0  0  0  0  1  0  0  0  0  0  0
  186.7190  178.2980  148.1880 O   0  0  0  0  0  0  0  0  0  0  0  0
  187.7970  177.2270  141.6720 C   0  0  0  0  0  2  0  0  0  0  0  0
  187.9650  175.7050  141.7070 C   0  0  0  0  0  2  0  0  0  0  0  0
  189.0440  174.3200  143.3480 C   0  0  2  0  0  3  0  0  0  0  0  0
  189.9530  174.7180  144.4860 C   0  0  0  0  0  2  0  0  0  0  0  0
  190.1680  176.1940  144.2900 C   0  0  0  0  0  2  0  0  0  0  0  0
  189.3820  172.9170  142.8870 C   0  0  0  0  0  1  0  0  0  0  0  0
  189.2540  175.2700  142.2580 N   0  0  0  0  0  0  0  0  0  0  0  0
  189.9740  176.4190  142.8060 C   0  0  0  0  0  2  0  0  0  0  0  0
  1  3  1  0  0  0  0
  2  6  2  0  0  0  0
  3 17  1  0  0  0  0
  4  2  1  0  0  0  0
  5 10  2  0  0  0  0
  6  8  1  0  0  0  0
  7 13  1  0  0  0  0
  7  4  2  0  0  0  0
  8  3  2  0  0  0  0
  9  1  2  0  0  0  0
 10 18  1  0  0  0  0
 10 13  1  0  0  0  0
 11  5  1  0  0  0  0
 11 14  2  0  0  0  0
 12  2  1  0  0  0  0
 12  9  1  0  0  0  0
 13 12  2  0  0  0  0
 14  7  1  0  0  0  0
 15  5  1  0  0  0  0
 17 16  1  0  0  0  0
 18 19  1  0  0  0  0
 19 24  1  0  0  0  0
 20 23  1  6  0  0  0
 20 21  1  0  0  0  0
 22 21  1  0  0  0  0
 24 25  1  0  0  0  0
 24 20  1  0  0  0  0
 25 22  1  0  0  0  0
M  END
>  <MODEL>
6

>  <REMARK>
 VINA RESULT:      -6.8      1.825      4.949
  Name = 
  4 active torsions:
  status: ('A' for Active; 'I' for Inactive)
    1  A    between atoms: C_6  and  C_16
    2  A    between atoms: C_6  and  C_25
    3  A    between atoms: C_7  and  O_15
    4  A    between atoms: N_22  and  C_25
                            x       y       z     vdW  Elec       q    Type
                         _______ _______ _______ _____ _____    ______ ____

>  <TORSDO>
F 4

$$$$
=
 OpenBabel11042413503D

 25 28  0  0  1  0  0  0  0  0999 V2000
  187.7330  177.4280  142.2680 C   0  0  0  0  0  3  0  0  0  0  0  0
  188.0090  177.4120  145.3890 C   0  0  0  0  0  0  0  0  0  0  0  0
  186.4520  177.8200  142.6850 C   0  0  0  0  0  0  0  0  0  0  0  0
  188.5840  177.2690  146.6440 C   0  0  0  0  0  3  0  0  0  0  0  0
  192.4200  176.0830  145.5860 C   0  0  0  0  0  0  0  0  0  0  0  0
  186.6970  177.8020  145.2080 C   0  0  0  0  0  3  0  0  0  0  0  0
  189.8880  176.8710  146.4240 C   0  0  0  0  0  0  0  0  0  0  0  0
  186.0250  177.9770  144.0040 C   0  0  0  0  0  3  0  0  0  0  0  0
  188.8670  177.1030  142.9980 C   0  0  0  0  0  3  0  0  0  0  0  0
  191.4300  176.3620  144.6200 C   0  0  0  0  0  0  0  0  0  0  0  0
  192.1310  176.2060  146.9580 C   0  0  0  0  0  3  0  0  0  0  0  0
  189.0060  177.0870  144.3750 C   0  0  0  0  0  0  0  0  0  0  0  0
  190.1570  176.7560  145.0740 C   0  0  0  0  0  0  0  0  0  0  0  0
  190.8560  176.6030  147.3880 C   0  0  0  0  0  3  0  0  0  0  0  0
  193.6940  175.6840  145.1970 O   0  0  0  0  0  1  0  0  0  0  0  0
  185.7080  177.9230  140.3160 C   0  0  0  0  0  1  0  0  0  0  0  0
  185.4840  178.0890  141.7100 O   0  0  0  0  0  0  0  0  0  0  0  0
  191.7370  176.2040  143.1640 C   0  0  0  0  0  2  0  0  0  0  0  0
  191.7210  174.7220  142.7820 C   0  0  0  0  0  2  0  0  0  0  0  0
  190.5130  172.8200  143.6200 C   0  0  2  0  0  3  0  0  0  0  0  0
  189.6860  171.8060  142.8680 C   0  0  0  0  0  2  0  0  0  0  0  0
  189.6540  172.3260  141.4570 C   0  0  0  0  0  2  0  0  0  0  0  0
  189.9920  172.9600  145.0360 C   0  0  0  0  0  1  0  0  0  0  0  0
  190.4000  174.0960  142.9160 N   0  0  0  0  0  0  0  0  0  0  0  0
  189.8420  173.8220  141.5930 C   0  0  0  0  0  2  0  0  0  0  0  0
  1  3  2  0  0  0  0
  1  9  1  0  0  0  0
  2  4  2  0  0  0  0
  3  8  1  0  0  0  0
  5 11  1  0  0  0  0
  6  2  1  0  0  0  0
  7  4  1  0  0  0  0
  7 14  1  0  0  0  0
  8  6  2  0  0  0  0
  9 12  2  0  0  0  0
 10 13  1  0  0  0  0
 10  5  2  0  0  0  0
 11 14  2  0  0  0  0
 12 13  1  0  0  0  0
 12  2  1  0  0  0  0
 13  7  2  0  0  0  0
 15  5  1  0  0  0  0
 16 17  1  0  0  0  0
 17  3  1  0  0  0  0
 18 10  1  0  0  0  0
 19 24  1  0  0  0  0
 19 18  1  0  0  0  0
 20 23  1  1  0  0  0
 21 20  1  0  0  0  0
 22 25  1  0  0  0  0
 22 21  1  0  0  0  0
 24 20  1  0  0  0  0
 25 24  1  0  0  0  0
M  END
>  <MODEL>
7

>  <REMARK>
 VINA RESULT:      -6.8      1.406      2.127
  Name = 
  4 active torsions:
  status: ('A' for Active; 'I' for Inactive)
    1  A    between atoms: C_6  and  C_16
    2  A    between atoms: C_6  and  C_25
    3  A    between atoms: C_7  and  O_15
    4  A    between atoms: N_22  and  C_25
                            x       y       z     vdW  Elec       q    Type
                         _______ _______ _______ _____ _____    ______ ____

>  <TORSDO>
F 4

$$$$
=
 OpenBabel11042413503D

 25 28  0  0  1  0  0  0  0  0999 V2000
  186.7530  177.3890  145.9570 C   0  0  0  0  0  3  0  0  0  0  0  0
  185.7320  178.5780  143.2430 C   0  0  0  0  0  0  0  0  0  0  0  0
  185.9750  178.4780  146.3790 C   0  0  0  0  0  0  0  0  0  0  0  0
  185.5450  178.7270  141.8760 C   0  0  0  0  0  3  0  0  0  0  0  0
  187.8170  175.5570  140.4520 C   0  0  0  0  0  0  0  0  0  0  0  0
  185.1590  179.4230  144.1730 C   0  0  0  0  0  3  0  0  0  0  0  0
  186.2640  177.7110  141.2790 C   0  0  0  0  0  0  0  0  0  0  0  0
  185.2780  179.3630  145.5560 C   0  0  0  0  0  3  0  0  0  0  0  0
  187.0350  176.9130  144.6850 C   0  0  0  0  0  3  0  0  0  0  0  0
  187.6900  175.8260  141.8320 C   0  0  0  0  0  0  0  0  0  0  0  0
  187.1620  176.3670  139.5060 C   0  0  0  0  0  3  0  0  0  0  0  0
  186.5960  177.4270  143.4770 C   0  0  0  0  0  0  0  0  0  0  0  0
  186.8990  176.9240  142.2210 C   0  0  0  0  0  0  0  0  0  0  0  0
  186.3760  177.4540  139.9140 C   0  0  0  0  0  3  0  0  0  0  0  0
  188.5890  174.4890  140.0100 O   0  0  0  0  0  1  0  0  0  0  0  0
  186.9390  179.2130  148.5490 C   0  0  0  0  0  1  0  0  0  0  0  0
  185.8650  178.7290  147.7520 O   0  0  0  0  0  0  0  0  0  0  0  0
  188.4090  174.9770  142.8310 C   0  0  0  0  0  2  0  0  0  0  0  0
  189.8640  175.4370  142.9610 C   0  0  0  0  0  2  0  0  0  0  0  0
  189.6180  174.1000  144.9430 C   0  0  2  0  0  3  0  0  0  0  0  0
  189.7080  174.5130  146.3920 C   0  0  0  0  0  2  0  0  0  0  0  0
  190.1380  175.9540  146.3410 C   0  0  0  0  0  2  0  0  0  0  0  0
  190.0260  172.6480  144.7970 C   0  0  0  0  0  1  0  0  0  0  0  0
  190.5250  174.9550  144.1800 N   0  0  0  0  0  0  0  0  0  0  0  0
  190.8860  176.0870  145.0320 C   0  0  0  0  0  2  0  0  0  0  0  0
  1  3  1  0  0  0  0
  2 12  1  0  0  0  0
  2  6  2  0  0  0  0
  3 17  1  0  0  0  0
  4  2  1  0  0  0  0
  5 10  2  0  0  0  0
  6  8  1  0  0  0  0
  7  4  2  0  0  0  0
  7 13  1  0  0  0  0
  8  3  2  0  0  0  0
  9  1  2  0  0  0  0
 10 13  1  0  0  0  0
 10 18  1  0  0  0  0
 11 14  2  0  0  0  0
 11  5  1  0  0  0  0
 12  9  1  0  0  0  0
 13 12  2  0  0  0  0
 14  7  1  0  0  0  0
 15  5  1  0  0  0  0
 17 16  1  0  0  0  0
 18 19  1  0  0  0  0
 19 24  1  0  0  0  0
 20 23  1  1  0  0  0
 20 21  1  0  0  0  0
 22 21  1  0  0  0  0
 24 20  1  0  0  0  0
 24 25  1  0  0  0  0
 25 22  1  0  0  0  0
M  END
>  <MODEL>
8

>  <REMARK>
 VINA RESULT:      -6.8      2.328      4.640
  Name = 
  4 active torsions:
  status: ('A' for Active; 'I' for Inactive)
    1  A    between atoms: C_6  and  C_16
    2  A    between atoms: C_6  and  C_25
    3  A    between atoms: C_7  and  O_15
    4  A    between atoms: N_22  and  C_25
                            x       y       z     vdW  Elec       q    Type
                         _______ _______ _______ _____ _____    ______ ____

>  <TORSDO>
F 4

$$$$
=
 OpenBabel11042413503D

 25 28  0  0  1  0  0  0  0  0999 V2000
  193.7640  176.3560  143.7910 C   0  0  0  0  0  3  0  0  0  0  0  0
  192.1720  176.5100  146.4870 C   0  0  0  0  0  0  0  0  0  0  0  0
  194.7710  176.1530  144.7470 C   0  0  0  0  0  0  0  0  0  0  0  0
  191.1040  176.6480  147.3610 C   0  0  0  0  0  3  0  0  0  0  0  0
  188.0050  177.2770  144.6710 C   0  0  0  0  0  0  0  0  0  0  0  0
  193.4650  176.2800  146.9160 C   0  0  0  0  0  3  0  0  0  0  0  0
  189.9910  176.8650  146.5730 C   0  0  0  0  0  0  0  0  0  0  0  0
  194.6020  176.1250  146.1320 C   0  0  0  0  0  3  0  0  0  0  0  0
  192.4010  176.5740  143.9390 C   0  0  0  0  0  3  0  0  0  0  0  0
  189.3340  177.0730  144.2450 C   0  0  0  0  0  0  0  0  0  0  0  0
  187.6860  177.2690  146.0410 C   0  0  0  0  0  3  0  0  0  0  0  0
  191.6830  176.6490  145.1200 C   0  0  0  0  0  0  0  0  0  0  0  0
  190.3190  176.8690  145.2310 C   0  0  0  0  0  0  0  0  0  0  0  0
  188.6820  177.0610  147.0070 C   0  0  0  0  0  3  0  0  0  0  0  0
  186.9910  177.4890  143.7420 O   0  0  0  0  0  1  0  0  0  0  0  0
  196.6900  176.7320  143.2780 C   0  0  0  0  0  1  0  0  0  0  0  0
  196.0840  175.9560  144.3040 O   0  0  0  0  0  0  0  0  0  0  0  0
  189.6690  177.1090  142.7880 C   0  0  0  0  0  2  0  0  0  0  0  0
  189.8010  175.6840  142.2430 C   0  0  0  0  0  2  0  0  0  0  0  0
  189.6680  173.4790  143.1920 C   0  0  2  0  0  3  0  0  0  0  0  0
  188.7800  172.3230  142.8020 C   0  0  0  0  0  2  0  0  0  0  0  0
  187.8630  172.8960  141.7560 C   0  0  0  0  0  2  0  0  0  0  0  0
  190.0120  173.3890  144.6650 C   0  0  0  0  0  1  0  0  0  0  0  0
  188.9340  174.7140  142.9240 N   0  0  0  0  0  0  0  0  0  0  0  0
  187.7980  174.3750  142.0680 C   0  0  0  0  0  2  0  0  0  0  0  0
  1  9  2  0  0  0  0
  1  3  1  0  0  0  0
  2  6  2  0  0  0  0
  2  4  1  0  0  0  0
  3  8  2  0  0  0  0
  5 11  1  0  0  0  0
  7 14  1  0  0  0  0
  7  4  2  0  0  0  0
  8  6  1  0  0  0  0
  9 12  1  0  0  0  0
 10  5  2  0  0  0  0
 10 13  1  0  0  0  0
 11 14  2  0  0  0  0
 12 13  2  0  0  0  0
 12  2  1  0  0  0  0
 13  7  1  0  0  0  0
 15  5  1  0  0  0  0
 16 17  1  0  0  0  0
 17  3  1  0  0  0  0
 18 10  1  0  0  0  0
 19 18  1  0  0  0  0
 19 24  1  0  0  0  0
 20 23  1  1  0  0  0
 21 20  1  0  0  0  0
 22 25  1  0  0  0  0
 22 21  1  0  0  0  0
 24 20  1  0  0  0  0
 25 24  1  0  0  0  0
M  END
>  <MODEL>
9

>  <REMARK>
 VINA RESULT:      -6.8      2.658      6.214
  Name = 
  4 active torsions:
  status: ('A' for Active; 'I' for Inactive)
    1  A    between atoms: C_6  and  C_16
    2  A    between atoms: C_6  and  C_25
    3  A    between atoms: C_7  and  O_15
    4  A    between atoms: N_22  and  C_25
                            x       y       z     vdW  Elec       q    Type
                         _______ _______ _______ _____ _____    ______ ____

>  <TORSDO>
F 4

$$$$
