=
 OpenBabel11042417423D

 54 60  0  0  1  0  0  0  0  0999 V2000
  185.9970  178.4680  145.5180 C   0  0  2  0  0  0  0  0  0  0  0  0
  187.2500  177.6370  145.6380 C   0  0  1  0  0  0  0  0  0  0  0  0
  187.7460  177.0820  146.7990 O   0  0  0  0  0  0  0  0  0  0  0  0
  185.4130  178.8680  146.7230 O   0  0  0  0  0  1  0  0  0  0  0  0
  185.9250  176.9810  145.2600 C   0  0  0  0  0  2  0  0  0  0  0  0
  189.2190  178.2110  144.3140 O   0  0  0  0  0  1  0  0  0  0  0  0
  188.9290  176.7000  146.0980 C   0  0  2  0  0  0  0  0  0  0  0  0
  188.8410  175.7880  144.8380 C   0  0  1  0  0  0  0  0  0  0  0  0
  188.9650  175.1940  146.2310 C   0  0  1  0  0  3  0  0  0  0  0  0
  188.3490  177.2120  144.7540 C   0  0  1  0  0  0  0  0  0  0  0  0
  185.8200  179.3360  144.3150 C   0  0  0  0  0  3  0  0  0  0  0  0
  184.8880  178.3500  142.1600 O   0  0  0  0  0  0  0  0  0  0  0  0
  185.3430  178.8370  143.2060 C   0  0  0  0  0  0  0  0  0  0  0  0
  190.0910  175.7050  144.1490 O   0  0  0  0  0  0  0  0  0  0  0  0
  191.3180  175.4570  142.2270 O   0  0  0  0  0  0  0  0  0  0  0  0
  190.1830  175.4520  142.7770 C   0  0  0  0  0  0  0  0  0  0  0  0
  188.9630  175.1940  141.9430 C   0  0  0  0  0  2  0  0  0  0  0  0
  189.1340  173.9510  141.0610 C   0  0  2  0  0  3  0  0  0  0  0  0
  188.7040  174.2460  139.7590 O   0  0  0  0  0  0  0  0  0  0  0  0
  188.3840  173.0060  139.1810 C   0  0  1  0  0  3  0  0  0  0  0  0
  188.4880  172.9900  137.7880 C   0  0  2  0  0  3  0  0  0  0  0  0
  189.6210  172.4100  138.5860 N   0  0  0  0  0  0  0  0  0  0  0  0
  190.9010  171.7860  138.7020 C   0  0  0  0  0  0  0  0  0  0  0  0
  190.9690  170.1910  139.1130 S   0  0  0  0  0  0  0  0  0  0  0  0
  194.2170  175.2550  140.1290 C   0  0  0  0  0  1  0  0  0  0  0  0
  194.4580  174.0790  137.9410 C   0  0  0  0  0  3  0  0  0  0  0  0
  194.0180  173.1440  137.0000 C   0  0  0  0  0  3  0  0  0  0  0  0
  192.8630  172.3890  137.2480 C   0  0  0  0  0  3  0  0  0  0  0  0
  192.1340  172.5650  138.4350 C   0  0  0  0  0  0  0  0  0  0  0  0
  193.7450  174.2610  139.1280 C   0  0  0  0  0  0  0  0  0  0  0  0
  192.5880  173.5110  139.3710 C   0  0  0  0  0  3  0  0  0  0  0  0
  188.9590  174.2920  137.1270 C   0  0  0  0  0  2  0  0  0  0  0  0
  190.7680  174.7900  135.4640 C   0  0  0  0  0  1  0  0  0  0  0  0
  189.4780  174.0260  135.7150 C   0  0  0  0  0  2  0  0  0  0  0  0
  188.3510  172.7510  141.6180 C   0  0  0  0  0  2  0  0  0  0  0  0
  188.9510  172.2340  142.9230 C   0  0  0  0  0  2  0  0  0  0  0  0
  190.1110  171.2890  142.6350 C   0  0  0  0  0  2  0  0  0  0  0  0
  191.3760  172.0100  142.7440 N   0  0  0  0  0  2  0  0  0  0  0  0
  192.5080  171.4900  143.4500 C   0  0  0  0  0  3  0  0  0  0  0  0
  192.4610  170.3350  144.0330 N   0  0  0  0  0  2  0  0  0  0  0  0
  190.3710  174.7290  146.6010 C   0  0  0  0  0  2  0  0  0  0  0  0
  191.0920  175.7720  147.4470 C   0  0  1  0  0  3  0  0  0  0  0  0
  191.2230  175.3090  148.7460 F   0  0  0  0  0  0  0  0  0  0  0  0
  192.4620  176.1320  146.8740 C   0  0  0  0  0  2  0  0  0  0  0  0
  193.0680  174.9980  146.0550 C   0  0  0  0  0  2  0  0  0  0  0  0
  194.2680  175.4120  145.4690 O   0  0  0  0  0  0  0  0  0  0  0  0
  196.9570  172.9080  146.1580 C   0  0  0  0  0  2  0  0  0  0  0  0
  196.3220  171.7760  145.3490 C   0  0  1  0  0  3  0  0  0  0  0  0
  195.1910  174.0850  143.7480 C   0  0  0  0  0  3  0  0  0  0  0  0
  196.4780  172.0070  143.9190 N   0  0  0  0  0  2  0  0  0  0  0  0
  196.3140  174.2840  145.9470 C   0  0  0  0  0  2  0  0  0  0  0  0
  196.9880  170.4650  145.7170 C   0  0  0  0  0  1  0  0  0  0  0  0
  194.9720  174.2320  145.2230 C   0  0  1  0  0  3  0  0  0  0  0  0
  195.8710  173.0810  143.1840 C   0  0  0  0  0  3  0  0  0  0  0  0
  1  2  1  0  0  0  0
  1  4  1  1  0  0  0
  2  5  1  6  0  0  0
  2  3  1  0  0  0  0
  5  1  1  0  0  0  0
  7  9  1  0  0  0  0
  7  3  1  6  0  0  0
  8 14  1  6  0  0  0
  8  7  1  0  0  0  0
  8  9  1  0  0  0  0
  9 41  1  6  0  0  0
 10  6  1  6  0  0  0
 10  8  1  0  0  0  0
 10  2  1  0  0  0  0
 10  7  1  0  0  0  0
 11  1  1  0  0  0  0
 12 13  2  0  0  0  0
 13 11  2  0  0  0  0
 15 16  2  0  0  0  0
 16 14  1  0  0  0  0
 17 16  1  0  0  0  0
 18 35  1  1  0  0  0
 18 17  1  0  0  0  0
 19 18  1  0  0  0  0
 20 19  1  1  0  0  0
 21 32  1  1  0  0  0
 21 22  1  0  0  0  0
 21 20  1  0  0  0  0
 22 23  1  0  0  0  0
 22 20  1  0  0  0  0
 23 24  2  0  0  0  0
 26 30  1  0  0  0  0
 27 28  1  0  0  0  0
 27 26  2  0  0  0  0
 28 29  2  0  0  0  0
 29 23  1  0  0  0  0
 29 31  1  0  0  0  0
 30 31  2  0  0  0  0
 30 25  1  0  0  0  0
 33 34  1  0  0  0  0
 34 32  1  0  0  0  0
 35 36  1  0  0  0  0
 37 38  1  0  0  0  0
 37 36  1  0  0  0  0
 38 39  1  0  0  0  0
 39 40  2  0  0  0  0
 41 42  1  0  0  0  0
 42 43  1  1  0  0  0
 44 42  1  0  0  0  0
 45 44  1  0  0  0  0
 46 45  1  0  0  0  0
 48 52  1  1  0  0  0
 48 47  1  0  0  0  0
 49 53  1  0  0  0  0
 50 48  1  0  0  0  0
 51 47  1  0  0  0  0
 53 46  1  6  0  0  0
 53 51  1  0  0  0  0
 54 49  2  0  0  0  0
 54 50  1  0  0  0  0
M  END
>  <MODEL>
1

>  <REMARK>
 VINA RESULT:      -6.5      0.000      0.000
  Name = 
  21 active torsions:
  status: ('A' for Active; 'I' for Inactive)
    1  A    between atoms: C_2  and  N_42
    2  A    between atoms: C_2  and  C_44
    3  A    between atoms: C_3  and  C_8
    4  A    between atoms: C_6  and  O_34
    5  A    between atoms: C_6  and  C_52
    6  A    between atoms: C_7  and  C_28
    7  A    between atoms: C_7  and  N_30
    8  A    between atoms: C_10  and  C_27
    9  A    between atoms: C_10  and  C_52
   10  A    between atoms: C_11  and  C_38
   11  A    between atoms: C_11  and  C_46
   12  A    between atoms: C_13  and  C_28
   13  A    between atoms: C_13  and  C_46
   14  A    between atoms: C_14  and  C_45
   15  A    between atoms: O_17  and  C_35
   16  A    between atoms: O_17  and  C_46
   17  A    between atoms: C_27  and  C_33
   18  A    between atoms: C_32  and  O_36
   19  A    between atoms: O_34  and  C_50
   20  A    between atoms: O_36  and  C_38
   21  A    between atoms: C_37  and  C_45
                            x       y       z     vdW  Elec       q    Type
                         _______ _______ _______ _____ _____    ______ ____

>  <TORSDO>
F 21

$$$$
=
 OpenBabel11042417423D

 54 60  0  0  1  0  0  0  0  0999 V2000
  186.6550  177.3360  146.8470 C   0  0  2  0  0  0  0  0  0  0  0  0
  188.1010  177.1840  146.4440 C   0  0  1  0  0  0  0  0  0  0  0  0
  189.1940  177.5690  147.1910 O   0  0  0  0  0  0  0  0  0  0  0  0
  186.4160  178.1170  147.9810 O   0  0  0  0  0  1  0  0  0  0  0  0
  187.3680  176.0350  147.1310 C   0  0  0  0  0  2  0  0  0  0  0  0
  188.7600  177.5400  144.1210 O   0  0  0  0  0  1  0  0  0  0  0  0
  190.0410  177.2810  146.0810 C   0  0  2  0  0  0  0  0  0  0  0  0
  190.0600  175.8560  145.4500 C   0  0  1  0  0  0  0  0  0  0  0  0
  190.9820  176.2180  146.6020 C   0  0  1  0  0  3  0  0  0  0  0  0
  188.8470  176.7330  145.2580 C   0  0  1  0  0  0  0  0  0  0  0  0
  185.6030  177.2720  145.7890 C   0  0  0  0  0  3  0  0  0  0  0  0
  183.7370  179.0040  145.7410 O   0  0  0  0  0  0  0  0  0  0  0  0
  184.6420  178.1570  145.7580 C   0  0  0  0  0  0  0  0  0  0  0  0
  190.7890  175.8240  144.2200 O   0  0  0  0  0  0  0  0  0  0  0  0
  190.7920  173.5770  143.7580 O   0  0  0  0  0  0  0  0  0  0  0  0
  190.7070  174.7580  143.3200 C   0  0  0  0  0  0  0  0  0  0  0  0
  190.5400  174.9850  141.8460 C   0  0  0  0  0  2  0  0  0  0  0  0
  189.5530  173.9860  141.2300 C   0  0  2  0  0  3  0  0  0  0  0  0
  190.2200  173.2160  140.2640 O   0  0  0  0  0  0  0  0  0  0  0  0
  190.2070  171.9010  140.7610 C   0  0  1  0  0  3  0  0  0  0  0  0
  190.3240  170.9230  139.7700 C   0  0  2  0  0  3  0  0  0  0  0  0
  191.5550  171.2860  140.5510 N   0  0  0  0  0  0  0  0  0  0  0  0
  192.9460  171.1610  140.8560 C   0  0  0  0  0  0  0  0  0  0  0  0
  193.4720  169.7840  141.5940 S   0  0  0  0  0  0  0  0  0  0  0  0
  194.3550  175.9540  141.1970 C   0  0  0  0  0  1  0  0  0  0  0  0
  195.6430  174.3380  139.7970 C   0  0  0  0  0  3  0  0  0  0  0  0
  195.8470  173.0530  139.2870 C   0  0  0  0  0  3  0  0  0  0  0  0
  194.9740  172.0120  139.6360 C   0  0  0  0  0  3  0  0  0  0  0  0
  193.8860  172.2480  140.4930 C   0  0  0  0  0  0  0  0  0  0  0  0
  194.5680  174.5850  140.6530 C   0  0  0  0  0  0  0  0  0  0  0  0
  193.6930  173.5470  140.9960 C   0  0  0  0  0  3  0  0  0  0  0  0
  190.4800  171.4310  138.3310 C   0  0  0  0  0  2  0  0  0  0  0  0
  189.8320  171.0320  135.9420 C   0  0  0  0  0  1  0  0  0  0  0  0
  189.8860  170.4330  137.3380 C   0  0  0  0  0  2  0  0  0  0  0  0
  188.3480  174.6990  140.5970 C   0  0  0  0  0  2  0  0  0  0  0  0
  187.5750  175.5280  141.6190 C   0  0  0  0  0  2  0  0  0  0  0  0
  187.2080  176.8850  141.0310 C   0  0  0  0  0  2  0  0  0  0  0  0
  186.2620  177.5660  141.9100 N   0  0  0  0  0  2  0  0  0  0  0  0
  185.0200  178.1080  141.4440 C   0  0  0  0  0  3  0  0  0  0  0  0
  184.6740  178.0140  140.1990 N   0  0  0  0  0  2  0  0  0  0  0  0
  192.4180  176.5340  146.1920 C   0  0  0  0  0  2  0  0  0  0  0  0
  193.3670  175.4140  146.6000 C   0  0  1  0  0  3  0  0  0  0  0  0
  193.0230  174.2460  145.9390 F   0  0  0  0  0  0  0  0  0  0  0  0
  194.8280  175.7670  146.3230 C   0  0  0  0  0  2  0  0  0  0  0  0
  195.1780  175.6800  144.8430 C   0  0  0  0  0  2  0  0  0  0  0  0
  196.4640  175.1560  144.6790 O   0  0  0  0  0  0  0  0  0  0  0  0
  196.5780  171.6740  146.0340 C   0  0  0  0  0  2  0  0  0  0  0  0
  195.6330  171.0740  144.9910 C   0  0  1  0  0  3  0  0  0  0  0  0
  196.7680  173.2900  143.2640 C   0  0  0  0  0  3  0  0  0  0  0  0
  196.3050  170.9240  143.7060 N   0  0  0  0  0  2  0  0  0  0  0  0
  197.0610  173.0940  145.7170 C   0  0  0  0  0  2  0  0  0  0  0  0
  195.1620  169.7150  145.4680 C   0  0  0  0  0  1  0  0  0  0  0  0
  196.2810  173.7750  144.5960 C   0  0  1  0  0  3  0  0  0  0  0  0
  196.7720  172.0070  142.8860 C   0  0  0  0  0  3  0  0  0  0  0  0
  1  5  1  0  0  0  0
  1  4  1  1  0  0  0
  2  1  1  0  0  0  0
  2  5  1  1  0  0  0
  2  3  1  0  0  0  0
  7  9  1  0  0  0  0
  7  3  1  1  0  0  0
  8 14  1  6  0  0  0
  8  7  1  0  0  0  0
  8  9  1  0  0  0  0
  9 41  1  6  0  0  0
 10  6  1  6  0  0  0
 10  8  1  0  0  0  0
 10  7  1  0  0  0  0
 10  2  1  0  0  0  0
 11  1  1  0  0  0  0
 12 13  2  0  0  0  0
 13 11  2  0  0  0  0
 16 15  2  0  0  0  0
 16 14  1  0  0  0  0
 17 16  1  0  0  0  0
 18 35  1  6  0  0  0
 18 17  1  0  0  0  0
 19 18  1  0  0  0  0
 20 19  1  6  0  0  0
 21 32  1  6  0  0  0
 21 22  1  0  0  0  0
 21 20  1  0  0  0  0
 22 20  1  0  0  0  0
 22 23  1  0  0  0  0
 23 24  2  0  0  0  0
 26 30  1  0  0  0  0
 27 28  1  0  0  0  0
 27 26  2  0  0  0  0
 28 29  2  0  0  0  0
 29 23  1  0  0  0  0
 29 31  1  0  0  0  0
 30 31  2  0  0  0  0
 30 25  1  0  0  0  0
 33 34  1  0  0  0  0
 34 32  1  0  0  0  0
 35 36  1  0  0  0  0
 37 36  1  0  0  0  0
 37 38  1  0  0  0  0
 39 38  1  0  0  0  0
 40 39  2  0  0  0  0
 41 42  1  0  0  0  0
 42 43  1  6  0  0  0
 44 42  1  0  0  0  0
 45 44  1  0  0  0  0
 46 45  1  0  0  0  0
 48 52  1  1  0  0  0
 48 47  1  0  0  0  0
 49 53  1  0  0  0  0
 50 48  1  0  0  0  0
 51 47  1  0  0  0  0
 53 46  1  6  0  0  0
 53 51  1  0  0  0  0
 54 49  2  0  0  0  0
 54 50  1  0  0  0  0
M  END
>  <MODEL>
2

>  <REMARK>
 VINA RESULT:      -6.4      2.217      3.391
  Name = 
  21 active torsions:
  status: ('A' for Active; 'I' for Inactive)
    1  A    between atoms: C_2  and  N_42
    2  A    between atoms: C_2  and  C_44
    3  A    between atoms: C_3  and  C_8
    4  A    between atoms: C_6  and  O_34
    5  A    between atoms: C_6  and  C_52
    6  A    between atoms: C_7  and  C_28
    7  A    between atoms: C_7  and  N_30
    8  A    between atoms: C_10  and  C_27
    9  A    between atoms: C_10  and  C_52
   10  A    between atoms: C_11  and  C_38
   11  A    between atoms: C_11  and  C_46
   12  A    between atoms: C_13  and  C_28
   13  A    between atoms: C_13  and  C_46
   14  A    between atoms: C_14  and  C_45
   15  A    between atoms: O_17  and  C_35
   16  A    between atoms: O_17  and  C_46
   17  A    between atoms: C_27  and  C_33
   18  A    between atoms: C_32  and  O_36
   19  A    between atoms: O_34  and  C_50
   20  A    between atoms: O_36  and  C_38
   21  A    between atoms: C_37  and  C_45
                            x       y       z     vdW  Elec       q    Type
                         _______ _______ _______ _____ _____    ______ ____

>  <TORSDO>
F 21

$$$$
=
 OpenBabel11042417423D

 54 60  0  0  1  0  0  0  0  0999 V2000
  185.3730  178.5180  143.9400 C   0  0  2  0  0  0  0  0  0  0  0  0
  186.3500  177.4740  143.4590 C   0  0  1  0  0  0  0  0  0  0  0  0
  186.0880  176.4850  142.5350 O   0  0  0  0  0  0  0  0  0  0  0  0
  184.0410  178.3280  143.5600 O   0  0  0  0  0  1  0  0  0  0  0  0
  186.3010  178.8470  142.7940 C   0  0  0  0  0  2  0  0  0  0  0  0
  187.9330  176.4780  145.0270 O   0  0  0  0  0  1  0  0  0  0  0  0
  187.3580  175.9000  142.8170 C   0  0  2  0  0  0  0  0  0  0  0  0
  188.6660  176.7290  142.6410 C   0  0  1  0  0  0  0  0  0  0  0  0
  188.0800  175.9300  141.4890 C   0  0  1  0  0  3  0  0  0  0  0  0
  187.7270  177.0620  143.7750 C   0  0  1  0  0  0  0  0  0  0  0  0
  185.6560  179.2350  145.2200 C   0  0  0  0  0  3  0  0  0  0  0  0
  185.4690  178.0000  147.4390 O   0  0  0  0  0  0  0  0  0  0  0  0
  185.5620  178.6080  146.3620 C   0  0  0  0  0  0  0  0  0  0  0  0
  189.8040  176.0540  143.1850 O   0  0  0  0  0  0  0  0  0  0  0  0
  191.3240  177.7640  143.0160 O   0  0  0  0  0  0  0  0  0  0  0  0
  191.1110  176.5200  143.0150 C   0  0  0  0  0  0  0  0  0  0  0  0
  192.2610  175.5780  142.8130 C   0  0  0  0  0  2  0  0  0  0  0  0
  193.6040  176.2550  143.1120 C   0  0  2  0  0  3  0  0  0  0  0  0
  194.4200  176.1830  141.9720 O   0  0  0  0  0  0  0  0  0  0  0  0
  193.8930  175.1330  141.2010 C   0  0  1  0  0  3  0  0  0  0  0  0
  194.7060  174.7580  140.1280 C   0  0  2  0  0  3  0  0  0  0  0  0
  194.7520  173.9200  141.3750 N   0  0  0  0  0  0  0  0  0  0  0  0
  195.2440  172.8230  142.1470 C   0  0  0  0  0  0  0  0  0  0  0  0
  196.8450  172.7870  142.5390 S   0  0  0  0  0  0  0  0  0  0  0  0
  192.8310  168.5300  141.2410 C   0  0  0  0  0  1  0  0  0  0  0  0
  192.5390  169.7290  143.4110 C   0  0  0  0  0  3  0  0  0  0  0  0
  192.8260  170.7950  144.2670 C   0  0  0  0  0  3  0  0  0  0  0  0
  193.7130  171.8020  143.8620 C   0  0  0  0  0  3  0  0  0  0  0  0
  194.3170  171.7560  142.5950 C   0  0  0  0  0  0  0  0  0  0  0  0
  193.1360  169.6680  142.1500 C   0  0  0  0  0  0  0  0  0  0  0  0
  194.0170  170.6780  141.7440 C   0  0  0  0  0  3  0  0  0  0  0  0
  196.0340  175.5130  139.9870 C   0  0  0  0  0  2  0  0  0  0  0  0
  195.9890  174.0060  137.9840 C   0  0  0  0  0  1  0  0  0  0  0  0
  196.7610  175.0950  138.7100 C   0  0  0  0  0  2  0  0  0  0  0  0
  194.3130  175.6030  144.3100 C   0  0  0  0  0  2  0  0  0  0  0  0
  193.3210  175.1330  145.3710 C   0  0  0  0  0  2  0  0  0  0  0  0
  193.1170  176.2170  146.4220 C   0  0  0  0  0  2  0  0  0  0  0  0
  191.7110  176.6050  146.4660 N   0  0  0  0  0  2  0  0  0  0  0  0
  190.8000  176.1190  147.4580 C   0  0  0  0  0  3  0  0  0  0  0  0
  191.1920  175.2990  148.3810 N   0  0  0  0  0  2  0  0  0  0  0  0
  188.7670  174.5920  141.2280 C   0  0  0  0  0  2  0  0  0  0  0  0
  188.2650  173.5200  142.1880 C   0  0  1  0  0  3  0  0  0  0  0  0
  187.3880  172.6760  141.5260 F   0  0  0  0  0  0  0  0  0  0  0  0
  189.4100  172.7150  142.8020 C   0  0  0  0  0  2  0  0  0  0  0  0
  190.4790  172.3470  141.7800 C   0  0  0  0  0  2  0  0  0  0  0  0
  190.1570  171.1370  141.1570 O   0  0  0  0  0  0  0  0  0  0  0  0
  190.0720  170.1790  137.5450 C   0  0  0  0  0  2  0  0  0  0  0  0
  189.8750  171.6000  137.0150 C   0  0  1  0  0  3  0  0  0  0  0  0
  191.3930  172.3270  139.5350 C   0  0  0  0  0  2  0  0  0  0  0  0
  191.1150  172.3630  137.1000 N   0  0  0  0  0  0  0  0  0  0  0  0
  190.4410  170.0950  139.0310 C   0  0  0  0  0  2  0  0  0  0  0  0
  189.4290  171.5360  135.5680 C   0  0  0  0  0  1  0  0  0  0  0  0
  190.2400  171.4040  139.7900 C   0  0  1  0  0  3  0  0  0  0  0  0
  191.7690  172.7430  138.3210 C   0  0  0  0  0  3  0  0  0  0  0  0
  1  4  1  6  0  0  0
  1 11  1  0  0  0  0
  2  5  1  6  0  0  0
  2 10  1  0  0  0  0
  2  1  1  0  0  0  0
  3  2  1  0  0  0  0
  5  1  1  0  0  0  0
  7  3  1  6  0  0  0
  7 10  1  0  0  0  0
  8  7  1  0  0  0  0
  8 14  1  1  0  0  0
  8 10  1  0  0  0  0
  9 41  1  1  0  0  0
  9  8  1  0  0  0  0
  9  7  1  0  0  0  0
 10  6  1  1  0  0  0
 11 13  2  0  0  0  0
 13 12  2  0  0  0  0
 16 15  2  0  0  0  0
 16 14  1  0  0  0  0
 17 16  1  0  0  0  0
 18 17  1  6  0  0  0
 18 35  1  0  0  0  0
 19 18  1  0  0  0  0
 20 22  1  0  0  0  0
 20 19  1  1  0  0  0
 21 32  1  1  0  0  0
 21 20  1  0  0  0  0
 21 22  1  0  0  0  0
 22 23  1  0  0  0  0
 23 24  2  0  0  0  0
 23 29  1  0  0  0  0
 25 30  1  0  0  0  0
 26 27  1  0  0  0  0
 28 27  2  0  0  0  0
 29 28  1  0  0  0  0
 30 26  2  0  0  0  0
 31 30  1  0  0  0  0
 31 29  2  0  0  0  0
 33 34  1  0  0  0  0
 34 32  1  0  0  0  0
 35 36  1  0  0  0  0
 36 37  1  0  0  0  0
 37 38  1  0  0  0  0
 38 39  1  0  0  0  0
 39 40  2  0  0  0  0
 41 42  1  0  0  0  0
 42 43  1  6  0  0  0
 42 44  1  0  0  0  0
 45 44  1  0  0  0  0
 46 45  1  0  0  0  0
 47 51  1  0  0  0  0
 48 52  1  6  0  0  0
 48 50  1  0  0  0  0
 48 47  1  0  0  0  0
 49 53  1  0  0  0  0
 50 54  2  0  0  0  0
 51 53  1  0  0  0  0
 53 46  1  1  0  0  0
 54 49  1  0  0  0  0
M  END
>  <MODEL>
3

>  <REMARK>
 VINA RESULT:      -6.4      2.661      6.245
  Name = 
  21 active torsions:
  status: ('A' for Active; 'I' for Inactive)
    1  A    between atoms: C_2  and  N_42
    2  A    between atoms: C_2  and  C_44
    3  A    between atoms: C_3  and  C_8
    4  A    between atoms: C_6  and  O_34
    5  A    between atoms: C_6  and  C_52
    6  A    between atoms: C_7  and  C_28
    7  A    between atoms: C_7  and  N_30
    8  A    between atoms: C_10  and  C_27
    9  A    between atoms: C_10  and  C_52
   10  A    between atoms: C_11  and  C_38
   11  A    between atoms: C_11  and  C_46
   12  A    between atoms: C_13  and  C_28
   13  A    between atoms: C_13  and  C_46
   14  A    between atoms: C_14  and  C_45
   15  A    between atoms: O_17  and  C_35
   16  A    between atoms: O_17  and  C_46
   17  A    between atoms: C_27  and  C_33
   18  A    between atoms: C_32  and  O_36
   19  A    between atoms: O_34  and  C_50
   20  A    between atoms: O_36  and  C_38
   21  A    between atoms: C_37  and  C_45
                            x       y       z     vdW  Elec       q    Type
                         _______ _______ _______ _____ _____    ______ ____

>  <TORSDO>
F 21

$$$$
=
 OpenBabel11042417423D

 54 60  0  0  1  0  0  0  0  0999 V2000
  192.7780  168.9420  140.9330 C   0  0  2  0  0  0  0  0  0  0  0  0
  192.1230  170.2230  141.3870 C   0  0  1  0  0  0  0  0  0  0  0  0
  190.9110  170.7110  140.9490 O   0  0  0  0  0  0  0  0  0  0  0  0
  192.1920  168.3150  139.8290 O   0  0  0  0  0  1  0  0  0  0  0  0
  191.9200  168.9320  142.1770 C   0  0  0  0  0  2  0  0  0  0  0  0
  193.4890  172.1990  141.8180 O   0  0  0  0  0  1  0  0  0  0  0  0
  191.1550  171.9240  141.6600 C   0  0  2  0  0  0  0  0  0  0  0  0
  191.4140  171.9000  143.1960 C   0  0  1  0  0  0  0  0  0  0  0  0
  190.0060  172.0140  142.6390 C   0  0  1  0  0  3  0  0  0  0  0  0
  192.4670  171.3570  142.2610 C   0  0  1  0  0  0  0  0  0  0  0  0
  194.2430  168.7600  141.1640 C   0  0  0  0  0  3  0  0  0  0  0  0
  195.1530  168.6480  143.5390 O   0  0  0  0  0  0  0  0  0  0  0  0
  194.7170  168.7020  142.3800 C   0  0  0  0  0  0  0  0  0  0  0  0
  191.8600  173.1690  143.6830 O   0  0  0  0  0  0  0  0  0  0  0  0
  193.3340  172.3880  145.2580 O   0  0  0  0  0  0  0  0  0  0  0  0
  192.5620  173.3130  144.8830 C   0  0  0  0  0  0  0  0  0  0  0  0
  192.4050  174.5320  145.7440 C   0  0  0  0  0  2  0  0  0  0  0  0
  192.5620  175.8220  144.9290 C   0  0  2  0  0  3  0  0  0  0  0  0
  191.3580  176.0940  144.2610 O   0  0  0  0  0  0  0  0  0  0  0  0
  190.8860  177.2960  144.8160 C   0  0  1  0  0  3  0  0  0  0  0  0
  189.9100  177.9280  144.0420 C   0  0  2  0  0  3  0  0  0  0  0  0
  189.4570  177.1170  145.2220 N   0  0  0  0  0  0  0  0  0  0  0  0
  188.4460  176.5740  146.0740 C   0  0  0  0  0  0  0  0  0  0  0  0
  188.8100  175.2510  146.9890 S   0  0  0  0  0  0  0  0  0  0  0  0
  184.3820  178.3380  143.7420 C   0  0  0  0  0  1  0  0  0  0  0  0
  184.5760  178.4410  146.2280 C   0  0  0  0  0  3  0  0  0  0  0  0
  185.2770  178.1930  147.4120 C   0  0  0  0  0  3  0  0  0  0  0  0
  186.5360  177.5780  147.3670 C   0  0  0  0  0  3  0  0  0  0  0  0
  187.1090  177.2100  146.1380 C   0  0  0  0  0  0  0  0  0  0  0  0
  185.1320  178.0760  145.0010 C   0  0  0  0  0  0  0  0  0  0  0  0
  186.3920  177.4670  144.9560 C   0  0  0  0  0  3  0  0  0  0  0  0
  189.4930  177.2080  142.7530 C   0  0  0  0  0  2  0  0  0  0  0  0
  187.3860  177.6570  141.4710 C   0  0  0  0  0  1  0  0  0  0  0  0
  188.7780  178.1680  141.8030 C   0  0  0  0  0  2  0  0  0  0  0  0
  193.7160  175.7170  143.9190 C   0  0  0  0  0  2  0  0  0  0  0  0
  195.0790  175.7690  144.6030 C   0  0  0  0  0  2  0  0  0  0  0  0
  196.0370  176.6460  143.8070 C   0  0  0  0  0  2  0  0  0  0  0  0
  197.2160  175.8720  143.4260 N   0  0  0  0  0  2  0  0  0  0  0  0
  197.3540  175.2460  142.1460 C   0  0  0  0  0  3  0  0  0  0  0  0
  196.4230  175.3410  141.2510 N   0  0  0  0  0  2  0  0  0  0  0  0
  189.4290  173.4270  142.6510 C   0  0  0  0  0  2  0  0  0  0  0  0
  188.2550  173.5510  141.6870 C   0  0  1  0  0  3  0  0  0  0  0  0
  187.1860  174.1520  142.3300 F   0  0  0  0  0  0  0  0  0  0  0  0
  188.6230  174.3370  140.4280 C   0  0  0  0  0  2  0  0  0  0  0  0
  188.5990  173.4720  139.1740 C   0  0  0  0  0  2  0  0  0  0  0  0
  189.4280  174.0200  138.1910 O   0  0  0  0  0  0  0  0  0  0  0  0
  192.9910  173.1890  137.4210 C   0  0  0  0  0  2  0  0  0  0  0  0
  193.0410  171.9250  138.2800 C   0  0  1  0  0  3  0  0  0  0  0  0
  190.0870  171.8280  137.6120 C   0  0  0  0  0  3  0  0  0  0  0  0
  192.3250  170.8300  137.6370 N   0  0  0  0  0  2  0  0  0  0  0  0
  191.5840  173.7610  137.2050 C   0  0  0  0  0  2  0  0  0  0  0  0
  194.4870  171.5200  138.4890 C   0  0  0  0  0  1  0  0  0  0  0  0
  190.5280  173.1630  138.1320 C   0  0  1  0  0  3  0  0  0  0  0  0
  190.9100  170.7960  137.3960 C   0  0  0  0  0  3  0  0  0  0  0  0
  1  4  1  6  0  0  0
  1 11  1  0  0  0  0
  1  2  1  0  0  0  0
  1  5  1  0  0  0  0
  2  5  1  1  0  0  0
  2 10  1  0  0  0  0
  3  2  1  0  0  0  0
  7  3  1  1  0  0  0
  7 10  1  0  0  0  0
  7  9  1  0  0  0  0
  7  8  1  0  0  0  0
  8 14  1  1  0  0  0
  9 41  1  1  0  0  0
  9  8  1  0  0  0  0
 10  6  1  6  0  0  0
 10  8  1  0  0  0  0
 11 13  2  0  0  0  0
 13 12  2  0  0  0  0
 14 16  1  0  0  0  0
 16 15  2  0  0  0  0
 16 17  1  0  0  0  0
 18 35  1  6  0  0  0
 18 17  1  0  0  0  0
 19 18  1  0  0  0  0
 20 19  1  6  0  0  0
 20 22  1  0  0  0  0
 21 32  1  6  0  0  0
 21 20  1  0  0  0  0
 21 22  1  0  0  0  0
 22 23  1  0  0  0  0
 23 29  1  0  0  0  0
 23 24  2  0  0  0  0
 25 30  1  0  0  0  0
 26 27  1  0  0  0  0
 28 27  2  0  0  0  0
 29 28  1  0  0  0  0
 30 26  2  0  0  0  0
 31 30  1  0  0  0  0
 31 29  2  0  0  0  0
 33 34  1  0  0  0  0
 34 32  1  0  0  0  0
 35 36  1  0  0  0  0
 37 36  1  0  0  0  0
 38 37  1  0  0  0  0
 39 38  1  0  0  0  0
 40 39  2  0  0  0  0
 42 43  1  1  0  0  0
 42 41  1  0  0  0  0
 44 42  1  0  0  0  0
 45 44  1  0  0  0  0
 46 45  1  0  0  0  0
 47 48  1  0  0  0  0
 48 52  1  6  0  0  0
 49 53  1  0  0  0  0
 50 48  1  0  0  0  0
 51 47  1  0  0  0  0
 51 53  1  0  0  0  0
 53 46  1  6  0  0  0
 54 49  2  0  0  0  0
 54 50  1  0  0  0  0
M  END
>  <MODEL>
4

>  <REMARK>
 VINA RESULT:      -6.3      3.207      8.928
  Name = 
  21 active torsions:
  status: ('A' for Active; 'I' for Inactive)
    1  A    between atoms: C_2  and  N_42
    2  A    between atoms: C_2  and  C_44
    3  A    between atoms: C_3  and  C_8
    4  A    between atoms: C_6  and  O_34
    5  A    between atoms: C_6  and  C_52
    6  A    between atoms: C_7  and  C_28
    7  A    between atoms: C_7  and  N_30
    8  A    between atoms: C_10  and  C_27
    9  A    between atoms: C_10  and  C_52
   10  A    between atoms: C_11  and  C_38
   11  A    between atoms: C_11  and  C_46
   12  A    between atoms: C_13  and  C_28
   13  A    between atoms: C_13  and  C_46
   14  A    between atoms: C_14  and  C_45
   15  A    between atoms: O_17  and  C_35
   16  A    between atoms: O_17  and  C_46
   17  A    between atoms: C_27  and  C_33
   18  A    between atoms: C_32  and  O_36
   19  A    between atoms: O_34  and  C_50
   20  A    between atoms: O_36  and  C_38
   21  A    between atoms: C_37  and  C_45
                            x       y       z     vdW  Elec       q    Type
                         _______ _______ _______ _____ _____    ______ ____

>  <TORSDO>
F 21

$$$$
=
 OpenBabel11042417423D

 54 60  0  0  1  0  0  0  0  0999 V2000
  185.4670  178.5340  143.7190 C   0  0  2  0  0  0  0  0  0  0  0  0
  186.4120  177.4410  143.2840 C   0  0  1  0  0  0  0  0  0  0  0  0
  186.0890  176.3620  142.4900 O   0  0  0  0  0  0  0  0  0  0  0  0
  184.1120  178.3120  143.4540 O   0  0  0  0  0  1  0  0  0  0  0  0
  186.3130  178.7370  142.4850 C   0  0  0  0  0  2  0  0  0  0  0  0
  188.1020  176.6090  144.8360 O   0  0  0  0  0  1  0  0  0  0  0  0
  187.3770  175.8040  142.7440 C   0  0  2  0  0  0  0  0  0  0  0  0
  188.6680  176.6040  142.3920 C   0  0  1  0  0  0  0  0  0  0  0  0
  188.0070  175.6920  141.3740 C   0  0  1  0  0  3  0  0  0  0  0  0
  187.8080  177.0590  143.5470 C   0  0  1  0  0  0  0  0  0  0  0  0
  185.8350  179.3800  144.8940 C   0  0  0  0  0  3  0  0  0  0  0  0
  185.0880  178.7060  147.2330 O   0  0  0  0  0  0  0  0  0  0  0  0
  185.4550  179.0410  146.0970 C   0  0  0  0  0  0  0  0  0  0  0  0
  189.8420  175.9860  142.9250 O   0  0  0  0  0  0  0  0  0  0  0  0
  191.3390  177.7210  143.0180 O   0  0  0  0  0  0  0  0  0  0  0  0
  191.1240  176.5110  142.7360 C   0  0  0  0  0  0  0  0  0  0  0  0
  192.2430  175.6740  142.1890 C   0  0  0  0  0  2  0  0  0  0  0  0
  193.2780  175.3380  143.2710 C   0  0  2  0  0  3  0  0  0  0  0  0
  193.0190  176.1130  144.4120 O   0  0  0  0  0  0  0  0  0  0  0  0
  193.6930  175.4670  145.4630 C   0  0  1  0  0  3  0  0  0  0  0  0
  192.8760  175.1640  146.5550 C   0  0  2  0  0  3  0  0  0  0  0  0
  193.1850  174.0640  145.5800 N   0  0  0  0  0  0  0  0  0  0  0  0
  193.0730  172.7200  145.1090 C   0  0  0  0  0  0  0  0  0  0  0  0
  194.2650  171.6470  145.4910 S   0  0  0  0  0  0  0  0  0  0  0  0
  191.1570  170.3830  141.1170 C   0  0  0  0  0  1  0  0  0  0  0  0
  189.6730  171.5370  142.7580 C   0  0  0  0  0  3  0  0  0  0  0  0
  189.4860  172.2810  143.9270 C   0  0  0  0  0  3  0  0  0  0  0  0
  190.5920  172.6610  144.7010 C   0  0  0  0  0  3  0  0  0  0  0  0
  191.8940  172.3090  144.3100 C   0  0  0  0  0  0  0  0  0  0  0  0
  190.9620  171.1760  142.3610 C   0  0  0  0  0  0  0  0  0  0  0  0
  192.0660  171.5630  143.1300 C   0  0  0  0  0  3  0  0  0  0  0  0
  191.3960  175.5470  146.4220 C   0  0  0  0  0  2  0  0  0  0  0  0
  189.2040  174.8370  147.4120 C   0  0  0  0  0  1  0  0  0  0  0  0
  190.6390  175.2390  147.7130 C   0  0  0  0  0  2  0  0  0  0  0  0
  194.7120  175.5850  142.7780 C   0  0  0  0  0  2  0  0  0  0  0  0
  194.7400  176.4120  141.4950 C   0  0  0  0  0  2  0  0  0  0  0  0
  196.1430  176.4200  140.9010 C   0  0  0  0  0  2  0  0  0  0  0  0
  196.5970  175.0490  140.6860 N   0  0  0  0  0  2  0  0  0  0  0  0
  197.3590  174.6530  139.5390 C   0  0  0  0  0  3  0  0  0  0  0  0
  197.6860  175.5100  138.6250 N   0  0  0  0  0  2  0  0  0  0  0  0
  188.6770  174.3310  141.2080 C   0  0  0  0  0  2  0  0  0  0  0  0
  189.2650  174.1730  139.8120 C   0  0  1  0  0  3  0  0  0  0  0  0
  190.2090  173.1580  139.8150 F   0  0  0  0  0  0  0  0  0  0  0  0
  188.1900  173.8900  138.7620 C   0  0  0  0  0  2  0  0  0  0  0  0
  188.6960  173.0000  137.6340 C   0  0  0  0  0  2  0  0  0  0  0  0
  189.5140  173.7330  136.7680 O   0  0  0  0  0  0  0  0  0  0  0  0
  192.5460  172.7350  134.8230 C   0  0  0  0  0  2  0  0  0  0  0  0
  192.9450  171.5810  135.7440 C   0  0  1  0  0  3  0  0  0  0  0  0
  189.9600  171.4730  136.2490 C   0  0  0  0  0  2  0  0  0  0  0  0
  192.0670  170.4340  135.5510 N   0  0  0  0  0  0  0  0  0  0  0  0
  191.1490  173.3090  135.0840 C   0  0  0  0  0  2  0  0  0  0  0  0
  194.3730  171.1710  135.4410 C   0  0  0  0  0  1  0  0  0  0  0  0
  190.5310  172.8500  136.4030 C   0  0  1  0  0  3  0  0  0  0  0  0
  190.6650  170.4040  135.8640 C   0  0  0  0  0  3  0  0  0  0  0  0
  1  4  1  6  0  0  0
  1 11  1  0  0  0  0
  2  5  1  6  0  0  0
  2 10  1  0  0  0  0
  2  1  1  0  0  0  0
  3  2  1  0  0  0  0
  5  1  1  0  0  0  0
  7  3  1  6  0  0  0
  7 10  1  0  0  0  0
  8  7  1  0  0  0  0
  8 14  1  1  0  0  0
  8 10  1  0  0  0  0
  9 41  1  1  0  0  0
  9  8  1  0  0  0  0
  9  7  1  0  0  0  0
 10  6  1  1  0  0  0
 11 13  2  0  0  0  0
 13 12  2  0  0  0  0
 16 14  1  0  0  0  0
 16 15  2  0  0  0  0
 17 16  1  0  0  0  0
 18 17  1  6  0  0  0
 18 19  1  0  0  0  0
 20 19  1  6  0  0  0
 20 22  1  0  0  0  0
 20 21  1  0  0  0  0
 21 32  1  6  0  0  0
 22 21  1  0  0  0  0
 23 24  2  0  0  0  0
 23 22  1  0  0  0  0
 25 30  1  0  0  0  0
 26 27  1  0  0  0  0
 27 28  2  0  0  0  0
 29 28  1  0  0  0  0
 29 23  1  0  0  0  0
 30 26  2  0  0  0  0
 30 31  1  0  0  0  0
 31 29  2  0  0  0  0
 32 34  1  0  0  0  0
 33 34  1  0  0  0  0
 35 18  1  0  0  0  0
 36 35  1  0  0  0  0
 37 36  1  0  0  0  0
 38 37  1  0  0  0  0
 39 38  1  0  0  0  0
 40 39  2  0  0  0  0
 42 43  1  1  0  0  0
 42 41  1  0  0  0  0
 44 42  1  0  0  0  0
 45 44  1  0  0  0  0
 46 45  1  0  0  0  0
 47 51  1  0  0  0  0
 47 48  1  0  0  0  0
 48 52  1  6  0  0  0
 49 53  1  0  0  0  0
 50 48  1  0  0  0  0
 50 54  2  0  0  0  0
 51 53  1  0  0  0  0
 53 46  1  6  0  0  0
 54 49  1  0  0  0  0
M  END
>  <MODEL>
5

>  <REMARK>
 VINA RESULT:      -6.2      2.761      7.378
  Name = 
  21 active torsions:
  status: ('A' for Active; 'I' for Inactive)
    1  A    between atoms: C_2  and  N_42
    2  A    between atoms: C_2  and  C_44
    3  A    between atoms: C_3  and  C_8
    4  A    between atoms: C_6  and  O_34
    5  A    between atoms: C_6  and  C_52
    6  A    between atoms: C_7  and  C_28
    7  A    between atoms: C_7  and  N_30
    8  A    between atoms: C_10  and  C_27
    9  A    between atoms: C_10  and  C_52
   10  A    between atoms: C_11  and  C_38
   11  A    between atoms: C_11  and  C_46
   12  A    between atoms: C_13  and  C_28
   13  A    between atoms: C_13  and  C_46
   14  A    between atoms: C_14  and  C_45
   15  A    between atoms: O_17  and  C_35
   16  A    between atoms: O_17  and  C_46
   17  A    between atoms: C_27  and  C_33
   18  A    between atoms: C_32  and  O_36
   19  A    between atoms: O_34  and  C_50
   20  A    between atoms: O_36  and  C_38
   21  A    between atoms: C_37  and  C_45
                            x       y       z     vdW  Elec       q    Type
                         _______ _______ _______ _____ _____    ______ ____

>  <TORSDO>
F 21

$$$$
=
 OpenBabel11042417423D

 54 60  0  0  1  0  0  0  0  0999 V2000
  196.8250  170.7150  145.4170 C   0  0  2  0  0  0  0  0  0  0  0  0
  195.6520  171.6550  145.2850 C   0  0  1  0  0  0  0  0  0  0  0  0
  194.5840  171.7430  146.1520 O   0  0  0  0  0  0  0  0  0  0  0  0
  196.7040  169.7210  146.3920 O   0  0  0  0  0  1  0  0  0  0  0  0
  196.9340  172.1160  145.9720 C   0  0  0  0  0  2  0  0  0  0  0  0
  194.7230  172.1350  143.0790 O   0  0  0  0  0  1  0  0  0  0  0  0
  193.9330  172.6280  145.2430 C   0  0  2  0  0  0  0  0  0  0  0  0
  194.6210  173.9550  144.8020 C   0  0  1  0  0  0  0  0  0  0  0  0
  193.7420  173.8990  146.0400 C   0  0  1  0  0  3  0  0  0  0  0  0
  195.1660  172.6390  144.3040 C   0  0  1  0  0  0  0  0  0  0  0  0
  197.6640  170.4370  144.2130 C   0  0  0  0  0  3  0  0  0  0  0  0
  196.8350  168.8200  142.4290 O   0  0  0  0  0  0  0  0  0  0  0  0
  197.2450  169.6080  143.2940 C   0  0  0  0  0  0  0  0  0  0  0  0
  193.9230  174.5880  143.7250 O   0  0  0  0  0  0  0  0  0  0  0  0
  195.3390  176.3850  143.5650 O   0  0  0  0  0  0  0  0  0  0  0  0
  194.4460  175.6780  143.0230 C   0  0  0  0  0  0  0  0  0  0  0  0
  193.9560  176.0370  141.6510 C   0  0  0  0  0  2  0  0  0  0  0  0
  194.3650  174.9850  140.6130 C   0  0  2  0  0  3  0  0  0  0  0  0
  193.5780  173.8360  140.7860 O   0  0  0  0  0  0  0  0  0  0  0  0
  192.3900  174.0880  140.0790 C   0  0  1  0  0  3  0  0  0  0  0  0
  191.6220  172.9440  139.8430 C   0  0  2  0  0  3  0  0  0  0  0  0
  191.2230  173.8380  140.9820 N   0  0  0  0  0  0  0  0  0  0  0  0
  190.3880  174.1840  142.0890 C   0  0  0  0  0  0  0  0  0  0  0  0
  190.1030  173.0490  143.2500 S   0  0  0  0  0  0  0  0  0  0  0  0
  186.7400  177.4270  140.9740 C   0  0  0  0  0  1  0  0  0  0  0  0
  188.7090  178.1350  142.3350 C   0  0  0  0  0  3  0  0  0  0  0  0
  189.9270  177.8560  142.9610 C   0  0  0  0  0  3  0  0  0  0  0  0
  190.4740  176.5670  142.8900 C   0  0  0  0  0  3  0  0  0  0  0  0
  189.8120  175.5470  142.1870 C   0  0  0  0  0  0  0  0  0  0  0  0
  188.0380  177.1280  141.6380 C   0  0  0  0  0  0  0  0  0  0  0  0
  188.5880  175.8430  141.5610 C   0  0  0  0  0  3  0  0  0  0  0  0
  192.1720  171.6290  140.4110 C   0  0  0  0  0  2  0  0  0  0  0  0
  190.9990  169.5510  141.1820 C   0  0  0  0  0  1  0  0  0  0  0  0
  191.2940  170.4510  139.9920 C   0  0  0  0  0  2  0  0  0  0  0  0
  195.8560  174.6280  140.7270 C   0  0  0  0  0  2  0  0  0  0  0  0
  196.7470  175.6890  140.0880 C   0  0  0  0  0  2  0  0  0  0  0  0
  197.2400  175.2160  138.7260 C   0  0  0  0  0  2  0  0  0  0  0  0
  197.9240  173.9340  138.8660 N   0  0  0  0  0  2  0  0  0  0  0  0
  197.7920  172.8740  137.9100 C   0  0  0  0  0  3  0  0  0  0  0  0
  197.0480  173.0110  136.8590 N   0  0  0  0  0  2  0  0  0  0  0  0
  192.3290  174.4420  145.8410 C   0  0  0  0  0  2  0  0  0  0  0  0
  192.1450  175.7750  146.5560 C   0  0  1  0  0  3  0  0  0  0  0  0
  192.3680  176.8150  145.6690 F   0  0  0  0  0  0  0  0  0  0  0  0
  190.7580  175.9050  147.1850 C   0  0  0  0  0  2  0  0  0  0  0  0
  189.8530  176.8550  146.4100 C   0  0  0  0  0  2  0  0  0  0  0  0
  188.8400  177.3440  147.2400 O   0  0  0  0  0  0  0  0  0  0  0  0
  185.6100  179.0100  146.3640 C   0  0  0  0  0  2  0  0  0  0  0  0
  185.7890  178.9030  144.8490 C   0  0  1  0  0  3  0  0  0  0  0  0
  187.3880  176.4440  145.6090 C   0  0  0  0  0  2  0  0  0  0  0  0
  185.5620  177.5370  144.3940 N   0  0  0  0  0  0  0  0  0  0  0  0
  186.6100  178.1900  147.1870 C   0  0  0  0  0  2  0  0  0  0  0  0
  184.8030  179.8270  144.1630 C   0  0  0  0  0  1  0  0  0  0  0  0
  187.7930  177.6670  146.3750 C   0  0  1  0  0  3  0  0  0  0  0  0
  186.3840  176.4070  144.7270 C   0  0  0  0  0  3  0  0  0  0  0  0
  1  5  1  0  0  0  0
  1  4  1  1  0  0  0
  2  1  1  0  0  0  0
  2  5  1  1  0  0  0
  2  3  1  0  0  0  0
  7  9  1  0  0  0  0
  7  3  1  1  0  0  0
  8 14  1  6  0  0  0
  8  7  1  0  0  0  0
  8  9  1  0  0  0  0
  9 41  1  6  0  0  0
 10  6  1  6  0  0  0
 10  8  1  0  0  0  0
 10  7  1  0  0  0  0
 10  2  1  0  0  0  0
 11  1  1  0  0  0  0
 12 13  2  0  0  0  0
 13 11  2  0  0  0  0
 16 15  2  0  0  0  0
 16 14  1  0  0  0  0
 17 16  1  0  0  0  0
 18 35  1  1  0  0  0
 18 19  1  0  0  0  0
 18 17  1  0  0  0  0
 20 19  1  1  0  0  0
 20 22  1  0  0  0  0
 21 20  1  0  0  0  0
 21 32  1  1  0  0  0
 21 22  1  0  0  0  0
 22 23  1  0  0  0  0
 23 29  1  0  0  0  0
 23 24  2  0  0  0  0
 25 30  1  0  0  0  0
 26 27  1  0  0  0  0
 28 27  2  0  0  0  0
 29 28  1  0  0  0  0
 30 26  2  0  0  0  0
 31 30  1  0  0  0  0
 31 29  2  0  0  0  0
 34 32  1  0  0  0  0
 34 33  1  0  0  0  0
 36 35  1  0  0  0  0
 37 38  1  0  0  0  0
 37 36  1  0  0  0  0
 39 38  1  0  0  0  0
 40 39  2  0  0  0  0
 41 42  1  0  0  0  0
 42 43  1  6  0  0  0
 42 44  1  0  0  0  0
 45 44  1  0  0  0  0
 45 46  1  0  0  0  0
 47 51  1  0  0  0  0
 48 52  1  6  0  0  0
 48 47  1  0  0  0  0
 49 53  1  0  0  0  0
 50 54  2  0  0  0  0
 50 48  1  0  0  0  0
 53 51  1  0  0  0  0
 53 46  1  1  0  0  0
 54 49  1  0  0  0  0
M  END
>  <MODEL>
6

>  <REMARK>
 VINA RESULT:      -6.2      2.924      8.500
  Name = 
  21 active torsions:
  status: ('A' for Active; 'I' for Inactive)
    1  A    between atoms: C_2  and  N_42
    2  A    between atoms: C_2  and  C_44
    3  A    between atoms: C_3  and  C_8
    4  A    between atoms: C_6  and  O_34
    5  A    between atoms: C_6  and  C_52
    6  A    between atoms: C_7  and  C_28
    7  A    between atoms: C_7  and  N_30
    8  A    between atoms: C_10  and  C_27
    9  A    between atoms: C_10  and  C_52
   10  A    between atoms: C_11  and  C_38
   11  A    between atoms: C_11  and  C_46
   12  A    between atoms: C_13  and  C_28
   13  A    between atoms: C_13  and  C_46
   14  A    between atoms: C_14  and  C_45
   15  A    between atoms: O_17  and  C_35
   16  A    between atoms: O_17  and  C_46
   17  A    between atoms: C_27  and  C_33
   18  A    between atoms: C_32  and  O_36
   19  A    between atoms: O_34  and  C_50
   20  A    between atoms: O_36  and  C_38
   21  A    between atoms: C_37  and  C_45
                            x       y       z     vdW  Elec       q    Type
                         _______ _______ _______ _____ _____    ______ ____

>  <TORSDO>
F 21

$$$$
=
 OpenBabel11042417423D

 54 60  0  0  1  0  0  0  0  0999 V2000
  185.3570  178.6140  143.5800 C   0  0  2  0  0  0  0  0  0  0  0  0
  186.4020  177.5610  143.3060 C   0  0  1  0  0  0  0  0  0  0  0  0
  186.2180  176.4100  142.5690 O   0  0  0  0  0  0  0  0  0  0  0  0
  184.0470  178.2810  143.2230 O   0  0  0  0  0  1  0  0  0  0  0  0
  186.2920  178.7900  142.4070 C   0  0  0  0  0  2  0  0  0  0  0  0
  188.0010  176.9530  145.0470 O   0  0  0  0  0  1  0  0  0  0  0  0
  187.5110  175.9610  142.9680 C   0  0  2  0  0  0  0  0  0  0  0  0
  188.7750  176.8210  142.6650 C   0  0  1  0  0  0  0  0  0  0  0  0
  188.2620  175.7980  141.6650 C   0  0  1  0  0  3  0  0  0  0  0  0
  187.7920  177.2930  143.7090 C   0  0  1  0  0  0  0  0  0  0  0  0
  185.5690  179.5610  144.7160 C   0  0  0  0  0  3  0  0  0  0  0  0
  185.4380  178.7200  147.1160 O   0  0  0  0  0  0  0  0  0  0  0  0
  185.5030  179.1370  145.9500 C   0  0  0  0  0  0  0  0  0  0  0  0
  189.9360  176.3220  143.3350 O   0  0  0  0  0  0  0  0  0  0  0  0
  191.4540  178.0330  143.1710 O   0  0  0  0  0  0  0  0  0  0  0  0
  191.2240  176.7970  143.0710 C   0  0  0  0  0  0  0  0  0  0  0  0
  192.3310  175.8740  142.6540 C   0  0  0  0  0  2  0  0  0  0  0  0
  193.7090  176.4620  142.9830 C   0  0  2  0  0  3  0  0  0  0  0  0
  194.6230  176.0750  141.9910 O   0  0  0  0  0  0  0  0  0  0  0  0
  193.8530  175.4450  140.9980 C   0  0  1  0  0  3  0  0  0  0  0  0
  194.6010  174.9980  139.9050 C   0  0  2  0  0  3  0  0  0  0  0  0
  194.2110  173.9930  140.9510 N   0  0  0  0  0  0  0  0  0  0  0  0
  194.1990  172.6730  141.4980 C   0  0  0  0  0  0  0  0  0  0  0  0
  195.6310  171.9900  141.9480 S   0  0  0  0  0  0  0  0  0  0  0  0
  189.9550  171.9440  144.0530 C   0  0  0  0  0  1  0  0  0  0  0  0
  190.4820  170.5780  142.0320 C   0  0  0  0  0  3  0  0  0  0  0  0
  191.3200  170.2470  140.9640 C   0  0  0  0  0  3  0  0  0  0  0  0
  192.5290  170.9330  140.7810 C   0  0  0  0  0  3  0  0  0  0  0  0
  192.9150  171.9520  141.6690 C   0  0  0  0  0  0  0  0  0  0  0  0
  190.8510  171.5920  142.9180 C   0  0  0  0  0  0  0  0  0  0  0  0
  192.0620  172.2720  142.7390 C   0  0  0  0  0  3  0  0  0  0  0  0
  196.1160  175.2310  139.9780 C   0  0  0  0  0  2  0  0  0  0  0  0
  195.6810  174.9020  137.5300 C   0  0  0  0  0  1  0  0  0  0  0  0
  196.7490  175.1060  138.5930 C   0  0  0  0  0  2  0  0  0  0  0  0
  194.2030  176.0050  144.3650 C   0  0  0  0  0  2  0  0  0  0  0  0
  193.5770  174.6780  144.7850 C   0  0  0  0  0  2  0  0  0  0  0  0
  192.9800  174.7940  146.1820 C   0  0  0  0  0  2  0  0  0  0  0  0
  191.5270  174.9050  146.0910 N   0  0  0  0  0  2  0  0  0  0  0  0
  190.7070  175.3010  147.1970 C   0  0  0  0  0  3  0  0  0  0  0  0
  191.2270  175.5870  148.3480 N   0  0  0  0  0  2  0  0  0  0  0  0
  189.0280  174.4780  141.6560 C   0  0  0  0  0  2  0  0  0  0  0  0
  189.3010  174.0090  140.2320 C   0  0  1  0  0  3  0  0  0  0  0  0
  190.6120  173.5750  140.1270 F   0  0  0  0  0  0  0  0  0  0  0  0
  188.3410  172.9020  139.7970 C   0  0  0  0  0  2  0  0  0  0  0  0
  188.9700  171.9490  138.7880 C   0  0  0  0  0  2  0  0  0  0  0  0
  188.9920  172.5320  137.5180 O   0  0  0  0  0  0  0  0  0  0  0  0
  192.6050  173.0300  136.6990 C   0  0  0  0  0  2  0  0  0  0  0  0
  192.9020  171.5560  136.4150 C   0  0  1  0  0  3  0  0  0  0  0  0
  189.9780  171.5300  135.6210 C   0  0  0  0  0  2  0  0  0  0  0  0
  192.3490  171.1530  135.1280 N   0  0  0  0  0  0  0  0  0  0  0  0
  191.1160  173.3700  136.8290 C   0  0  0  0  0  2  0  0  0  0  0  0
  194.4020  171.3420  136.4010 C   0  0  0  0  0  1  0  0  0  0  0  0
  190.2150  172.1460  136.9660 C   0  0  1  0  0  3  0  0  0  0  0  0
  190.9490  171.0930  134.8120 C   0  0  0  0  0  3  0  0  0  0  0  0
  1  4  1  6  0  0  0
  1 11  1  0  0  0  0
  2  5  1  6  0  0  0
  2  1  1  0  0  0  0
  2 10  1  0  0  0  0
  3  2  1  0  0  0  0
  5  1  1  0  0  0  0
  7  3  1  6  0  0  0
  7 10  1  0  0  0  0
  8  7  1  0  0  0  0
  8 14  1  1  0  0  0
  8 10  1  0  0  0  0
  9 41  1  1  0  0  0
  9  8  1  0  0  0  0
  9  7  1  0  0  0  0
 10  6  1  1  0  0  0
 11 13  2  0  0  0  0
 13 12  2  0  0  0  0
 16 15  2  0  0  0  0
 16 14  1  0  0  0  0
 17 16  1  0  0  0  0
 18 17  1  6  0  0  0
 18 35  1  0  0  0  0
 19 18  1  0  0  0  0
 20 19  1  1  0  0  0
 21 32  1  1  0  0  0
 21 22  1  0  0  0  0
 21 20  1  0  0  0  0
 22 20  1  0  0  0  0
 22 23  1  0  0  0  0
 23 29  1  0  0  0  0
 23 24  2  0  0  0  0
 26 30  1  0  0  0  0
 27 26  2  0  0  0  0
 28 27  1  0  0  0  0
 28 29  2  0  0  0  0
 29 31  1  0  0  0  0
 30 25  1  0  0  0  0
 31 30  2  0  0  0  0
 33 34  1  0  0  0  0
 34 32  1  0  0  0  0
 35 36  1  0  0  0  0
 36 37  1  0  0  0  0
 38 37  1  0  0  0  0
 38 39  1  0  0  0  0
 39 40  2  0  0  0  0
 42 43  1  1  0  0  0
 42 41  1  0  0  0  0
 44 42  1  0  0  0  0
 45 44  1  0  0  0  0
 46 45  1  0  0  0  0
 47 51  1  0  0  0  0
 48 52  1  6  0  0  0
 48 47  1  0  0  0  0
 49 53  1  0  0  0  0
 50 48  1  0  0  0  0
 51 53  1  0  0  0  0
 53 46  1  6  0  0  0
 54 50  2  0  0  0  0
 54 49  1  0  0  0  0
M  END
>  <MODEL>
7

>  <REMARK>
 VINA RESULT:      -6.1      2.684      6.336
  Name = 
  21 active torsions:
  status: ('A' for Active; 'I' for Inactive)
    1  A    between atoms: C_2  and  N_42
    2  A    between atoms: C_2  and  C_44
    3  A    between atoms: C_3  and  C_8
    4  A    between atoms: C_6  and  O_34
    5  A    between atoms: C_6  and  C_52
    6  A    between atoms: C_7  and  C_28
    7  A    between atoms: C_7  and  N_30
    8  A    between atoms: C_10  and  C_27
    9  A    between atoms: C_10  and  C_52
   10  A    between atoms: C_11  and  C_38
   11  A    between atoms: C_11  and  C_46
   12  A    between atoms: C_13  and  C_28
   13  A    between atoms: C_13  and  C_46
   14  A    between atoms: C_14  and  C_45
   15  A    between atoms: O_17  and  C_35
   16  A    between atoms: O_17  and  C_46
   17  A    between atoms: C_27  and  C_33
   18  A    between atoms: C_32  and  O_36
   19  A    between atoms: O_34  and  C_50
   20  A    between atoms: O_36  and  C_38
   21  A    between atoms: C_37  and  C_45
                            x       y       z     vdW  Elec       q    Type
                         _______ _______ _______ _____ _____    ______ ____

>  <TORSDO>
F 21

$$$$
=
 OpenBabel11042417423D

 54 60  0  0  1  0  0  0  0  0999 V2000
  191.0040  172.1550  136.4740 C   0  0  2  0  0  0  0  0  0  0  0  0
  190.8440  171.8740  137.9480 C   0  0  1  0  0  0  0  0  0  0  0  0
  191.6300  171.0280  138.7010 O   0  0  0  0  0  0  0  0  0  0  0  0
  191.9010  171.3290  135.7900 O   0  0  0  0  0  1  0  0  0  0  0  0
  191.6560  173.0770  137.4780 C   0  0  0  0  0  2  0  0  0  0  0  0
  188.6090  171.6930  138.9130 O   0  0  0  0  0  1  0  0  0  0  0  0
  190.7330  171.1880  139.7980 C   0  0  2  0  0  0  0  0  0  0  0  0
  190.4330  172.6050  140.3730 C   0  0  1  0  0  0  0  0  0  0  0  0
  191.5930  171.7750  140.8950 C   0  0  1  0  0  3  0  0  0  0  0  0
  189.8940  172.2300  139.0140 C   0  0  1  0  0  0  0  0  0  0  0  0
  189.8530  172.7380  135.7220 C   0  0  0  0  0  3  0  0  0  0  0  0
  189.3340  175.2230  135.9150 O   0  0  0  0  0  0  0  0  0  0  0  0
  189.5800  174.0120  135.8170 C   0  0  0  0  0  0  0  0  0  0  0  0
  189.3490  172.5850  141.3060 O   0  0  0  0  0  0  0  0  0  0  0  0
  187.4510  173.6040  142.0970 O   0  0  0  0  0  0  0  0  0  0  0  0
  188.6230  173.7310  141.6450 C   0  0  0  0  0  0  0  0  0  0  0  0
  189.1970  175.1060  141.4680 C   0  0  0  0  0  2  0  0  0  0  0  0
  189.0120  175.9620  142.7270 C   0  0  2  0  0  3  0  0  0  0  0  0
  187.6960  176.4460  142.7660 O   0  0  0  0  0  0  0  0  0  0  0  0
  187.7970  177.7650  143.2420 C   0  0  1  0  0  3  0  0  0  0  0  0
  186.5620  178.3810  143.4620 C   0  0  2  0  0  3  0  0  0  0  0  0
  187.2890  177.8170  144.6490 N   0  0  0  0  0  0  0  0  0  0  0  0
  187.4080  177.5300  146.0440 C   0  0  0  0  0  0  0  0  0  0  0  0
  186.2320  178.0730  147.0650 S   0  0  0  0  0  0  0  0  0  0  0  0
  191.7980  177.3410  148.4430 C   0  0  0  0  0  1  0  0  0  0  0  0
  190.7730  175.2760  147.4860 C   0  0  0  0  0  3  0  0  0  0  0  0
  189.7440  174.6270  146.7980 C   0  0  0  0  0  3  0  0  0  0  0  0
  188.6410  175.3570  146.3330 C   0  0  0  0  0  3  0  0  0  0  0  0
  188.5600  176.7430  146.5450 C   0  0  0  0  0  0  0  0  0  0  0  0
  190.7020  176.6530  147.7080 C   0  0  0  0  0  0  0  0  0  0  0  0
  189.6040  177.3820  147.2370 C   0  0  0  0  0  3  0  0  0  0  0  0
  185.3180  177.5250  143.1870 C   0  0  0  0  0  2  0  0  0  0  0  0
  184.1020  179.4280  144.2760 C   0  0  0  0  0  1  0  0  0  0  0  0
  184.0600  178.3920  143.1650 C   0  0  0  0  0  2  0  0  0  0  0  0
  190.0080  177.1320  142.7670 C   0  0  0  0  0  2  0  0  0  0  0  0
  191.0580  176.9510  143.8600 C   0  0  0  0  0  2  0  0  0  0  0  0
  192.1910  176.0620  143.3630 C   0  0  0  0  0  2  0  0  0  0  0  0
  192.7060  175.2540  144.4650 N   0  0  0  0  0  2  0  0  0  0  0  0
  193.8050  175.6690  145.2850 C   0  0  0  0  0  3  0  0  0  0  0  0
  194.4010  176.8010  145.0830 N   0  0  0  0  0  2  0  0  0  0  0  0
  191.3220  171.0630  142.2180 C   0  0  0  0  0  2  0  0  0  0  0  0
  191.6780  171.9520  143.4040 C   0  0  1  0  0  3  0  0  0  0  0  0
  190.5260  172.2890  144.0960 F   0  0  0  0  0  0  0  0  0  0  0  0
  192.6820  171.2840  144.3430 C   0  0  0  0  0  2  0  0  0  0  0  0
  193.9760  170.9010  143.6360 C   0  0  0  0  0  2  0  0  0  0  0  0
  195.0610  171.5630  144.2180 O   0  0  0  0  0  0  0  0  0  0  0  0
  195.1930  173.4400  140.9880 C   0  0  0  0  0  2  0  0  0  0  0  0
  195.0560  174.8290  141.6130 C   0  0  1  0  0  3  0  0  0  0  0  0
  196.4200  173.4760  143.9560 C   0  0  0  0  0  2  0  0  0  0  0  0
  196.3000  175.2360  142.2550 N   0  0  0  0  0  0  0  0  0  0  0  0
  195.4630  172.3110  141.9900 C   0  0  0  0  0  2  0  0  0  0  0  0
  194.7020  175.8310  140.5320 C   0  0  0  0  0  1  0  0  0  0  0  0
  195.2360  172.7120  143.4450 C   0  0  1  0  0  3  0  0  0  0  0  0
  196.8810  174.6050  143.4070 C   0  0  0  0  0  3  0  0  0  0  0  0
  1  4  1  6  0  0  0
  1  5  1  0  0  0  0
  1  2  1  0  0  0  0
  2  5  1  1  0  0  0
  2  3  1  0  0  0  0
  2 10  1  0  0  0  0
  7  3  1  6  0  0  0
  7  8  1  0  0  0  0
  7  9  1  0  0  0  0
  8  9  1  0  0  0  0
  8 14  1  1  0  0  0
  9 41  1  1  0  0  0
 10  6  1  6  0  0  0
 10  7  1  0  0  0  0
 10  8  1  0  0  0  0
 11 13  2  0  0  0  0
 11  1  1  0  0  0  0
 13 12  2  0  0  0  0
 14 16  1  0  0  0  0
 16 15  2  0  0  0  0
 17 16  1  0  0  0  0
 18 17  1  6  0  0  0
 18 19  1  0  0  0  0
 18 35  1  0  0  0  0
 20 19  1  6  0  0  0
 20 21  1  0  0  0  0
 20 22  1  0  0  0  0
 21 32  1  6  0  0  0
 21 22  1  0  0  0  0
 22 23  1  0  0  0  0
 23 29  1  0  0  0  0
 23 24  2  0  0  0  0
 26 30  1  0  0  0  0
 27 26  2  0  0  0  0
 28 29  2  0  0  0  0
 28 27  1  0  0  0  0
 29 31  1  0  0  0  0
 30 25  1  0  0  0  0
 31 30  2  0  0  0  0
 34 32  1  0  0  0  0
 34 33  1  0  0  0  0
 35 36  1  0  0  0  0
 37 36  1  0  0  0  0
 37 38  1  0  0  0  0
 38 39  1  0  0  0  0
 40 39  2  0  0  0  0
 41 42  1  0  0  0  0
 42 43  1  1  0  0  0
 42 44  1  0  0  0  0
 45 46  1  0  0  0  0
 45 44  1  0  0  0  0
 47 48  1  0  0  0  0
 47 51  1  0  0  0  0
 48 52  1  6  0  0  0
 48 50  1  0  0  0  0
 50 54  2  0  0  0  0
 51 53  1  0  0  0  0
 53 49  1  0  0  0  0
 53 46  1  1  0  0  0
 54 49  1  0  0  0  0
M  END
>  <MODEL>
8

>  <REMARK>
 VINA RESULT:      -6.1      3.036      7.754
  Name = 
  21 active torsions:
  status: ('A' for Active; 'I' for Inactive)
    1  A    between atoms: C_2  and  N_42
    2  A    between atoms: C_2  and  C_44
    3  A    between atoms: C_3  and  C_8
    4  A    between atoms: C_6  and  O_34
    5  A    between atoms: C_6  and  C_52
    6  A    between atoms: C_7  and  C_28
    7  A    between atoms: C_7  and  N_30
    8  A    between atoms: C_10  and  C_27
    9  A    between atoms: C_10  and  C_52
   10  A    between atoms: C_11  and  C_38
   11  A    between atoms: C_11  and  C_46
   12  A    between atoms: C_13  and  C_28
   13  A    between atoms: C_13  and  C_46
   14  A    between atoms: C_14  and  C_45
   15  A    between atoms: O_17  and  C_35
   16  A    between atoms: O_17  and  C_46
   17  A    between atoms: C_27  and  C_33
   18  A    between atoms: C_32  and  O_36
   19  A    between atoms: O_34  and  C_50
   20  A    between atoms: O_36  and  C_38
   21  A    between atoms: C_37  and  C_45
                            x       y       z     vdW  Elec       q    Type
                         _______ _______ _______ _____ _____    ______ ____

>  <TORSDO>
F 21

$$$$
=
 OpenBabel11042417423D

 54 60  0  0  1  0  0  0  0  0999 V2000
  192.7440  169.5290  138.9600 C   0  0  2  0  0  0  0  0  0  0  0  0
  193.1140  170.6100  139.9460 C   0  0  1  0  0  0  0  0  0  0  0  0
  194.3860  171.0810  140.1900 O   0  0  0  0  0  0  0  0  0  0  0  0
  193.8120  168.8190  138.4040 O   0  0  0  0  0  1  0  0  0  0  0  0
  192.6740  170.9760  138.5320 C   0  0  0  0  0  2  0  0  0  0  0  0
  191.9630  170.7380  142.0950 O   0  0  0  0  0  1  0  0  0  0  0  0
  193.8820  171.8410  141.2870 C   0  0  2  0  0  0  0  0  0  0  0  0
  192.7490  172.8880  141.0690 C   0  0  1  0  0  0  0  0  0  0  0  0
  194.2120  173.2720  140.9270 C   0  0  1  0  0  3  0  0  0  0  0  0
  192.4250  171.4180  140.9660 C   0  0  1  0  0  0  0  0  0  0  0  0
  191.4260  168.8400  139.1070 C   0  0  0  0  0  3  0  0  0  0  0  0
  189.3260  169.8840  138.1160 O   0  0  0  0  0  0  0  0  0  0  0  0
  190.3440  169.3700  138.6020 C   0  0  0  0  0  0  0  0  0  0  0  0
  192.2260  173.3760  142.3080 O   0  0  0  0  0  0  0  0  0  0  0  0
  191.4630  175.5160  141.9850 O   0  0  0  0  0  0  0  0  0  0  0  0
  191.2160  174.3410  142.3740 C   0  0  0  0  0  0  0  0  0  0  0  0
  189.8540  174.0170  142.9140 C   0  0  0  0  0  2  0  0  0  0  0  0
  188.7610  174.2480  141.8630 C   0  0  2  0  0  3  0  0  0  0  0  0
  187.7460  175.0410  142.4200 O   0  0  0  0  0  0  0  0  0  0  0  0
  188.3300  176.3020  142.6310 C   0  0  1  0  0  3  0  0  0  0  0  0
  187.4010  177.3240  142.8440 C   0  0  2  0  0  3  0  0  0  0  0  0
  188.0790  176.7260  144.0440 N   0  0  0  0  0  0  0  0  0  0  0  0
  188.3060  176.6230  145.4510 C   0  0  0  0  0  0  0  0  0  0  0  0
  187.0340  176.8480  146.4750 S   0  0  0  0  0  0  0  0  0  0  0  0
  193.2840  176.9490  145.0200 C   0  0  0  0  0  1  0  0  0  0  0  0
  192.2430  175.6790  146.9000 C   0  0  0  0  0  3  0  0  0  0  0  0
  191.1180  175.2140  147.5870 C   0  0  0  0  0  3  0  0  0  0  0  0
  189.8330  175.5260  147.1220 C   0  0  0  0  0  3  0  0  0  0  0  0
  189.6590  176.3000  145.9630 C   0  0  0  0  0  0  0  0  0  0  0  0
  192.0840  176.4530  145.7490 C   0  0  0  0  0  0  0  0  0  0  0  0
  190.8010  176.7590  145.2810 C   0  0  0  0  0  3  0  0  0  0  0  0
  185.9240  176.9090  142.8490 C   0  0  0  0  0  2  0  0  0  0  0  0
  183.8450  178.1070  142.1210 C   0  0  0  0  0  1  0  0  0  0  0  0
  185.0230  178.1200  143.0820 C   0  0  0  0  0  2  0  0  0  0  0  0
  188.1760  172.9210  141.3540 C   0  0  0  0  0  2  0  0  0  0  0  0
  188.3650  172.7540  139.8480 C   0  0  0  0  0  2  0  0  0  0  0  0
  189.0110  174.0010  139.2550 C   0  0  0  0  0  2  0  0  0  0  0  0
  190.1380  173.6180  138.4090 N   0  0  0  0  0  2  0  0  0  0  0  0
  190.1020  173.7110  136.9800 C   0  0  0  0  0  3  0  0  0  0  0  0
  189.0510  174.1480  136.3640 N   0  0  0  0  0  2  0  0  0  0  0  0
  194.7990  174.0000  142.1330 C   0  0  0  0  0  2  0  0  0  0  0  0
  195.4210  175.3300  141.7240 C   0  0  1  0  0  3  0  0  0  0  0  0
  194.4350  176.1840  141.2600 F   0  0  0  0  0  0  0  0  0  0  0  0
  196.1870  175.9850  142.8740 C   0  0  0  0  0  2  0  0  0  0  0  0
  196.9860  174.9770  143.6910 C   0  0  0  0  0  2  0  0  0  0  0  0
  196.4550  174.8670  144.9790 O   0  0  0  0  0  0  0  0  0  0  0  0
  193.8220  172.2700  145.5270 C   0  0  0  0  0  2  0  0  0  0  0  0
  194.5980  171.1260  144.8720 C   0  0  1  0  0  3  0  0  0  0  0  0
  196.9880  172.7280  145.8240 C   0  0  0  0  0  2  0  0  0  0  0  0
  195.6720  170.6610  145.7410 N   0  0  0  0  0  0  0  0  0  0  0  0
  194.6460  173.5370  145.7840 C   0  0  0  0  0  2  0  0  0  0  0  0
  193.6510  169.9760  144.5920 C   0  0  0  0  0  1  0  0  0  0  0  0
  195.9930  173.5530  145.0650 C   0  0  1  0  0  3  0  0  0  0  0  0
  196.8240  171.4330  146.1170 C   0  0  0  0  0  3  0  0  0  0  0  0
  1  4  1  6  0  0  0
  1 11  1  0  0  0  0
  1  2  1  0  0  0  0
  2  5  1  6  0  0  0
  2  3  1  0  0  0  0
  2 10  1  0  0  0  0
  5  1  1  0  0  0  0
  7  3  1  6  0  0  0
  8  7  1  0  0  0  0
  8 14  1  1  0  0  0
  9  8  1  0  0  0  0
  9  7  1  0  0  0  0
  9 41  1  1  0  0  0
 10  8  1  0  0  0  0
 10  7  1  0  0  0  0
 10  6  1  1  0  0  0
 12 13  2  0  0  0  0
 13 11  2  0  0  0  0
 14 16  1  0  0  0  0
 15 16  2  0  0  0  0
 16 17  1  0  0  0  0
 18 35  1  1  0  0  0
 18 19  1  0  0  0  0
 18 17  1  0  0  0  0
 20 19  1  1  0  0  0
 20 21  1  0  0  0  0
 20 22  1  0  0  0  0
 21 32  1  1  0  0  0
 21 22  1  0  0  0  0
 22 23  1  0  0  0  0
 23 29  1  0  0  0  0
 23 24  2  0  0  0  0
 25 30  1  0  0  0  0
 26 27  1  0  0  0  0
 28 27  2  0  0  0  0
 29 28  1  0  0  0  0
 30 26  2  0  0  0  0
 31 30  1  0  0  0  0
 31 29  2  0  0  0  0
 32 34  1  0  0  0  0
 33 34  1  0  0  0  0
 36 35  1  0  0  0  0
 37 36  1  0  0  0  0
 38 37  1  0  0  0  0
 39 38  1  0  0  0  0
 40 39  2  0  0  0  0
 42 43  1  1  0  0  0
 42 41  1  0  0  0  0
 42 44  1  0  0  0  0
 44 45  1  0  0  0  0
 45 46  1  0  0  0  0
 47 51  1  0  0  0  0
 48 52  1  1  0  0  0
 48 47  1  0  0  0  0
 48 50  1  0  0  0  0
 49 54  1  0  0  0  0
 50 54  2  0  0  0  0
 53 46  1  1  0  0  0
 53 51  1  0  0  0  0
 53 49  1  0  0  0  0
M  END
>  <MODEL>
9

>  <REMARK>
 VINA RESULT:      -6.0      3.079      7.538
  Name = 
  21 active torsions:
  status: ('A' for Active; 'I' for Inactive)
    1  A    between atoms: C_2  and  N_42
    2  A    between atoms: C_2  and  C_44
    3  A    between atoms: C_3  and  C_8
    4  A    between atoms: C_6  and  O_34
    5  A    between atoms: C_6  and  C_52
    6  A    between atoms: C_7  and  C_28
    7  A    between atoms: C_7  and  N_30
    8  A    between atoms: C_10  and  C_27
    9  A    between atoms: C_10  and  C_52
   10  A    between atoms: C_11  and  C_38
   11  A    between atoms: C_11  and  C_46
   12  A    between atoms: C_13  and  C_28
   13  A    between atoms: C_13  and  C_46
   14  A    between atoms: C_14  and  C_45
   15  A    between atoms: O_17  and  C_35
   16  A    between atoms: O_17  and  C_46
   17  A    between atoms: C_27  and  C_33
   18  A    between atoms: C_32  and  O_36
   19  A    between atoms: O_34  and  C_50
   20  A    between atoms: O_36  and  C_38
   21  A    between atoms: C_37  and  C_45
                            x       y       z     vdW  Elec       q    Type
                         _______ _______ _______ _____ _____    ______ ____

>  <TORSDO>
F 21

$$$$
