=
 OpenBabel11042416593D

 38 41  0  0  1  0  0  0  0  0999 V2000
  186.6160  178.3620  144.9850 C   0  0  0  0  0  0  0  0  0  0  0  0
  185.9960  178.5640  146.1560 C   0  0  0  0  0  3  0  0  0  0  0  0
  188.1210  175.4620  141.0230 C   0  0  0  0  0  3  0  0  0  0  0  0
  188.0230  176.5580  146.0850 C   0  0  0  0  0  0  0  0  0  0  0  0
  188.6240  175.5350  143.3860 C   0  0  0  0  0  3  0  0  0  0  0  0
  187.3740  176.6350  141.1490 C   0  0  0  0  0  3  0  0  0  0  0  0
  187.8230  177.4410  144.8650 C   0  0  1  0  0  3  0  0  0  0  0  0
  186.1040  178.9980  143.7630 C   0  0  0  0  0  0  0  0  0  0  0  0
  187.2390  177.2580  142.3930 C   0  0  0  0  0  0  0  0  0  0  0  0
  186.4490  178.4450  142.4940 N   0  0  0  0  0  2  0  0  0  0  0  0
  187.8570  176.7010  143.5360 C   0  0  0  0  0  0  0  0  0  0  0  0
  186.4640  177.9060  147.4190 C   0  0  0  0  0  2  0  0  0  0  0  0
  188.7420  174.9030  142.1420 C   0  0  0  0  0  0  0  0  0  0  0  0
  189.1540  175.9580  146.2550 N   0  0  0  0  0  0  0  0  0  0  0  0
  185.3390  179.9990  143.8230 O   0  0  0  0  0  0  0  0  0  0  0  0
  186.9310  176.4880  147.1200 C   0  0  0  0  0  2  0  0  0  0  0  0
  189.4470  175.1130  147.3880 C   0  0  0  0  0  2  0  0  0  0  0  0
  190.8790  175.3370  147.8460 C   0  0  0  0  0  2  0  0  0  0  0  0
  191.5560  176.3710  146.9620 C   0  0  0  0  0  2  0  0  0  0  0  0
  192.8980  174.5880  146.5200 O   0  0  0  0  0  1  0  0  0  0  0  0
  192.9120  175.9400  146.6250 N   0  0  0  0  0  0  0  0  0  0  0  0
  192.1660  177.0890  144.5320 C   0  0  0  0  0  1  0  0  0  0  0  0
  193.3240  176.4910  145.3280 C   0  0  1  0  0  3  0  0  0  0  0  0
  194.3300  177.4430  145.5020 O   0  0  0  0  0  1  0  0  0  0  0  0
  189.5580  173.6580  141.9870 C   0  0  1  0  0  3  0  0  0  0  0  0
  191.9150  174.5100  141.7140 N   0  0  0  0  0  2  0  0  0  0  0  0
  190.7610  173.5580  139.9210 O   0  0  0  0  0  0  0  0  0  0  0  0
  190.7610  173.9060  141.1330 C   0  0  0  0  0  0  0  0  0  0  0  0
  193.1220  174.7630  140.9420 C   0  0  0  0  0  2  0  0  0  0  0  0
  194.1410  175.4950  141.7950 C   0  0  2  0  0  3  0  0  0  0  0  0
  195.0800  176.2950  140.9340 C   0  0  0  0  0  3  0  0  0  0  0  0
  196.4860  176.5210  142.9240 C   0  0  0  0  0  2  0  0  0  0  0  0
  196.1990  176.7870  141.4750 C   0  0  0  0  0  3  0  0  0  0  0  0
  194.9160  174.4900  142.6610 C   0  0  0  0  0  2  0  0  0  0  0  0
  196.2290  175.0440  143.2520 C   0  0  0  0  0  2  0  0  0  0  0  0
  189.9400  173.1540  143.2370 O   0  0  0  0  0  0  0  0  0  0  0  0
  191.2350  171.5900  143.9440 C   0  0  0  0  0  1  0  0  0  0  0  0
  190.2330  171.8880  143.0190 O   0  0  0  0  0  0  0  0  0  0  0  0
  1  2  2  0  0  0  0
  2 12  1  0  0  0  0
  3  6  2  0  0  0  0
  3 13  1  0  0  0  0
  4 14  2  0  0  0  0
  4 16  1  0  0  0  0
  5 11  1  0  0  0  0
  6  9  1  0  0  0  0
  7 11  1  6  0  0  0
  7  1  1  0  0  0  0
  7  4  1  0  0  0  0
  8 15  2  0  0  0  0
  8  1  1  0  0  0  0
  9 10  1  0  0  0  0
  9 11  2  0  0  0  0
 10  8  1  0  0  0  0
 13  5  2  0  0  0  0
 14 17  1  0  0  0  0
 16 12  1  0  0  0  0
 17 18  1  0  0  0  0
 19 18  1  0  0  0  0
 20 21  1  0  0  0  0
 21 19  1  0  0  0  0
 23 22  1  1  0  0  0
 23 24  1  0  0  0  0
 23 21  1  0  0  0  0
 25 28  1  6  0  0  0
 25 13  1  0  0  0  0
 25 36  1  0  0  0  0
 27 28  2  0  0  0  0
 28 26  1  0  0  0  0
 29 26  1  0  0  0  0
 30 29  1  6  0  0  0
 30 34  1  0  0  0  0
 31 33  2  0  0  0  0
 31 30  1  0  0  0  0
 32 35  1  0  0  0  0
 33 32  1  0  0  0  0
 34 35  1  0  0  0  0
 38 36  1  0  0  0  0
 38 37  1  0  0  0  0
M  END
>  <MODEL>
1

>  <REMARK>
 VINA RESULT:      -7.4      0.000      0.000
  Name = 
  11 active torsions:
  status: ('A' for Active; 'I' for Inactive)
    1  A    between atoms: C_1  and  C_38
    2  A    between atoms: C_5  and  C_16
    3  A    between atoms: C_5  and  N_33
    4  A    between atoms: C_8  and  C_16
    5  A    between atoms: C_8  and  N_31
    6  A    between atoms: N_12  and  C_38
    7  A    between atoms: C_20  and  C_32
    8  A    between atoms: C_22  and  N_33
    9  A    between atoms: O_25  and  O_28
   10  A    between atoms: O_25  and  C_32
   11  A    between atoms: C_30  and  C_32
                            x       y       z     vdW  Elec       q    Type
                         _______ _______ _______ _____ _____    ______ ____

>  <TORSDO>
F 11

$$$$
=
 OpenBabel11042416593D

 38 41  0  0  1  0  0  0  0  0999 V2000
  186.5620  178.4250  145.0130 C   0  0  0  0  0  0  0  0  0  0  0  0
  186.0530  178.5080  146.2510 C   0  0  0  0  0  3  0  0  0  0  0  0
  187.7730  175.9140  140.7010 C   0  0  0  0  0  3  0  0  0  0  0  0
  188.1320  176.6020  145.8220 C   0  0  0  0  0  0  0  0  0  0  0  0
  188.5020  175.8220  143.0040 C   0  0  0  0  0  3  0  0  0  0  0  0
  187.0010  177.0410  140.9930 C   0  0  0  0  0  3  0  0  0  0  0  0
  187.7830  177.5690  144.7030 C   0  0  1  0  0  3  0  0  0  0  0  0
  185.9110  179.1340  143.9030 C   0  0  0  0  0  0  0  0  0  0  0  0
  186.9660  177.5570  142.2910 C   0  0  0  0  0  0  0  0  0  0  0  0
  186.1490  178.6980  142.5650 N   0  0  0  0  0  2  0  0  0  0  0  0
  187.7130  176.9380  143.3210 C   0  0  0  0  0  0  0  0  0  0  0  0
  186.6650  177.7730  147.4050 C   0  0  0  0  0  2  0  0  0  0  0  0
  188.5190  175.2960  141.7060 C   0  0  0  0  0  0  0  0  0  0  0  0
  189.2940  176.0390  145.8340 N   0  0  0  0  0  0  0  0  0  0  0  0
  185.1210  180.0920  144.1170 O   0  0  0  0  0  0  0  0  0  0  0  0
  187.1500  176.4040  146.9470 C   0  0  0  0  0  2  0  0  0  0  0  0
  189.7260  175.1200  146.8610 C   0  0  0  0  0  2  0  0  0  0  0  0
  190.8470  175.7440  147.6770 C   0  0  0  0  0  2  0  0  0  0  0  0
  192.1940  175.4000  147.0650 C   0  0  0  0  0  2  0  0  0  0  0  0
  193.9290  176.8660  146.9270 O   0  0  0  0  0  1  0  0  0  0  0  0
  192.7390  176.5570  146.3540 N   0  0  0  0  0  0  0  0  0  0  0  0
  192.1270  177.0420  143.9780 C   0  0  0  0  0  1  0  0  0  0  0  0
  192.9860  176.2300  144.9450 C   0  0  1  0  0  3  0  0  0  0  0  0
  194.3370  176.3910  144.6370 O   0  0  0  0  0  1  0  0  0  0  0  0
  189.3600  174.1020  141.3710 C   0  0  1  0  0  3  0  0  0  0  0  0
  191.0620  173.5660  143.1510 N   0  0  0  0  0  2  0  0  0  0  0  0
  188.9420  172.5900  143.1770 O   0  0  0  0  0  0  0  0  0  0  0  0
  189.7600  173.3630  142.6080 C   0  0  0  0  0  0  0  0  0  0  0  0
  191.5060  172.8900  144.3600 C   0  0  0  0  0  2  0  0  0  0  0  0
  192.9420  172.4270  144.2000 C   0  0  2  0  0  3  0  0  0  0  0  0
  193.7160  172.6380  145.4730 C   0  0  0  0  0  3  0  0  0  0  0  0
  195.7330  172.2370  144.1480 C   0  0  0  0  0  2  0  0  0  0  0  0
  195.0480  172.5450  145.4480 C   0  0  0  0  0  3  0  0  0  0  0  0
  193.6030  173.1720  143.0300 C   0  0  0  0  0  2  0  0  0  0  0  0
  195.1450  173.0990  143.0230 C   0  0  0  0  0  2  0  0  0  0  0  0
  188.6840  173.2510  140.4870 O   0  0  0  0  0  0  0  0  0  0  0  0
  190.0830  173.4320  138.8630 C   0  0  0  0  0  1  0  0  0  0  0  0
  189.6340  172.5770  139.8710 O   0  0  0  0  0  0  0  0  0  0  0  0
  1  2  2  0  0  0  0
  2 12  1  0  0  0  0
  3  6  2  0  0  0  0
  3 13  1  0  0  0  0
  4 14  2  0  0  0  0
  4 16  1  0  0  0  0
  5 11  1  0  0  0  0
  6  9  1  0  0  0  0
  7 11  1  6  0  0  0
  7  1  1  0  0  0  0
  7  4  1  0  0  0  0
  8 15  2  0  0  0  0
  8  1  1  0  0  0  0
  9 10  1  0  0  0  0
  9 11  2  0  0  0  0
 10  8  1  0  0  0  0
 13  5  2  0  0  0  0
 14 17  1  0  0  0  0
 16 12  1  0  0  0  0
 17 18  1  0  0  0  0
 19 18  1  0  0  0  0
 21 20  1  0  0  0  0
 21 19  1  0  0  0  0
 23 22  1  6  0  0  0
 23 21  1  0  0  0  0
 24 23  1  0  0  0  0
 25 36  1  6  0  0  0
 25 13  1  0  0  0  0
 25 28  1  0  0  0  0
 26 29  1  0  0  0  0
 28 26  1  0  0  0  0
 28 27  2  0  0  0  0
 30 29  1  1  0  0  0
 30 31  1  0  0  0  0
 32 33  1  0  0  0  0
 33 31  2  0  0  0  0
 34 30  1  0  0  0  0
 35 34  1  0  0  0  0
 35 32  1  0  0  0  0
 37 38  1  0  0  0  0
 38 36  1  0  0  0  0
M  END
>  <MODEL>
2

>  <REMARK>
 VINA RESULT:      -7.3      1.577      2.413
  Name = 
  11 active torsions:
  status: ('A' for Active; 'I' for Inactive)
    1  A    between atoms: C_1  and  C_38
    2  A    between atoms: C_5  and  C_16
    3  A    between atoms: C_5  and  N_33
    4  A    between atoms: C_8  and  C_16
    5  A    between atoms: C_8  and  N_31
    6  A    between atoms: N_12  and  C_38
    7  A    between atoms: C_20  and  C_32
    8  A    between atoms: C_22  and  N_33
    9  A    between atoms: O_25  and  O_28
   10  A    between atoms: O_25  and  C_32
   11  A    between atoms: C_30  and  C_32
                            x       y       z     vdW  Elec       q    Type
                         _______ _______ _______ _____ _____    ______ ____

>  <TORSDO>
F 11

$$$$
=
 OpenBabel11042416593D

 38 41  0  0  1  0  0  0  0  0999 V2000
  186.3810  178.5960  145.0730 C   0  0  0  0  0  0  0  0  0  0  0  0
  185.8790  178.6280  146.3160 C   0  0  0  0  0  3  0  0  0  0  0  0
  187.5470  176.2660  140.6480 C   0  0  0  0  0  3  0  0  0  0  0  0
  187.9390  176.7250  145.7920 C   0  0  0  0  0  0  0  0  0  0  0  0
  188.2870  176.0670  142.9400 C   0  0  0  0  0  3  0  0  0  0  0  0
  186.7860  177.3850  140.9940 C   0  0  0  0  0  3  0  0  0  0  0  0
  187.5930  177.7430  144.7190 C   0  0  1  0  0  3  0  0  0  0  0  0
  185.7300  179.3580  143.9980 C   0  0  0  0  0  0  0  0  0  0  0  0
  186.7630  177.8440  142.3130 C   0  0  0  0  0  0  0  0  0  0  0  0
  185.9570  178.9790  142.6410 N   0  0  0  0  0  2  0  0  0  0  0  0
  187.5090  177.1740  143.3110 C   0  0  0  0  0  0  0  0  0  0  0  0
  186.4900  177.8380  147.4330 C   0  0  0  0  0  2  0  0  0  0  0  0
  188.2920  175.5980  141.6210 C   0  0  0  0  0  0  0  0  0  0  0  0
  189.0960  176.1530  145.7730 N   0  0  0  0  0  0  0  0  0  0  0  0
  184.9500  180.3130  144.2580 O   0  0  0  0  0  0  0  0  0  0  0  0
  186.9610  176.4870  146.9130 C   0  0  0  0  0  2  0  0  0  0  0  0
  189.5250  175.1860  146.7560 C   0  0  0  0  0  2  0  0  0  0  0  0
  191.0410  175.0770  146.7480 C   0  0  0  0  0  2  0  0  0  0  0  0
  191.6620  176.4220  146.4120 C   0  0  0  0  0  2  0  0  0  0  0  0
  192.8290  177.2210  144.6310 O   0  0  0  0  0  1  0  0  0  0  0  0
  192.8410  176.2400  145.5670 N   0  0  0  0  0  0  0  0  0  0  0  0
  195.0740  175.2540  146.1150 C   0  0  0  0  0  1  0  0  0  0  0  0
  194.0710  176.3800  146.3550 C   0  0  1  0  0  3  0  0  0  0  0  0
  194.6700  177.6170  146.1070 O   0  0  0  0  0  1  0  0  0  0  0  0
  189.1210  174.4130  141.2290 C   0  0  1  0  0  3  0  0  0  0  0  0
  190.1900  173.3030  143.2240 N   0  0  0  0  0  2  0  0  0  0  0  0
  188.1300  172.5760  142.4000 O   0  0  0  0  0  0  0  0  0  0  0  0
  189.1060  173.3690  142.3000 C   0  0  0  0  0  0  0  0  0  0  0  0
  190.2280  172.3230  144.2980 C   0  0  0  0  0  2  0  0  0  0  0  0
  191.5640  171.6040  144.2990 C   0  0  2  0  0  3  0  0  0  0  0  0
  192.6870  172.5670  144.5740 C   0  0  0  0  0  3  0  0  0  0  0  0
  194.2000  170.7950  143.8290 C   0  0  0  0  0  2  0  0  0  0  0  0
  193.9460  172.1790  144.3520 C   0  0  0  0  0  3  0  0  0  0  0  0
  191.7740  170.8900  142.9550 C   0  0  0  0  0  2  0  0  0  0  0  0
  193.2360  170.4770  142.6790 C   0  0  0  0  0  2  0  0  0  0  0  0
  188.6760  173.8760  140.0140 O   0  0  0  0  0  0  0  0  0  0  0  0
  189.2770  173.8230  137.9490 C   0  0  0  0  0  1  0  0  0  0  0  0
  189.7550  173.7980  139.2620 O   0  0  0  0  0  0  0  0  0  0  0  0
  1  2  2  0  0  0  0
  2 12  1  0  0  0  0
  3  6  2  0  0  0  0
  3 13  1  0  0  0  0
  4 16  1  0  0  0  0
  5 11  1  0  0  0  0
  6  9  1  0  0  0  0
  7 11  1  6  0  0  0
  7  1  1  0  0  0  0
  7  4  1  0  0  0  0
  8 15  2  0  0  0  0
  8  1  1  0  0  0  0
  9 10  1  0  0  0  0
  9 11  2  0  0  0  0
 10  8  1  0  0  0  0
 13  5  2  0  0  0  0
 14  4  2  0  0  0  0
 14 17  1  0  0  0  0
 16 12  1  0  0  0  0
 18 17  1  0  0  0  0
 19 18  1  0  0  0  0
 20 21  1  0  0  0  0
 21 23  1  0  0  0  0
 21 19  1  0  0  0  0
 23 22  1  6  0  0  0
 24 23  1  0  0  0  0
 25 36  1  6  0  0  0
 25 13  1  0  0  0  0
 25 28  1  0  0  0  0
 26 29  1  0  0  0  0
 28 27  2  0  0  0  0
 28 26  1  0  0  0  0
 30 29  1  6  0  0  0
 30 31  1  0  0  0  0
 32 33  1  0  0  0  0
 33 31  2  0  0  0  0
 34 30  1  0  0  0  0
 35 34  1  0  0  0  0
 35 32  1  0  0  0  0
 37 38  1  0  0  0  0
 38 36  1  0  0  0  0
M  END
>  <MODEL>
3

>  <REMARK>
 VINA RESULT:      -7.3      2.092      3.042
  Name = 
  11 active torsions:
  status: ('A' for Active; 'I' for Inactive)
    1  A    between atoms: C_1  and  C_38
    2  A    between atoms: C_5  and  C_16
    3  A    between atoms: C_5  and  N_33
    4  A    between atoms: C_8  and  C_16
    5  A    between atoms: C_8  and  N_31
    6  A    between atoms: N_12  and  C_38
    7  A    between atoms: C_20  and  C_32
    8  A    between atoms: C_22  and  N_33
    9  A    between atoms: O_25  and  O_28
   10  A    between atoms: O_25  and  C_32
   11  A    between atoms: C_30  and  C_32
                            x       y       z     vdW  Elec       q    Type
                         _______ _______ _______ _____ _____    ______ ____

>  <TORSDO>
F 11

$$$$
=
 OpenBabel11042416593D

 38 41  0  0  1  0  0  0  0  0999 V2000
  184.8910  177.9000  142.5900 C   0  0  0  0  0  0  0  0  0  0  0  0
  184.8490  178.2600  141.3000 C   0  0  0  0  0  3  0  0  0  0  0  0
  187.1120  177.6190  147.2120 C   0  0  0  0  0  3  0  0  0  0  0  0
  187.0430  176.6350  142.1270 C   0  0  0  0  0  0  0  0  0  0  0  0
  187.5760  176.6990  145.0250 C   0  0  0  0  0  3  0  0  0  0  0  0
  185.9020  178.1300  146.7370 C   0  0  0  0  0  3  0  0  0  0  0  0
  185.9160  176.9010  143.1110 C   0  0  1  0  0  3  0  0  0  0  0  0
  183.9640  178.5100  143.5540 C   0  0  0  0  0  0  0  0  0  0  0  0
  185.5270  177.9380  145.4050 C   0  0  0  0  0  0  0  0  0  0  0  0
  184.2930  178.4920  144.9420 N   0  0  0  0  0  2  0  0  0  0  0  0
  186.3750  177.2260  144.5250 C   0  0  0  0  0  0  0  0  0  0  0  0
  185.7990  177.6900  140.2910 C   0  0  0  0  0  2  0  0  0  0  0  0
  187.9570  176.9100  146.3560 C   0  0  0  0  0  0  0  0  0  0  0  0
  187.8040  175.6060  142.2970 N   0  0  0  0  0  0  0  0  0  0  0  0
  182.9060  179.0780  143.1690 O   0  0  0  0  0  0  0  0  0  0  0  0
  187.1770  177.5220  140.9170 C   0  0  0  0  0  2  0  0  0  0  0  0
  188.8880  175.2590  141.4090 C   0  0  0  0  0  2  0  0  0  0  0  0
  188.5330  174.0090  140.6210 C   0  0  0  0  0  2  0  0  0  0  0  0
  189.5220  172.8970  140.9270 C   0  0  0  0  0  2  0  0  0  0  0  0
  188.4290  172.0560  142.7360 O   0  0  0  0  0  1  0  0  0  0  0  0
  189.5870  172.6580  142.3680 N   0  0  0  0  0  0  0  0  0  0  0  0
  191.9830  172.0770  141.9430 C   0  0  0  0  0  1  0  0  0  0  0  0
  190.6940  171.7510  142.6940 C   0  0  1  0  0  3  0  0  0  0  0  0
  190.9290  171.7430  144.0690 O   0  0  0  0  0  1  0  0  0  0  0  0
  189.2400  176.3490  146.8860 C   0  0  1  0  0  3  0  0  0  0  0  0
  190.8300  176.1800  144.9370 N   0  0  0  0  0  2  0  0  0  0  0  0
  189.7690  174.2860  145.7950 O   0  0  0  0  0  0  0  0  0  0  0  0
  189.9410  175.5340  145.8460 C   0  0  0  0  0  0  0  0  0  0  0  0
  191.5550  175.4420  143.9140 C   0  0  0  0  0  2  0  0  0  0  0  0
  193.0160  175.3150  144.3020 C   0  0  2  0  0  3  0  0  0  0  0  0
  193.2980  173.9550  144.8800 C   0  0  0  0  0  3  0  0  0  0  0  0
  195.4290  174.8790  145.6480 C   0  0  0  0  0  2  0  0  0  0  0  0
  194.4510  173.7470  145.5220 C   0  0  0  0  0  3  0  0  0  0  0  0
  193.3890  176.4210  145.3000 C   0  0  0  0  0  2  0  0  0  0  0  0
  194.7020  176.1620  146.0710 C   0  0  0  0  0  2  0  0  0  0  0  0
  190.0750  177.3730  147.3520 O   0  0  0  0  0  0  0  0  0  0  0  0
  191.3700  177.6360  149.0490 C   0  0  0  0  0  1  0  0  0  0  0  0
  191.0300  176.7570  148.0190 O   0  0  0  0  0  0  0  0  0  0  0  0
  1  7  1  0  0  0  0
  1  8  1  0  0  0  0
  2  1  2  0  0  0  0
  4 14  2  0  0  0  0
  5 13  1  0  0  0  0
  6  3  1  0  0  0  0
  7  4  1  6  0  0  0
  7 11  1  0  0  0  0
  8 10  1  0  0  0  0
  9  6  2  0  0  0  0
 10  9  1  0  0  0  0
 11  5  2  0  0  0  0
 11  9  1  0  0  0  0
 12 16  1  0  0  0  0
 12  2  1  0  0  0  0
 13 25  1  0  0  0  0
 13  3  2  0  0  0  0
 15  8  2  0  0  0  0
 16  4  1  0  0  0  0
 17 14  1  0  0  0  0
 18 19  1  0  0  0  0
 18 17  1  0  0  0  0
 19 21  1  0  0  0  0
 21 23  1  0  0  0  0
 21 20  1  0  0  0  0
 23 22  1  6  0  0  0
 23 24  1  0  0  0  0
 25 28  1  6  0  0  0
 25 36  1  0  0  0  0
 26 28  1  0  0  0  0
 27 28  2  0  0  0  0
 29 26  1  0  0  0  0
 30 29  1  1  0  0  0
 30 31  1  0  0  0  0
 30 34  1  0  0  0  0
 31 33  2  0  0  0  0
 32 35  1  0  0  0  0
 33 32  1  0  0  0  0
 34 35  1  0  0  0  0
 36 38  1  0  0  0  0
 38 37  1  0  0  0  0
M  END
>  <MODEL>
4

>  <REMARK>
 VINA RESULT:      -7.3      2.313      5.173
  Name = 
  11 active torsions:
  status: ('A' for Active; 'I' for Inactive)
    1  A    between atoms: C_1  and  C_38
    2  A    between atoms: C_5  and  C_16
    3  A    between atoms: C_5  and  N_33
    4  A    between atoms: C_8  and  C_16
    5  A    between atoms: C_8  and  N_31
    6  A    between atoms: N_12  and  C_38
    7  A    between atoms: C_20  and  C_32
    8  A    between atoms: C_22  and  N_33
    9  A    between atoms: O_25  and  O_28
   10  A    between atoms: O_25  and  C_32
   11  A    between atoms: C_30  and  C_32
                            x       y       z     vdW  Elec       q    Type
                         _______ _______ _______ _____ _____    ______ ____

>  <TORSDO>
F 11

$$$$
=
 OpenBabel11042416593D

 38 41  0  0  1  0  0  0  0  0999 V2000
  186.2350  178.0250  145.6360 C   0  0  0  0  0  0  0  0  0  0  0  0
  185.6930  179.2480  145.5520 C   0  0  0  0  0  3  0  0  0  0  0  0
  189.8630  174.5280  144.6430 C   0  0  0  0  0  3  0  0  0  0  0  0
  186.2420  177.8960  143.1010 C   0  0  0  0  0  0  0  0  0  0  0  0
  188.2370  175.7380  143.3250 C   0  0  0  0  0  3  0  0  0  0  0  0
  189.3030  175.0540  145.8100 C   0  0  0  0  0  3  0  0  0  0  0  0
  186.4170  177.1420  144.4080 C   0  0  1  0  0  3  0  0  0  0  0  0
  186.7180  177.5220  146.9300 C   0  0  0  0  0  0  0  0  0  0  0  0
  188.2170  175.9290  145.7410 C   0  0  0  0  0  0  0  0  0  0  0  0
  187.6800  176.4680  146.9520 N   0  0  0  0  0  2  0  0  0  0  0  0
  187.6780  176.2940  144.4850 C   0  0  0  0  0  0  0  0  0  0  0  0
  185.2210  179.8130  144.2470 C   0  0  0  0  0  2  0  0  0  0  0  0
  189.3380  174.8750  143.3970 C   0  0  0  0  0  0  0  0  0  0  0  0
  186.0670  177.2350  142.0060 N   0  0  0  0  0  0  0  0  0  0  0  0
  186.3240  178.0320  148.0140 O   0  0  0  0  0  0  0  0  0  0  0  0
  186.1720  179.4000  143.1320 C   0  0  0  0  0  2  0  0  0  0  0  0
  185.8760  177.8580  140.7180 C   0  0  0  0  0  2  0  0  0  0  0  0
  184.4880  177.5360  140.1870 C   0  0  0  0  0  2  0  0  0  0  0  0
  183.5240  178.6620  140.5220 C   0  0  0  0  0  2  0  0  0  0  0  0
  182.7620  178.2960  142.6330 O   0  0  0  0  0  1  0  0  0  0  0  0
  182.4150  178.1580  141.3300 N   0  0  0  0  0  0  0  0  0  0  0  0
  180.1400  178.2060  140.2900 C   0  0  0  0  0  1  0  0  0  0  0  0
  181.2020  178.9500  141.0970 C   0  0  1  0  0  3  0  0  0  0  0  0
  180.6650  179.3850  142.3100 O   0  0  0  0  0  1  0  0  0  0  0  0
  189.9350  174.2860  142.1560 C   0  0  1  0  0  3  0  0  0  0  0  0
  191.8640  175.8670  142.5210 N   0  0  0  0  0  2  0  0  0  0  0  0
  192.1990  173.7490  141.5980 O   0  0  0  0  0  0  0  0  0  0  0  0
  191.3930  174.6030  142.0580 C   0  0  0  0  0  0  0  0  0  0  0  0
  193.2720  176.2290  142.4690 C   0  0  0  0  0  2  0  0  0  0  0  0
  193.8850  176.1340  143.8530 C   0  0  2  0  0  3  0  0  0  0  0  0
  194.1340  174.6980  144.2290 C   0  0  0  0  0  3  0  0  0  0  0  0
  194.4680  175.5020  146.5150 C   0  0  0  0  0  2  0  0  0  0  0  0
  194.4140  174.3970  145.5000 C   0  0  0  0  0  3  0  0  0  0  0  0
  192.9660  176.8150  144.8790 C   0  0  0  0  0  2  0  0  0  0  0  0
  193.2640  176.4360  146.3450 C   0  0  0  0  0  2  0  0  0  0  0  0
  189.7300  172.9010  142.1150 O   0  0  0  0  0  0  0  0  0  0  0  0
  188.7780  172.7140  140.1950 C   0  0  0  0  0  1  0  0  0  0  0  0
  188.5400  172.7480  141.5710 O   0  0  0  0  0  0  0  0  0  0  0  0
  1  8  1  0  0  0  0
  2  1  2  0  0  0  0
  3  6  1  0  0  0  0
  4 16  1  0  0  0  0
  5 13  1  0  0  0  0
  5 11  2  0  0  0  0
  7  4  1  6  0  0  0
  7 11  1  0  0  0  0
  7  1  1  0  0  0  0
  8 10  1  0  0  0  0
  8 15  2  0  0  0  0
  9  6  2  0  0  0  0
  9 10  1  0  0  0  0
 11  9  1  0  0  0  0
 12  2  1  0  0  0  0
 13  3  2  0  0  0  0
 14  4  2  0  0  0  0
 16 12  1  0  0  0  0
 17 14  1  0  0  0  0
 18 19  1  0  0  0  0
 18 17  1  0  0  0  0
 19 21  1  0  0  0  0
 21 20  1  0  0  0  0
 23 22  1  1  0  0  0
 23 21  1  0  0  0  0
 23 24  1  0  0  0  0
 25 28  1  1  0  0  0
 25 13  1  0  0  0  0
 27 28  2  0  0  0  0
 28 26  1  0  0  0  0
 29 26  1  0  0  0  0
 30 29  1  6  0  0  0
 30 31  1  0  0  0  0
 30 34  1  0  0  0  0
 31 33  2  0  0  0  0
 33 32  1  0  0  0  0
 34 35  1  0  0  0  0
 35 32  1  0  0  0  0
 36 25  1  0  0  0  0
 37 38  1  0  0  0  0
 38 36  1  0  0  0  0
M  END
>  <MODEL>
5

>  <REMARK>
 VINA RESULT:      -7.2      2.550      6.154
  Name = 
  11 active torsions:
  status: ('A' for Active; 'I' for Inactive)
    1  A    between atoms: C_1  and  C_38
    2  A    between atoms: C_5  and  C_16
    3  A    between atoms: C_5  and  N_33
    4  A    between atoms: C_8  and  C_16
    5  A    between atoms: C_8  and  N_31
    6  A    between atoms: N_12  and  C_38
    7  A    between atoms: C_20  and  C_32
    8  A    between atoms: C_22  and  N_33
    9  A    between atoms: O_25  and  O_28
   10  A    between atoms: O_25  and  C_32
   11  A    between atoms: C_30  and  C_32
                            x       y       z     vdW  Elec       q    Type
                         _______ _______ _______ _____ _____    ______ ____

>  <TORSDO>
F 11

$$$$
=
 OpenBabel11042416593D

 38 41  0  0  1  0  0  0  0  0999 V2000
  186.1110  178.2360  142.3600 C   0  0  0  0  0  0  0  0  0  0  0  0
  185.1980  178.8000  143.1640 C   0  0  0  0  0  3  0  0  0  0  0  0
  188.9140  174.2860  140.6520 C   0  0  0  0  0  3  0  0  0  0  0  0
  187.4200  177.5200  144.4140 C   0  0  0  0  0  0  0  0  0  0  0  0
  188.7990  175.5480  142.7110 C   0  0  0  0  0  3  0  0  0  0  0  0
  188.0130  175.1760  140.0610 C   0  0  0  0  0  3  0  0  0  0  0  0
  187.4180  177.6720  142.9020 C   0  0  1  0  0  3  0  0  0  0  0  0
  185.8400  178.1030  140.9220 C   0  0  0  0  0  0  0  0  0  0  0  0
  187.4950  176.2480  140.7920 C   0  0  0  0  0  0  0  0  0  0  0  0
  186.5580  177.1290  140.1660 N   0  0  0  0  0  2  0  0  0  0  0  0
  187.8760  176.4370  142.1410 C   0  0  0  0  0  0  0  0  0  0  0  0
  185.4180  178.9230  144.6410 C   0  0  0  0  0  2  0  0  0  0  0  0
  189.3030  174.4640  141.9810 C   0  0  0  0  0  0  0  0  0  0  0  0
  188.5400  177.3470  145.0320 N   0  0  0  0  0  0  0  0  0  0  0  0
  184.9620  178.8100  140.3570 O   0  0  0  0  0  0  0  0  0  0  0  0
  186.1230  177.6790  145.1640 C   0  0  0  0  0  2  0  0  0  0  0  0
  188.6480  177.2090  146.4650 C   0  0  0  0  0  2  0  0  0  0  0  0
  188.7700  175.7400  146.8360 C   0  0  0  0  0  2  0  0  0  0  0  0
  190.1790  175.4340  147.3140 C   0  0  0  0  0  2  0  0  0  0  0  0
  191.4490  176.9370  148.4550 O   0  0  0  0  0  1  0  0  0  0  0  0
  191.0210  176.6250  147.2060 N   0  0  0  0  0  0  0  0  0  0  0  0
  192.7290  174.9270  146.5290 C   0  0  0  0  0  1  0  0  0  0  0  0
  192.2010  176.3520  146.3770 C   0  0  1  0  0  3  0  0  0  0  0  0
  191.9270  176.6220  145.0360 O   0  0  0  0  0  1  0  0  0  0  0  0
  190.2860  173.5150  142.5940 C   0  0  1  0  0  3  0  0  0  0  0  0
  192.4830  174.6200  142.0410 N   0  0  0  0  0  2  0  0  0  0  0  0
  191.8880  172.5740  141.0870 O   0  0  0  0  0  0  0  0  0  0  0  0
  191.5830  173.5300  141.8510 C   0  0  0  0  0  0  0  0  0  0  0  0
  193.7670  174.6860  141.3610 C   0  0  0  0  0  2  0  0  0  0  0  0
  194.8920  174.7430  142.3770 C   0  0  2  0  0  3  0  0  0  0  0  0
  194.8300  173.5610  143.3070 C   0  0  0  0  0  3  0  0  0  0  0  0
  196.4220  174.7680  144.7190 C   0  0  0  0  0  2  0  0  0  0  0  0
  195.5630  173.5730  144.4240 C   0  0  0  0  0  3  0  0  0  0  0  0
  194.8190  176.0600  143.1640 C   0  0  0  0  0  2  0  0  0  0  0  0
  195.6330  176.0600  144.4760 C   0  0  0  0  0  2  0  0  0  0  0  0
  190.4920  173.8170  143.9460 O   0  0  0  0  0  0  0  0  0  0  0  0
  189.5990  172.1720  145.0070 C   0  0  0  0  0  1  0  0  0  0  0  0
  190.8060  172.6670  144.5080 O   0  0  0  0  0  0  0  0  0  0  0  0
  1  7  1  0  0  0  0
  1  2  2  0  0  0  0
  2 12  1  0  0  0  0
  3 13  1  0  0  0  0
  4 14  2  0  0  0  0
  4 16  1  0  0  0  0
  6  3  2  0  0  0  0
  6  9  1  0  0  0  0
  7 11  1  6  0  0  0
  7  4  1  0  0  0  0
  8  1  1  0  0  0  0
  9 11  2  0  0  0  0
 10  9  1  0  0  0  0
 10  8  1  0  0  0  0
 11  5  1  0  0  0  0
 12 16  1  0  0  0  0
 13 25  1  0  0  0  0
 13  5  2  0  0  0  0
 14 17  1  0  0  0  0
 15  8  2  0  0  0  0
 17 18  1  0  0  0  0
 18 19  1  0  0  0  0
 21 19  1  0  0  0  0
 21 20  1  0  0  0  0
 23 22  1  6  0  0  0
 23 21  1  0  0  0  0
 24 23  1  0  0  0  0
 25 28  1  6  0  0  0
 25 36  1  0  0  0  0
 27 28  2  0  0  0  0
 28 26  1  0  0  0  0
 29 26  1  0  0  0  0
 30 29  1  6  0  0  0
 30 34  1  0  0  0  0
 30 31  1  0  0  0  0
 31 33  2  0  0  0  0
 33 32  1  0  0  0  0
 34 35  1  0  0  0  0
 35 32  1  0  0  0  0
 36 38  1  0  0  0  0
 38 37  1  0  0  0  0
M  END
>  <MODEL>
6

>  <REMARK>
 VINA RESULT:      -7.0      1.633      2.273
  Name = 
  11 active torsions:
  status: ('A' for Active; 'I' for Inactive)
    1  A    between atoms: C_1  and  C_38
    2  A    between atoms: C_5  and  C_16
    3  A    between atoms: C_5  and  N_33
    4  A    between atoms: C_8  and  C_16
    5  A    between atoms: C_8  and  N_31
    6  A    between atoms: N_12  and  C_38
    7  A    between atoms: C_20  and  C_32
    8  A    between atoms: C_22  and  N_33
    9  A    between atoms: O_25  and  O_28
   10  A    between atoms: O_25  and  C_32
   11  A    between atoms: C_30  and  C_32
                            x       y       z     vdW  Elec       q    Type
                         _______ _______ _______ _____ _____    ______ ____

>  <TORSDO>
F 11

$$$$
=
 OpenBabel11042416593D

 38 41  0  0  1  0  0  0  0  0999 V2000
  186.2540  178.6940  145.2080 C   0  0  0  0  0  0  0  0  0  0  0  0
  185.6220  178.7810  146.3880 C   0  0  0  0  0  3  0  0  0  0  0  0
  187.8080  176.1940  141.0010 C   0  0  0  0  0  3  0  0  0  0  0  0
  187.6610  176.7990  146.1430 C   0  0  0  0  0  0  0  0  0  0  0  0
  188.2900  176.0430  143.3650 C   0  0  0  0  0  3  0  0  0  0  0  0
  187.0530  177.3460  141.2320 C   0  0  0  0  0  3  0  0  0  0  0  0
  187.4670  177.7940  145.0110 C   0  0  1  0  0  3  0  0  0  0  0  0
  185.7490  179.4430  144.0480 C   0  0  0  0  0  0  0  0  0  0  0  0
  186.9050  177.8460  142.5280 C   0  0  0  0  0  0  0  0  0  0  0  0
  186.1070  179.0150  142.7350 N   0  0  0  0  0  2  0  0  0  0  0  0
  187.5160  177.1850  143.6180 C   0  0  0  0  0  0  0  0  0  0  0  0
  186.0830  178.0070  147.5860 C   0  0  0  0  0  2  0  0  0  0  0  0
  188.4220  175.5330  142.0670 C   0  0  0  0  0  0  0  0  0  0  0  0
  188.7930  176.1910  146.2660 N   0  0  0  0  0  0  0  0  0  0  0  0
  184.9780  180.4290  144.1960 O   0  0  0  0  0  0  0  0  0  0  0  0
  186.5600  176.6260  147.1570 C   0  0  0  0  0  2  0  0  0  0  0  0
  189.0800  175.2420  147.3150 C   0  0  0  0  0  2  0  0  0  0  0  0
  190.5770  174.9900  147.3910 C   0  0  0  0  0  2  0  0  0  0  0  0
  191.1860  175.0270  145.9990 C   0  0  0  0  0  2  0  0  0  0  0  0
  193.2380  174.0500  145.9110 O   0  0  0  0  0  1  0  0  0  0  0  0
  192.6290  175.2500  146.0820 N   0  0  0  0  0  0  0  0  0  0  0  0
  191.9280  176.8160  144.2620 C   0  0  0  0  0  1  0  0  0  0  0  0
  193.0780  176.1430  145.0070 C   0  0  1  0  0  3  0  0  0  0  0  0
  193.9540  177.1060  145.5100 O   0  0  0  0  0  1  0  0  0  0  0  0
  189.2460  174.3120  141.8000 C   0  0  1  0  0  3  0  0  0  0  0  0
  189.1570  173.4430  139.4350 N   0  0  0  0  0  2  0  0  0  0  0  0
  187.6240  172.7240  141.0430 O   0  0  0  0  0  0  0  0  0  0  0  0
  188.6120  173.4530  140.7530 C   0  0  0  0  0  0  0  0  0  0  0  0
  188.5970  172.6170  138.3770 C   0  0  0  0  0  2  0  0  0  0  0  0
  189.6770  171.7390  137.7760 C   0  0  2  0  0  3  0  0  0  0  0  0
  189.5670  171.7080  136.2750 C   0  0  0  0  0  3  0  0  0  0  0  0
  191.1070  169.8090  136.3410 C   0  0  0  0  0  2  0  0  0  0  0  0
  190.2510  170.7880  135.5900 C   0  0  0  0  0  3  0  0  0  0  0  0
  189.5820  170.3210  138.3590 C   0  0  0  0  0  2  0  0  0  0  0  0
  190.3400  169.2500  137.5450 C   0  0  0  0  0  2  0  0  0  0  0  0
  190.5490  174.6640  141.4230 O   0  0  0  0  0  0  0  0  0  0  0  0
  192.5640  173.9400  141.6270 C   0  0  0  0  0  1  0  0  0  0  0  0
  191.3320  174.0370  142.2770 O   0  0  0  0  0  0  0  0  0  0  0  0
  1  2  2  0  0  0  0
  2 12  1  0  0  0  0
  3  6  2  0  0  0  0
  3 13  1  0  0  0  0
  4 14  2  0  0  0  0
  4 16  1  0  0  0  0
  5 11  1  0  0  0  0
  6  9  1  0  0  0  0
  7 11  1  6  0  0  0
  7  1  1  0  0  0  0
  7  4  1  0  0  0  0
  8 15  2  0  0  0  0
  8  1  1  0  0  0  0
  9 10  1  0  0  0  0
  9 11  2  0  0  0  0
 10  8  1  0  0  0  0
 13  5  2  0  0  0  0
 14 17  1  0  0  0  0
 16 12  1  0  0  0  0
 17 18  1  0  0  0  0
 19 21  1  0  0  0  0
 19 18  1  0  0  0  0
 20 21  1  0  0  0  0
 23 22  1  1  0  0  0
 23 24  1  0  0  0  0
 23 21  1  0  0  0  0
 25 28  1  6  0  0  0
 25 13  1  0  0  0  0
 26 28  1  0  0  0  0
 28 27  2  0  0  0  0
 29 26  1  0  0  0  0
 30 34  1  0  0  0  0
 30 29  1  1  0  0  0
 31 30  1  0  0  0  0
 32 35  1  0  0  0  0
 33 31  2  0  0  0  0
 33 32  1  0  0  0  0
 35 34  1  0  0  0  0
 36 25  1  0  0  0  0
 36 38  1  0  0  0  0
 37 38  1  0  0  0  0
M  END
>  <MODEL>
7

>  <REMARK>
 VINA RESULT:      -7.0      2.542      4.011
  Name = 
  11 active torsions:
  status: ('A' for Active; 'I' for Inactive)
    1  A    between atoms: C_1  and  C_38
    2  A    between atoms: C_5  and  C_16
    3  A    between atoms: C_5  and  N_33
    4  A    between atoms: C_8  and  C_16
    5  A    between atoms: C_8  and  N_31
    6  A    between atoms: N_12  and  C_38
    7  A    between atoms: C_20  and  C_32
    8  A    between atoms: C_22  and  N_33
    9  A    between atoms: O_25  and  O_28
   10  A    between atoms: O_25  and  C_32
   11  A    between atoms: C_30  and  C_32
                            x       y       z     vdW  Elec       q    Type
                         _______ _______ _______ _____ _____    ______ ____

>  <TORSDO>
F 11

$$$$
=
 OpenBabel11042416593D

 38 41  0  0  1  0  0  0  0  0999 V2000
  185.0060  177.8270  142.4470 C   0  0  0  0  0  0  0  0  0  0  0  0
  185.0200  178.2180  141.1640 C   0  0  0  0  0  3  0  0  0  0  0  0
  187.0230  177.4340  147.1530 C   0  0  0  0  0  3  0  0  0  0  0  0
  187.1730  176.5670  142.0480 C   0  0  0  0  0  0  0  0  0  0  0  0
  187.5790  176.5630  144.9670 C   0  0  0  0  0  3  0  0  0  0  0  0
  185.8360  177.9590  146.6380 C   0  0  0  0  0  3  0  0  0  0  0  0
  186.0050  176.8140  142.9890 C   0  0  1  0  0  3  0  0  0  0  0  0
  184.0390  178.4180  143.3830 C   0  0  0  0  0  0  0  0  0  0  0  0
  185.5190  177.7990  145.2860 C   0  0  0  0  0  0  0  0  0  0  0  0
  184.3070  178.3670  144.7840 N   0  0  0  0  0  2  0  0  0  0  0  0
  186.4030  177.1050  144.4270 C   0  0  0  0  0  0  0  0  0  0  0  0
  186.0120  177.6670  140.1850 C   0  0  0  0  0  2  0  0  0  0  0  0
  187.9030  176.7420  146.3180 C   0  0  0  0  0  0  0  0  0  0  0  0
  187.9230  175.5320  142.2270 N   0  0  0  0  0  0  0  0  0  0  0  0
  183.0000  178.9980  142.9660 O   0  0  0  0  0  0  0  0  0  0  0  0
  187.3610  177.4810  140.8650 C   0  0  0  0  0  2  0  0  0  0  0  0
  189.0450  175.2020  141.3800 C   0  0  0  0  0  2  0  0  0  0  0  0
  188.6130  174.2100  140.3120 C   0  0  0  0  0  2  0  0  0  0  0  0
  189.8060  173.3970  139.8390 C   0  0  0  0  0  2  0  0  0  0  0  0
  188.1340  172.0980  139.0070 O   0  0  0  0  0  1  0  0  0  0  0  0
  189.3920  172.0340  139.5080 N   0  0  0  0  0  0  0  0  0  0  0  0
  189.6950  170.1970  137.8370 C   0  0  0  0  0  1  0  0  0  0  0  0
  190.2630  171.4640  138.4740 C   0  0  1  0  0  3  0  0  0  0  0  0
  190.5360  172.4150  137.4890 O   0  0  0  0  0  1  0  0  0  0  0  0
  189.1610  176.1650  146.8900 C   0  0  1  0  0  3  0  0  0  0  0  0
  190.7750  176.0320  144.9580 N   0  0  0  0  0  2  0  0  0  0  0  0
  189.7710  174.1110  145.8260 O   0  0  0  0  0  0  0  0  0  0  0  0
  189.9000  175.3650  145.8660 C   0  0  0  0  0  0  0  0  0  0  0  0
  191.5350  175.3100  143.9500 C   0  0  0  0  0  2  0  0  0  0  0  0
  192.9930  175.2250  144.3600 C   0  0  2  0  0  3  0  0  0  0  0  0
  193.3170  173.8570  144.8980 C   0  0  0  0  0  3  0  0  0  0  0  0
  195.3980  174.8340  145.7360 C   0  0  0  0  0  2  0  0  0  0  0  0
  194.4670  173.6710  145.5530 C   0  0  0  0  0  3  0  0  0  0  0  0
  193.3060  176.3090  145.4030 C   0  0  0  0  0  2  0  0  0  0  0  0
  194.6140  176.0730  146.1890 C   0  0  0  0  0  2  0  0  0  0  0  0
  189.9800  177.1760  147.4080 O   0  0  0  0  0  0  0  0  0  0  0  0
  191.5550  177.5360  148.8290 C   0  0  0  0  0  1  0  0  0  0  0  0
  190.9190  176.5430  148.0810 O   0  0  0  0  0  0  0  0  0  0  0  0
  1  7  1  0  0  0  0
  1  8  1  0  0  0  0
  2  1  2  0  0  0  0
  4 14  2  0  0  0  0
  5 13  1  0  0  0  0
  6  3  1  0  0  0  0
  7  4  1  6  0  0  0
  7 11  1  0  0  0  0
  8 10  1  0  0  0  0
  9  6  2  0  0  0  0
 10  9  1  0  0  0  0
 11  5  2  0  0  0  0
 11  9  1  0  0  0  0
 12 16  1  0  0  0  0
 12  2  1  0  0  0  0
 13 25  1  0  0  0  0
 13  3  2  0  0  0  0
 15  8  2  0  0  0  0
 16  4  1  0  0  0  0
 17 14  1  0  0  0  0
 18 17  1  0  0  0  0
 19 18  1  0  0  0  0
 20 21  1  0  0  0  0
 21 19  1  0  0  0  0
 23 22  1  6  0  0  0
 23 21  1  0  0  0  0
 24 23  1  0  0  0  0
 25 28  1  6  0  0  0
 25 36  1  0  0  0  0
 26 28  1  0  0  0  0
 27 28  2  0  0  0  0
 29 26  1  0  0  0  0
 30 29  1  1  0  0  0
 30 31  1  0  0  0  0
 30 34  1  0  0  0  0
 31 33  2  0  0  0  0
 32 35  1  0  0  0  0
 33 32  1  0  0  0  0
 34 35  1  0  0  0  0
 36 38  1  0  0  0  0
 38 37  1  0  0  0  0
M  END
>  <MODEL>
8

>  <REMARK>
 VINA RESULT:      -6.9      2.473      5.799
  Name = 
  11 active torsions:
  status: ('A' for Active; 'I' for Inactive)
    1  A    between atoms: C_1  and  C_38
    2  A    between atoms: C_5  and  C_16
    3  A    between atoms: C_5  and  N_33
    4  A    between atoms: C_8  and  C_16
    5  A    between atoms: C_8  and  N_31
    6  A    between atoms: N_12  and  C_38
    7  A    between atoms: C_20  and  C_32
    8  A    between atoms: C_22  and  N_33
    9  A    between atoms: O_25  and  O_28
   10  A    between atoms: O_25  and  C_32
   11  A    between atoms: C_30  and  C_32
                            x       y       z     vdW  Elec       q    Type
                         _______ _______ _______ _____ _____    ______ ____

>  <TORSDO>
F 11

$$$$
=
 OpenBabel11042416593D

 38 41  0  0  1  0  0  0  0  0999 V2000
  195.8810  172.5550  145.4290 C   0  0  0  0  0  0  0  0  0  0  0  0
  196.5840  171.4620  145.7560 C   0  0  0  0  0  3  0  0  0  0  0  0
  191.8140  175.6730  145.7690 C   0  0  0  0  0  3  0  0  0  0  0  0
  193.9430  171.0600  144.7550 C   0  0  0  0  0  0  0  0  0  0  0  0
  192.1890  173.4190  144.9800 C   0  0  0  0  0  3  0  0  0  0  0  0
  193.1900  175.8350  145.9480 C   0  0  0  0  0  3  0  0  0  0  0  0
  194.5300  172.4620  144.7320 C   0  0  1  0  0  3  0  0  0  0  0  0
  196.3860  173.8880  145.7890 C   0  0  0  0  0  0  0  0  0  0  0  0
  194.0700  174.7910  145.6540 C   0  0  0  0  0  0  0  0  0  0  0  0
  195.4710  174.9800  145.8680 N   0  0  0  0  0  2  0  0  0  0  0  0
  193.5720  173.5560  145.1760 C   0  0  0  0  0  0  0  0  0  0  0  0
  196.0890  170.0830  145.4400 C   0  0  0  0  0  2  0  0  0  0  0  0
  191.3080  174.4620  145.2930 C   0  0  0  0  0  0  0  0  0  0  0  0
  192.9710  170.7670  143.9580 N   0  0  0  0  0  0  0  0  0  0  0  0
  197.6030  174.0700  146.0630 O   0  0  0  0  0  0  0  0  0  0  0  0
  194.5810  170.0180  145.6360 C   0  0  0  0  0  2  0  0  0  0  0  0
  192.3580  169.4610  143.8930 C   0  0  0  0  0  2  0  0  0  0  0  0
  192.0870  169.0870  142.4450 C   0  0  0  0  0  2  0  0  0  0  0  0
  190.8790  169.8480  141.9240 C   0  0  0  0  0  2  0  0  0  0  0  0
  190.4420  169.9090  139.6920 O   0  0  0  0  0  1  0  0  0  0  0  0
  191.1980  170.4960  140.6530 N   0  0  0  0  0  0  0  0  0  0  0  0
  191.9710  172.8020  141.2400 C   0  0  0  0  0  1  0  0  0  0  0  0
  190.8490  171.9210  140.6950 C   0  0  1  0  0  3  0  0  0  0  0  0
  190.4610  172.3660  139.4300 O   0  0  0  0  0  1  0  0  0  0  0  0
  189.8330  174.3100  145.0850 C   0  0  1  0  0  3  0  0  0  0  0  0
  188.2110  176.0660  145.8880 N   0  0  0  0  0  2  0  0  0  0  0  0
  189.1510  174.5250  147.3690 O   0  0  0  0  0  0  0  0  0  0  0  0
  189.0650  174.9640  146.1890 C   0  0  0  0  0  0  0  0  0  0  0  0
  187.4250  176.7340  146.9130 C   0  0  0  0  0  2  0  0  0  0  0  0
  186.6260  177.8680  146.2990 C   0  0  2  0  0  3  0  0  0  0  0  0
  185.1510  177.6550  146.5080 C   0  0  0  0  0  3  0  0  0  0  0  0
  184.8050  179.4150  144.8450 C   0  0  0  0  0  2  0  0  0  0  0  0
  184.2820  178.3960  145.8150 C   0  0  0  0  0  3  0  0  0  0  0  0
  186.9530  177.9870  144.8030 C   0  0  0  0  0  2  0  0  0  0  0  0
  185.9270  178.8090  143.9940 C   0  0  0  0  0  2  0  0  0  0  0  0
  189.4490  174.8340  143.8440 O   0  0  0  0  0  0  0  0  0  0  0  0
  188.2900  174.2890  142.1160 C   0  0  0  0  0  1  0  0  0  0  0  0
  189.1230  173.7850  143.1170 O   0  0  0  0  0  0  0  0  0  0  0  0
  1  2  2  0  0  0  0
  1  8  1  0  0  0  0
  3  6  1  0  0  0  0
  4 16  1  0  0  0  0
  5 11  2  0  0  0  0
  5 13  1  0  0  0  0
  7  4  1  1  0  0  0
  7 11  1  0  0  0  0
  7  1  1  0  0  0  0
  8 10  1  0  0  0  0
  8 15  2  0  0  0  0
  9 10  1  0  0  0  0
  9  6  2  0  0  0  0
 11  9  1  0  0  0  0
 12 16  1  0  0  0  0
 12  2  1  0  0  0  0
 13  3  2  0  0  0  0
 14  4  2  0  0  0  0
 17 14  1  0  0  0  0
 18 17  1  0  0  0  0
 19 18  1  0  0  0  0
 20 21  1  0  0  0  0
 21 23  1  0  0  0  0
 21 19  1  0  0  0  0
 23 22  1  6  0  0  0
 24 23  1  0  0  0  0
 25 36  1  6  0  0  0
 25 13  1  0  0  0  0
 25 28  1  0  0  0  0
 26 28  1  0  0  0  0
 26 29  1  0  0  0  0
 28 27  2  0  0  0  0
 30 31  1  0  0  0  0
 30 29  1  6  0  0  0
 32 33  1  0  0  0  0
 33 31  2  0  0  0  0
 34 30  1  0  0  0  0
 35 34  1  0  0  0  0
 35 32  1  0  0  0  0
 37 38  1  0  0  0  0
 38 36  1  0  0  0  0
M  END
>  <MODEL>
9

>  <REMARK>
 VINA RESULT:      -6.5      2.740      8.651
  Name = 
  11 active torsions:
  status: ('A' for Active; 'I' for Inactive)
    1  A    between atoms: C_1  and  C_38
    2  A    between atoms: C_5  and  C_16
    3  A    between atoms: C_5  and  N_33
    4  A    between atoms: C_8  and  C_16
    5  A    between atoms: C_8  and  N_31
    6  A    between atoms: N_12  and  C_38
    7  A    between atoms: C_20  and  C_32
    8  A    between atoms: C_22  and  N_33
    9  A    between atoms: O_25  and  O_28
   10  A    between atoms: O_25  and  C_32
   11  A    between atoms: C_30  and  C_32
                            x       y       z     vdW  Elec       q    Type
                         _______ _______ _______ _____ _____    ______ ____

>  <TORSDO>
F 11

$$$$
