=
 OpenBabel11042414463D

 36 40  0  0  1  0  0  0  0  0999 V2000
  189.7010  172.5720  141.1940 N   0  0  0  0  0  2  0  0  0  0  0  0
  190.6830  173.4590  140.6500 C   0  0  0  0  0  3  0  0  0  0  0  0
  191.4930  174.1070  141.4350 N   0  0  0  0  0  0  0  0  0  0  0  0
  191.5380  173.9020  142.8930 C   0  0  1  0  0  3  0  0  0  0  0  0
  188.6130  171.7910  143.1000 O   0  0  0  0  0  0  0  0  0  0  0  0
  189.4420  172.5930  142.5970 C   0  0  0  0  0  0  0  0  0  0  0  0
  190.1280  173.6140  143.4550 C   0  0  2  0  0  3  0  0  0  0  0  0
  192.3970  172.5640  144.6740 C   0  0  0  0  0  2  0  0  0  0  0  0
  193.8380  173.2730  142.9520 C   0  0  1  0  0  3  0  0  0  0  0  0
  194.7410  171.7490  144.8790 C   0  0  0  0  0  2  0  0  0  0  0  0
  193.7440  172.8080  145.3250 C   0  0  1  0  0  3  0  0  0  0  0  0
  192.4750  172.8190  143.2310 N   0  0  2  0  0  0  0  0  0  0  0  0
  194.6840  173.0990  144.1960 C   0  0  2  0  0  0  0  0  0  0  0  0
  194.4240  172.4790  141.7960 C   0  0  0  0  0  1  0  0  0  0  0  0
  195.7200  174.1390  144.5760 C   0  0  0  0  0  2  0  0  0  0  0  0
  195.1980  174.9890  145.6310 N   0  0  0  0  0  2  0  0  0  0  0  0
  195.0880  176.3270  145.0730 C   0  0  0  0  0  2  0  0  0  0  0  0
  193.9170  177.0770  145.7010 C   0  0  2  0  0  3  0  0  0  0  0  0
  194.0460  177.0560  147.0800 F   0  0  0  0  0  0  0  0  0  0  0  0
  192.5630  176.4990  145.2710 C   0  0  1  0  0  3  0  0  0  0  0  0
  191.8810  175.0820  147.2070 O   0  0  0  0  0  1  0  0  0  0  0  0
  191.6900  176.2360  146.4600 C   0  0  0  0  0  0  0  0  0  0  0  0
  190.7850  177.0500  146.7870 O   0  0  0  0  0  0  0  0  0  0  0  0
  191.8440  177.4180  144.3290 C   0  0  0  0  0  3  0  0  0  0  0  0
  192.0330  177.3400  143.0640 N   0  0  0  0  0  2  0  0  0  0  0  0
  188.1170  176.4250  144.2600 C   0  0  0  0  0  0  0  0  0  0  0  0
  189.1250  175.7160  142.5660 O   0  0  0  0  0  0  0  0  0  0  0  0
  188.3780  176.6970  142.9670 N   0  0  0  0  0  0  0  0  0  0  0  0
  189.3280  174.8790  143.5540 C   0  0  0  0  0  0  0  0  0  0  0  0
  188.6970  175.2790  144.6760 N   0  0  0  0  0  0  0  0  0  0  0  0
  187.3020  177.2890  145.1300 C   0  0  0  0  0  0  0  0  0  0  0  0
  187.2360  177.0430  146.5090 C   0  0  0  0  0  3  0  0  0  0  0  0
  186.5900  178.3680  144.5890 C   0  0  0  0  0  3  0  0  0  0  0  0
  186.4690  177.8700  147.3360 C   0  0  0  0  0  3  0  0  0  0  0  0
  185.7630  178.9440  146.7910 C   0  0  0  0  0  3  0  0  0  0  0  0
  185.8230  179.1930  145.4160 C   0  0  0  0  0  3  0  0  0  0  0  0
  1  6  1  0  0  0  0
  2  1  1  0  0  0  0
  2  3  2  0  0  0  0
  4  3  1  6  0  0  0
  4 12  1  0  0  0  0
  4  7  1  0  0  0  0
  6  5  2  0  0  0  0
  6  7  1  0  0  0  0
  7 29  1  6  0  0  0
  9 14  1  6  0  0  0
  9 12  1  0  0  0  0
  9 13  1  0  0  0  0
 10 11  1  0  0  0  0
 11  8  1  6  0  0  0
 12  8  1  1  0  0  0
 13 15  1  1  0  0  0
 13 10  1  0  0  0  0
 13 11  1  0  0  0  0
 15 16  1  0  0  0  0
 17 16  1  0  0  0  0
 17 18  1  0  0  0  0
 18 19  1  1  0  0  0
 20 24  1  6  0  0  0
 20 18  1  0  0  0  0
 20 22  1  0  0  0  0
 22 23  2  0  0  0  0
 22 21  1  0  0  0  0
 25 24  2  0  0  0  0
 26 30  1  0  0  0  0
 26 31  1  0  0  0  0
 27 28  1  0  0  0  0
 27 29  1  0  0  0  0
 28 26  2  0  0  0  0
 29 30  2  0  0  0  0
 31 32  1  0  0  0  0
 32 34  2  0  0  0  0
 33 31  2  0  0  0  0
 33 36  1  0  0  0  0
 35 34  1  0  0  0  0
 36 35  2  0  0  0  0
M  END
>  <MODEL>
1

>  <REMARK>
 VINA RESULT:      -6.6      0.000      0.000
  Name = 
  10 active torsions:
  status: ('A' for Active; 'I' for Inactive)
    1  A    between atoms: C_2  and  C_4
    2  A    between atoms: N_6  and  C_7
    3  A    between atoms: N_6  and  C_18
    4  A    between atoms: C_7  and  C_30
    5  A    between atoms: C_13  and  N_27
    6  A    between atoms: C_14  and  C_17
    7  A    between atoms: C_14  and  C_20
    8  A    between atoms: C_14  and  C_29
    9  A    between atoms: C_17  and  C_18
   10  A    between atoms: C_19  and  C_32
                            x       y       z     vdW  Elec       q    Type
                         _______ _______ _______ _____ _____    ______ ____

>  <TORSDO>
F 10

$$$$
=
 OpenBabel11042414463D

 36 40  0  0  1  0  0  0  0  0999 V2000
  189.7000  175.5840  147.3890 N   0  0  0  0  0  2  0  0  0  0  0  0
  189.6370  174.4530  146.5150 C   0  0  0  0  0  3  0  0  0  0  0  0
  189.8740  174.5870  145.2440 N   0  0  0  0  0  0  0  0  0  0  0  0
  190.3230  175.8520  144.6370 C   0  0  1  0  0  3  0  0  0  0  0  0
  189.8720  177.8990  147.5810 O   0  0  0  0  0  0  0  0  0  0  0  0
  189.7730  176.8950  146.8300 C   0  0  0  0  0  0  0  0  0  0  0  0
  189.6750  177.0650  145.3430 C   0  0  2  0  0  3  0  0  0  0  0  0
  192.2220  176.9160  143.6570 C   0  0  0  0  0  2  0  0  0  0  0  0
  192.3520  174.6490  144.2800 C   0  0  1  0  0  3  0  0  0  0  0  0
  194.4410  175.8560  143.2660 C   0  0  0  0  0  2  0  0  0  0  0  0
  193.1150  176.2480  142.6310 C   0  0  1  0  0  3  0  0  0  0  0  0
  191.7920  175.9450  144.6680 N   0  0  2  0  0  0  0  0  0  0  0  0
  193.3170  174.8500  143.1310 C   0  0  2  0  0  0  0  0  0  0  0  0
  193.0600  174.0140  145.4650 C   0  0  0  0  0  1  0  0  0  0  0  0
  193.3860  173.8480  141.9960 C   0  0  0  0  0  2  0  0  0  0  0  0
  192.1720  173.0500  141.9720 N   0  0  0  0  0  2  0  0  0  0  0  0
  191.6810  173.0810  140.6040 C   0  0  0  0  0  2  0  0  0  0  0  0
  190.3060  173.7400  140.5420 C   0  0  2  0  0  3  0  0  0  0  0  0
  190.2180  174.7120  141.5250 F   0  0  0  0  0  0  0  0  0  0  0  0
  189.1690  172.7180  140.6820 C   0  0  1  0  0  3  0  0  0  0  0  0
  187.4740  173.8600  142.1120 O   0  0  0  0  0  0  0  0  0  0  0  0
  188.4550  172.8860  141.9880 C   0  0  0  0  0  0  0  0  0  0  0  0
  188.7360  172.1530  142.9740 O   0  0  0  0  0  1  0  0  0  0  0  0
  188.1780  172.8380  139.5630 C   0  0  0  0  0  3  0  0  0  0  0  0
  188.4290  173.5670  138.5400 N   0  0  0  0  0  2  0  0  0  0  0  0
  186.5490  177.5690  143.7390 C   0  0  0  0  0  0  0  0  0  0  0  0
  187.2110  177.2230  145.6960 O   0  0  0  0  0  0  0  0  0  0  0  0
  186.1290  177.4210  145.0100 N   0  0  0  0  0  0  0  0  0  0  0  0
  188.2520  177.2380  144.8990 C   0  0  0  0  0  0  0  0  0  0  0  0
  187.8900  177.4630  143.6210 N   0  0  0  0  0  0  0  0  0  0  0  0
  185.6460  177.8040  142.6010 C   0  0  0  0  0  0  0  0  0  0  0  0
  186.1440  177.7990  141.2890 C   0  0  0  0  0  3  0  0  0  0  0  0
  184.2800  178.0290  142.8170 C   0  0  0  0  0  3  0  0  0  0  0  0
  185.2830  178.0130  140.2080 C   0  0  0  0  0  3  0  0  0  0  0  0
  183.9230  178.2350  140.4300 C   0  0  0  0  0  3  0  0  0  0  0  0
  183.4200  178.2440  141.7350 C   0  0  0  0  0  3  0  0  0  0  0  0
  2  1  1  0  0  0  0
  3  2  2  0  0  0  0
  4 12  1  0  0  0  0
  4  3  1  1  0  0  0
  4  7  1  0  0  0  0
  6  1  1  0  0  0  0
  6  5  2  0  0  0  0
  7 29  1  1  0  0  0
  7  6  1  0  0  0  0
  9 12  1  0  0  0  0
  9 14  1  1  0  0  0
 11 13  1  0  0  0  0
 11 10  1  1  0  0  0
 11  8  1  0  0  0  0
 12  8  1  6  0  0  0
 13 15  1  6  0  0  0
 13 10  1  0  0  0  0
 13  9  1  0  0  0  0
 16 15  1  0  0  0  0
 17 16  1  0  0  0  0
 18 17  1  0  0  0  0
 18 20  1  0  0  0  0
 18 19  1  1  0  0  0
 20 24  1  6  0  0  0
 20 22  1  0  0  0  0
 22 21  2  0  0  0  0
 22 23  1  0  0  0  0
 25 24  2  0  0  0  0
 26 28  2  0  0  0  0
 28 27  1  0  0  0  0
 29 27  1  0  0  0  0
 30 26  1  0  0  0  0
 30 29  2  0  0  0  0
 31 33  1  0  0  0  0
 31 26  1  0  0  0  0
 32 31  2  0  0  0  0
 34 35  2  0  0  0  0
 34 32  1  0  0  0  0
 35 36  1  0  0  0  0
 36 33  2  0  0  0  0
M  END
>  <MODEL>
2

>  <REMARK>
 VINA RESULT:      -6.4      2.660      5.259
  Name = 
  10 active torsions:
  status: ('A' for Active; 'I' for Inactive)
    1  A    between atoms: C_2  and  C_4
    2  A    between atoms: N_6  and  C_7
    3  A    between atoms: N_6  and  C_18
    4  A    between atoms: C_7  and  C_30
    5  A    between atoms: C_13  and  N_27
    6  A    between atoms: C_14  and  C_17
    7  A    between atoms: C_14  and  C_20
    8  A    between atoms: C_14  and  C_29
    9  A    between atoms: C_17  and  C_18
   10  A    between atoms: C_19  and  C_32
                            x       y       z     vdW  Elec       q    Type
                         _______ _______ _______ _____ _____    ______ ____

>  <TORSDO>
F 10

$$$$
=
 OpenBabel11042414463D

 36 40  0  0  1  0  0  0  0  0999 V2000
  191.5050  172.5650  140.0390 N   0  0  0  0  0  2  0  0  0  0  0  0
  192.2520  173.7800  139.9280 C   0  0  0  0  0  3  0  0  0  0  0  0
  192.4230  174.5460  140.9650 N   0  0  0  0  0  0  0  0  0  0  0  0
  191.9730  174.1810  142.3190 C   0  0  1  0  0  3  0  0  0  0  0  0
  190.1090  171.2410  141.3510 O   0  0  0  0  0  0  0  0  0  0  0  0
  190.7380  172.3220  141.2170 C   0  0  0  0  0  0  0  0  0  0  0  0
  190.6470  173.3890  142.2660 C   0  0  2  0  0  3  0  0  0  0  0  0
  192.4100  172.7370  144.1690 C   0  0  0  0  0  2  0  0  0  0  0  0
  194.0050  174.3570  143.5550 C   0  0  1  0  0  3  0  0  0  0  0  0
  194.4910  172.7180  145.5370 C   0  0  0  0  0  2  0  0  0  0  0  0
  193.0530  173.2060  145.4590 C   0  0  1  0  0  3  0  0  0  0  0  0
  193.0180  173.4180  143.0210 N   0  0  2  0  0  0  0  0  0  0  0  0
  194.1700  174.1120  145.0400 C   0  0  2  0  0  0  0  0  0  0  0  0
  195.3330  174.1800  142.8360 C   0  0  0  0  0  1  0  0  0  0  0  0
  194.3480  175.2720  145.9990 C   0  0  0  0  0  2  0  0  0  0  0  0
  193.3010  176.2540  145.7810 N   0  0  0  0  0  2  0  0  0  0  0  0
  192.8810  176.7140  147.0940 C   0  0  0  0  0  2  0  0  0  0  0  0
  191.5190  176.1280  147.4580 C   0  0  2  0  0  3  0  0  0  0  0  0
  191.6990  174.9030  148.0800 F   0  0  0  0  0  0  0  0  0  0  0  0
  190.6040  175.9890  146.2340 C   0  0  1  0  0  3  0  0  0  0  0  0
  188.3980  175.3700  147.2180 O   0  0  0  0  0  1  0  0  0  0  0  0
  189.5160  174.9920  146.4880 C   0  0  0  0  0  0  0  0  0  0  0  0
  189.6050  173.8150  146.0470 O   0  0  0  0  0  0  0  0  0  0  0  0
  189.9870  177.3020  145.8540 C   0  0  0  0  0  3  0  0  0  0  0  0
  190.1420  177.7830  144.6770 N   0  0  0  0  0  2  0  0  0  0  0  0
  187.8600  175.5860  142.2890 C   0  0  0  0  0  0  0  0  0  0  0  0
  189.0190  174.6210  140.8350 O   0  0  0  0  0  0  0  0  0  0  0  0
  188.0050  175.4200  140.9600 N   0  0  0  0  0  0  0  0  0  0  0  0
  189.4890  174.3110  142.0190 C   0  0  0  0  0  0  0  0  0  0  0  0
  188.7780  174.8990  143.0000 N   0  0  0  0  0  0  0  0  0  0  0  0
  186.8250  176.4370  142.8980 C   0  0  0  0  0  0  0  0  0  0  0  0
  186.7420  176.5610  144.2930 C   0  0  0  0  0  3  0  0  0  0  0  0
  185.9160  177.1340  142.0910 C   0  0  0  0  0  3  0  0  0  0  0  0
  185.7630  177.3770  144.8710 C   0  0  0  0  0  3  0  0  0  0  0  0
  184.8630  178.0700  144.0600 C   0  0  0  0  0  3  0  0  0  0  0  0
  184.9370  177.9480  142.6690 C   0  0  0  0  0  3  0  0  0  0  0  0
  1  6  1  0  0  0  0
  2  1  1  0  0  0  0
  2  3  2  0  0  0  0
  4  3  1  6  0  0  0
  4 12  1  0  0  0  0
  6  5  2  0  0  0  0
  6  7  1  0  0  0  0
  7 29  1  6  0  0  0
  7  4  1  0  0  0  0
  9 14  1  6  0  0  0
  9 13  1  0  0  0  0
 11  8  1  6  0  0  0
 11 10  1  0  0  0  0
 12  9  1  0  0  0  0
 12  8  1  1  0  0  0
 13 11  1  0  0  0  0
 13 10  1  0  0  0  0
 13 15  1  1  0  0  0
 16 15  1  0  0  0  0
 16 17  1  0  0  0  0
 17 18  1  0  0  0  0
 18 19  1  6  0  0  0
 20 24  1  1  0  0  0
 20 22  1  0  0  0  0
 20 18  1  0  0  0  0
 22 21  1  0  0  0  0
 23 22  2  0  0  0  0
 25 24  2  0  0  0  0
 26 31  1  0  0  0  0
 26 30  1  0  0  0  0
 27 28  1  0  0  0  0
 27 29  1  0  0  0  0
 28 26  2  0  0  0  0
 29 30  2  0  0  0  0
 31 32  1  0  0  0  0
 32 34  2  0  0  0  0
 33 36  1  0  0  0  0
 33 31  2  0  0  0  0
 35 34  1  0  0  0  0
 36 35  2  0  0  0  0
M  END
>  <MODEL>
3

>  <REMARK>
 VINA RESULT:      -6.4      1.892      2.273
  Name = 
  10 active torsions:
  status: ('A' for Active; 'I' for Inactive)
    1  A    between atoms: C_2  and  C_4
    2  A    between atoms: N_6  and  C_7
    3  A    between atoms: N_6  and  C_18
    4  A    between atoms: C_7  and  C_30
    5  A    between atoms: C_13  and  N_27
    6  A    between atoms: C_14  and  C_17
    7  A    between atoms: C_14  and  C_20
    8  A    between atoms: C_14  and  C_29
    9  A    between atoms: C_17  and  C_18
   10  A    between atoms: C_19  and  C_32
                            x       y       z     vdW  Elec       q    Type
                         _______ _______ _______ _____ _____    ______ ____

>  <TORSDO>
F 10

$$$$
=
 OpenBabel11042414463D

 36 40  0  0  1  0  0  0  0  0999 V2000
  184.9370  178.9590  145.4470 N   0  0  0  0  0  2  0  0  0  0  0  0
  184.9250  177.5310  145.5310 C   0  0  0  0  0  3  0  0  0  0  0  0
  185.5450  176.8130  144.6420 N   0  0  0  0  0  0  0  0  0  0  0  0
  186.3780  177.3940  143.5750 C   0  0  1  0  0  3  0  0  0  0  0  0
  185.4690  180.8390  144.1790 O   0  0  0  0  0  0  0  0  0  0  0  0
  185.4110  179.5850  144.2550 C   0  0  0  0  0  0  0  0  0  0  0  0
  185.7870  178.7330  143.0800 C   0  0  2  0  0  3  0  0  0  0  0  0
  188.6070  177.9030  142.8880 C   0  0  0  0  0  2  0  0  0  0  0  0
  188.2460  176.2880  144.5630 C   0  0  1  0  0  3  0  0  0  0  0  0
  190.6830  176.9120  143.8400 C   0  0  0  0  0  2  0  0  0  0  0  0
  189.6810  176.8510  142.6970 C   0  0  1  0  0  3  0  0  0  0  0  0
  187.7630  177.5670  144.0400 N   0  0  2  0  0  0  0  0  0  0  0  0
  189.5380  175.9220  143.8630 C   0  0  2  0  0  0  0  0  0  0  0  0
  188.4640  176.3890  146.0640 C   0  0  0  0  0  1  0  0  0  0  0  0
  189.8270  174.4840  143.4790 C   0  0  0  0  0  2  0  0  0  0  0  0
  191.2550  174.2320  143.5590 N   0  0  0  0  0  2  0  0  0  0  0  0
  191.5010  173.6380  144.8630 C   0  0  0  0  0  2  0  0  0  0  0  0
  192.9450  173.8760  145.2970 C   0  0  2  0  0  3  0  0  0  0  0  0
  193.5030  172.6770  145.7100 F   0  0  0  0  0  0  0  0  0  0  0  0
  193.0490  174.9340  146.4040 C   0  0  1  0  0  3  0  0  0  0  0  0
  194.2260  177.0890  146.8390 O   0  0  0  0  0  1  0  0  0  0  0  0
  193.7890  176.1430  145.9220 C   0  0  0  0  0  0  0  0  0  0  0  0
  194.0190  176.3110  144.6940 O   0  0  0  0  0  0  0  0  0  0  0  0
  191.6950  175.3530  146.8960 C   0  0  0  0  0  3  0  0  0  0  0  0
  191.3970  175.2760  148.1400 N   0  0  0  0  0  2  0  0  0  0  0  0
  182.6760  178.3290  141.4200 C   0  0  0  0  0  0  0  0  0  0  0  0
  184.6950  178.0180  140.9550 O   0  0  0  0  0  0  0  0  0  0  0  0
  183.5070  177.9060  140.4480 N   0  0  0  0  0  0  0  0  0  0  0  0
  184.6140  178.4920  142.1750 C   0  0  0  0  0  0  0  0  0  0  0  0
  183.3340  178.7080  142.5360 N   0  0  0  0  0  0  0  0  0  0  0  0
  181.2120  178.3860  141.2770 C   0  0  0  0  0  0  0  0  0  0  0  0
  180.4190  178.8970  142.3150 C   0  0  0  0  0  3  0  0  0  0  0  0
  180.5970  177.9370  140.1000 C   0  0  0  0  0  3  0  0  0  0  0  0
  179.0290  178.9600  142.1750 C   0  0  0  0  0  3  0  0  0  0  0  0
  178.4240  178.5120  140.9990 C   0  0  0  0  0  3  0  0  0  0  0  0
  179.2080  177.9990  139.9610 C   0  0  0  0  0  3  0  0  0  0  0  0
  1  2  1  0  0  0  0
  3  2  2  0  0  0  0
  4 12  1  0  0  0  0
  4  3  1  1  0  0  0
  5  6  2  0  0  0  0
  6  1  1  0  0  0  0
  7 29  1  1  0  0  0
  7  4  1  0  0  0  0
  7  6  1  0  0  0  0
  9 14  1  1  0  0  0
 10 13  1  0  0  0  0
 11  8  1  1  0  0  0
 11 10  1  0  0  0  0
 11 13  1  0  0  0  0
 12  8  1  6  0  0  0
 12  9  1  0  0  0  0
 13 15  1  6  0  0  0
 13  9  1  0  0  0  0
 15 16  1  0  0  0  0
 16 17  1  0  0  0  0
 17 18  1  0  0  0  0
 18 19  1  1  0  0  0
 18 20  1  0  0  0  0
 20 24  1  6  0  0  0
 22 20  1  0  0  0  0
 22 21  1  0  0  0  0
 23 22  2  0  0  0  0
 24 25  2  0  0  0  0
 26 30  1  0  0  0  0
 27 29  1  0  0  0  0
 28 27  1  0  0  0  0
 28 26  2  0  0  0  0
 29 30  2  0  0  0  0
 31 26  1  0  0  0  0
 31 32  1  0  0  0  0
 33 31  2  0  0  0  0
 34 32  2  0  0  0  0
 35 34  1  0  0  0  0
 36 33  1  0  0  0  0
 36 35  2  0  0  0  0
M  END
>  <MODEL>
4

>  <REMARK>
 VINA RESULT:      -6.4      4.228      6.593
  Name = 
  10 active torsions:
  status: ('A' for Active; 'I' for Inactive)
    1  A    between atoms: C_2  and  C_4
    2  A    between atoms: N_6  and  C_7
    3  A    between atoms: N_6  and  C_18
    4  A    between atoms: C_7  and  C_30
    5  A    between atoms: C_13  and  N_27
    6  A    between atoms: C_14  and  C_17
    7  A    between atoms: C_14  and  C_20
    8  A    between atoms: C_14  and  C_29
    9  A    between atoms: C_17  and  C_18
   10  A    between atoms: C_19  and  C_32
                            x       y       z     vdW  Elec       q    Type
                         _______ _______ _______ _____ _____    ______ ____

>  <TORSDO>
F 10

$$$$
=
 OpenBabel11042414463D

 36 40  0  0  1  0  0  0  0  0999 V2000
  189.8350  175.3070  147.1830 N   0  0  0  0  0  2  0  0  0  0  0  0
  189.8760  174.2200  146.2520 C   0  0  0  0  0  3  0  0  0  0  0  0
  190.5640  174.3180  145.1530 N   0  0  0  0  0  0  0  0  0  0  0  0
  191.4220  175.4740  144.8400 C   0  0  1  0  0  3  0  0  0  0  0  0
  190.3520  177.5380  147.6070 O   0  0  0  0  0  0  0  0  0  0  0  0
  190.3390  176.5820  146.7890 C   0  0  0  0  0  0  0  0  0  0  0  0
  190.8020  176.7840  145.3770 C   0  0  2  0  0  3  0  0  0  0  0  0
  193.5780  176.4660  145.0960 C   0  0  0  0  0  2  0  0  0  0  0  0
  193.4030  174.1580  144.6610 C   0  0  1  0  0  3  0  0  0  0  0  0
  195.7530  175.2560  145.0130 C   0  0  0  0  0  2  0  0  0  0  0  0
  194.7680  176.1100  144.2280 C   0  0  1  0  0  3  0  0  0  0  0  0
  192.7760  175.2700  145.3780 N   0  0  2  0  0  0  0  0  0  0  0  0
  194.7310  174.6180  144.0960 C   0  0  2  0  0  0  0  0  0  0  0  0
  193.6040  172.9810  145.6020 C   0  0  0  0  0  1  0  0  0  0  0  0
  195.1860  174.1590  142.7250 C   0  0  0  0  0  2  0  0  0  0  0  0
  194.4540  174.8800  141.6980 N   0  0  0  0  0  2  0  0  0  0  0  0
  193.6090  173.9060  141.0280 C   0  0  0  0  0  2  0  0  0  0  0  0
  192.1400  174.3070  141.1310 C   0  0  2  0  0  3  0  0  0  0  0  0
  192.0390  175.4970  141.8330 F   0  0  0  0  0  0  0  0  0  0  0  0
  191.2870  173.2130  141.7870 C   0  0  1  0  0  3  0  0  0  0  0  0
  188.9170  172.8480  142.4710 O   0  0  0  0  0  1  0  0  0  0  0  0
  189.8280  173.5340  141.6810 C   0  0  0  0  0  0  0  0  0  0  0  0
  189.4200  174.4180  140.8810 O   0  0  0  0  0  0  0  0  0  0  0  0
  191.5400  171.8700  141.1690 C   0  0  0  0  0  3  0  0  0  0  0  0
  191.0250  171.5610  140.0380 N   0  0  0  0  0  2  0  0  0  0  0  0
  187.8080  177.8180  143.7760 C   0  0  0  0  0  0  0  0  0  0  0  0
  189.7910  177.4620  143.2010 O   0  0  0  0  0  0  0  0  0  0  0  0
  188.6440  177.8270  142.7190 N   0  0  0  0  0  0  0  0  0  0  0  0
  189.6830  177.2440  144.4890 C   0  0  0  0  0  0  0  0  0  0  0  0
  188.4230  177.4510  144.9200 N   0  0  0  0  0  0  0  0  0  0  0  0
  186.3840  178.1840  143.6960 C   0  0  0  0  0  0  0  0  0  0  0  0
  185.8120  179.0140  144.6700 C   0  0  0  0  0  3  0  0  0  0  0  0
  185.5900  177.7090  142.6440 C   0  0  0  0  0  3  0  0  0  0  0  0
  184.4610  179.3690  144.5890 C   0  0  0  0  0  3  0  0  0  0  0  0
  183.6760  178.8940  143.5370 C   0  0  0  0  0  3  0  0  0  0  0  0
  184.2400  178.0630  142.5640 C   0  0  0  0  0  3  0  0  0  0  0  0
  2  1  1  0  0  0  0
  3  2  2  0  0  0  0
  4  3  1  1  0  0  0
  4  7  1  0  0  0  0
  4 12  1  0  0  0  0
  6  1  1  0  0  0  0
  6  5  2  0  0  0  0
  7 29  1  6  0  0  0
  7  6  1  0  0  0  0
  9 12  1  0  0  0  0
  9 14  1  1  0  0  0
 11 10  1  1  0  0  0
 11  8  1  0  0  0  0
 12  8  1  6  0  0  0
 13 15  1  6  0  0  0
 13 11  1  0  0  0  0
 13  9  1  0  0  0  0
 13 10  1  0  0  0  0
 16 15  1  0  0  0  0
 17 18  1  0  0  0  0
 17 16  1  0  0  0  0
 18 20  1  0  0  0  0
 18 19  1  1  0  0  0
 20 24  1  6  0  0  0
 22 20  1  0  0  0  0
 22 21  1  0  0  0  0
 23 22  2  0  0  0  0
 25 24  2  0  0  0  0
 26 30  1  0  0  0  0
 27 29  1  0  0  0  0
 28 27  1  0  0  0  0
 28 26  2  0  0  0  0
 29 30  2  0  0  0  0
 31 26  1  0  0  0  0
 31 32  1  0  0  0  0
 33 31  2  0  0  0  0
 34 32  2  0  0  0  0
 35 34  1  0  0  0  0
 36 33  1  0  0  0  0
 36 35  2  0  0  0  0
M  END
>  <MODEL>
5

>  <REMARK>
 VINA RESULT:      -6.2      2.100      4.371
  Name = 
  10 active torsions:
  status: ('A' for Active; 'I' for Inactive)
    1  A    between atoms: C_2  and  C_4
    2  A    between atoms: N_6  and  C_7
    3  A    between atoms: N_6  and  C_18
    4  A    between atoms: C_7  and  C_30
    5  A    between atoms: C_13  and  N_27
    6  A    between atoms: C_14  and  C_17
    7  A    between atoms: C_14  and  C_20
    8  A    between atoms: C_14  and  C_29
    9  A    between atoms: C_17  and  C_18
   10  A    between atoms: C_19  and  C_32
                            x       y       z     vdW  Elec       q    Type
                         _______ _______ _______ _____ _____    ______ ____

>  <TORSDO>
F 10

$$$$
=
 OpenBabel11042414463D

 36 40  0  0  1  0  0  0  0  0999 V2000
  195.1410  175.4110  146.2050 N   0  0  0  0  0  2  0  0  0  0  0  0
  194.5640  176.7170  146.1100 C   0  0  0  0  0  3  0  0  0  0  0  0
  193.4080  176.8880  145.5390 N   0  0  0  0  0  0  0  0  0  0  0  0
  192.5750  175.7720  145.0580 C   0  0  1  0  0  3  0  0  0  0  0  0
  195.0390  173.1770  145.5550 O   0  0  0  0  0  0  0  0  0  0  0  0
  194.5730  174.3410  145.4520 C   0  0  0  0  0  0  0  0  0  0  0  0
  193.4510  174.6280  144.4990 C   0  0  2  0  0  3  0  0  0  0  0  0
  190.7210  174.3530  145.5560 C   0  0  0  0  0  2  0  0  0  0  0  0
  190.9330  176.4210  146.6620 C   0  0  1  0  0  3  0  0  0  0  0  0
  188.9460  174.8190  147.2400 C   0  0  0  0  0  2  0  0  0  0  0  0
  189.3100  174.8670  145.7630 C   0  0  1  0  0  3  0  0  0  0  0  0
  191.6930  175.2880  146.1320 N   0  0  2  0  0  0  0  0  0  0  0  0
  189.4550  176.0960  146.6070 C   0  0  2  0  0  0  0  0  0  0  0  0
  191.3610  176.7120  148.0910 C   0  0  0  0  0  1  0  0  0  0  0  0
  188.4440  177.1620  146.2320 C   0  0  0  0  0  2  0  0  0  0  0  0
  187.1050  176.7050  146.5600 N   0  0  0  0  0  2  0  0  0  0  0  0
  186.2690  177.0010  145.4080 C   0  0  0  0  0  2  0  0  0  0  0  0
  186.7080  178.3050  144.7480 C   0  0  2  0  0  3  0  0  0  0  0  0
  186.0070  179.3610  145.3080 F   0  0  0  0  0  0  0  0  0  0  0  0
  186.5200  178.2740  143.2250 C   0  0  1  0  0  3  0  0  0  0  0  0
  187.8790  176.2490  142.7020 O   0  0  0  0  0  1  0  0  0  0  0  0
  187.6860  177.6150  142.5540 C   0  0  0  0  0  0  0  0  0  0  0  0
  188.4930  178.2890  141.8590 O   0  0  0  0  0  0  0  0  0  0  0  0
  185.2620  177.5540  142.8390 C   0  0  0  0  0  3  0  0  0  0  0  0
  184.1370  178.1660  142.8190 N   0  0  0  0  0  2  0  0  0  0  0  0
  195.0640  174.9930  141.3590 C   0  0  0  0  0  0  0  0  0  0  0  0
  193.5210  175.9620  142.3940 O   0  0  0  0  0  0  0  0  0  0  0  0
  194.1800  176.0060  141.2780 N   0  0  0  0  0  0  0  0  0  0  0  0
  193.9620  174.9710  143.1310 C   0  0  0  0  0  0  0  0  0  0  0  0
  194.9640  174.3110  142.5190 N   0  0  0  0  0  0  0  0  0  0  0  0
  196.0230  174.6570  140.2950 C   0  0  0  0  0  0  0  0  0  0  0  0
  195.9470  175.2940  139.0470 C   0  0  0  0  0  3  0  0  0  0  0  0
  197.0240  173.7030  140.5200 C   0  0  0  0  0  3  0  0  0  0  0  0
  196.8650  174.9800  138.0390 C   0  0  0  0  0  3  0  0  0  0  0  0
  197.8610  174.0300  138.2710 C   0  0  0  0  0  3  0  0  0  0  0  0
  197.9410  173.3900  139.5110 C   0  0  0  0  0  3  0  0  0  0  0  0
  2  1  1  0  0  0  0
  3  2  2  0  0  0  0
  4  3  1  1  0  0  0
  4 12  1  0  0  0  0
  6  5  2  0  0  0  0
  6  1  1  0  0  0  0
  7 29  1  6  0  0  0
  7  4  1  0  0  0  0
  7  6  1  0  0  0  0
  9 14  1  1  0  0  0
 11  8  1  1  0  0  0
 11 13  1  0  0  0  0
 11 10  1  0  0  0  0
 12  8  1  6  0  0  0
 12  9  1  0  0  0  0
 13 15  1  6  0  0  0
 13  9  1  0  0  0  0
 13 10  1  0  0  0  0
 15 16  1  0  0  0  0
 17 16  1  0  0  0  0
 18 19  1  1  0  0  0
 18 17  1  0  0  0  0
 20 24  1  1  0  0  0
 20 18  1  0  0  0  0
 22 21  1  0  0  0  0
 22 20  1  0  0  0  0
 23 22  2  0  0  0  0
 25 24  2  0  0  0  0
 26 30  1  0  0  0  0
 27 29  1  0  0  0  0
 28 26  2  0  0  0  0
 28 27  1  0  0  0  0
 30 29  2  0  0  0  0
 31 33  1  0  0  0  0
 31 26  1  0  0  0  0
 32 31  2  0  0  0  0
 34 35  2  0  0  0  0
 34 32  1  0  0  0  0
 35 36  1  0  0  0  0
 36 33  2  0  0  0  0
M  END
>  <MODEL>
6

>  <REMARK>
 VINA RESULT:      -6.1      3.124      8.022
  Name = 
  10 active torsions:
  status: ('A' for Active; 'I' for Inactive)
    1  A    between atoms: C_2  and  C_4
    2  A    between atoms: N_6  and  C_7
    3  A    between atoms: N_6  and  C_18
    4  A    between atoms: C_7  and  C_30
    5  A    between atoms: C_13  and  N_27
    6  A    between atoms: C_14  and  C_17
    7  A    between atoms: C_14  and  C_20
    8  A    between atoms: C_14  and  C_29
    9  A    between atoms: C_17  and  C_18
   10  A    between atoms: C_19  and  C_32
                            x       y       z     vdW  Elec       q    Type
                         _______ _______ _______ _____ _____    ______ ____

>  <TORSDO>
F 10

$$$$
=
 OpenBabel11042414463D

 36 40  0  0  1  0  0  0  0  0999 V2000
  188.1830  172.8930  140.0590 N   0  0  0  0  0  2  0  0  0  0  0  0
  189.2790  173.5970  139.4670 C   0  0  0  0  0  3  0  0  0  0  0  0
  190.2180  174.1020  140.2110 N   0  0  0  0  0  0  0  0  0  0  0  0
  190.2860  173.9010  141.6690 C   0  0  1  0  0  3  0  0  0  0  0  0
  187.0570  172.3180  142.0150 O   0  0  0  0  0  0  0  0  0  0  0  0
  187.9880  172.9650  141.4710 C   0  0  0  0  0  0  0  0  0  0  0  0
  188.8710  173.8590  142.2890 C   0  0  2  0  0  3  0  0  0  0  0  0
  190.4200  172.0310  143.1480 C   0  0  0  0  0  2  0  0  0  0  0  0
  192.3990  173.0490  142.3770 C   0  0  1  0  0  3  0  0  0  0  0  0
  192.5200  170.9570  143.9450 C   0  0  0  0  0  2  0  0  0  0  0  0
  191.4120  171.9410  144.2890 C   0  0  1  0  0  3  0  0  0  0  0  0
  191.0390  172.6760  141.9840 N   0  0  2  0  0  0  0  0  0  0  0  0
  192.7080  172.4440  143.7300 C   0  0  2  0  0  0  0  0  0  0  0  0
  193.3920  172.5610  141.3360 C   0  0  0  0  0  1  0  0  0  0  0  0
  193.5050  173.2210  144.7590 C   0  0  0  0  0  2  0  0  0  0  0  0
  193.1250  174.6220  144.7190 N   0  0  0  0  0  2  0  0  0  0  0  0
  192.6690  174.9690  146.0540 C   0  0  0  0  0  2  0  0  0  0  0  0
  191.9620  176.3220  146.0460 C   0  0  2  0  0  3  0  0  0  0  0  0
  191.7640  176.7430  147.3500 F   0  0  0  0  0  0  0  0  0  0  0  0
  190.6330  176.2750  145.2800 C   0  0  1  0  0  3  0  0  0  0  0  0
  189.3330  174.2910  146.0470 O   0  0  0  0  0  0  0  0  0  0  0  0
  189.5540  175.6590  146.1150 C   0  0  0  0  0  0  0  0  0  0  0  0
  188.8450  176.3700  146.8770 O   0  0  0  0  0  1  0  0  0  0  0  0
  190.1970  177.6430  144.8470 C   0  0  0  0  0  3  0  0  0  0  0  0
  190.8020  178.2540  143.8960 N   0  0  0  0  0  2  0  0  0  0  0  0
  187.1620  176.8900  142.9880 C   0  0  0  0  0  0  0  0  0  0  0  0
  188.6390  176.2570  141.6430 O   0  0  0  0  0  0  0  0  0  0  0  0
  187.9540  177.3050  141.9790 N   0  0  0  0  0  0  0  0  0  0  0  0
  188.3020  175.2430  142.4030 C   0  0  0  0  0  0  0  0  0  0  0  0
  187.3470  175.5880  143.2890 N   0  0  0  0  0  0  0  0  0  0  0  0
  186.2120  177.7650  143.6940 C   0  0  0  0  0  0  0  0  0  0  0  0
  185.0190  178.1610  143.0730 C   0  0  0  0  0  3  0  0  0  0  0  0
  186.4890  178.2050  144.9950 C   0  0  0  0  0  3  0  0  0  0  0  0
  184.1120  178.9840  143.7480 C   0  0  0  0  0  3  0  0  0  0  0  0
  184.3940  179.4180  145.0450 C   0  0  0  0  0  3  0  0  0  0  0  0
  185.5830  179.0290  145.6700 C   0  0  0  0  0  3  0  0  0  0  0  0
  1  6  1  0  0  0  0
  2  1  1  0  0  0  0
  2  3  2  0  0  0  0
  4  3  1  6  0  0  0
  4 12  1  0  0  0  0
  4  7  1  0  0  0  0
  6  5  2  0  0  0  0
  6  7  1  0  0  0  0
  7 29  1  6  0  0  0
  9 14  1  6  0  0  0
  9 13  1  0  0  0  0
 10 11  1  0  0  0  0
 11  8  1  6  0  0  0
 12  9  1  0  0  0  0
 12  8  1  1  0  0  0
 13 10  1  0  0  0  0
 13 11  1  0  0  0  0
 13 15  1  1  0  0  0
 16 15  1  0  0  0  0
 16 17  1  0  0  0  0
 18 17  1  0  0  0  0
 18 19  1  1  0  0  0
 20 24  1  1  0  0  0
 20 18  1  0  0  0  0
 20 22  1  0  0  0  0
 21 22  2  0  0  0  0
 22 23  1  0  0  0  0
 25 24  2  0  0  0  0
 26 30  1  0  0  0  0
 26 31  1  0  0  0  0
 27 28  1  0  0  0  0
 27 29  1  0  0  0  0
 28 26  2  0  0  0  0
 29 30  2  0  0  0  0
 31 33  1  0  0  0  0
 32 31  2  0  0  0  0
 32 34  1  0  0  0  0
 33 36  2  0  0  0  0
 34 35  2  0  0  0  0
 35 36  1  0  0  0  0
M  END
>  <MODEL>
7

>  <REMARK>
 VINA RESULT:      -6.1      1.704      2.183
  Name = 
  10 active torsions:
  status: ('A' for Active; 'I' for Inactive)
    1  A    between atoms: C_2  and  C_4
    2  A    between atoms: N_6  and  C_7
    3  A    between atoms: N_6  and  C_18
    4  A    between atoms: C_7  and  C_30
    5  A    between atoms: C_13  and  N_27
    6  A    between atoms: C_14  and  C_17
    7  A    between atoms: C_14  and  C_20
    8  A    between atoms: C_14  and  C_29
    9  A    between atoms: C_17  and  C_18
   10  A    between atoms: C_19  and  C_32
                            x       y       z     vdW  Elec       q    Type
                         _______ _______ _______ _____ _____    ______ ____

>  <TORSDO>
F 10

$$$$
=
 OpenBabel11042414463D

 36 40  0  0  1  0  0  0  0  0999 V2000
  193.1590  176.8160  145.8960 N   0  0  0  0  0  2  0  0  0  0  0  0
  193.2020  175.6100  146.6660 C   0  0  0  0  0  3  0  0  0  0  0  0
  192.6880  174.5110  146.1990 N   0  0  0  0  0  0  0  0  0  0  0  0
  192.1370  174.3940  144.8370 C   0  0  1  0  0  3  0  0  0  0  0  0
  192.3150  177.9090  144.0210 O   0  0  0  0  0  0  0  0  0  0  0  0
  192.3330  176.8740  144.7340 C   0  0  0  0  0  0  0  0  0  0  0  0
  191.4490  175.7080  144.4040 C   0  0  2  0  0  3  0  0  0  0  0  0
  192.8940  174.6160  142.5840 C   0  0  0  0  0  2  0  0  0  0  0  0
  193.1540  172.5600  143.7010 C   0  0  1  0  0  3  0  0  0  0  0  0
  194.0360  172.8480  141.2540 C   0  0  0  0  0  2  0  0  0  0  0  0
  192.7110  173.5400  141.5330 C   0  0  1  0  0  3  0  0  0  0  0  0
  193.1930  174.0110  143.8870 N   0  0  2  0  0  0  0  0  0  0  0  0
  193.0380  172.2510  142.2240 C   0  0  2  0  0  0  0  0  0  0  0  0
  194.4090  171.9280  144.2800 C   0  0  0  0  0  1  0  0  0  0  0  0
  192.1630  171.1120  141.7390 C   0  0  0  0  0  2  0  0  0  0  0  0
  191.1560  170.8060  142.7400 N   0  0  0  0  0  2  0  0  0  0  0  0
  189.8740  171.1860  142.1720 C   0  0  0  0  0  2  0  0  0  0  0  0
  189.5410  172.6350  142.5170 C   0  0  2  0  0  3  0  0  0  0  0  0
  189.1160  172.7070  143.8330 F   0  0  0  0  0  0  0  0  0  0  0  0
  188.4880  173.2280  141.5710 C   0  0  1  0  0  3  0  0  0  0  0  0
  187.0690  175.1040  142.3980 O   0  0  0  0  0  1  0  0  0  0  0  0
  188.2730  174.6830  141.8510 C   0  0  0  0  0  0  0  0  0  0  0  0
  189.1720  175.5280  141.5960 O   0  0  0  0  0  0  0  0  0  0  0  0
  188.8800  173.0590  140.1330 C   0  0  0  0  0  3  0  0  0  0  0  0
  188.1910  173.5990  139.1980 N   0  0  0  0  0  2  0  0  0  0  0  0
  188.1870  176.4950  145.5600 C   0  0  0  0  0  0  0  0  0  0  0  0
  189.6680  175.0920  146.0370 O   0  0  0  0  0  0  0  0  0  0  0  0
  188.4760  175.4680  146.3820 N   0  0  0  0  0  0  0  0  0  0  0  0
  190.1000  175.8370  145.0490 C   0  0  0  0  0  0  0  0  0  0  0  0
  189.1900  176.7670  144.6990 N   0  0  0  0  0  0  0  0  0  0  0  0
  186.9120  177.2300  145.5870 C   0  0  0  0  0  0  0  0  0  0  0  0
  185.8980  176.8560  146.4810 C   0  0  0  0  0  3  0  0  0  0  0  0
  186.7020  178.3140  144.7230 C   0  0  0  0  0  3  0  0  0  0  0  0
  184.6910  177.5610  146.5120 C   0  0  0  0  0  3  0  0  0  0  0  0
  184.4890  178.6410  145.6500 C   0  0  0  0  0  3  0  0  0  0  0  0
  185.4940  179.0180  144.7540 C   0  0  0  0  0  3  0  0  0  0  0  0
  1  2  1  0  0  0  0
  3  2  2  0  0  0  0
  4  3  1  1  0  0  0
  5  6  2  0  0  0  0
  6  1  1  0  0  0  0
  7  6  1  0  0  0  0
  7  4  1  0  0  0  0
  7 29  1  1  0  0  0
  9 12  1  0  0  0  0
  9 14  1  6  0  0  0
 10 13  1  0  0  0  0
 11 10  1  6  0  0  0
 11 13  1  0  0  0  0
 11  8  1  0  0  0  0
 12  8  1  6  0  0  0
 12  4  1  0  0  0  0
 13 15  1  6  0  0  0
 13  9  1  0  0  0  0
 15 16  1  0  0  0  0
 17 18  1  0  0  0  0
 17 16  1  0  0  0  0
 18 19  1  1  0  0  0
 20 24  1  6  0  0  0
 20 22  1  0  0  0  0
 20 18  1  0  0  0  0
 22 21  1  0  0  0  0
 23 22  2  0  0  0  0
 25 24  2  0  0  0  0
 26 31  1  0  0  0  0
 26 28  2  0  0  0  0
 27 28  1  0  0  0  0
 29 27  1  0  0  0  0
 30 29  2  0  0  0  0
 30 26  1  0  0  0  0
 31 32  1  0  0  0  0
 32 34  2  0  0  0  0
 33 36  1  0  0  0  0
 33 31  2  0  0  0  0
 35 34  1  0  0  0  0
 36 35  2  0  0  0  0
M  END
>  <MODEL>
8

>  <REMARK>
 VINA RESULT:      -6.0      2.180      4.713
  Name = 
  10 active torsions:
  status: ('A' for Active; 'I' for Inactive)
    1  A    between atoms: C_2  and  C_4
    2  A    between atoms: N_6  and  C_7
    3  A    between atoms: N_6  and  C_18
    4  A    between atoms: C_7  and  C_30
    5  A    between atoms: C_13  and  N_27
    6  A    between atoms: C_14  and  C_17
    7  A    between atoms: C_14  and  C_20
    8  A    between atoms: C_14  and  C_29
    9  A    between atoms: C_17  and  C_18
   10  A    between atoms: C_19  and  C_32
                            x       y       z     vdW  Elec       q    Type
                         _______ _______ _______ _____ _____    ______ ____

>  <TORSDO>
F 10

$$$$
=
 OpenBabel11042414463D

 36 40  0  0  1  0  0  0  0  0999 V2000
  193.5730  175.5870  146.1650 N   0  0  0  0  0  2  0  0  0  0  0  0
  192.9870  174.3630  146.6180 C   0  0  0  0  0  3  0  0  0  0  0  0
  191.9770  173.8430  145.9860 N   0  0  0  0  0  0  0  0  0  0  0  0
  191.4430  174.3930  144.7290 C   0  0  1  0  0  3  0  0  0  0  0  0
  193.4140  177.4210  144.7370 O   0  0  0  0  0  0  0  0  0  0  0  0
  192.8950  176.3640  145.1790 C   0  0  0  0  0  0  0  0  0  0  0  0
  191.5340  175.9360  144.7170 C   0  0  2  0  0  3  0  0  0  0  0  0
  192.4470  174.8860  142.6190 C   0  0  0  0  0  2  0  0  0  0  0  0
  191.2430  172.8810  142.8950 C   0  0  1  0  0  3  0  0  0  0  0  0
  192.4100  173.4110  140.6130 C   0  0  0  0  0  2  0  0  0  0  0  0
  191.7710  174.6140  141.2900 C   0  0  1  0  0  3  0  0  0  0  0  0
  192.1450  173.8130  143.5730 N   0  0  2  0  0  0  0  0  0  0  0  0
  191.1450  173.2600  141.4320 C   0  0  2  0  0  0  0  0  0  0  0  0
  191.7570  171.4580  143.0420 C   0  0  0  0  0  1  0  0  0  0  0  0
  189.8230  173.1690  140.6970 C   0  0  0  0  0  2  0  0  0  0  0  0
  188.7460  173.6080  141.5680 N   0  0  0  0  0  2  0  0  0  0  0  0
  188.1030  174.7280  140.9010 C   0  0  0  0  0  2  0  0  0  0  0  0
  187.7480  175.8200  141.9070 C   0  0  2  0  0  3  0  0  0  0  0  0
  186.4820  175.5810  142.4170 F   0  0  0  0  0  0  0  0  0  0  0  0
  187.8320  177.2230  141.2910 C   0  0  1  0  0  3  0  0  0  0  0  0
  185.9440  178.6640  142.0520 O   0  0  0  0  0  1  0  0  0  0  0  0
  186.4660  177.8050  141.0950 C   0  0  0  0  0  0  0  0  0  0  0  0
  185.7870  177.5230  140.0720 O   0  0  0  0  0  0  0  0  0  0  0  0
  188.6430  178.1530  142.1430 C   0  0  0  0  0  3  0  0  0  0  0  0
  189.8770  177.9080  142.3900 N   0  0  0  0  0  2  0  0  0  0  0  0
  188.6000  177.2240  146.2430 C   0  0  0  0  0  0  0  0  0  0  0  0
  190.6360  177.1080  146.7260 O   0  0  0  0  0  0  0  0  0  0  0  0
  189.5060  177.5450  147.1880 N   0  0  0  0  0  0  0  0  0  0  0  0
  190.4490  176.5370  145.5610 C   0  0  0  0  0  0  0  0  0  0  0  0
  189.1540  176.5850  145.1910 N   0  0  0  0  0  0  0  0  0  0  0  0
  187.1630  177.5210  146.3530 C   0  0  0  0  0  0  0  0  0  0  0  0
  186.6460  178.0930  147.5260 C   0  0  0  0  0  3  0  0  0  0  0  0
  186.2980  177.2410  145.2870 C   0  0  0  0  0  3  0  0  0  0  0  0
  185.2820  178.3840  147.6260 C   0  0  0  0  0  3  0  0  0  0  0  0
  184.4270  178.1040  146.5580 C   0  0  0  0  0  3  0  0  0  0  0  0
  184.9340  177.5310  145.3880 C   0  0  0  0  0  3  0  0  0  0  0  0
  1  2  1  0  0  0  0
  3  2  2  0  0  0  0
  4  3  1  1  0  0  0
  5  6  2  0  0  0  0
  6  1  1  0  0  0  0
  7  4  1  0  0  0  0
  7  6  1  0  0  0  0
  7 29  1  1  0  0  0
  9 14  1  6  0  0  0
  9 12  1  0  0  0  0
 10 13  1  0  0  0  0
 11 10  1  6  0  0  0
 11 13  1  0  0  0  0
 11  8  1  0  0  0  0
 12  8  1  6  0  0  0
 12  4  1  0  0  0  0
 13 15  1  6  0  0  0
 13  9  1  0  0  0  0
 15 16  1  0  0  0  0
 17 16  1  0  0  0  0
 17 18  1  0  0  0  0
 18 19  1  6  0  0  0
 20 18  1  0  0  0  0
 20 24  1  1  0  0  0
 22 20  1  0  0  0  0
 22 21  1  0  0  0  0
 23 22  2  0  0  0  0
 24 25  2  0  0  0  0
 26 31  1  0  0  0  0
 26 28  2  0  0  0  0
 27 28  1  0  0  0  0
 29 27  1  0  0  0  0
 30 29  2  0  0  0  0
 30 26  1  0  0  0  0
 31 32  1  0  0  0  0
 32 34  2  0  0  0  0
 33 36  1  0  0  0  0
 33 31  2  0  0  0  0
 35 34  1  0  0  0  0
 36 35  2  0  0  0  0
M  END
>  <MODEL>
9

>  <REMARK>
 VINA RESULT:      -6.0      2.725      5.164
  Name = 
  10 active torsions:
  status: ('A' for Active; 'I' for Inactive)
    1  A    between atoms: C_2  and  C_4
    2  A    between atoms: N_6  and  C_7
    3  A    between atoms: N_6  and  C_18
    4  A    between atoms: C_7  and  C_30
    5  A    between atoms: C_13  and  N_27
    6  A    between atoms: C_14  and  C_17
    7  A    between atoms: C_14  and  C_20
    8  A    between atoms: C_14  and  C_29
    9  A    between atoms: C_17  and  C_18
   10  A    between atoms: C_19  and  C_32
                            x       y       z     vdW  Elec       q    Type
                         _______ _______ _______ _____ _____    ______ ____

>  <TORSDO>
F 10

$$$$
