=
 OpenBabel11042415573D

 52 55  0  0  1  0  0  0  0  0999 V2000
  194.7600  174.7900  142.9880 C   0  0  2  0  0  3  0  0  0  0  0  0
  193.3670  175.7030  144.8920 C   0  0  2  0  0  3  0  0  0  0  0  0
  194.7010  173.5830  145.1840 C   0  0  0  0  0  2  0  0  0  0  0  0
  194.2120  176.0470  143.6630 C   0  0  0  0  0  2  0  0  0  0  0  0
  194.1790  174.8420  145.8680 C   0  0  0  0  0  2  0  0  0  0  0  0
  195.5760  173.9740  143.9970 C   0  0  1  0  0  3  0  0  0  0  0  0
  194.7300  175.0510  140.7940 C   0  0  0  0  0  1  0  0  0  0  0  0
  195.5640  175.1630  141.9090 O   0  0  0  0  0  0  0  0  0  0  0  0
  192.1470  175.0210  144.4830 N   0  0  0  0  0  2  0  0  0  0  0  0
  189.8240  177.9290  145.2130 C   0  0  0  0  0  3  0  0  0  0  0  0
  191.0260  175.6800  145.1350 C   0  0  1  0  0  3  0  0  0  0  0  0
  190.6720  176.9920  144.4020 C   0  0  1  0  0  3  0  0  0  0  0  0
  189.4200  174.5810  146.7020 C   0  0  0  0  0  2  0  0  0  0  0  0
  189.8490  174.7080  145.2480 C   0  0  0  0  0  2  0  0  0  0  0  0
  188.9600  177.4430  146.0610 C   0  0  0  0  0  0  0  0  0  0  0  0
  188.1500  176.8140  146.8690 C   0  0  0  0  0  0  0  0  0  0  0  0
  188.2310  175.3900  146.9940 N   0  0  0  0  0  2  0  0  0  0  0  0
  187.0430  177.5040  147.4490 N   0  0  0  0  0  1  0  0  0  0  0  0
  190.0890  176.7560  143.0130 C   0  0  0  0  0  2  0  0  0  0  0  0
  189.1300  177.8820  142.6510 C   0  0  0  0  0  2  0  0  0  0  0  0
  187.7070  177.3610  142.5440 C   0  0  0  0  0  2  0  0  0  0  0  0
  185.4220  178.2160  141.9380 C   0  0  0  0  0  0  0  0  0  0  0  0
  184.0500  178.8170  143.9350 C   0  0  0  0  0  2  0  0  0  0  0  0
  186.7090  178.5040  142.6940 C   0  0  1  0  0  3  0  0  0  0  0  0
  185.2430  179.6320  144.4130 C   0  0  0  0  0  2  0  0  0  0  0  0
  184.2130  178.4220  142.4930 C   0  0  0  0  0  3  0  0  0  0  0  0
  186.5070  178.8150  144.1860 C   0  0  0  0  0  2  0  0  0  0  0  0
  184.2120  177.8800  139.9230 O   0  0  0  0  0  1  0  0  0  0  0  0
  185.4930  177.8530  140.4860 C   0  0  0  0  0  2  0  0  0  0  0  0
  196.0910  172.8240  143.3890 O   0  0  0  0  0  0  0  0  0  0  0  0
  195.2100  171.8010  143.7470 C   0  0  0  0  0  2  0  0  0  0  0  0
  194.5300  171.2430  142.5120 C   0  0  0  0  0  2  0  0  0  0  0  0
  193.0290  171.3820  142.6550 C   0  0  0  0  0  2  0  0  0  0  0  0
  192.3480  170.8390  141.4160 C   0  0  0  0  0  2  0  0  0  0  0  0
  191.9260  171.9340  140.5490 N   0  0  0  0  0  0  0  0  0  0  0  0
  188.2530  172.4500  139.8400 O   0  0  0  0  0  0  0  0  0  0  0  0
  188.5130  174.4070  141.0680 F   0  0  0  0  0  0  0  0  0  0  0  0
  187.4800  172.6310  141.9710 O   0  0  0  0  0  1  0  0  0  0  0  0
  189.7920  172.5310  141.6520 N   0  0  0  0  0  0  0  0  0  0  0  0
  189.7960  171.6110  142.6490 O   0  0  0  0  0  1  0  0  0  0  0  0
  189.0660  173.0560  138.8630 C   0  0  1  0  0  3  0  0  0  0  0  0
  191.9090  171.7570  139.0950 C   0  0  2  0  0  3  0  0  0  0  0  0
  190.5230  170.6750  138.6120 S   0  0  0  0  0  0  0  0  0  0  0  0
  189.5480  172.0190  137.8500 C   0  0  0  0  0  2  0  0  0  0  0  0
  188.2700  174.1190  138.1240 C   0  0  0  0  0  1  0  0  0  0  0  0
  188.5130  173.0180  141.1150 C   0  0  1  0  0  0  0  0  0  0  0  0
  191.2800  174.1470  140.8620 O   0  0  0  0  0  0  0  0  0  0  0  0
  191.0390  172.9260  141.0700 C   0  0  0  0  0  0  0  0  0  0  0  0
  193.2480  171.2820  138.5100 C   0  0  2  0  0  3  0  0  0  0  0  0
  194.2980  172.1240  138.8820 O   0  0  0  0  0  1  0  0  0  0  0  0
  193.1920  171.1640  137.0200 C   0  0  0  0  0  3  0  0  0  0  0  0
  194.0140  171.7380  136.3230 O   0  0  0  0  0  0  0  0  0  0  0  0
  1  8  1  6  0  0  0
  1  4  1  0  0  0  0
  1  6  1  0  0  0  0
  2  9  1  6  0  0  0
  2  5  1  0  0  0  0
  3  5  1  0  0  0  0
  4  2  1  0  0  0  0
  6 30  1  6  0  0  0
  6  3  1  0  0  0  0
  7  8  1  0  0  0  0
 10 15  2  0  0  0  0
 11  9  1  6  0  0  0
 11 14  1  0  0  0  0
 12 19  1  6  0  0  0
 12 11  1  0  0  0  0
 12 10  1  0  0  0  0
 13 17  1  0  0  0  0
 14 13  1  0  0  0  0
 15 16  2  0  0  0  0
 16 17  1  0  0  0  0
 16 18  1  0  0  0  0
 20 19  1  0  0  0  0
 21 20  1  0  0  0  0
 22 26  2  0  0  0  0
 22 24  1  0  0  0  0
 23 25  1  0  0  0  0
 24 21  1  1  0  0  0
 24 27  1  0  0  0  0
 26 23  1  0  0  0  0
 27 25  1  0  0  0  0
 28 29  1  0  0  0  0
 29 22  1  0  0  0  0
 30 31  1  0  0  0  0
 32 33  1  0  0  0  0
 32 31  1  0  0  0  0
 34 33  1  0  0  0  0
 35 48  1  0  0  0  0
 35 34  1  0  0  0  0
 36 46  1  0  0  0  0
 39 40  1  0  0  0  0
 41 45  1  6  0  0  0
 41 36  1  0  0  0  0
 42 49  1  1  0  0  0
 42 35  1  0  0  0  0
 43 42  1  0  0  0  0
 44 43  1  0  0  0  0
 44 41  1  0  0  0  0
 46 37  1  6  0  0  0
 46 39  1  0  0  0  0
 46 38  1  0  0  0  0
 47 48  2  0  0  0  0
 48 39  1  0  0  0  0
 49 50  1  6  0  0  0
 51 49  1  0  0  0  0
 52 51  2  0  0  0  0
M  END
>  <MODEL>
1

>  <REMARK>
 VINA RESULT:      -7.0      0.000      0.000
  Name = 
  16 active torsions:
  status: ('A' for Active; 'I' for Inactive)
    1  A    between atoms: C_1  and  O_7
    2  A    between atoms: C_1  and  C_23
    3  A    between atoms: N_2  and  C_49
    4  A    between atoms: C_4  and  O_17
    5  A    between atoms: C_5  and  C_38
    6  A    between atoms: C_6  and  C_27
    7  A    between atoms: C_6  and  C_34
    8  A    between atoms: O_7  and  C_41
    9  A    between atoms: C_8  and  N_15
   10  A    between atoms: C_12  and  N_15
   11  A    between atoms: C_19  and  C_27
   12  A    between atoms: C_21  and  C_34
   13  A    between atoms: C_23  and  C_29
   14  A    between atoms: C_26  and  C_35
   15  A    between atoms: C_26  and  C_36
   16  A    between atoms: C_29  and  C_49
                            x       y       z     vdW  Elec       q    Type
                         _______ _______ _______ _____ _____    ______ ____

>  <TORSDO>
F 16

$$$$
=
 OpenBabel11042415573D

 52 55  0  0  1  0  0  0  0  0999 V2000
  190.6740  172.8780  141.3860 C   0  0  2  0  0  3  0  0  0  0  0  0
  188.5800  174.2950  141.3050 C   0  0  2  0  0  3  0  0  0  0  0  0
  189.8750  173.8020  139.1980 C   0  0  0  0  0  2  0  0  0  0  0  0
  189.2970  173.1340  141.9980 C   0  0  0  0  0  2  0  0  0  0  0  0
  188.4910  174.0360  139.7960 C   0  0  0  0  0  2  0  0  0  0  0  0
  190.5310  172.6080  139.8830 C   0  0  1  0  0  3  0  0  0  0  0  0
  190.1900  171.1020  142.6090 C   0  0  0  0  0  1  0  0  0  0  0  0
  191.2590  171.7790  142.0180 O   0  0  0  0  0  0  0  0  0  0  0  0
  189.2730  175.5460  141.5810 N   0  0  0  0  0  2  0  0  0  0  0  0
  187.9620  177.5320  144.5340 C   0  0  0  0  0  3  0  0  0  0  0  0
  188.3430  176.4300  142.2650 C   0  0  1  0  0  3  0  0  0  0  0  0
  188.9650  176.9580  143.5750 C   0  0  1  0  0  3  0  0  0  0  0  0
  186.3750  177.5470  141.2070 C   0  0  0  0  0  2  0  0  0  0  0  0
  187.8920  177.5410  141.3130 C   0  0  0  0  0  2  0  0  0  0  0  0
  186.8990  178.1310  144.0700 C   0  0  0  0  0  0  0  0  0  0  0  0
  185.8890  178.6900  143.4610 C   0  0  0  0  0  0  0  0  0  0  0  0
  185.7720  178.5960  142.0380 N   0  0  0  0  0  2  0  0  0  0  0  0
  185.0310  179.5810  144.1750 N   0  0  0  0  0  1  0  0  0  0  0  0
  190.1320  177.9090  143.3370 C   0  0  0  0  0  2  0  0  0  0  0  0
  191.4520  177.1710  143.5110 C   0  0  0  0  0  2  0  0  0  0  0  0
  191.9270  177.2530  144.9520 C   0  0  0  0  0  2  0  0  0  0  0  0
  190.6960  175.9510  146.7160 C   0  0  0  0  0  0  0  0  0  0  0  0
  189.6310  173.8780  145.8230 C   0  0  0  0  0  2  0  0  0  0  0  0
  191.7710  175.9020  145.6400 C   0  0  1  0  0  3  0  0  0  0  0  0
  190.9800  173.5430  145.2040 C   0  0  0  0  0  2  0  0  0  0  0  0
  189.7620  174.9890  146.8280 C   0  0  0  0  0  3  0  0  0  0  0  0
  191.5520  174.8100  144.5820 C   0  0  0  0  0  2  0  0  0  0  0  0
  189.7330  177.9260  147.6150 O   0  0  0  0  0  1  0  0  0  0  0  0
  190.7730  177.0050  147.7780 C   0  0  0  0  0  2  0  0  0  0  0  0
  191.7840  172.3630  139.3120 O   0  0  0  0  0  0  0  0  0  0  0  0
  191.9250  173.3350  138.3190 C   0  0  0  0  0  2  0  0  0  0  0  0
  193.3810  173.4610  137.9140 C   0  0  0  0  0  2  0  0  0  0  0  0
  194.0170  174.6110  138.6640 C   0  0  0  0  0  2  0  0  0  0  0  0
  195.2480  174.1190  139.3980 C   0  0  0  0  0  2  0  0  0  0  0  0
  194.9000  173.7260  140.7600 N   0  0  0  0  0  0  0  0  0  0  0  0
  197.0240  174.9090  143.6500 O   0  0  0  0  0  0  0  0  0  0  0  0
  195.1440  176.1450  144.2400 F   0  0  0  0  0  0  0  0  0  0  0  0
  196.9160  177.1540  143.3010 O   0  0  0  0  0  1  0  0  0  0  0  0
  195.5820  175.7760  141.9670 N   0  0  0  0  0  0  0  0  0  0  0  0
  196.0380  176.5060  140.9180 O   0  0  0  0  0  1  0  0  0  0  0  0
  196.2720  173.7670  143.9840 C   0  0  1  0  0  3  0  0  0  0  0  0
  195.3610  172.4420  141.2930 C   0  0  2  0  0  3  0  0  0  0  0  0
  197.1510  172.5120  141.6370 S   0  0  0  0  0  0  0  0  0  0  0  0
  196.9500  172.5060  143.4530 C   0  0  0  0  0  2  0  0  0  0  0  0
  196.1590  173.6550  145.4950 C   0  0  0  0  0  1  0  0  0  0  0  0
  196.1590  175.9810  143.3040 C   0  0  1  0  0  0  0  0  0  0  0  0
  193.6140  174.6280  142.4740 O   0  0  0  0  0  0  0  0  0  0  0  0
  194.6220  174.7420  141.7240 C   0  0  0  0  0  0  0  0  0  0  0  0
  194.9850  171.2340  140.4230 C   0  0  2  0  0  3  0  0  0  0  0  0
  194.1570  170.3430  141.1110 O   0  0  0  0  0  1  0  0  0  0  0  0
  196.1950  170.5160  139.9150 C   0  0  0  0  0  3  0  0  0  0  0  0
  196.2140  169.2960  139.8610 O   0  0  0  0  0  0  0  0  0  0  0  0
  1  4  1  0  0  0  0
  1  8  1  1  0  0  0
  2  9  1  6  0  0  0
  2  4  1  0  0  0  0
  3  5  1  0  0  0  0
  3  6  1  0  0  0  0
  5  2  1  0  0  0  0
  6 30  1  6  0  0  0
  6  1  1  0  0  0  0
  8  7  1  0  0  0  0
 11  9  1  6  0  0  0
 11 12  1  0  0  0  0
 12 19  1  6  0  0  0
 12 10  1  0  0  0  0
 13 14  1  0  0  0  0
 13 17  1  0  0  0  0
 14 11  1  0  0  0  0
 15 10  2  0  0  0  0
 16 15  2  0  0  0  0
 16 18  1  0  0  0  0
 17 16  1  0  0  0  0
 19 20  1  0  0  0  0
 20 21  1  0  0  0  0
 22 26  2  0  0  0  0
 22 29  1  0  0  0  0
 23 26  1  0  0  0  0
 24 21  1  6  0  0  0
 24 22  1  0  0  0  0
 25 23  1  0  0  0  0
 27 25  1  0  0  0  0
 27 24  1  0  0  0  0
 28 29  1  0  0  0  0
 31 30  1  0  0  0  0
 32 31  1  0  0  0  0
 32 33  1  0  0  0  0
 33 34  1  0  0  0  0
 34 35  1  0  0  0  0
 35 42  1  0  0  0  0
 35 48  1  0  0  0  0
 36 41  1  0  0  0  0
 39 46  1  0  0  0  0
 40 39  1  0  0  0  0
 41 45  1  1  0  0  0
 42 49  1  6  0  0  0
 42 43  1  0  0  0  0
 43 44  1  0  0  0  0
 44 41  1  0  0  0  0
 46 38  1  6  0  0  0
 46 36  1  0  0  0  0
 46 37  1  0  0  0  0
 48 39  1  0  0  0  0
 48 47  2  0  0  0  0
 49 50  1  1  0  0  0
 51 49  1  0  0  0  0
 52 51  2  0  0  0  0
M  END
>  <MODEL>
2

>  <REMARK>
 VINA RESULT:      -7.0      2.959      6.399
  Name = 
  16 active torsions:
  status: ('A' for Active; 'I' for Inactive)
    1  A    between atoms: C_1  and  O_7
    2  A    between atoms: C_1  and  C_23
    3  A    between atoms: N_2  and  C_49
    4  A    between atoms: C_4  and  O_17
    5  A    between atoms: C_5  and  C_38
    6  A    between atoms: C_6  and  C_27
    7  A    between atoms: C_6  and  C_34
    8  A    between atoms: O_7  and  C_41
    9  A    between atoms: C_8  and  N_15
   10  A    between atoms: C_12  and  N_15
   11  A    between atoms: C_19  and  C_27
   12  A    between atoms: C_21  and  C_34
   13  A    between atoms: C_23  and  C_29
   14  A    between atoms: C_26  and  C_35
   15  A    between atoms: C_26  and  C_36
   16  A    between atoms: C_29  and  C_49
                            x       y       z     vdW  Elec       q    Type
                         _______ _______ _______ _____ _____    ______ ____

>  <TORSDO>
F 16

$$$$
=
 OpenBabel11042415573D

 52 55  0  0  1  0  0  0  0  0999 V2000
  188.4920  172.9990  139.9880 C   0  0  2  0  0  3  0  0  0  0  0  0
  188.6170  175.0960  141.3980 C   0  0  2  0  0  3  0  0  0  0  0  0
  190.0580  173.1000  141.9420 C   0  0  0  0  0  2  0  0  0  0  0  0
  188.3800  174.5240  139.9980 C   0  0  0  0  0  2  0  0  0  0  0  0
  189.9710  174.6230  141.9400 C   0  0  0  0  0  2  0  0  0  0  0  0
  189.8660  172.5770  140.5220 C   0  0  1  0  0  3  0  0  0  0  0  0
  188.8190  173.5620  137.8760 C   0  0  0  0  0  1  0  0  0  0  0  0
  188.3210  172.5360  138.6820 O   0  0  0  0  0  0  0  0  0  0  0  0
  187.5310  174.7050  142.2870 N   0  0  0  0  0  2  0  0  0  0  0  0
  186.0100  176.8760  144.9990 C   0  0  0  0  0  3  0  0  0  0  0  0
  186.9350  175.9180  142.8230 C   0  0  1  0  0  3  0  0  0  0  0  0
  186.9480  175.8900  144.3660 C   0  0  1  0  0  3  0  0  0  0  0  0
  186.6140  178.0480  141.5560 C   0  0  0  0  0  2  0  0  0  0  0  0
  187.6350  177.1440  142.2300 C   0  0  0  0  0  2  0  0  0  0  0  0
  185.7790  178.0160  144.4050 C   0  0  0  0  0  0  0  0  0  0  0  0
  185.6420  179.1010  143.6940 C   0  0  0  0  0  0  0  0  0  0  0  0
  186.2520  179.1910  142.4020 N   0  0  0  0  0  2  0  0  0  0  0  0
  185.0840  180.2760  144.2860 N   0  0  0  0  0  1  0  0  0  0  0  0
  188.3530  175.9870  144.9490 C   0  0  0  0  0  2  0  0  0  0  0  0
  188.3800  177.0030  146.0820 C   0  0  0  0  0  2  0  0  0  0  0  0
  189.7990  177.4810  146.3410 C   0  0  0  0  0  2  0  0  0  0  0  0
  191.7740  177.0230  144.8540 C   0  0  0  0  0  0  0  0  0  0  0  0
  193.7270  176.0900  146.0970 C   0  0  0  0  0  2  0  0  0  0  0  0
  190.8050  176.4370  145.8700 C   0  0  1  0  0  3  0  0  0  0  0  0
  192.7650  175.0720  146.6910 C   0  0  0  0  0  2  0  0  0  0  0  0
  193.1000  176.8060  144.9330 C   0  0  0  0  0  3  0  0  0  0  0  0
  191.4850  175.7940  147.0890 C   0  0  0  0  0  2  0  0  0  0  0  0
  191.4160  179.1010  143.7650 O   0  0  0  0  0  1  0  0  0  0  0  0
  191.2310  177.7200  143.6430 C   0  0  0  0  0  2  0  0  0  0  0  0
  189.9850  171.1830  140.5090 O   0  0  0  0  0  0  0  0  0  0  0  0
  190.6350  170.8660  141.7040 C   0  0  0  0  0  2  0  0  0  0  0  0
  191.7250  169.8430  141.4490 C   0  0  0  0  0  2  0  0  0  0  0  0
  192.7460  169.9030  142.5660 C   0  0  0  0  0  2  0  0  0  0  0  0
  194.0020  170.5870  142.0690 C   0  0  0  0  0  2  0  0  0  0  0  0
  194.2950  171.7610  142.8860 N   0  0  0  0  0  0  0  0  0  0  0  0
  195.7090  174.8640  141.2650 O   0  0  0  0  0  0  0  0  0  0  0  0
  193.6620  175.8200  141.8150 F   0  0  0  0  0  0  0  0  0  0  0  0
  194.1060  175.2320  139.6940 O   0  0  0  0  0  1  0  0  0  0  0  0
  193.7310  173.5430  141.2640 N   0  0  0  0  0  0  0  0  0  0  0  0
  193.3680  172.7710  140.2080 O   0  0  0  0  0  1  0  0  0  0  0  0
  195.9690  174.8310  142.6480 C   0  0  1  0  0  3  0  0  0  0  0  0
  195.5770  171.8660  143.5880 C   0  0  2  0  0  3  0  0  0  0  0  0
  196.9170  172.2050  142.3980 S   0  0  0  0  0  0  0  0  0  0  0  0
  197.1650  173.9300  142.9470 C   0  0  0  0  0  2  0  0  0  0  0  0
  196.2830  176.2320  143.1430 C   0  0  0  0  0  1  0  0  0  0  0  0
  194.3090  174.8740  141.0280 C   0  0  1  0  0  0  0  0  0  0  0  0
  193.1390  173.6770  143.5170 O   0  0  0  0  0  0  0  0  0  0  0  0
  193.6430  172.9950  142.5840 C   0  0  0  0  0  0  0  0  0  0  0  0
  195.8930  170.6650  144.4910 C   0  0  2  0  0  3  0  0  0  0  0  0
  194.9420  170.5180  145.5030 O   0  0  0  0  0  1  0  0  0  0  0  0
  197.2620  170.7640  145.0880 C   0  0  0  0  0  3  0  0  0  0  0  0
  197.6590  169.9110  145.8670 O   0  0  0  0  0  0  0  0  0  0  0  0
  1  8  1  6  0  0  0
  1  4  1  0  0  0  0
  1  6  1  0  0  0  0
  2  5  1  0  0  0  0
  2  9  1  1  0  0  0
  4  2  1  0  0  0  0
  5  3  1  0  0  0  0
  6 30  1  1  0  0  0
  6  3  1  0  0  0  0
  7  8  1  0  0  0  0
 11  9  1  6  0  0  0
 11 12  1  0  0  0  0
 12 19  1  1  0  0  0
 12 10  1  0  0  0  0
 13 14  1  0  0  0  0
 13 17  1  0  0  0  0
 14 11  1  0  0  0  0
 15 10  2  0  0  0  0
 16 18  1  0  0  0  0
 16 15  2  0  0  0  0
 17 16  1  0  0  0  0
 19 20  1  0  0  0  0
 20 21  1  0  0  0  0
 22 26  2  0  0  0  0
 22 24  1  0  0  0  0
 23 25  1  0  0  0  0
 24 21  1  1  0  0  0
 24 27  1  0  0  0  0
 25 27  1  0  0  0  0
 26 23  1  0  0  0  0
 29 28  1  0  0  0  0
 29 22  1  0  0  0  0
 30 31  1  0  0  0  0
 32 31  1  0  0  0  0
 32 33  1  0  0  0  0
 34 33  1  0  0  0  0
 34 35  1  0  0  0  0
 35 42  1  0  0  0  0
 36 41  1  0  0  0  0
 39 48  1  0  0  0  0
 40 39  1  0  0  0  0
 41 44  1  0  0  0  0
 41 45  1  6  0  0  0
 42 49  1  6  0  0  0
 43 44  1  0  0  0  0
 43 42  1  0  0  0  0
 46 38  1  6  0  0  0
 46 39  1  0  0  0  0
 46 36  1  0  0  0  0
 46 37  1  0  0  0  0
 48 35  1  0  0  0  0
 48 47  2  0  0  0  0
 49 51  1  0  0  0  0
 49 50  1  1  0  0  0
 51 52  2  0  0  0  0
M  END
>  <MODEL>
3

>  <REMARK>
 VINA RESULT:      -7.0      2.669      6.380
  Name = 
  16 active torsions:
  status: ('A' for Active; 'I' for Inactive)
    1  A    between atoms: C_1  and  O_7
    2  A    between atoms: C_1  and  C_23
    3  A    between atoms: N_2  and  C_49
    4  A    between atoms: C_4  and  O_17
    5  A    between atoms: C_5  and  C_38
    6  A    between atoms: C_6  and  C_27
    7  A    between atoms: C_6  and  C_34
    8  A    between atoms: O_7  and  C_41
    9  A    between atoms: C_8  and  N_15
   10  A    between atoms: C_12  and  N_15
   11  A    between atoms: C_19  and  C_27
   12  A    between atoms: C_21  and  C_34
   13  A    between atoms: C_23  and  C_29
   14  A    between atoms: C_26  and  C_35
   15  A    between atoms: C_26  and  C_36
   16  A    between atoms: C_29  and  C_49
                            x       y       z     vdW  Elec       q    Type
                         _______ _______ _______ _____ _____    ______ ____

>  <TORSDO>
F 16

$$$$
=
 OpenBabel11042415573D

 52 55  0  0  1  0  0  0  0  0999 V2000
  190.4710  170.6400  139.3700 C   0  0  2  0  0  3  0  0  0  0  0  0
  189.7790  173.0200  139.8730 C   0  0  2  0  0  3  0  0  0  0  0  0
  192.0970  172.2120  140.4490 C   0  0  0  0  0  2  0  0  0  0  0  0
  189.6130  171.8270  138.9300 C   0  0  0  0  0  2  0  0  0  0  0  0
  191.2590  173.4010  139.9900 C   0  0  0  0  0  2  0  0  0  0  0  0
  191.9410  171.0650  139.4550 C   0  0  1  0  0  3  0  0  0  0  0  0
  189.8300  170.2190  137.2980 C   0  0  0  0  0  1  0  0  0  0  0  0
  190.3230  169.6010  138.4490 O   0  0  0  0  0  0  0  0  0  0  0  0
  189.2150  172.7060  141.1790 N   0  0  0  0  0  2  0  0  0  0  0  0
  189.6700  176.2190  142.5340 C   0  0  0  0  0  3  0  0  0  0  0  0
  189.6950  173.7010  142.1240 C   0  0  1  0  0  3  0  0  0  0  0  0
  188.9740  175.0480  141.9030 C   0  0  1  0  0  3  0  0  0  0  0  0
  190.9110  173.2010  144.2500 C   0  0  0  0  0  2  0  0  0  0  0  0
  189.5600  173.1640  143.5520 C   0  0  0  0  0  2  0  0  0  0  0  0
  190.3350  176.0500  143.6440 C   0  0  0  0  0  0  0  0  0  0  0  0
  190.9610  175.7270  144.7430 C   0  0  0  0  0  0  0  0  0  0  0  0
  191.0330  174.3550  145.1470 N   0  0  0  0  0  2  0  0  0  0  0  0
  191.3750  176.7460  145.6540 N   0  0  0  0  0  1  0  0  0  0  0  0
  187.4970  174.9980  142.2750 C   0  0  0  0  0  2  0  0  0  0  0  0
  186.9180  176.4060  142.3100 C   0  0  0  0  0  2  0  0  0  0  0  0
  186.0560  176.6010  143.5460 C   0  0  0  0  0  2  0  0  0  0  0  0
  185.8890  178.6060  145.0540 C   0  0  0  0  0  0  0  0  0  0  0  0
  186.4260  178.0760  147.4340 C   0  0  0  0  0  2  0  0  0  0  0  0
  186.7790  177.4730  144.5670 C   0  0  1  0  0  3  0  0  0  0  0  0
  187.6950  177.4130  146.9190 C   0  0  0  0  0  2  0  0  0  0  0  0
  185.7840  178.9110  146.3610 C   0  0  0  0  0  3  0  0  0  0  0  0
  187.3430  176.5880  145.6890 C   0  0  0  0  0  2  0  0  0  0  0  0
  183.8760  179.2170  143.9550 O   0  0  0  0  0  1  0  0  0  0  0  0
  185.2400  179.5100  144.0510 C   0  0  0  0  0  2  0  0  0  0  0  0
  192.7370  169.9850  139.8490 O   0  0  0  0  0  0  0  0  0  0  0  0
  193.9750  170.2080  139.2400 C   0  0  0  0  0  2  0  0  0  0  0  0
  195.0720  170.2430  140.2860 C   0  0  0  0  0  2  0  0  0  0  0  0
  195.7100  171.6160  140.3030 C   0  0  0  0  0  2  0  0  0  0  0  0
  196.4540  171.8150  141.6080 C   0  0  0  0  0  2  0  0  0  0  0  0
  195.5580  172.3640  142.6210 N   0  0  0  0  0  0  0  0  0  0  0  0
  196.5330  175.5080  144.4720 O   0  0  0  0  0  0  0  0  0  0  0  0
  194.7510  176.4720  143.3320 F   0  0  0  0  0  0  0  0  0  0  0  0
  196.8630  176.8990  142.7040 O   0  0  0  0  0  1  0  0  0  0  0  0
  195.9810  174.7790  142.2760 N   0  0  0  0  0  0  0  0  0  0  0  0
  196.8990  174.7000  141.2790 O   0  0  0  0  0  1  0  0  0  0  0  0
  195.5690  174.7620  145.1760 C   0  0  1  0  0  3  0  0  0  0  0  0
  195.6050  171.8590  143.9950 C   0  0  2  0  0  3  0  0  0  0  0  0
  197.1150  172.4500  144.8290 S   0  0  0  0  0  0  0  0  0  0  0  0
  196.2280  173.6090  145.9290 C   0  0  0  0  0  2  0  0  0  0  0  0
  194.8660  175.6580  146.1830 C   0  0  0  0  0  1  0  0  0  0  0  0
  196.0170  175.9120  143.2120 C   0  0  1  0  0  0  0  0  0  0  0  0
  193.8390  173.9300  142.6450 O   0  0  0  0  0  0  0  0  0  0  0  0
  195.0640  173.6940  142.4580 C   0  0  0  0  0  0  0  0  0  0  0  0
  195.4400  170.3360  144.1040 C   0  0  2  0  0  3  0  0  0  0  0  0
  194.0940  169.9620  144.0850 O   0  0  0  0  0  1  0  0  0  0  0  0
  196.1020  169.7920  145.3310 C   0  0  0  0  0  3  0  0  0  0  0  0
  195.4440  169.5280  146.3240 O   0  0  0  0  0  0  0  0  0  0  0  0
  1  8  1  6  0  0  0
  1  6  1  0  0  0  0
  2  5  1  0  0  0  0
  2  9  1  1  0  0  0
  4  1  1  0  0  0  0
  4  2  1  0  0  0  0
  5  3  1  0  0  0  0
  6 30  1  1  0  0  0
  6  3  1  0  0  0  0
  7  8  1  0  0  0  0
 10 15  2  0  0  0  0
 11  9  1  6  0  0  0
 11 14  1  0  0  0  0
 12 11  1  0  0  0  0
 12 19  1  1  0  0  0
 12 10  1  0  0  0  0
 13 17  1  0  0  0  0
 14 13  1  0  0  0  0
 15 16  2  0  0  0  0
 16 17  1  0  0  0  0
 16 18  1  0  0  0  0
 19 20  1  0  0  0  0
 20 21  1  0  0  0  0
 22 26  2  0  0  0  0
 24 21  1  6  0  0  0
 24 22  1  0  0  0  0
 24 27  1  0  0  0  0
 25 23  1  0  0  0  0
 26 23  1  0  0  0  0
 27 25  1  0  0  0  0
 28 29  1  0  0  0  0
 29 22  1  0  0  0  0
 31 30  1  0  0  0  0
 31 32  1  0  0  0  0
 32 33  1  0  0  0  0
 33 34  1  0  0  0  0
 34 35  1  0  0  0  0
 35 42  1  0  0  0  0
 36 41  1  0  0  0  0
 39 48  1  0  0  0  0
 39 46  1  0  0  0  0
 40 39  1  0  0  0  0
 41 44  1  0  0  0  0
 41 45  1  1  0  0  0
 42 49  1  6  0  0  0
 42 43  1  0  0  0  0
 43 44  1  0  0  0  0
 46 38  1  6  0  0  0
 46 37  1  0  0  0  0
 46 36  1  0  0  0  0
 48 35  1  0  0  0  0
 48 47  2  0  0  0  0
 49 50  1  1  0  0  0
 49 51  1  0  0  0  0
 51 52  2  0  0  0  0
M  END
>  <MODEL>
4

>  <REMARK>
 VINA RESULT:      -6.7      2.815      6.087
  Name = 
  16 active torsions:
  status: ('A' for Active; 'I' for Inactive)
    1  A    between atoms: C_1  and  O_7
    2  A    between atoms: C_1  and  C_23
    3  A    between atoms: N_2  and  C_49
    4  A    between atoms: C_4  and  O_17
    5  A    between atoms: C_5  and  C_38
    6  A    between atoms: C_6  and  C_27
    7  A    between atoms: C_6  and  C_34
    8  A    between atoms: O_7  and  C_41
    9  A    between atoms: C_8  and  N_15
   10  A    between atoms: C_12  and  N_15
   11  A    between atoms: C_19  and  C_27
   12  A    between atoms: C_21  and  C_34
   13  A    between atoms: C_23  and  C_29
   14  A    between atoms: C_26  and  C_35
   15  A    between atoms: C_26  and  C_36
   16  A    between atoms: C_29  and  C_49
                            x       y       z     vdW  Elec       q    Type
                         _______ _______ _______ _____ _____    ______ ____

>  <TORSDO>
F 16

$$$$
=
 OpenBabel11042415573D

 52 55  0  0  1  0  0  0  0  0999 V2000
  190.7880  176.3410  146.7560 C   0  0  2  0  0  3  0  0  0  0  0  0
  189.3710  174.7740  145.3640 C   0  0  2  0  0  3  0  0  0  0  0  0
  191.8550  174.4000  145.5830 C   0  0  0  0  0  2  0  0  0  0  0  0
  189.4150  175.6860  146.5920 C   0  0  0  0  0  2  0  0  0  0  0  0
  190.4920  173.7300  145.4390 C   0  0  0  0  0  2  0  0  0  0  0  0
  191.8710  175.2590  146.8430 C   0  0  1  0  0  3  0  0  0  0  0  0
  189.7440  178.0250  147.7330 C   0  0  0  0  0  1  0  0  0  0  0  0
  190.7890  177.1170  147.9160 O   0  0  0  0  0  0  0  0  0  0  0  0
  189.4760  175.5680  144.1480 N   0  0  0  0  0  2  0  0  0  0  0  0
  187.6400  173.7120  141.3970 C   0  0  0  0  0  3  0  0  0  0  0  0
  189.3680  174.6650  143.0140 C   0  0  1  0  0  3  0  0  0  0  0  0
  188.0110  174.8500  142.3030 C   0  0  1  0  0  3  0  0  0  0  0  0
  191.2880  173.5250  141.8920 C   0  0  0  0  0  2  0  0  0  0  0  0
  190.5730  174.8530  142.0870 C   0  0  0  0  0  2  0  0  0  0  0  0
  188.5790  173.0550  140.7720 C   0  0  0  0  0  0  0  0  0  0  0  0
  189.6210  172.4920  140.2240 C   0  0  0  0  0  0  0  0  0  0  0  0
  190.9380  172.8970  140.6120 N   0  0  0  0  0  2  0  0  0  0  0  0
  189.4580  171.6440  139.0870 N   0  0  0  0  0  1  0  0  0  0  0  0
  187.8890  176.1980  141.6000 C   0  0  0  0  0  2  0  0  0  0  0  0
  186.5560  176.8480  141.9440 C   0  0  0  0  0  2  0  0  0  0  0  0
  186.0350  176.3320  143.2750 C   0  0  0  0  0  2  0  0  0  0  0  0
  184.8200  178.3040  144.2530 C   0  0  0  0  0  0  0  0  0  0  0  0
  184.4780  178.1070  146.7190 C   0  0  0  0  0  2  0  0  0  0  0  0
  186.0690  177.4390  144.3240 C   0  0  1  0  0  3  0  0  0  0  0  0
  185.9640  177.7960  146.8220 C   0  0  0  0  0  2  0  0  0  0  0  0
  184.1380  178.6540  145.3600 C   0  0  0  0  0  3  0  0  0  0  0  0
  186.3320  176.8250  145.7080 C   0  0  0  0  0  2  0  0  0  0  0  0
  183.3750  178.2010  142.3730 O   0  0  0  0  0  1  0  0  0  0  0  0
  184.4300  178.9200  142.9440 C   0  0  0  0  0  2  0  0  0  0  0  0
  193.1310  175.8450  147.0020 O   0  0  0  0  0  0  0  0  0  0  0  0
  193.4820  176.2990  145.7290 C   0  0  0  0  0  2  0  0  0  0  0  0
  194.9840  176.4830  145.6350 C   0  0  0  0  0  2  0  0  0  0  0  0
  195.4070  176.4580  144.1820 C   0  0  0  0  0  2  0  0  0  0  0  0
  196.4390  175.3690  143.9720 C   0  0  0  0  0  2  0  0  0  0  0  0
  195.8290  174.2130  143.3220 N   0  0  0  0  0  0  0  0  0  0  0  0
  197.0310  170.7360  144.1750 O   0  0  0  0  0  0  0  0  0  0  0  0
  194.9230  170.4760  145.1220 F   0  0  0  0  0  0  0  0  0  0  0  0
  196.7240  170.7750  146.4290 O   0  0  0  0  0  1  0  0  0  0  0  0
  195.9350  172.5890  145.1870 N   0  0  0  0  0  0  0  0  0  0  0  0
  196.5320  173.3700  146.1230 O   0  0  0  0  0  1  0  0  0  0  0  0
  196.3730  170.7730  142.9310 C   0  0  1  0  0  3  0  0  0  0  0  0
  196.3090  173.7690  142.0110 C   0  0  2  0  0  3  0  0  0  0  0  0
  197.9410  172.9710  142.1780 S   0  0  0  0  0  0  0  0  0  0  0  0
  197.3140  171.2880  141.8440 C   0  0  0  0  0  2  0  0  0  0  0  0
  195.9170  169.3740  142.5530 C   0  0  0  0  0  1  0  0  0  0  0  0
  196.1440  171.1340  145.2110 C   0  0  1  0  0  0  0  0  0  0  0  0
  194.0660  172.7750  143.8020 O   0  0  0  0  0  0  0  0  0  0  0  0
  195.2010  173.2170  144.1300 C   0  0  0  0  0  0  0  0  0  0  0  0
  196.3090  174.8710  140.9420 C   0  0  2  0  0  3  0  0  0  0  0  0
  195.4070  174.5900  139.9130 O   0  0  0  0  0  1  0  0  0  0  0  0
  197.6750  175.0950  140.3740 C   0  0  0  0  0  3  0  0  0  0  0  0
  197.8250  175.7740  139.3700 O   0  0  0  0  0  0  0  0  0  0  0  0
  1  6  1  0  0  0  0
  1  8  1  1  0  0  0
  2  9  1  6  0  0  0
  2  5  1  0  0  0  0
  2  4  1  0  0  0  0
  3  6  1  0  0  0  0
  4  1  1  0  0  0  0
  5  3  1  0  0  0  0
  6 30  1  6  0  0  0
  7  8  1  0  0  0  0
 10 12  1  0  0  0  0
 11  9  1  1  0  0  0
 12 19  1  6  0  0  0
 12 11  1  0  0  0  0
 13 14  1  0  0  0  0
 14 11  1  0  0  0  0
 15 10  2  0  0  0  0
 16 17  1  0  0  0  0
 16 15  2  0  0  0  0
 17 13  1  0  0  0  0
 18 16  1  0  0  0  0
 19 20  1  0  0  0  0
 20 21  1  0  0  0  0
 22 24  1  0  0  0  0
 22 26  2  0  0  0  0
 23 25  1  0  0  0  0
 24 21  1  6  0  0  0
 24 27  1  0  0  0  0
 26 23  1  0  0  0  0
 27 25  1  0  0  0  0
 28 29  1  0  0  0  0
 29 22  1  0  0  0  0
 31 30  1  0  0  0  0
 32 31  1  0  0  0  0
 33 32  1  0  0  0  0
 34 33  1  0  0  0  0
 35 34  1  0  0  0  0
 35 48  1  0  0  0  0
 36 46  1  0  0  0  0
 39 46  1  0  0  0  0
 39 40  1  0  0  0  0
 41 45  1  6  0  0  0
 41 36  1  0  0  0  0
 42 49  1  6  0  0  0
 42 43  1  0  0  0  0
 42 35  1  0  0  0  0
 44 43  1  0  0  0  0
 44 41  1  0  0  0  0
 46 37  1  6  0  0  0
 46 38  1  0  0  0  0
 47 48  2  0  0  0  0
 48 39  1  0  0  0  0
 49 50  1  6  0  0  0
 51 49  1  0  0  0  0
 52 51  2  0  0  0  0
M  END
>  <MODEL>
5

>  <REMARK>
 VINA RESULT:      -6.7      3.176      6.095
  Name = 
  16 active torsions:
  status: ('A' for Active; 'I' for Inactive)
    1  A    between atoms: C_1  and  O_7
    2  A    between atoms: C_1  and  C_23
    3  A    between atoms: N_2  and  C_49
    4  A    between atoms: C_4  and  O_17
    5  A    between atoms: C_5  and  C_38
    6  A    between atoms: C_6  and  C_27
    7  A    between atoms: C_6  and  C_34
    8  A    between atoms: O_7  and  C_41
    9  A    between atoms: C_8  and  N_15
   10  A    between atoms: C_12  and  N_15
   11  A    between atoms: C_19  and  C_27
   12  A    between atoms: C_21  and  C_34
   13  A    between atoms: C_23  and  C_29
   14  A    between atoms: C_26  and  C_35
   15  A    between atoms: C_26  and  C_36
   16  A    between atoms: C_29  and  C_49
                            x       y       z     vdW  Elec       q    Type
                         _______ _______ _______ _____ _____    ______ ____

>  <TORSDO>
F 16

$$$$
=
 OpenBabel11042415573D

 52 55  0  0  1  0  0  0  0  0999 V2000
  194.4580  175.8310  144.3630 C   0  0  2  0  0  3  0  0  0  0  0  0
  192.7750  173.9820  144.7470 C   0  0  2  0  0  3  0  0  0  0  0  0
  194.5560  173.7440  142.9780 C   0  0  0  0  0  2  0  0  0  0  0  0
  193.5860  175.1090  145.3910 C   0  0  0  0  0  2  0  0  0  0  0  0
  193.7080  173.0110  144.0120 C   0  0  0  0  0  2  0  0  0  0  0  0
  195.3820  174.8240  143.6690 C   0  0  1  0  0  3  0  0  0  0  0  0
  194.4880  177.1080  146.1660 C   0  0  0  0  0  1  0  0  0  0  0  0
  195.2140  176.8100  145.0110 O   0  0  0  0  0  0  0  0  0  0  0  0
  191.7800  174.5380  143.8410 N   0  0  0  0  0  2  0  0  0  0  0  0
  189.9870  177.7500  144.7640 C   0  0  0  0  0  3  0  0  0  0  0  0
  190.8730  175.3630  144.6250 C   0  0  1  0  0  3  0  0  0  0  0  0
  190.5650  176.6810  143.8840 C   0  0  1  0  0  3  0  0  0  0  0  0
  189.4290  174.5420  146.4920 C   0  0  0  0  0  2  0  0  0  0  0  0
  189.6220  174.5570  144.9830 C   0  0  0  0  0  2  0  0  0  0  0  0
  189.2230  177.4140  145.7680 C   0  0  0  0  0  0  0  0  0  0  0  0
  188.4890  176.9260  146.7300 C   0  0  0  0  0  0  0  0  0  0  0  0
  188.4150  175.5100  146.9240 N   0  0  0  0  0  2  0  0  0  0  0  0
  187.5870  177.7770  147.4400 N   0  0  0  0  0  1  0  0  0  0  0  0
  189.7340  176.4720  142.6230 C   0  0  0  0  0  2  0  0  0  0  0  0
  188.8810  177.7030  142.3490 C   0  0  0  0  0  2  0  0  0  0  0  0
  187.4230  177.3150  142.1660 C   0  0  0  0  0  2  0  0  0  0  0  0
  185.1280  178.3140  141.9300 C   0  0  0  0  0  0  0  0  0  0  0  0
  184.0480  178.7930  144.1290 C   0  0  0  0  0  2  0  0  0  0  0  0
  186.5120  178.4810  142.5360 C   0  0  1  0  0  3  0  0  0  0  0  0
  185.3320  179.5140  144.5150 C   0  0  0  0  0  2  0  0  0  0  0  0
  184.0100  178.5190  142.6510 C   0  0  0  0  0  3  0  0  0  0  0  0
  186.5130  178.6680  144.0610 C   0  0  0  0  0  2  0  0  0  0  0  0
  183.6470  178.0150  140.0990 O   0  0  0  0  0  1  0  0  0  0  0  0
  184.9980  178.0750  140.4560 C   0  0  0  0  0  2  0  0  0  0  0  0
  196.1930  175.4740  142.7320 O   0  0  0  0  0  0  0  0  0  0  0  0
  196.3330  174.5630  141.6820 C   0  0  0  0  0  2  0  0  0  0  0  0
  196.6350  175.2970  140.3910 C   0  0  0  0  0  2  0  0  0  0  0  0
  195.4120  175.2740  139.4980 C   0  0  0  0  0  2  0  0  0  0  0  0
  194.9760  173.8410  139.2710 C   0  0  0  0  0  2  0  0  0  0  0  0
  194.1850  173.7400  138.0490 N   0  0  0  0  0  0  0  0  0  0  0  0
  190.8950  171.8870  138.0980 O   0  0  0  0  0  0  0  0  0  0  0  0
  189.9570  173.9850  137.7390 F   0  0  0  0  0  0  0  0  0  0  0  0
  189.8470  173.0250  139.7660 O   0  0  0  0  0  1  0  0  0  0  0  0
  191.9110  173.8280  139.0250 N   0  0  0  0  0  0  0  0  0  0  0  0
  192.2400  173.9260  140.3380 O   0  0  0  0  0  1  0  0  0  0  0  0
  191.4180  171.9920  136.7960 C   0  0  1  0  0  3  0  0  0  0  0  0
  194.4630  172.6800  137.0780 C   0  0  2  0  0  3  0  0  0  0  0  0
  193.8960  171.0720  137.7260 S   0  0  0  0  0  0  0  0  0  0  0  0
  192.4940  170.9340  136.5640 C   0  0  0  0  0  2  0  0  0  0  0  0
  190.3070  171.7830  135.7810 C   0  0  0  0  0  1  0  0  0  0  0  0
  190.6510  173.1790  138.6350 C   0  0  1  0  0  0  0  0  0  0  0  0
  192.4740  174.9760  137.0710 O   0  0  0  0  0  0  0  0  0  0  0  0
  192.8560  174.2650  138.0410 C   0  0  0  0  0  0  0  0  0  0  0  0
  195.9250  172.6330  136.6090 C   0  0  2  0  0  3  0  0  0  0  0  0
  196.0170  172.6370  135.2150 O   0  0  0  0  0  1  0  0  0  0  0  0
  196.6500  171.4480  137.1640 C   0  0  0  0  0  3  0  0  0  0  0  0
  197.6340  171.0020  136.5950 O   0  0  0  0  0  0  0  0  0  0  0  0
  1  8  1  1  0  0  0
  1  4  1  0  0  0  0
  2  9  1  6  0  0  0
  2  4  1  0  0  0  0
  3  6  1  0  0  0  0
  3  5  1  0  0  0  0
  5  2  1  0  0  0  0
  6 30  1  6  0  0  0
  6  1  1  0  0  0  0
  8  7  1  0  0  0  0
 10 15  2  0  0  0  0
 11  9  1  6  0  0  0
 11 14  1  0  0  0  0
 12 19  1  6  0  0  0
 12 11  1  0  0  0  0
 12 10  1  0  0  0  0
 13 17  1  0  0  0  0
 14 13  1  0  0  0  0
 15 16  2  0  0  0  0
 16 17  1  0  0  0  0
 16 18  1  0  0  0  0
 20 19  1  0  0  0  0
 21 20  1  0  0  0  0
 22 24  1  0  0  0  0
 22 26  2  0  0  0  0
 23 25  1  0  0  0  0
 24 21  1  1  0  0  0
 24 27  1  0  0  0  0
 26 23  1  0  0  0  0
 27 25  1  0  0  0  0
 28 29  1  0  0  0  0
 29 22  1  0  0  0  0
 31 30  1  0  0  0  0
 32 31  1  0  0  0  0
 33 32  1  0  0  0  0
 34 33  1  0  0  0  0
 35 34  1  0  0  0  0
 36 46  1  0  0  0  0
 39 40  1  0  0  0  0
 41 45  1  6  0  0  0
 41 36  1  0  0  0  0
 42 49  1  1  0  0  0
 42 43  1  0  0  0  0
 42 35  1  0  0  0  0
 44 41  1  0  0  0  0
 44 43  1  0  0  0  0
 46 37  1  6  0  0  0
 46 39  1  0  0  0  0
 46 38  1  0  0  0  0
 47 48  2  0  0  0  0
 48 35  1  0  0  0  0
 48 39  1  0  0  0  0
 49 50  1  6  0  0  0
 49 51  1  0  0  0  0
 52 51  2  0  0  0  0
M  END
>  <MODEL>
6

>  <REMARK>
 VINA RESULT:      -6.5      1.890      2.799
  Name = 
  16 active torsions:
  status: ('A' for Active; 'I' for Inactive)
    1  A    between atoms: C_1  and  O_7
    2  A    between atoms: C_1  and  C_23
    3  A    between atoms: N_2  and  C_49
    4  A    between atoms: C_4  and  O_17
    5  A    between atoms: C_5  and  C_38
    6  A    between atoms: C_6  and  C_27
    7  A    between atoms: C_6  and  C_34
    8  A    between atoms: O_7  and  C_41
    9  A    between atoms: C_8  and  N_15
   10  A    between atoms: C_12  and  N_15
   11  A    between atoms: C_19  and  C_27
   12  A    between atoms: C_21  and  C_34
   13  A    between atoms: C_23  and  C_29
   14  A    between atoms: C_26  and  C_35
   15  A    between atoms: C_26  and  C_36
   16  A    between atoms: C_29  and  C_49
                            x       y       z     vdW  Elec       q    Type
                         _______ _______ _______ _____ _____    ______ ____

>  <TORSDO>
F 16

$$$$
=
 OpenBabel11042415573D

 52 55  0  0  1  0  0  0  0  0999 V2000
  188.5590  173.0060  139.7990 C   0  0  2  0  0  3  0  0  0  0  0  0
  188.6840  175.0510  141.2830 C   0  0  2  0  0  3  0  0  0  0  0  0
  190.0890  173.0190  141.7840 C   0  0  0  0  0  2  0  0  0  0  0  0
  188.4650  174.5320  139.8600 C   0  0  0  0  0  2  0  0  0  0  0  0
  190.0210  174.5420  141.8340 C   0  0  0  0  0  2  0  0  0  0  0  0
  189.9170  172.5480  140.3430 C   0  0  1  0  0  3  0  0  0  0  0  0
  189.2150  173.4580  137.7380 C   0  0  0  0  0  1  0  0  0  0  0  0
  188.4060  172.5910  138.4750 O   0  0  0  0  0  0  0  0  0  0  0  0
  187.5770  174.6450  142.1380 N   0  0  0  0  0  2  0  0  0  0  0  0
  186.0660  176.7570  144.9020 C   0  0  0  0  0  3  0  0  0  0  0  0
  186.9840  175.8460  142.7030 C   0  0  1  0  0  3  0  0  0  0  0  0
  187.0000  175.7830  144.2450 C   0  0  1  0  0  3  0  0  0  0  0  0
  186.6650  178.0050  141.4860 C   0  0  0  0  0  2  0  0  0  0  0  0
  187.6850  177.0840  142.1360 C   0  0  0  0  0  2  0  0  0  0  0  0
  185.8360  177.9100  144.3350 C   0  0  0  0  0  0  0  0  0  0  0  0
  185.7000  179.0120  143.6490 C   0  0  0  0  0  0  0  0  0  0  0  0
  186.3070  179.1300  142.3580 N   0  0  0  0  0  2  0  0  0  0  0  0
  185.1460  180.1740  144.2690 N   0  0  0  0  0  1  0  0  0  0  0  0
  188.4070  175.8640  144.8270 C   0  0  0  0  0  2  0  0  0  0  0  0
  188.4650  176.9360  145.9070 C   0  0  0  0  0  2  0  0  0  0  0  0
  189.8490  177.5590  145.9700 C   0  0  0  0  0  2  0  0  0  0  0  0
  191.9760  177.0000  144.7510 C   0  0  0  0  0  0  0  0  0  0  0  0
  193.8100  176.2770  146.2830 C   0  0  0  0  0  2  0  0  0  0  0  0
  190.9200  176.5020  145.7260 C   0  0  1  0  0  3  0  0  0  0  0  0
  192.8120  175.3020  146.8920 C   0  0  0  0  0  2  0  0  0  0  0  0
  193.2910  176.8360  144.9870 C   0  0  0  0  0  3  0  0  0  0  0  0
  191.4840  176.0230  147.0730 C   0  0  0  0  0  2  0  0  0  0  0  0
  191.3440  178.9200  143.5060 O   0  0  0  0  0  1  0  0  0  0  0  0
  191.5460  177.5380  143.4200 C   0  0  0  0  0  2  0  0  0  0  0  0
  190.0180  171.1540  140.2840 O   0  0  0  0  0  0  0  0  0  0  0  0
  191.2330  170.8540  140.9060 C   0  0  0  0  0  2  0  0  0  0  0  0
  192.1640  170.1670  139.9260 C   0  0  0  0  0  2  0  0  0  0  0  0
  193.5920  170.5860  140.2080 C   0  0  0  0  0  2  0  0  0  0  0  0
  193.6010  171.9570  140.8520 C   0  0  0  0  0  2  0  0  0  0  0  0
  194.9250  172.2550  141.3890 N   0  0  0  0  0  0  0  0  0  0  0  0
  195.2650  173.5490  144.9200 O   0  0  0  0  0  0  0  0  0  0  0  0
  196.2870  171.5030  145.3400 F   0  0  0  0  0  0  0  0  0  0  0  0
  194.1870  171.8860  146.0350 O   0  0  0  0  0  1  0  0  0  0  0  0
  194.5680  171.6000  143.7490 N   0  0  0  0  0  0  0  0  0  0  0  0
  193.2680  171.2160  143.6750 O   0  0  0  0  0  1  0  0  0  0  0  0
  196.3940  173.8570  144.1380 C   0  0  1  0  0  3  0  0  0  0  0  0
  195.5460  173.5570  141.1350 C   0  0  2  0  0  3  0  0  0  0  0  0
  194.7180  174.8490  142.1220 S   0  0  0  0  0  0  0  0  0  0  0  0
  196.1250  175.0800  143.2650 C   0  0  0  0  0  2  0  0  0  0  0  0
  197.5750  174.1600  145.0440 C   0  0  0  0  0  1  0  0  0  0  0  0
  195.0970  172.1420  145.0080 C   0  0  1  0  0  0  0  0  0  0  0  0
  196.5300  171.0820  142.5960 O   0  0  0  0  0  0  0  0  0  0  0  0
  195.3670  171.5680  142.5610 C   0  0  0  0  0  0  0  0  0  0  0  0
  195.6290  173.9280  139.6470 C   0  0  2  0  0  3  0  0  0  0  0  0
  196.9530  174.0660  139.2250 O   0  0  0  0  0  1  0  0  0  0  0  0
  194.8650  175.1780  139.3430 C   0  0  0  0  0  3  0  0  0  0  0  0
  193.8880  175.1430  138.6110 O   0  0  0  0  0  0  0  0  0  0  0  0
  1  8  1  6  0  0  0
  1  4  1  0  0  0  0
  1  6  1  0  0  0  0
  2  5  1  0  0  0  0
  2  9  1  1  0  0  0
  3  5  1  0  0  0  0
  4  2  1  0  0  0  0
  6 30  1  1  0  0  0
  6  3  1  0  0  0  0
  7  8  1  0  0  0  0
 11  9  1  6  0  0  0
 11 12  1  0  0  0  0
 12 19  1  1  0  0  0
 12 10  1  0  0  0  0
 13 14  1  0  0  0  0
 13 17  1  0  0  0  0
 14 11  1  0  0  0  0
 15 10  2  0  0  0  0
 16 18  1  0  0  0  0
 16 15  2  0  0  0  0
 17 16  1  0  0  0  0
 19 20  1  0  0  0  0
 20 21  1  0  0  0  0
 22 26  2  0  0  0  0
 22 24  1  0  0  0  0
 23 25  1  0  0  0  0
 24 21  1  1  0  0  0
 24 27  1  0  0  0  0
 25 27  1  0  0  0  0
 26 23  1  0  0  0  0
 29 28  1  0  0  0  0
 29 22  1  0  0  0  0
 30 31  1  0  0  0  0
 32 33  1  0  0  0  0
 32 31  1  0  0  0  0
 33 34  1  0  0  0  0
 34 35  1  0  0  0  0
 35 48  1  0  0  0  0
 36 46  1  0  0  0  0
 39 46  1  0  0  0  0
 40 39  1  0  0  0  0
 41 36  1  0  0  0  0
 41 45  1  1  0  0  0
 42 49  1  6  0  0  0
 42 35  1  0  0  0  0
 42 43  1  0  0  0  0
 43 44  1  0  0  0  0
 44 41  1  0  0  0  0
 46 37  1  1  0  0  0
 46 38  1  0  0  0  0
 48 47  2  0  0  0  0
 48 39  1  0  0  0  0
 49 50  1  1  0  0  0
 51 49  1  0  0  0  0
 52 51  2  0  0  0  0
M  END
>  <MODEL>
7

>  <REMARK>
 VINA RESULT:      -6.4      2.835      6.328
  Name = 
  16 active torsions:
  status: ('A' for Active; 'I' for Inactive)
    1  A    between atoms: C_1  and  O_7
    2  A    between atoms: C_1  and  C_23
    3  A    between atoms: N_2  and  C_49
    4  A    between atoms: C_4  and  O_17
    5  A    between atoms: C_5  and  C_38
    6  A    between atoms: C_6  and  C_27
    7  A    between atoms: C_6  and  C_34
    8  A    between atoms: O_7  and  C_41
    9  A    between atoms: C_8  and  N_15
   10  A    between atoms: C_12  and  N_15
   11  A    between atoms: C_19  and  C_27
   12  A    between atoms: C_21  and  C_34
   13  A    between atoms: C_23  and  C_29
   14  A    between atoms: C_26  and  C_35
   15  A    between atoms: C_26  and  C_36
   16  A    between atoms: C_29  and  C_49
                            x       y       z     vdW  Elec       q    Type
                         _______ _______ _______ _____ _____    ______ ____

>  <TORSDO>
F 16

$$$$
=
 OpenBabel11042415573D

 52 55  0  0  1  0  0  0  0  0999 V2000
  191.0590  175.8080  146.4990 C   0  0  2  0  0  3  0  0  0  0  0  0
  189.8530  174.1100  145.0640 C   0  0  2  0  0  3  0  0  0  0  0  0
  192.3720  174.1770  145.1220 C   0  0  0  0  0  2  0  0  0  0  0  0
  189.8160  174.9290  146.3560 C   0  0  0  0  0  2  0  0  0  0  0  0
  191.1430  173.2830  144.9970 C   0  0  0  0  0  2  0  0  0  0  0  0
  192.3190  174.9360  146.4430 C   0  0  1  0  0  3  0  0  0  0  0  0
  190.0920  177.5280  147.4930 C   0  0  0  0  0  1  0  0  0  0  0  0
  191.0000  176.4910  147.7150 O   0  0  0  0  0  0  0  0  0  0  0  0
  189.7360  174.9920  143.9100 N   0  0  0  0  0  2  0  0  0  0  0  0
  187.7810  173.3790  141.0890 C   0  0  0  0  0  3  0  0  0  0  0  0
  189.5720  174.1610  142.7280 C   0  0  1  0  0  3  0  0  0  0  0  0
  188.2140  174.4460  142.0520 C   0  0  1  0  0  3  0  0  0  0  0  0
  191.4240  173.0070  141.5100 C   0  0  0  0  0  2  0  0  0  0  0  0
  190.7710  174.3500  141.7940 C   0  0  0  0  0  2  0  0  0  0  0  0
  188.6810  172.7200  140.4110 C   0  0  0  0  0  0  0  0  0  0  0  0
  189.6900  172.1450  139.8150 C   0  0  0  0  0  0  0  0  0  0  0  0
  191.0290  172.4700  140.2030 N   0  0  0  0  0  2  0  0  0  0  0  0
  189.4730  171.3720  138.6330 N   0  0  0  0  0  1  0  0  0  0  0  0
  188.1420  175.8360  141.4300 C   0  0  0  0  0  2  0  0  0  0  0  0
  186.9250  176.5830  141.9590 C   0  0  0  0  0  2  0  0  0  0  0  0
  186.5260  176.0560  143.3280 C   0  0  0  0  0  2  0  0  0  0  0  0
  185.9010  177.6140  145.1990 C   0  0  0  0  0  0  0  0  0  0  0  0
  185.0490  179.8150  144.3850 C   0  0  0  0  0  2  0  0  0  0  0  0
  185.4260  176.9230  143.9310 C   0  0  1  0  0  3  0  0  0  0  0  0
  184.1050  179.0290  143.4860 C   0  0  0  0  0  2  0  0  0  0  0  0
  185.6690  178.9210  145.4230 C   0  0  0  0  0  3  0  0  0  0  0  0
  184.8830  177.8810  142.8580 C   0  0  0  0  0  2  0  0  0  0  0  0
  186.6290  177.5660  147.4580 O   0  0  0  0  0  1  0  0  0  0  0  0
  186.4970  176.7920  146.3010 C   0  0  0  0  0  2  0  0  0  0  0  0
  193.4640  175.7280  146.5820 O   0  0  0  0  0  0  0  0  0  0  0  0
  193.6740  176.2850  145.3180 C   0  0  0  0  0  2  0  0  0  0  0  0
  194.9480  177.1070  145.3150 C   0  0  0  0  0  2  0  0  0  0  0  0
  195.8830  176.5850  144.2450 C   0  0  0  0  0  2  0  0  0  0  0  0
  195.4240  175.2130  143.7950 C   0  0  0  0  0  2  0  0  0  0  0  0
  196.4300  174.6020  142.9320 N   0  0  0  0  0  0  0  0  0  0  0  0
  195.4870  173.5050  139.4440 O   0  0  0  0  0  0  0  0  0  0  0  0
  196.9040  175.2170  138.7580 F   0  0  0  0  0  0  0  0  0  0  0  0
  194.6770  175.4710  138.6380 O   0  0  0  0  0  1  0  0  0  0  0  0
  195.6880  175.4870  140.7430 N   0  0  0  0  0  0  0  0  0  0  0  0
  194.6120  176.2060  141.1520 O   0  0  0  0  0  1  0  0  0  0  0  0
  196.6440  172.8480  139.9050 C   0  0  1  0  0  3  0  0  0  0  0  0
  196.7020  173.1650  143.0230 C   0  0  2  0  0  3  0  0  0  0  0  0
  195.3220  172.2190  142.2950 S   0  0  0  0  0  0  0  0  0  0  0  0
  196.2700  171.6890  140.8260 C   0  0  0  0  0  2  0  0  0  0  0  0
  197.4220  172.2950  138.7230 C   0  0  0  0  0  1  0  0  0  0  0  0
  195.7070  174.9070  139.3930 C   0  0  1  0  0  0  0  0  0  0  0  0
  197.9410  175.3680  141.3390 O   0  0  0  0  0  0  0  0  0  0  0  0
  196.7360  175.2190  141.6810 C   0  0  0  0  0  0  0  0  0  0  0  0
  197.0500  172.6850  144.4400 C   0  0  2  0  0  3  0  0  0  0  0  0
  195.9680  172.0400  145.0440 O   0  0  0  0  0  1  0  0  0  0  0  0
  197.5220  173.8090  145.3070 C   0  0  0  0  0  3  0  0  0  0  0  0
  197.3290  173.7840  146.5120 O   0  0  0  0  0  0  0  0  0  0  0  0
  1  8  1  1  0  0  0
  2  9  1  6  0  0  0
  2  4  1  0  0  0  0
  3  6  1  0  0  0  0
  4  1  1  0  0  0  0
  5  2  1  0  0  0  0
  5  3  1  0  0  0  0
  6  1  1  0  0  0  0
  6 30  1  6  0  0  0
  7  8  1  0  0  0  0
 10 12  1  0  0  0  0
 11  9  1  1  0  0  0
 12 19  1  6  0  0  0
 12 11  1  0  0  0  0
 13 14  1  0  0  0  0
 14 11  1  0  0  0  0
 15 10  2  0  0  0  0
 16 17  1  0  0  0  0
 16 15  2  0  0  0  0
 17 13  1  0  0  0  0
 18 16  1  0  0  0  0
 19 20  1  0  0  0  0
 20 21  1  0  0  0  0
 22 26  2  0  0  0  0
 22 29  1  0  0  0  0
 23 26  1  0  0  0  0
 24 21  1  6  0  0  0
 24 22  1  0  0  0  0
 25 23  1  0  0  0  0
 27 25  1  0  0  0  0
 27 24  1  0  0  0  0
 29 28  1  0  0  0  0
 31 30  1  0  0  0  0
 32 31  1  0  0  0  0
 33 32  1  0  0  0  0
 34 33  1  0  0  0  0
 35 42  1  0  0  0  0
 35 34  1  0  0  0  0
 36 41  1  0  0  0  0
 37 46  1  0  0  0  0
 39 40  1  0  0  0  0
 39 48  1  0  0  0  0
 41 45  1  6  0  0  0
 41 44  1  0  0  0  0
 42 49  1  1  0  0  0
 43 42  1  0  0  0  0
 44 43  1  0  0  0  0
 46 38  1  6  0  0  0
 46 36  1  0  0  0  0
 46 39  1  0  0  0  0
 47 48  2  0  0  0  0
 48 35  1  0  0  0  0
 49 50  1  1  0  0  0
 49 51  1  0  0  0  0
 51 52  2  0  0  0  0
M  END
>  <MODEL>
8

>  <REMARK>
 VINA RESULT:      -6.3      3.290      6.265
  Name = 
  16 active torsions:
  status: ('A' for Active; 'I' for Inactive)
    1  A    between atoms: C_1  and  O_7
    2  A    between atoms: C_1  and  C_23
    3  A    between atoms: N_2  and  C_49
    4  A    between atoms: C_4  and  O_17
    5  A    between atoms: C_5  and  C_38
    6  A    between atoms: C_6  and  C_27
    7  A    between atoms: C_6  and  C_34
    8  A    between atoms: O_7  and  C_41
    9  A    between atoms: C_8  and  N_15
   10  A    between atoms: C_12  and  N_15
   11  A    between atoms: C_19  and  C_27
   12  A    between atoms: C_21  and  C_34
   13  A    between atoms: C_23  and  C_29
   14  A    between atoms: C_26  and  C_35
   15  A    between atoms: C_26  and  C_36
   16  A    between atoms: C_29  and  C_49
                            x       y       z     vdW  Elec       q    Type
                         _______ _______ _______ _____ _____    ______ ____

>  <TORSDO>
F 16

$$$$
=
 OpenBabel11042415573D

 52 55  0  0  1  0  0  0  0  0999 V2000
  190.5150  173.6450  142.8220 C   0  0  2  0  0  3  0  0  0  0  0  0
  192.5540  172.9920  141.4760 C   0  0  2  0  0  3  0  0  0  0  0  0
  192.7600  173.5340  143.9290 C   0  0  0  0  0  2  0  0  0  0  0  0
  191.0460  172.8080  141.6580 C   0  0  0  0  0  2  0  0  0  0  0  0
  193.2890  172.6760  142.7840 C   0  0  0  0  0  2  0  0  0  0  0  0
  191.2670  173.2820  144.1080 C   0  0  1  0  0  3  0  0  0  0  0  0
  189.0160  172.0220  142.7930 C   0  0  0  0  0  1  0  0  0  0  0  0
  189.1490  173.4000  142.9780 O   0  0  0  0  0  0  0  0  0  0  0  0
  192.8400  174.3490  141.0290 N   0  0  0  0  0  2  0  0  0  0  0  0
  195.4210  175.2860  138.4130 C   0  0  0  0  0  3  0  0  0  0  0  0
  193.4910  174.2640  139.7320 C   0  0  1  0  0  3  0  0  0  0  0  0
  194.8650  174.9660  139.7700 C   0  0  1  0  0  3  0  0  0  0  0  0
  192.9020  172.6390  137.9270 C   0  0  0  0  0  2  0  0  0  0  0  0
  193.5660  172.8010  139.2860 C   0  0  0  0  0  2  0  0  0  0  0  0
  195.1600  174.4950  137.4080 C   0  0  0  0  0  0  0  0  0  0  0  0
  194.8100  173.6190  136.5050 C   0  0  0  0  0  0  0  0  0  0  0  0
  193.8860  172.5790  136.8400 N   0  0  0  0  0  2  0  0  0  0  0  0
  195.5120  173.5560  135.2630 N   0  0  0  0  0  1  0  0  0  0  0  0
  195.8810  174.2350  140.6410 C   0  0  0  0  0  2  0  0  0  0  0  0
  196.6710  175.2350  141.4740 C   0  0  0  0  0  2  0  0  0  0  0  0
  195.7940  175.8460  142.5540 C   0  0  0  0  0  2  0  0  0  0  0  0
  195.4200  175.8050  145.0390 C   0  0  0  0  0  0  0  0  0  0  0  0
  196.2570  173.7120  146.1120 C   0  0  0  0  0  2  0  0  0  0  0  0
  196.4450  175.6830  143.9230 C   0  0  1  0  0  3  0  0  0  0  0  0
  197.5700  173.9540  145.3800 C   0  0  0  0  0  2  0  0  0  0  0  0
  195.3840  174.9350  146.0660 C   0  0  0  0  0  3  0  0  0  0  0  0
  197.2550  174.3770  143.9520 C   0  0  0  0  0  2  0  0  0  0  0  0
  194.9460  177.8640  146.1210 O   0  0  0  0  0  1  0  0  0  0  0  0
  194.5340  177.0130  145.0900 C   0  0  0  0  0  2  0  0  0  0  0  0
  190.7840  174.0350  145.1830 O   0  0  0  0  0  0  0  0  0  0  0  0
  191.5320  175.2150  145.1630 C   0  0  0  0  0  2  0  0  0  0  0  0
  190.7020  176.3690  145.6880 C   0  0  0  0  0  2  0  0  0  0  0  0
  189.2330  176.0100  145.6150 C   0  0  0  0  0  2  0  0  0  0  0  0
  188.4100  177.2700  145.4470 C   0  0  0  0  0  2  0  0  0  0  0  0
  187.1260  176.9570  144.8270 N   0  0  0  0  0  0  0  0  0  0  0  0
  186.0790  178.7590  141.6780 O   0  0  0  0  0  0  0  0  0  0  0  0
  186.3200  176.6780  140.6680 F   0  0  0  0  0  0  0  0  0  0  0  0
  187.8660  178.2750  140.3560 O   0  0  0  0  0  1  0  0  0  0  0  0
  187.7400  177.2390  142.4460 N   0  0  0  0  0  0  0  0  0  0  0  0
  189.0420  177.5930  142.5960 O   0  0  0  0  0  1  0  0  0  0  0  0
  184.9770  178.2070  142.3570 C   0  0  1  0  0  3  0  0  0  0  0  0
  185.9050  177.6170  145.2930 C   0  0  2  0  0  3  0  0  0  0  0  0
  185.8840  179.3570  144.7470 S   0  0  0  0  0  0  0  0  0  0  0  0
  184.5570  179.1070  143.5170 C   0  0  0  0  0  2  0  0  0  0  0  0
  183.8040  178.0710  141.4010 C   0  0  0  0  0  1  0  0  0  0  0  0
  186.9800  177.7320  141.2880 C   0  0  1  0  0  0  0  0  0  0  0  0
  186.3900  175.4850  143.1840 O   0  0  0  0  0  0  0  0  0  0  0  0
  187.1070  176.4790  143.4810 C   0  0  0  0  0  0  0  0  0  0  0  0
  185.6590  177.4800  146.8030 C   0  0  2  0  0  3  0  0  0  0  0  0
  184.4250  176.8830  147.0710 O   0  0  0  0  0  1  0  0  0  0  0  0
  185.7490  178.8000  147.5030 C   0  0  0  0  0  3  0  0  0  0  0  0
  186.6830  179.0400  148.2510 O   0  0  0  0  0  0  0  0  0  0  0  0
  1  8  1  1  0  0  0
  1  6  1  0  0  0  0
  2  9  1  1  0  0  0
  2  4  1  0  0  0  0
  2  5  1  0  0  0  0
  3  6  1  0  0  0  0
  4  1  1  0  0  0  0
  5  3  1  0  0  0  0
  6 30  1  1  0  0  0
  7  8  1  0  0  0  0
 10 12  1  0  0  0  0
 11 12  1  0  0  0  0
 11  9  1  1  0  0  0
 12 19  1  6  0  0  0
 13 14  1  0  0  0  0
 14 11  1  0  0  0  0
 15 10  2  0  0  0  0
 16 17  1  0  0  0  0
 16 15  2  0  0  0  0
 17 13  1  0  0  0  0
 18 16  1  0  0  0  0
 19 20  1  0  0  0  0
 20 21  1  0  0  0  0
 22 29  1  0  0  0  0
 22 26  2  0  0  0  0
 24 21  1  6  0  0  0
 24 27  1  0  0  0  0
 24 22  1  0  0  0  0
 25 23  1  0  0  0  0
 26 23  1  0  0  0  0
 27 25  1  0  0  0  0
 29 28  1  0  0  0  0
 31 30  1  0  0  0  0
 31 32  1  0  0  0  0
 33 32  1  0  0  0  0
 34 33  1  0  0  0  0
 35 42  1  0  0  0  0
 35 34  1  0  0  0  0
 36 41  1  0  0  0  0
 37 46  1  0  0  0  0
 39 40  1  0  0  0  0
 39 48  1  0  0  0  0
 41 45  1  6  0  0  0
 41 44  1  0  0  0  0
 42 49  1  1  0  0  0
 43 42  1  0  0  0  0
 44 43  1  0  0  0  0
 46 38  1  6  0  0  0
 46 36  1  0  0  0  0
 46 39  1  0  0  0  0
 47 48  2  0  0  0  0
 48 35  1  0  0  0  0
 49 50  1  6  0  0  0
 49 51  1  0  0  0  0
 51 52  2  0  0  0  0
M  END
>  <MODEL>
9

>  <REMARK>
 VINA RESULT:      -6.3      3.370      9.098
  Name = 
  16 active torsions:
  status: ('A' for Active; 'I' for Inactive)
    1  A    between atoms: C_1  and  O_7
    2  A    between atoms: C_1  and  C_23
    3  A    between atoms: N_2  and  C_49
    4  A    between atoms: C_4  and  O_17
    5  A    between atoms: C_5  and  C_38
    6  A    between atoms: C_6  and  C_27
    7  A    between atoms: C_6  and  C_34
    8  A    between atoms: O_7  and  C_41
    9  A    between atoms: C_8  and  N_15
   10  A    between atoms: C_12  and  N_15
   11  A    between atoms: C_19  and  C_27
   12  A    between atoms: C_21  and  C_34
   13  A    between atoms: C_23  and  C_29
   14  A    between atoms: C_26  and  C_35
   15  A    between atoms: C_26  and  C_36
   16  A    between atoms: C_29  and  C_49
                            x       y       z     vdW  Elec       q    Type
                         _______ _______ _______ _____ _____    ______ ____

>  <TORSDO>
F 16

$$$$
