=
 OpenBabel11042419163D

 43 47  0  0  1  0  0  0  0  0999 V2000
  186.5560  178.0150  144.2260 C   0  0  0  0  0  3  0  0  0  0  0  0
  188.6630  177.5220  144.9280 C   0  0  1  0  0  3  0  0  0  0  0  0
  188.7430  177.5450  143.6030 C   0  0  1  0  0  3  0  0  0  0  0  0
  188.1780  175.5840  142.3070 C   0  0  1  0  0  3  0  0  0  0  0  0
  189.7500  176.4460  142.6490 S   0  0  0  0  0  0  0  0  0  0  0  0
  187.4210  177.8540  143.0110 C   0  0  1  0  0  3  0  0  0  0  0  0
  187.3030  177.8610  145.3090 C   0  0  0  0  0  0  0  0  0  0  0  0
  187.0500  176.6180  142.1920 C   0  0  0  0  0  2  0  0  0  0  0  0
  186.0190  176.8250  147.2270 C   0  0  0  0  0  1  0  0  0  0  0  0
  186.7780  177.9130  146.6370 N   0  0  0  0  0  2  0  0  0  0  0  0
  189.6560  177.0900  145.8090 O   0  0  0  0  0  0  0  0  0  0  0  0
  190.9850  177.3830  145.5980 N   0  0  0  0  0  2  0  0  0  0  0  0
  193.0800  174.4550  146.1320 C   0  0  1  0  0  3  0  0  0  0  0  0
  193.2600  176.7240  145.7890 N   0  0  0  0  0  0  0  0  0  0  0  0
  190.9470  174.1960  145.3620 C   0  0  0  0  0  3  0  0  0  0  0  0
  191.7320  175.0260  146.3280 C   0  0  2  0  0  3  0  0  0  0  0  0
  191.6860  173.3040  144.7870 N   0  0  0  0  0  0  0  0  0  0  0  0
  192.0020  176.4280  145.8870 C   0  0  0  0  0  0  0  0  0  0  0  0
  193.0250  173.4890  145.2210 C   0  0  0  0  0  2  0  0  0  0  0  0
  194.0860  175.5660  146.1110 C   0  0  2  0  0  3  0  0  0  0  0  0
  195.1870  175.3890  145.1050 C   0  0  0  0  0  0  0  0  0  0  0  0
  195.1530  176.1410  143.8910 N   0  0  0  0  0  2  0  0  0  0  0  0
  196.1610  174.6250  145.3530 O   0  0  0  0  0  0  0  0  0  0  0  0
  197.3080  176.9840  143.1830 C   0  0  0  0  0  1  0  0  0  0  0  0
  196.1820  176.0190  142.8690 C   0  0  2  0  0  3  0  0  0  0  0  0
  195.5900  176.3390  141.5050 C   0  0  0  0  0  2  0  0  0  0  0  0
  194.1080  176.0110  141.4860 C   0  0  0  0  0  2  0  0  0  0  0  0
  193.9030  174.7990  139.5060 C   0  0  0  0  0  1  0  0  0  0  0  0
  192.5650  174.2670  141.3350 C   0  0  0  0  0  1  0  0  0  0  0  0
  193.9060  174.6750  140.9530 N   0  0  0  0  0  0  0  0  0  0  0  0
  188.2790  174.8080  141.0780 N   0  0  0  0  0  2  0  0  0  0  0  0
  189.8810  172.2610  139.1860 C   0  0  0  0  0  0  0  0  0  0  0  0
  190.6910  171.3930  139.8130 C   0  0  0  0  0  0  0  0  0  0  0  0
  188.7580  173.4600  141.0360 C   0  0  0  0  0  0  0  0  0  0  0  0
  189.2660  172.8820  142.1300 C   0  0  0  0  0  3  0  0  0  0  0  0
  189.8140  171.5150  142.1830 C   0  0  0  0  0  3  0  0  0  0  0  0
  188.5660  172.6770  139.7820 C   0  0  0  0  0  2  0  0  0  0  0  0
  190.4220  170.8700  141.1790 C   0  0  0  0  0  3  0  0  0  0  0  0
  191.8300  170.9530  139.1280 O   0  0  0  0  0  0  0  0  0  0  0  0
  193.1460  171.1060  139.6390 C   0  0  0  0  0  1  0  0  0  0  0  0
  190.2610  172.7440  137.9270 O   0  0  0  0  0  0  0  0  0  0  0  0
  189.3670  172.8420  136.8280 C   0  0  0  0  0  2  0  0  0  0  0  0
  189.0480  174.1810  136.5940 O   0  0  0  0  0  1  0  0  0  0  0  0
  1  7  2  0  0  0  0
  2  7  1  0  0  0  0
  2 11  1  6  0  0  0
  3  5  1  6  0  0  0
  3  2  1  0  0  0  0
  4 31  1  6  0  0  0
  4  5  1  0  0  0  0
  6  8  1  6  0  0  0
  6  3  1  0  0  0  0
  6  1  1  0  0  0  0
  7 10  1  0  0  0  0
  8  4  1  0  0  0  0
 10  9  1  0  0  0  0
 12 11  1  0  0  0  0
 12 18  1  0  0  0  0
 13 19  1  6  0  0  0
 13 16  1  0  0  0  0
 14 18  2  0  0  0  0
 14 20  1  0  0  0  0
 16 15  1  6  0  0  0
 17 19  1  0  0  0  0
 17 15  2  0  0  0  0
 18 16  1  0  0  0  0
 20 21  1  6  0  0  0
 20 13  1  0  0  0  0
 21 23  2  0  0  0  0
 22 21  1  0  0  0  0
 25 24  1  1  0  0  0
 25 22  1  0  0  0  0
 26 25  1  0  0  0  0
 27 26  1  0  0  0  0
 28 30  1  0  0  0  0
 30 29  1  0  0  0  0
 30 27  1  0  0  0  0
 32 37  1  0  0  0  0
 32 33  2  0  0  0  0
 33 38  1  0  0  0  0
 34 31  1  0  0  0  0
 34 35  2  0  0  0  0
 35 36  1  0  0  0  0
 37 34  1  0  0  0  0
 38 36  2  0  0  0  0
 39 40  1  0  0  0  0
 39 33  1  0  0  0  0
 41 32  1  0  0  0  0
 42 41  1  0  0  0  0
 43 42  1  0  0  0  0
M  END
>  <MODEL>
1

>  <REMARK>
 VINA RESULT:      -6.4      0.000      0.000
  Name = 
  13 active torsions:
  status: ('A' for Active; 'I' for Inactive)
    1  A    between atoms: C_2  and  O_18
    2  A    between atoms: O_4  and  C_12
    3  A    between atoms: C_6  and  C_14
    4  A    between atoms: C_6  and  N_25
    5  A    between atoms: C_8  and  O_11
    6  A    between atoms: N_10  and  O_11
    7  A    between atoms: C_13  and  C_41
    8  A    between atoms: C_14  and  C_22
    9  A    between atoms: C_15  and  N_23
   10  A    between atoms: N_17  and  C_22
   11  A    between atoms: O_18  and  C_30
   12  A    between atoms: N_23  and  C_28
   13  A    between atoms: N_26  and  C_38
                            x       y       z     vdW  Elec       q    Type
                         _______ _______ _______ _____ _____    ______ ____

>  <TORSDO>
F 13

$$$$
=
 OpenBabel11042419163D

 43 47  0  0  1  0  0  0  0  0999 V2000
  189.7100  173.8260  146.0600 C   0  0  0  0  0  3  0  0  0  0  0  0
  191.1870  175.5460  145.8930 C   0  0  1  0  0  3  0  0  0  0  0  0
  190.3880  175.8830  146.8980 C   0  0  1  0  0  3  0  0  0  0  0  0
  188.2820  176.9900  146.4710 C   0  0  1  0  0  3  0  0  0  0  0  0
  189.8490  177.5350  147.2300 S   0  0  0  0  0  0  0  0  0  0  0  0
  189.3610  174.8360  147.1130 C   0  0  1  0  0  3  0  0  0  0  0  0
  190.7840  174.2400  145.4050 C   0  0  0  0  0  0  0  0  0  0  0  0
  188.0250  175.5240  146.8410 C   0  0  0  0  0  2  0  0  0  0  0  0
  191.4880  172.0800  144.2900 C   0  0  0  0  0  1  0  0  0  0  0  0
  191.3560  173.5260  144.3070 N   0  0  0  0  0  2  0  0  0  0  0  0
  192.1460  176.3640  145.2900 O   0  0  0  0  0  0  0  0  0  0  0  0
  192.2290  176.4900  143.9210 N   0  0  0  0  0  2  0  0  0  0  0  0
  195.4870  175.4290  142.6940 C   0  0  1  0  0  3  0  0  0  0  0  0
  193.5760  176.4830  141.9640 N   0  0  0  0  0  0  0  0  0  0  0  0
  194.6050  174.4510  144.5580 C   0  0  0  0  0  3  0  0  0  0  0  0
  194.7090  175.7890  143.8980 C   0  0  2  0  0  3  0  0  0  0  0  0
  195.2420  173.5400  143.8980 N   0  0  0  0  0  0  0  0  0  0  0  0
  193.4590  176.2700  143.2370 C   0  0  0  0  0  0  0  0  0  0  0  0
  195.7520  174.1270  142.7090 C   0  0  0  0  0  2  0  0  0  0  0  0
  194.9220  176.1530  141.5100 C   0  0  2  0  0  3  0  0  0  0  0  0
  194.8840  175.3420  140.2460 C   0  0  0  0  0  0  0  0  0  0  0  0
  193.6420  174.7920  139.8040 N   0  0  0  0  0  2  0  0  0  0  0  0
  195.9280  175.1930  139.5520 O   0  0  0  0  0  0  0  0  0  0  0  0
  193.1710  174.9010  137.4330 C   0  0  0  0  0  1  0  0  0  0  0  0
  193.5290  173.9930  138.5930 C   0  0  2  0  0  3  0  0  0  0  0  0
  192.4520  172.9350  138.7750 C   0  0  0  0  0  2  0  0  0  0  0  0
  191.0790  173.5410  138.5470 C   0  0  0  0  0  2  0  0  0  0  0  0
  189.6720  171.6870  138.4270 C   0  0  0  0  0  1  0  0  0  0  0  0
  188.9200  173.6500  139.4260 C   0  0  0  0  0  1  0  0  0  0  0  0
  190.0790  172.7860  139.2840 N   0  0  0  0  0  0  0  0  0  0  0  0
  187.1780  177.8270  146.9230 N   0  0  0  0  0  2  0  0  0  0  0  0
  186.0650  178.2400  143.5730 C   0  0  0  0  0  0  0  0  0  0  0  0
  184.7470  178.2760  143.3220 C   0  0  0  0  0  0  0  0  0  0  0  0
  186.1990  178.3830  146.0390 C   0  0  0  0  0  0  0  0  0  0  0  0
  184.9180  178.4770  146.4110 C   0  0  0  0  0  3  0  0  0  0  0  0
  183.8320  179.0010  145.5660 C   0  0  0  0  0  3  0  0  0  0  0  0
  186.6600  178.9650  144.7460 C   0  0  0  0  0  2  0  0  0  0  0  0
  183.7630  178.9210  144.2300 C   0  0  0  0  0  3  0  0  0  0  0  0
  184.2940  177.6890  142.1330 O   0  0  0  0  0  0  0  0  0  0  0  0
  183.1320  178.1330  141.4470 C   0  0  0  0  0  1  0  0  0  0  0  0
  186.8990  177.5470  142.6850 O   0  0  0  0  0  0  0  0  0  0  0  0
  187.3720  176.2290  142.9280 C   0  0  0  0  0  2  0  0  0  0  0  0
  188.7510  176.2520  143.1430 O   0  0  0  0  0  1  0  0  0  0  0  0
  2 11  1  6  0  0  0
  2  3  1  0  0  0  0
  3  6  1  0  0  0  0
  3  5  1  6  0  0  0
  4  8  1  0  0  0  0
  4 31  1  1  0  0  0
  4  5  1  0  0  0  0
  6  1  1  6  0  0  0
  7  2  1  0  0  0  0
  7  1  2  0  0  0  0
  8  6  1  0  0  0  0
  9 10  1  0  0  0  0
 10  7  1  0  0  0  0
 12 11  1  0  0  0  0
 13 19  1  6  0  0  0
 13 16  1  0  0  0  0
 14 18  2  0  0  0  0
 16 15  1  1  0  0  0
 17 15  2  0  0  0  0
 18 16  1  0  0  0  0
 18 12  1  0  0  0  0
 19 17  1  0  0  0  0
 20 21  1  6  0  0  0
 20 14  1  0  0  0  0
 20 13  1  0  0  0  0
 22 21  1  0  0  0  0
 23 21  2  0  0  0  0
 25 24  1  6  0  0  0
 25 26  1  0  0  0  0
 25 22  1  0  0  0  0
 27 26  1  0  0  0  0
 27 30  1  0  0  0  0
 28 30  1  0  0  0  0
 30 29  1  0  0  0  0
 32 37  1  0  0  0  0
 33 32  2  0  0  0  0
 33 38  1  0  0  0  0
 34 35  2  0  0  0  0
 34 31  1  0  0  0  0
 36 35  1  0  0  0  0
 37 34  1  0  0  0  0
 38 36  2  0  0  0  0
 39 33  1  0  0  0  0
 40 39  1  0  0  0  0
 41 42  1  0  0  0  0
 41 32  1  0  0  0  0
 42 43  1  0  0  0  0
M  END
>  <MODEL>
2

>  <REMARK>
 VINA RESULT:      -6.4      2.608      6.371
  Name = 
  13 active torsions:
  status: ('A' for Active; 'I' for Inactive)
    1  A    between atoms: C_2  and  O_18
    2  A    between atoms: O_4  and  C_12
    3  A    between atoms: C_6  and  C_14
    4  A    between atoms: C_6  and  N_25
    5  A    between atoms: C_8  and  O_11
    6  A    between atoms: N_10  and  O_11
    7  A    between atoms: C_13  and  C_41
    8  A    between atoms: C_14  and  C_22
    9  A    between atoms: C_15  and  N_23
   10  A    between atoms: N_17  and  C_22
   11  A    between atoms: O_18  and  C_30
   12  A    between atoms: N_23  and  C_28
   13  A    between atoms: N_26  and  C_38
                            x       y       z     vdW  Elec       q    Type
                         _______ _______ _______ _____ _____    ______ ____

>  <TORSDO>
F 13

$$$$
=
 OpenBabel11042419163D

 43 47  0  0  1  0  0  0  0  0999 V2000
  190.0000  173.8800  146.2170 C   0  0  0  0  0  3  0  0  0  0  0  0
  191.2960  175.7210  145.8980 C   0  0  1  0  0  3  0  0  0  0  0  0
  190.4910  176.0430  146.9030 C   0  0  1  0  0  3  0  0  0  0  0  0
  188.2760  176.9110  146.4700 C   0  0  1  0  0  3  0  0  0  0  0  0
  189.8000  177.6530  147.1470 S   0  0  0  0  0  0  0  0  0  0  0  0
  189.5780  174.9180  147.2140 C   0  0  1  0  0  3  0  0  0  0  0  0
  191.0120  174.3520  145.5060 C   0  0  0  0  0  0  0  0  0  0  0  0
  188.1740  175.4530  146.9390 C   0  0  0  0  0  2  0  0  0  0  0  0
  192.7040  172.6770  144.6490 C   0  0  0  0  0  1  0  0  0  0  0  0
  191.6270  173.6270  144.4380 N   0  0  0  0  0  2  0  0  0  0  0  0
  192.1550  176.5860  145.2170 O   0  0  0  0  0  0  0  0  0  0  0  0
  192.6590  176.2720  143.9750 N   0  0  0  0  0  2  0  0  0  0  0  0
  196.2660  175.7990  144.0980 C   0  0  1  0  0  3  0  0  0  0  0  0
  194.5550  175.9890  142.5710 N   0  0  0  0  0  0  0  0  0  0  0  0
  194.9930  175.2870  145.9220 C   0  0  0  0  0  3  0  0  0  0  0  0
  195.0890  176.3080  144.8330 C   0  0  2  0  0  3  0  0  0  0  0  0
  195.9500  174.4210  145.8530 N   0  0  0  0  0  0  0  0  0  0  0  0
  194.0640  176.1840  143.7540 C   0  0  0  0  0  0  0  0  0  0  0  0
  196.7180  174.6990  144.6910 C   0  0  0  0  0  2  0  0  0  0  0  0
  196.0100  175.9090  142.6260 C   0  0  2  0  0  3  0  0  0  0  0  0
  196.5200  174.7490  141.8180 C   0  0  0  0  0  0  0  0  0  0  0  0
  195.7680  173.5340  141.7860 N   0  0  0  0  0  2  0  0  0  0  0  0
  197.5730  174.8640  141.1320 O   0  0  0  0  0  0  0  0  0  0  0  0
  195.2760  172.1760  139.8450 C   0  0  0  0  0  1  0  0  0  0  0  0
  196.2020  172.3690  141.0300 C   0  0  2  0  0  3  0  0  0  0  0  0
  196.1670  171.1380  141.9210 C   0  0  0  0  0  2  0  0  0  0  0  0
  197.1670  171.2820  143.0540 C   0  0  0  0  0  2  0  0  0  0  0  0
  195.4370  170.0880  144.0610 C   0  0  0  0  0  1  0  0  0  0  0  0
  197.1510  170.9690  145.3660 C   0  0  0  0  0  1  0  0  0  0  0  0
  196.8700  170.3170  144.0990 N   0  0  0  0  0  0  0  0  0  0  0  0
  187.1060  177.6640  146.9010 N   0  0  0  0  0  2  0  0  0  0  0  0
  186.0710  178.0780  143.5260 C   0  0  0  0  0  0  0  0  0  0  0  0
  184.7610  178.1780  143.2520 C   0  0  0  0  0  0  0  0  0  0  0  0
  186.1720  178.2560  145.9920 C   0  0  0  0  0  0  0  0  0  0  0  0
  184.8920  178.4220  146.3400 C   0  0  0  0  0  3  0  0  0  0  0  0
  183.8490  178.9890  145.4680 C   0  0  0  0  0  3  0  0  0  0  0  0
  186.6850  178.7910  144.6980 C   0  0  0  0  0  2  0  0  0  0  0  0
  183.7970  178.8900  144.1330 C   0  0  0  0  0  3  0  0  0  0  0  0
  184.2970  177.5960  142.0660 O   0  0  0  0  0  0  0  0  0  0  0  0
  184.0090  178.3510  140.8970 C   0  0  0  0  0  1  0  0  0  0  0  0
  186.8820  177.3270  142.6640 O   0  0  0  0  0  0  0  0  0  0  0  0
  188.3010  177.3850  142.6820 C   0  0  0  0  0  2  0  0  0  0  0  0
  188.8280  176.3710  141.8800 O   0  0  0  0  0  1  0  0  0  0  0  0
  2 11  1  6  0  0  0
  2  3  1  0  0  0  0
  3  5  1  6  0  0  0
  3  6  1  0  0  0  0
  4 31  1  1  0  0  0
  4  8  1  0  0  0  0
  4  5  1  0  0  0  0
  6  1  1  6  0  0  0
  7  2  1  0  0  0  0
  7  1  2  0  0  0  0
  8  6  1  0  0  0  0
 10  9  1  0  0  0  0
 10  7  1  0  0  0  0
 12 11  1  0  0  0  0
 13 19  1  1  0  0  0
 13 16  1  0  0  0  0
 14 20  1  0  0  0  0
 14 18  2  0  0  0  0
 16 15  1  1  0  0  0
 17 15  2  0  0  0  0
 18 12  1  0  0  0  0
 18 16  1  0  0  0  0
 19 17  1  0  0  0  0
 20 21  1  6  0  0  0
 20 13  1  0  0  0  0
 22 21  1  0  0  0  0
 23 21  2  0  0  0  0
 25 24  1  6  0  0  0
 25 22  1  0  0  0  0
 25 26  1  0  0  0  0
 26 27  1  0  0  0  0
 27 30  1  0  0  0  0
 28 30  1  0  0  0  0
 30 29  1  0  0  0  0
 32 37  1  0  0  0  0
 33 32  2  0  0  0  0
 33 38  1  0  0  0  0
 34 35  2  0  0  0  0
 34 31  1  0  0  0  0
 36 35  1  0  0  0  0
 37 34  1  0  0  0  0
 38 36  2  0  0  0  0
 39 33  1  0  0  0  0
 40 39  1  0  0  0  0
 41 42  1  0  0  0  0
 41 32  1  0  0  0  0
 43 42  1  0  0  0  0
M  END
>  <MODEL>
3

>  <REMARK>
 VINA RESULT:      -6.3      3.268      6.338
  Name = 
  13 active torsions:
  status: ('A' for Active; 'I' for Inactive)
    1  A    between atoms: C_2  and  O_18
    2  A    between atoms: O_4  and  C_12
    3  A    between atoms: C_6  and  C_14
    4  A    between atoms: C_6  and  N_25
    5  A    between atoms: C_8  and  O_11
    6  A    between atoms: N_10  and  O_11
    7  A    between atoms: C_13  and  C_41
    8  A    between atoms: C_14  and  C_22
    9  A    between atoms: C_15  and  N_23
   10  A    between atoms: N_17  and  C_22
   11  A    between atoms: O_18  and  C_30
   12  A    between atoms: N_23  and  C_28
   13  A    between atoms: N_26  and  C_38
                            x       y       z     vdW  Elec       q    Type
                         _______ _______ _______ _____ _____    ______ ____

>  <TORSDO>
F 13

$$$$
=
 OpenBabel11042419163D

 43 47  0  0  1  0  0  0  0  0999 V2000
  196.5960  173.5940  142.7730 C   0  0  0  0  0  3  0  0  0  0  0  0
  195.1530  174.4250  144.3210 C   0  0  1  0  0  3  0  0  0  0  0  0
  195.1360  173.1110  144.5120 C   0  0  1  0  0  3  0  0  0  0  0  0
  193.6880  171.6980  143.1890 C   0  0  1  0  0  3  0  0  0  0  0  0
  193.6910  172.1880  144.9470 S   0  0  0  0  0  0  0  0  0  0  0  0
  196.0420  172.4380  143.5520 C   0  0  1  0  0  3  0  0  0  0  0  0
  196.1020  174.7200  143.2620 C   0  0  0  0  0  0  0  0  0  0  0  0
  195.1360  171.5450  142.7060 C   0  0  0  0  0  2  0  0  0  0  0  0
  195.7310  176.5370  141.5410 C   0  0  0  0  0  1  0  0  0  0  0  0
  196.3970  176.0080  142.7170 N   0  0  0  0  0  2  0  0  0  0  0  0
  194.2960  175.3570  144.9100 O   0  0  0  0  0  0  0  0  0  0  0  0
  193.1970  175.8490  144.2420 N   0  0  0  0  0  2  0  0  0  0  0  0
  190.1320  175.2030  146.0950 C   0  0  1  0  0  3  0  0  0  0  0  0
  190.8320  175.9550  144.0360 N   0  0  0  0  0  0  0  0  0  0  0  0
  192.0900  175.5250  147.2220 C   0  0  0  0  0  3  0  0  0  0  0  0
  191.5670  174.8710  145.9830 C   0  0  2  0  0  3  0  0  0  0  0  0
  191.1410  176.0600  147.9180 N   0  0  0  0  0  0  0  0  0  0  0  0
  191.8770  175.5860  144.7080 C   0  0  0  0  0  0  0  0  0  0  0  0
  189.9250  175.9110  147.2010 C   0  0  0  0  0  2  0  0  0  0  0  0
  189.6110  175.5920  144.7450 C   0  0  2  0  0  3  0  0  0  0  0  0
  188.6330  176.7330  144.7610 C   0  0  0  0  0  0  0  0  0  0  0  0
  187.2420  176.4600  144.9350 N   0  0  0  0  0  2  0  0  0  0  0  0
  189.0420  177.9250  144.6770 O   0  0  0  0  0  0  0  0  0  0  0  0
  185.2300  177.2120  146.0490 C   0  0  0  0  0  1  0  0  0  0  0  0
  186.2370  177.5120  144.9570 C   0  0  2  0  0  3  0  0  0  0  0  0
  185.5350  177.5790  143.6100 C   0  0  0  0  0  2  0  0  0  0  0  0
  186.0790  178.7370  142.7920 C   0  0  0  0  0  2  0  0  0  0  0  0
  184.9400  178.2770  140.8120 C   0  0  0  0  0  1  0  0  0  0  0  0
  186.7470  176.9540  141.4430 C   0  0  0  0  0  1  0  0  0  0  0  0
  186.2610  178.3230  141.4110 N   0  0  0  0  0  0  0  0  0  0  0  0
  192.9610  170.4490  143.0090 N   0  0  0  0  0  2  0  0  0  0  0  0
  190.2820  171.6890  141.0280 C   0  0  0  0  0  0  0  0  0  0  0  0
  190.2330  171.3740  139.7240 C   0  0  0  0  0  0  0  0  0  0  0  0
  192.0560  170.2150  141.9240 C   0  0  0  0  0  0  0  0  0  0  0  0
  192.4420  169.5140  140.8530 C   0  0  0  0  0  3  0  0  0  0  0  0
  191.6010  169.2470  139.6730 C   0  0  0  0  0  3  0  0  0  0  0  0
  190.6430  170.6670  142.0690 C   0  0  0  0  0  2  0  0  0  0  0  0
  190.6410  170.0470  139.1910 C   0  0  0  0  0  3  0  0  0  0  0  0
  189.7550  172.3470  138.8370 O   0  0  0  0  0  0  0  0  0  0  0  0
  190.6010  173.2950  138.2010 C   0  0  0  0  0  1  0  0  0  0  0  0
  189.9390  172.9900  141.4180 O   0  0  0  0  0  0  0  0  0  0  0  0
  188.7900  173.2930  142.1980 C   0  0  0  0  0  2  0  0  0  0  0  0
  187.6550  172.7380  141.6050 O   0  0  0  0  0  1  0  0  0  0  0  0
  1  7  2  0  0  0  0
  1  6  1  0  0  0  0
  2  3  1  0  0  0  0
  2 11  1  6  0  0  0
  3  5  1  6  0  0  0
  4 31  1  1  0  0  0
  4  5  1  0  0  0  0
  6  8  1  6  0  0  0
  6  3  1  0  0  0  0
  7  2  1  0  0  0  0
  8  4  1  0  0  0  0
  9 10  1  0  0  0  0
 10  7  1  0  0  0  0
 12 18  1  0  0  0  0
 12 11  1  0  0  0  0
 13 19  1  1  0  0  0
 14 18  2  0  0  0  0
 14 20  1  0  0  0  0
 15 17  2  0  0  0  0
 16 13  1  0  0  0  0
 16 15  1  1  0  0  0
 18 16  1  0  0  0  0
 19 17  1  0  0  0  0
 20 21  1  1  0  0  0
 20 13  1  0  0  0  0
 21 22  1  0  0  0  0
 22 25  1  0  0  0  0
 23 21  2  0  0  0  0
 25 24  1  1  0  0  0
 26 25  1  0  0  0  0
 27 26  1  0  0  0  0
 28 30  1  0  0  0  0
 30 29  1  0  0  0  0
 30 27  1  0  0  0  0
 32 41  1  0  0  0  0
 32 37  1  0  0  0  0
 33 32  2  0  0  0  0
 34 37  1  0  0  0  0
 34 31  1  0  0  0  0
 35 34  2  0  0  0  0
 36 35  1  0  0  0  0
 38 36  2  0  0  0  0
 38 33  1  0  0  0  0
 39 33  1  0  0  0  0
 40 39  1  0  0  0  0
 41 42  1  0  0  0  0
 43 42  1  0  0  0  0
M  END
>  <MODEL>
4

>  <REMARK>
 VINA RESULT:      -6.1      2.326      6.825
  Name = 
  13 active torsions:
  status: ('A' for Active; 'I' for Inactive)
    1  A    between atoms: C_2  and  O_18
    2  A    between atoms: O_4  and  C_12
    3  A    between atoms: C_6  and  C_14
    4  A    between atoms: C_6  and  N_25
    5  A    between atoms: C_8  and  O_11
    6  A    between atoms: N_10  and  O_11
    7  A    between atoms: C_13  and  C_41
    8  A    between atoms: C_14  and  C_22
    9  A    between atoms: C_15  and  N_23
   10  A    between atoms: N_17  and  C_22
   11  A    between atoms: O_18  and  C_30
   12  A    between atoms: N_23  and  C_28
   13  A    between atoms: N_26  and  C_38
                            x       y       z     vdW  Elec       q    Type
                         _______ _______ _______ _____ _____    ______ ____

>  <TORSDO>
F 13

$$$$
=
 OpenBabel11042419163D

 43 47  0  0  1  0  0  0  0  0999 V2000
  188.1480  173.0150  140.8340 C   0  0  0  0  0  3  0  0  0  0  0  0
  190.2680  172.2190  141.0430 C   0  0  1  0  0  3  0  0  0  0  0  0
  189.9630  172.6910  142.2460 C   0  0  1  0  0  3  0  0  0  0  0  0
  190.2590  175.0370  142.7520 C   0  0  1  0  0  3  0  0  0  0  0  0
  191.1090  173.5210  143.3080 S   0  0  0  0  0  0  0  0  0  0  0  0
  188.5920  173.2520  142.2470 C   0  0  1  0  0  3  0  0  0  0  0  0
  189.1120  172.3850  140.1810 C   0  0  0  0  0  0  0  0  0  0  0  0
  188.7660  174.7370  142.5620 C   0  0  0  0  0  2  0  0  0  0  0  0
  189.6280  170.8430  138.2410 C   0  0  0  0  0  1  0  0  0  0  0  0
  189.0270  172.0430  138.7950 N   0  0  0  0  0  2  0  0  0  0  0  0
  191.5270  171.7860  140.6200 O   0  0  0  0  0  0  0  0  0  0  0  0
  192.5500  171.5600  141.5130 N   0  0  0  0  0  2  0  0  0  0  0  0
  195.4640  173.5920  140.7230 C   0  0  1  0  0  3  0  0  0  0  0  0
  194.8350  171.8520  142.0930 N   0  0  0  0  0  0  0  0  0  0  0  0
  193.3740  174.3710  140.2390 C   0  0  0  0  0  3  0  0  0  0  0  0
  194.1630  173.1010  140.2230 C   0  0  2  0  0  3  0  0  0  0  0  0
  194.0950  175.3780  140.6100 N   0  0  0  0  0  0  0  0  0  0  0  0
  193.8370  172.1370  141.3170 C   0  0  0  0  0  0  0  0  0  0  0  0
  195.3830  174.8970  140.9640 C   0  0  0  0  0  2  0  0  0  0  0  0
  196.0240  172.5970  141.6930 C   0  0  2  0  0  3  0  0  0  0  0  0
  196.7070  173.2080  142.8850 C   0  0  0  0  0  0  0  0  0  0  0  0
  195.9590  173.4310  144.0810 N   0  0  0  0  0  2  0  0  0  0  0  0
  197.9410  173.4690  142.8470 O   0  0  0  0  0  0  0  0  0  0  0  0
  196.9290  172.9150  146.2370 C   0  0  0  0  0  1  0  0  0  0  0  0
  196.5520  174.0220  145.2720 C   0  0  2  0  0  3  0  0  0  0  0  0
  195.5540  174.9630  145.9280 C   0  0  0  0  0  2  0  0  0  0  0  0
  194.2110  174.8770  145.2260 C   0  0  0  0  0  2  0  0  0  0  0  0
  194.4740  177.1580  145.6230 C   0  0  0  0  0  1  0  0  0  0  0  0
  192.7320  175.9980  146.6400 C   0  0  0  0  0  1  0  0  0  0  0  0
  193.4820  176.1220  145.4020 N   0  0  0  0  0  0  0  0  0  0  0  0
  190.4390  176.1080  143.7220 N   0  0  0  0  0  2  0  0  0  0  0  0
  187.4090  177.8160  144.4530 C   0  0  0  0  0  0  0  0  0  0  0  0
  186.5600  177.2880  145.3480 C   0  0  0  0  0  0  0  0  0  0  0  0
  189.4570  176.4520  144.7060 C   0  0  0  0  0  0  0  0  0  0  0  0
  189.1360  175.5930  145.6790 C   0  0  0  0  0  3  0  0  0  0  0  0
  188.1180  175.8380  146.7160 C   0  0  0  0  0  3  0  0  0  0  0  0
  188.8920  177.8320  144.6910 C   0  0  0  0  0  2  0  0  0  0  0  0
  187.0100  176.5770  146.5750 C   0  0  0  0  0  3  0  0  0  0  0  0
  185.1880  177.4370  145.1130 O   0  0  0  0  0  0  0  0  0  0  0  0
  184.3610  178.2960  145.8860 C   0  0  0  0  0  1  0  0  0  0  0  0
  186.8820  178.4060  143.2960 O   0  0  0  0  0  0  0  0  0  0  0  0
  186.8840  177.7690  142.0260 C   0  0  0  0  0  2  0  0  0  0  0  0
  188.0790  178.0450  141.3590 O   0  0  0  0  0  1  0  0  0  0  0  0
  2 11  1  6  0  0  0
  2  3  1  0  0  0  0
  3  6  1  0  0  0  0
  3  5  1  6  0  0  0
  4  5  1  0  0  0  0
  4 31  1  1  0  0  0
  6  1  1  6  0  0  0
  6  8  1  0  0  0  0
  7  1  2  0  0  0  0
  7  2  1  0  0  0  0
  8  4  1  0  0  0  0
  9 10  1  0  0  0  0
 10  7  1  0  0  0  0
 11 12  1  0  0  0  0
 13 19  1  1  0  0  0
 13 20  1  0  0  0  0
 15 17  2  0  0  0  0
 16 15  1  1  0  0  0
 16 13  1  0  0  0  0
 16 18  1  0  0  0  0
 17 19  1  0  0  0  0
 18 12  1  0  0  0  0
 18 14  2  0  0  0  0
 20 14  1  0  0  0  0
 20 21  1  1  0  0  0
 21 22  1  0  0  0  0
 22 25  1  0  0  0  0
 23 21  2  0  0  0  0
 25 26  1  0  0  0  0
 25 24  1  1  0  0  0
 27 30  1  0  0  0  0
 27 26  1  0  0  0  0
 30 28  1  0  0  0  0
 30 29  1  0  0  0  0
 31 34  1  0  0  0  0
 32 37  1  0  0  0  0
 32 33  2  0  0  0  0
 33 38  1  0  0  0  0
 34 35  2  0  0  0  0
 35 36  1  0  0  0  0
 37 34  1  0  0  0  0
 38 36  2  0  0  0  0
 39 33  1  0  0  0  0
 39 40  1  0  0  0  0
 41 32  1  0  0  0  0
 42 41  1  0  0  0  0
 43 42  1  0  0  0  0
M  END
>  <MODEL>
5

>  <REMARK>
 VINA RESULT:      -6.0      2.308      6.593
  Name = 
  13 active torsions:
  status: ('A' for Active; 'I' for Inactive)
    1  A    between atoms: C_2  and  O_18
    2  A    between atoms: O_4  and  C_12
    3  A    between atoms: C_6  and  C_14
    4  A    between atoms: C_6  and  N_25
    5  A    between atoms: C_8  and  O_11
    6  A    between atoms: N_10  and  O_11
    7  A    between atoms: C_13  and  C_41
    8  A    between atoms: C_14  and  C_22
    9  A    between atoms: C_15  and  N_23
   10  A    between atoms: N_17  and  C_22
   11  A    between atoms: O_18  and  C_30
   12  A    between atoms: N_23  and  C_28
   13  A    between atoms: N_26  and  C_38
                            x       y       z     vdW  Elec       q    Type
                         _______ _______ _______ _____ _____    ______ ____

>  <TORSDO>
F 13

$$$$
=
 OpenBabel11042419163D

 43 47  0  0  1  0  0  0  0  0999 V2000
  195.8650  173.8470  141.3770 C   0  0  0  0  0  3  0  0  0  0  0  0
  194.3790  174.0010  143.0920 C   0  0  1  0  0  3  0  0  0  0  0  0
  194.2090  172.7780  142.6040 C   0  0  1  0  0  3  0  0  0  0  0  0
  192.7500  172.4050  140.7130 C   0  0  1  0  0  3  0  0  0  0  0  0
  192.6410  171.9660  142.4810 S   0  0  0  0  0  0  0  0  0  0  0  0
  195.1240  172.5450  141.4630 C   0  0  1  0  0  3  0  0  0  0  0  0
  195.4470  174.6450  142.3470 C   0  0  0  0  0  0  0  0  0  0  0  0
  194.2120  172.3120  140.2590 C   0  0  0  0  0  2  0  0  0  0  0  0
  197.2970  176.2870  142.8790 C   0  0  0  0  0  1  0  0  0  0  0  0
  195.9230  175.9810  142.5240 N   0  0  0  0  0  2  0  0  0  0  0  0
  193.5730  174.6320  144.0420 O   0  0  0  0  0  0  0  0  0  0  0  0
  192.4720  175.3740  143.6750 N   0  0  0  0  0  2  0  0  0  0  0  0
  189.7710  175.0030  146.0860 C   0  0  1  0  0  3  0  0  0  0  0  0
  190.1740  175.8840  143.9980 N   0  0  0  0  0  0  0  0  0  0  0  0
  191.9390  174.8630  146.7840 C   0  0  0  0  0  3  0  0  0  0  0  0
  191.0690  174.4610  145.6350 C   0  0  2  0  0  3  0  0  0  0  0  0
  191.2620  175.4530  147.7140 N   0  0  0  0  0  0  0  0  0  0  0  0
  191.2460  175.2700  144.3920 C   0  0  0  0  0  0  0  0  0  0  0  0
  189.9210  175.5910  147.2680 C   0  0  0  0  0  2  0  0  0  0  0  0
  189.0730  175.6360  144.9210 C   0  0  2  0  0  3  0  0  0  0  0  0
  188.3440  176.9090  145.2500 C   0  0  0  0  0  0  0  0  0  0  0  0
  186.9200  176.8900  145.3620 N   0  0  0  0  0  2  0  0  0  0  0  0
  188.9870  177.9710  145.4800 O   0  0  0  0  0  0  0  0  0  0  0  0
  184.7660  177.6700  146.1430 C   0  0  0  0  0  1  0  0  0  0  0  0
  186.1470  178.0830  145.6730 C   0  0  2  0  0  3  0  0  0  0  0  0
  186.0320  178.9570  144.4340 C   0  0  0  0  0  2  0  0  0  0  0  0
  185.3700  178.1850  143.3070 C   0  0  0  0  0  2  0  0  0  0  0  0
  185.0510  178.0280  141.0040 C   0  0  0  0  0  1  0  0  0  0  0  0
  187.2080  178.1320  141.8710 C   0  0  0  0  0  1  0  0  0  0  0  0
  185.8640  178.6610  142.0260 N   0  0  0  0  0  0  0  0  0  0  0  0
  191.9160  171.5160  139.9150 N   0  0  0  0  0  2  0  0  0  0  0  0
  188.7230  172.9730  139.3520 C   0  0  0  0  0  0  0  0  0  0  0  0
  188.5630  173.8180  138.3220 C   0  0  0  0  0  0  0  0  0  0  0  0
  190.9570  171.9830  138.9600 C   0  0  0  0  0  0  0  0  0  0  0  0
  191.3530  172.5610  137.8210 C   0  0  0  0  0  3  0  0  0  0  0  0
  190.4480  173.1030  136.7930 C   0  0  0  0  0  3  0  0  0  0  0  0
  189.5140  171.7030  139.2100 C   0  0  0  0  0  2  0  0  0  0  0  0
  189.2390  173.6390  137.0090 C   0  0  0  0  0  3  0  0  0  0  0  0
  187.6990  174.9050  138.4990 O   0  0  0  0  0  0  0  0  0  0  0  0
  187.1380  175.6310  137.4150 C   0  0  0  0  0  1  0  0  0  0  0  0
  188.0930  173.2700  140.5680 O   0  0  0  0  0  0  0  0  0  0  0  0
  188.3160  174.4750  141.2860 C   0  0  0  0  0  2  0  0  0  0  0  0
  187.2850  174.6760  142.2070 O   0  0  0  0  0  1  0  0  0  0  0  0
  1  6  1  0  0  0  0
  1  7  2  0  0  0  0
  2 11  1  6  0  0  0
  3  5  1  6  0  0  0
  3  2  1  0  0  0  0
  4 31  1  6  0  0  0
  4  5  1  0  0  0  0
  6  8  1  6  0  0  0
  6  3  1  0  0  0  0
  7 10  1  0  0  0  0
  7  2  1  0  0  0  0
  8  4  1  0  0  0  0
 10  9  1  0  0  0  0
 12 11  1  0  0  0  0
 12 18  1  0  0  0  0
 13 19  1  1  0  0  0
 14 18  2  0  0  0  0
 14 20  1  0  0  0  0
 15 17  2  0  0  0  0
 16 13  1  0  0  0  0
 16 15  1  1  0  0  0
 18 16  1  0  0  0  0
 19 17  1  0  0  0  0
 20 21  1  1  0  0  0
 20 13  1  0  0  0  0
 21 22  1  0  0  0  0
 21 23  2  0  0  0  0
 22 25  1  0  0  0  0
 25 24  1  6  0  0  0
 26 25  1  0  0  0  0
 27 26  1  0  0  0  0
 28 30  1  0  0  0  0
 29 30  1  0  0  0  0
 30 27  1  0  0  0  0
 32 41  1  0  0  0  0
 33 39  1  0  0  0  0
 33 32  2  0  0  0  0
 34 37  1  0  0  0  0
 34 31  1  0  0  0  0
 35 34  2  0  0  0  0
 36 38  2  0  0  0  0
 36 35  1  0  0  0  0
 37 32  1  0  0  0  0
 38 33  1  0  0  0  0
 40 39  1  0  0  0  0
 41 42  1  0  0  0  0
 42 43  1  0  0  0  0
M  END
>  <MODEL>
6

>  <REMARK>
 VINA RESULT:      -5.8      2.348      6.941
  Name = 
  13 active torsions:
  status: ('A' for Active; 'I' for Inactive)
    1  A    between atoms: C_2  and  O_18
    2  A    between atoms: O_4  and  C_12
    3  A    between atoms: C_6  and  C_14
    4  A    between atoms: C_6  and  N_25
    5  A    between atoms: C_8  and  O_11
    6  A    between atoms: N_10  and  O_11
    7  A    between atoms: C_13  and  C_41
    8  A    between atoms: C_14  and  C_22
    9  A    between atoms: C_15  and  N_23
   10  A    between atoms: N_17  and  C_22
   11  A    between atoms: O_18  and  C_30
   12  A    between atoms: N_23  and  C_28
   13  A    between atoms: N_26  and  C_38
                            x       y       z     vdW  Elec       q    Type
                         _______ _______ _______ _____ _____    ______ ____

>  <TORSDO>
F 13

$$$$
=
 OpenBabel11042419163D

 43 47  0  0  1  0  0  0  0  0999 V2000
  186.1900  177.4180  144.9930 C   0  0  0  0  0  3  0  0  0  0  0  0
  188.4610  177.5340  144.9730 C   0  0  1  0  0  3  0  0  0  0  0  0
  188.1060  177.5950  143.6950 C   0  0  1  0  0  3  0  0  0  0  0  0
  187.6990  175.5690  142.4390 C   0  0  1  0  0  3  0  0  0  0  0  0
  189.0110  176.8370  142.3760 S   0  0  0  0  0  0  0  0  0  0  0  0
  186.6330  177.5220  143.5640 C   0  0  1  0  0  3  0  0  0  0  0  0
  187.2540  177.4700  145.7790 C   0  0  0  0  0  0  0  0  0  0  0  0
  186.3620  176.2420  142.7750 C   0  0  0  0  0  2  0  0  0  0  0  0
  185.9480  177.5070  147.9450 C   0  0  0  0  0  1  0  0  0  0  0  0
  187.1860  177.3550  147.2020 N   0  0  0  0  0  2  0  0  0  0  0  0
  189.7600  177.3910  145.4650 O   0  0  0  0  0  0  0  0  0  0  0  0
  190.8610  177.5790  144.6600 N   0  0  0  0  0  2  0  0  0  0  0  0
  193.7970  175.9250  146.0340 C   0  0  1  0  0  3  0  0  0  0  0  0
  193.2130  177.4040  144.3700 N   0  0  0  0  0  0  0  0  0  0  0  0
  191.7240  175.0460  146.4050 C   0  0  0  0  0  3  0  0  0  0  0  0
  192.4170  176.3690  146.3190 C   0  0  2  0  0  3  0  0  0  0  0  0
  192.5500  174.0620  146.2600 N   0  0  0  0  0  0  0  0  0  0  0  0
  192.1530  177.1440  145.0700 C   0  0  0  0  0  0  0  0  0  0  0  0
  193.8340  174.5980  145.9770 C   0  0  0  0  0  2  0  0  0  0  0  0
  194.3960  176.8230  144.9940 C   0  0  2  0  0  3  0  0  0  0  0  0
  195.2510  176.1160  143.9810 C   0  0  0  0  0  0  0  0  0  0  0  0
  194.7090  175.8180  142.6930 N   0  0  0  0  0  2  0  0  0  0  0  0
  196.4540  175.8370  144.2450 O   0  0  0  0  0  0  0  0  0  0  0  0
  195.0340  175.6330  140.3020 C   0  0  0  0  0  1  0  0  0  0  0  0
  195.4760  175.1330  141.6630 C   0  0  2  0  0  3  0  0  0  0  0  0
  195.2450  173.6330  141.7650 C   0  0  0  0  0  2  0  0  0  0  0  0
  193.8190  173.3510  142.2030 C   0  0  0  0  0  2  0  0  0  0  0  0
  195.1960  171.9760  143.4850 C   0  0  0  0  0  1  0  0  0  0  0  0
  193.2590  171.1100  142.5300 C   0  0  0  0  0  1  0  0  0  0  0  0
  193.8090  172.2820  143.1880 N   0  0  0  0  0  0  0  0  0  0  0  0
  187.6060  174.8680  141.1660 N   0  0  0  0  0  2  0  0  0  0  0  0
  190.0140  172.2560  141.2890 C   0  0  0  0  0  0  0  0  0  0  0  0
  190.4110  171.6780  140.1440 C   0  0  0  0  0  0  0  0  0  0  0  0
  188.7220  174.2270  140.5370 C   0  0  0  0  0  0  0  0  0  0  0  0
  188.8080  174.1610  139.2040 C   0  0  0  0  0  3  0  0  0  0  0  0
  189.8950  173.4970  138.4630 C   0  0  0  0  0  3  0  0  0  0  0  0
  189.8390  173.7440  141.3970 C   0  0  0  0  0  2  0  0  0  0  0  0
  190.5920  172.4290  138.8740 C   0  0  0  0  0  3  0  0  0  0  0  0
  190.6810  170.3040  140.1670 O   0  0  0  0  0  0  0  0  0  0  0  0
  190.6470  169.4910  139.0030 C   0  0  0  0  0  1  0  0  0  0  0  0
  189.8080  171.4460  142.4130 O   0  0  0  0  0  0  0  0  0  0  0  0
  189.3150  171.9410  143.6510 C   0  0  0  0  0  2  0  0  0  0  0  0
  190.3700  172.1130  144.5480 O   0  0  0  0  0  1  0  0  0  0  0  0
  1  7  2  0  0  0  0
  2 11  1  6  0  0  0
  2  7  1  0  0  0  0
  3  5  1  6  0  0  0
  3  2  1  0  0  0  0
  4 31  1  6  0  0  0
  4  8  1  0  0  0  0
  5  4  1  0  0  0  0
  6  8  1  6  0  0  0
  6  3  1  0  0  0  0
  6  1  1  0  0  0  0
  7 10  1  0  0  0  0
 10  9  1  0  0  0  0
 12 18  1  0  0  0  0
 12 11  1  0  0  0  0
 13 19  1  6  0  0  0
 13 16  1  0  0  0  0
 14 20  1  0  0  0  0
 14 18  2  0  0  0  0
 16 15  1  6  0  0  0
 17 15  2  0  0  0  0
 18 16  1  0  0  0  0
 19 17  1  0  0  0  0
 20 21  1  6  0  0  0
 20 13  1  0  0  0  0
 21 23  2  0  0  0  0
 22 21  1  0  0  0  0
 25 24  1  6  0  0  0
 25 26  1  0  0  0  0
 25 22  1  0  0  0  0
 26 27  1  0  0  0  0
 27 30  1  0  0  0  0
 29 30  1  0  0  0  0
 30 28  1  0  0  0  0
 32 37  1  0  0  0  0
 32 41  1  0  0  0  0
 33 39  1  0  0  0  0
 33 32  2  0  0  0  0
 34 31  1  0  0  0  0
 34 37  1  0  0  0  0
 35 34  2  0  0  0  0
 36 38  2  0  0  0  0
 36 35  1  0  0  0  0
 38 33  1  0  0  0  0
 40 39  1  0  0  0  0
 41 42  1  0  0  0  0
 42 43  1  0  0  0  0
M  END
>  <MODEL>
7

>  <REMARK>
 VINA RESULT:      -5.8      1.716      2.700
  Name = 
  13 active torsions:
  status: ('A' for Active; 'I' for Inactive)
    1  A    between atoms: C_2  and  O_18
    2  A    between atoms: O_4  and  C_12
    3  A    between atoms: C_6  and  C_14
    4  A    between atoms: C_6  and  N_25
    5  A    between atoms: C_8  and  O_11
    6  A    between atoms: N_10  and  O_11
    7  A    between atoms: C_13  and  C_41
    8  A    between atoms: C_14  and  C_22
    9  A    between atoms: C_15  and  N_23
   10  A    between atoms: N_17  and  C_22
   11  A    between atoms: O_18  and  C_30
   12  A    between atoms: N_23  and  C_28
   13  A    between atoms: N_26  and  C_38
                            x       y       z     vdW  Elec       q    Type
                         _______ _______ _______ _____ _____    ______ ____

>  <TORSDO>
F 13

$$$$
=
 OpenBabel11042419163D

 43 47  0  0  1  0  0  0  0  0999 V2000
  194.2880  175.6110  146.5150 C   0  0  0  0  0  3  0  0  0  0  0  0
  193.9370  175.7460  144.2720 C   0  0  1  0  0  3  0  0  0  0  0  0
  193.2570  176.7640  144.7830 C   0  0  1  0  0  3  0  0  0  0  0  0
  191.0120  176.4420  145.6200 C   0  0  1  0  0  3  0  0  0  0  0  0
  191.6920  177.3220  144.1730 S   0  0  0  0  0  0  0  0  0  0  0  0
  193.3970  176.7900  146.2580 C   0  0  1  0  0  3  0  0  0  0  0  0
  194.6140  175.0580  145.3570 C   0  0  0  0  0  0  0  0  0  0  0  0
  191.9840  176.5820  146.7990 C   0  0  0  0  0  2  0  0  0  0  0  0
  196.7090  173.7500  145.9070 C   0  0  0  0  0  1  0  0  0  0  0  0
  195.4230  173.8840  145.2480 N   0  0  0  0  0  2  0  0  0  0  0  0
  193.8900  175.3010  142.9490 O   0  0  0  0  0  0  0  0  0  0  0  0
  193.9360  173.9600  142.6370 N   0  0  0  0  0  2  0  0  0  0  0  0
  190.5990  172.5080  142.5660 C   0  0  1  0  0  3  0  0  0  0  0  0
  192.8100  171.8720  142.5000 N   0  0  0  0  0  0  0  0  0  0  0  0
  190.8930  174.6990  142.0000 C   0  0  0  0  0  3  0  0  0  0  0  0
  191.3960  173.6830  142.9760 C   0  0  2  0  0  3  0  0  0  0  0  0
  189.9650  174.2160  141.2410 N   0  0  0  0  0  0  0  0  0  0  0  0
  192.7630  173.1530  142.6920 C   0  0  0  0  0  0  0  0  0  0  0  0
  189.8090  172.8390  141.5500 C   0  0  0  0  0  2  0  0  0  0  0  0
  191.4740  171.2920  142.5820 C   0  0  2  0  0  3  0  0  0  0  0  0
  191.2290  170.3350  141.4500 C   0  0  0  0  0  0  0  0  0  0  0  0
  191.9260  170.5170  140.2160 N   0  0  0  0  0  2  0  0  0  0  0  0
  190.4560  169.3490  141.6040 O   0  0  0  0  0  0  0  0  0  0  0  0
  193.0180  168.8610  138.8290 C   0  0  0  0  0  1  0  0  0  0  0  0
  191.7360  169.6330  139.0760 C   0  0  2  0  0  3  0  0  0  0  0  0
  191.3810  170.4530  137.8450 C   0  0  0  0  0  2  0  0  0  0  0  0
  190.9670  171.8560  138.2520 C   0  0  0  0  0  2  0  0  0  0  0  0
  188.9940  172.9920  137.7520 C   0  0  0  0  0  1  0  0  0  0  0  0
  189.8380  171.4230  136.2550 C   0  0  0  0  0  1  0  0  0  0  0  0
  190.2230  172.4820  137.1720 N   0  0  0  0  0  0  0  0  0  0  0  0
  189.7050  176.9790  145.9750 N   0  0  0  0  0  2  0  0  0  0  0  0
  186.3180  177.8140  145.2980 C   0  0  0  0  0  0  0  0  0  0  0  0
  185.8230  177.5940  144.0690 C   0  0  0  0  0  0  0  0  0  0  0  0
  188.5020  176.6540  145.2700 C   0  0  0  0  0  0  0  0  0  0  0  0
  188.5530  176.1230  144.0440 C   0  0  0  0  0  3  0  0  0  0  0  0
  187.3760  175.7850  143.2240 C   0  0  0  0  0  3  0  0  0  0  0  0
  187.2000  176.8080  145.9800 C   0  0  0  0  0  2  0  0  0  0  0  0
  186.1950  176.4160  143.2420 C   0  0  0  0  0  3  0  0  0  0  0  0
  184.8990  178.5170  143.5640 O   0  0  0  0  0  0  0  0  0  0  0  0
  184.0610  178.2400  142.4510 C   0  0  0  0  0  1  0  0  0  0  0  0
  185.9540  178.9910  145.9660 O   0  0  0  0  0  0  0  0  0  0  0  0
  185.6930  179.0450  147.3620 C   0  0  0  0  0  2  0  0  0  0  0  0
  184.4110  178.5590  147.6240 O   0  0  0  0  0  1  0  0  0  0  0  0
  2 11  1  1  0  0  0
  2  3  1  0  0  0  0
  2  7  1  0  0  0  0
  3  5  1  1  0  0  0
  3  6  1  0  0  0  0
  4 31  1  1  0  0  0
  4  8  1  0  0  0  0
  5  4  1  0  0  0  0
  6  1  1  1  0  0  0
  6  8  1  0  0  0  0
  7  1  2  0  0  0  0
 10  7  1  0  0  0  0
 10  9  1  0  0  0  0
 12 18  1  0  0  0  0
 12 11  1  0  0  0  0
 13 19  1  6  0  0  0
 13 20  1  0  0  0  0
 13 16  1  0  0  0  0
 14 20  1  0  0  0  0
 14 18  2  0  0  0  0
 16 15  1  6  0  0  0
 17 19  1  0  0  0  0
 17 15  2  0  0  0  0
 18 16  1  0  0  0  0
 20 21  1  6  0  0  0
 21 23  2  0  0  0  0
 22 21  1  0  0  0  0
 25 24  1  6  0  0  0
 25 22  1  0  0  0  0
 26 27  1  0  0  0  0
 26 25  1  0  0  0  0
 29 30  1  0  0  0  0
 30 28  1  0  0  0  0
 30 27  1  0  0  0  0
 32 41  1  0  0  0  0
 32 37  1  0  0  0  0
 33 32  2  0  0  0  0
 34 31  1  0  0  0  0
 34 37  1  0  0  0  0
 35 34  2  0  0  0  0
 36 38  2  0  0  0  0
 36 35  1  0  0  0  0
 38 33  1  0  0  0  0
 39 33  1  0  0  0  0
 40 39  1  0  0  0  0
 41 42  1  0  0  0  0
 42 43  1  0  0  0  0
M  END
>  <MODEL>
8

>  <REMARK>
 VINA RESULT:      -5.8      2.541      7.500
  Name = 
  13 active torsions:
  status: ('A' for Active; 'I' for Inactive)
    1  A    between atoms: C_2  and  O_18
    2  A    between atoms: O_4  and  C_12
    3  A    between atoms: C_6  and  C_14
    4  A    between atoms: C_6  and  N_25
    5  A    between atoms: C_8  and  O_11
    6  A    between atoms: N_10  and  O_11
    7  A    between atoms: C_13  and  C_41
    8  A    between atoms: C_14  and  C_22
    9  A    between atoms: C_15  and  N_23
   10  A    between atoms: N_17  and  C_22
   11  A    between atoms: O_18  and  C_30
   12  A    between atoms: N_23  and  C_28
   13  A    between atoms: N_26  and  C_38
                            x       y       z     vdW  Elec       q    Type
                         _______ _______ _______ _____ _____    ______ ____

>  <TORSDO>
F 13

$$$$
=
 OpenBabel11042419163D

 43 47  0  0  1  0  0  0  0  0999 V2000
  187.8170  178.1820  142.8890 C   0  0  0  0  0  3  0  0  0  0  0  0
  187.7070  175.9160  142.7380 C   0  0  1  0  0  3  0  0  0  0  0  0
  187.9150  176.1600  144.0270 C   0  0  1  0  0  3  0  0  0  0  0  0
  190.1570  176.4950  144.8640 C   0  0  1  0  0  3  0  0  0  0  0  0
  188.9300  175.1620  145.0770 S   0  0  0  0  0  0  0  0  0  0  0  0
  188.0130  177.6190  144.2660 C   0  0  1  0  0  3  0  0  0  0  0  0
  187.6030  177.1870  142.0430 C   0  0  0  0  0  0  0  0  0  0  0  0
  189.4290  177.8440  144.7920 C   0  0  0  0  0  2  0  0  0  0  0  0
  186.1090  177.5250  140.0290 C   0  0  0  0  0  1  0  0  0  0  0  0
  187.4180  177.3770  140.6390 N   0  0  0  0  0  2  0  0  0  0  0  0
  187.7440  174.6650  142.1170 O   0  0  0  0  0  0  0  0  0  0  0  0
  188.8410  173.8400  142.2230 N   0  0  0  0  0  2  0  0  0  0  0  0
  189.4670  172.0710  139.1050 C   0  0  1  0  0  3  0  0  0  0  0  0
  190.1570  172.0890  141.3000 N   0  0  0  0  0  0  0  0  0  0  0  0
  188.5340  174.1530  139.0590 C   0  0  0  0  0  3  0  0  0  0  0  0
  188.4900  172.8880  139.8540 C   0  0  2  0  0  3  0  0  0  0  0  0
  189.3230  174.0510  138.0390 N   0  0  0  0  0  0  0  0  0  0  0  0
  189.1890  172.9420  141.1730 C   0  0  0  0  0  0  0  0  0  0  0  0
  189.9480  172.7770  138.0870 C   0  0  0  0  0  2  0  0  0  0  0  0
  190.3220  171.3150  140.0760 C   0  0  2  0  0  3  0  0  0  0  0  0
  191.7700  171.2210  139.6850 C   0  0  0  0  0  0  0  0  0  0  0  0
  192.6950  172.1880  140.1880 N   0  0  0  0  0  2  0  0  0  0  0  0
  192.1760  170.2660  138.9660 O   0  0  0  0  0  0  0  0  0  0  0  0
  194.8980  171.6980  141.0580 C   0  0  0  0  0  1  0  0  0  0  0  0
  194.1100  172.1630  139.8490 C   0  0  2  0  0  3  0  0  0  0  0  0
  194.5640  173.5540  139.4390 C   0  0  0  0  0  2  0  0  0  0  0  0
  193.5200  174.2050  138.5490 C   0  0  0  0  0  2  0  0  0  0  0  0
  195.4340  175.1280  137.5920 C   0  0  0  0  0  1  0  0  0  0  0  0
  193.3350  175.6940  136.7620 C   0  0  0  0  0  1  0  0  0  0  0  0
  194.1220  174.5900  137.2830 N   0  0  0  0  0  0  0  0  0  0  0  0
  191.1090  176.4930  145.9680 N   0  0  0  0  0  2  0  0  0  0  0  0
  193.3850  174.5490  144.0510 C   0  0  0  0  0  0  0  0  0  0  0  0
  194.7030  174.7540  144.1970 C   0  0  0  0  0  0  0  0  0  0  0  0
  192.3790  175.8360  145.9100 C   0  0  0  0  0  0  0  0  0  0  0  0
  193.4430  176.3500  146.5380 C   0  0  0  0  0  3  0  0  0  0  0  0
  194.7970  175.7700  146.5120 C   0  0  0  0  0  3  0  0  0  0  0  0
  192.4610  174.5090  145.2360 C   0  0  0  0  0  2  0  0  0  0  0  0
  195.3380  175.0740  145.5040 C   0  0  0  0  0  3  0  0  0  0  0  0
  195.5100  174.6390  143.0590 O   0  0  0  0  0  0  0  0  0  0  0  0
  196.3680  175.6790  142.6120 C   0  0  0  0  0  1  0  0  0  0  0  0
  192.8790  174.3200  142.7650 O   0  0  0  0  0  0  0  0  0  0  0  0
  192.1560  175.2960  142.0270 C   0  0  0  0  0  2  0  0  0  0  0  0
  192.5910  176.5750  142.3780 O   0  0  0  0  0  1  0  0  0  0  0  0
  2 11  1  6  0  0  0
  2  3  1  0  0  0  0
  3  6  1  0  0  0  0
  3  5  1  6  0  0  0
  4  5  1  0  0  0  0
  4 31  1  1  0  0  0
  6  1  1  6  0  0  0
  6  8  1  0  0  0  0
  7  2  1  0  0  0  0
  7  1  2  0  0  0  0
  8  4  1  0  0  0  0
  9 10  1  0  0  0  0
 10  7  1  0  0  0  0
 11 12  1  0  0  0  0
 13 19  1  1  0  0  0
 13 16  1  0  0  0  0
 13 20  1  0  0  0  0
 16 15  1  6  0  0  0
 16 18  1  0  0  0  0
 17 19  1  0  0  0  0
 17 15  2  0  0  0  0
 18 14  2  0  0  0  0
 18 12  1  0  0  0  0
 20 21  1  6  0  0  0
 20 14  1  0  0  0  0
 21 22  1  0  0  0  0
 23 21  2  0  0  0  0
 25 22  1  0  0  0  0
 25 24  1  1  0  0  0
 26 25  1  0  0  0  0
 27 26  1  0  0  0  0
 29 30  1  0  0  0  0
 30 28  1  0  0  0  0
 30 27  1  0  0  0  0
 32 33  2  0  0  0  0
 32 37  1  0  0  0  0
 33 38  1  0  0  0  0
 34 31  1  0  0  0  0
 34 35  2  0  0  0  0
 36 35  1  0  0  0  0
 37 34  1  0  0  0  0
 38 36  2  0  0  0  0
 39 33  1  0  0  0  0
 40 39  1  0  0  0  0
 41 32  1  0  0  0  0
 42 43  1  0  0  0  0
 42 41  1  0  0  0  0
M  END
>  <MODEL>
9

>  <REMARK>
 VINA RESULT:      -5.8      2.151      5.992
  Name = 
  13 active torsions:
  status: ('A' for Active; 'I' for Inactive)
    1  A    between atoms: C_2  and  O_18
    2  A    between atoms: O_4  and  C_12
    3  A    between atoms: C_6  and  C_14
    4  A    between atoms: C_6  and  N_25
    5  A    between atoms: C_8  and  O_11
    6  A    between atoms: N_10  and  O_11
    7  A    between atoms: C_13  and  C_41
    8  A    between atoms: C_14  and  C_22
    9  A    between atoms: C_15  and  N_23
   10  A    between atoms: N_17  and  C_22
   11  A    between atoms: O_18  and  C_30
   12  A    between atoms: N_23  and  C_28
   13  A    between atoms: N_26  and  C_38
                            x       y       z     vdW  Elec       q    Type
                         _______ _______ _______ _____ _____    ______ ____

>  <TORSDO>
F 13

$$$$
