=
 OpenBabel11042419323D

 32 33  0  0  1  0  0  0  0  0999 V2000
  191.4100  175.7730  144.4010 C   0  0  1  0  0  3  0  0  0  0  0  0
  191.1900  174.7160  143.4250 N   0  0  0  0  0  0  0  0  0  0  0  0
  192.1180  173.8600  143.1420 C   0  0  0  0  0  3  0  0  0  0  0  0
  190.5530  172.0020  140.4860 O   0  0  0  0  0  0  0  0  0  0  0  0
  191.8960  172.8110  142.1930 N   0  0  0  0  0  2  0  0  0  0  0  0
  190.6210  172.4000  141.6800 C   0  0  0  0  0  0  0  0  0  0  0  0
  189.4140  171.8640  143.7380 C   0  0  0  0  0  2  0  0  0  0  0  0
  189.3970  172.3840  142.5150 C   0  0  0  0  0  0  0  0  0  0  0  0
  188.0740  172.7460  141.9160 C   0  0  0  0  0  2  0  0  0  0  0  0
  187.4510  174.9390  142.6200 O   0  0  0  0  0  1  0  0  0  0  0  0
  187.9610  174.2210  141.7210 C   0  0  0  0  0  0  0  0  0  0  0  0
  188.3890  174.8000  140.5350 O   0  0  0  0  0  0  0  0  0  0  0  0
  190.3170  177.8150  144.9510 O   0  0  0  0  0  0  0  0  0  0  0  0
  189.9680  177.0650  142.7700 N   0  0  0  0  0  2  0  0  0  0  0  0
  190.5430  176.9410  144.0710 C   0  0  0  0  0  0  0  0  0  0  0  0
  189.1470  178.1490  142.4440 N   0  0  0  0  0  2  0  0  0  0  0  0
  184.1090  178.1420  141.6050 N   0  0  0  0  0  0  0  0  0  0  0  0
  186.1600  177.9580  140.3730 C   0  0  0  0  0  3  0  0  0  0  0  0
  184.7650  178.5570  145.1250 C   0  0  0  0  0  0  0  0  0  0  0  0
  186.9340  178.0830  141.5300 C   0  0  0  0  0  0  0  0  0  0  0  0
  186.1630  178.5380  145.1760 C   0  0  0  0  0  3  0  0  0  0  0  0
  184.1120  178.4240  143.9400 N   0  0  0  0  0  0  0  0  0  0  0  0
  184.0200  178.7130  146.3270 N   0  0  0  0  0  1  0  0  0  0  0  0
  188.2300  178.0400  141.3920 N   0  0  0  0  0  2  0  0  0  0  0  0
  184.7850  178.2710  142.7720 C   0  0  0  0  0  0  0  0  0  0  0  0
  186.9090  178.3840  144.0070 C   0  0  0  0  0  3  0  0  0  0  0  0
  186.2690  178.2450  142.7720 C   0  0  2  0  0  3  0  0  0  0  0  0
  184.7630  177.9890  140.4240 C   0  0  0  0  0  2  0  0  0  0  0  0
  191.0860  175.2830  145.8070 C   0  0  0  0  0  2  0  0  0  0  0  0
  192.3520  175.1030  146.6220 C   0  0  0  0  0  2  0  0  0  0  0  0
  194.5390  175.8700  146.3930 C   0  0  0  0  0  1  0  0  0  0  0  0
  193.1610  176.3040  146.5300 N   0  0  0  0  0  2  0  0  0  0  0  0
  1 29  1  1  0  0  0
  2  1  1  0  0  0  0
  3  2  2  0  0  0  0
  4  6  2  0  0  0  0
  5  3  1  0  0  0  0
  6  5  1  0  0  0  0
  6  8  1  0  0  0  0
  8  7  2  0  0  0  0
  9  8  1  0  0  0  0
 11  9  1  0  0  0  0
 11 10  1  0  0  0  0
 12 11  2  0  0  0  0
 14 15  1  0  0  0  0
 15  1  1  0  0  0  0
 15 13  2  0  0  0  0
 16 14  1  0  0  0  0
 17 25  2  0  0  0  0
 18 28  1  0  0  0  0
 18 20  2  0  0  0  0
 19 21  1  0  0  0  0
 19 23  1  0  0  0  0
 20 27  1  0  0  0  0
 22 19  2  0  0  0  0
 24 20  1  0  0  0  0
 24 16  1  0  0  0  0
 25 22  1  0  0  0  0
 26 21  2  0  0  0  0
 27 25  1  0  0  0  0
 27 26  1  6  0  0  0
 28 17  1  0  0  0  0
 29 30  1  0  0  0  0
 31 32  1  0  0  0  0
 32 30  1  0  0  0  0
M  END
>  <MODEL>
1

>  <REMARK>
 VINA RESULT:      -6.6      0.000      0.000
  Name = 
  10 active torsions:
  status: ('A' for Active; 'I' for Inactive)
    1  A    between atoms: N_1  and  C_5
    2  A    between atoms: C_4  and  N_18
    3  A    between atoms: C_4  and  C_30
    4  A    between atoms: C_5  and  C_28
    5  A    between atoms: C_5  and  C_30
    6  A    between atoms: N_6  and  N_17
    7  A    between atoms: N_6  and  N_23
    8  A    between atoms: C_20  and  C_24
    9  A    between atoms: C_20  and  C_31
   10  A    between atoms: C_22  and  C_24
                            x       y       z     vdW  Elec       q    Type
                         _______ _______ _______ _____ _____    ______ ____

>  <TORSDO>
F 10

$$$$
=
 OpenBabel11042419323D

 32 33  0  0  1  0  0  0  0  0999 V2000
  185.9240  178.6330  142.2560 C   0  0  1  0  0  3  0  0  0  0  0  0
  185.9940  178.7440  143.7050 N   0  0  0  0  0  0  0  0  0  0  0  0
  185.1530  179.4740  144.3640 C   0  0  0  0  0  3  0  0  0  0  0  0
  186.4700  179.2000  147.7020 O   0  0  0  0  0  0  0  0  0  0  0  0
  185.2120  179.5700  145.7910 N   0  0  0  0  0  2  0  0  0  0  0  0
  185.9600  178.7070  146.6600 C   0  0  0  0  0  0  0  0  0  0  0  0
  185.2560  176.3790  146.9130 C   0  0  0  0  0  2  0  0  0  0  0  0
  186.1110  177.2570  146.4000 C   0  0  0  0  0  0  0  0  0  0  0  0
  187.3520  176.7370  145.7420 C   0  0  0  0  0  2  0  0  0  0  0  0
  189.1780  177.3290  147.1590 O   0  0  0  0  0  0  0  0  0  0  0  0
  188.4030  176.4240  146.7540 C   0  0  0  0  0  0  0  0  0  0  0  0
  188.5480  175.1270  147.2260 O   0  0  0  0  0  1  0  0  0  0  0  0
  188.1240  178.3920  141.3790 O   0  0  0  0  0  0  0  0  0  0  0  0
  186.9750  176.3910  141.7260 N   0  0  0  0  0  2  0  0  0  0  0  0
  187.0720  177.8160  141.7650 C   0  0  0  0  0  0  0  0  0  0  0  0
  188.0380  175.6090  141.2630 N   0  0  0  0  0  2  0  0  0  0  0  0
  190.5070  172.4940  144.4710 N   0  0  0  0  0  0  0  0  0  0  0  0
  188.8420  172.3840  142.7480 C   0  0  0  0  0  3  0  0  0  0  0  0
  191.6140  175.8900  144.9640 C   0  0  0  0  0  0  0  0  0  0  0  0
  188.8930  173.7640  142.5300 C   0  0  0  0  0  0  0  0  0  0  0  0
  190.8520  176.5940  144.0260 C   0  0  0  0  0  3  0  0  0  0  0  0
  191.4850  174.5430  145.0920 N   0  0  0  0  0  0  0  0  0  0  0  0
  192.5360  176.5910  145.7890 N   0  0  0  0  0  1  0  0  0  0  0  0
  188.1110  174.2530  141.6080 N   0  0  0  0  0  0  0  0  0  0  0  0
  190.6170  173.8370  144.3230 C   0  0  0  0  0  0  0  0  0  0  0  0
  189.9440  175.9220  143.2070 C   0  0  0  0  0  3  0  0  0  0  0  0
  189.7850  174.5380  143.3130 C   0  0  1  0  0  3  0  0  0  0  0  0
  189.6460  171.7690  143.7130 C   0  0  0  0  0  3  0  0  0  0  0  0
  184.6170  177.9770  141.8280 C   0  0  0  0  0  2  0  0  0  0  0  0
  184.2070  178.4400  140.4440 C   0  0  0  0  0  2  0  0  0  0  0  0
  182.0650  178.2650  141.3410 C   0  0  0  0  0  1  0  0  0  0  0  0
  182.8600  177.9800  140.1610 N   0  0  0  0  0  2  0  0  0  0  0  0
  1 29  1  1  0  0  0
  1  2  1  0  0  0  0
  2  3  2  0  0  0  0
  3  5  1  0  0  0  0
  5  6  1  0  0  0  0
  6  4  2  0  0  0  0
  8  6  1  0  0  0  0
  8  7  2  0  0  0  0
  9  8  1  0  0  0  0
  9 11  1  0  0  0  0
 11 10  2  0  0  0  0
 11 12  1  0  0  0  0
 13 15  2  0  0  0  0
 14 15  1  0  0  0  0
 15  1  1  0  0  0  0
 16 24  1  0  0  0  0
 16 14  1  0  0  0  0
 18 28  2  0  0  0  0
 19 22  2  0  0  0  0
 19 23  1  0  0  0  0
 20 18  1  0  0  0  0
 20 27  1  0  0  0  0
 21 19  1  0  0  0  0
 24 20  2  0  0  0  0
 25 17  2  0  0  0  0
 25 22  1  0  0  0  0
 26 21  2  0  0  0  0
 27 26  1  6  0  0  0
 27 25  1  0  0  0  0
 28 17  1  0  0  0  0
 30 29  1  0  0  0  0
 32 30  1  0  0  0  0
 32 31  1  0  0  0  0
M  END
>  <MODEL>
2

>  <REMARK>
 VINA RESULT:      -6.6      2.265      7.598
  Name = 
  10 active torsions:
  status: ('A' for Active; 'I' for Inactive)
    1  A    between atoms: N_1  and  C_5
    2  A    between atoms: C_4  and  N_18
    3  A    between atoms: C_4  and  C_30
    4  A    between atoms: C_5  and  C_28
    5  A    between atoms: C_5  and  C_30
    6  A    between atoms: N_6  and  N_17
    7  A    between atoms: N_6  and  N_23
    8  A    between atoms: C_20  and  C_24
    9  A    between atoms: C_20  and  C_31
   10  A    between atoms: C_22  and  C_24
                            x       y       z     vdW  Elec       q    Type
                         _______ _______ _______ _____ _____    ______ ____

>  <TORSDO>
F 10

$$$$
=
 OpenBabel11042419323D

 32 33  0  0  1  0  0  0  0  0999 V2000
  192.0260  175.2390  144.3380 C   0  0  1  0  0  3  0  0  0  0  0  0
  191.5010  174.0870  143.6200 N   0  0  0  0  0  0  0  0  0  0  0  0
  191.2240  172.9820  144.2350 C   0  0  0  0  0  3  0  0  0  0  0  0
  190.3200  170.8650  141.4690 O   0  0  0  0  0  0  0  0  0  0  0  0
  190.6930  171.8540  143.5310 N   0  0  0  0  0  2  0  0  0  0  0  0
  190.1480  171.8740  142.2040 C   0  0  0  0  0  0  0  0  0  0  0  0
  188.1650  173.3050  142.2000 C   0  0  0  0  0  2  0  0  0  0  0  0
  189.3570  173.0150  141.6880 C   0  0  0  0  0  0  0  0  0  0  0  0
  189.7820  173.7200  140.4370 C   0  0  0  0  0  2  0  0  0  0  0  0
  188.1740  174.5050  138.8590 O   0  0  0  0  0  0  0  0  0  0  0  0
  188.7870  173.5180  139.3440 C   0  0  0  0  0  0  0  0  0  0  0  0
  188.5120  172.2390  138.8830 O   0  0  0  0  0  1  0  0  0  0  0  0
  191.5090  177.4710  143.6890 O   0  0  0  0  0  0  0  0  0  0  0  0
  189.7290  176.2690  144.5990 N   0  0  0  0  0  2  0  0  0  0  0  0
  191.0890  176.3900  144.1830 C   0  0  0  0  0  0  0  0  0  0  0  0
  188.8370  177.3380  144.4680 N   0  0  0  0  0  2  0  0  0  0  0  0
  183.9760  178.6650  145.3090 N   0  0  0  0  0  0  0  0  0  0  0  0
  185.9940  178.2680  146.5440 C   0  0  0  0  0  3  0  0  0  0  0  0
  184.5200  178.1760  141.7790 C   0  0  0  0  0  0  0  0  0  0  0  0
  186.7140  177.9690  145.3840 C   0  0  0  0  0  0  0  0  0  0  0  0
  185.8730  177.8230  141.7280 C   0  0  0  0  0  2  0  0  0  0  0  0
  183.9190  178.4490  142.9670 N   0  0  0  0  0  0  0  0  0  0  0  0
  183.7690  178.2520  140.5740 N   0  0  0  0  0  1  0  0  0  0  0  0
  187.9740  177.6620  145.5230 N   0  0  0  0  0  0  0  0  0  0  0  0
  184.6010  178.3890  144.1380 C   0  0  0  0  0  0  0  0  0  0  0  0
  186.6260  177.7450  142.9010 C   0  0  0  0  0  3  0  0  0  0  0  0
  186.0380  178.0190  144.1390 C   0  0  0  0  0  0  0  0  0  0  0  0
  184.6390  178.6100  146.4930 C   0  0  0  0  0  3  0  0  0  0  0  0
  192.1960  174.9200  145.8180 C   0  0  0  0  0  2  0  0  0  0  0  0
  192.8490  176.0760  146.5490 C   0  0  0  0  0  2  0  0  0  0  0  0
  191.0600  175.4600  147.9070 C   0  0  0  0  0  1  0  0  0  0  0  0
  191.9570  176.5550  147.5900 N   0  0  0  0  0  2  0  0  0  0  0  0
  1 29  1  1  0  0  0
  2  3  2  0  0  0  0
  2  1  1  0  0  0  0
  4  6  2  0  0  0  0
  5  3  1  0  0  0  0
  6  5  1  0  0  0  0
  8  7  2  0  0  0  0
  8  6  1  0  0  0  0
  9  8  1  0  0  0  0
 10 11  2  0  0  0  0
 11  9  1  0  0  0  0
 12 11  1  0  0  0  0
 13 15  2  0  0  0  0
 15  1  1  0  0  0  0
 15 14  1  0  0  0  0
 16 14  1  0  0  0  0
 16 24  1  0  0  0  0
 17 28  1  0  0  0  0
 19 22  2  0  0  0  0
 20 24  2  0  0  0  0
 20 18  1  0  0  0  0
 21 19  1  0  0  0  0
 21 26  1  0  0  0  0
 22 25  1  0  0  0  0
 23 19  1  0  0  0  0
 25 27  1  0  0  0  0
 25 17  2  0  0  0  0
 26 27  2  0  0  0  0
 27 20  1  0  0  0  0
 28 18  2  0  0  0  0
 29 30  1  0  0  0  0
 30 32  1  0  0  0  0
 32 31  1  0  0  0  0
M  END
>  <MODEL>
3

>  <REMARK>
 VINA RESULT:      -6.3      1.549      2.922
  Name = 
  10 active torsions:
  status: ('A' for Active; 'I' for Inactive)
    1  A    between atoms: N_1  and  C_5
    2  A    between atoms: C_4  and  N_18
    3  A    between atoms: C_4  and  C_30
    4  A    between atoms: C_5  and  C_28
    5  A    between atoms: C_5  and  C_30
    6  A    between atoms: N_6  and  N_17
    7  A    between atoms: N_6  and  N_23
    8  A    between atoms: C_20  and  C_24
    9  A    between atoms: C_20  and  C_31
   10  A    between atoms: C_22  and  C_24
                            x       y       z     vdW  Elec       q    Type
                         _______ _______ _______ _____ _____    ______ ____

>  <TORSDO>
F 10

$$$$
=
 OpenBabel11042419323D

 32 33  0  0  1  0  0  0  0  0999 V2000
  190.9570  173.8340  145.0440 C   0  0  1  0  0  3  0  0  0  0  0  0
  192.3880  173.9530  145.2830 N   0  0  0  0  0  0  0  0  0  0  0  0
  193.2360  173.1880  144.6760 C   0  0  0  0  0  3  0  0  0  0  0  0
  196.3140  174.1880  146.2480 O   0  0  0  0  0  0  0  0  0  0  0  0
  194.6440  173.3160  144.8990 N   0  0  0  0  0  2  0  0  0  0  0  0
  195.2940  174.4200  145.5460 C   0  0  0  0  0  0  0  0  0  0  0  0
  194.3920  176.5190  146.4190 C   0  0  0  0  0  2  0  0  0  0  0  0
  194.8360  175.8190  145.3800 C   0  0  0  0  0  0  0  0  0  0  0  0
  194.6560  176.3920  144.0080 C   0  0  0  0  0  2  0  0  0  0  0  0
  195.9300  175.3190  142.3000 O   0  0  0  0  0  0  0  0  0  0  0  0
  195.8880  176.2120  143.1870 C   0  0  0  0  0  0  0  0  0  0  0  0
  197.0020  177.0060  143.4210 O   0  0  0  0  0  1  0  0  0  0  0  0
  190.6540  175.9300  143.9570 O   0  0  0  0  0  0  0  0  0  0  0  0
  189.4560  175.6650  145.9410 N   0  0  0  0  0  0  0  0  0  0  0  0
  190.3560  175.1950  144.9370 C   0  0  0  0  0  0  0  0  0  0  0  0
  188.8880  176.9410  145.8610 N   0  0  0  0  0  0  0  0  0  0  0  0
  184.0400  178.5470  145.9350 N   0  0  0  0  0  0  0  0  0  0  0  0
  185.8150  178.0450  147.4690 C   0  0  0  0  0  3  0  0  0  0  0  0
  185.0990  178.0020  142.5320 C   0  0  0  0  0  0  0  0  0  0  0  0
  186.6890  177.6970  146.4350 C   0  0  0  0  0  0  0  0  0  0  0  0
  186.4210  177.5730  142.6930 C   0  0  0  0  0  2  0  0  0  0  0  0
  184.3360  178.3170  143.6130 N   0  0  0  0  0  0  0  0  0  0  0  0
  184.5500  178.1120  141.2250 N   0  0  0  0  0  1  0  0  0  0  0  0
  187.8920  177.3210  146.7690 N   0  0  0  0  0  0  0  0  0  0  0  0
  184.8230  178.2270  144.8760 C   0  0  0  0  0  0  0  0  0  0  0  0
  186.9760  177.4610  143.9680 C   0  0  0  0  0  3  0  0  0  0  0  0
  186.2190  177.7770  145.1000 C   0  0  0  0  0  0  0  0  0  0  0  0
  184.5060  178.4630  147.2080 C   0  0  0  0  0  3  0  0  0  0  0  0
  190.6880  173.0600  143.7600 C   0  0  0  0  0  2  0  0  0  0  0  0
  189.4600  172.1830  143.9030 C   0  0  0  0  0  2  0  0  0  0  0  0
  188.5600  173.4300  142.1540 C   0  0  0  0  0  1  0  0  0  0  0  0
  188.7910  172.0760  142.6190 N   0  0  0  0  0  2  0  0  0  0  0  0
  1 29  1  6  0  0  0
  1  2  1  0  0  0  0
  3  5  1  0  0  0  0
  3  2  2  0  0  0  0
  5  6  1  0  0  0  0
  6  4  2  0  0  0  0
  8  6  1  0  0  0  0
  8  7  2  0  0  0  0
  9  8  1  0  0  0  0
 10 11  2  0  0  0  0
 11 12  1  0  0  0  0
 11  9  1  0  0  0  0
 13 15  2  0  0  0  0
 15  1  1  0  0  0  0
 15 14  1  0  0  0  0
 16 14  2  0  0  0  0
 16 24  1  0  0  0  0
 17 28  1  0  0  0  0
 19 21  1  0  0  0  0
 19 22  2  0  0  0  0
 20 24  2  0  0  0  0
 20 18  1  0  0  0  0
 21 26  1  0  0  0  0
 22 25  1  0  0  0  0
 23 19  1  0  0  0  0
 25 27  1  0  0  0  0
 25 17  2  0  0  0  0
 26 27  2  0  0  0  0
 27 20  1  0  0  0  0
 28 18  2  0  0  0  0
 29 30  1  0  0  0  0
 31 32  1  0  0  0  0
 32 30  1  0  0  0  0
M  END
>  <MODEL>
4

>  <REMARK>
 VINA RESULT:      -6.3      2.877      5.405
  Name = 
  10 active torsions:
  status: ('A' for Active; 'I' for Inactive)
    1  A    between atoms: N_1  and  C_5
    2  A    between atoms: C_4  and  N_18
    3  A    between atoms: C_4  and  C_30
    4  A    between atoms: C_5  and  C_28
    5  A    between atoms: C_5  and  C_30
    6  A    between atoms: N_6  and  N_17
    7  A    between atoms: N_6  and  N_23
    8  A    between atoms: C_20  and  C_24
    9  A    between atoms: C_20  and  C_31
   10  A    between atoms: C_22  and  C_24
                            x       y       z     vdW  Elec       q    Type
                         _______ _______ _______ _____ _____    ______ ____

>  <TORSDO>
F 10

$$$$
=
 OpenBabel11042419323D

 32 33  0  0  1  0  0  0  0  0999 V2000
  192.6580  175.3430  144.5340 C   0  0  1  0  0  3  0  0  0  0  0  0
  191.9070  174.2550  143.9260 N   0  0  0  0  0  0  0  0  0  0  0  0
  191.4480  173.2760  144.6380 C   0  0  0  0  0  3  0  0  0  0  0  0
  190.0830  171.1460  142.0780 O   0  0  0  0  0  0  0  0  0  0  0  0
  190.6950  172.2140  144.0420 N   0  0  0  0  0  2  0  0  0  0  0  0
  190.1240  172.2270  142.7250 C   0  0  0  0  0  0  0  0  0  0  0  0
  188.5670  174.1120  142.7350 C   0  0  0  0  0  2  0  0  0  0  0  0
  189.5440  173.4490  142.1240 C   0  0  0  0  0  0  0  0  0  0  0  0
  189.8890  173.8330  140.7180 C   0  0  0  0  0  2  0  0  0  0  0  0
  188.1930  174.6470  139.2510 O   0  0  0  0  0  0  0  0  0  0  0  0
  188.7190  173.6500  139.8110 C   0  0  0  0  0  0  0  0  0  0  0  0
  188.1890  172.3830  139.6070 O   0  0  0  0  0  1  0  0  0  0  0  0
  191.9020  177.5320  143.9860 O   0  0  0  0  0  0  0  0  0  0  0  0
  190.7580  176.5020  145.7390 N   0  0  0  0  0  0  0  0  0  0  0  0
  191.7620  176.5200  144.7240 C   0  0  0  0  0  0  0  0  0  0  0  0
  189.9120  177.5990  145.9370 N   0  0  0  0  0  0  0  0  0  0  0  0
  184.8170  177.5380  145.5880 N   0  0  0  0  0  0  0  0  0  0  0  0
  186.5290  177.3550  147.2580 C   0  0  0  0  0  3  0  0  0  0  0  0
  186.2640  177.9900  142.3170 C   0  0  0  0  0  0  0  0  0  0  0  0
  187.5480  177.4980  146.3130 C   0  0  0  0  0  0  0  0  0  0  0  0
  187.6360  177.9820  142.5910 C   0  0  0  0  0  2  0  0  0  0  0  0
  185.3560  177.8440  143.3190 N   0  0  0  0  0  0  0  0  0  0  0  0
  185.8160  178.1570  140.9780 N   0  0  0  0  0  1  0  0  0  0  0  0
  188.7770  177.4700  146.7470 N   0  0  0  0  0  0  0  0  0  0  0  0
  185.7430  177.6830  144.6100 C   0  0  0  0  0  0  0  0  0  0  0  0
  188.0930  177.8210  143.9000 C   0  0  0  0  0  3  0  0  0  0  0  0
  187.1870  177.6670  144.9520 C   0  0  0  0  0  0  0  0  0  0  0  0
  185.1810  177.3760  146.8860 C   0  0  0  0  0  3  0  0  0  0  0  0
  193.2270  174.9170  145.8830 C   0  0  0  0  0  2  0  0  0  0  0  0
  194.5710  175.5710  146.1340 C   0  0  0  0  0  2  0  0  0  0  0  0
  196.3250  174.5770  144.9680 C   0  0  0  0  0  1  0  0  0  0  0  0
  195.3220  175.6230  144.8930 N   0  0  0  0  0  2  0  0  0  0  0  0
  1 15  1  0  0  0  0
  1 29  1  1  0  0  0
  2  1  1  0  0  0  0
  2  3  2  0  0  0  0
  4  6  2  0  0  0  0
  5  3  1  0  0  0  0
  6  5  1  0  0  0  0
  8  6  1  0  0  0  0
  8  7  2  0  0  0  0
  9  8  1  0  0  0  0
 10 11  2  0  0  0  0
 11  9  1  0  0  0  0
 12 11  1  0  0  0  0
 13 15  2  0  0  0  0
 14 16  2  0  0  0  0
 15 14  1  0  0  0  0
 16 24  1  0  0  0  0
 17 28  1  0  0  0  0
 19 21  1  0  0  0  0
 19 22  2  0  0  0  0
 20 24  2  0  0  0  0
 20 18  1  0  0  0  0
 21 26  1  0  0  0  0
 22 25  1  0  0  0  0
 23 19  1  0  0  0  0
 25 27  1  0  0  0  0
 25 17  2  0  0  0  0
 26 27  2  0  0  0  0
 27 20  1  0  0  0  0
 28 18  2  0  0  0  0
 29 30  1  0  0  0  0
 32 31  1  0  0  0  0
 32 30  1  0  0  0  0
M  END
>  <MODEL>
5

>  <REMARK>
 VINA RESULT:      -6.3      1.921      3.224
  Name = 
  10 active torsions:
  status: ('A' for Active; 'I' for Inactive)
    1  A    between atoms: N_1  and  C_5
    2  A    between atoms: C_4  and  N_18
    3  A    between atoms: C_4  and  C_30
    4  A    between atoms: C_5  and  C_28
    5  A    between atoms: C_5  and  C_30
    6  A    between atoms: N_6  and  N_17
    7  A    between atoms: N_6  and  N_23
    8  A    between atoms: C_20  and  C_24
    9  A    between atoms: C_20  and  C_31
   10  A    between atoms: C_22  and  C_24
                            x       y       z     vdW  Elec       q    Type
                         _______ _______ _______ _____ _____    ______ ____

>  <TORSDO>
F 10

$$$$
=
 OpenBabel11042419323D

 32 33  0  0  1  0  0  0  0  0999 V2000
  191.9680  175.2030  144.3780 C   0  0  1  0  0  3  0  0  0  0  0  0
  191.4820  173.9680  143.7810 N   0  0  0  0  0  0  0  0  0  0  0  0
  190.8100  173.1060  144.4750 C   0  0  0  0  0  3  0  0  0  0  0  0
  190.4340  170.4430  142.0830 O   0  0  0  0  0  0  0  0  0  0  0  0
  190.3190  171.8990  143.8830 N   0  0  0  0  0  2  0  0  0  0  0  0
  190.2410  171.6250  142.4770 C   0  0  0  0  0  0  0  0  0  0  0  0
  190.8490  173.3680  140.8730 C   0  0  0  0  0  2  0  0  0  0  0  0
  189.8970  172.6680  141.4830 C   0  0  0  0  0  0  0  0  0  0  0  0
  188.4750  173.1050  141.3130 C   0  0  0  0  0  2  0  0  0  0  0  0
  188.1910  174.7600  143.0090 O   0  0  0  0  0  1  0  0  0  0  0  0
  188.2890  174.5110  141.7790 C   0  0  0  0  0  0  0  0  0  0  0  0
  188.1900  175.5410  140.8550 O   0  0  0  0  0  0  0  0  0  0  0  0
  190.7950  176.8940  143.1810 O   0  0  0  0  0  0  0  0  0  0  0  0
  190.0670  176.5480  145.3710 N   0  0  0  0  0  0  0  0  0  0  0  0
  190.9190  176.2580  144.2620 C   0  0  0  0  0  0  0  0  0  0  0  0
  189.0820  177.5380  145.2830 N   0  0  0  0  0  0  0  0  0  0  0  0
  184.1040  178.3770  146.0570 N   0  0  0  0  0  0  0  0  0  0  0  0
  186.1150  178.0640  147.3260 C   0  0  0  0  0  3  0  0  0  0  0  0
  184.7810  178.1980  142.5210 C   0  0  0  0  0  0  0  0  0  0  0  0
  186.8890  177.9140  146.1720 C   0  0  0  0  0  0  0  0  0  0  0  0
  186.1610  177.9680  142.4900 C   0  0  0  0  0  2  0  0  0  0  0  0
  184.1270  178.3310  143.7050 N   0  0  0  0  0  0  0  0  0  0  0  0
  184.0580  178.2990  141.3010 N   0  0  0  0  0  1  0  0  0  0  0  0
  188.1670  177.7070  146.3300 N   0  0  0  0  0  0  0  0  0  0  0  0
  184.7810  178.2420  144.8910 C   0  0  0  0  0  0  0  0  0  0  0  0
  186.8860  177.8680  143.6780 C   0  0  0  0  0  3  0  0  0  0  0  0
  186.2440  177.9980  144.9120 C   0  0  0  0  0  0  0  0  0  0  0  0
  184.7370  178.2920  147.2550 C   0  0  0  0  0  3  0  0  0  0  0  0
  192.3130  174.9920  145.8470 C   0  0  0  0  0  2  0  0  0  0  0  0
  193.7940  175.2010  146.0910 C   0  0  0  0  0  2  0  0  0  0  0  0
  194.5680  177.3730  145.7690 C   0  0  0  0  0  1  0  0  0  0  0  0
  193.9990  176.4750  146.7560 N   0  0  0  0  0  2  0  0  0  0  0  0
  1 29  1  1  0  0  0
  2  1  1  0  0  0  0
  2  3  2  0  0  0  0
  4  6  2  0  0  0  0
  5  3  1  0  0  0  0
  6  5  1  0  0  0  0
  7  8  2  0  0  0  0
  8  6  1  0  0  0  0
  9  8  1  0  0  0  0
  9 11  1  0  0  0  0
 11 10  1  0  0  0  0
 12 11  2  0  0  0  0
 13 15  2  0  0  0  0
 15  1  1  0  0  0  0
 15 14  1  0  0  0  0
 16 14  2  0  0  0  0
 16 24  1  0  0  0  0
 17 28  1  0  0  0  0
 19 22  2  0  0  0  0
 20 24  2  0  0  0  0
 20 18  1  0  0  0  0
 21 19  1  0  0  0  0
 21 26  1  0  0  0  0
 22 25  1  0  0  0  0
 23 19  1  0  0  0  0
 25 27  1  0  0  0  0
 25 17  2  0  0  0  0
 26 27  2  0  0  0  0
 27 20  1  0  0  0  0
 28 18  2  0  0  0  0
 29 30  1  0  0  0  0
 30 32  1  0  0  0  0
 31 32  1  0  0  0  0
M  END
>  <MODEL>
6

>  <REMARK>
 VINA RESULT:      -6.3      1.539      2.918
  Name = 
  10 active torsions:
  status: ('A' for Active; 'I' for Inactive)
    1  A    between atoms: N_1  and  C_5
    2  A    between atoms: C_4  and  N_18
    3  A    between atoms: C_4  and  C_30
    4  A    between atoms: C_5  and  C_28
    5  A    between atoms: C_5  and  C_30
    6  A    between atoms: N_6  and  N_17
    7  A    between atoms: N_6  and  N_23
    8  A    between atoms: C_20  and  C_24
    9  A    between atoms: C_20  and  C_31
   10  A    between atoms: C_22  and  C_24
                            x       y       z     vdW  Elec       q    Type
                         _______ _______ _______ _____ _____    ______ ____

>  <TORSDO>
F 10

$$$$
=
 OpenBabel11042419323D

 32 33  0  0  1  0  0  0  0  0999 V2000
  187.3150  177.8130  142.5840 C   0  0  1  0  0  3  0  0  0  0  0  0
  186.8670  178.2990  143.8810 N   0  0  0  0  0  0  0  0  0  0  0  0
  185.9410  179.1980  143.9770 C   0  0  0  0  0  3  0  0  0  0  0  0
  185.9110  179.7760  147.5290 O   0  0  0  0  0  0  0  0  0  0  0  0
  185.4890  179.6650  145.2530 N   0  0  0  0  0  2  0  0  0  0  0  0
  185.7570  179.0410  146.5170 C   0  0  0  0  0  0  0  0  0  0  0  0
  184.8670  176.7910  146.1670 C   0  0  0  0  0  2  0  0  0  0  0  0
  185.8130  177.5700  146.6810 C   0  0  0  0  0  0  0  0  0  0  0  0
  186.8100  176.9550  147.6140 C   0  0  0  0  0  2  0  0  0  0  0  0
  188.3930  175.3550  146.8210 O   0  0  0  0  0  1  0  0  0  0  0  0
  188.0530  176.5650  146.8860 C   0  0  0  0  0  0  0  0  0  0  0  0
  188.8540  177.5400  146.3080 O   0  0  0  0  0  0  0  0  0  0  0  0
  188.3530  175.6780  142.7660 O   0  0  0  0  0  0  0  0  0  0  0  0
  189.8000  177.4990  142.9550 N   0  0  0  0  0  2  0  0  0  0  0  0
  188.5030  176.9300  142.7690 C   0  0  0  0  0  0  0  0  0  0  0  0
  190.9250  176.6880  143.1360 N   0  0  0  0  0  2  0  0  0  0  0  0
  195.3160  175.7250  145.5620 N   0  0  0  0  0  0  0  0  0  0  0  0
  192.9860  176.0070  146.0580 C   0  0  0  0  0  3  0  0  0  0  0  0
  195.9230  176.0950  142.0270 C   0  0  0  0  0  0  0  0  0  0  0  0
  192.6660  176.2280  144.7160 C   0  0  0  0  0  0  0  0  0  0  0  0
  194.6420  176.3500  141.5270 C   0  0  0  0  0  2  0  0  0  0  0  0
  196.1200  175.8910  143.3570 N   0  0  0  0  0  0  0  0  0  0  0  0
  197.0290  176.0440  141.1350 N   0  0  0  0  0  1  0  0  0  0  0  0
  191.4140  176.4490  144.4270 N   0  0  0  0  0  0  0  0  0  0  0  0
  195.0910  175.9300  144.2410 C   0  0  0  0  0  0  0  0  0  0  0  0
  193.5450  176.4020  142.3880 C   0  0  0  0  0  3  0  0  0  0  0  0
  193.7130  176.1980  143.7600 C   0  0  0  0  0  0  0  0  0  0  0  0
  194.3010  175.7600  146.4640 C   0  0  0  0  0  3  0  0  0  0  0  0
  186.2070  177.0310  141.8900 C   0  0  0  0  0  2  0  0  0  0  0  0
  185.9880  177.5410  140.4790 C   0  0  0  0  0  2  0  0  0  0  0  0
  183.7750  178.2470  140.6440 C   0  0  0  0  0  1  0  0  0  0  0  0
  185.1410  178.7190  140.5170 N   0  0  0  0  0  2  0  0  0  0  0  0
  1 29  1  1  0  0  0
  1 15  1  0  0  0  0
  1  2  1  0  0  0  0
  2  3  2  0  0  0  0
  3  5  1  0  0  0  0
  5  6  1  0  0  0  0
  6  8  1  0  0  0  0
  6  4  2  0  0  0  0
  7  8  2  0  0  0  0
  8  9  1  0  0  0  0
 10 11  1  0  0  0  0
 11  9  1  0  0  0  0
 12 11  2  0  0  0  0
 13 15  2  0  0  0  0
 14 16  1  0  0  0  0
 15 14  1  0  0  0  0
 16 24  1  0  0  0  0
 17 28  1  0  0  0  0
 18 28  2  0  0  0  0
 19 22  2  0  0  0  0
 20 18  1  0  0  0  0
 21 19  1  0  0  0  0
 21 26  1  0  0  0  0
 22 25  1  0  0  0  0
 23 19  1  0  0  0  0
 24 20  2  0  0  0  0
 25 17  2  0  0  0  0
 26 27  2  0  0  0  0
 27 25  1  0  0  0  0
 27 20  1  0  0  0  0
 30 32  1  0  0  0  0
 30 29  1  0  0  0  0
 32 31  1  0  0  0  0
M  END
>  <MODEL>
7

>  <REMARK>
 VINA RESULT:      -6.2      2.684      8.565
  Name = 
  10 active torsions:
  status: ('A' for Active; 'I' for Inactive)
    1  A    between atoms: N_1  and  C_5
    2  A    between atoms: C_4  and  N_18
    3  A    between atoms: C_4  and  C_30
    4  A    between atoms: C_5  and  C_28
    5  A    between atoms: C_5  and  C_30
    6  A    between atoms: N_6  and  N_17
    7  A    between atoms: N_6  and  N_23
    8  A    between atoms: C_20  and  C_24
    9  A    between atoms: C_20  and  C_31
   10  A    between atoms: C_22  and  C_24
                            x       y       z     vdW  Elec       q    Type
                         _______ _______ _______ _____ _____    ______ ____

>  <TORSDO>
F 10

$$$$
=
 OpenBabel11042419323D

 32 33  0  0  1  0  0  0  0  0999 V2000
  189.9550  175.1140  143.0390 C   0  0  1  0  0  3  0  0  0  0  0  0
  190.3120  175.2520  144.4430 N   0  0  0  0  0  0  0  0  0  0  0  0
  189.7480  174.5260  145.3540 C   0  0  0  0  0  3  0  0  0  0  0  0
  191.1800  175.9320  148.3410 O   0  0  0  0  0  0  0  0  0  0  0  0
  190.1100  174.6510  146.7340 N   0  0  0  0  0  2  0  0  0  0  0  0
  191.2690  175.3290  147.2380 C   0  0  0  0  0  0  0  0  0  0  0  0
  193.1540  174.1520  146.2180 C   0  0  0  0  0  2  0  0  0  0  0  0
  192.5720  175.3050  146.5340 C   0  0  0  0  0  0  0  0  0  0  0  0
  193.3590  176.5670  146.3650 C   0  0  0  0  0  2  0  0  0  0  0  0
  195.2940  176.5120  144.9710 O   0  0  0  0  0  1  0  0  0  0  0  0
  194.0410  176.5990  145.0380 C   0  0  0  0  0  0  0  0  0  0  0  0
  193.2960  176.7580  143.8780 O   0  0  0  0  0  0  0  0  0  0  0  0
  190.2450  177.4530  142.7080 O   0  0  0  0  0  0  0  0  0  0  0  0
  188.3060  176.5550  141.7700 N   0  0  0  0  0  0  0  0  0  0  0  0
  189.5260  176.4380  142.5030 C   0  0  0  0  0  0  0  0  0  0  0  0
  187.8840  177.7900  141.2650 N   0  0  0  0  0  0  0  0  0  0  0  0
  182.9810  178.5920  142.4520 N   0  0  0  0  0  0  0  0  0  0  0  0
  184.3460  178.2070  140.5170 C   0  0  0  0  0  3  0  0  0  0  0  0
  184.9870  178.6220  145.4470 C   0  0  0  0  0  0  0  0  0  0  0  0
  185.5110  178.1240  141.2840 C   0  0  0  0  0  0  0  0  0  0  0  0
  186.2750  178.3930  144.9490 C   0  0  0  0  0  3  0  0  0  0  0  0
  183.9200  178.6820  144.6070 N   0  0  0  0  0  0  0  0  0  0  0  0
  184.7940  178.7890  146.8460 N   0  0  0  0  0  1  0  0  0  0  0  0
  186.6300  177.9020  140.6510 N   0  0  0  0  0  2  0  0  0  0  0  0
  184.0620  178.5270  143.2660 C   0  0  0  0  0  0  0  0  0  0  0  0
  186.4820  178.2250  143.5800 C   0  0  0  0  0  3  0  0  0  0  0  0
  185.4070  178.2820  142.6890 C   0  0  2  0  0  3  0  0  0  0  0  0
  183.1000  178.4400  141.1070 C   0  0  0  0  0  2  0  0  0  0  0  0
  191.1410  174.6010  142.2310 C   0  0  0  0  0  2  0  0  0  0  0  0
  190.6930  173.5860  141.1970 C   0  0  0  0  0  2  0  0  0  0  0  0
  190.0960  171.5310  142.1150 C   0  0  0  0  0  1  0  0  0  0  0  0
  189.5730  172.8250  141.7220 N   0  0  0  0  0  2  0  0  0  0  0  0
  1 29  1  6  0  0  0
  1  2  1  0  0  0  0
  2  3  2  0  0  0  0
  3  5  1  0  0  0  0
  5  6  1  0  0  0  0
  6  4  2  0  0  0  0
  7  8  2  0  0  0  0
  8  6  1  0  0  0  0
  9  8  1  0  0  0  0
 10 11  1  0  0  0  0
 11  9  1  0  0  0  0
 12 11  2  0  0  0  0
 14 15  1  0  0  0  0
 15 13  2  0  0  0  0
 15  1  1  0  0  0  0
 16 14  2  0  0  0  0
 17 25  2  0  0  0  0
 18 28  1  0  0  0  0
 18 20  2  0  0  0  0
 19 23  1  0  0  0  0
 20 27  1  0  0  0  0
 21 19  1  0  0  0  0
 22 19  2  0  0  0  0
 24 16  1  0  0  0  0
 24 20  1  0  0  0  0
 25 22  1  0  0  0  0
 26 21  2  0  0  0  0
 27 25  1  0  0  0  0
 27 26  1  6  0  0  0
 28 17  1  0  0  0  0
 30 32  1  0  0  0  0
 30 29  1  0  0  0  0
 32 31  1  0  0  0  0
M  END
>  <MODEL>
8

>  <REMARK>
 VINA RESULT:      -6.2      2.075      4.449
  Name = 
  10 active torsions:
  status: ('A' for Active; 'I' for Inactive)
    1  A    between atoms: N_1  and  C_5
    2  A    between atoms: C_4  and  N_18
    3  A    between atoms: C_4  and  C_30
    4  A    between atoms: C_5  and  C_28
    5  A    between atoms: C_5  and  C_30
    6  A    between atoms: N_6  and  N_17
    7  A    between atoms: N_6  and  N_23
    8  A    between atoms: C_20  and  C_24
    9  A    between atoms: C_20  and  C_31
   10  A    between atoms: C_22  and  C_24
                            x       y       z     vdW  Elec       q    Type
                         _______ _______ _______ _____ _____    ______ ____

>  <TORSDO>
F 10

$$$$
=
 OpenBabel11042419323D

 32 33  0  0  1  0  0  0  0  0999 V2000
  190.7590  174.6570  143.2610 C   0  0  1  0  0  3  0  0  0  0  0  0
  191.8670  175.1400  144.0720 N   0  0  0  0  0  0  0  0  0  0  0  0
  191.7370  175.3210  145.3470 C   0  0  0  0  0  3  0  0  0  0  0  0
  194.9310  176.7620  146.1670 O   0  0  0  0  0  0  0  0  0  0  0  0
  192.8310  175.7820  146.1470 N   0  0  0  0  0  2  0  0  0  0  0  0
  194.2070  175.8210  145.7430 C   0  0  0  0  0  0  0  0  0  0  0  0
  195.0940  173.5720  145.3790 C   0  0  0  0  0  2  0  0  0  0  0  0
  194.8140  174.7750  144.8880 C   0  0  0  0  0  0  0  0  0  0  0  0
  195.3250  175.1220  143.5240 C   0  0  0  0  0  2  0  0  0  0  0  0
  197.6890  175.0520  143.8370 O   0  0  0  0  0  1  0  0  0  0  0  0
  196.6720  175.7560  143.6030 C   0  0  0  0  0  0  0  0  0  0  0  0
  196.8040  177.1300  143.4520 O   0  0  0  0  0  0  0  0  0  0  0  0
  188.5640  175.4820  143.6670 O   0  0  0  0  0  0  0  0  0  0  0  0
  189.9850  176.9610  142.5560 N   0  0  0  0  0  2  0  0  0  0  0  0
  189.7050  175.7090  143.1830 C   0  0  0  0  0  0  0  0  0  0  0  0
  189.0080  177.9580  142.4670 N   0  0  0  0  0  2  0  0  0  0  0  0
  183.9530  178.2600  141.7950 N   0  0  0  0  0  0  0  0  0  0  0  0
  185.9470  177.9570  140.4960 C   0  0  0  0  0  3  0  0  0  0  0  0
  184.7480  178.6180  145.2930 C   0  0  0  0  0  0  0  0  0  0  0  0
  186.7650  178.0300  141.6270 C   0  0  0  0  0  0  0  0  0  0  0  0
  186.1430  178.5140  145.2970 C   0  0  0  0  0  3  0  0  0  0  0  0
  184.0490  178.5300  144.1300 N   0  0  0  0  0  0  0  0  0  0  0  0
  184.0540  178.8130  146.5190 N   0  0  0  0  0  1  0  0  0  0  0  0
  188.0510  177.9100  141.4460 N   0  0  0  0  0  2  0  0  0  0  0  0
  184.6740  178.3430  142.9390 C   0  0  0  0  0  0  0  0  0  0  0  0
  186.8400  178.3200  144.1040 C   0  0  0  0  0  3  0  0  0  0  0  0
  186.1520  178.2270  142.8910 C   0  0  1  0  0  3  0  0  0  0  0  0
  184.5570  178.0730  140.5930 C   0  0  0  0  0  2  0  0  0  0  0  0
  191.2330  174.3090  141.8550 C   0  0  0  0  0  2  0  0  0  0  0  0
  190.3950  173.1950  141.2610 C   0  0  0  0  0  2  0  0  0  0  0  0
  188.6500  174.1480  140.0490 C   0  0  0  0  0  1  0  0  0  0  0  0
  189.9730  173.5680  139.9230 N   0  0  0  0  0  2  0  0  0  0  0  0
  1 29  1  6  0  0  0
  1  2  1  0  0  0  0
  2  3  2  0  0  0  0
  3  5  1  0  0  0  0
  6  5  1  0  0  0  0
  6  4  2  0  0  0  0
  8  7  2  0  0  0  0
  8  6  1  0  0  0  0
  9 11  1  0  0  0  0
  9  8  1  0  0  0  0
 11 10  1  0  0  0  0
 12 11  2  0  0  0  0
 14 15  1  0  0  0  0
 15  1  1  0  0  0  0
 15 13  2  0  0  0  0
 16 14  1  0  0  0  0
 17 25  2  0  0  0  0
 18 28  1  0  0  0  0
 18 20  2  0  0  0  0
 19 21  1  0  0  0  0
 19 23  1  0  0  0  0
 20 27  1  0  0  0  0
 22 19  2  0  0  0  0
 24 20  1  0  0  0  0
 24 16  1  0  0  0  0
 25 22  1  0  0  0  0
 26 21  2  0  0  0  0
 27 25  1  0  0  0  0
 27 26  1  1  0  0  0
 28 17  1  0  0  0  0
 30 29  1  0  0  0  0
 32 31  1  0  0  0  0
 32 30  1  0  0  0  0
M  END
>  <MODEL>
9

>  <REMARK>
 VINA RESULT:      -6.2      2.447      4.904
  Name = 
  10 active torsions:
  status: ('A' for Active; 'I' for Inactive)
    1  A    between atoms: N_1  and  C_5
    2  A    between atoms: C_4  and  N_18
    3  A    between atoms: C_4  and  C_30
    4  A    between atoms: C_5  and  C_28
    5  A    between atoms: C_5  and  C_30
    6  A    between atoms: N_6  and  N_17
    7  A    between atoms: N_6  and  N_23
    8  A    between atoms: C_20  and  C_24
    9  A    between atoms: C_20  and  C_31
   10  A    between atoms: C_22  and  C_24
                            x       y       z     vdW  Elec       q    Type
                         _______ _______ _______ _____ _____    ______ ____

>  <TORSDO>
F 10

$$$$
