=
 OpenBabel11042418303D

 70 74  0  0  1  0  0  0  0  0999 V2000
  191.3550  174.0170  144.4090 C   0  0  0  0  0  2  0  0  0  0  0  0
  192.2900  175.4810  146.2620 C   0  0  2  0  0  3  0  0  0  0  0  0
  193.0810  176.6410  146.3490 O   0  0  0  0  0  0  0  0  0  0  0  0
  191.5870  175.4420  144.9200 C   0  0  1  0  0  3  0  0  0  0  0  0
  193.2390  177.1310  145.0370 C   0  0  0  0  0  2  0  0  0  0  0  0
  192.5480  176.1980  144.0660 C   0  0  2  0  0  3  0  0  0  0  0  0
  191.3500  175.4260  147.3390 O   0  0  0  0  0  0  0  0  0  0  0  0
  189.5130  177.4270  147.1740 S   0  0  0  0  0  0  0  0  0  0  0  0
  188.9000  174.9880  147.1700 C   0  0  0  0  0  3  0  0  0  0  0  0
  187.8690  177.0790  147.0700 C   0  0  0  0  0  0  0  0  0  0  0  0
  187.6940  175.6980  147.0780 C   0  0  0  0  0  3  0  0  0  0  0  0
  190.0110  175.8240  147.2340 C   0  0  0  0  0  0  0  0  0  0  0  0
  185.8450  178.1930  148.0350 N   0  0  0  0  0  1  0  0  0  0  0  0
  186.7890  178.0700  146.9830 C   0  0  0  0  0  0  0  0  0  0  0  0
  186.6850  178.8060  145.9700 O   0  0  0  0  0  0  0  0  0  0  0  0
  191.8830  176.9540  142.9180 C   0  0  0  0  0  2  0  0  0  0  0  0
  191.3160  176.0820  141.9790 O   0  0  0  0  0  0  0  0  0  0  0  0
  189.9800  175.9580  142.3770 C   0  0  2  0  0  3  0  0  0  0  0  0
  190.0960  178.3740  142.4400 O   0  0  0  0  0  1  0  0  0  0  0  0
  187.0610  175.5780  141.9930 O   0  0  0  0  0  0  0  0  0  0  0  0
  189.3110  174.8860  141.5160 C   0  0  0  0  0  2  0  0  0  0  0  0
  187.1450  176.1970  143.2460 C   0  0  1  0  0  3  0  0  0  0  0  0
  189.2330  177.2970  142.2230 C   0  0  2  0  0  3  0  0  0  0  0  0
  188.0450  177.4350  143.1810 C   0  0  0  0  0  2  0  0  0  0  0  0
  187.9430  174.4940  142.0690 C   0  0  0  0  0  2  0  0  0  0  0  0
  185.7390  176.5770  143.7050 C   0  0  0  0  0  2  0  0  0  0  0  0
  185.4260  178.0410  143.4170 C   0  0  0  0  0  2  0  0  0  0  0  0
  183.0420  178.1960  142.3920 C   0  0  1  0  0  3  0  0  0  0  0  0
  184.5290  178.2060  142.1950 C   0  0  2  0  0  0  0  0  0  0  0  0
  185.1480  178.0660  140.8100 C   0  0  0  0  0  1  0  0  0  0  0  0
  183.7890  179.4030  142.2820 O   0  0  0  0  0  0  0  0  0  0  0  0
  182.2480  177.8990  141.1060 C   0  0  0  0  0  2  0  0  0  0  0  0
  180.9070  178.5690  141.0470 C   0  0  0  0  0  0  0  0  0  0  0  0
  179.7260  177.8640  141.4430 N   0  0  0  0  0  1  0  0  0  0  0  0
  180.8370  179.7780  140.6970 O   0  0  0  0  0  0  0  0  0  0  0  0
  191.7750  172.9390  145.3980 C   0  0  0  0  0  2  0  0  0  0  0  0
  192.9220  172.1170  144.8320 C   0  0  0  0  0  2  0  0  0  0  0  0
  194.0460  172.2960  145.6360 O   0  0  0  0  0  0  0  0  0  0  0  0
  195.8540  171.1750  144.5610 C   0  0  0  0  0  2  0  0  0  0  0  0
  195.1050  172.5000  144.7450 C   0  0  2  0  0  3  0  0  0  0  0  0
  196.7680  171.1020  143.3620 C   0  0  0  0  0  0  0  0  0  0  0  0
  197.5090  173.4180  145.2050 C   0  0  0  0  0  2  0  0  0  0  0  0
  197.6990  172.0330  143.0730 C   0  0  0  0  0  3  0  0  0  0  0  0
  197.9280  173.3680  143.7390 C   0  0  0  0  0  2  0  0  0  0  0  0
  195.5470  174.6090  145.7150 O   0  0  0  0  0  0  0  0  0  0  0  0
  196.0210  173.5710  145.2720 C   0  0  0  0  0  0  0  0  0  0  0  0
  196.9060  168.7480  143.0650 O   0  0  0  0  0  0  0  0  0  0  0  0
  196.6930  169.8750  142.5310 C   0  0  0  0  0  0  0  0  0  0  0  0
  196.3890  169.9090  141.1680 O   0  0  0  0  0  0  0  0  0  0  0  0
  196.1850  171.1260  140.4690 C   0  0  0  0  0  2  0  0  0  0  0  0
  194.8220  171.1130  139.7800 C   0  0  0  0  0  2  0  0  0  0  0  0
  193.9490  172.1680  140.3270 N   0  0  0  0  0  0  0  0  0  0  0  0
  192.7920  171.5870  141.0390 C   0  0  2  0  0  3  0  0  0  0  0  0
  193.0370  169.5480  142.4710 O   0  0  0  0  0  1  0  0  0  0  0  0
  192.7520  169.3070  140.2150 O   0  0  0  0  0  0  0  0  0  0  0  0
  192.8620  170.0810  141.2060 C   0  0  0  0  0  0  0  0  0  0  0  0
  191.4760  171.9790  140.3680 C   0  0  0  0  0  2  0  0  0  0  0  0
  191.6990  173.1370  139.4130 C   0  0  0  0  0  2  0  0  0  0  0  0
  189.9310  173.7060  137.4830 O   0  0  0  0  0  0  0  0  0  0  0  0
  190.5660  171.3610  137.7640 O   0  0  0  0  0  0  0  0  0  0  0  0
  191.0760  172.7760  137.7760 S   0  0  0  0  0  0  0  0  0  0  0  0
  192.3240  172.9190  136.4990 C   0  0  0  0  0  2  0  0  0  0  0  0
  192.9290  174.3120  136.4850 C   0  0  0  0  0  2  0  0  0  0  0  0
  195.1370  175.3780  136.4890 C   0  0  0  0  0  2  0  0  0  0  0  0
  194.4220  174.2540  136.4350 C   0  0  0  0  0  0  0  0  0  0  0  0
  195.1080  172.9610  136.1620 C   0  0  0  0  0  1  0  0  0  0  0  0
  194.7140  173.0180  141.2380 C   0  0  0  0  0  2  0  0  0  0  0  0
  194.1340  174.4280  141.2770 C   0  0  0  0  0  2  0  0  0  0  0  0
  194.9560  175.3670  140.4400 C   0  0  0  0  0  3  0  0  0  0  0  0
  195.4970  176.4750  140.9660 C   0  0  0  0  0  2  0  0  0  0  0  0
  1 36  1  0  0  0  0
  2  3  1  0  0  0  0
  2  7  1  1  0  0  0
  4  1  1  6  0  0  0
  4  2  1  0  0  0  0
  5  3  1  0  0  0  0
  6 16  1  6  0  0  0
  6  4  1  0  0  0  0
  6  5  1  0  0  0  0
  8 12  1  0  0  0  0
  9 12  2  0  0  0  0
 10 11  2  0  0  0  0
 10  8  1  0  0  0  0
 11  9  1  0  0  0  0
 12  7  1  0  0  0  0
 14 10  1  0  0  0  0
 14 13  1  0  0  0  0
 15 14  2  0  0  0  0
 17 16  1  0  0  0  0
 18 17  1  6  0  0  0
 20 25  1  0  0  0  0
 20 22  1  0  0  0  0
 21 25  1  0  0  0  0
 21 18  1  0  0  0  0
 22 26  1  6  0  0  0
 23 18  1  0  0  0  0
 23 19  1  1  0  0  0
 23 24  1  0  0  0  0
 24 22  1  0  0  0  0
 27 26  1  0  0  0  0
 28 32  1  6  0  0  0
 29 30  1  6  0  0  0
 29 31  1  0  0  0  0
 29 28  1  0  0  0  0
 29 27  1  0  0  0  0
 31 28  1  0  0  0  0
 33 32  1  0  0  0  0
 33 34  1  0  0  0  0
 35 33  2  0  0  0  0
 37 36  1  0  0  0  0
 37 38  1  0  0  0  0
 39 40  1  0  0  0  0
 40 46  1  0  0  0  0
 40 38  1  1  0  0  0
 41 39  1  0  0  0  0
 42 46  1  0  0  0  0
 43 41  2  0  0  0  0
 43 44  1  0  0  0  0
 44 42  1  0  0  0  0
 46 45  2  0  0  0  0
 48 47  2  0  0  0  0
 48 41  1  0  0  0  0
 49 48  1  0  0  0  0
 50 49  1  0  0  0  0
 51 52  1  0  0  0  0
 51 50  1  0  0  0  0
 52 53  1  0  0  0  0
 52 67  1  0  0  0  0
 53 57  1  6  0  0  0
 53 56  1  0  0  0  0
 55 56  2  0  0  0  0
 56 54  1  0  0  0  0
 58 57  1  0  0  0  0
 59 61  2  0  0  0  0
 60 61  2  0  0  0  0
 61 58  1  0  0  0  0
 62 61  1  0  0  0  0
 63 62  1  0  0  0  0
 65 63  1  0  0  0  0
 65 64  2  0  0  0  0
 66 65  1  0  0  0  0
 67 68  1  0  0  0  0
 69 70  2  0  0  0  0
 69 68  1  0  0  0  0
M  END
>  <MODEL>
1

>  <REMARK>
 VINA RESULT:      -4.5      0.000      0.000
  Name = 
  32 active torsions:
  status: ('A' for Active; 'I' for Inactive)
    1  A    between atoms: C_1  and  O_49
    2  A    between atoms: C_3  and  C_51
    3  A    between atoms: C_4  and  N_22
    4  A    between atoms: C_4  and  C_41
    5  A    between atoms: C_7  and  C_51
    6  A    between atoms: C_7  and  S_58
    7  A    between atoms: C_8  and  O_34
    8  A    between atoms: O_9  and  C_63
    9  A    between atoms: O_9  and  C_70
   10  A    between atoms: C_10  and  C_47
   11  A    between atoms: C_11  and  C_26
   12  A    between atoms: C_11  and  C_42
   13  A    between atoms: C_15  and  C_41
   14  A    between atoms: O_19  and  C_24
   15  A    between atoms: O_19  and  C_60
   16  A    between atoms: N_22  and  C_46
   17  A    between atoms: N_22  and  C_69
   18  A    between atoms: C_23  and  C_37
   19  A    between atoms: C_23  and  S_58
   20  A    between atoms: C_26  and  C_60
   21  A    between atoms: C_27  and  C_69
   22  A    between atoms: C_28  and  C_40
   23  A    between atoms: C_29  and  C_47
   24  A    between atoms: C_30  and  O_49
   25  A    between atoms: C_30  and  C_65
   26  A    between atoms: C_31  and  C_63
   27  A    between atoms: C_33  and  C_61
   28  A    between atoms: O_34  and  C_68
   29  A    between atoms: C_37  and  C_69
   30  A    between atoms: C_40  and  C_55
   31  A    between atoms: C_46  and  C_70
   32  A    between atoms: C_50  and  C_55
                            x       y       z     vdW  Elec       q    Type
                         _______ _______ _______ _____ _____    ______ ____

>  <TORSDO>
F 32

$$$$
=
 OpenBabel11042418303D

 70 74  0  0  1  0  0  0  0  0999 V2000
  186.4450  176.6510  144.4670 C   0  0  0  0  0  2  0  0  0  0  0  0
  184.9430  178.3590  145.5970 C   0  0  2  0  0  3  0  0  0  0  0  0
  184.8230  178.9290  146.8780 O   0  0  0  0  0  0  0  0  0  0  0  0
  186.3630  177.8750  145.3850 C   0  0  1  0  0  3  0  0  0  0  0  0
  185.9360  178.4940  147.6270 C   0  0  0  0  0  2  0  0  0  0  0  0
  186.7760  177.5600  146.7830 C   0  0  2  0  0  3  0  0  0  0  0  0
  184.5610  179.2980  144.5880 O   0  0  0  0  0  0  0  0  0  0  0  0
  182.3000  179.0760  143.0890 S   0  0  0  0  0  0  0  0  0  0  0  0
  184.5820  178.4340  142.2470 C   0  0  0  0  0  3  0  0  0  0  0  0
  182.3660  178.4790  141.5160 C   0  0  0  0  0  0  0  0  0  0  0  0
  183.6870  178.1730  141.2000 C   0  0  0  0  0  3  0  0  0  0  0  0
  183.9500  178.9440  143.3780 C   0  0  0  0  0  0  0  0  0  0  0  0
  181.2940  177.4090  139.5230 N   0  0  0  0  0  1  0  0  0  0  0  0
  181.2180  178.3080  140.6170 C   0  0  0  0  0  0  0  0  0  0  0  0
  180.1650  178.9680  140.8030 O   0  0  0  0  0  0  0  0  0  0  0  0
  188.2700  177.7460  147.0370 C   0  0  0  0  0  2  0  0  0  0  0  0
  189.0010  177.7710  145.8410 O   0  0  0  0  0  0  0  0  0  0  0  0
  190.0790  176.9070  146.0700 C   0  0  2  0  0  3  0  0  0  0  0  0
  190.8590  177.8180  143.9690 O   0  0  0  0  0  1  0  0  0  0  0  0
  192.6560  176.0450  147.2640 O   0  0  0  0  0  0  0  0  0  0  0  0
  190.4670  176.9920  147.5470 C   0  0  0  0  0  2  0  0  0  0  0  0
  192.5450  175.2440  146.1220 C   0  0  1  0  0  3  0  0  0  0  0  0
  191.2840  177.2830  145.1880 C   0  0  2  0  0  3  0  0  0  0  0  0
  192.2060  176.0940  144.8930 C   0  0  0  0  0  2  0  0  0  0  0  0
  191.4390  175.8820  147.9370 C   0  0  0  0  0  2  0  0  0  0  0  0
  193.8580  174.4950  145.9120 C   0  0  0  0  0  2  0  0  0  0  0  0
  195.0340  175.4500  145.7460 C   0  0  0  0  0  2  0  0  0  0  0  0
  195.4140  176.4220  143.3650 C   0  0  1  0  0  3  0  0  0  0  0  0
  195.6750  175.3360  144.3670 C   0  0  2  0  0  0  0  0  0  0  0  0
  196.2900  174.0060  143.9540 C   0  0  0  0  0  1  0  0  0  0  0  0
  196.5950  176.3860  144.1590 O   0  0  0  0  0  0  0  0  0  0  0  0
  195.6960  176.0030  141.9090 C   0  0  0  0  0  2  0  0  0  0  0  0
  194.5670  175.2600  141.2580 C   0  0  0  0  0  0  0  0  0  0  0  0
  193.2550  175.2880  141.8300 N   0  0  0  0  0  1  0  0  0  0  0  0
  194.7720  174.6540  140.1720 O   0  0  0  0  0  0  0  0  0  0  0  0
  187.4270  176.8170  143.3160 C   0  0  0  0  0  2  0  0  0  0  0  0
  188.0620  175.4820  142.9630 C   0  0  0  0  0  2  0  0  0  0  0  0
  189.4480  175.6230  142.9720 O   0  0  0  0  0  0  0  0  0  0  0  0
  189.4770  173.6890  141.5780 C   0  0  0  0  0  2  0  0  0  0  0  0
  189.9490  174.3210  142.8940 C   0  0  2  0  0  3  0  0  0  0  0  0
  190.2230  172.4520  141.1430 C   0  0  0  0  0  0  0  0  0  0  0  0
  188.9970  172.1100  143.9160 C   0  0  0  0  0  2  0  0  0  0  0  0
  190.4400  171.3880  141.9420 C   0  0  0  0  0  3  0  0  0  0  0  0
  190.1540  171.2510  143.4170 C   0  0  0  0  0  2  0  0  0  0  0  0
  189.5450  174.0020  145.2000 O   0  0  0  0  0  0  0  0  0  0  0  0
  189.4810  173.5180  144.0780 C   0  0  0  0  0  0  0  0  0  0  0  0
  190.0380  171.5840  138.9380 O   0  0  0  0  0  0  0  0  0  0  0  0
  190.6350  172.3800  139.7190 C   0  0  0  0  0  0  0  0  0  0  0  0
  191.6640  173.1660  139.1950 O   0  0  0  0  0  0  0  0  0  0  0  0
  192.3500  172.8190  138.0040 C   0  0  0  0  0  2  0  0  0  0  0  0
  191.3570  172.6470  136.8570 C   0  0  0  0  0  2  0  0  0  0  0  0
  191.9630  173.0480  135.5750 N   0  0  0  0  0  0  0  0  0  0  0  0
  193.1040  172.1750  135.2270 C   0  0  2  0  0  3  0  0  0  0  0  0
  193.4810  169.8570  136.0960 O   0  0  0  0  0  1  0  0  0  0  0  0
  191.8680  170.2150  134.5140 O   0  0  0  0  0  0  0  0  0  0  0  0
  192.7770  170.6940  135.2470 C   0  0  0  0  0  0  0  0  0  0  0  0
  194.3090  172.4570  136.1230 C   0  0  0  0  0  2  0  0  0  0  0  0
  195.4330  171.4860  135.8130 C   0  0  0  0  0  2  0  0  0  0  0  0
  196.8300  173.7660  135.6700 O   0  0  0  0  0  0  0  0  0  0  0  0
  197.8520  171.7650  134.7050 O   0  0  0  0  0  0  0  0  0  0  0  0
  197.0310  172.2870  135.8520 S   0  0  0  0  0  0  0  0  0  0  0  0
  197.9410  171.9730  137.3630 C   0  0  0  0  0  2  0  0  0  0  0  0
  197.2220  172.5690  138.5620 C   0  0  0  0  0  2  0  0  0  0  0  0
  196.4400  170.3340  139.1970 C   0  0  0  0  0  2  0  0  0  0  0  0
  196.9090  171.5220  139.5810 C   0  0  0  0  0  0  0  0  0  0  0  0
  196.9670  171.8520  141.0320 C   0  0  0  0  0  1  0  0  0  0  0  0
  190.9570  172.9920  134.5140 C   0  0  0  0  0  2  0  0  0  0  0  0
  189.5790  173.3530  135.0560 C   0  0  0  0  0  2  0  0  0  0  0  0
  189.5200  174.8060  135.4370 C   0  0  0  0  0  3  0  0  0  0  0  0
  190.2660  175.7220  134.8040 C   0  0  0  0  0  2  0  0  0  0  0  0
  2  7  1  6  0  0  0
  2  3  1  0  0  0  0
  3  5  1  0  0  0  0
  4  1  1  6  0  0  0
  4  2  1  0  0  0  0
  4  6  1  0  0  0  0
  6 16  1  6  0  0  0
  6  5  1  0  0  0  0
  8 12  1  0  0  0  0
  9 12  2  0  0  0  0
 10  8  1  0  0  0  0
 11 10  2  0  0  0  0
 11  9  1  0  0  0  0
 12  7  1  0  0  0  0
 13 14  1  0  0  0  0
 14 15  2  0  0  0  0
 14 10  1  0  0  0  0
 17 16  1  0  0  0  0
 18 17  1  1  0  0  0
 18 21  1  0  0  0  0
 20 25  1  0  0  0  0
 21 25  1  0  0  0  0
 22 26  1  6  0  0  0
 22 20  1  0  0  0  0
 23 19  1  6  0  0  0
 23 18  1  0  0  0  0
 24 23  1  0  0  0  0
 24 22  1  0  0  0  0
 27 26  1  0  0  0  0
 28 32  1  6  0  0  0
 28 31  1  0  0  0  0
 28 29  1  0  0  0  0
 29 30  1  6  0  0  0
 29 27  1  0  0  0  0
 31 29  1  0  0  0  0
 33 34  1  0  0  0  0
 33 32  1  0  0  0  0
 35 33  2  0  0  0  0
 36  1  1  0  0  0  0
 37 38  1  0  0  0  0
 37 36  1  0  0  0  0
 39 40  1  0  0  0  0
 40 38  1  1  0  0  0
 40 46  1  0  0  0  0
 41 39  1  0  0  0  0
 41 43  2  0  0  0  0
 42 46  1  0  0  0  0
 43 44  1  0  0  0  0
 44 42  1  0  0  0  0
 46 45  2  0  0  0  0
 47 48  2  0  0  0  0
 48 41  1  0  0  0  0
 49 48  1  0  0  0  0
 50 49  1  0  0  0  0
 51 50  1  0  0  0  0
 52 51  1  0  0  0  0
 53 56  1  0  0  0  0
 53 52  1  0  0  0  0
 53 57  1  1  0  0  0
 55 56  2  0  0  0  0
 56 54  1  0  0  0  0
 58 61  1  0  0  0  0
 58 57  1  0  0  0  0
 59 61  2  0  0  0  0
 60 61  2  0  0  0  0
 61 62  1  0  0  0  0
 62 63  1  0  0  0  0
 63 65  1  0  0  0  0
 64 65  2  0  0  0  0
 65 66  1  0  0  0  0
 67 68  1  0  0  0  0
 67 52  1  0  0  0  0
 68 69  1  0  0  0  0
 70 69  2  0  0  0  0
M  END
>  <MODEL>
2

>  <REMARK>
 VINA RESULT:      -3.7      2.799      7.847
  Name = 
  32 active torsions:
  status: ('A' for Active; 'I' for Inactive)
    1  A    between atoms: C_1  and  O_49
    2  A    between atoms: C_3  and  C_51
    3  A    between atoms: C_4  and  N_22
    4  A    between atoms: C_4  and  C_41
    5  A    between atoms: C_7  and  C_51
    6  A    between atoms: C_7  and  S_58
    7  A    between atoms: C_8  and  O_34
    8  A    between atoms: O_9  and  C_63
    9  A    between atoms: O_9  and  C_70
   10  A    between atoms: C_10  and  C_47
   11  A    between atoms: C_11  and  C_26
   12  A    between atoms: C_11  and  C_42
   13  A    between atoms: C_15  and  C_41
   14  A    between atoms: O_19  and  C_24
   15  A    between atoms: O_19  and  C_60
   16  A    between atoms: N_22  and  C_46
   17  A    between atoms: N_22  and  C_69
   18  A    between atoms: C_23  and  C_37
   19  A    between atoms: C_23  and  S_58
   20  A    between atoms: C_26  and  C_60
   21  A    between atoms: C_27  and  C_69
   22  A    between atoms: C_28  and  C_40
   23  A    between atoms: C_29  and  C_47
   24  A    between atoms: C_30  and  O_49
   25  A    between atoms: C_30  and  C_65
   26  A    between atoms: C_31  and  C_63
   27  A    between atoms: C_33  and  C_61
   28  A    between atoms: O_34  and  C_68
   29  A    between atoms: C_37  and  C_69
   30  A    between atoms: C_40  and  C_55
   31  A    between atoms: C_46  and  C_70
   32  A    between atoms: C_50  and  C_55
                            x       y       z     vdW  Elec       q    Type
                         _______ _______ _______ _____ _____    ______ ____

>  <TORSDO>
F 32

$$$$
=
 OpenBabel11042418303D

 70 74  0  0  1  0  0  0  0  0999 V2000
  189.3870  176.8880  144.5190 C   0  0  0  0  0  2  0  0  0  0  0  0
  187.7410  178.3350  143.2380 C   0  0  2  0  0  3  0  0  0  0  0  0
  187.4250  178.5770  141.8880 O   0  0  0  0  0  0  0  0  0  0  0  0
  188.3710  176.9640  143.3760 C   0  0  1  0  0  3  0  0  0  0  0  0
  188.1530  177.6450  141.1220 C   0  0  0  0  0  2  0  0  0  0  0  0
  189.0120  176.8010  142.0400 C   0  0  2  0  0  3  0  0  0  0  0  0
  186.5760  178.4540  144.0590 O   0  0  0  0  0  0  0  0  0  0  0  0
  184.8630  178.2190  141.9580 S   0  0  0  0  0  0  0  0  0  0  0  0
  184.1150  178.7920  144.2900 C   0  0  0  0  0  3  0  0  0  0  0  0
  183.2100  178.4660  142.1630 C   0  0  0  0  0  0  0  0  0  0  0  0
  182.9580  178.7710  143.4980 C   0  0  0  0  0  3  0  0  0  0  0  0
  185.2670  178.5030  143.5630 C   0  0  0  0  0  0  0  0  0  0  0  0
  182.4390  177.6020  139.9440 N   0  0  0  0  0  1  0  0  0  0  0  0
  182.1940  178.3740  141.1080 C   0  0  0  0  0  0  0  0  0  0  0  0
  181.1040  178.9900  141.2240 O   0  0  0  0  0  0  0  0  0  0  0  0
  189.0950  175.3500  141.5730 C   0  0  0  0  0  2  0  0  0  0  0  0
  188.0620  175.0300  140.6820 O   0  0  0  0  0  0  0  0  0  0  0  0
  188.6520  174.1590  139.7580 C   0  0  2  0  0  3  0  0  0  0  0  0
  187.8610  172.4750  141.3050 O   0  0  0  0  0  1  0  0  0  0  0  0
  188.8160  172.5540  137.2660 O   0  0  0  0  0  0  0  0  0  0  0  0
  188.3120  174.6390  138.3470 C   0  0  0  0  0  2  0  0  0  0  0  0
  189.7550  171.9440  138.1060 C   0  0  1  0  0  3  0  0  0  0  0  0
  188.1460  172.7180  139.9590 C   0  0  2  0  0  3  0  0  0  0  0  0
  189.1470  171.6590  139.4830 C   0  0  0  0  0  2  0  0  0  0  0  0
  189.1430  173.9150  137.2910 C   0  0  0  0  0  2  0  0  0  0  0  0
  190.2370  170.6520  137.4530 C   0  0  0  0  0  2  0  0  0  0  0  0
  190.4060  170.8080  135.9450 C   0  0  0  0  0  2  0  0  0  0  0  0
  192.6530  171.9830  135.3750 C   0  0  1  0  0  3  0  0  0  0  0  0
  191.8660  170.7140  135.5180 C   0  0  2  0  0  0  0  0  0  0  0  0
  192.3820  169.3930  134.9620 C   0  0  0  0  0  1  0  0  0  0  0  0
  192.7140  171.1760  136.5470 O   0  0  0  0  0  0  0  0  0  0  0  0
  193.9220  171.8320  134.5150 C   0  0  0  0  0  2  0  0  0  0  0  0
  195.0020  172.8210  134.8410 C   0  0  0  0  0  0  0  0  0  0  0  0
  194.7640  174.2250  134.7050 N   0  0  0  0  0  1  0  0  0  0  0  0
  196.1050  172.4040  135.2880 O   0  0  0  0  0  0  0  0  0  0  0  0
  188.8950  177.5140  145.8170 C   0  0  0  0  0  2  0  0  0  0  0  0
  188.0410  176.5240  146.5930 C   0  0  0  0  0  2  0  0  0  0  0  0
  188.8780  175.6340  147.2640 O   0  0  0  0  0  0  0  0  0  0  0  0
  191.1120  174.8650  146.9450 C   0  0  0  0  0  2  0  0  0  0  0  0
  190.1760  176.0800  146.9970 C   0  0  2  0  0  3  0  0  0  0  0  0
  192.4530  175.1020  146.2950 C   0  0  0  0  0  0  0  0  0  0  0  0
  191.9900  176.9940  148.6430 C   0  0  0  0  0  2  0  0  0  0  0  0
  193.2750  176.1180  146.6230 C   0  0  0  0  0  3  0  0  0  0  0  0
  193.0020  177.2850  147.5400 C   0  0  0  0  0  2  0  0  0  0  0  0
  189.8530  177.9450  148.4100 O   0  0  0  0  0  0  0  0  0  0  0  0
  190.6140  177.0540  148.0570 C   0  0  0  0  0  0  0  0  0  0  0  0
  194.0160  173.4860  145.5240 O   0  0  0  0  0  0  0  0  0  0  0  0
  192.9190  174.0830  145.3220 C   0  0  0  0  0  0  0  0  0  0  0  0
  192.1880  173.7460  144.1800 O   0  0  0  0  0  0  0  0  0  0  0  0
  191.6620  172.4450  143.9760 C   0  0  0  0  0  2  0  0  0  0  0  0
  191.1820  172.2940  142.5340 C   0  0  0  0  0  2  0  0  0  0  0  0
  191.9620  171.2610  141.8290 N   0  0  0  0  0  0  0  0  0  0  0  0
  193.0120  171.8680  140.9840 C   0  0  2  0  0  3  0  0  0  0  0  0
  195.4430  171.3860  140.6280 O   0  0  0  0  0  0  0  0  0  0  0  0
  194.6750  171.7840  142.7460 O   0  0  0  0  0  1  0  0  0  0  0  0
  194.4190  171.6750  141.5150 C   0  0  0  0  0  0  0  0  0  0  0  0
  192.7410  173.3530  140.7470 C   0  0  0  0  0  2  0  0  0  0  0  0
  192.6760  173.6440  139.2580 C   0  0  0  0  0  2  0  0  0  0  0  0
  193.6020  175.4500  137.5120 O   0  0  0  0  0  0  0  0  0  0  0  0
  195.1840  173.7800  138.3410 O   0  0  0  0  0  0  0  0  0  0  0  0
  194.0360  174.6730  138.7240 S   0  0  0  0  0  0  0  0  0  0  0  0
  194.6160  175.7930  139.9970 C   0  0  0  0  0  2  0  0  0  0  0  0
  194.7460  175.0780  141.3300 C   0  0  0  0  0  2  0  0  0  0  0  0
  197.1300  174.5210  141.4580 C   0  0  0  0  0  2  0  0  0  0  0  0
  196.1130  175.2560  141.9090 C   0  0  0  0  0  0  0  0  0  0  0  0
  196.3120  176.1360  143.0940 C   0  0  0  0  0  1  0  0  0  0  0  0
  192.5730  170.3540  142.8010 C   0  0  0  0  0  2  0  0  0  0  0  0
  192.0420  168.9360  142.6230 C   0  0  0  0  0  2  0  0  0  0  0  0
  190.9180  168.9070  141.6260 C   0  0  0  0  0  3  0  0  0  0  0  0
  190.9950  168.1660  140.5120 C   0  0  0  0  0  2  0  0  0  0  0  0
  1 36  1  0  0  0  0
  2  4  1  0  0  0  0
  2  7  1  1  0  0  0
  3  2  1  0  0  0  0
  4  1  1  1  0  0  0
  5  3  1  0  0  0  0
  5  6  1  0  0  0  0
  6 16  1  6  0  0  0
  6  4  1  0  0  0  0
  8 10  1  0  0  0  0
  8 12  1  0  0  0  0
 10 11  2  0  0  0  0
 11  9  1  0  0  0  0
 12  7  1  0  0  0  0
 12  9  2  0  0  0  0
 13 14  1  0  0  0  0
 14 15  2  0  0  0  0
 14 10  1  0  0  0  0
 17 16  1  0  0  0  0
 18 23  1  0  0  0  0
 18 17  1  1  0  0  0
 20 25  1  0  0  0  0
 20 22  1  0  0  0  0
 21 18  1  0  0  0  0
 22 26  1  6  0  0  0
 22 24  1  0  0  0  0
 23 19  1  1  0  0  0
 24 23  1  0  0  0  0
 25 21  1  0  0  0  0
 27 26  1  0  0  0  0
 28 32  1  6  0  0  0
 28 29  1  0  0  0  0
 28 31  1  0  0  0  0
 29 30  1  6  0  0  0
 29 27  1  0  0  0  0
 29 31  1  0  0  0  0
 32 33  1  0  0  0  0
 33 35  2  0  0  0  0
 34 33  1  0  0  0  0
 36 37  1  0  0  0  0
 37 38  1  0  0  0  0
 39 40  1  0  0  0  0
 40 38  1  1  0  0  0
 40 46  1  0  0  0  0
 41 43  2  0  0  0  0
 41 39  1  0  0  0  0
 43 44  1  0  0  0  0
 44 42  1  0  0  0  0
 46 45  2  0  0  0  0
 46 42  1  0  0  0  0
 48 47  2  0  0  0  0
 48 41  1  0  0  0  0
 49 48  1  0  0  0  0
 50 49  1  0  0  0  0
 51 50  1  0  0  0  0
 52 51  1  0  0  0  0
 52 67  1  0  0  0  0
 53 57  1  1  0  0  0
 53 56  1  0  0  0  0
 53 52  1  0  0  0  0
 54 56  2  0  0  0  0
 56 55  1  0  0  0  0
 58 57  1  0  0  0  0
 59 61  2  0  0  0  0
 60 61  2  0  0  0  0
 61 58  1  0  0  0  0
 61 62  1  0  0  0  0
 62 63  1  0  0  0  0
 63 65  1  0  0  0  0
 64 65  2  0  0  0  0
 65 66  1  0  0  0  0
 68 67  1  0  0  0  0
 69 68  1  0  0  0  0
 70 69  2  0  0  0  0
M  END
>  <MODEL>
3

>  <REMARK>
 VINA RESULT:      -3.5      2.536      7.618
  Name = 
  32 active torsions:
  status: ('A' for Active; 'I' for Inactive)
    1  A    between atoms: C_1  and  O_49
    2  A    between atoms: C_3  and  C_51
    3  A    between atoms: C_4  and  N_22
    4  A    between atoms: C_4  and  C_41
    5  A    between atoms: C_7  and  C_51
    6  A    between atoms: C_7  and  S_58
    7  A    between atoms: C_8  and  O_34
    8  A    between atoms: O_9  and  C_63
    9  A    between atoms: O_9  and  C_70
   10  A    between atoms: C_10  and  C_47
   11  A    between atoms: C_11  and  C_26
   12  A    between atoms: C_11  and  C_42
   13  A    between atoms: C_15  and  C_41
   14  A    between atoms: O_19  and  C_24
   15  A    between atoms: O_19  and  C_60
   16  A    between atoms: N_22  and  C_46
   17  A    between atoms: N_22  and  C_69
   18  A    between atoms: C_23  and  C_37
   19  A    between atoms: C_23  and  S_58
   20  A    between atoms: C_26  and  C_60
   21  A    between atoms: C_27  and  C_69
   22  A    between atoms: C_28  and  C_40
   23  A    between atoms: C_29  and  C_47
   24  A    between atoms: C_30  and  O_49
   25  A    between atoms: C_30  and  C_65
   26  A    between atoms: C_31  and  C_63
   27  A    between atoms: C_33  and  C_61
   28  A    between atoms: O_34  and  C_68
   29  A    between atoms: C_37  and  C_69
   30  A    between atoms: C_40  and  C_55
   31  A    between atoms: C_46  and  C_70
   32  A    between atoms: C_50  and  C_55
                            x       y       z     vdW  Elec       q    Type
                         _______ _______ _______ _____ _____    ______ ____

>  <TORSDO>
F 32

$$$$
=
 OpenBabel11042418303D

 70 74  0  0  1  0  0  0  0  0999 V2000
  191.9710  176.2370  144.4590 C   0  0  0  0  0  2  0  0  0  0  0  0
  191.0120  176.1060  146.8070 C   0  0  2  0  0  3  0  0  0  0  0  0
  190.1110  175.2780  147.5000 O   0  0  0  0  0  0  0  0  0  0  0  0
  191.6230  175.3400  145.6510 C   0  0  1  0  0  3  0  0  0  0  0  0
  189.8130  174.1930  146.6510 C   0  0  0  0  0  2  0  0  0  0  0  0
  190.5320  174.3750  145.3310 C   0  0  2  0  0  3  0  0  0  0  0  0
  192.0230  176.6040  147.6880 O   0  0  0  0  0  0  0  0  0  0  0  0
  191.9130  176.0740  150.3560 S   0  0  0  0  0  0  0  0  0  0  0  0
  191.3820  178.3280  149.3740 C   0  0  0  0  0  3  0  0  0  0  0  0
  191.4660  177.2710  151.4530 C   0  0  0  0  0  0  0  0  0  0  0  0
  191.2070  178.4510  150.7600 C   0  0  0  0  0  3  0  0  0  0  0  0
  191.7760  177.0480  148.9940 C   0  0  0  0  0  0  0  0  0  0  0  0
  191.8590  175.9270  153.5280 N   0  0  0  0  0  1  0  0  0  0  0  0
  191.3650  177.1030  152.9080 C   0  0  0  0  0  0  0  0  0  0  0  0
  190.8270  177.9950  153.6120 O   0  0  0  0  0  0  0  0  0  0  0  0
  191.0340  173.0490  144.7640 C   0  0  0  0  0  2  0  0  0  0  0  0
  190.5760  172.8360  143.4570 O   0  0  0  0  0  0  0  0  0  0  0  0
  189.7210  173.9160  143.2040 C   0  0  2  0  0  3  0  0  0  0  0  0
  191.5900  174.6870  141.8750 O   0  0  0  0  0  1  0  0  0  0  0  0
  187.4930  175.3560  141.8740 O   0  0  0  0  0  0  0  0  0  0  0  0
  188.3120  173.3760  142.9590 C   0  0  0  0  0  2  0  0  0  0  0  0
  188.2830  176.3890  142.3910 C   0  0  1  0  0  3  0  0  0  0  0  0
  190.1970  174.7210  141.9800 C   0  0  2  0  0  3  0  0  0  0  0  0
  189.7550  176.1880  142.0170 C   0  0  0  0  0  2  0  0  0  0  0  0
  187.2740  174.4960  142.9550 C   0  0  0  0  0  2  0  0  0  0  0  0
  187.7690  177.7230  141.8530 C   0  0  0  0  0  2  0  0  0  0  0  0
  187.5190  178.7270  142.9730 C   0  0  0  0  0  2  0  0  0  0  0  0
  185.7370  179.4380  144.7270 C   0  0  1  0  0  3  0  0  0  0  0  0
  186.0850  178.6680  143.4870 C   0  0  2  0  0  0  0  0  0  0  0  0
  185.1480  177.6090  142.9210 C   0  0  0  0  0  1  0  0  0  0  0  0
  185.4820  179.9410  143.4200 O   0  0  0  0  0  0  0  0  0  0  0  0
  184.4440  178.9570  145.4130 C   0  0  0  0  0  2  0  0  0  0  0  0
  184.6750  178.2060  146.6910 C   0  0  0  0  0  0  0  0  0  0  0  0
  184.3620  176.8120  146.7800 N   0  0  0  0  0  1  0  0  0  0  0  0
  185.1980  178.8030  147.6710 O   0  0  0  0  0  0  0  0  0  0  0  0
  193.4680  176.3810  144.2200 C   0  0  0  0  0  2  0  0  0  0  0  0
  194.2150  175.1940  144.8050 C   0  0  0  0  0  2  0  0  0  0  0  0
  195.5440  175.5550  145.0170 O   0  0  0  0  0  0  0  0  0  0  0  0
  195.3540  173.9980  143.2210 C   0  0  0  0  0  2  0  0  0  0  0  0
  196.2920  174.6770  144.2270 C   0  0  2  0  0  3  0  0  0  0  0  0
  196.0270  173.3250  142.0510 C   0  0  0  0  0  0  0  0  0  0  0  0
  197.0180  172.2130  144.7140 C   0  0  0  0  0  2  0  0  0  0  0  0
  197.0420  172.4470  142.1750 C   0  0  0  0  0  3  0  0  0  0  0  0
  197.8120  172.0740  143.4190 C   0  0  0  0  0  2  0  0  0  0  0  0
  197.5600  174.0240  146.1110 O   0  0  0  0  0  0  0  0  0  0  0  0
  196.9780  173.6590  145.0980 C   0  0  0  0  0  0  0  0  0  0  0  0
  195.5220  174.7330  140.2050 O   0  0  0  0  0  0  0  0  0  0  0  0
  195.4510  173.5740  140.7060 C   0  0  0  0  0  0  0  0  0  0  0  0
  194.8310  172.5710  139.9580 O   0  0  0  0  0  0  0  0  0  0  0  0
  193.5990  171.9880  140.3490 C   0  0  0  0  0  2  0  0  0  0  0  0
  192.7410  171.6980  139.1200 C   0  0  0  0  0  2  0  0  0  0  0  0
  192.4310  172.9420  138.3930 N   0  0  0  0  0  0  0  0  0  0  0  0
  193.4560  173.2310  137.3680 C   0  0  2  0  0  3  0  0  0  0  0  0
  192.5540  175.4760  136.7240 O   0  0  0  0  0  0  0  0  0  0  0  0
  194.7830  175.2520  137.1880 O   0  0  0  0  0  1  0  0  0  0  0  0
  193.6480  174.7080  137.0860 C   0  0  0  0  0  0  0  0  0  0  0  0
  193.1650  172.4830  136.0680 C   0  0  0  0  0  2  0  0  0  0  0  0
  194.2550  171.4630  135.7930 C   0  0  0  0  0  2  0  0  0  0  0  0
  193.7720  169.1610  134.5130 O   0  0  0  0  0  0  0  0  0  0  0  0
  192.1730  169.8430  136.2330 O   0  0  0  0  0  0  0  0  0  0  0  0
  193.6320  169.7890  135.8720 S   0  0  0  0  0  0  0  0  0  0  0  0
  194.4630  168.7850  137.1020 C   0  0  0  0  0  2  0  0  0  0  0  0
  195.4190  169.6240  137.9320 C   0  0  0  0  0  2  0  0  0  0  0  0
  195.9620  168.1670  139.8270 C   0  0  0  0  0  2  0  0  0  0  0  0
  196.3650  168.7630  138.7040 C   0  0  0  0  0  0  0  0  0  0  0  0
  197.8010  168.6950  138.3130 C   0  0  0  0  0  1  0  0  0  0  0  0
  191.1170  172.8290  137.7590 C   0  0  0  0  0  2  0  0  0  0  0  0
  190.1190  173.7790  138.4120 C   0  0  0  0  0  2  0  0  0  0  0  0
  188.9290  173.9980  137.5200 C   0  0  0  0  0  3  0  0  0  0  0  0
  189.0790  174.2930  136.2210 C   0  0  0  0  0  2  0  0  0  0  0  0
  2  3  1  0  0  0  0
  2  7  1  1  0  0  0
  4  1  1  6  0  0  0
  4  2  1  0  0  0  0
  5  3  1  0  0  0  0
  6 16  1  1  0  0  0
  6  4  1  0  0  0  0
  6  5  1  0  0  0  0
  7 12  1  0  0  0  0
  8 10  1  0  0  0  0
  9 11  1  0  0  0  0
 10 14  1  0  0  0  0
 11 10  2  0  0  0  0
 12  9  2  0  0  0  0
 12  8  1  0  0  0  0
 14 13  1  0  0  0  0
 14 15  2  0  0  0  0
 17 16  1  0  0  0  0
 18 17  1  6  0  0  0
 20 22  1  0  0  0  0
 20 25  1  0  0  0  0
 21 18  1  0  0  0  0
 22 26  1  6  0  0  0
 23 19  1  1  0  0  0
 23 24  1  0  0  0  0
 23 18  1  0  0  0  0
 24 22  1  0  0  0  0
 25 21  1  0  0  0  0
 26 27  1  0  0  0  0
 27 29  1  0  0  0  0
 28 32  1  1  0  0  0
 29 30  1  6  0  0  0
 29 28  1  0  0  0  0
 31 29  1  0  0  0  0
 31 28  1  0  0  0  0
 32 33  1  0  0  0  0
 33 34  1  0  0  0  0
 33 35  2  0  0  0  0
 36  1  1  0  0  0  0
 36 37  1  0  0  0  0
 37 38  1  0  0  0  0
 39 40  1  0  0  0  0
 40 38  1  1  0  0  0
 40 46  1  0  0  0  0
 41 43  2  0  0  0  0
 41 39  1  0  0  0  0
 42 46  1  0  0  0  0
 43 44  1  0  0  0  0
 44 42  1  0  0  0  0
 46 45  2  0  0  0  0
 47 48  2  0  0  0  0
 48 41  1  0  0  0  0
 49 50  1  0  0  0  0
 49 48  1  0  0  0  0
 51 50  1  0  0  0  0
 52 51  1  0  0  0  0
 53 57  1  6  0  0  0
 53 52  1  0  0  0  0
 54 56  2  0  0  0  0
 56 55  1  0  0  0  0
 56 53  1  0  0  0  0
 58 61  1  0  0  0  0
 58 57  1  0  0  0  0
 59 61  2  0  0  0  0
 61 60  2  0  0  0  0
 61 62  1  0  0  0  0
 62 63  1  0  0  0  0
 63 65  1  0  0  0  0
 65 64  2  0  0  0  0
 66 65  1  0  0  0  0
 67 52  1  0  0  0  0
 67 68  1  0  0  0  0
 69 68  1  0  0  0  0
 70 69  2  0  0  0  0
M  END
>  <MODEL>
4

>  <REMARK>
 VINA RESULT:      -3.1      2.810      4.609
  Name = 
  32 active torsions:
  status: ('A' for Active; 'I' for Inactive)
    1  A    between atoms: C_1  and  O_49
    2  A    between atoms: C_3  and  C_51
    3  A    between atoms: C_4  and  N_22
    4  A    between atoms: C_4  and  C_41
    5  A    between atoms: C_7  and  C_51
    6  A    between atoms: C_7  and  S_58
    7  A    between atoms: C_8  and  O_34
    8  A    between atoms: O_9  and  C_63
    9  A    between atoms: O_9  and  C_70
   10  A    between atoms: C_10  and  C_47
   11  A    between atoms: C_11  and  C_26
   12  A    between atoms: C_11  and  C_42
   13  A    between atoms: C_15  and  C_41
   14  A    between atoms: O_19  and  C_24
   15  A    between atoms: O_19  and  C_60
   16  A    between atoms: N_22  and  C_46
   17  A    between atoms: N_22  and  C_69
   18  A    between atoms: C_23  and  C_37
   19  A    between atoms: C_23  and  S_58
   20  A    between atoms: C_26  and  C_60
   21  A    between atoms: C_27  and  C_69
   22  A    between atoms: C_28  and  C_40
   23  A    between atoms: C_29  and  C_47
   24  A    between atoms: C_30  and  O_49
   25  A    between atoms: C_30  and  C_65
   26  A    between atoms: C_31  and  C_63
   27  A    between atoms: C_33  and  C_61
   28  A    between atoms: O_34  and  C_68
   29  A    between atoms: C_37  and  C_69
   30  A    between atoms: C_40  and  C_55
   31  A    between atoms: C_46  and  C_70
   32  A    between atoms: C_50  and  C_55
                            x       y       z     vdW  Elec       q    Type
                         _______ _______ _______ _____ _____    ______ ____

>  <TORSDO>
F 32

$$$$
=
 OpenBabel11042418303D

 70 74  0  0  1  0  0  0  0  0999 V2000
  194.5060  172.9980  145.8610 C   0  0  0  0  0  2  0  0  0  0  0  0
  193.2780  175.1410  146.4500 C   0  0  2  0  0  3  0  0  0  0  0  0
  193.3280  176.4910  146.0580 O   0  0  0  0  0  0  0  0  0  0  0  0
  193.8240  174.2660  145.3400 C   0  0  1  0  0  3  0  0  0  0  0  0
  194.2130  176.5680  144.9630 C   0  0  0  0  0  2  0  0  0  0  0  0
  194.7870  175.1960  144.6830 C   0  0  2  0  0  3  0  0  0  0  0  0
  191.9420  174.7640  146.7950 O   0  0  0  0  0  0  0  0  0  0  0  0
  189.2620  175.2060  146.6200 S   0  0  0  0  0  0  0  0  0  0  0  0
  190.9320  177.0260  147.0950 C   0  0  0  0  0  3  0  0  0  0  0  0
  188.6310  176.7540  146.8220 C   0  0  0  0  0  0  0  0  0  0  0  0
  189.6730  177.6410  147.0770 C   0  0  0  0  0  3  0  0  0  0  0  0
  190.8640  175.6560  146.8520 C   0  0  0  0  0  0  0  0  0  0  0  0
  186.2990  176.2860  146.0420 N   0  0  0  0  0  1  0  0  0  0  0  0
  187.2100  177.1160  146.7430 C   0  0  0  0  0  0  0  0  0  0  0  0
  186.7950  178.1700  147.2860 O   0  0  0  0  0  0  0  0  0  0  0  0
  194.9610  174.9410  143.1870 C   0  0  0  0  0  2  0  0  0  0  0  0
  196.2940  175.0980  142.7850 O   0  0  0  0  0  0  0  0  0  0  0  0
  196.2940  174.7540  141.4270 C   0  0  2  0  0  3  0  0  0  0  0  0
  195.8990  177.1240  141.1440 O   0  0  0  0  0  1  0  0  0  0  0  0
  197.5010  174.0980  138.7960 O   0  0  0  0  0  0  0  0  0  0  0  0
  197.4310  173.7640  141.1740 C   0  0  0  0  0  2  0  0  0  0  0  0
  196.2060  174.5110  138.4640 C   0  0  1  0  0  3  0  0  0  0  0  0
  196.4760  176.0020  140.5430 C   0  0  2  0  0  3  0  0  0  0  0  0
  195.8680  175.8410  139.1450 C   0  0  0  0  0  2  0  0  0  0  0  0
  197.3250  173.1290  139.7900 C   0  0  0  0  0  2  0  0  0  0  0  0
  196.1020  174.6420  136.9470 C   0  0  0  0  0  2  0  0  0  0  0  0
  195.0750  173.6780  136.3640 C   0  0  0  0  0  2  0  0  0  0  0  0
  193.5620  175.1970  134.8930 C   0  0  1  0  0  3  0  0  0  0  0  0
  193.7290  174.3500  136.1210 C   0  0  2  0  0  0  0  0  0  0  0  0
  192.7180  174.3960  137.2600 C   0  0  0  0  0  1  0  0  0  0  0  0
  193.1250  173.8430  134.9510 O   0  0  0  0  0  0  0  0  0  0  0  0
  192.3790  176.1800  134.9740 C   0  0  0  0  0  2  0  0  0  0  0  0
  192.7720  177.6210  134.8310 C   0  0  0  0  0  0  0  0  0  0  0  0
  194.1390  178.0180  134.9790 N   0  0  0  0  0  1  0  0  0  0  0  0
  191.8940  178.4720  134.5240 O   0  0  0  0  0  0  0  0  0  0  0  0
  194.9560  172.0510  144.7570 C   0  0  0  0  0  2  0  0  0  0  0  0
  193.7570  171.5380  143.9750 C   0  0  0  0  0  2  0  0  0  0  0  0
  194.1980  171.0170  142.7610 O   0  0  0  0  0  0  0  0  0  0  0  0
  192.1240  172.1230  142.3630 C   0  0  0  0  0  2  0  0  0  0  0  0
  193.0640  170.9860  141.9430 C   0  0  2  0  0  3  0  0  0  0  0  0
  191.0530  172.4870  141.3650 C   0  0  0  0  0  0  0  0  0  0  0  0
  190.8930  169.5480  142.1670 C   0  0  0  0  0  2  0  0  0  0  0  0
  190.2250  171.5900  140.7940 C   0  0  0  0  0  3  0  0  0  0  0  0
  190.2730  170.0830  140.8800 C   0  0  0  0  0  2  0  0  0  0  0  0
  193.0490  168.6250  142.0110 O   0  0  0  0  0  0  0  0  0  0  0  0
  192.3820  169.6500  142.0590 C   0  0  0  0  0  0  0  0  0  0  0  0
  191.8200  174.6380  140.7050 O   0  0  0  0  0  0  0  0  0  0  0  0
  190.8450  173.9320  141.0950 C   0  0  0  0  0  0  0  0  0  0  0  0
  189.6040  174.5530  141.2490 O   0  0  0  0  0  0  0  0  0  0  0  0
  189.0680  174.8670  142.5240 C   0  0  0  0  0  2  0  0  0  0  0  0
  187.5660  175.1180  142.4150 C   0  0  0  0  0  2  0  0  0  0  0  0
  187.2900  176.5450  142.1700 N   0  0  0  0  0  0  0  0  0  0  0  0
  186.1210  176.7200  141.2840 C   0  0  2  0  0  3  0  0  0  0  0  0
  186.2550  176.3650  138.8090 O   0  0  0  0  0  0  0  0  0  0  0  0
  186.9400  178.3590  139.6970 O   0  0  0  0  0  1  0  0  0  0  0  0
  186.4700  177.2030  139.8900 C   0  0  0  0  0  0  0  0  0  0  0  0
  185.0820  177.6450  141.9150 C   0  0  0  0  0  2  0  0  0  0  0  0
  183.6970  177.3210  141.3820 C   0  0  0  0  0  2  0  0  0  0  0  0
  183.0830  179.8450  140.7320 O   0  0  0  0  0  0  0  0  0  0  0  0
  182.5730  179.1210  143.0110 O   0  0  0  0  0  0  0  0  0  0  0  0
  182.5760  178.7020  141.5670 S   0  0  0  0  0  0  0  0  0  0  0  0
  180.8900  178.3070  141.1070 C   0  0  0  0  0  2  0  0  0  0  0  0
  179.9550  179.4580  141.4370 C   0  0  0  0  0  2  0  0  0  0  0  0
  177.8470  180.2990  140.5110 C   0  0  0  0  0  2  0  0  0  0  0  0
  178.6050  179.2490  140.8300 C   0  0  0  0  0  0  0  0  0  0  0  0
  178.0380  177.8760  140.7260 C   0  0  0  0  0  1  0  0  0  0  0  0
  187.0520  177.2270  143.4430 C   0  0  0  0  0  2  0  0  0  0  0  0
  188.1870  178.1960  143.7580 C   0  0  0  0  0  2  0  0  0  0  0  0
  189.3720  177.9360  142.8690 C   0  0  0  0  0  3  0  0  0  0  0  0
  190.6210  177.9540  143.3530 C   0  0  0  0  0  2  0  0  0  0  0  0
  2  7  1  6  0  0  0
  3  2  1  0  0  0  0
  4  1  1  1  0  0  0
  4  2  1  0  0  0  0
  5  3  1  0  0  0  0
  6 16  1  6  0  0  0
  6  5  1  0  0  0  0
  6  4  1  0  0  0  0
  7 12  1  0  0  0  0
  8 10  1  0  0  0  0
  8 12  1  0  0  0  0
 10 11  2  0  0  0  0
 11  9  1  0  0  0  0
 12  9  2  0  0  0  0
 13 14  1  0  0  0  0
 14 10  1  0  0  0  0
 14 15  2  0  0  0  0
 17 16  1  0  0  0  0
 18 17  1  1  0  0  0
 20 25  1  0  0  0  0
 21 18  1  0  0  0  0
 22 26  1  6  0  0  0
 22 20  1  0  0  0  0
 22 24  1  0  0  0  0
 23 19  1  1  0  0  0
 23 18  1  0  0  0  0
 24 23  1  0  0  0  0
 25 21  1  0  0  0  0
 27 26  1  0  0  0  0
 28 31  1  0  0  0  0
 28 32  1  1  0  0  0
 28 29  1  0  0  0  0
 29 27  1  0  0  0  0
 29 30  1  1  0  0  0
 31 29  1  0  0  0  0
 33 32  1  0  0  0  0
 33 34  1  0  0  0  0
 35 33  2  0  0  0  0
 36  1  1  0  0  0  0
 37 36  1  0  0  0  0
 38 37  1  0  0  0  0
 40 46  1  0  0  0  0
 40 39  1  0  0  0  0
 40 38  1  1  0  0  0
 41 39  1  0  0  0  0
 43 44  1  0  0  0  0
 43 41  2  0  0  0  0
 44 42  1  0  0  0  0
 45 46  2  0  0  0  0
 46 42  1  0  0  0  0
 47 48  2  0  0  0  0
 48 49  1  0  0  0  0
 48 41  1  0  0  0  0
 49 50  1  0  0  0  0
 51 50  1  0  0  0  0
 52 51  1  0  0  0  0
 52 67  1  0  0  0  0
 53 57  1  1  0  0  0
 53 52  1  0  0  0  0
 54 56  2  0  0  0  0
 55 56  1  0  0  0  0
 56 53  1  0  0  0  0
 58 61  1  0  0  0  0
 58 57  1  0  0  0  0
 59 61  2  0  0  0  0
 61 60  2  0  0  0  0
 62 63  1  0  0  0  0
 62 61  1  0  0  0  0
 64 65  2  0  0  0  0
 65 63  1  0  0  0  0
 66 65  1  0  0  0  0
 67 68  1  0  0  0  0
 69 70  2  0  0  0  0
 69 68  1  0  0  0  0
M  END
>  <MODEL>
5

>  <REMARK>
 VINA RESULT:      -3.0      2.673      8.965
  Name = 
  32 active torsions:
  status: ('A' for Active; 'I' for Inactive)
    1  A    between atoms: C_1  and  O_49
    2  A    between atoms: C_3  and  C_51
    3  A    between atoms: C_4  and  N_22
    4  A    between atoms: C_4  and  C_41
    5  A    between atoms: C_7  and  C_51
    6  A    between atoms: C_7  and  S_58
    7  A    between atoms: C_8  and  O_34
    8  A    between atoms: O_9  and  C_63
    9  A    between atoms: O_9  and  C_70
   10  A    between atoms: C_10  and  C_47
   11  A    between atoms: C_11  and  C_26
   12  A    between atoms: C_11  and  C_42
   13  A    between atoms: C_15  and  C_41
   14  A    between atoms: O_19  and  C_24
   15  A    between atoms: O_19  and  C_60
   16  A    between atoms: N_22  and  C_46
   17  A    between atoms: N_22  and  C_69
   18  A    between atoms: C_23  and  C_37
   19  A    between atoms: C_23  and  S_58
   20  A    between atoms: C_26  and  C_60
   21  A    between atoms: C_27  and  C_69
   22  A    between atoms: C_28  and  C_40
   23  A    between atoms: C_29  and  C_47
   24  A    between atoms: C_30  and  O_49
   25  A    between atoms: C_30  and  C_65
   26  A    between atoms: C_31  and  C_63
   27  A    between atoms: C_33  and  C_61
   28  A    between atoms: O_34  and  C_68
   29  A    between atoms: C_37  and  C_69
   30  A    between atoms: C_40  and  C_55
   31  A    between atoms: C_46  and  C_70
   32  A    between atoms: C_50  and  C_55
                            x       y       z     vdW  Elec       q    Type
                         _______ _______ _______ _____ _____    ______ ____

>  <TORSDO>
F 32

$$$$
=
 OpenBabel11042418303D

 70 74  0  0  1  0  0  0  0  0999 V2000
  187.6530  174.3070  141.9810 C   0  0  0  0  0  2  0  0  0  0  0  0
  189.8180  175.1410  143.0130 C   0  0  2  0  0  3  0  0  0  0  0  0
  190.5720  176.3280  142.9910 O   0  0  0  0  0  0  0  0  0  0  0  0
  188.3680  175.4520  142.7050 C   0  0  1  0  0  3  0  0  0  0  0  0
  189.7990  177.2940  142.3150 C   0  0  0  0  0  2  0  0  0  0  0  0
  188.5050  176.6630  141.8460 C   0  0  2  0  0  3  0  0  0  0  0  0
  189.9480  174.4830  144.2770 O   0  0  0  0  0  0  0  0  0  0  0  0
  190.3550  176.7300  145.7570 S   0  0  0  0  0  0  0  0  0  0  0  0
  189.4310  174.5960  146.7150 C   0  0  0  0  0  3  0  0  0  0  0  0
  189.9980  176.7530  147.4020 C   0  0  0  0  0  0  0  0  0  0  0  0
  189.4980  175.5090  147.7770 C   0  0  0  0  0  3  0  0  0  0  0  0
  189.8800  175.1370  145.5130 C   0  0  0  0  0  0  0  0  0  0  0  0
  189.2050  178.9280  148.3550 N   0  0  0  0  0  1  0  0  0  0  0  0
  190.1800  177.8990  148.3010 C   0  0  0  0  0  0  0  0  0  0  0  0
  191.2090  177.9840  149.0180 O   0  0  0  0  0  0  0  0  0  0  0  0
  187.3260  177.6270  141.9520 C   0  0  0  0  0  2  0  0  0  0  0  0
  186.5910  177.4210  143.1280 O   0  0  0  0  0  0  0  0  0  0  0  0
  185.2750  177.7540  142.7820 C   0  0  2  0  0  3  0  0  0  0  0  0
  185.2230  178.6100  145.0440 O   0  0  0  0  0  1  0  0  0  0  0  0
  183.1290  179.3890  141.5460 O   0  0  0  0  0  0  0  0  0  0  0  0
  185.2730  178.3230  141.3630 C   0  0  0  0  0  2  0  0  0  0  0  0
  182.4490  178.6410  142.5130 C   0  0  1  0  0  3  0  0  0  0  0  0
  184.6930  178.7880  143.7640 C   0  0  2  0  0  3  0  0  0  0  0  0
  183.1640  178.7240  143.8660 C   0  0  0  0  0  2  0  0  0  0  0  0
  183.8560  178.4470  140.8100 C   0  0  0  0  0  2  0  0  0  0  0  0
  181.0190  179.1640  142.6290 C   0  0  0  0  0  2  0  0  0  0  0  0
  180.1310  178.6370  141.5070 C   0  0  0  0  0  2  0  0  0  0  0  0
  180.1390  180.8150  140.0890 C   0  0  1  0  0  3  0  0  0  0  0  0
  179.3620  179.7540  140.8110 C   0  0  2  0  0  0  0  0  0  0  0  0
  177.8820  179.9290  141.1250 C   0  0  0  0  0  1  0  0  0  0  0  0
  179.5630  179.7000  139.4160 O   0  0  0  0  0  0  0  0  0  0  0  0
  179.3370  182.1070  139.8370 C   0  0  0  0  0  2  0  0  0  0  0  0
  179.4500  182.6310  138.4360 C   0  0  0  0  0  0  0  0  0  0  0  0
  180.1260  183.8660  138.1760 N   0  0  0  0  0  1  0  0  0  0  0  0
  178.9900  181.9460  137.4820 O   0  0  0  0  0  0  0  0  0  0  0  0
  188.3010  173.9220  140.6590 C   0  0  0  0  0  2  0  0  0  0  0  0
  189.4340  172.9350  140.8900 C   0  0  0  0  0  2  0  0  0  0  0  0
  190.6010  173.4440  140.3260 O   0  0  0  0  0  0  0  0  0  0  0  0
  191.9190  172.1210  138.8440 C   0  0  0  0  0  2  0  0  0  0  0  0
  190.6310  172.9350  139.0240 C   0  0  2  0  0  3  0  0  0  0  0  0
  191.9420  171.1900  137.6570 C   0  0  0  0  0  0  0  0  0  0  0  0
  191.4320  174.0770  136.8120 C   0  0  0  0  0  2  0  0  0  0  0  0
  191.6310  171.5680  136.4020 C   0  0  0  0  0  3  0  0  0  0  0  0
  191.0620  172.8860  135.9340 C   0  0  0  0  0  2  0  0  0  0  0  0
  189.7400  174.9570  138.1870 O   0  0  0  0  0  0  0  0  0  0  0  0
  190.5600  174.0620  138.0290 C   0  0  0  0  0  0  0  0  0  0  0  0
  191.6290  168.8440  137.8810 O   0  0  0  0  0  0  0  0  0  0  0  0
  192.4430  169.8120  137.8910 C   0  0  0  0  0  0  0  0  0  0  0  0
  193.7930  169.5340  138.1200 O   0  0  0  0  0  0  0  0  0  0  0  0
  194.2220  168.6680  139.1570 C   0  0  0  0  0  2  0  0  0  0  0  0
  193.5580  169.0580  140.4760 C   0  0  0  0  0  2  0  0  0  0  0  0
  193.7490  170.4930  140.7530 N   0  0  0  0  0  0  0  0  0  0  0  0
  193.5760  170.7870  142.1910 C   0  0  2  0  0  3  0  0  0  0  0  0
  191.9300  170.5750  144.0660 O   0  0  0  0  0  1  0  0  0  0  0  0
  191.2060  170.3620  141.9070 O   0  0  0  0  0  0  0  0  0  0  0  0
  192.1670  170.5570  142.7020 C   0  0  0  0  0  0  0  0  0  0  0  0
  194.0290  172.2070  142.5240 C   0  0  0  0  0  2  0  0  0  0  0  0
  195.2240  172.1720  143.4590 C   0  0  0  0  0  2  0  0  0  0  0  0
  196.0310  173.0650  145.8510 O   0  0  0  0  0  0  0  0  0  0  0  0
  194.1760  171.4720  145.8180 O   0  0  0  0  0  0  0  0  0  0  0  0
  194.7810  172.6600  145.1210 S   0  0  0  0  0  0  0  0  0  0  0  0
  193.5830  173.9910  145.1690 C   0  0  0  0  0  2  0  0  0  0  0  0
  194.2480  175.3050  145.5430 C   0  0  0  0  0  2  0  0  0  0  0  0
  195.6290  176.9040  144.2990 C   0  0  0  0  0  2  0  0  0  0  0  0
  194.5480  176.1240  144.3290 C   0  0  0  0  0  0  0  0  0  0  0  0
  193.5600  176.1970  143.2160 C   0  0  0  0  0  1  0  0  0  0  0  0
  195.0850  170.9050  140.3220 C   0  0  0  0  0  2  0  0  0  0  0  0
  195.1780  172.4240  140.2300 C   0  0  0  0  0  2  0  0  0  0  0  0
  195.4770  172.8560  138.8210 C   0  0  0  0  0  3  0  0  0  0  0  0
  196.1940  172.0820  137.9940 C   0  0  0  0  0  2  0  0  0  0  0  0
  2  7  1  1  0  0  0
  3  2  1  0  0  0  0
  4  1  1  6  0  0  0
  4  2  1  0  0  0  0
  5  3  1  0  0  0  0
  6 16  1  1  0  0  0
  6  5  1  0  0  0  0
  6  4  1  0  0  0  0
  7 12  1  0  0  0  0
  8 10  1  0  0  0  0
  9 11  1  0  0  0  0
 10 11  2  0  0  0  0
 10 14  1  0  0  0  0
 12  8  1  0  0  0  0
 12  9  2  0  0  0  0
 14 13  1  0  0  0  0
 14 15  2  0  0  0  0
 16 17  1  0  0  0  0
 18 17  1  1  0  0  0
 18 23  1  0  0  0  0
 20 22  1  0  0  0  0
 21 18  1  0  0  0  0
 22 26  1  1  0  0  0
 22 24  1  0  0  0  0
 23 24  1  0  0  0  0
 23 19  1  1  0  0  0
 25 21  1  0  0  0  0
 25 20  1  0  0  0  0
 27 26  1  0  0  0  0
 28 32  1  6  0  0  0
 28 29  1  0  0  0  0
 29 30  1  1  0  0  0
 29 27  1  0  0  0  0
 31 28  1  0  0  0  0
 31 29  1  0  0  0  0
 33 32  1  0  0  0  0
 34 33  1  0  0  0  0
 35 33  2  0  0  0  0
 36 37  1  0  0  0  0
 36  1  1  0  0  0  0
 38 37  1  0  0  0  0
 39 40  1  0  0  0  0
 40 38  1  1  0  0  0
 41 48  1  0  0  0  0
 41 39  1  0  0  0  0
 42 46  1  0  0  0  0
 43 41  2  0  0  0  0
 44 43  1  0  0  0  0
 44 42  1  0  0  0  0
 46 45  2  0  0  0  0
 46 40  1  0  0  0  0
 47 48  2  0  0  0  0
 48 49  1  0  0  0  0
 49 50  1  0  0  0  0
 50 51  1  0  0  0  0
 51 52  1  0  0  0  0
 52 53  1  0  0  0  0
 53 57  1  6  0  0  0
 53 56  1  0  0  0  0
 55 56  2  0  0  0  0
 56 54  1  0  0  0  0
 57 58  1  0  0  0  0
 58 61  1  0  0  0  0
 61 62  1  0  0  0  0
 61 60  2  0  0  0  0
 61 59  2  0  0  0  0
 62 63  1  0  0  0  0
 64 65  2  0  0  0  0
 65 63  1  0  0  0  0
 66 65  1  0  0  0  0
 67 52  1  0  0  0  0
 68 67  1  0  0  0  0
 69 68  1  0  0  0  0
 70 69  2  0  0  0  0
M  END
>  <MODEL>
6

>  <REMARK>
 VINA RESULT:      -2.7      2.437      5.812
  Name = 
  32 active torsions:
  status: ('A' for Active; 'I' for Inactive)
    1  A    between atoms: C_1  and  O_49
    2  A    between atoms: C_3  and  C_51
    3  A    between atoms: C_4  and  N_22
    4  A    between atoms: C_4  and  C_41
    5  A    between atoms: C_7  and  C_51
    6  A    between atoms: C_7  and  S_58
    7  A    between atoms: C_8  and  O_34
    8  A    between atoms: O_9  and  C_63
    9  A    between atoms: O_9  and  C_70
   10  A    between atoms: C_10  and  C_47
   11  A    between atoms: C_11  and  C_26
   12  A    between atoms: C_11  and  C_42
   13  A    between atoms: C_15  and  C_41
   14  A    between atoms: O_19  and  C_24
   15  A    between atoms: O_19  and  C_60
   16  A    between atoms: N_22  and  C_46
   17  A    between atoms: N_22  and  C_69
   18  A    between atoms: C_23  and  C_37
   19  A    between atoms: C_23  and  S_58
   20  A    between atoms: C_26  and  C_60
   21  A    between atoms: C_27  and  C_69
   22  A    between atoms: C_28  and  C_40
   23  A    between atoms: C_29  and  C_47
   24  A    between atoms: C_30  and  O_49
   25  A    between atoms: C_30  and  C_65
   26  A    between atoms: C_31  and  C_63
   27  A    between atoms: C_33  and  C_61
   28  A    between atoms: O_34  and  C_68
   29  A    between atoms: C_37  and  C_69
   30  A    between atoms: C_40  and  C_55
   31  A    between atoms: C_46  and  C_70
   32  A    between atoms: C_50  and  C_55
                            x       y       z     vdW  Elec       q    Type
                         _______ _______ _______ _____ _____    ______ ____

>  <TORSDO>
F 32

$$$$
=
 OpenBabel11042418303D

 70 74  0  0  1  0  0  0  0  0999 V2000
  190.4060  173.4510  144.2200 C   0  0  0  0  0  2  0  0  0  0  0  0
  191.3520  175.7570  144.7040 C   0  0  2  0  0  3  0  0  0  0  0  0
  191.3930  177.0040  144.0540 O   0  0  0  0  0  0  0  0  0  0  0  0
  190.1610  174.9620  144.2080 C   0  0  1  0  0  3  0  0  0  0  0  0
  190.5640  176.9030  142.9190 C   0  0  0  0  0  2  0  0  0  0  0  0
  190.0090  175.4980  142.8250 C   0  0  2  0  0  3  0  0  0  0  0  0
  191.3040  175.9280  146.1240 O   0  0  0  0  0  0  0  0  0  0  0  0
  188.6870  176.5680  146.5120 S   0  0  0  0  0  0  0  0  0  0  0  0
  190.5750  177.6650  147.7600 C   0  0  0  0  0  3  0  0  0  0  0  0
  188.2470  177.7540  147.6230 C   0  0  0  0  0  0  0  0  0  0  0  0
  189.3950  178.2600  148.2270 C   0  0  0  0  0  3  0  0  0  0  0  0
  190.3390  176.6940  146.7900 C   0  0  0  0  0  0  0  0  0  0  0  0
  185.7860  177.3070  147.6970 N   0  0  0  0  0  1  0  0  0  0  0  0
  186.8750  178.1880  147.9130 C   0  0  0  0  0  0  0  0  0  0  0  0
  186.6560  179.3490  148.3420 O   0  0  0  0  0  0  0  0  0  0  0  0
  188.5680  175.4840  142.3180 C   0  0  0  0  0  2  0  0  0  0  0  0
  187.6960  176.1170  143.2140 O   0  0  0  0  0  0  0  0  0  0  0  0
  186.6670  176.6180  142.4070 C   0  0  2  0  0  3  0  0  0  0  0  0
  186.0850  177.8190  144.4250 O   0  0  0  0  0  1  0  0  0  0  0  0
  185.4420  178.3900  140.3640 O   0  0  0  0  0  0  0  0  0  0  0  0
  187.2430  176.9460  141.0290 C   0  0  0  0  0  2  0  0  0  0  0  0
  184.3420  177.9370  141.1010 C   0  0  1  0  0  3  0  0  0  0  0  0
  186.0430  177.8820  143.0300 C   0  0  2  0  0  3  0  0  0  0  0  0
  184.5880  178.1050  142.6040 C   0  0  0  0  0  2  0  0  0  0  0  0
  186.1410  177.2290  140.0120 C   0  0  0  0  0  2  0  0  0  0  0  0
  183.1020  178.7150  140.6690 C   0  0  0  0  0  2  0  0  0  0  0  0
  181.8460  177.8520  140.7150 C   0  0  0  0  0  2  0  0  0  0  0  0
  179.3960  178.7100  140.5770 C   0  0  1  0  0  3  0  0  0  0  0  0
  180.6720  178.5810  141.3570 C   0  0  2  0  0  0  0  0  0  0  0  0
  180.9220  179.4070  142.6120 C   0  0  0  0  0  1  0  0  0  0  0  0
  179.5910  177.6980  141.5600 O   0  0  0  0  0  0  0  0  0  0  0  0
  178.4670  179.8270  141.0880 C   0  0  0  0  0  2  0  0  0  0  0  0
  178.6800  181.1520  140.4170 C   0  0  0  0  0  0  0  0  0  0  0  0
  177.7370  182.2140  140.5950 N   0  0  0  0  0  1  0  0  0  0  0  0
  179.7260  181.3390  139.7380 O   0  0  0  0  0  0  0  0  0  0  0  0
  191.5600  173.0270  145.1180 C   0  0  0  0  0  2  0  0  0  0  0  0
  192.8870  173.2080  144.3990 C   0  0  0  0  0  2  0  0  0  0  0  0
  193.9180  172.7930  145.2390 O   0  0  0  0  0  0  0  0  0  0  0  0
  193.6680  171.2190  143.4660 C   0  0  0  0  0  2  0  0  0  0  0  0
  194.6130  171.8210  144.5140 C   0  0  2  0  0  3  0  0  0  0  0  0
  194.3320  170.4480  142.3530 C   0  0  0  0  0  0  0  0  0  0  0  0
  195.0430  169.3080  145.0920 C   0  0  0  0  0  2  0  0  0  0  0  0
  195.2390  169.4720  142.5550 C   0  0  0  0  0  3  0  0  0  0  0  0
  195.8910  169.0520  143.8500 C   0  0  0  0  0  2  0  0  0  0  0  0
  195.6930  171.0880  146.4830 O   0  0  0  0  0  0  0  0  0  0  0  0
  195.1350  170.7600  145.4440 C   0  0  0  0  0  0  0  0  0  0  0  0
  192.6230  170.7650  140.7320 O   0  0  0  0  0  0  0  0  0  0  0  0
  193.8650  170.7220  140.9710 C   0  0  0  0  0  0  0  0  0  0  0  0
  194.7470  170.9420  139.9110 O   0  0  0  0  0  0  0  0  0  0  0  0
  194.7400  170.1390  138.7420 C   0  0  0  0  0  2  0  0  0  0  0  0
  193.4640  169.3020  138.6870 C   0  0  0  0  0  2  0  0  0  0  0  0
  192.3440  170.0900  138.1430 N   0  0  0  0  0  0  0  0  0  0  0  0
  192.7290  170.7700  136.8880 C   0  0  2  0  0  3  0  0  0  0  0  0
  191.1330  170.5360  134.9730 O   0  0  0  0  0  0  0  0  0  0  0  0
  192.8690  169.0610  135.1750 O   0  0  0  0  0  1  0  0  0  0  0  0
  192.2540  170.0630  135.6330 C   0  0  0  0  0  0  0  0  0  0  0  0
  194.2380  170.9970  136.8220 C   0  0  0  0  0  2  0  0  0  0  0  0
  194.5660  172.0520  135.7810 C   0  0  0  0  0  2  0  0  0  0  0  0
  192.6950  173.3910  137.1510 O   0  0  0  0  0  0  0  0  0  0  0  0
  193.2340  174.2000  134.9070 O   0  0  0  0  0  0  0  0  0  0  0  0
  193.8120  173.6250  136.1710 S   0  0  0  0  0  0  0  0  0  0  0  0
  194.9720  174.8170  136.8360 C   0  0  0  0  0  2  0  0  0  0  0  0
  195.6350  174.2850  138.0940 C   0  0  0  0  0  2  0  0  0  0  0  0
  197.9400  174.4570  138.9130 C   0  0  0  0  0  2  0  0  0  0  0  0
  197.1130  174.1530  137.9120 C   0  0  0  0  0  0  0  0  0  0  0  0
  197.6740  173.8370  136.5690 C   0  0  0  0  0  1  0  0  0  0  0  0
  191.1970  169.2160  137.9000 C   0  0  0  0  0  2  0  0  0  0  0  0
  189.9000  170.0180  137.8830 C   0  0  0  0  0  2  0  0  0  0  0  0
  189.8350  170.9510  139.0600 C   0  0  0  0  0  3  0  0  0  0  0  0
  189.2750  172.1640  138.9540 C   0  0  0  0  0  2  0  0  0  0  0  0
  1 36  1  0  0  0  0
  2  7  1  1  0  0  0
  3  2  1  0  0  0  0
  4  1  1  6  0  0  0
  4  2  1  0  0  0  0
  5  3  1  0  0  0  0
  6 16  1  1  0  0  0
  6  5  1  0  0  0  0
  6  4  1  0  0  0  0
  7 12  1  0  0  0  0
  8 12  1  0  0  0  0
  8 10  1  0  0  0  0
  9 11  1  0  0  0  0
 10 14  1  0  0  0  0
 10 11  2  0  0  0  0
 12  9  2  0  0  0  0
 13 14  1  0  0  0  0
 14 15  2  0  0  0  0
 16 17  1  0  0  0  0
 18 23  1  0  0  0  0
 18 17  1  1  0  0  0
 20 22  1  0  0  0  0
 21 18  1  0  0  0  0
 22 26  1  6  0  0  0
 22 24  1  0  0  0  0
 23 19  1  1  0  0  0
 24 23  1  0  0  0  0
 25 20  1  0  0  0  0
 25 21  1  0  0  0  0
 26 27  1  0  0  0  0
 27 29  1  0  0  0  0
 28 32  1  1  0  0  0
 28 29  1  0  0  0  0
 28 31  1  0  0  0  0
 29 31  1  0  0  0  0
 29 30  1  1  0  0  0
 33 34  1  0  0  0  0
 33 32  1  0  0  0  0
 35 33  2  0  0  0  0
 37 36  1  0  0  0  0
 37 38  1  0  0  0  0
 39 40  1  0  0  0  0
 40 38  1  1  0  0  0
 40 46  1  0  0  0  0
 41 43  2  0  0  0  0
 41 39  1  0  0  0  0
 42 46  1  0  0  0  0
 43 44  1  0  0  0  0
 44 42  1  0  0  0  0
 46 45  2  0  0  0  0
 47 48  2  0  0  0  0
 48 41  1  0  0  0  0
 49 48  1  0  0  0  0
 50 49  1  0  0  0  0
 51 50  1  0  0  0  0
 52 51  1  0  0  0  0
 53 57  1  6  0  0  0
 53 52  1  0  0  0  0
 54 56  2  0  0  0  0
 55 56  1  0  0  0  0
 56 53  1  0  0  0  0
 58 61  1  0  0  0  0
 58 57  1  0  0  0  0
 60 61  2  0  0  0  0
 61 62  1  0  0  0  0
 61 59  2  0  0  0  0
 62 63  1  0  0  0  0
 65 63  1  0  0  0  0
 65 64  2  0  0  0  0
 66 65  1  0  0  0  0
 67 52  1  0  0  0  0
 68 67  1  0  0  0  0
 68 69  1  0  0  0  0
 70 69  2  0  0  0  0
M  END
>  <MODEL>
7

>  <REMARK>
 VINA RESULT:      -2.6      2.165      3.810
  Name = 
  32 active torsions:
  status: ('A' for Active; 'I' for Inactive)
    1  A    between atoms: C_1  and  O_49
    2  A    between atoms: C_3  and  C_51
    3  A    between atoms: C_4  and  N_22
    4  A    between atoms: C_4  and  C_41
    5  A    between atoms: C_7  and  C_51
    6  A    between atoms: C_7  and  S_58
    7  A    between atoms: C_8  and  O_34
    8  A    between atoms: O_9  and  C_63
    9  A    between atoms: O_9  and  C_70
   10  A    between atoms: C_10  and  C_47
   11  A    between atoms: C_11  and  C_26
   12  A    between atoms: C_11  and  C_42
   13  A    between atoms: C_15  and  C_41
   14  A    between atoms: O_19  and  C_24
   15  A    between atoms: O_19  and  C_60
   16  A    between atoms: N_22  and  C_46
   17  A    between atoms: N_22  and  C_69
   18  A    between atoms: C_23  and  C_37
   19  A    between atoms: C_23  and  S_58
   20  A    between atoms: C_26  and  C_60
   21  A    between atoms: C_27  and  C_69
   22  A    between atoms: C_28  and  C_40
   23  A    between atoms: C_29  and  C_47
   24  A    between atoms: C_30  and  O_49
   25  A    between atoms: C_30  and  C_65
   26  A    between atoms: C_31  and  C_63
   27  A    between atoms: C_33  and  C_61
   28  A    between atoms: O_34  and  C_68
   29  A    between atoms: C_37  and  C_69
   30  A    between atoms: C_40  and  C_55
   31  A    between atoms: C_46  and  C_70
   32  A    between atoms: C_50  and  C_55
                            x       y       z     vdW  Elec       q    Type
                         _______ _______ _______ _____ _____    ______ ____

>  <TORSDO>
F 32

$$$$
=
 OpenBabel11042418303D

 70 74  0  0  1  0  0  0  0  0999 V2000
  187.6530  174.3070  141.9810 C   0  0  0  0  0  2  0  0  0  0  0  0
  189.8180  175.1410  143.0130 C   0  0  2  0  0  3  0  0  0  0  0  0
  190.5720  176.3280  142.9910 O   0  0  0  0  0  0  0  0  0  0  0  0
  188.3680  175.4520  142.7050 C   0  0  1  0  0  3  0  0  0  0  0  0
  189.7990  177.2940  142.3150 C   0  0  0  0  0  2  0  0  0  0  0  0
  188.5050  176.6630  141.8460 C   0  0  2  0  0  3  0  0  0  0  0  0
  189.9480  174.4830  144.2770 O   0  0  0  0  0  0  0  0  0  0  0  0
  191.5350  175.8460  146.0180 S   0  0  0  0  0  0  0  0  0  0  0  0
  189.1110  175.3440  146.4640 C   0  0  0  0  0  3  0  0  0  0  0  0
  190.9240  176.3990  147.4860 C   0  0  0  0  0  0  0  0  0  0  0  0
  189.5800  176.0460  147.5820 C   0  0  0  0  0  3  0  0  0  0  0  0
  190.0960  175.1510  145.4980 C   0  0  0  0  0  0  0  0  0  0  0  0
  191.0330  177.6160  149.6700 N   0  0  0  0  0  1  0  0  0  0  0  0
  191.6820  177.1360  148.5040 C   0  0  0  0  0  0  0  0  0  0  0  0
  192.9080  177.3590  148.3420 O   0  0  0  0  0  0  0  0  0  0  0  0
  187.3260  177.6270  141.9520 C   0  0  0  0  0  2  0  0  0  0  0  0
  186.6340  177.4700  143.1610 O   0  0  0  0  0  0  0  0  0  0  0  0
  185.3060  177.7840  142.8480 C   0  0  2  0  0  3  0  0  0  0  0  0
  185.5520  179.3140  144.7060 O   0  0  0  0  0  1  0  0  0  0  0  0
  183.1150  179.1140  141.3510 O   0  0  0  0  0  0  0  0  0  0  0  0
  185.1700  177.8720  141.3280 C   0  0  0  0  0  2  0  0  0  0  0  0
  182.5130  178.7700  142.5670 C   0  0  1  0  0  3  0  0  0  0  0  0
  184.8890  179.1200  143.4920 C   0  0  2  0  0  3  0  0  0  0  0  0
  183.3810  179.2170  143.7490 C   0  0  0  0  0  2  0  0  0  0  0  0
  183.7070  177.9310  140.8970 C   0  0  0  0  0  2  0  0  0  0  0  0
  181.1330  179.4180  142.6380 C   0  0  0  0  0  2  0  0  0  0  0  0
  180.0610  178.5380  142.0060 C   0  0  0  0  0  2  0  0  0  0  0  0
  178.7010  180.5000  140.9760 C   0  0  1  0  0  3  0  0  0  0  0  0
  179.4220  179.1980  140.7890 C   0  0  2  0  0  0  0  0  0  0  0  0
  179.2700  178.3830  139.5110 C   0  0  0  0  0  1  0  0  0  0  0  0
  180.0440  180.4320  140.5100 O   0  0  0  0  0  0  0  0  0  0  0  0
  177.7200  180.8350  139.8370 C   0  0  0  0  0  2  0  0  0  0  0  0
  177.9980  182.1430  139.1570 C   0  0  0  0  0  0  0  0  0  0  0  0
  178.0470  182.2220  137.7280 N   0  0  0  0  0  1  0  0  0  0  0  0
  178.1360  183.1840  139.8550 O   0  0  0  0  0  0  0  0  0  0  0  0
  188.3010  173.9220  140.6590 C   0  0  0  0  0  2  0  0  0  0  0  0
  189.4680  172.9760  140.8950 C   0  0  0  0  0  2  0  0  0  0  0  0
  190.5100  173.3200  140.0360 O   0  0  0  0  0  0  0  0  0  0  0  0
  191.7310  172.3680  138.2230 C   0  0  0  0  0  2  0  0  0  0  0  0
  190.3780  172.4630  138.9390 C   0  0  2  0  0  3  0  0  0  0  0  0
  191.8850  171.2110  137.2680 C   0  0  0  0  0  0  0  0  0  0  0  0
  189.5090  172.9750  136.5270 C   0  0  0  0  0  2  0  0  0  0  0  0
  190.9960  170.9170  136.2990 C   0  0  0  0  0  3  0  0  0  0  0  0
  189.6390  171.5300  136.0540 C   0  0  0  0  0  2  0  0  0  0  0  0
  188.2400  173.3530  138.4700 O   0  0  0  0  0  0  0  0  0  0  0  0
  189.3110  172.9760  138.0110 C   0  0  0  0  0  0  0  0  0  0  0  0
  193.1410  169.2930  137.8950 O   0  0  0  0  0  0  0  0  0  0  0  0
  193.1470  170.4330  137.3480 C   0  0  0  0  0  0  0  0  0  0  0  0
  194.3550  170.9090  136.8340 O   0  0  0  0  0  0  0  0  0  0  0  0
  195.5990  170.6500  137.4630 C   0  0  0  0  0  2  0  0  0  0  0  0
  195.4230  170.6080  138.9790 C   0  0  0  0  0  2  0  0  0  0  0  0
  194.9830  171.9180  139.4910 N   0  0  0  0  0  0  0  0  0  0  0  0
  194.7310  171.8650  140.9470 C   0  0  2  0  0  3  0  0  0  0  0  0
  194.0070  169.4740  141.1230 O   0  0  0  0  0  0  0  0  0  0  0  0
  195.7430  170.2200  142.4120 O   0  0  0  0  0  1  0  0  0  0  0  0
  194.8620  170.4780  141.5460 C   0  0  0  0  0  0  0  0  0  0  0  0
  193.3660  172.4580  141.2930 C   0  0  0  0  0  2  0  0  0  0  0  0
  193.3790  173.0160  142.7050 C   0  0  0  0  0  2  0  0  0  0  0  0
  193.9030  175.2930  144.0130 O   0  0  0  0  0  0  0  0  0  0  0  0
  194.1400  175.3210  141.5790 O   0  0  0  0  0  0  0  0  0  0  0  0
  194.3660  174.5020  142.8200 S   0  0  0  0  0  0  0  0  0  0  0  0
  196.1230  174.1740  142.9470 C   0  0  0  0  0  2  0  0  0  0  0  0
  196.3770  172.7390  143.3770 C   0  0  0  0  0  2  0  0  0  0  0  0
  196.2160  171.6260  145.5560 C   0  0  0  0  0  2  0  0  0  0  0  0
  196.6680  172.6570  144.8410 C   0  0  0  0  0  0  0  0  0  0  0  0
  197.3230  173.8000  145.5360 C   0  0  0  0  0  1  0  0  0  0  0  0
  196.0020  172.9280  139.2030 C   0  0  0  0  0  2  0  0  0  0  0  0
  195.3550  174.2400  138.7720 C   0  0  0  0  0  2  0  0  0  0  0  0
  196.0950  174.8430  137.6110 C   0  0  0  0  0  3  0  0  0  0  0  0
  197.3680  174.5150  137.3510 C   0  0  0  0  0  2  0  0  0  0  0  0
  2  7  1  1  0  0  0
  3  2  1  0  0  0  0
  4  1  1  6  0  0  0
  4  2  1  0  0  0  0
  5  3  1  0  0  0  0
  6 16  1  1  0  0  0
  6  5  1  0  0  0  0
  6  4  1  0  0  0  0
  7 12  1  0  0  0  0
  8 10  1  0  0  0  0
  9 11  1  0  0  0  0
 10 11  2  0  0  0  0
 10 14  1  0  0  0  0
 12  8  1  0  0  0  0
 12  9  2  0  0  0  0
 14 13  1  0  0  0  0
 15 14  2  0  0  0  0
 16 17  1  0  0  0  0
 18 17  1  6  0  0  0
 18 23  1  0  0  0  0
 20 22  1  0  0  0  0
 21 18  1  0  0  0  0
 22 26  1  1  0  0  0
 22 24  1  0  0  0  0
 23 24  1  0  0  0  0
 23 19  1  1  0  0  0
 25 21  1  0  0  0  0
 25 20  1  0  0  0  0
 27 26  1  0  0  0  0
 28 32  1  6  0  0  0
 29 30  1  6  0  0  0
 29 28  1  0  0  0  0
 29 27  1  0  0  0  0
 31 29  1  0  0  0  0
 31 28  1  0  0  0  0
 33 32  1  0  0  0  0
 33 35  2  0  0  0  0
 34 33  1  0  0  0  0
 36 37  1  0  0  0  0
 36  1  1  0  0  0  0
 38 37  1  0  0  0  0
 39 40  1  0  0  0  0
 40 38  1  1  0  0  0
 41 48  1  0  0  0  0
 41 39  1  0  0  0  0
 42 46  1  0  0  0  0
 43 41  2  0  0  0  0
 44 43  1  0  0  0  0
 44 42  1  0  0  0  0
 46 45  2  0  0  0  0
 46 40  1  0  0  0  0
 48 47  2  0  0  0  0
 49 48  1  0  0  0  0
 49 50  1  0  0  0  0
 50 51  1  0  0  0  0
 51 52  1  0  0  0  0
 52 53  1  0  0  0  0
 53 57  1  6  0  0  0
 53 56  1  0  0  0  0
 54 56  2  0  0  0  0
 56 55  1  0  0  0  0
 57 58  1  0  0  0  0
 58 61  1  0  0  0  0
 60 61  2  0  0  0  0
 61 62  1  0  0  0  0
 61 59  2  0  0  0  0
 62 63  1  0  0  0  0
 63 65  1  0  0  0  0
 65 66  1  0  0  0  0
 65 64  2  0  0  0  0
 67 52  1  0  0  0  0
 68 67  1  0  0  0  0
 69 68  1  0  0  0  0
 70 69  2  0  0  0  0
M  END
>  <MODEL>
8

>  <REMARK>
 VINA RESULT:      -2.6      2.385      5.838
  Name = 
  32 active torsions:
  status: ('A' for Active; 'I' for Inactive)
    1  A    between atoms: C_1  and  O_49
    2  A    between atoms: C_3  and  C_51
    3  A    between atoms: C_4  and  N_22
    4  A    between atoms: C_4  and  C_41
    5  A    between atoms: C_7  and  C_51
    6  A    between atoms: C_7  and  S_58
    7  A    between atoms: C_8  and  O_34
    8  A    between atoms: O_9  and  C_63
    9  A    between atoms: O_9  and  C_70
   10  A    between atoms: C_10  and  C_47
   11  A    between atoms: C_11  and  C_26
   12  A    between atoms: C_11  and  C_42
   13  A    between atoms: C_15  and  C_41
   14  A    between atoms: O_19  and  C_24
   15  A    between atoms: O_19  and  C_60
   16  A    between atoms: N_22  and  C_46
   17  A    between atoms: N_22  and  C_69
   18  A    between atoms: C_23  and  C_37
   19  A    between atoms: C_23  and  S_58
   20  A    between atoms: C_26  and  C_60
   21  A    between atoms: C_27  and  C_69
   22  A    between atoms: C_28  and  C_40
   23  A    between atoms: C_29  and  C_47
   24  A    between atoms: C_30  and  O_49
   25  A    between atoms: C_30  and  C_65
   26  A    between atoms: C_31  and  C_63
   27  A    between atoms: C_33  and  C_61
   28  A    between atoms: O_34  and  C_68
   29  A    between atoms: C_37  and  C_69
   30  A    between atoms: C_40  and  C_55
   31  A    between atoms: C_46  and  C_70
   32  A    between atoms: C_50  and  C_55
                            x       y       z     vdW  Elec       q    Type
                         _______ _______ _______ _____ _____    ______ ____

>  <TORSDO>
F 32

$$$$
=
 OpenBabel11042418303D

 70 74  0  0  1  0  0  0  0  0999 V2000
  194.5060  172.9980  145.8610 C   0  0  0  0  0  2  0  0  0  0  0  0
  193.1800  175.0590  146.5270 C   0  0  2  0  0  3  0  0  0  0  0  0
  193.2100  176.4340  146.2330 O   0  0  0  0  0  0  0  0  0  0  0  0
  193.8130  174.2810  145.3920 C   0  0  1  0  0  3  0  0  0  0  0  0
  194.1500  176.6130  145.1980 C   0  0  0  0  0  2  0  0  0  0  0  0
  194.7820  175.2810  144.8560 C   0  0  2  0  0  3  0  0  0  0  0  0
  191.8400  174.6210  146.7690 O   0  0  0  0  0  0  0  0  0  0  0  0
  189.2130  175.1740  146.3250 S   0  0  0  0  0  0  0  0  0  0  0  0
  190.7520  176.7120  147.5860 C   0  0  0  0  0  3  0  0  0  0  0  0
  188.5270  176.6040  146.8910 C   0  0  0  0  0  0  0  0  0  0  0  0
  189.4990  177.3400  147.5630 C   0  0  0  0  0  3  0  0  0  0  0  0
  190.7490  175.4850  146.9290 C   0  0  0  0  0  0  0  0  0  0  0  0
  186.7650  177.8530  145.6250 N   0  0  0  0  0  1  0  0  0  0  0  0
  187.1290  177.0130  146.7080 C   0  0  0  0  0  0  0  0  0  0  0  0
  186.2470  176.6330  147.5190 O   0  0  0  0  0  0  0  0  0  0  0  0
  195.0440  175.1390  143.3590 C   0  0  0  0  0  2  0  0  0  0  0  0
  196.3950  174.8790  143.0910 O   0  0  0  0  0  0  0  0  0  0  0  0
  196.4220  174.5240  141.7360 C   0  0  2  0  0  3  0  0  0  0  0  0
  196.4230  176.9230  141.4250 O   0  0  0  0  0  1  0  0  0  0  0  0
  197.6670  173.6580  139.1850 O   0  0  0  0  0  0  0  0  0  0  0  0
  197.4030  173.3650  141.5540 C   0  0  0  0  0  2  0  0  0  0  0  0
  196.4750  174.2650  138.7730 C   0  0  1  0  0  3  0  0  0  0  0  0
  196.8510  175.7180  140.8630 C   0  0  2  0  0  3  0  0  0  0  0  0
  196.3100  175.6390  139.4310 C   0  0  0  0  0  2  0  0  0  0  0  0
  197.2810  172.7390  140.1680 C   0  0  0  0  0  2  0  0  0  0  0  0
  196.4840  174.3940  137.2520 C   0  0  0  0  0  2  0  0  0  0  0  0
  195.0950  174.6950  136.7010 C   0  0  0  0  0  2  0  0  0  0  0  0
  193.5130  172.7580  137.4100 C   0  0  1  0  0  3  0  0  0  0  0  0
  194.3320  173.4240  136.3440 C   0  0  2  0  0  0  0  0  0  0  0  0
  194.6640  172.7140  135.0380 C   0  0  0  0  0  1  0  0  0  0  0  0
  192.9410  173.6360  136.4460 O   0  0  0  0  0  0  0  0  0  0  0  0
  193.1790  171.2850  137.1060 C   0  0  0  0  0  2  0  0  0  0  0  0
  191.7150  171.0170  136.9220 C   0  0  0  0  0  0  0  0  0  0  0  0
  191.2700  170.0360  135.9790 N   0  0  0  0  0  1  0  0  0  0  0  0
  190.8800  171.6250  137.6470 O   0  0  0  0  0  0  0  0  0  0  0  0
  194.9800  172.1080  144.7200 C   0  0  0  0  0  2  0  0  0  0  0  0
  193.7950  171.6100  143.9080 C   0  0  0  0  0  2  0  0  0  0  0  0
  194.2520  171.1510  142.6740 O   0  0  0  0  0  0  0  0  0  0  0  0
  192.2150  172.3150  142.2490 C   0  0  0  0  0  2  0  0  0  0  0  0
  193.1270  171.1500  141.8440 C   0  0  2  0  0  3  0  0  0  0  0  0
  191.1660  172.7050  141.2380 C   0  0  0  0  0  0  0  0  0  0  0  0
  190.9130  169.7750  142.0510 C   0  0  0  0  0  2  0  0  0  0  0  0
  190.3190  171.8290  140.6620 C   0  0  0  0  0  3  0  0  0  0  0  0
  190.3220  170.3220  140.7550 C   0  0  0  0  0  2  0  0  0  0  0  0
  193.0430  168.7900  141.9220 O   0  0  0  0  0  0  0  0  0  0  0  0
  192.4060  169.8340  141.9580 C   0  0  0  0  0  0  0  0  0  0  0  0
  192.0180  174.8480  140.6640 O   0  0  0  0  0  0  0  0  0  0  0  0
  191.0030  174.1540  140.9600 C   0  0  0  0  0  0  0  0  0  0  0  0
  189.7610  174.7910  141.0060 O   0  0  0  0  0  0  0  0  0  0  0  0
  189.3050  175.4760  142.1610 C   0  0  0  0  0  2  0  0  0  0  0  0
  187.7920  175.6720  142.0920 C   0  0  0  0  0  2  0  0  0  0  0  0
  187.4550  176.8640  141.2940 N   0  0  0  0  0  0  0  0  0  0  0  0
  186.0310  176.8560  140.8980 C   0  0  2  0  0  3  0  0  0  0  0  0
  186.7610  175.9410  138.6840 O   0  0  0  0  0  0  0  0  0  0  0  0
  184.7540  177.0280  138.8440 O   0  0  0  0  0  1  0  0  0  0  0  0
  185.8030  176.6230  139.4160 C   0  0  0  0  0  0  0  0  0  0  0  0
  185.3270  178.1380  141.3400 C   0  0  0  0  0  2  0  0  0  0  0  0
  183.9690  177.8120  141.9360 C   0  0  0  0  0  2  0  0  0  0  0  0
  183.2150  179.5890  140.0800 O   0  0  0  0  0  0  0  0  0  0  0  0
  182.3830  179.9250  142.3540 O   0  0  0  0  0  0  0  0  0  0  0  0
  182.6920  178.8920  141.3050 S   0  0  0  0  0  0  0  0  0  0  0  0
  181.1680  178.0320  140.9180 C   0  0  0  0  0  2  0  0  0  0  0  0
  180.2580  177.9690  142.1330 C   0  0  0  0  0  2  0  0  0  0  0  0
  177.8730  178.2050  142.6510 C   0  0  0  0  0  2  0  0  0  0  0  0
  178.8730  178.4190  141.7950 C   0  0  0  0  0  0  0  0  0  0  0  0
  178.5750  178.9610  140.4400 C   0  0  0  0  0  1  0  0  0  0  0  0
  187.7470  178.0730  142.0630 C   0  0  0  0  0  2  0  0  0  0  0  0
  189.2510  178.2510  142.2400 C   0  0  0  0  0  2  0  0  0  0  0  0
  189.6450  178.0620  143.6780 C   0  0  0  0  0  3  0  0  0  0  0  0
  190.9170  177.8190  144.0250 C   0  0  0  0  0  2  0  0  0  0  0  0
  2  7  1  6  0  0  0
  3  2  1  0  0  0  0
  4  1  1  1  0  0  0
  4  2  1  0  0  0  0
  5  3  1  0  0  0  0
  6 16  1  6  0  0  0
  6  5  1  0  0  0  0
  6  4  1  0  0  0  0
  7 12  1  0  0  0  0
  8 10  1  0  0  0  0
  8 12  1  0  0  0  0
 10 11  2  0  0  0  0
 11  9  1  0  0  0  0
 12  9  2  0  0  0  0
 13 14  1  0  0  0  0
 14 10  1  0  0  0  0
 14 15  2  0  0  0  0
 17 16  1  0  0  0  0
 18 17  1  1  0  0  0
 20 25  1  0  0  0  0
 21 18  1  0  0  0  0
 22 26  1  6  0  0  0
 22 20  1  0  0  0  0
 22 24  1  0  0  0  0
 23 19  1  1  0  0  0
 23 18  1  0  0  0  0
 24 23  1  0  0  0  0
 25 21  1  0  0  0  0
 27 26  1  0  0  0  0
 28 32  1  6  0  0  0
 29 30  1  6  0  0  0
 29 31  1  0  0  0  0
 29 27  1  0  0  0  0
 29 28  1  0  0  0  0
 31 28  1  0  0  0  0
 33 32  1  0  0  0  0
 33 35  2  0  0  0  0
 34 33  1  0  0  0  0
 36  1  1  0  0  0  0
 37 36  1  0  0  0  0
 38 37  1  0  0  0  0
 40 46  1  0  0  0  0
 40 39  1  0  0  0  0
 40 38  1  1  0  0  0
 41 39  1  0  0  0  0
 43 44  1  0  0  0  0
 43 41  2  0  0  0  0
 44 42  1  0  0  0  0
 45 46  2  0  0  0  0
 46 42  1  0  0  0  0
 47 48  2  0  0  0  0
 48 49  1  0  0  0  0
 48 41  1  0  0  0  0
 49 50  1  0  0  0  0
 51 50  1  0  0  0  0
 52 67  1  0  0  0  0
 52 51  1  0  0  0  0
 53 52  1  0  0  0  0
 53 57  1  6  0  0  0
 54 56  2  0  0  0  0
 55 56  1  0  0  0  0
 56 53  1  0  0  0  0
 57 58  1  0  0  0  0
 59 61  2  0  0  0  0
 61 58  1  0  0  0  0
 61 60  2  0  0  0  0
 62 61  1  0  0  0  0
 62 63  1  0  0  0  0
 65 63  1  0  0  0  0
 65 64  2  0  0  0  0
 66 65  1  0  0  0  0
 67 68  1  0  0  0  0
 68 69  1  0  0  0  0
 69 70  2  0  0  0  0
M  END
>  <MODEL>
9

>  <REMARK>
 VINA RESULT:      -2.5      2.470      9.009
  Name = 
  32 active torsions:
  status: ('A' for Active; 'I' for Inactive)
    1  A    between atoms: C_1  and  O_49
    2  A    between atoms: C_3  and  C_51
    3  A    between atoms: C_4  and  N_22
    4  A    between atoms: C_4  and  C_41
    5  A    between atoms: C_7  and  C_51
    6  A    between atoms: C_7  and  S_58
    7  A    between atoms: C_8  and  O_34
    8  A    between atoms: O_9  and  C_63
    9  A    between atoms: O_9  and  C_70
   10  A    between atoms: C_10  and  C_47
   11  A    between atoms: C_11  and  C_26
   12  A    between atoms: C_11  and  C_42
   13  A    between atoms: C_15  and  C_41
   14  A    between atoms: O_19  and  C_24
   15  A    between atoms: O_19  and  C_60
   16  A    between atoms: N_22  and  C_46
   17  A    between atoms: N_22  and  C_69
   18  A    between atoms: C_23  and  C_37
   19  A    between atoms: C_23  and  S_58
   20  A    between atoms: C_26  and  C_60
   21  A    between atoms: C_27  and  C_69
   22  A    between atoms: C_28  and  C_40
   23  A    between atoms: C_29  and  C_47
   24  A    between atoms: C_30  and  O_49
   25  A    between atoms: C_30  and  C_65
   26  A    between atoms: C_31  and  C_63
   27  A    between atoms: C_33  and  C_61
   28  A    between atoms: O_34  and  C_68
   29  A    between atoms: C_37  and  C_69
   30  A    between atoms: C_40  and  C_55
   31  A    between atoms: C_46  and  C_70
   32  A    between atoms: C_50  and  C_55
                            x       y       z     vdW  Elec       q    Type
                         _______ _______ _______ _____ _____    ______ ____

>  <TORSDO>
F 32

$$$$
