=
 OpenBabel11042417533D

 55 61  0  0  1  0  0  0  0  0999 V2000
  190.0750  177.9560  142.8140 C   0  0  0  0  0  3  0  0  0  0  0  0
  190.1210  175.5520  143.1780 C   0  0  0  0  0  0  0  0  0  0  0  0
  191.2470  178.0980  143.5600 C   0  0  0  0  0  3  0  0  0  0  0  0
  191.8590  176.9730  144.1170 C   0  0  0  0  0  0  0  0  0  0  0  0
  189.5020  176.6950  142.6260 C   0  0  0  0  0  0  0  0  0  0  0  0
  191.3050  175.7050  143.9170 C   0  0  0  0  0  3  0  0  0  0  0  0
  189.5410  174.1850  142.9590 C   0  0  2  0  0  3  0  0  0  0  0  0
  189.7170  173.2990  144.1830 C   0  0  0  0  0  1  0  0  0  0  0  0
  189.4900  173.3880  140.7370 O   0  0  0  0  0  0  0  0  0  0  0  0
  190.1480  173.5460  141.7510 C   0  0  0  0  0  3  0  0  0  0  0  0
  193.1160  177.1130  144.9050 C   0  0  0  0  0  2  0  0  0  0  0  0
  196.8900  171.8540  143.8710 C   0  0  0  0  0  3  0  0  0  0  0  0
  197.2490  174.3850  141.1880 C   0  0  0  0  0  0  0  0  0  0  0  0
  196.1950  171.6650  145.0750 C   0  0  0  0  0  0  0  0  0  0  0  0
  197.4100  173.2060  141.9320 C   0  0  0  0  0  3  0  0  0  0  0  0
  193.6320  174.7720  146.3900 O   0  0  0  0  0  0  0  0  0  0  0  0
  195.8470  174.0340  143.6000 C   0  0  0  0  0  0  0  0  0  0  0  0
  195.3320  172.6660  145.5370 C   0  0  0  0  0  3  0  0  0  0  0  0
  196.7190  173.0260  143.1330 C   0  0  0  0  0  0  0  0  0  0  0  0
  195.6810  175.2120  142.8490 C   0  0  0  0  0  0  0  0  0  0  0  0
  196.3840  175.3820  141.6530 C   0  0  0  0  0  3  0  0  0  0  0  0
  194.2520  174.9100  145.3010 C   0  0  0  0  0  0  0  0  0  0  0  0
  195.1550  173.8520  144.8120 C   0  0  0  0  0  0  0  0  0  0  0  0
  194.0880  176.0990  144.5140 N   0  0  0  0  0  0  0  0  0  0  0  0
  194.7850  176.2330  143.3000 N   0  0  0  0  0  2  0  0  0  0  0  0
  195.3920  169.8960  146.4330 O   0  0  0  0  0  1  0  0  0  0  0  0
  196.3730  170.4300  145.8530 C   0  0  0  0  0  0  0  0  0  0  0  0
  197.6280  169.8360  145.9480 O   0  0  0  0  0  0  0  0  0  0  0  0
  197.9410  174.5950  139.9920 O   0  0  0  0  0  0  0  0  0  0  0  0
  197.4900  174.0830  138.7460 C   0  0  0  0  0  2  0  0  0  0  0  0
  197.0950  175.2330  137.8400 C   0  0  0  0  0  2  0  0  0  0  0  0
  195.8050  175.0310  137.3420 O   0  0  0  0  0  0  0  0  0  0  0  0
  195.1870  174.2520  138.2650 N   0  0  0  0  0  0  0  0  0  0  0  0
  193.3060  174.3390  139.7760 C   0  0  0  0  0  1  0  0  0  0  0  0
  193.8630  174.7930  138.4420 C   0  0  2  0  0  3  0  0  0  0  0  0
  194.0700  173.7100  137.6480 O   0  0  0  0  0  0  0  0  0  0  0  0
  188.2660  176.5900  141.7970 C   0  0  0  0  0  2  0  0  0  0  0  0
  187.6270  177.8580  141.7340 O   0  0  0  0  0  0  0  0  0  0  0  0
  186.3270  178.0300  141.2470 C   0  0  0  0  0  0  0  0  0  0  0  0
  186.1220  177.8890  140.0130 O   0  0  0  0  0  0  0  0  0  0  0  0
  185.1980  178.4170  142.1190 C   0  0  0  0  0  0  0  0  0  0  0  0
  184.1050  177.8040  142.0070 O   0  0  0  0  0  0  0  0  0  0  0  0
  185.3070  179.4250  143.0820 O   0  0  0  0  0  0  0  0  0  0  0  0
  186.0150  179.2670  144.3080 C   0  0  0  0  0  2  0  0  0  0  0  0
  185.1450  178.5860  145.3720 C   0  0  2  0  0  0  0  0  0  0  0  0
  185.4710  177.1080  145.5920 C   0  0  2  0  0  3  0  0  0  0  0  0
  187.1730  177.8150  147.7550 C   0  0  0  0  0  2  0  0  0  0  0  0
  183.7980  178.7040  145.0300 O   0  0  0  0  0  1  0  0  0  0  0  0
  187.7570  175.5630  147.2770 F   0  0  0  0  0  0  0  0  0  0  0  0
  187.7650  176.8330  146.7270 C   0  0  2  0  0  0  0  0  0  0  0  0
  189.1990  177.2270  146.4390 C   0  0  0  0  0  1  0  0  0  0  0  0
  185.1240  176.8520  146.9320 O   0  0  0  0  0  0  0  0  0  0  0  0
  185.6460  177.9690  147.6140 C   0  0  2  0  0  3  0  0  0  0  0  0
  185.3670  179.1820  146.7400 C   0  0  0  0  0  2  0  0  0  0  0  0
  186.9780  176.7980  145.4040 C   0  0  0  0  0  2  0  0  0  0  0  0
  1  3  1  0  0  0  0
  2  6  2  0  0  0  0
  3  4  2  0  0  0  0
  4 11  1  0  0  0  0
  5  1  2  0  0  0  0
  5  2  1  0  0  0  0
  6  4  1  0  0  0  0
  7  2  1  0  0  0  0
  7  8  1  1  0  0  0
  9 10  2  0  0  0  0
 10  7  1  0  0  0  0
 12 14  1  0  0  0  0
 13 21  1  0  0  0  0
 13 15  2  0  0  0  0
 14 18  2  0  0  0  0
 14 27  1  0  0  0  0
 15 19  1  0  0  0  0
 17 23  2  0  0  0  0
 19 17  1  0  0  0  0
 19 12  2  0  0  0  0
 20 25  1  0  0  0  0
 20 17  1  0  0  0  0
 21 20  2  0  0  0  0
 22 16  2  0  0  0  0
 23 22  1  0  0  0  0
 23 18  1  0  0  0  0
 24 11  1  0  0  0  0
 24 22  1  0  0  0  0
 25 24  1  0  0  0  0
 27 28  2  0  0  0  0
 27 26  1  0  0  0  0
 29 13  1  0  0  0  0
 30 29  1  0  0  0  0
 31 30  1  0  0  0  0
 32 31  1  0  0  0  0
 32 33  1  0  0  0  0
 33 35  1  0  0  0  0
 35 34  1  1  0  0  0
 36 33  1  0  0  0  0
 36 35  1  0  0  0  0
 37  5  1  0  0  0  0
 38 37  1  0  0  0  0
 39 38  1  0  0  0  0
 39 41  1  0  0  0  0
 40 39  2  0  0  0  0
 41 43  1  0  0  0  0
 42 41  2  0  0  0  0
 43 44  1  0  0  0  0
 44 45  1  0  0  0  0
 45 48  1  6  0  0  0
 45 46  1  0  0  0  0
 45 54  1  0  0  0  0
 46 55  1  1  0  0  0
 46 52  1  0  0  0  0
 50 51  1  6  0  0  0
 50 49  1  0  0  0  0
 50 47  1  0  0  0  0
 52 53  1  0  0  0  0
 53 54  1  6  0  0  0
 53 47  1  0  0  0  0
 55 50  1  0  0  0  0
M  END
>  <MODEL>
1

>  <REMARK>
 VINA RESULT:      -7.7      0.000      0.000
  Name = 
  17 active torsions:
  status: ('A' for Active; 'I' for Inactive)
    1  A    between atoms: C_2  and  C_8
    2  A    between atoms: C_2  and  O_48
    3  A    between atoms: O_3  and  C_4
    4  A    between atoms: O_3  and  C_8
    5  A    between atoms: C_4  and  C_7
    6  A    between atoms: C_5  and  C_16
    7  A    between atoms: C_5  and  C_47
    8  A    between atoms: C_6  and  C_22
    9  A    between atoms: C_6  and  N_52
   10  A    between atoms: N_10  and  O_28
   11  A    between atoms: C_11  and  O_36
   12  A    between atoms: C_12  and  C_39
   13  A    between atoms: O_28  and  C_34
   14  A    between atoms: C_34  and  C_44
   15  A    between atoms: O_36  and  C_44
   16  A    between atoms: C_43  and  O_48
   17  A    between atoms: C_43  and  C_49
                            x       y       z     vdW  Elec       q    Type
                         _______ _______ _______ _____ _____    ______ ____

>  <TORSDO>
F 17

$$$$
=
 OpenBabel11042417533D

 55 61  0  0  1  0  0  0  0  0999 V2000
  191.2140  173.1810  138.5850 C   0  0  0  0  0  3  0  0  0  0  0  0
  192.7530  171.7850  139.8500 C   0  0  0  0  0  0  0  0  0  0  0  0
  190.2160  172.9500  139.5340 C   0  0  0  0  0  3  0  0  0  0  0  0
  190.4790  172.1390  140.6400 C   0  0  0  0  0  0  0  0  0  0  0  0
  192.4770  172.5980  138.7290 C   0  0  0  0  0  0  0  0  0  0  0  0
  191.7450  171.5700  140.8030 C   0  0  0  0  0  3  0  0  0  0  0  0
  194.1120  171.1780  140.0410 C   0  0  2  0  0  3  0  0  0  0  0  0
  194.1720  169.7570  139.5040 C   0  0  0  0  0  1  0  0  0  0  0  0
  194.7650  170.1870  142.0820 O   0  0  0  0  0  0  0  0  0  0  0  0
  194.5050  171.2170  141.4840 C   0  0  0  0  0  3  0  0  0  0  0  0
  189.4230  171.8970  141.6630 C   0  0  0  0  0  2  0  0  0  0  0  0
  189.4610  176.8980  145.9000 C   0  0  0  0  0  3  0  0  0  0  0  0
  187.3490  177.5910  142.9340 C   0  0  0  0  0  0  0  0  0  0  0  0
  190.2630  175.8740  146.4230 C   0  0  0  0  0  0  0  0  0  0  0  0
  188.0130  177.7560  144.1600 C   0  0  0  0  0  3  0  0  0  0  0  0
  190.5870  172.2810  144.2020 O   0  0  0  0  0  0  0  0  0  0  0  0
  188.9500  175.5210  143.9620 C   0  0  0  0  0  0  0  0  0  0  0  0
  190.4020  174.6750  145.7130 C   0  0  0  0  0  3  0  0  0  0  0  0
  188.8080  176.7300  144.6770 C   0  0  0  0  0  0  0  0  0  0  0  0
  188.2890  175.3600  142.7300 C   0  0  0  0  0  0  0  0  0  0  0  0
  187.4910  176.3910  142.2270 C   0  0  0  0  0  3  0  0  0  0  0  0
  189.8870  173.2240  143.7420 C   0  0  0  0  0  0  0  0  0  0  0  0
  189.7480  174.4880  144.4880 C   0  0  0  0  0  0  0  0  0  0  0  0
  189.2140  173.0840  142.4820 N   0  0  0  0  0  0  0  0  0  0  0  0
  188.4400  174.1480  141.9840 N   0  0  0  0  0  2  0  0  0  0  0  0
  191.3020  175.0490  148.3880 O   0  0  0  0  0  1  0  0  0  0  0  0
  190.9520  176.0500  147.7110 C   0  0  0  0  0  0  0  0  0  0  0  0
  191.2300  177.3280  148.1880 O   0  0  0  0  0  0  0  0  0  0  0  0
  186.5350  178.5960  142.4030 O   0  0  0  0  0  0  0  0  0  0  0  0
  185.3080  178.3190  141.7440 C   0  0  0  0  0  2  0  0  0  0  0  0
  184.2030  178.1750  142.7730 C   0  0  0  0  0  2  0  0  0  0  0  0
  184.4380  179.0300  143.8530 O   0  0  0  0  0  0  0  0  0  0  0  0
  184.4440  178.2280  144.9470 N   0  0  0  0  0  0  0  0  0  0  0  0
  185.5670  178.0360  147.0750 C   0  0  0  0  0  1  0  0  0  0  0  0
  185.0540  178.9850  146.0110 C   0  0  2  0  0  3  0  0  0  0  0  0
  183.7030  178.8760  145.9220 O   0  0  0  0  0  0  0  0  0  0  0  0
  193.5210  172.8980  137.7050 C   0  0  0  0  0  2  0  0  0  0  0  0
  193.7970  174.2920  137.7020 O   0  0  0  0  0  0  0  0  0  0  0  0
  195.0620  174.8160  137.9900 C   0  0  0  0  0  0  0  0  0  0  0  0
  195.7440  175.2970  137.0470 O   0  0  0  0  0  0  0  0  0  0  0  0
  195.6440  174.7830  139.3480 C   0  0  0  0  0  0  0  0  0  0  0  0
  196.8920  174.8810  139.4780 O   0  0  0  0  0  0  0  0  0  0  0  0
  194.8560  174.6700  140.4980 O   0  0  0  0  0  0  0  0  0  0  0  0
  195.3850  174.7120  141.8200 C   0  0  0  0  0  2  0  0  0  0  0  0
  194.6760  175.7730  142.6710 C   0  0  2  0  0  0  0  0  0  0  0  0
  193.5150  175.2310  143.5040 C   0  0  2  0  0  3  0  0  0  0  0  0
  195.2580  174.9300  145.7270 C   0  0  0  0  0  2  0  0  0  0  0  0
  194.2050  176.8010  141.8540 O   0  0  0  0  0  1  0  0  0  0  0  0
  193.3420  173.6590  146.3250 F   0  0  0  0  0  0  0  0  0  0  0  0
  194.3710  173.7150  145.4000 C   0  0  2  0  0  0  0  0  0  0  0  0
  195.1990  172.4530  145.5210 C   0  0  0  0  0  1  0  0  0  0  0  0
  193.4450  176.0740  144.6290 O   0  0  0  0  0  0  0  0  0  0  0  0
  194.7950  176.2110  145.0060 C   0  0  2  0  0  3  0  0  0  0  0  0
  195.5950  176.3520  143.7210 C   0  0  0  0  0  2  0  0  0  0  0  0
  193.7570  173.7800  143.9880 C   0  0  0  0  0  2  0  0  0  0  0  0
  1  5  2  0  0  0  0
  1  3  1  0  0  0  0
  2  7  1  0  0  0  0
  2  6  2  0  0  0  0
  3  4  2  0  0  0  0
  4  6  1  0  0  0  0
  4 11  1  0  0  0  0
  5  2  1  0  0  0  0
  7  8  1  1  0  0  0
  7 10  1  0  0  0  0
 10  9  2  0  0  0  0
 11 24  1  0  0  0  0
 12 14  1  0  0  0  0
 13 15  2  0  0  0  0
 14 27  1  0  0  0  0
 15 19  1  0  0  0  0
 17 23  2  0  0  0  0
 17 19  1  0  0  0  0
 18 14  2  0  0  0  0
 19 12  2  0  0  0  0
 20 17  1  0  0  0  0
 21 20  2  0  0  0  0
 21 13  1  0  0  0  0
 22 16  2  0  0  0  0
 22 23  1  0  0  0  0
 23 18  1  0  0  0  0
 24 22  1  0  0  0  0
 25 24  1  0  0  0  0
 25 20  1  0  0  0  0
 27 28  2  0  0  0  0
 27 26  1  0  0  0  0
 29 13  1  0  0  0  0
 30 29  1  0  0  0  0
 30 31  1  0  0  0  0
 31 32  1  0  0  0  0
 32 33  1  0  0  0  0
 33 36  1  0  0  0  0
 33 35  1  0  0  0  0
 35 34  1  1  0  0  0
 36 35  1  0  0  0  0
 37  5  1  0  0  0  0
 38 37  1  0  0  0  0
 38 39  1  0  0  0  0
 39 41  1  0  0  0  0
 40 39  2  0  0  0  0
 41 42  2  0  0  0  0
 41 43  1  0  0  0  0
 43 44  1  0  0  0  0
 44 45  1  0  0  0  0
 45 48  1  6  0  0  0
 45 46  1  0  0  0  0
 45 54  1  0  0  0  0
 46 55  1  1  0  0  0
 46 52  1  0  0  0  0
 50 51  1  1  0  0  0
 50 47  1  0  0  0  0
 50 49  1  0  0  0  0
 52 53  1  0  0  0  0
 53 54  1  6  0  0  0
 53 47  1  0  0  0  0
 55 50  1  0  0  0  0
M  END
>  <MODEL>
2

>  <REMARK>
 VINA RESULT:      -7.4      2.878      9.127
  Name = 
  17 active torsions:
  status: ('A' for Active; 'I' for Inactive)
    1  A    between atoms: C_2  and  C_8
    2  A    between atoms: C_2  and  O_48
    3  A    between atoms: O_3  and  C_4
    4  A    between atoms: O_3  and  C_8
    5  A    between atoms: C_4  and  C_7
    6  A    between atoms: C_5  and  C_16
    7  A    between atoms: C_5  and  C_47
    8  A    between atoms: C_6  and  C_22
    9  A    between atoms: C_6  and  N_52
   10  A    between atoms: N_10  and  O_28
   11  A    between atoms: C_11  and  O_36
   12  A    between atoms: C_12  and  C_39
   13  A    between atoms: O_28  and  C_34
   14  A    between atoms: C_34  and  C_44
   15  A    between atoms: O_36  and  C_44
   16  A    between atoms: C_43  and  O_48
   17  A    between atoms: C_43  and  C_49
                            x       y       z     vdW  Elec       q    Type
                         _______ _______ _______ _____ _____    ______ ____

>  <TORSDO>
F 17

$$$$
=
 OpenBabel11042417533D

 55 61  0  0  1  0  0  0  0  0999 V2000
  192.7840  171.9170  140.2180 C   0  0  0  0  0  3  0  0  0  0  0  0
  190.9620  172.3130  138.6570 C   0  0  0  0  0  0  0  0  0  0  0  0
  191.8710  171.8200  141.2690 C   0  0  0  0  0  3  0  0  0  0  0  0
  190.5040  171.9680  141.0220 C   0  0  0  0  0  0  0  0  0  0  0  0
  192.3420  172.1710  138.9160 C   0  0  0  0  0  0  0  0  0  0  0  0
  190.0520  172.2020  139.7200 C   0  0  0  0  0  3  0  0  0  0  0  0
  190.4640  172.5520  137.2610 C   0  0  2  0  0  3  0  0  0  0  0  0
  189.5030  173.7290  137.2030 C   0  0  0  0  0  1  0  0  0  0  0  0
  190.3970  170.6360  135.8820 O   0  0  0  0  0  0  0  0  0  0  0  0
  189.8220  171.3160  136.7150 C   0  0  0  0  0  3  0  0  0  0  0  0
  189.5220  171.8550  142.1360 C   0  0  0  0  0  2  0  0  0  0  0  0
  190.0000  177.2940  145.7650 C   0  0  0  0  0  3  0  0  0  0  0  0
  187.4910  177.6320  143.0580 C   0  0  0  0  0  0  0  0  0  0  0  0
  190.8920  176.3430  146.2810 C   0  0  0  0  0  0  0  0  0  0  0  0
  188.3110  177.9390  144.1560 C   0  0  0  0  0  3  0  0  0  0  0  0
  191.0070  172.5300  144.4360 O   0  0  0  0  0  0  0  0  0  0  0  0
  189.2690  175.7060  144.0740 C   0  0  0  0  0  0  0  0  0  0  0  0
  190.9650  175.0740  145.6920 C   0  0  0  0  0  3  0  0  0  0  0  0
  189.1940  176.9840  144.6680 C   0  0  0  0  0  0  0  0  0  0  0  0
  188.4530  175.4030  142.9690 C   0  0  0  0  0  0  0  0  0  0  0  0
  187.5690  176.3640  142.4710 C   0  0  0  0  0  3  0  0  0  0  0  0
  190.2270  173.4090  143.9780 C   0  0  0  0  0  0  0  0  0  0  0  0
  190.1570  174.7460  144.5950 C   0  0  0  0  0  0  0  0  0  0  0  0
  189.3940  173.1240  142.8440 N   0  0  0  0  0  0  0  0  0  0  0  0
  188.5340  174.1180  142.3450 N   0  0  0  0  0  2  0  0  0  0  0  0
  191.2250  176.9760  148.5410 O   0  0  0  0  0  1  0  0  0  0  0  0
  191.7430  176.6670  147.4360 C   0  0  0  0  0  0  0  0  0  0  0  0
  193.1290  176.6260  147.3190 O   0  0  0  0  0  0  0  0  0  0  0  0
  186.5890  178.5640  142.5370 O   0  0  0  0  0  0  0  0  0  0  0  0
  185.2960  178.7680  143.0890 C   0  0  0  0  0  2  0  0  0  0  0  0
  185.3740  179.8100  144.1890 C   0  0  0  0  0  2  0  0  0  0  0  0
  184.6090  179.4060  145.2870 O   0  0  0  0  0  0  0  0  0  0  0  0
  184.9630  178.1170  145.5120 N   0  0  0  0  0  0  0  0  0  0  0  0
  186.3510  176.8310  147.0120 C   0  0  0  0  0  1  0  0  0  0  0  0
  185.4770  178.0590  146.8580 C   0  0  2  0  0  3  0  0  0  0  0  0
  184.2030  177.6740  146.5830 O   0  0  0  0  0  0  0  0  0  0  0  0
  193.3540  172.2370  137.8200 C   0  0  0  0  0  2  0  0  0  0  0  0
  194.5870  172.7150  138.3400 O   0  0  0  0  0  0  0  0  0  0  0  0
  194.9260  174.0720  138.3660 C   0  0  0  0  0  0  0  0  0  0  0  0
  194.1030  174.9070  137.9060 O   0  0  0  0  0  0  0  0  0  0  0  0
  196.2280  174.5550  138.8690 C   0  0  0  0  0  0  0  0  0  0  0  0
  197.2250  174.5310  138.1010 O   0  0  0  0  0  0  0  0  0  0  0  0
  196.3910  175.0600  140.1640 O   0  0  0  0  0  0  0  0  0  0  0  0
  195.7070  174.5400  141.3010 C   0  0  0  0  0  2  0  0  0  0  0  0
  195.0200  175.6570  142.0970 C   0  0  2  0  0  0  0  0  0  0  0  0
  193.8910  175.1720  143.0060 C   0  0  2  0  0  3  0  0  0  0  0  0
  195.7100  175.0390  145.1840 C   0  0  0  0  0  2  0  0  0  0  0  0
  194.5160  176.6210  141.2250 O   0  0  0  0  0  1  0  0  0  0  0  0
  193.8230  173.8060  145.9360 F   0  0  0  0  0  0  0  0  0  0  0  0
  194.8190  173.7990  144.9750 C   0  0  2  0  0  0  0  0  0  0  0  0
  195.6590  172.5520  145.1580 C   0  0  0  0  0  1  0  0  0  0  0  0
  193.8530  176.0940  144.0690 O   0  0  0  0  0  0  0  0  0  0  0  0
  195.2150  176.2630  144.3900 C   0  0  2  0  0  3  0  0  0  0  0  0
  195.9700  176.3130  143.0710 C   0  0  0  0  0  2  0  0  0  0  0  0
  194.1580  173.7600  143.5850 C   0  0  0  0  0  2  0  0  0  0  0  0
  1  3  1  0  0  0  0
  2  5  1  0  0  0  0
  2  6  2  0  0  0  0
  4  3  2  0  0  0  0
  4 11  1  0  0  0  0
  5  1  2  0  0  0  0
  6  4  1  0  0  0  0
  7  8  1  1  0  0  0
  7  2  1  0  0  0  0
  9 10  2  0  0  0  0
 10  7  1  0  0  0  0
 11 24  1  0  0  0  0
 12 14  1  0  0  0  0
 13 15  2  0  0  0  0
 14 27  1  0  0  0  0
 15 19  1  0  0  0  0
 17 23  2  0  0  0  0
 17 19  1  0  0  0  0
 18 14  2  0  0  0  0
 19 12  2  0  0  0  0
 20 17  1  0  0  0  0
 21 20  2  0  0  0  0
 21 13  1  0  0  0  0
 22 16  2  0  0  0  0
 22 23  1  0  0  0  0
 23 18  1  0  0  0  0
 24 22  1  0  0  0  0
 25 24  1  0  0  0  0
 25 20  1  0  0  0  0
 27 26  1  0  0  0  0
 28 27  2  0  0  0  0
 29 13  1  0  0  0  0
 29 30  1  0  0  0  0
 30 31  1  0  0  0  0
 31 32  1  0  0  0  0
 32 33  1  0  0  0  0
 33 36  1  0  0  0  0
 33 35  1  0  0  0  0
 35 34  1  6  0  0  0
 36 35  1  0  0  0  0
 37 38  1  0  0  0  0
 37  5  1  0  0  0  0
 38 39  1  0  0  0  0
 39 41  1  0  0  0  0
 40 39  2  0  0  0  0
 41 43  1  0  0  0  0
 42 41  2  0  0  0  0
 43 44  1  0  0  0  0
 44 45  1  0  0  0  0
 45 48  1  6  0  0  0
 45 46  1  0  0  0  0
 45 54  1  0  0  0  0
 46 55  1  1  0  0  0
 46 52  1  0  0  0  0
 50 51  1  1  0  0  0
 50 47  1  0  0  0  0
 50 49  1  0  0  0  0
 52 53  1  0  0  0  0
 53 54  1  6  0  0  0
 53 47  1  0  0  0  0
 55 50  1  0  0  0  0
M  END
>  <MODEL>
3

>  <REMARK>
 VINA RESULT:      -7.3      2.955      9.239
  Name = 
  17 active torsions:
  status: ('A' for Active; 'I' for Inactive)
    1  A    between atoms: C_2  and  C_8
    2  A    between atoms: C_2  and  O_48
    3  A    between atoms: O_3  and  C_4
    4  A    between atoms: O_3  and  C_8
    5  A    between atoms: C_4  and  C_7
    6  A    between atoms: C_5  and  C_16
    7  A    between atoms: C_5  and  C_47
    8  A    between atoms: C_6  and  C_22
    9  A    between atoms: C_6  and  N_52
   10  A    between atoms: N_10  and  O_28
   11  A    between atoms: C_11  and  O_36
   12  A    between atoms: C_12  and  C_39
   13  A    between atoms: O_28  and  C_34
   14  A    between atoms: C_34  and  C_44
   15  A    between atoms: O_36  and  C_44
   16  A    between atoms: C_43  and  O_48
   17  A    between atoms: C_43  and  C_49
                            x       y       z     vdW  Elec       q    Type
                         _______ _______ _______ _____ _____    ______ ____

>  <TORSDO>
F 17

$$$$
=
 OpenBabel11042417533D

 55 61  0  0  1  0  0  0  0  0999 V2000
  193.3380  173.4430  145.7010 C   0  0  0  0  0  3  0  0  0  0  0  0
  194.6600  174.7950  144.1710 C   0  0  0  0  0  0  0  0  0  0  0  0
  192.6070  174.5720  146.0760 C   0  0  0  0  0  3  0  0  0  0  0  0
  192.8960  175.8120  145.5040 C   0  0  0  0  0  0  0  0  0  0  0  0
  194.3680  173.5460  144.7610 C   0  0  0  0  0  0  0  0  0  0  0  0
  193.9100  175.9210  144.5470 C   0  0  0  0  0  3  0  0  0  0  0  0
  195.7380  174.9200  143.1340 C   0  0  2  0  0  3  0  0  0  0  0  0
  197.0310  175.4510  143.7320 C   0  0  0  0  0  1  0  0  0  0  0  0
  195.9070  176.7900  141.7010 O   0  0  0  0  0  0  0  0  0  0  0  0
  195.2800  175.7890  142.0050 C   0  0  0  0  0  3  0  0  0  0  0  0
  192.1140  177.0200  145.8910 C   0  0  0  0  0  2  0  0  0  0  0  0
  185.7770  177.4930  144.2810 C   0  0  0  0  0  3  0  0  0  0  0  0
  187.8430  176.2200  141.4790 C   0  0  0  0  0  0  0  0  0  0  0  0
  185.9220  177.9030  145.6140 C   0  0  0  0  0  0  0  0  0  0  0  0
  186.7340  176.6600  142.2200 C   0  0  0  0  0  3  0  0  0  0  0  0
  189.7950  177.7410  147.3250 O   0  0  0  0  0  0  0  0  0  0  0  0
  188.1620  177.0330  144.1520 C   0  0  0  0  0  0  0  0  0  0  0  0
  187.1890  177.8720  146.2110 C   0  0  0  0  0  3  0  0  0  0  0  0
  186.8850  177.0630  143.5490 C   0  0  0  0  0  0  0  0  0  0  0  0
  189.2730  176.5990  143.4060 C   0  0  0  0  0  0  0  0  0  0  0  0
  189.1070  176.1920  142.0800 C   0  0  0  0  0  3  0  0  0  0  0  0
  189.6430  177.3970  146.1210 C   0  0  0  0  0  0  0  0  0  0  0  0
  188.3100  177.4370  145.4920 C   0  0  0  0  0  0  0  0  0  0  0  0
  190.7650  176.9600  145.3400 N   0  0  0  0  0  0  0  0  0  0  0  0
  190.5760  176.5830  143.9980 N   0  0  0  0  0  2  0  0  0  0  0  0
  184.7560  178.2840  147.6420 O   0  0  0  0  0  1  0  0  0  0  0  0
  184.7560  178.3580  146.3860 C   0  0  0  0  0  0  0  0  0  0  0  0
  183.6440  178.8820  145.7330 O   0  0  0  0  0  0  0  0  0  0  0  0
  187.7150  175.7970  140.1530 O   0  0  0  0  0  0  0  0  0  0  0  0
  188.2030  174.5420  139.7000 C   0  0  0  0  0  2  0  0  0  0  0  0
  188.1030  174.4780  138.1870 C   0  0  0  0  0  2  0  0  0  0  0  0
  188.6880  173.2980  137.7170 O   0  0  0  0  0  0  0  0  0  0  0  0
  189.9900  173.6080  137.5030 N   0  0  0  0  0  0  0  0  0  0  0  0
  191.9010  172.7670  136.2910 C   0  0  0  0  0  1  0  0  0  0  0  0
  190.3920  172.9040  136.3120 C   0  0  2  0  0  3  0  0  0  0  0  0
  190.0570  174.2200  136.2610 O   0  0  0  0  0  0  0  0  0  0  0  0
  195.1020  172.3070  144.3690 C   0  0  0  0  0  2  0  0  0  0  0  0
  195.1720  171.4250  145.4820 O   0  0  0  0  0  0  0  0  0  0  0  0
  194.8490  170.0660  145.3960 C   0  0  0  0  0  0  0  0  0  0  0  0
  194.6460  169.4270  146.4610 O   0  0  0  0  0  0  0  0  0  0  0  0
  194.7830  169.3470  144.1070 C   0  0  0  0  0  0  0  0  0  0  0  0
  195.8560  169.0400  143.5250 O   0  0  0  0  0  0  0  0  0  0  0  0
  193.5700  168.9750  143.5190 O   0  0  0  0  0  0  0  0  0  0  0  0
  192.4150  169.8090  143.5040 C   0  0  0  0  0  2  0  0  0  0  0  0
  192.1440  170.3630  142.1000 C   0  0  2  0  0  0  0  0  0  0  0  0
  190.6730  170.6760  141.8260 C   0  0  2  0  0  3  0  0  0  0  0  0
  191.1190  173.3830  142.5680 C   0  0  0  0  0  2  0  0  0  0  0  0
  192.6010  169.4630  141.1380 O   0  0  0  0  0  1  0  0  0  0  0  0
  188.7530  173.1690  142.5720 F   0  0  0  0  0  0  0  0  0  0  0  0
  189.8920  172.7040  143.2060 C   0  0  2  0  0  0  0  0  0  0  0  0
  189.8210  173.0880  144.6700 C   0  0  0  0  0  1  0  0  0  0  0  0
  190.6900  171.7190  140.8800 O   0  0  0  0  0  0  0  0  0  0  0  0
  191.6840  172.5830  141.3790 C   0  0  2  0  0  3  0  0  0  0  0  0
  192.8120  171.7000  141.8890 C   0  0  0  0  0  2  0  0  0  0  0  0
  189.9240  171.1680  143.0900 C   0  0  0  0  0  2  0  0  0  0  0  0
  1  3  1  0  0  0  0
  2  6  2  0  0  0  0
  2  5  1  0  0  0  0
  4 11  1  0  0  0  0
  4  3  2  0  0  0  0
  5  1  2  0  0  0  0
  6  4  1  0  0  0  0
  7  8  1  1  0  0  0
  7  2  1  0  0  0  0
  9 10  2  0  0  0  0
 10  7  1  0  0  0  0
 12 14  1  0  0  0  0
 13 21  1  0  0  0  0
 13 15  2  0  0  0  0
 14 18  2  0  0  0  0
 14 27  1  0  0  0  0
 15 19  1  0  0  0  0
 17 23  2  0  0  0  0
 19 17  1  0  0  0  0
 19 12  2  0  0  0  0
 20 25  1  0  0  0  0
 20 17  1  0  0  0  0
 21 20  2  0  0  0  0
 22 16  2  0  0  0  0
 23 22  1  0  0  0  0
 23 18  1  0  0  0  0
 24 11  1  0  0  0  0
 24 22  1  0  0  0  0
 25 24  1  0  0  0  0
 27 26  1  0  0  0  0
 28 27  2  0  0  0  0
 29 13  1  0  0  0  0
 30 29  1  0  0  0  0
 31 30  1  0  0  0  0
 32 31  1  0  0  0  0
 33 32  1  0  0  0  0
 35 34  1  1  0  0  0
 35 33  1  0  0  0  0
 36 35  1  0  0  0  0
 36 33  1  0  0  0  0
 37  5  1  0  0  0  0
 37 38  1  0  0  0  0
 39 38  1  0  0  0  0
 39 40  2  0  0  0  0
 41 39  1  0  0  0  0
 42 41  2  0  0  0  0
 43 41  1  0  0  0  0
 44 43  1  0  0  0  0
 45 48  1  6  0  0  0
 45 44  1  0  0  0  0
 46 45  1  0  0  0  0
 46 55  1  1  0  0  0
 47 50  1  0  0  0  0
 49 50  1  0  0  0  0
 50 51  1  1  0  0  0
 52 53  1  0  0  0  0
 52 46  1  0  0  0  0
 53 54  1  1  0  0  0
 53 47  1  0  0  0  0
 54 45  1  0  0  0  0
 55 50  1  0  0  0  0
M  END
>  <MODEL>
4

>  <REMARK>
 VINA RESULT:      -7.1      2.639      9.108
  Name = 
  17 active torsions:
  status: ('A' for Active; 'I' for Inactive)
    1  A    between atoms: C_2  and  C_8
    2  A    between atoms: C_2  and  O_48
    3  A    between atoms: O_3  and  C_4
    4  A    between atoms: O_3  and  C_8
    5  A    between atoms: C_4  and  C_7
    6  A    between atoms: C_5  and  C_16
    7  A    between atoms: C_5  and  C_47
    8  A    between atoms: C_6  and  C_22
    9  A    between atoms: C_6  and  N_52
   10  A    between atoms: N_10  and  O_28
   11  A    between atoms: C_11  and  O_36
   12  A    between atoms: C_12  and  C_39
   13  A    between atoms: O_28  and  C_34
   14  A    between atoms: C_34  and  C_44
   15  A    between atoms: O_36  and  C_44
   16  A    between atoms: C_43  and  O_48
   17  A    between atoms: C_43  and  C_49
                            x       y       z     vdW  Elec       q    Type
                         _______ _______ _______ _____ _____    ______ ____

>  <TORSDO>
F 17

$$$$
=
 OpenBabel11042417533D

 55 61  0  0  1  0  0  0  0  0999 V2000
  189.2940  173.7030  145.9010 C   0  0  0  0  0  3  0  0  0  0  0  0
  191.2570  175.0680  145.4550 C   0  0  0  0  0  0  0  0  0  0  0  0
  189.8560  172.6480  145.1800 C   0  0  0  0  0  3  0  0  0  0  0  0
  191.1160  172.7960  144.5950 C   0  0  0  0  0  0  0  0  0  0  0  0
  189.9790  174.9150  146.0350 C   0  0  0  0  0  0  0  0  0  0  0  0
  191.8180  173.9960  144.7420 C   0  0  0  0  0  3  0  0  0  0  0  0
  192.0240  176.3480  145.6170 C   0  0  2  0  0  3  0  0  0  0  0  0
  192.5810  176.8390  144.2900 C   0  0  0  0  0  1  0  0  0  0  0  0
  194.1080  176.8930  146.5850 O   0  0  0  0  0  0  0  0  0  0  0  0
  193.1200  176.1780  146.6210 C   0  0  0  0  0  3  0  0  0  0  0  0
  191.7280  171.6710  143.8330 C   0  0  0  0  0  2  0  0  0  0  0  0
  192.1700  173.8710  137.6740 C   0  0  0  0  0  3  0  0  0  0  0  0
  195.4810  173.6560  139.3260 C   0  0  0  0  0  0  0  0  0  0  0  0
  190.8200  173.6110  137.9510 C   0  0  0  0  0  0  0  0  0  0  0  0
  194.4910  173.8990  138.3600 C   0  0  0  0  0  3  0  0  0  0  0  0
  189.8460  172.0540  141.7690 O   0  0  0  0  0  0  0  0  0  0  0  0
  192.7820  173.1240  139.9060 C   0  0  0  0  0  0  0  0  0  0  0  0
  190.4580  173.1040  139.2050 C   0  0  0  0  0  3  0  0  0  0  0  0
  193.1480  173.6330  138.6410 C   0  0  0  0  0  0  0  0  0  0  0  0
  193.7740  172.8880  140.8750 C   0  0  0  0  0  0  0  0  0  0  0  0
  195.1150  173.1510  140.5790 C   0  0  0  0  0  3  0  0  0  0  0  0
  191.0510  172.3140  141.5030 C   0  0  0  0  0  0  0  0  0  0  0  0
  191.4290  172.8550  140.1850 C   0  0  0  0  0  0  0  0  0  0  0  0
  192.0780  172.0920  142.4810 N   0  0  0  0  0  0  0  0  0  0  0  0
  193.4150  172.3910  142.1680 N   0  0  0  0  0  2  0  0  0  0  0  0
  190.0010  173.5720  135.7270 O   0  0  0  0  0  0  0  0  0  0  0  0
  189.7880  173.8610  136.9330 C   0  0  0  0  0  0  0  0  0  0  0  0
  188.5630  174.4120  137.2970 O   0  0  0  0  0  1  0  0  0  0  0  0
  196.8320  173.8980  139.0630 O   0  0  0  0  0  0  0  0  0  0  0  0
  197.3810  175.2070  139.0180 C   0  0  0  0  0  2  0  0  0  0  0  0
  196.9280  175.9880  140.2380 C   0  0  0  0  0  2  0  0  0  0  0  0
  197.5990  175.5310  141.3760 O   0  0  0  0  0  0  0  0  0  0  0  0
  196.7470  175.7590  142.4060 N   0  0  0  0  0  0  0  0  0  0  0  0
  195.6780  174.5540  144.2040 C   0  0  0  0  0  1  0  0  0  0  0  0
  196.9080  174.6620  143.3260 C   0  0  2  0  0  3  0  0  0  0  0  0
  197.5210  175.8530  143.5520 O   0  0  0  0  0  0  0  0  0  0  0  0
  189.3510  176.0030  146.8400 C   0  0  0  0  0  2  0  0  0  0  0  0
  187.9370  175.9320  146.7130 O   0  0  0  0  0  0  0  0  0  0  0  0
  187.1130  177.0620  146.7510 C   0  0  0  0  0  0  0  0  0  0  0  0
  187.5520  178.1090  147.2950 O   0  0  0  0  0  0  0  0  0  0  0  0
  185.7340  177.0570  146.2200 C   0  0  0  0  0  0  0  0  0  0  0  0
  184.8590  176.3680  146.8060 O   0  0  0  0  0  0  0  0  0  0  0  0
  185.3600  177.8070  145.1010 O   0  0  0  0  0  0  0  0  0  0  0  0
  185.4500  177.3230  143.7640 C   0  0  0  0  0  2  0  0  0  0  0  0
  186.4050  178.1800  142.9230 C   0  0  2  0  0  0  0  0  0  0  0  0
  187.8790  177.8010  143.0720 C   0  0  2  0  0  3  0  0  0  0  0  0
  187.6800  176.1530  140.7660 C   0  0  0  0  0  2  0  0  0  0  0  0
  186.2490  179.5260  143.2520 O   0  0  0  0  0  1  0  0  0  0  0  0
  189.7210  175.4800  141.7790 F   0  0  0  0  0  0  0  0  0  0  0  0
  188.3540  175.5130  141.9940 C   0  0  2  0  0  0  0  0  0  0  0  0
  187.8530  174.0910  142.1460 C   0  0  0  0  0  1  0  0  0  0  0  0
  188.4740  178.1550  141.8460 O   0  0  0  0  0  0  0  0  0  0  0  0
  187.5470  177.6830  140.8960 C   0  0  2  0  0  3  0  0  0  0  0  0
  186.1630  177.9970  141.4440 C   0  0  0  0  0  2  0  0  0  0  0  0
  188.0820  176.2830  143.3000 C   0  0  0  0  0  2  0  0  0  0  0  0
  1  5  1  0  0  0  0
  2  7  1  0  0  0  0
  2  5  2  0  0  0  0
  3  1  2  0  0  0  0
  4  6  2  0  0  0  0
  4  3  1  0  0  0  0
  5 37  1  0  0  0  0
  6  2  1  0  0  0  0
  7  8  1  6  0  0  0
  7 10  1  0  0  0  0
  9 10  2  0  0  0  0
 11  4  1  0  0  0  0
 12 14  2  0  0  0  0
 12 19  1  0  0  0  0
 13 21  1  0  0  0  0
 14 18  1  0  0  0  0
 15 19  1  0  0  0  0
 15 13  2  0  0  0  0
 17 23  1  0  0  0  0
 17 20  1  0  0  0  0
 18 23  2  0  0  0  0
 19 17  2  0  0  0  0
 20 25  1  0  0  0  0
 21 20  2  0  0  0  0
 22 16  2  0  0  0  0
 22 24  1  0  0  0  0
 23 22  1  0  0  0  0
 24 11  1  0  0  0  0
 25 24  1  0  0  0  0
 26 27  2  0  0  0  0
 27 28  1  0  0  0  0
 27 14  1  0  0  0  0
 29 13  1  0  0  0  0
 30 29  1  0  0  0  0
 30 31  1  0  0  0  0
 31 32  1  0  0  0  0
 32 33  1  0  0  0  0
 33 35  1  0  0  0  0
 33 36  1  0  0  0  0
 35 36  1  0  0  0  0
 35 34  1  1  0  0  0
 38 39  1  0  0  0  0
 38 37  1  0  0  0  0
 39 40  2  0  0  0  0
 41 39  1  0  0  0  0
 41 42  2  0  0  0  0
 43 41  1  0  0  0  0
 44 43  1  0  0  0  0
 45 46  1  0  0  0  0
 45 48  1  1  0  0  0
 45 44  1  0  0  0  0
 46 55  1  6  0  0  0
 47 50  1  0  0  0  0
 49 50  1  0  0  0  0
 50 51  1  1  0  0  0
 50 55  1  0  0  0  0
 52 46  1  0  0  0  0
 53 47  1  1  0  0  0
 53 54  1  0  0  0  0
 53 52  1  0  0  0  0
 54 45  1  0  0  0  0
M  END
>  <MODEL>
5

>  <REMARK>
 VINA RESULT:      -7.1      2.455      5.848
  Name = 
  17 active torsions:
  status: ('A' for Active; 'I' for Inactive)
    1  A    between atoms: C_2  and  C_8
    2  A    between atoms: C_2  and  O_48
    3  A    between atoms: O_3  and  C_4
    4  A    between atoms: O_3  and  C_8
    5  A    between atoms: C_4  and  C_7
    6  A    between atoms: C_5  and  C_16
    7  A    between atoms: C_5  and  C_47
    8  A    between atoms: C_6  and  C_22
    9  A    between atoms: C_6  and  N_52
   10  A    between atoms: N_10  and  O_28
   11  A    between atoms: C_11  and  O_36
   12  A    between atoms: C_12  and  C_39
   13  A    between atoms: O_28  and  C_34
   14  A    between atoms: C_34  and  C_44
   15  A    between atoms: O_36  and  C_44
   16  A    between atoms: C_43  and  O_48
   17  A    between atoms: C_43  and  C_49
                            x       y       z     vdW  Elec       q    Type
                         _______ _______ _______ _____ _____    ______ ____

>  <TORSDO>
F 17

$$$$
=
 OpenBabel11042417533D

 55 61  0  0  1  0  0  0  0  0999 V2000
  189.1180  175.4000  146.8600 C   0  0  0  0  0  3  0  0  0  0  0  0
  190.0920  176.6610  145.0220 C   0  0  0  0  0  0  0  0  0  0  0  0
  187.9840  176.2140  146.8260 C   0  0  0  0  0  3  0  0  0  0  0  0
  187.8980  177.2520  145.8950 C   0  0  0  0  0  0  0  0  0  0  0  0
  190.1760  175.6210  145.9730 C   0  0  0  0  0  0  0  0  0  0  0  0
  188.9420  177.4660  144.9900 C   0  0  0  0  0  3  0  0  0  0  0  0
  191.2020  176.8930  144.0390 C   0  0  2  0  0  3  0  0  0  0  0  0
  191.2790  178.3510  143.6140 C   0  0  0  0  0  1  0  0  0  0  0  0
  189.9280  175.6840  142.4590 O   0  0  0  0  0  0  0  0  0  0  0  0
  191.0400  176.0020  142.8470 C   0  0  0  0  0  3  0  0  0  0  0  0
  186.6870  178.1180  145.8440 C   0  0  0  0  0  2  0  0  0  0  0  0
  182.8830  178.2950  140.5090 C   0  0  0  0  0  3  0  0  0  0  0  0
  186.3570  177.2770  139.7180 C   0  0  0  0  0  0  0  0  0  0  0  0
  182.1000  178.6510  141.6170 C   0  0  0  0  0  0  0  0  0  0  0  0
  185.0040  177.6170  139.5620 C   0  0  0  0  0  3  0  0  0  0  0  0
  183.9460  178.6350  145.4310 O   0  0  0  0  0  0  0  0  0  0  0  0
  184.8110  177.9820  141.9580 C   0  0  0  0  0  0  0  0  0  0  0  0
  182.6780  178.6660  142.8930 C   0  0  0  0  0  3  0  0  0  0  0  0
  184.2300  177.9650  140.6710 C   0  0  0  0  0  0  0  0  0  0  0  0
  186.1690  177.6490  142.1120 C   0  0  0  0  0  0  0  0  0  0  0  0
  186.9310  177.2950  140.9950 C   0  0  0  0  0  3  0  0  0  0  0  0
  184.6340  178.3390  144.4160 C   0  0  0  0  0  0  0  0  0  0  0  0
  184.0260  178.3310  143.0740 C   0  0  0  0  0  0  0  0  0  0  0  0
  186.0240  178.0060  144.5500 N   0  0  0  0  0  0  0  0  0  0  0  0
  186.7760  177.6810  143.4070 N   0  0  0  0  0  2  0  0  0  0  0  0
  180.3530  180.1190  140.9760 O   0  0  0  0  0  0  0  0  0  0  0  0
  180.6820  178.9990  141.4480 C   0  0  0  0  0  0  0  0  0  0  0  0
  179.6890  178.0890  141.7990 O   0  0  0  0  0  1  0  0  0  0  0  0
  187.1500  176.9090  138.6270 O   0  0  0  0  0  0  0  0  0  0  0  0
  186.6810  176.0540  137.5940 C   0  0  0  0  0  2  0  0  0  0  0  0
  187.6320  174.8830  137.4370 C   0  0  0  0  0  2  0  0  0  0  0  0
  188.1910  174.5490  138.6740 O   0  0  0  0  0  0  0  0  0  0  0  0
  188.1920  173.1940  138.7090 N   0  0  0  0  0  0  0  0  0  0  0  0
  189.7620  171.3610  138.7870 C   0  0  0  0  0  1  0  0  0  0  0  0
  189.4880  172.7940  139.1970 C   0  0  2  0  0  3  0  0  0  0  0  0
  188.4130  172.8280  140.0280 O   0  0  0  0  0  0  0  0  0  0  0  0
  191.3540  174.7060  146.0270 C   0  0  0  0  0  2  0  0  0  0  0  0
  192.1570  175.0330  147.1540 O   0  0  0  0  0  0  0  0  0  0  0  0
  192.9020  176.2140  147.2390 C   0  0  0  0  0  0  0  0  0  0  0  0
  192.4460  177.1660  147.9240 O   0  0  0  0  0  0  0  0  0  0  0  0
  194.1780  176.4000  146.5170 C   0  0  0  0  0  0  0  0  0  0  0  0
  194.5640  177.5680  146.2520 O   0  0  0  0  0  0  0  0  0  0  0  0
  194.9870  175.3240  146.1370 O   0  0  0  0  0  0  0  0  0  0  0  0
  194.8940  174.6820  144.8680 C   0  0  0  0  0  2  0  0  0  0  0  0
  195.8940  173.5240  144.7540 C   0  0  2  0  0  0  0  0  0  0  0  0
  195.4450  172.2410  145.4540 C   0  0  2  0  0  3  0  0  0  0  0  0
  194.3880  171.2800  142.9980 C   0  0  0  0  0  2  0  0  0  0  0  0
  197.1300  173.9110  145.2700 O   0  0  0  0  0  1  0  0  0  0  0  0
  193.4330  169.8470  144.6340 F   0  0  0  0  0  0  0  0  0  0  0  0
  193.4570  171.1670  144.2200 C   0  0  2  0  0  0  0  0  0  0  0  0
  192.0560  171.5730  143.8120 C   0  0  0  0  0  1  0  0  0  0  0  0
  196.0560  171.1970  144.7340 O   0  0  0  0  0  0  0  0  0  0  0  0
  195.8490  171.5740  143.3920 C   0  0  2  0  0  3  0  0  0  0  0  0
  196.0690  173.0770  143.3230 C   0  0  0  0  0  2  0  0  0  0  0  0
  193.9090  172.0430  145.4040 C   0  0  0  0  0  2  0  0  0  0  0  0
  2  5  1  0  0  0  0
  3  1  1  0  0  0  0
  4  3  2  0  0  0  0
  5 37  1  0  0  0  0
  5  1  2  0  0  0  0
  6  2  2  0  0  0  0
  6  4  1  0  0  0  0
  7  8  1  6  0  0  0
  7  2  1  0  0  0  0
  9 10  2  0  0  0  0
 10  7  1  0  0  0  0
 11  4  1  0  0  0  0
 12 19  2  0  0  0  0
 12 14  1  0  0  0  0
 13 21  1  0  0  0  0
 14 18  2  0  0  0  0
 15 13  2  0  0  0  0
 15 19  1  0  0  0  0
 17 20  1  0  0  0  0
 17 23  2  0  0  0  0
 18 23  1  0  0  0  0
 19 17  1  0  0  0  0
 20 25  1  0  0  0  0
 21 20  2  0  0  0  0
 22 24  1  0  0  0  0
 22 16  2  0  0  0  0
 23 22  1  0  0  0  0
 24 11  1  0  0  0  0
 25 24  1  0  0  0  0
 26 27  2  0  0  0  0
 27 14  1  0  0  0  0
 27 28  1  0  0  0  0
 29 13  1  0  0  0  0
 30 29  1  0  0  0  0
 31 30  1  0  0  0  0
 31 32  1  0  0  0  0
 32 33  1  0  0  0  0
 33 35  1  0  0  0  0
 33 36  1  0  0  0  0
 35 34  1  6  0  0  0
 35 36  1  0  0  0  0
 37 38  1  0  0  0  0
 38 39  1  0  0  0  0
 39 40  2  0  0  0  0
 41 39  1  0  0  0  0
 42 41  2  0  0  0  0
 43 41  1  0  0  0  0
 44 43  1  0  0  0  0
 45 44  1  0  0  0  0
 45 48  1  1  0  0  0
 45 46  1  0  0  0  0
 46 55  1  6  0  0  0
 47 50  1  0  0  0  0
 50 51  1  6  0  0  0
 50 49  1  0  0  0  0
 50 55  1  0  0  0  0
 52 46  1  0  0  0  0
 53 47  1  1  0  0  0
 53 52  1  0  0  0  0
 54 53  1  0  0  0  0
 54 45  1  0  0  0  0
M  END
>  <MODEL>
6

>  <REMARK>
 VINA RESULT:      -6.9      3.365     10.371
  Name = 
  17 active torsions:
  status: ('A' for Active; 'I' for Inactive)
    1  A    between atoms: C_2  and  C_8
    2  A    between atoms: C_2  and  O_48
    3  A    between atoms: O_3  and  C_4
    4  A    between atoms: O_3  and  C_8
    5  A    between atoms: C_4  and  C_7
    6  A    between atoms: C_5  and  C_16
    7  A    between atoms: C_5  and  C_47
    8  A    between atoms: C_6  and  C_22
    9  A    between atoms: C_6  and  N_52
   10  A    between atoms: N_10  and  O_28
   11  A    between atoms: C_11  and  O_36
   12  A    between atoms: C_12  and  C_39
   13  A    between atoms: O_28  and  C_34
   14  A    between atoms: C_34  and  C_44
   15  A    between atoms: O_36  and  C_44
   16  A    between atoms: C_43  and  O_48
   17  A    between atoms: C_43  and  C_49
                            x       y       z     vdW  Elec       q    Type
                         _______ _______ _______ _____ _____    ______ ____

>  <TORSDO>
F 17

$$$$
=
 OpenBabel11042417533D

 55 61  0  0  1  0  0  0  0  0999 V2000
  190.2290  174.3660  145.3870 C   0  0  0  0  0  3  0  0  0  0  0  0
  192.3630  173.2680  144.9950 C   0  0  0  0  0  0  0  0  0  0  0  0
  189.6050  173.4810  144.5050 C   0  0  0  0  0  3  0  0  0  0  0  0
  190.3530  172.4890  143.8660 C   0  0  0  0  0  0  0  0  0  0  0  0
  191.6030  174.2740  145.6290 C   0  0  0  0  0  0  0  0  0  0  0  0
  191.7230  172.3760  144.1190 C   0  0  0  0  0  3  0  0  0  0  0  0
  193.8330  173.1310  145.2680 C   0  0  2  0  0  3  0  0  0  0  0  0
  194.6680  173.7990  144.1880 C   0  0  0  0  0  1  0  0  0  0  0  0
  195.3340  171.3720  145.7470 O   0  0  0  0  0  0  0  0  0  0  0  0
  194.2060  171.6890  145.4090 C   0  0  0  0  0  3  0  0  0  0  0  0
  189.6930  171.5340  142.9330 C   0  0  0  0  0  2  0  0  0  0  0  0
  189.6590  174.2220  136.9540 C   0  0  0  0  0  3  0  0  0  0  0  0
  192.7640  172.3080  137.6120 C   0  0  0  0  0  0  0  0  0  0  0  0
  188.4520  174.5500  137.5890 C   0  0  0  0  0  0  0  0  0  0  0  0
  191.8090  173.1100  136.9670 C   0  0  0  0  0  3  0  0  0  0  0  0
  187.7860  173.0240  141.4850 O   0  0  0  0  0  0  0  0  0  0  0  0
  190.3520  172.9490  138.9070 C   0  0  0  0  0  0  0  0  0  0  0  0
  188.2000  174.0710  138.8810 C   0  0  0  0  0  3  0  0  0  0  0  0
  190.6070  173.4290  137.6040 C   0  0  0  0  0  0  0  0  0  0  0  0
  191.3130  172.1520  139.5550 C   0  0  0  0  0  0  0  0  0  0  0  0
  192.5080  171.8330  138.9040 C   0  0  0  0  0  3  0  0  0  0  0  0
  188.8720  172.7590  140.9010 C   0  0  0  0  0  0  0  0  0  0  0  0
  189.1390  173.2700  139.5440 C   0  0  0  0  0  0  0  0  0  0  0  0
  189.8710  171.9560  141.5490 N   0  0  0  0  0  0  0  0  0  0  0  0
  191.0770  171.6750  140.8830 N   0  0  0  0  0  2  0  0  0  0  0  0
  186.4920  175.8810  137.5480 O   0  0  0  0  0  1  0  0  0  0  0  0
  187.4530  175.3850  136.9060 C   0  0  0  0  0  0  0  0  0  0  0  0
  187.5670  175.6410  135.5420 O   0  0  0  0  0  0  0  0  0  0  0  0
  193.9670  171.9620  136.9900 O   0  0  0  0  0  0  0  0  0  0  0  0
  194.6560  172.8400  136.1120 C   0  0  0  0  0  2  0  0  0  0  0  0
  195.6260  173.6930  136.9090 C   0  0  0  0  0  2  0  0  0  0  0  0
  195.0360  174.9200  137.2270 O   0  0  0  0  0  0  0  0  0  0  0  0
  195.5650  175.2680  138.4260 N   0  0  0  0  0  0  0  0  0  0  0  0
  194.8370  175.9230  140.6330 C   0  0  0  0  0  1  0  0  0  0  0  0
  194.5220  175.0930  139.4050 C   0  0  2  0  0  3  0  0  0  0  0  0
  195.4850  174.1480  139.2390 O   0  0  0  0  0  0  0  0  0  0  0  0
  192.2200  175.2230  146.6020 C   0  0  0  0  0  2  0  0  0  0  0  0
  192.0260  176.5570  146.1510 O   0  0  0  0  0  0  0  0  0  0  0  0
  192.5280  177.0280  144.9330 C   0  0  0  0  0  0  0  0  0  0  0  0
  193.7730  177.1570  144.8040 O   0  0  0  0  0  0  0  0  0  0  0  0
  191.6490  177.4210  143.8120 C   0  0  0  0  0  0  0  0  0  0  0  0
  192.1460  177.5460  142.6630 O   0  0  0  0  0  0  0  0  0  0  0  0
  190.2770  177.6380  143.9770 O   0  0  0  0  0  0  0  0  0  0  0  0
  189.4260  178.1130  142.9370 C   0  0  0  0  0  2  0  0  0  0  0  0
  188.5010  177.0030  142.4220 C   0  0  2  0  0  0  0  0  0  0  0  0
  187.4510  176.5460  143.4360 C   0  0  2  0  0  3  0  0  0  0  0  0
  185.5720  178.3410  142.2870 C   0  0  0  0  0  2  0  0  0  0  0  0
  189.2560  175.9000  142.0270 O   0  0  0  0  0  1  0  0  0  0  0  0
  184.5890  177.7320  144.3620 F   0  0  0  0  0  0  0  0  0  0  0  0
  185.6870  178.3800  143.8220 C   0  0  2  0  0  0  0  0  0  0  0  0
  185.6710  179.8230  144.2820 C   0  0  0  0  0  1  0  0  0  0  0  0
  186.3650  176.0970  142.6610 O   0  0  0  0  0  0  0  0  0  0  0  0
  186.2440  177.0970  141.6750 C   0  0  2  0  0  3  0  0  0  0  0  0
  187.6580  177.4730  141.2610 C   0  0  0  0  0  2  0  0  0  0  0  0
  186.9640  177.6990  144.3490 C   0  0  0  0  0  2  0  0  0  0  0  0
  1  5  1  0  0  0  0
  2  7  1  0  0  0  0
  2  5  2  0  0  0  0
  3  1  2  0  0  0  0
  4  6  2  0  0  0  0
  4  3  1  0  0  0  0
  5 37  1  0  0  0  0
  6  2  1  0  0  0  0
  7  8  1  6  0  0  0
  7 10  1  0  0  0  0
 10  9  2  0  0  0  0
 11  4  1  0  0  0  0
 12 14  2  0  0  0  0
 12 19  1  0  0  0  0
 13 21  1  0  0  0  0
 14 18  1  0  0  0  0
 15 19  1  0  0  0  0
 15 13  2  0  0  0  0
 17 23  1  0  0  0  0
 17 20  1  0  0  0  0
 18 23  2  0  0  0  0
 19 17  2  0  0  0  0
 20 25  1  0  0  0  0
 21 20  2  0  0  0  0
 22 16  2  0  0  0  0
 22 24  1  0  0  0  0
 23 22  1  0  0  0  0
 24 11  1  0  0  0  0
 25 24  1  0  0  0  0
 27 26  1  0  0  0  0
 27 14  1  0  0  0  0
 28 27  2  0  0  0  0
 29 13  1  0  0  0  0
 30 31  1  0  0  0  0
 30 29  1  0  0  0  0
 31 32  1  0  0  0  0
 32 33  1  0  0  0  0
 33 36  1  0  0  0  0
 33 35  1  0  0  0  0
 35 34  1  1  0  0  0
 36 35  1  0  0  0  0
 38 37  1  0  0  0  0
 39 38  1  0  0  0  0
 40 39  2  0  0  0  0
 41 43  1  0  0  0  0
 41 39  1  0  0  0  0
 42 41  2  0  0  0  0
 44 43  1  0  0  0  0
 45 48  1  6  0  0  0
 45 44  1  0  0  0  0
 45 46  1  0  0  0  0
 46 55  1  1  0  0  0
 47 50  1  0  0  0  0
 50 51  1  1  0  0  0
 50 55  1  0  0  0  0
 50 49  1  0  0  0  0
 52 46  1  0  0  0  0
 53 54  1  1  0  0  0
 53 47  1  0  0  0  0
 53 52  1  0  0  0  0
 54 45  1  0  0  0  0
M  END
>  <MODEL>
7

>  <REMARK>
 VINA RESULT:      -6.9      2.769      6.758
  Name = 
  17 active torsions:
  status: ('A' for Active; 'I' for Inactive)
    1  A    between atoms: C_2  and  C_8
    2  A    between atoms: C_2  and  O_48
    3  A    between atoms: O_3  and  C_4
    4  A    between atoms: O_3  and  C_8
    5  A    between atoms: C_4  and  C_7
    6  A    between atoms: C_5  and  C_16
    7  A    between atoms: C_5  and  C_47
    8  A    between atoms: C_6  and  C_22
    9  A    between atoms: C_6  and  N_52
   10  A    between atoms: N_10  and  O_28
   11  A    between atoms: C_11  and  O_36
   12  A    between atoms: C_12  and  C_39
   13  A    between atoms: O_28  and  C_34
   14  A    between atoms: C_34  and  C_44
   15  A    between atoms: O_36  and  C_44
   16  A    between atoms: C_43  and  O_48
   17  A    between atoms: C_43  and  C_49
                            x       y       z     vdW  Elec       q    Type
                         _______ _______ _______ _____ _____    ______ ____

>  <TORSDO>
F 17

$$$$
=
 OpenBabel11042417533D

 55 61  0  0  1  0  0  0  0  0999 V2000
  188.9770  175.4500  146.9440 C   0  0  0  0  0  3  0  0  0  0  0  0
  189.9570  176.5570  145.0120 C   0  0  0  0  0  0  0  0  0  0  0  0
  187.8760  176.3080  146.8840 C   0  0  0  0  0  3  0  0  0  0  0  0
  187.8100  177.2900  145.8940 C   0  0  0  0  0  0  0  0  0  0  0  0
  190.0220  175.5730  146.0220 C   0  0  0  0  0  0  0  0  0  0  0  0
  188.8390  177.4060  144.9550 C   0  0  0  0  0  3  0  0  0  0  0  0
  191.0500  176.6830  143.9920 C   0  0  2  0  0  3  0  0  0  0  0  0
  191.5300  178.1200  143.8600 C   0  0  0  0  0  1  0  0  0  0  0  0
  190.6480  174.9570  142.4310 O   0  0  0  0  0  0  0  0  0  0  0  0
  190.5960  176.1520  142.6690 C   0  0  0  0  0  3  0  0  0  0  0  0
  186.6340  178.2010  145.8170 C   0  0  0  0  0  2  0  0  0  0  0  0
  182.7840  178.2890  140.5120 C   0  0  0  0  0  3  0  0  0  0  0  0
  186.2700  177.3310  139.6970 C   0  0  0  0  0  0  0  0  0  0  0  0
  182.0040  178.6340  141.6250 C   0  0  0  0  0  0  0  0  0  0  0  0
  184.9100  177.6460  139.5500 C   0  0  0  0  0  3  0  0  0  0  0  0
  183.8800  178.6660  145.4240 O   0  0  0  0  0  0  0  0  0  0  0  0
  184.7290  178.0160  141.9460 C   0  0  0  0  0  0  0  0  0  0  0  0
  182.5910  178.6640  142.8960 C   0  0  0  0  0  3  0  0  0  0  0  0
  184.1380  177.9840  140.6640 C   0  0  0  0  0  0  0  0  0  0  0  0
  186.0940  177.7080  142.0900 C   0  0  0  0  0  0  0  0  0  0  0  0
  186.8530  177.3640  140.9690 C   0  0  0  0  0  3  0  0  0  0  0  0
  184.5650  178.3790  144.4050 C   0  0  0  0  0  0  0  0  0  0  0  0
  183.9470  178.3540  143.0670 C   0  0  0  0  0  0  0  0  0  0  0  0
  185.9620  178.0720  144.5290 N   0  0  0  0  0  0  0  0  0  0  0  0
  186.7110  177.7570  143.3800 N   0  0  0  0  0  2  0  0  0  0  0  0
  180.1860  179.6460  140.4890 O   0  0  0  0  0  0  0  0  0  0  0  0
  180.5780  178.9560  141.4660 C   0  0  0  0  0  0  0  0  0  0  0  0
  179.6470  178.4910  142.3900 O   0  0  0  0  0  1  0  0  0  0  0  0
  187.0600  176.9740  138.6000 O   0  0  0  0  0  0  0  0  0  0  0  0
  186.5920  176.1210  137.5650 C   0  0  0  0  0  2  0  0  0  0  0  0
  187.1050  176.6220  136.2280 C   0  0  0  0  0  2  0  0  0  0  0  0
  187.6860  175.5700  135.5130 O   0  0  0  0  0  0  0  0  0  0  0  0
  188.6700  175.0950  136.3160 N   0  0  0  0  0  0  0  0  0  0  0  0
  190.0420  173.1250  136.5680 C   0  0  0  0  0  1  0  0  0  0  0  0
  189.3140  174.0280  135.5930 C   0  0  2  0  0  3  0  0  0  0  0  0
  189.8630  175.2710  135.6330 O   0  0  0  0  0  0  0  0  0  0  0  0
  191.1630  174.6160  146.1070 C   0  0  0  0  0  2  0  0  0  0  0  0
  192.0020  174.9730  147.1970 O   0  0  0  0  0  0  0  0  0  0  0  0
  192.7440  176.1590  147.2280 C   0  0  0  0  0  0  0  0  0  0  0  0
  192.2760  177.1460  147.8530 O   0  0  0  0  0  0  0  0  0  0  0  0
  194.0300  176.3080  146.5160 C   0  0  0  0  0  0  0  0  0  0  0  0
  194.3150  177.4200  146.0000 O   0  0  0  0  0  0  0  0  0  0  0  0
  194.9550  175.2640  146.4140 O   0  0  0  0  0  0  0  0  0  0  0  0
  195.6500  174.9450  145.2110 C   0  0  0  0  0  2  0  0  0  0  0  0
  194.9100  173.8670  144.4090 C   0  0  2  0  0  0  0  0  0  0  0  0
  193.8990  174.4200  143.4040 C   0  0  2  0  0  3  0  0  0  0  0  0
  195.8660  174.2800  141.3590 C   0  0  0  0  0  2  0  0  0  0  0  0
  194.2540  172.9950  145.2770 O   0  0  0  0  0  1  0  0  0  0  0  0
  194.1680  175.6560  140.4290 F   0  0  0  0  0  0  0  0  0  0  0  0
  195.0920  175.6080  141.4580 C   0  0  2  0  0  0  0  0  0  0  0  0
  196.0630  176.7580  141.2900 C   0  0  0  0  0  1  0  0  0  0  0  0
  193.8420  173.4610  142.3760 O   0  0  0  0  0  0  0  0  0  0  0  0
  195.1980  173.1460  142.1600 C   0  0  2  0  0  3  0  0  0  0  0  0
  195.8530  173.0800  143.5310 C   0  0  0  0  0  2  0  0  0  0  0  0
  194.3450  175.7720  142.7950 C   0  0  0  0  0  2  0  0  0  0  0  0
  2  5  1  0  0  0  0
  3  1  1  0  0  0  0
  4  3  2  0  0  0  0
  5 37  1  0  0  0  0
  5  1  2  0  0  0  0
  6  2  2  0  0  0  0
  6  4  1  0  0  0  0
  7  8  1  6  0  0  0
  7  2  1  0  0  0  0
  9 10  2  0  0  0  0
 10  7  1  0  0  0  0
 11  4  1  0  0  0  0
 12 19  2  0  0  0  0
 12 14  1  0  0  0  0
 13 21  1  0  0  0  0
 14 18  2  0  0  0  0
 15 13  2  0  0  0  0
 15 19  1  0  0  0  0
 17 20  1  0  0  0  0
 17 23  2  0  0  0  0
 18 23  1  0  0  0  0
 19 17  1  0  0  0  0
 20 25  1  0  0  0  0
 21 20  2  0  0  0  0
 22 24  1  0  0  0  0
 22 16  2  0  0  0  0
 23 22  1  0  0  0  0
 24 11  1  0  0  0  0
 25 24  1  0  0  0  0
 26 27  2  0  0  0  0
 27 14  1  0  0  0  0
 27 28  1  0  0  0  0
 29 13  1  0  0  0  0
 30 29  1  0  0  0  0
 31 30  1  0  0  0  0
 32 31  1  0  0  0  0
 32 33  1  0  0  0  0
 35 36  1  0  0  0  0
 35 33  1  0  0  0  0
 35 34  1  1  0  0  0
 36 33  1  0  0  0  0
 37 38  1  0  0  0  0
 38 39  1  0  0  0  0
 39 40  2  0  0  0  0
 41 39  1  0  0  0  0
 42 41  2  0  0  0  0
 43 41  1  0  0  0  0
 44 43  1  0  0  0  0
 45 44  1  0  0  0  0
 45 48  1  1  0  0  0
 46 55  1  6  0  0  0
 46 45  1  0  0  0  0
 47 50  1  0  0  0  0
 49 50  1  0  0  0  0
 50 51  1  6  0  0  0
 50 55  1  0  0  0  0
 52 46  1  0  0  0  0
 53 47  1  6  0  0  0
 53 52  1  0  0  0  0
 53 54  1  0  0  0  0
 54 45  1  0  0  0  0
M  END
>  <MODEL>
8

>  <REMARK>
 VINA RESULT:      -6.9      3.371     10.294
  Name = 
  17 active torsions:
  status: ('A' for Active; 'I' for Inactive)
    1  A    between atoms: C_2  and  C_8
    2  A    between atoms: C_2  and  O_48
    3  A    between atoms: O_3  and  C_4
    4  A    between atoms: O_3  and  C_8
    5  A    between atoms: C_4  and  C_7
    6  A    between atoms: C_5  and  C_16
    7  A    between atoms: C_5  and  C_47
    8  A    between atoms: C_6  and  C_22
    9  A    between atoms: C_6  and  N_52
   10  A    between atoms: N_10  and  O_28
   11  A    between atoms: C_11  and  O_36
   12  A    between atoms: C_12  and  C_39
   13  A    between atoms: O_28  and  C_34
   14  A    between atoms: C_34  and  C_44
   15  A    between atoms: O_36  and  C_44
   16  A    between atoms: C_43  and  O_48
   17  A    between atoms: C_43  and  C_49
                            x       y       z     vdW  Elec       q    Type
                         _______ _______ _______ _____ _____    ______ ____

>  <TORSDO>
F 17

$$$$
=
 OpenBabel11042417533D

 55 61  0  0  1  0  0  0  0  0999 V2000
  188.8750  172.7180  142.1610 C   0  0  0  0  0  3  0  0  0  0  0  0
  189.8710  172.7330  139.9420 C   0  0  0  0  0  0  0  0  0  0  0  0
  189.6950  171.6490  142.5290 C   0  0  0  0  0  3  0  0  0  0  0  0
  190.6030  171.1190  141.6100 C   0  0  0  0  0  0  0  0  0  0  0  0
  188.9480  173.2580  140.8730 C   0  0  0  0  0  0  0  0  0  0  0  0
  190.6980  171.6650  140.3270 C   0  0  0  0  0  3  0  0  0  0  0  0
  189.9900  173.3190  138.5660 C   0  0  2  0  0  3  0  0  0  0  0  0
  189.0460  172.6430  137.5840 C   0  0  0  0  0  1  0  0  0  0  0  0
  192.0410  174.2540  137.8610 O   0  0  0  0  0  0  0  0  0  0  0  0
  191.4040  173.2380  138.0830 C   0  0  0  0  0  3  0  0  0  0  0  0
  191.4890  169.9850  141.9980 C   0  0  0  0  0  2  0  0  0  0  0  0
  196.3430  170.8450  146.3190 C   0  0  0  0  0  3  0  0  0  0  0  0
  195.6960  173.8940  144.3140 C   0  0  0  0  0  0  0  0  0  0  0  0
  195.8570  169.5370  146.4600 C   0  0  0  0  0  0  0  0  0  0  0  0
  196.2670  173.0140  145.2470 C   0  0  0  0  0  3  0  0  0  0  0  0
  192.6120  168.3550  144.0060 O   0  0  0  0  0  0  0  0  0  0  0  0
  194.7010  171.2780  144.5780 C   0  0  0  0  0  0  0  0  0  0  0  0
  194.7910  169.1070  145.6600 C   0  0  0  0  0  3  0  0  0  0  0  0
  195.7750  171.7130  145.3850 C   0  0  0  0  0  0  0  0  0  0  0  0
  194.1350  172.1590  143.6390 C   0  0  0  0  0  0  0  0  0  0  0  0
  194.6320  173.4600  143.5150 C   0  0  0  0  0  3  0  0  0  0  0  0
  193.0790  169.5200  143.8840 C   0  0  0  0  0  0  0  0  0  0  0  0
  194.2060  169.9680  144.7220 C   0  0  0  0  0  0  0  0  0  0  0  0
  192.5240  170.4310  142.9240 N   0  0  0  0  0  0  0  0  0  0  0  0
  193.0600  171.7250  142.8000 N   0  0  0  0  0  2  0  0  0  0  0  0
  197.6460  168.2360  147.3120 O   0  0  0  0  0  0  0  0  0  0  0  0
  196.4550  168.6220  147.4430 C   0  0  0  0  0  0  0  0  0  0  0  0
  195.7110  168.1800  148.5340 O   0  0  0  0  0  1  0  0  0  0  0  0
  196.1590  175.2050  144.1680 O   0  0  0  0  0  0  0  0  0  0  0  0
  197.1680  175.5610  143.2320 C   0  0  0  0  0  2  0  0  0  0  0  0
  196.6130  176.5790  142.2540 C   0  0  0  0  0  2  0  0  0  0  0  0
  195.4410  176.0930  141.6690 O   0  0  0  0  0  0  0  0  0  0  0  0
  195.8560  175.2840  140.6620 N   0  0  0  0  0  0  0  0  0  0  0  0
  195.0500  173.4220  139.3540 C   0  0  0  0  0  1  0  0  0  0  0  0
  194.6720  174.6880  140.0960 C   0  0  2  0  0  3  0  0  0  0  0  0
  195.2650  175.7550  139.5000 O   0  0  0  0  0  0  0  0  0  0  0  0
  188.0730  174.4180  140.5360 C   0  0  0  0  0  2  0  0  0  0  0  0
  188.5940  175.5960  141.1360 O   0  0  0  0  0  0  0  0  0  0  0  0
  187.7980  176.7020  141.4550 C   0  0  0  0  0  0  0  0  0  0  0  0
  187.3740  177.4300  140.5180 O   0  0  0  0  0  0  0  0  0  0  0  0
  187.4760  177.0710  142.8490 C   0  0  0  0  0  0  0  0  0  0  0  0
  186.3560  177.5880  143.0990 O   0  0  0  0  0  0  0  0  0  0  0  0
  188.3620  176.8460  143.9070 O   0  0  0  0  0  0  0  0  0  0  0  0
  189.4300  177.7290  144.2380 C   0  0  0  0  0  2  0  0  0  0  0  0
  190.7920  177.0370  144.0920 C   0  0  2  0  0  0  0  0  0  0  0  0
  191.5500  176.8690  145.4090 C   0  0  2  0  0  3  0  0  0  0  0  0
  190.4940  174.2450  145.6720 C   0  0  0  0  0  2  0  0  0  0  0  0
  191.5920  177.7480  143.1980 O   0  0  0  0  0  1  0  0  0  0  0  0
  191.3550  174.7360  147.8310 F   0  0  0  0  0  0  0  0  0  0  0  0
  190.3920  175.1390  146.9220 C   0  0  2  0  0  0  0  0  0  0  0  0
  189.0260  174.9540  147.5510 C   0  0  0  0  0  1  0  0  0  0  0  0
  192.3450  175.7210  145.2290 O   0  0  0  0  0  0  0  0  0  0  0  0
  191.4590  174.8150  144.6150 C   0  0  2  0  0  3  0  0  0  0  0  0
  190.6460  175.6150  143.6090 C   0  0  0  0  0  2  0  0  0  0  0  0
  190.6050  176.6330  146.6130 C   0  0  0  0  0  2  0  0  0  0  0  0
  1  3  1  0  0  0  0
  2  6  2  0  0  0  0
  2  5  1  0  0  0  0
  4 11  1  0  0  0  0
  4  3  2  0  0  0  0
  5  1  2  0  0  0  0
  6  4  1  0  0  0  0
  7  8  1  6  0  0  0
  7  2  1  0  0  0  0
  9 10  2  0  0  0  0
 10  7  1  0  0  0  0
 11 24  1  0  0  0  0
 12 14  1  0  0  0  0
 13 15  2  0  0  0  0
 14 27  1  0  0  0  0
 15 19  1  0  0  0  0
 17 23  2  0  0  0  0
 17 19  1  0  0  0  0
 18 14  2  0  0  0  0
 19 12  2  0  0  0  0
 20 17  1  0  0  0  0
 21 20  2  0  0  0  0
 21 13  1  0  0  0  0
 22 16  2  0  0  0  0
 22 23  1  0  0  0  0
 23 18  1  0  0  0  0
 24 22  1  0  0  0  0
 25 24  1  0  0  0  0
 25 20  1  0  0  0  0
 26 27  2  0  0  0  0
 27 28  1  0  0  0  0
 29 13  1  0  0  0  0
 30 29  1  0  0  0  0
 31 30  1  0  0  0  0
 32 31  1  0  0  0  0
 33 32  1  0  0  0  0
 35 34  1  6  0  0  0
 35 33  1  0  0  0  0
 36 35  1  0  0  0  0
 36 33  1  0  0  0  0
 37  5  1  0  0  0  0
 37 38  1  0  0  0  0
 38 39  1  0  0  0  0
 39 41  1  0  0  0  0
 40 39  2  0  0  0  0
 41 42  2  0  0  0  0
 41 43  1  0  0  0  0
 43 44  1  0  0  0  0
 45 48  1  6  0  0  0
 45 44  1  0  0  0  0
 45 46  1  0  0  0  0
 46 55  1  1  0  0  0
 47 50  1  0  0  0  0
 50 51  1  1  0  0  0
 50 49  1  0  0  0  0
 52 46  1  0  0  0  0
 53 54  1  6  0  0  0
 53 52  1  0  0  0  0
 53 47  1  0  0  0  0
 54 45  1  0  0  0  0
 55 50  1  0  0  0  0
M  END
>  <MODEL>
9

>  <REMARK>
 VINA RESULT:      -6.8      2.514      4.584
  Name = 
  17 active torsions:
  status: ('A' for Active; 'I' for Inactive)
    1  A    between atoms: C_2  and  C_8
    2  A    between atoms: C_2  and  O_48
    3  A    between atoms: O_3  and  C_4
    4  A    between atoms: O_3  and  C_8
    5  A    between atoms: C_4  and  C_7
    6  A    between atoms: C_5  and  C_16
    7  A    between atoms: C_5  and  C_47
    8  A    between atoms: C_6  and  C_22
    9  A    between atoms: C_6  and  N_52
   10  A    between atoms: N_10  and  O_28
   11  A    between atoms: C_11  and  O_36
   12  A    between atoms: C_12  and  C_39
   13  A    between atoms: O_28  and  C_34
   14  A    between atoms: C_34  and  C_44
   15  A    between atoms: O_36  and  C_44
   16  A    between atoms: C_43  and  O_48
   17  A    between atoms: C_43  and  C_49
                            x       y       z     vdW  Elec       q    Type
                         _______ _______ _______ _____ _____    ______ ____

>  <TORSDO>
F 17

$$$$
