=
 OpenBabel11042419253D

 40 44  0  0  1  0  0  0  0  0999 V2000
  197.4740  176.8810  143.1100 C   0  0  0  0  0  1  0  0  0  0  0  0
  193.6720  173.8550  143.3640 N   0  0  0  0  0  0  0  0  0  0  0  0
  190.9970  173.0000  143.0380 N   0  0  0  0  0  0  0  0  0  0  0  0
  192.0220  172.1080  143.4890 C   0  0  0  0  0  0  0  0  0  0  0  0
  190.3560  173.8310  144.0180 C   0  0  0  0  0  3  0  0  0  0  0  0
  197.4270  174.1650  143.8670 S   0  0  0  0  0  0  0  0  0  0  0  0
  188.9230  173.8480  139.9690 C   0  0  0  0  0  2  0  0  0  0  0  0
  189.6220  174.0830  141.2930 C   0  0  2  0  0  3  0  0  0  0  0  0
  190.3970  172.8270  141.7020 C   0  0  1  0  0  3  0  0  0  0  0  0
  193.9810  170.3190  144.2270 N   0  0  0  0  0  0  0  0  0  0  0  0
  191.4550  172.5320  140.6450 C   0  0  0  0  0  2  0  0  0  0  0  0
  196.6680  171.1580  144.5180 O   0  0  0  0  0  1  0  0  0  0  0  0
  191.7290  170.8050  143.7310 N   0  0  0  0  0  0  0  0  0  0  0  0
  194.9610  174.2600  143.4810 C   0  0  0  0  0  0  0  0  0  0  0  0
  193.3330  172.5570  143.6400 C   0  0  0  0  0  0  0  0  0  0  0  0
  196.7240  175.6180  143.3400 C   0  0  0  0  0  0  0  0  0  0  0  0
  195.9490  173.3780  143.8840 C   0  0  0  0  0  0  0  0  0  0  0  0
  188.6090  174.4320  142.3700 C   0  0  0  0  0  2  0  0  0  0  0  0
  189.2790  174.5640  143.7220 C   0  0  0  0  0  0  0  0  0  0  0  0
  194.3250  171.6210  144.0320 C   0  0  0  0  0  0  0  0  0  0  0  0
  195.3830  175.5090  143.1670 N   0  0  0  0  0  0  0  0  0  0  0  0
  192.6910  169.9130  144.0860 C   0  0  0  0  0  3  0  0  0  0  0  0
  189.9680  173.5380  138.8990 C   0  0  1  0  0  3  0  0  0  0  0  0
  195.6600  172.0400  144.1550 C   0  0  0  0  0  0  0  0  0  0  0  0
  190.7870  172.3110  139.2930 C   0  0  0  0  0  2  0  0  0  0  0  0
  188.6650  175.3290  144.7660 N   0  0  0  0  0  0  0  0  0  0  0  0
  188.8910  176.5900  145.0250 C   0  0  0  0  0  0  0  0  0  0  0  0
  186.8940  177.5020  145.9950 N   0  0  0  0  0  0  0  0  0  0  0  0
  188.1600  177.2570  146.1080 C   0  0  0  0  0  3  0  0  0  0  0  0
  184.6480  178.3190  146.9230 C   0  0  0  0  0  1  0  0  0  0  0  0
  186.7280  178.5660  148.0470 O   0  0  0  0  0  0  0  0  0  0  0  0
  186.1320  178.1240  147.0370 C   0  0  0  0  0  0  0  0  0  0  0  0
  189.9440  177.3620  144.3030 C   0  0  0  0  0  2  0  0  0  0  0  0
  191.2020  177.2810  145.0240 N   0  0  0  0  0  2  0  0  0  0  0  0
  192.4440  177.1720  144.3410 C   0  0  0  0  0  0  0  0  0  0  0  0
  192.4680  176.9490  143.1060 O   0  0  0  0  0  0  0  0  0  0  0  0
  193.6270  177.3310  145.0530 O   0  0  0  0  0  0  0  0  0  0  0  0
  193.8720  176.6370  146.2670 C   0  0  0  0  0  1  0  0  0  0  0  0
  189.1600  173.2530  137.2980 S   0  0  0  0  0  0  0  0  0  0  0  0
  190.3710  174.2710  136.4210 C   0  0  0  0  0  1  0  0  0  0  0  0
  1 16  1  0  0  0  0
  2 14  2  0  0  0  0
  2 15  1  0  0  0  0
  3  4  1  0  0  0  0
  3  5  1  0  0  0  0
  4 15  2  0  0  0  0
  4 13  1  0  0  0  0
  6 17  1  0  0  0  0
  8  7  1  6  0  0  0
  8  9  1  0  0  0  0
  8 18  1  0  0  0  0
  9 11  1  6  0  0  0
  9  3  1  0  0  0  0
 13 22  2  0  0  0  0
 14 17  1  0  0  0  0
 15 20  1  0  0  0  0
 16  6  1  0  0  0  0
 17 24  2  0  0  0  0
 18 19  1  0  0  0  0
 19  5  2  0  0  0  0
 19 26  1  0  0  0  0
 20 24  1  0  0  0  0
 20 10  2  0  0  0  0
 21 16  2  0  0  0  0
 21 14  1  0  0  0  0
 22 10  1  0  0  0  0
 23 39  1  6  0  0  0
 23 25  1  0  0  0  0
 23  7  1  0  0  0  0
 24 12  1  0  0  0  0
 25 11  1  0  0  0  0
 26 27  2  0  0  0  0
 27 29  1  0  0  0  0
 28 29  2  0  0  0  0
 28 32  1  0  0  0  0
 30 32  1  0  0  0  0
 32 31  2  0  0  0  0
 33 34  1  0  0  0  0
 33 27  1  0  0  0  0
 35 34  1  0  0  0  0
 35 37  1  0  0  0  0
 36 35  2  0  0  0  0
 37 38  1  0  0  0  0
 40 39  1  0  0  0  0
M  END
>  <MODEL>
1

>  <REMARK>
 VINA RESULT:      -6.8      0.000      0.000
  Name = 
  7 active torsions:
  status: ('A' for Active; 'I' for Inactive)
    1  A    between atoms: N_1  and  C_31
    2  A    between atoms: N_7  and  C_34
    3  A    between atoms: C_13  and  C_26
    4  A    between atoms: C_13  and  C_34
    5  A    between atoms: O_14  and  C_16
    6  A    between atoms: N_19  and  C_36
    7  A    between atoms: S_27  and  C_37
                            x       y       z     vdW  Elec       q    Type
                         _______ _______ _______ _____ _____    ______ ____

>  <TORSDO>
F 7

$$$$
=
 OpenBabel11042419253D

 40 44  0  0  1  0  0  0  0  0999 V2000
  197.2440  177.1660  143.1380 C   0  0  0  0  0  1  0  0  0  0  0  0
  193.4380  174.1390  143.3030 N   0  0  0  0  0  0  0  0  0  0  0  0
  190.8040  173.2360  142.8100 N   0  0  0  0  0  0  0  0  0  0  0  0
  191.7850  172.3950  143.4260 C   0  0  0  0  0  0  0  0  0  0  0  0
  190.0760  174.1410  143.6550 C   0  0  0  0  0  3  0  0  0  0  0  0
  197.1310  174.5230  144.1140 S   0  0  0  0  0  0  0  0  0  0  0  0
  189.0160  173.8050  139.5050 C   0  0  0  0  0  2  0  0  0  0  0  0
  189.5920  174.1570  140.8620 C   0  0  2  0  0  3  0  0  0  0  0  0
  190.3280  172.9460  141.4450 C   0  0  1  0  0  3  0  0  0  0  0  0
  193.6710  170.6910  144.4860 N   0  0  0  0  0  0  0  0  0  0  0  0
  191.4770  172.5730  140.5160 C   0  0  0  0  0  2  0  0  0  0  0  0
  196.3190  171.5750  144.9460 O   0  0  0  0  0  1  0  0  0  0  0  0
  191.4720  171.1140  143.7490 N   0  0  0  0  0  0  0  0  0  0  0  0
  194.7100  174.5640  143.5010 C   0  0  0  0  0  0  0  0  0  0  0  0
  193.0770  172.8660  143.6560 C   0  0  0  0  0  0  0  0  0  0  0  0
  196.4780  175.9200  143.4050 C   0  0  0  0  0  0  0  0  0  0  0  0
  195.6590  173.7270  144.0640 C   0  0  0  0  0  0  0  0  0  0  0  0
  188.4850  174.5860  141.8110 C   0  0  0  0  0  2  0  0  0  0  0  0
  189.0300  174.8380  143.2010 C   0  0  0  0  0  0  0  0  0  0  0  0
  194.0300  171.9750  144.2130 C   0  0  0  0  0  0  0  0  0  0  0  0
  195.1580  175.7860  143.1220 N   0  0  0  0  0  0  0  0  0  0  0  0
  192.4000  170.2630  144.2650 C   0  0  0  0  0  3  0  0  0  0  0  0
  190.1540  173.4150  138.5640 C   0  0  1  0  0  3  0  0  0  0  0  0
  195.3480  172.4140  144.4200 C   0  0  0  0  0  0  0  0  0  0  0  0
  190.9360  172.2320  139.1330 C   0  0  0  0  0  2  0  0  0  0  0  0
  188.3230  175.6820  144.1170 N   0  0  0  0  0  0  0  0  0  0  0  0
  187.9060  176.8970  143.8720 C   0  0  0  0  0  0  0  0  0  0  0  0
  186.6040  177.0110  145.8850 N   0  0  0  0  0  0  0  0  0  0  0  0
  187.1590  177.6340  144.8970 C   0  0  0  0  0  3  0  0  0  0  0  0
  185.1360  178.9620  146.6670 C   0  0  0  0  0  1  0  0  0  0  0  0
  185.9410  177.2400  148.0930 O   0  0  0  0  0  0  0  0  0  0  0  0
  185.8900  177.6910  146.9250 C   0  0  0  0  0  0  0  0  0  0  0  0
  188.2420  177.5990  142.5990 C   0  0  0  0  0  2  0  0  0  0  0  0
  187.0620  178.2570  142.0690 N   0  0  0  0  0  2  0  0  0  0  0  0
  186.4700  177.8460  140.8440 C   0  0  0  0  0  0  0  0  0  0  0  0
  187.0660  177.0330  140.0960 O   0  0  0  0  0  0  0  0  0  0  0  0
  185.2200  178.3420  140.4930 O   0  0  0  0  0  0  0  0  0  0  0  0
  184.1140  178.2910  141.3830 C   0  0  0  0  0  1  0  0  0  0  0  0
  189.4950  172.9890  136.9270 S   0  0  0  0  0  0  0  0  0  0  0  0
  190.0630  171.2770  137.0610 C   0  0  0  0  0  1  0  0  0  0  0  0
  1 16  1  0  0  0  0
  2 14  2  0  0  0  0
  2 15  1  0  0  0  0
  3  4  1  0  0  0  0
  3  5  1  0  0  0  0
  4 15  2  0  0  0  0
  4 13  1  0  0  0  0
  8  7  1  6  0  0  0
  8  9  1  0  0  0  0
  8 18  1  0  0  0  0
  9 11  1  6  0  0  0
  9  3  1  0  0  0  0
 13 22  2  0  0  0  0
 14 17  1  0  0  0  0
 15 20  1  0  0  0  0
 16  6  1  0  0  0  0
 17  6  1  0  0  0  0
 17 24  2  0  0  0  0
 18 19  1  0  0  0  0
 19  5  2  0  0  0  0
 19 26  1  0  0  0  0
 20 24  1  0  0  0  0
 20 10  2  0  0  0  0
 21 16  2  0  0  0  0
 21 14  1  0  0  0  0
 22 10  1  0  0  0  0
 23 39  1  6  0  0  0
 23 25  1  0  0  0  0
 23  7  1  0  0  0  0
 24 12  1  0  0  0  0
 25 11  1  0  0  0  0
 27 26  2  0  0  0  0
 27 29  1  0  0  0  0
 28 32  1  0  0  0  0
 29 28  2  0  0  0  0
 30 32  1  0  0  0  0
 32 31  2  0  0  0  0
 33 27  1  0  0  0  0
 34 33  1  0  0  0  0
 35 34  1  0  0  0  0
 36 35  2  0  0  0  0
 37 35  1  0  0  0  0
 37 38  1  0  0  0  0
 39 40  1  0  0  0  0
M  END
>  <MODEL>
2

>  <REMARK>
 VINA RESULT:      -6.6      2.182      2.992
  Name = 
  7 active torsions:
  status: ('A' for Active; 'I' for Inactive)
    1  A    between atoms: N_1  and  C_31
    2  A    between atoms: N_7  and  C_34
    3  A    between atoms: C_13  and  C_26
    4  A    between atoms: C_13  and  C_34
    5  A    between atoms: O_14  and  C_16
    6  A    between atoms: N_19  and  C_36
    7  A    between atoms: S_27  and  C_37
                            x       y       z     vdW  Elec       q    Type
                         _______ _______ _______ _____ _____    ______ ____

>  <TORSDO>
F 7

$$$$
=
 OpenBabel11042419253D

 40 44  0  0  1  0  0  0  0  0999 V2000
  194.8860  168.6520  146.4250 C   0  0  0  0  0  1  0  0  0  0  0  0
  193.9180  172.9500  144.3600 N   0  0  0  0  0  0  0  0  0  0  0  0
  192.3340  174.9870  143.2020 N   0  0  0  0  0  0  0  0  0  0  0  0
  193.7220  175.1860  143.4910 C   0  0  0  0  0  0  0  0  0  0  0  0
  191.9960  174.3530  141.9590 C   0  0  0  0  0  3  0  0  0  0  0  0
  196.6090  170.8490  146.0300 S   0  0  0  0  0  0  0  0  0  0  0  0
  188.8670  175.8750  144.4780 C   0  0  0  0  0  2  0  0  0  0  0  0
  189.9280  175.0640  143.7610 C   0  0  2  0  0  3  0  0  0  0  0  0
  191.3050  175.7010  143.9780 C   0  0  1  0  0  3  0  0  0  0  0  0
  196.3520  175.6670  144.1540 N   0  0  0  0  0  0  0  0  0  0  0  0
  191.6210  175.6990  145.4690 C   0  0  0  0  0  2  0  0  0  0  0  0
  197.9330  173.6460  145.3480 O   0  0  0  0  0  1  0  0  0  0  0  0
  194.3000  176.3910  143.2490 N   0  0  0  0  0  0  0  0  0  0  0  0
  194.6630  171.9840  144.9500 C   0  0  0  0  0  0  0  0  0  0  0  0
  194.4790  174.1640  144.0630 C   0  0  0  0  0  0  0  0  0  0  0  0
  195.1220  170.0350  145.9320 C   0  0  0  0  0  0  0  0  0  0  0  0
  195.9960  172.2020  145.2580 C   0  0  0  0  0  0  0  0  0  0  0  0
  189.6260  174.9960  142.2740 C   0  0  0  0  0  2  0  0  0  0  0  0
  190.7330  174.2800  141.5280 C   0  0  0  0  0  0  0  0  0  0  0  0
  195.8350  174.4300  144.3860 C   0  0  0  0  0  0  0  0  0  0  0  0
  194.1640  170.7820  145.3290 N   0  0  0  0  0  0  0  0  0  0  0  0
  195.5940  176.6400  143.5820 C   0  0  0  0  0  3  0  0  0  0  0  0
  189.1760  175.8940  145.9730 C   0  0  1  0  0  3  0  0  0  0  0  0
  196.6080  173.4280  144.9980 C   0  0  0  0  0  0  0  0  0  0  0  0
  190.5600  176.4890  146.2250 C   0  0  0  0  0  2  0  0  0  0  0  0
  190.4800  173.6770  140.2540 N   0  0  0  0  0  0  0  0  0  0  0  0
  189.9640  172.4930  140.0570 C   0  0  0  0  0  0  0  0  0  0  0  0
  190.6330  171.3450  138.0580 N   0  0  0  0  0  0  0  0  0  0  0  0
  189.7260  172.0160  138.6900 C   0  0  0  0  0  3  0  0  0  0  0  0
  189.6820  171.6070  135.6910 C   0  0  0  0  0  1  0  0  0  0  0  0
  190.8540  169.6860  136.4550 O   0  0  0  0  0  0  0  0  0  0  0  0
  190.4350  170.8340  136.7340 C   0  0  0  0  0  0  0  0  0  0  0  0
  189.6840  171.5620  141.1890 C   0  0  0  0  0  2  0  0  0  0  0  0
  190.8490  170.7350  141.4510 N   0  0  0  0  0  2  0  0  0  0  0  0
  191.4340  170.6650  142.7450 C   0  0  0  0  0  0  0  0  0  0  0  0
  191.0750  171.4640  143.6440 O   0  0  0  0  0  0  0  0  0  0  0  0
  192.3930  169.6930  143.0060 O   0  0  0  0  0  0  0  0  0  0  0  0
  192.2380  168.3500  142.5720 C   0  0  0  0  0  1  0  0  0  0  0  0
  187.9190  176.8580  146.8600 S   0  0  0  0  0  0  0  0  0  0  0  0
  187.3970  177.7080  145.3510 C   0  0  0  0  0  1  0  0  0  0  0  0
  2 14  2  0  0  0  0
  3  4  1  0  0  0  0
  3  9  1  0  0  0  0
  4 15  1  0  0  0  0
  5  3  1  0  0  0  0
  7 23  1  0  0  0  0
  8 18  1  6  0  0  0
  8  9  1  0  0  0  0
  8  7  1  0  0  0  0
  9 11  1  1  0  0  0
 10 20  1  0  0  0  0
 11 25  1  0  0  0  0
 13  4  2  0  0  0  0
 13 22  1  0  0  0  0
 14 17  1  0  0  0  0
 14 21  1  0  0  0  0
 15  2  1  0  0  0  0
 15 20  2  0  0  0  0
 16  6  1  0  0  0  0
 16  1  1  0  0  0  0
 17  6  1  0  0  0  0
 19  5  2  0  0  0  0
 19 18  1  0  0  0  0
 20 24  1  0  0  0  0
 21 16  2  0  0  0  0
 22 10  2  0  0  0  0
 23 25  1  0  0  0  0
 23 39  1  1  0  0  0
 24 17  2  0  0  0  0
 24 12  1  0  0  0  0
 26 19  1  0  0  0  0
 27 26  2  0  0  0  0
 27 33  1  0  0  0  0
 28 29  2  0  0  0  0
 29 27  1  0  0  0  0
 30 32  1  0  0  0  0
 31 32  2  0  0  0  0
 32 28  1  0  0  0  0
 33 34  1  0  0  0  0
 34 35  1  0  0  0  0
 35 37  1  0  0  0  0
 35 36  2  0  0  0  0
 38 37  1  0  0  0  0
 40 39  1  0  0  0  0
M  END
>  <MODEL>
3

>  <REMARK>
 VINA RESULT:      -6.1      3.345      7.030
  Name = 
  7 active torsions:
  status: ('A' for Active; 'I' for Inactive)
    1  A    between atoms: N_1  and  C_31
    2  A    between atoms: N_7  and  C_34
    3  A    between atoms: C_13  and  C_26
    4  A    between atoms: C_13  and  C_34
    5  A    between atoms: O_14  and  C_16
    6  A    between atoms: N_19  and  C_36
    7  A    between atoms: S_27  and  C_37
                            x       y       z     vdW  Elec       q    Type
                         _______ _______ _______ _____ _____    ______ ____

>  <TORSDO>
F 7

$$$$
=
 OpenBabel11042419253D

 40 44  0  0  1  0  0  0  0  0999 V2000
  196.4180  176.3130  143.4490 C   0  0  0  0  0  1  0  0  0  0  0  0
  192.7530  173.3120  142.3380 N   0  0  0  0  0  0  0  0  0  0  0  0
  190.2980  172.5140  141.1830 N   0  0  0  0  0  0  0  0  0  0  0  0
  191.1640  171.5770  141.8340 C   0  0  0  0  0  0  0  0  0  0  0  0
  189.3890  173.2640  142.0040 C   0  0  0  0  0  3  0  0  0  0  0  0
  196.1980  173.5430  143.9270 S   0  0  0  0  0  0  0  0  0  0  0  0
  189.1840  173.6420  137.7300 C   0  0  0  0  0  2  0  0  0  0  0  0
  189.4680  173.7560  139.2140 C   0  0  2  0  0  3  0  0  0  0  0  0
  190.1120  172.4620  139.7210 C   0  0  1  0  0  3  0  0  0  0  0  0
  192.8550  169.7120  142.9500 N   0  0  0  0  0  0  0  0  0  0  0  0
  191.4330  172.2490  138.9930 C   0  0  0  0  0  2  0  0  0  0  0  0
  195.3310  170.4980  144.0740 O   0  0  0  0  0  1  0  0  0  0  0  0
  190.8340  170.2600  141.8690 N   0  0  0  0  0  0  0  0  0  0  0  0
  193.9460  173.6940  142.8560 C   0  0  0  0  0  0  0  0  0  0  0  0
  192.3690  171.9990  142.3930 C   0  0  0  0  0  0  0  0  0  0  0  0
  195.6540  175.0420  143.3450 C   0  0  0  0  0  0  0  0  0  0  0  0
  194.7910  172.7710  143.4500 C   0  0  0  0  0  0  0  0  0  0  0  0
  188.1820  174.0200  139.9800 C   0  0  0  0  0  2  0  0  0  0  0  0
  188.4320  174.0300  141.4730 C   0  0  0  0  0  0  0  0  0  0  0  0
  193.2200  171.0230  142.9740 C   0  0  0  0  0  0  0  0  0  0  0  0
  194.4210  174.9610  142.7840 N   0  0  0  0  0  0  0  0  0  0  0  0
  191.6670  169.3320  142.4100 C   0  0  0  0  0  3  0  0  0  0  0  0
  190.4970  173.4150  136.9850 C   0  0  1  0  0  3  0  0  0  0  0  0
  194.4570  171.4170  143.5110 C   0  0  0  0  0  0  0  0  0  0  0  0
  191.1880  172.1510  137.4920 C   0  0  0  0  0  2  0  0  0  0  0  0
  187.5320  174.7080  142.3570 N   0  0  0  0  0  0  0  0  0  0  0  0
  187.5420  175.9870  142.6270 C   0  0  0  0  0  0  0  0  0  0  0  0
  185.7730  177.5260  143.1380 N   0  0  0  0  0  0  0  0  0  0  0  0
  186.5320  176.5530  143.5270 C   0  0  0  0  0  3  0  0  0  0  0  0
  184.7740  177.9380  145.4630 C   0  0  0  0  0  1  0  0  0  0  0  0
  183.7870  178.6830  143.4320 O   0  0  0  0  0  0  0  0  0  0  0  0
  184.7520  178.0910  143.9700 C   0  0  0  0  0  0  0  0  0  0  0  0
  188.6140  176.8880  142.1110 C   0  0  0  0  0  2  0  0  0  0  0  0
  189.4880  177.2930  143.1970 N   0  0  0  0  0  2  0  0  0  0  0  0
  190.8610  176.9250  143.2220 C   0  0  0  0  0  0  0  0  0  0  0  0
  191.3030  176.0810  142.4050 O   0  0  0  0  0  0  0  0  0  0  0  0
  191.7080  177.5220  144.1490 O   0  0  0  0  0  0  0  0  0  0  0  0
  192.4930  176.7560  145.0500 C   0  0  0  0  0  1  0  0  0  0  0  0
  190.1890  173.2760  135.2010 S   0  0  0  0  0  0  0  0  0  0  0  0
  190.3070  171.4720  135.2450 C   0  0  0  0  0  1  0  0  0  0  0  0
  2 15  1  0  0  0  0
  2 14  2  0  0  0  0
  3  4  1  0  0  0  0
  3  5  1  0  0  0  0
  4 13  2  0  0  0  0
  4 15  1  0  0  0  0
  8  7  1  6  0  0  0
  8  9  1  0  0  0  0
  8 18  1  0  0  0  0
  9 11  1  6  0  0  0
  9  3  1  0  0  0  0
 10 20  1  0  0  0  0
 13 22  1  0  0  0  0
 14 17  1  0  0  0  0
 15 20  2  0  0  0  0
 16  1  1  0  0  0  0
 16  6  1  0  0  0  0
 17 24  2  0  0  0  0
 17  6  1  0  0  0  0
 18 19  1  0  0  0  0
 19  5  2  0  0  0  0
 19 26  1  0  0  0  0
 20 24  1  0  0  0  0
 21 14  1  0  0  0  0
 21 16  2  0  0  0  0
 22 10  2  0  0  0  0
 23 39  1  6  0  0  0
 23 25  1  0  0  0  0
 23  7  1  0  0  0  0
 24 12  1  0  0  0  0
 25 11  1  0  0  0  0
 26 27  2  0  0  0  0
 27 29  1  0  0  0  0
 28 29  2  0  0  0  0
 28 32  1  0  0  0  0
 31 32  2  0  0  0  0
 32 30  1  0  0  0  0
 33 27  1  0  0  0  0
 33 34  1  0  0  0  0
 34 35  1  0  0  0  0
 35 37  1  0  0  0  0
 36 35  2  0  0  0  0
 37 38  1  0  0  0  0
 39 40  1  0  0  0  0
M  END
>  <MODEL>
4

>  <REMARK>
 VINA RESULT:      -6.1      1.939      2.258
  Name = 
  7 active torsions:
  status: ('A' for Active; 'I' for Inactive)
    1  A    between atoms: N_1  and  C_31
    2  A    between atoms: N_7  and  C_34
    3  A    between atoms: C_13  and  C_26
    4  A    between atoms: C_13  and  C_34
    5  A    between atoms: O_14  and  C_16
    6  A    between atoms: N_19  and  C_36
    7  A    between atoms: S_27  and  C_37
                            x       y       z     vdW  Elec       q    Type
                         _______ _______ _______ _____ _____    ______ ____

>  <TORSDO>
F 7

$$$$
=
 OpenBabel11042419253D

 40 44  0  0  1  0  0  0  0  0999 V2000
  190.7950  172.3220  136.7930 C   0  0  0  0  0  1  0  0  0  0  0  0
  193.5030  174.1430  140.4020 N   0  0  0  0  0  0  0  0  0  0  0  0
  194.3050  174.6220  143.0710 N   0  0  0  0  0  0  0  0  0  0  0  0
  195.0930  175.0600  141.9580 C   0  0  0  0  0  0  0  0  0  0  0  0
  193.2270  175.4680  143.5000 C   0  0  0  0  0  3  0  0  0  0  0  0
  193.2240  173.7440  136.6320 S   0  0  0  0  0  0  0  0  0  0  0  0
  194.1850  171.9480  145.7680 C   0  0  0  0  0  2  0  0  0  0  0  0
  193.6480  172.9880  144.8050 C   0  0  2  0  0  3  0  0  0  0  0  0
  194.7890  173.5330  143.9400 C   0  0  1  0  0  3  0  0  0  0  0  0
  196.7120  175.8020  139.8570 N   0  0  0  0  0  0  0  0  0  0  0  0
  195.3850  172.3890  143.1290 C   0  0  0  0  0  2  0  0  0  0  0  0
  195.9340  175.2920  137.1850 O   0  0  0  0  0  1  0  0  0  0  0  0
  196.2790  175.6850  142.1710 N   0  0  0  0  0  0  0  0  0  0  0  0
  193.1330  173.8780  139.1250 C   0  0  0  0  0  0  0  0  0  0  0  0
  194.6730  174.8090  140.6520 C   0  0  0  0  0  0  0  0  0  0  0  0
  191.9270  173.0220  137.4550 C   0  0  0  0  0  0  0  0  0  0  0  0
  193.9220  174.2750  138.0590 C   0  0  0  0  0  0  0  0  0  0  0  0
  192.9960  174.1290  145.5690 C   0  0  0  0  0  2  0  0  0  0  0  0
  192.5510  175.2270  144.6270 C   0  0  0  0  0  0  0  0  0  0  0  0
  195.5170  175.2100  139.5850 C   0  0  0  0  0  0  0  0  0  0  0  0
  192.0220  173.1710  138.8000 N   0  0  0  0  0  0  0  0  0  0  0  0
  197.0880  176.0460  141.1410 C   0  0  0  0  0  3  0  0  0  0  0  0
  194.7980  170.7980  144.9720 C   0  0  1  0  0  3  0  0  0  0  0  0
  195.1340  174.9360  138.2610 C   0  0  0  0  0  0  0  0  0  0  0  0
  195.9170  171.3120  144.0670 C   0  0  0  0  0  2  0  0  0  0  0  0
  191.5220  176.1450  145.0150 N   0  0  0  0  0  0  0  0  0  0  0  0
  190.2360  175.9160  144.9700 C   0  0  0  0  0  0  0  0  0  0  0  0
  188.0230  176.8080  145.2310 N   0  0  0  0  0  0  0  0  0  0  0  0
  189.2940  176.9390  145.4360 C   0  0  0  0  0  3  0  0  0  0  0  0
  186.3130  178.6560  144.7460 C   0  0  0  0  0  1  0  0  0  0  0  0
  186.8830  177.9000  146.9260 O   0  0  0  0  0  0  0  0  0  0  0  0
  187.0620  177.7660  145.6940 C   0  0  0  0  0  0  0  0  0  0  0  0
  189.6830  174.6640  144.3750 C   0  0  0  0  0  2  0  0  0  0  0  0
  189.4960  174.8360  142.9450 N   0  0  0  0  0  2  0  0  0  0  0  0
  190.0670  173.9320  142.0080 C   0  0  0  0  0  0  0  0  0  0  0  0
  190.9060  173.0780  142.3850 O   0  0  0  0  0  0  0  0  0  0  0  0
  189.6750  173.9960  140.6760 O   0  0  0  0  0  0  0  0  0  0  0  0
  188.5050  173.3430  140.2050 C   0  0  0  0  0  1  0  0  0  0  0  0
  195.4490  169.5330  146.1000 S   0  0  0  0  0  0  0  0  0  0  0  0
  197.1620  170.0040  145.7590 C   0  0  0  0  0  1  0  0  0  0  0  0
  1 16  1  0  0  0  0
  2 15  1  0  0  0  0
  3  5  1  0  0  0  0
  3  9  1  0  0  0  0
  4 13  1  0  0  0  0
  4  3  1  0  0  0  0
  5 19  2  0  0  0  0
  6 16  1  0  0  0  0
  6 17  1  0  0  0  0
  8 18  1  1  0  0  0
  8  7  1  0  0  0  0
  9 11  1  6  0  0  0
  9  8  1  0  0  0  0
 10 22  1  0  0  0  0
 11 25  1  0  0  0  0
 12 24  1  0  0  0  0
 14  2  2  0  0  0  0
 15  4  2  0  0  0  0
 16 21  2  0  0  0  0
 17 24  2  0  0  0  0
 17 14  1  0  0  0  0
 19 26  1  0  0  0  0
 19 18  1  0  0  0  0
 20 10  2  0  0  0  0
 20 15  1  0  0  0  0
 21 14  1  0  0  0  0
 22 13  2  0  0  0  0
 23  7  1  0  0  0  0
 23 39  1  1  0  0  0
 24 20  1  0  0  0  0
 25 23  1  0  0  0  0
 27 26  2  0  0  0  0
 27 29  1  0  0  0  0
 28 29  2  0  0  0  0
 28 32  1  0  0  0  0
 30 32  1  0  0  0  0
 32 31  2  0  0  0  0
 33 27  1  0  0  0  0
 34 33  1  0  0  0  0
 35 36  2  0  0  0  0
 35 34  1  0  0  0  0
 37 35  1  0  0  0  0
 38 37  1  0  0  0  0
 40 39  1  0  0  0  0
M  END
>  <MODEL>
5

>  <REMARK>
 VINA RESULT:      -6.1      2.844      6.160
  Name = 
  7 active torsions:
  status: ('A' for Active; 'I' for Inactive)
    1  A    between atoms: N_1  and  C_31
    2  A    between atoms: N_7  and  C_34
    3  A    between atoms: C_13  and  C_26
    4  A    between atoms: C_13  and  C_34
    5  A    between atoms: O_14  and  C_16
    6  A    between atoms: N_19  and  C_36
    7  A    between atoms: S_27  and  C_37
                            x       y       z     vdW  Elec       q    Type
                         _______ _______ _______ _____ _____    ______ ____

>  <TORSDO>
F 7

$$$$
=
 OpenBabel11042419253D

 40 44  0  0  1  0  0  0  0  0999 V2000
  191.9430  169.5060  143.8680 C   0  0  0  0  0  1  0  0  0  0  0  0
  191.1170  174.2980  143.7070 N   0  0  0  0  0  0  0  0  0  0  0  0
  189.5920  176.6760  143.5650 N   0  0  0  0  0  0  0  0  0  0  0  0
  191.0070  176.7010  143.7860 C   0  0  0  0  0  0  0  0  0  0  0  0
  189.1300  176.5860  142.2090 C   0  0  0  0  0  3  0  0  0  0  0  0
  193.7740  171.6250  144.1980 S   0  0  0  0  0  0  0  0  0  0  0  0
  186.2850  177.1140  145.3840 C   0  0  0  0  0  2  0  0  0  0  0  0
  187.2400  176.6100  144.3210 C   0  0  2  0  0  3  0  0  0  0  0  0
  188.6660  177.0660  144.6440 C   0  0  1  0  0  3  0  0  0  0  0  0
  193.7010  176.7990  144.3490 N   0  0  0  0  0  0  0  0  0  0  0  0
  189.0830  176.4750  145.9850 C   0  0  0  0  0  2  0  0  0  0  0  0
  195.2260  174.4220  144.5310 O   0  0  0  0  0  1  0  0  0  0  0  0
  191.6430  177.8860  143.9760 N   0  0  0  0  0  0  0  0  0  0  0  0
  191.8360  173.1540  143.8130 C   0  0  0  0  0  0  0  0  0  0  0  0
  191.7330  175.5130  143.8520 C   0  0  0  0  0  0  0  0  0  0  0  0
  192.2340  170.9630  143.9260 C   0  0  0  0  0  0  0  0  0  0  0  0
  193.1980  173.1920  144.0630 C   0  0  0  0  0  0  0  0  0  0  0  0
  186.8340  177.1340  142.9540 C   0  0  0  0  0  2  0  0  0  0  0  0
  187.8390  176.7280  141.8960 C   0  0  0  0  0  0  0  0  0  0  0  0
  193.1220  175.5870  144.1320 C   0  0  0  0  0  0  0  0  0  0  0  0
  191.2870  171.9170  143.7430 N   0  0  0  0  0  0  0  0  0  0  0  0
  192.9700  177.9420  144.2630 C   0  0  0  0  0  3  0  0  0  0  0  0
  186.6960  176.5400  146.7380 C   0  0  1  0  0  3  0  0  0  0  0  0
  193.8690  174.4020  144.2410 C   0  0  0  0  0  0  0  0  0  0  0  0
  188.1290  176.9440  147.0770 C   0  0  0  0  0  2  0  0  0  0  0  0
  187.4610  176.6770  140.5160 N   0  0  0  0  0  0  0  0  0  0  0  0
  186.5190  177.3880  139.9530 C   0  0  0  0  0  0  0  0  0  0  0  0
  186.6910  176.2260  137.8600 N   0  0  0  0  0  0  0  0  0  0  0  0
  186.2640  177.2570  138.5140 C   0  0  0  0  0  3  0  0  0  0  0  0
  187.5530  176.0310  135.4530 C   0  0  0  0  0  1  0  0  0  0  0  0
  185.2570  175.9380  136.0630 O   0  0  0  0  0  0  0  0  0  0  0  0
  186.4410  176.0410  136.4610 C   0  0  0  0  0  0  0  0  0  0  0  0
  185.6260  178.2770  140.7520 C   0  0  0  0  0  2  0  0  0  0  0  0
  184.2610  178.1750  140.2660 N   0  0  0  0  0  2  0  0  0  0  0  0
  183.1500  178.2900  141.1450 C   0  0  0  0  0  0  0  0  0  0  0  0
  183.3250  178.2900  142.3880 O   0  0  0  0  0  0  0  0  0  0  0  0
  181.8730  178.4190  140.6130 O   0  0  0  0  0  0  0  0  0  0  0  0
  180.7920  178.9420  141.3710 C   0  0  0  0  0  1  0  0  0  0  0  0
  185.5670  177.1250  148.0350 S   0  0  0  0  0  0  0  0  0  0  0  0
  185.1530  178.6200  147.1050 C   0  0  0  0  0  1  0  0  0  0  0  0
  1 16  1  0  0  0  0
  2 14  2  0  0  0  0
  2 15  1  0  0  0  0
  3  4  1  0  0  0  0
  3  9  1  0  0  0  0
  4 15  2  0  0  0  0
  4 13  1  0  0  0  0
  5  3  1  0  0  0  0
  7 23  1  0  0  0  0
  8 18  1  6  0  0  0
  8  9  1  0  0  0  0
  8  7  1  0  0  0  0
  9 11  1  1  0  0  0
 11 25  1  0  0  0  0
 13 22  2  0  0  0  0
 14 17  1  0  0  0  0
 15 20  1  0  0  0  0
 16  6  1  0  0  0  0
 17  6  1  0  0  0  0
 17 24  2  0  0  0  0
 19  5  2  0  0  0  0
 19 18  1  0  0  0  0
 20 24  1  0  0  0  0
 20 10  2  0  0  0  0
 21 14  1  0  0  0  0
 21 16  2  0  0  0  0
 22 10  1  0  0  0  0
 23 25  1  0  0  0  0
 23 39  1  1  0  0  0
 24 12  1  0  0  0  0
 26 19  1  0  0  0  0
 27 26  2  0  0  0  0
 27 33  1  0  0  0  0
 28 29  2  0  0  0  0
 29 27  1  0  0  0  0
 30 32  1  0  0  0  0
 31 32  2  0  0  0  0
 32 28  1  0  0  0  0
 34 33  1  0  0  0  0
 34 35  1  0  0  0  0
 35 36  2  0  0  0  0
 37 35  1  0  0  0  0
 37 38  1  0  0  0  0
 40 39  1  0  0  0  0
M  END
>  <MODEL>
6

>  <REMARK>
 VINA RESULT:      -5.6      4.342      7.659
  Name = 
  7 active torsions:
  status: ('A' for Active; 'I' for Inactive)
    1  A    between atoms: N_1  and  C_31
    2  A    between atoms: N_7  and  C_34
    3  A    between atoms: C_13  and  C_26
    4  A    between atoms: C_13  and  C_34
    5  A    between atoms: O_14  and  C_16
    6  A    between atoms: N_19  and  C_36
    7  A    between atoms: S_27  and  C_37
                            x       y       z     vdW  Elec       q    Type
                         _______ _______ _______ _____ _____    ______ ____

>  <TORSDO>
F 7

$$$$
=
 OpenBabel11042419253D

 40 44  0  0  1  0  0  0  0  0999 V2000
  190.7230  178.5440  144.1240 C   0  0  0  0  0  1  0  0  0  0  0  0
  191.9870  174.2210  142.2820 N   0  0  0  0  0  0  0  0  0  0  0  0
  193.7210  172.1270  141.5040 N   0  0  0  0  0  0  0  0  0  0  0  0
  192.2970  171.9850  141.4500 C   0  0  0  0  0  0  0  0  0  0  0  0
  194.3710  172.7540  140.3870 C   0  0  0  0  0  3  0  0  0  0  0  0
  189.0590  176.4240  143.2950 S   0  0  0  0  0  0  0  0  0  0  0  0
  196.7450  171.0870  143.5560 C   0  0  0  0  0  2  0  0  0  0  0  0
  195.9180  171.9460  142.6200 C   0  0  2  0  0  3  0  0  0  0  0  0
  194.5060  171.3660  142.4920 C   0  0  1  0  0  3  0  0  0  0  0  0
  189.5680  171.6100  141.4590 N   0  0  0  0  0  0  0  0  0  0  0  0
  193.8430  171.3730  143.8640 C   0  0  0  0  0  2  0  0  0  0  0  0
  187.8280  173.6880  142.2730 O   0  0  0  0  0  1  0  0  0  0  0  0
  191.7480  170.8060  141.0590 N   0  0  0  0  0  0  0  0  0  0  0  0
  191.1600  175.2150  142.6930 C   0  0  0  0  0  0  0  0  0  0  0  0
  191.4660  173.0340  141.8410 C   0  0  0  0  0  0  0  0  0  0  0  0
  190.5570  177.1750  143.5670 C   0  0  0  0  0  0  0  0  0  0  0  0
  189.7860  175.0500  142.6710 C   0  0  0  0  0  0  0  0  0  0  0  0
  196.5690  172.0110  141.2480 C   0  0  0  0  0  2  0  0  0  0  0  0
  195.7020  172.7770  140.2710 C   0  0  0  0  0  0  0  0  0  0  0  0
  190.0630  172.8230  141.8270 C   0  0  0  0  0  0  0  0  0  0  0  0
  191.6020  176.3920  143.1990 N   0  0  0  0  0  0  0  0  0  0  0  0
  190.4020  170.6100  141.0690 C   0  0  0  0  0  3  0  0  0  0  0  0
  196.0870  171.0730  144.9340 C   0  0  1  0  0  3  0  0  0  0  0  0
  189.2060  173.8520  142.2520 C   0  0  0  0  0  0  0  0  0  0  0  0
  194.6610  170.5340  144.8390 C   0  0  0  0  0  2  0  0  0  0  0  0
  196.2750  173.3760  139.1040 N   0  0  0  0  0  0  0  0  0  0  0  0
  196.5550  174.6440  138.9540 C   0  0  0  0  0  0  0  0  0  0  0  0
  196.4610  175.6430  136.7730 N   0  0  0  0  0  0  0  0  0  0  0  0
  197.1780  175.1130  137.7110 C   0  0  0  0  0  3  0  0  0  0  0  0
  196.5250  177.3990  134.9060 C   0  0  0  0  0  1  0  0  0  0  0  0
  197.9320  175.4850  134.9900 O   0  0  0  0  0  0  0  0  0  0  0  0
  197.0280  176.1440  135.5560 C   0  0  0  0  0  0  0  0  0  0  0  0
  196.1800  175.6570  139.9830 C   0  0  0  0  0  2  0  0  0  0  0  0
  197.2070  175.7280  141.0070 N   0  0  0  0  0  2  0  0  0  0  0  0
  196.9000  175.5390  142.3820 C   0  0  0  0  0  0  0  0  0  0  0  0
  195.7040  175.4980  142.7610 O   0  0  0  0  0  0  0  0  0  0  0  0
  197.9360  175.3840  143.2950 O   0  0  0  0  0  0  0  0  0  0  0  0
  197.8190  174.5340  144.4270 C   0  0  0  0  0  1  0  0  0  0  0  0
  197.0570  170.0520  146.0800 S   0  0  0  0  0  0  0  0  0  0  0  0
  195.5690  169.3380  146.8210 C   0  0  0  0  0  1  0  0  0  0  0  0
  2 14  2  0  0  0  0
  3  9  1  0  0  0  0
  4  3  1  0  0  0  0
  4 15  1  0  0  0  0
  5  3  1  0  0  0  0
  6 16  1  0  0  0  0
  7 23  1  0  0  0  0
  8 18  1  6  0  0  0
  8  7  1  0  0  0  0
  9  8  1  0  0  0  0
  9 11  1  1  0  0  0
 10 20  1  0  0  0  0
 11 25  1  0  0  0  0
 13 22  1  0  0  0  0
 13  4  2  0  0  0  0
 14 21  1  0  0  0  0
 15  2  1  0  0  0  0
 16  1  1  0  0  0  0
 17 14  1  0  0  0  0
 17  6  1  0  0  0  0
 19  5  2  0  0  0  0
 19 18  1  0  0  0  0
 20 15  2  0  0  0  0
 20 24  1  0  0  0  0
 21 16  2  0  0  0  0
 22 10  2  0  0  0  0
 23 39  1  1  0  0  0
 24 12  1  0  0  0  0
 24 17  2  0  0  0  0
 25 23  1  0  0  0  0
 26 19  1  0  0  0  0
 27 26  2  0  0  0  0
 27 33  1  0  0  0  0
 28 29  2  0  0  0  0
 29 27  1  0  0  0  0
 30 32  1  0  0  0  0
 31 32  2  0  0  0  0
 32 28  1  0  0  0  0
 33 34  1  0  0  0  0
 34 35  1  0  0  0  0
 35 36  2  0  0  0  0
 35 37  1  0  0  0  0
 37 38  1  0  0  0  0
 39 40  1  0  0  0  0
M  END
>  <MODEL>
7

>  <REMARK>
 VINA RESULT:      -5.2      3.784      8.392
  Name = 
  7 active torsions:
  status: ('A' for Active; 'I' for Inactive)
    1  A    between atoms: N_1  and  C_31
    2  A    between atoms: N_7  and  C_34
    3  A    between atoms: C_13  and  C_26
    4  A    between atoms: C_13  and  C_34
    5  A    between atoms: O_14  and  C_16
    6  A    between atoms: N_19  and  C_36
    7  A    between atoms: S_27  and  C_37
                            x       y       z     vdW  Elec       q    Type
                         _______ _______ _______ _____ _____    ______ ____

>  <TORSDO>
F 7

$$$$
=
 OpenBabel11042419253D

 40 44  0  0  1  0  0  0  0  0999 V2000
  186.1220  178.8130  140.9970 C   0  0  0  0  0  1  0  0  0  0  0  0
  188.8840  175.8730  143.7170 N   0  0  0  0  0  0  0  0  0  0  0  0
  191.0910  174.2230  144.3530 N   0  0  0  0  0  0  0  0  0  0  0  0
  190.1020  174.5670  145.3300 C   0  0  0  0  0  0  0  0  0  0  0  0
  190.8160  173.1090  143.4900 C   0  0  0  0  0  3  0  0  0  0  0  0
  185.8170  178.1180  143.7120 S   0  0  0  0  0  0  0  0  0  0  0  0
  194.6470  175.0420  143.2950 C   0  0  0  0  0  2  0  0  0  0  0  0
  193.2130  174.5800  143.1370 C   0  0  2  0  0  3  0  0  0  0  0  0
  192.4580  174.7660  144.4570 C   0  0  1  0  0  3  0  0  0  0  0  0
  188.3050  175.3120  147.2800 N   0  0  0  0  0  0  0  0  0  0  0  0
  192.4500  176.2470  144.8170 C   0  0  0  0  0  2  0  0  0  0  0  0
  186.1160  176.9940  146.6600 O   0  0  0  0  0  1  0  0  0  0  0  0
  190.2340  174.1340  146.6100 N   0  0  0  0  0  0  0  0  0  0  0  0
  187.8490  176.6960  143.4170 C   0  0  0  0  0  0  0  0  0  0  0  0
  189.0250  175.3840  144.9890 C   0  0  0  0  0  0  0  0  0  0  0  0
  186.5870  178.0750  142.2000 C   0  0  0  0  0  0  0  0  0  0  0  0
  186.9200  177.0510  144.3810 C   0  0  0  0  0  0  0  0  0  0  0  0
  193.1710  173.1170  142.7270 C   0  0  0  0  0  2  0  0  0  0  0  0
  191.7450  172.6100  142.6690 C   0  0  0  0  0  0  0  0  0  0  0  0
  188.1050  175.7460  146.0070 C   0  0  0  0  0  0  0  0  0  0  0  0
  187.6780  177.2680  142.2000 N   0  0  0  0  0  0  0  0  0  0  0  0
  189.3570  174.5040  147.5810 C   0  0  0  0  0  3  0  0  0  0  0  0
  194.6570  176.5230  143.6690 C   0  0  1  0  0  3  0  0  0  0  0  0
  187.0320  176.5980  145.6960 C   0  0  0  0  0  0  0  0  0  0  0  0
  193.8800  176.7520  144.9640 C   0  0  0  0  0  2  0  0  0  0  0  0
  191.4120  171.4650  141.8760 N   0  0  0  0  0  0  0  0  0  0  0  0
  191.1860  171.4670  140.5880 C   0  0  0  0  0  0  0  0  0  0  0  0
  191.3760  169.9710  138.7210 N   0  0  0  0  0  0  0  0  0  0  0  0
  190.8900  170.2080  139.8960 C   0  0  0  0  0  3  0  0  0  0  0  0
  192.1500  168.1660  137.0730 C   0  0  0  0  0  1  0  0  0  0  0  0
  190.0360  168.1660  138.1590 O   0  0  0  0  0  0  0  0  0  0  0  0
  191.1390  168.7430  138.0190 C   0  0  0  0  0  0  0  0  0  0  0  0
  191.1340  172.7340  139.8030 C   0  0  0  0  0  2  0  0  0  0  0  0
  189.8860  172.8100  139.0650 N   0  0  0  0  0  2  0  0  0  0  0  0
  188.8460  173.6980  139.4550 C   0  0  0  0  0  0  0  0  0  0  0  0
  188.9060  174.2950  140.5570 O   0  0  0  0  0  0  0  0  0  0  0  0
  187.7730  173.9070  138.5960 O   0  0  0  0  0  0  0  0  0  0  0  0
  187.7830  174.9380  137.6200 C   0  0  0  0  0  1  0  0  0  0  0  0
  196.3650  177.1070  143.8640 S   0  0  0  0  0  0  0  0  0  0  0  0
  196.8280  176.5410  142.2100 C   0  0  0  0  0  1  0  0  0  0  0  0
  1 16  1  0  0  0  0
  2 15  1  0  0  0  0
  3  9  1  0  0  0  0
  3  4  1  0  0  0  0
  4 13  1  0  0  0  0
  5  3  1  0  0  0  0
  6 17  1  0  0  0  0
  7 23  1  0  0  0  0
  8 18  1  1  0  0  0
  8  7  1  0  0  0  0
  8  9  1  0  0  0  0
  9 11  1  6  0  0  0
 10 22  1  0  0  0  0
 11 25  1  0  0  0  0
 13 22  2  0  0  0  0
 14  2  2  0  0  0  0
 14 17  1  0  0  0  0
 15  4  2  0  0  0  0
 15 20  1  0  0  0  0
 16 21  2  0  0  0  0
 16  6  1  0  0  0  0
 17 24  2  0  0  0  0
 19 18  1  0  0  0  0
 19  5  2  0  0  0  0
 20 10  2  0  0  0  0
 21 14  1  0  0  0  0
 23 39  1  1  0  0  0
 23 25  1  0  0  0  0
 24 20  1  0  0  0  0
 24 12  1  0  0  0  0
 26 19  1  0  0  0  0
 27 26  2  0  0  0  0
 28 29  2  0  0  0  0
 29 27  1  0  0  0  0
 30 32  1  0  0  0  0
 32 31  2  0  0  0  0
 32 28  1  0  0  0  0
 33 27  1  0  0  0  0
 34 35  1  0  0  0  0
 34 33  1  0  0  0  0
 35 36  2  0  0  0  0
 37 35  1  0  0  0  0
 38 37  1  0  0  0  0
 40 39  1  0  0  0  0
M  END
>  <MODEL>
8

>  <REMARK>
 VINA RESULT:      -5.1      3.477      8.554
  Name = 
  7 active torsions:
  status: ('A' for Active; 'I' for Inactive)
    1  A    between atoms: N_1  and  C_31
    2  A    between atoms: N_7  and  C_34
    3  A    between atoms: C_13  and  C_26
    4  A    between atoms: C_13  and  C_34
    5  A    between atoms: O_14  and  C_16
    6  A    between atoms: N_19  and  C_36
    7  A    between atoms: S_27  and  C_37
                            x       y       z     vdW  Elec       q    Type
                         _______ _______ _______ _____ _____    ______ ____

>  <TORSDO>
F 7

$$$$
=
 OpenBabel11042419253D

 40 44  0  0  1  0  0  0  0  0999 V2000
  192.0200  169.7650  144.3310 C   0  0  0  0  0  1  0  0  0  0  0  0
  190.8600  174.4330  143.5970 N   0  0  0  0  0  0  0  0  0  0  0  0
  189.1910  176.6450  143.0290 N   0  0  0  0  0  0  0  0  0  0  0  0
  190.5570  176.8140  143.4240 C   0  0  0  0  0  0  0  0  0  0  0  0
  188.9250  176.3970  141.6400 C   0  0  0  0  0  3  0  0  0  0  0  0
  193.6220  172.0590  144.6820 S   0  0  0  0  0  0  0  0  0  0  0  0
  185.6450  176.9440  144.3580 C   0  0  0  0  0  2  0  0  0  0  0  0
  186.7710  176.4360  143.4800 C   0  0  2  0  0  3  0  0  0  0  0  0
  188.1010  177.0440  143.9370 C   0  0  1  0  0  3  0  0  0  0  0  0
  193.1350  177.2000  144.3140 N   0  0  0  0  0  0  0  0  0  0  0  0
  188.3760  176.6110  145.3720 C   0  0  0  0  0  2  0  0  0  0  0  0
  194.7980  174.9920  144.9220 O   0  0  0  0  0  1  0  0  0  0  0  0
  191.0690  178.0630  143.5770 N   0  0  0  0  0  0  0  0  0  0  0  0
  191.6440  173.3710  143.9050 C   0  0  0  0  0  0  0  0  0  0  0  0
  191.3570  175.7060  143.7000 C   0  0  0  0  0  0  0  0  0  0  0  0
  192.1890  171.2420  144.2820 C   0  0  0  0  0  0  0  0  0  0  0  0
  192.9520  173.5510  144.3220 C   0  0  0  0  0  0  0  0  0  0  0  0
  186.5140  176.8020  142.0280 C   0  0  0  0  0  2  0  0  0  0  0  0
  187.6810  176.3960  141.1520 C   0  0  0  0  0  0  0  0  0  0  0  0
  192.6850  175.9270  144.1460 C   0  0  0  0  0  0  0  0  0  0  0  0
  191.2050  172.0880  143.8880 N   0  0  0  0  0  0  0  0  0  0  0  0
  192.3370  178.2620  144.0250 C   0  0  0  0  0  3  0  0  0  0  0  0
  185.9110  176.5290  145.8040 C   0  0  1  0  0  3  0  0  0  0  0  0
  193.4980  174.8260  144.4650 C   0  0  0  0  0  0  0  0  0  0  0  0
  187.2500  177.0870  146.2810 C   0  0  0  0  0  2  0  0  0  0  0  0
  187.4990  176.1910  139.7470 N   0  0  0  0  0  0  0  0  0  0  0  0
  187.6910  175.0680  139.1060 C   0  0  0  0  0  0  0  0  0  0  0  0
  187.3100  176.0710  136.9590 N   0  0  0  0  0  0  0  0  0  0  0  0
  187.4280  174.9930  137.6650 C   0  0  0  0  0  3  0  0  0  0  0  0
  185.7520  176.4010  134.9500 C   0  0  0  0  0  1  0  0  0  0  0  0
  188.0070  175.6700  134.7860 O   0  0  0  0  0  0  0  0  0  0  0  0
  187.0840  176.0480  135.5440 C   0  0  0  0  0  0  0  0  0  0  0  0
  188.2570  173.8650  139.7850 C   0  0  0  0  0  2  0  0  0  0  0  0
  189.2200  173.2120  138.9160 N   0  0  0  0  0  2  0  0  0  0  0  0
  190.5970  173.1330  139.2600 C   0  0  0  0  0  0  0  0  0  0  0  0
  191.0440  173.7950  140.2280 O   0  0  0  0  0  0  0  0  0  0  0  0
  191.4350  172.3060  138.5220 O   0  0  0  0  0  0  0  0  0  0  0  0
  191.2280  172.0690  137.1370 C   0  0  0  0  0  1  0  0  0  0  0  0
  184.5760  177.1230  146.8820 S   0  0  0  0  0  0  0  0  0  0  0  0
  184.3290  178.6110  145.8830 C   0  0  0  0  0  1  0  0  0  0  0  0
  2 15  1  0  0  0  0
  2 14  2  0  0  0  0
  3  4  1  0  0  0  0
  3  9  1  0  0  0  0
  4 13  2  0  0  0  0
  4 15  1  0  0  0  0
  5  3  1  0  0  0  0
  7 23  1  0  0  0  0
  8 18  1  6  0  0  0
  8  9  1  0  0  0  0
  8  7  1  0  0  0  0
  9 11  1  1  0  0  0
 11 25  1  0  0  0  0
 13 22  1  0  0  0  0
 14 17  1  0  0  0  0
 15 20  2  0  0  0  0
 16  1  1  0  0  0  0
 16  6  1  0  0  0  0
 17 24  2  0  0  0  0
 17  6  1  0  0  0  0
 19  5  2  0  0  0  0
 19 18  1  0  0  0  0
 20 10  1  0  0  0  0
 20 24  1  0  0  0  0
 21 14  1  0  0  0  0
 21 16  2  0  0  0  0
 22 10  2  0  0  0  0
 23 25  1  0  0  0  0
 23 39  1  1  0  0  0
 24 12  1  0  0  0  0
 26 19  1  0  0  0  0
 27 26  2  0  0  0  0
 27 33  1  0  0  0  0
 28 29  2  0  0  0  0
 29 27  1  0  0  0  0
 30 32  1  0  0  0  0
 31 32  2  0  0  0  0
 32 28  1  0  0  0  0
 34 35  1  0  0  0  0
 34 33  1  0  0  0  0
 35 36  2  0  0  0  0
 37 35  1  0  0  0  0
 38 37  1  0  0  0  0
 40 39  1  0  0  0  0
M  END
>  <MODEL>
9

>  <REMARK>
 VINA RESULT:      -5.1      3.728      7.283
  Name = 
  7 active torsions:
  status: ('A' for Active; 'I' for Inactive)
    1  A    between atoms: N_1  and  C_31
    2  A    between atoms: N_7  and  C_34
    3  A    between atoms: C_13  and  C_26
    4  A    between atoms: C_13  and  C_34
    5  A    between atoms: O_14  and  C_16
    6  A    between atoms: N_19  and  C_36
    7  A    between atoms: S_27  and  C_37
                            x       y       z     vdW  Elec       q    Type
                         _______ _______ _______ _____ _____    ______ ____

>  <TORSDO>
F 7

$$$$
