=
 OpenBabel11042418193D

 35 38  0  0  1  0  0  0  0  0999 V2000
  183.9270  178.8970  144.7430 C   0  0  0  0  0  3  0  0  0  0  0  0
  186.3250  178.8990  145.2340 C   0  0  2  0  0  3  0  0  0  0  0  0
  186.0300  178.7660  146.6650 C   0  0  0  0  0  3  0  0  0  0  0  0
  185.7340  178.7870  142.9880 C   0  0  0  0  0  2  0  0  0  0  0  0
  186.9280  178.2310  143.1770 C   0  0  0  0  0  0  0  0  0  0  0  0
  183.7050  178.6280  146.0030 N   0  0  0  0  0  0  0  0  0  0  0  0
  184.7410  178.6610  147.0100 C   0  0  0  0  0  3  0  0  0  0  0  0
  185.2780  179.3800  144.2860 C   0  0  1  0  0  3  0  0  0  0  0  0
  187.3060  178.2900  144.5860 C   0  0  0  0  0  0  0  0  0  0  0  0
  190.5270  176.2220  144.9300 C   0  0  2  0  0  3  0  0  0  0  0  0
  189.9980  177.8360  144.3530 S   0  0  0  0  0  0  0  0  0  0  0  0
  189.5470  175.4360  145.3510 C   0  0  0  0  0  2  0  0  0  0  0  0
  188.1970  176.0490  145.2670 C   0  0  0  0  0  2  0  0  0  0  0  0
  188.4360  177.5540  145.2400 C   0  0  2  0  0  3  0  0  0  0  0  0
  192.3740  175.0040  146.0710 C   0  0  0  0  0  3  0  0  0  0  0  0
  191.9520  175.8500  145.0380 C   0  0  0  0  0  0  0  0  0  0  0  0
  194.2390  175.9380  144.2120 C   0  0  0  0  0  0  0  0  0  0  0  0
  192.8950  176.3140  144.1100 C   0  0  0  0  0  3  0  0  0  0  0  0
  195.1560  176.4180  143.2840 O   0  0  0  0  0  1  0  0  0  0  0  0
  193.7150  174.6210  146.1710 C   0  0  0  0  0  3  0  0  0  0  0  0
  194.6550  175.0820  145.2400 C   0  0  0  0  0  0  0  0  0  0  0  0
  196.0310  174.6990  145.3360 N   0  0  0  0  0  2  0  0  0  0  0  0
  196.5200  173.3930  144.9180 C   0  0  0  0  0  2  0  0  0  0  0  0
  196.8050  172.5430  146.1400 C   0  0  0  0  0  1  0  0  0  0  0  0
  187.6680  177.5310  142.1730 N   0  0  0  0  0  2  0  0  0  0  0  0
  187.1570  176.3410  141.5170 C   0  0  0  0  0  2  0  0  0  0  0  0
  188.0460  175.1600  141.8490 C   0  0  0  0  0  2  0  0  0  0  0  0
  188.5510  174.5370  140.5660 C   0  0  0  0  0  2  0  0  0  0  0  0
  190.4520  173.9220  142.1030 N   0  0  0  0  0  2  0  0  0  0  0  0
  189.8560  173.8670  140.8050 C   0  0  0  0  0  0  0  0  0  0  0  0
  190.4380  173.2790  139.8550 O   0  0  0  0  0  0  0  0  0  0  0  0
  191.6840  173.2180  142.4320 C   0  0  0  0  0  2  0  0  0  0  0  0
  191.4880  172.3750  143.6500 C   0  0  0  0  0  0  0  0  0  0  0  0
  190.3040  172.1590  144.0920 N   0  0  0  0  0  2  0  0  0  0  0  0
  192.6430  171.6640  144.2570 C   0  0  0  0  0  1  0  0  0  0  0  0
  1  6  2  0  0  0  0
  2  3  1  1  0  0  0
  3  7  2  0  0  0  0
  4  5  1  0  0  0  0
  5  9  2  0  0  0  0
  6  7  1  0  0  0  0
  8  4  1  6  0  0  0
  8  1  1  0  0  0  0
  8  2  1  0  0  0  0
  9  2  1  0  0  0  0
 10 16  1  1  0  0  0
 10 12  1  0  0  0  0
 11 10  1  0  0  0  0
 11 14  1  0  0  0  0
 13 12  1  0  0  0  0
 14  9  1  6  0  0  0
 14 13  1  0  0  0  0
 15 20  1  0  0  0  0
 16 15  2  0  0  0  0
 17 21  1  0  0  0  0
 18 17  2  0  0  0  0
 18 16  1  0  0  0  0
 19 17  1  0  0  0  0
 21 22  1  0  0  0  0
 21 20  2  0  0  0  0
 23 22  1  0  0  0  0
 23 24  1  0  0  0  0
 25  5  1  0  0  0  0
 26 27  1  0  0  0  0
 26 25  1  0  0  0  0
 28 30  1  0  0  0  0
 28 27  1  0  0  0  0
 29 32  1  0  0  0  0
 30 29  1  0  0  0  0
 31 30  2  0  0  0  0
 32 33  1  0  0  0  0
 33 34  2  0  0  0  0
 33 35  1  0  0  0  0
M  END
>  <MODEL>
1

>  <REMARK>
 VINA RESULT:      -6.8      0.000      0.000
  Name = 
  11 active torsions:
  status: ('A' for Active; 'I' for Inactive)
    1  A    between atoms: C_3  and  C_8
    2  A    between atoms: C_4  and  N_9
    3  A    between atoms: N_6  and  C_26
    4  A    between atoms: C_7  and  C_30
    5  A    between atoms: N_9  and  C_25
    6  A    between atoms: C_12  and  C_17
    7  A    between atoms: C_12  and  N_19
    8  A    between atoms: C_14  and  C_26
    9  A    between atoms: C_17  and  C_30
   10  A    between atoms: N_19  and  C_27
   11  A    between atoms: C_32  and  C_35
                            x       y       z     vdW  Elec       q    Type
                         _______ _______ _______ _____ _____    ______ ____

>  <TORSDO>
F 11

$$$$
=
 OpenBabel11042418193D

 35 38  0  0  1  0  0  0  0  0999 V2000
  184.7310  178.0740  145.9130 C   0  0  0  0  0  3  0  0  0  0  0  0
  186.3860  176.9040  144.5400 C   0  0  2  0  0  3  0  0  0  0  0  0
  185.8540  177.5620  143.3420 C   0  0  0  0  0  3  0  0  0  0  0  0
  186.6280  176.6980  146.8440 C   0  0  0  0  0  2  0  0  0  0  0  0
  187.8050  176.5410  146.2430 C   0  0  0  0  0  0  0  0  0  0  0  0
  184.3840  178.7540  144.8520 N   0  0  0  0  0  0  0  0  0  0  0  0
  184.8620  178.4410  143.5240 C   0  0  0  0  0  3  0  0  0  0  0  0
  185.5730  176.8310  145.7890 C   0  0  1  0  0  3  0  0  0  0  0  0
  187.6650  176.6750  144.7950 C   0  0  0  0  0  0  0  0  0  0  0  0
  191.1420  176.2880  143.2050 C   0  0  2  0  0  3  0  0  0  0  0  0
  189.7240  175.2810  143.6440 S   0  0  0  0  0  0  0  0  0  0  0  0
  191.0370  177.5670  143.5340 C   0  0  0  0  0  2  0  0  0  0  0  0
  189.7580  177.9190  144.2000 C   0  0  0  0  0  2  0  0  0  0  0  0
  188.7760  176.8240  143.8000 C   0  0  2  0  0  3  0  0  0  0  0  0
  192.1270  174.5740  141.6910 C   0  0  0  0  0  3  0  0  0  0  0  0
  192.2810  175.7530  142.4310 C   0  0  0  0  0  0  0  0  0  0  0  0
  194.5810  175.9090  141.6520 C   0  0  0  0  0  0  0  0  0  0  0  0
  193.5160  176.4150  142.4060 C   0  0  0  0  0  3  0  0  0  0  0  0
  195.7980  176.5800  141.6500 O   0  0  0  0  0  1  0  0  0  0  0  0
  193.1870  174.0690  140.9320 C   0  0  0  0  0  3  0  0  0  0  0  0
  194.4190  174.7350  140.9050 C   0  0  0  0  0  0  0  0  0  0  0  0
  195.5120  174.2240  140.1340 N   0  0  0  0  0  2  0  0  0  0  0  0
  195.6670  174.4870  138.7100 C   0  0  0  0  0  2  0  0  0  0  0  0
  196.9910  175.1810  138.4630 C   0  0  0  0  0  1  0  0  0  0  0  0
  189.0570  176.4190  146.9230 N   0  0  0  0  0  2  0  0  0  0  0  0
  189.6090  175.1340  147.3100 C   0  0  0  0  0  2  0  0  0  0  0  0
  191.0340  175.3200  147.7900 C   0  0  0  0  0  2  0  0  0  0  0  0
  191.6730  176.4630  147.0310 C   0  0  0  0  0  2  0  0  0  0  0  0
  193.2190  174.8710  145.8350 N   0  0  0  0  0  2  0  0  0  0  0  0
  193.0360  176.0760  146.5810 C   0  0  0  0  0  0  0  0  0  0  0  0
  194.0210  176.8010  146.8830 O   0  0  0  0  0  0  0  0  0  0  0  0
  194.5100  174.4740  145.2890 C   0  0  0  0  0  2  0  0  0  0  0  0
  194.3860  173.1720  144.5650 C   0  0  0  0  0  0  0  0  0  0  0  0
  193.2720  172.5390  144.5790 N   0  0  0  0  0  2  0  0  0  0  0  0
  195.4980  172.6900  143.7070 C   0  0  0  0  0  1  0  0  0  0  0  0
  2  3  1  1  0  0  0
  2  9  1  0  0  0  0
  2  8  1  0  0  0  0
  3  7  2  0  0  0  0
  5  4  1  0  0  0  0
  5 25  1  0  0  0  0
  6  1  2  0  0  0  0
  7  6  1  0  0  0  0
  8  1  1  1  0  0  0
  8  4  1  0  0  0  0
  9  5  2  0  0  0  0
 10 16  1  6  0  0  0
 10 12  1  0  0  0  0
 10 11  1  0  0  0  0
 11 14  1  0  0  0  0
 12 13  1  0  0  0  0
 14 13  1  0  0  0  0
 14  9  1  1  0  0  0
 15 16  1  0  0  0  0
 17 18  1  0  0  0  0
 18 16  2  0  0  0  0
 19 17  1  0  0  0  0
 20 15  2  0  0  0  0
 21 20  1  0  0  0  0
 21 17  2  0  0  0  0
 22 21  1  0  0  0  0
 23 22  1  0  0  0  0
 24 23  1  0  0  0  0
 25 26  1  0  0  0  0
 26 27  1  0  0  0  0
 28 27  1  0  0  0  0
 29 30  1  0  0  0  0
 30 31  2  0  0  0  0
 30 28  1  0  0  0  0
 32 29  1  0  0  0  0
 33 34  2  0  0  0  0
 33 32  1  0  0  0  0
 35 33  1  0  0  0  0
M  END
>  <MODEL>
2

>  <REMARK>
 VINA RESULT:      -6.7      2.707      4.431
  Name = 
  11 active torsions:
  status: ('A' for Active; 'I' for Inactive)
    1  A    between atoms: C_3  and  C_8
    2  A    between atoms: C_4  and  N_9
    3  A    between atoms: N_6  and  C_26
    4  A    between atoms: C_7  and  C_30
    5  A    between atoms: N_9  and  C_25
    6  A    between atoms: C_12  and  C_17
    7  A    between atoms: C_12  and  N_19
    8  A    between atoms: C_14  and  C_26
    9  A    between atoms: C_17  and  C_30
   10  A    between atoms: N_19  and  C_27
   11  A    between atoms: C_32  and  C_35
                            x       y       z     vdW  Elec       q    Type
                         _______ _______ _______ _____ _____    ______ ____

>  <TORSDO>
F 11

$$$$
=
 OpenBabel11042418193D

 35 38  0  0  1  0  0  0  0  0999 V2000
  196.5150  174.9390  143.9140 C   0  0  0  0  0  3  0  0  0  0  0  0
  194.6320  176.1950  142.9840 C   0  0  2  0  0  3  0  0  0  0  0  0
  194.9000  175.6140  141.6640 C   0  0  0  0  0  3  0  0  0  0  0  0
  194.8660  176.2530  145.2970 C   0  0  0  0  0  2  0  0  0  0  0  0
  193.5940  176.4480  144.9590 C   0  0  0  0  0  0  0  0  0  0  0  0
  196.6310  174.3280  142.7650 N   0  0  0  0  0  0  0  0  0  0  0  0
  195.8970  174.7250  141.5840 C   0  0  0  0  0  3  0  0  0  0  0  0
  195.6830  176.1870  144.0430 C   0  0  1  0  0  3  0  0  0  0  0  0
  193.4350  176.4070  143.5080 C   0  0  0  0  0  0  0  0  0  0  0  0
  189.6690  176.6640  142.7880 C   0  0  2  0  0  3  0  0  0  0  0  0
  191.0650  177.7330  143.1440 S   0  0  0  0  0  0  0  0  0  0  0  0
  189.9470  175.3690  142.7940 C   0  0  0  0  0  2  0  0  0  0  0  0
  191.3670  175.0540  143.0890 C   0  0  0  0  0  2  0  0  0  0  0  0
  192.1430  176.3220  142.7530 C   0  0  2  0  0  3  0  0  0  0  0  0
  187.7230  176.7350  141.2370 C   0  0  0  0  0  3  0  0  0  0  0  0
  188.3460  177.1960  142.4030 C   0  0  0  0  0  0  0  0  0  0  0  0
  186.4240  178.6260  142.8310 C   0  0  0  0  0  0  0  0  0  0  0  0
  187.6860  178.1450  143.1960 C   0  0  0  0  0  3  0  0  0  0  0  0
  185.7940  179.5720  143.6300 O   0  0  0  0  0  1  0  0  0  0  0  0
  186.4590  177.2080  140.8720 C   0  0  0  0  0  3  0  0  0  0  0  0
  185.8000  178.1530  141.6690 C   0  0  0  0  0  0  0  0  0  0  0  0
  184.5070  178.6480  141.3030 N   0  0  0  0  0  2  0  0  0  0  0  0
  183.6710  178.0080  140.2980 C   0  0  0  0  0  2  0  0  0  0  0  0
  182.2100  178.2360  140.6320 C   0  0  0  0  0  1  0  0  0  0  0  0
  192.5090  176.5270  145.8870 N   0  0  0  0  0  2  0  0  0  0  0  0
  192.3680  175.6060  147.0000 C   0  0  0  0  0  2  0  0  0  0  0  0
  190.9320  175.6150  147.4830 C   0  0  0  0  0  2  0  0  0  0  0  0
  190.1860  176.7530  146.8210 C   0  0  0  0  0  2  0  0  0  0  0  0
  187.7140  177.1670  147.0840 N   0  0  0  0  0  2  0  0  0  0  0  0
  188.7750  176.3590  146.5710 C   0  0  0  0  0  0  0  0  0  0  0  0
  188.5260  175.3020  145.9320 O   0  0  0  0  0  0  0  0  0  0  0  0
  186.3100  176.8910  146.8060 C   0  0  0  0  0  2  0  0  0  0  0  0
  185.4870  178.1160  147.0370 C   0  0  0  0  0  0  0  0  0  0  0  0
  185.9440  179.0620  147.7710 N   0  0  0  0  0  2  0  0  0  0  0  0
  184.2130  178.3060  146.2970 C   0  0  0  0  0  1  0  0  0  0  0  0
  2  3  1  1  0  0  0
  2  9  1  0  0  0  0
  2  8  1  0  0  0  0
  5  4  1  0  0  0  0
  5 25  1  0  0  0  0
  6  1  2  0  0  0  0
  7  3  2  0  0  0  0
  7  6  1  0  0  0  0
  8  1  1  1  0  0  0
  8  4  1  0  0  0  0
  9  5  2  0  0  0  0
 10 16  1  6  0  0  0
 10 12  1  0  0  0  0
 10 11  1  0  0  0  0
 12 13  1  0  0  0  0
 14 13  1  0  0  0  0
 14 11  1  0  0  0  0
 14  9  1  1  0  0  0
 15 16  1  0  0  0  0
 16 18  2  0  0  0  0
 17 18  1  0  0  0  0
 17 19  1  0  0  0  0
 20 15  2  0  0  0  0
 20 21  1  0  0  0  0
 21 17  2  0  0  0  0
 22 21  1  0  0  0  0
 23 24  1  0  0  0  0
 23 22  1  0  0  0  0
 25 26  1  0  0  0  0
 26 27  1  0  0  0  0
 28 27  1  0  0  0  0
 30 28  1  0  0  0  0
 30 29  1  0  0  0  0
 31 30  2  0  0  0  0
 32 33  1  0  0  0  0
 32 29  1  0  0  0  0
 33 34  2  0  0  0  0
 35 33  1  0  0  0  0
M  END
>  <MODEL>
3

>  <REMARK>
 VINA RESULT:      -6.7      2.862      9.027
  Name = 
  11 active torsions:
  status: ('A' for Active; 'I' for Inactive)
    1  A    between atoms: C_3  and  C_8
    2  A    between atoms: C_4  and  N_9
    3  A    between atoms: N_6  and  C_26
    4  A    between atoms: C_7  and  C_30
    5  A    between atoms: N_9  and  C_25
    6  A    between atoms: C_12  and  C_17
    7  A    between atoms: C_12  and  N_19
    8  A    between atoms: C_14  and  C_26
    9  A    between atoms: C_17  and  C_30
   10  A    between atoms: N_19  and  C_27
   11  A    between atoms: C_32  and  C_35
                            x       y       z     vdW  Elec       q    Type
                         _______ _______ _______ _____ _____    ______ ____

>  <TORSDO>
F 11

$$$$
=
 OpenBabel11042418193D

 35 38  0  0  1  0  0  0  0  0999 V2000
  196.2020  172.4070  144.4350 C   0  0  0  0  0  3  0  0  0  0  0  0
  194.4500  173.6700  145.5880 C   0  0  2  0  0  3  0  0  0  0  0  0
  195.3580  174.8150  145.7070 C   0  0  0  0  0  3  0  0  0  0  0  0
  193.8150  171.6290  144.6710 C   0  0  0  0  0  2  0  0  0  0  0  0
  192.7660  172.4440  144.7470 C   0  0  0  0  0  0  0  0  0  0  0  0
  196.9290  173.4930  144.4240 N   0  0  0  0  0  0  0  0  0  0  0  0
  196.5690  174.6900  145.1510 C   0  0  0  0  0  3  0  0  0  0  0  0
  194.9860  172.3030  145.3180 C   0  0  1  0  0  3  0  0  0  0  0  0
  193.1560  173.7320  145.3170 C   0  0  0  0  0  0  0  0  0  0  0  0
  190.0790  176.0210  145.0680 C   0  0  2  0  0  3  0  0  0  0  0  0
  190.7210  174.7090  146.1080 S   0  0  0  0  0  0  0  0  0  0  0  0
  190.8360  176.3200  144.0220 C   0  0  0  0  0  2  0  0  0  0  0  0
  192.0760  175.5110  143.9200 C   0  0  0  0  0  2  0  0  0  0  0  0
  192.3390  174.9880  145.3270 C   0  0  2  0  0  3  0  0  0  0  0  0
  188.4820  177.8820  144.6380 C   0  0  0  0  0  3  0  0  0  0  0  0
  188.8640  176.7840  145.4190 C   0  0  0  0  0  0  0  0  0  0  0  0
  186.9100  177.1380  146.8250 C   0  0  0  0  0  0  0  0  0  0  0  0
  188.0700  176.4190  146.5150 C   0  0  0  0  0  3  0  0  0  0  0  0
  186.1430  176.7610  147.9210 O   0  0  0  0  0  1  0  0  0  0  0  0
  187.3200  178.5980  144.9410 C   0  0  0  0  0  3  0  0  0  0  0  0
  186.5250  178.2290  146.0340 C   0  0  0  0  0  0  0  0  0  0  0  0
  185.3360  178.9580  146.3560 N   0  0  0  0  0  2  0  0  0  0  0  0
  184.0420  178.6670  145.7550 C   0  0  0  0  0  2  0  0  0  0  0  0
  184.0650  179.0540  144.2900 C   0  0  0  0  0  1  0  0  0  0  0  0
  191.4740  172.1620  144.2040 N   0  0  0  0  0  2  0  0  0  0  0  0
  191.2770  171.2320  143.1070 C   0  0  0  0  0  2  0  0  0  0  0  0
  190.2880  171.8170  142.1200 C   0  0  0  0  0  2  0  0  0  0  0  0
  189.4930  172.9130  142.7960 C   0  0  0  0  0  2  0  0  0  0  0  0
  188.4060  175.0750  142.0910 N   0  0  0  0  0  2  0  0  0  0  0  0
  188.7910  173.7350  141.7760 C   0  0  0  0  0  0  0  0  0  0  0  0
  188.5190  173.2360  140.6520 O   0  0  0  0  0  0  0  0  0  0  0  0
  187.7930  175.9660  141.1150 C   0  0  0  0  0  2  0  0  0  0  0  0
  186.6650  176.7200  141.7410 C   0  0  0  0  0  0  0  0  0  0  0  0
  186.0640  176.2360  142.7650 N   0  0  0  0  0  2  0  0  0  0  0  0
  186.3410  178.0940  141.2770 C   0  0  0  0  0  1  0  0  0  0  0  0
  2  3  1  6  0  0  0
  4  5  1  0  0  0  0
  4  8  1  0  0  0  0
  5  9  2  0  0  0  0
  6  1  2  0  0  0  0
  6  7  1  0  0  0  0
  7  3  2  0  0  0  0
  8  1  1  6  0  0  0
  8  2  1  0  0  0  0
  9  2  1  0  0  0  0
 10 16  1  1  0  0  0
 10 11  1  0  0  0  0
 12 10  1  0  0  0  0
 13 12  1  0  0  0  0
 13 14  1  0  0  0  0
 14  9  1  6  0  0  0
 14 11  1  0  0  0  0
 15 20  2  0  0  0  0
 15 16  1  0  0  0  0
 16 18  2  0  0  0  0
 17 19  1  0  0  0  0
 18 17  1  0  0  0  0
 20 21  1  0  0  0  0
 21 22  1  0  0  0  0
 21 17  2  0  0  0  0
 23 22  1  0  0  0  0
 24 23  1  0  0  0  0
 25  5  1  0  0  0  0
 26 25  1  0  0  0  0
 27 28  1  0  0  0  0
 27 26  1  0  0  0  0
 30 29  1  0  0  0  0
 30 28  1  0  0  0  0
 31 30  2  0  0  0  0
 32 33  1  0  0  0  0
 32 29  1  0  0  0  0
 33 34  2  0  0  0  0
 35 33  1  0  0  0  0
M  END
>  <MODEL>
4

>  <REMARK>
 VINA RESULT:      -6.1      2.230      8.310
  Name = 
  11 active torsions:
  status: ('A' for Active; 'I' for Inactive)
    1  A    between atoms: C_3  and  C_8
    2  A    between atoms: C_4  and  N_9
    3  A    between atoms: N_6  and  C_26
    4  A    between atoms: C_7  and  C_30
    5  A    between atoms: N_9  and  C_25
    6  A    between atoms: C_12  and  C_17
    7  A    between atoms: C_12  and  N_19
    8  A    between atoms: C_14  and  C_26
    9  A    between atoms: C_17  and  C_30
   10  A    between atoms: N_19  and  C_27
   11  A    between atoms: C_32  and  C_35
                            x       y       z     vdW  Elec       q    Type
                         _______ _______ _______ _____ _____    ______ ____

>  <TORSDO>
F 11

$$$$
=
 OpenBabel11042418193D

 35 38  0  0  1  0  0  0  0  0999 V2000
  197.5480  174.3770  143.9640 C   0  0  0  0  0  3  0  0  0  0  0  0
  195.5490  175.5910  144.6850 C   0  0  2  0  0  3  0  0  0  0  0  0
  195.9460  176.7330  143.8550 C   0  0  0  0  0  3  0  0  0  0  0  0
  195.6810  173.3570  145.3170 C   0  0  0  0  0  2  0  0  0  0  0  0
  194.4080  173.7390  145.2440 C   0  0  0  0  0  0  0  0  0  0  0  0
  197.7920  175.3470  143.1230 N   0  0  0  0  0  0  0  0  0  0  0  0
  197.0580  176.5930  143.1240 C   0  0  0  0  0  3  0  0  0  0  0  0
  196.5480  174.5540  145.0760 C   0  0  1  0  0  3  0  0  0  0  0  0
  194.3140  175.1400  144.8410 C   0  0  0  0  0  0  0  0  0  0  0  0
  190.5830  175.8490  144.2530 C   0  0  2  0  0  3  0  0  0  0  0  0
  191.7380  175.6660  145.6130 S   0  0  0  0  0  0  0  0  0  0  0  0
  191.1080  175.6600  143.0510 C   0  0  0  0  0  2  0  0  0  0  0  0
  192.5570  175.3370  143.0650 C   0  0  0  0  0  2  0  0  0  0  0  0
  193.0770  175.8610  144.3990 C   0  0  2  0  0  3  0  0  0  0  0  0
  188.2490  176.1220  143.4320 C   0  0  0  0  0  3  0  0  0  0  0  0
  189.1890  176.2930  144.4560 C   0  0  0  0  0  0  0  0  0  0  0  0
  187.4510  177.2650  145.8530 C   0  0  0  0  0  0  0  0  0  0  0  0
  188.7790  176.8680  145.6670 C   0  0  0  0  0  3  0  0  0  0  0  0
  187.0720  177.8400  147.0600 O   0  0  0  0  0  1  0  0  0  0  0  0
  186.9190  176.5120  143.6170 C   0  0  0  0  0  3  0  0  0  0  0  0
  186.5110  177.0830  144.8300 C   0  0  0  0  0  0  0  0  0  0  0  0
  185.1530  177.4900  145.0300 N   0  0  0  0  0  2  0  0  0  0  0  0
  184.5010  178.5000  144.2080 C   0  0  0  0  0  2  0  0  0  0  0  0
  185.3300  179.7680  144.2110 C   0  0  0  0  0  1  0  0  0  0  0  0
  193.2860  172.8640  145.3840 N   0  0  0  0  0  2  0  0  0  0  0  0
  192.9010  171.9220  144.3490 C   0  0  0  0  0  2  0  0  0  0  0  0
  191.4030  171.9960  144.1310 C   0  0  0  0  0  2  0  0  0  0  0  0
  191.0760  171.5250  142.7310 C   0  0  0  0  0  2  0  0  0  0  0  0
  189.8470  172.9390  141.0450 N   0  0  0  0  0  2  0  0  0  0  0  0
  189.8280  172.1760  142.2530 C   0  0  0  0  0  0  0  0  0  0  0  0
  188.7720  172.0720  142.9310 O   0  0  0  0  0  0  0  0  0  0  0  0
  188.6460  173.5320  140.4720 C   0  0  0  0  0  2  0  0  0  0  0  0
  188.8380  173.7790  139.0110 C   0  0  0  0  0  0  0  0  0  0  0  0
  187.9900  174.4940  138.3680 N   0  0  0  0  0  2  0  0  0  0  0  0
  190.0840  173.3290  138.3380 C   0  0  0  0  0  1  0  0  0  0  0  0
  2  3  1  6  0  0  0
  2  9  1  0  0  0  0
  2  8  1  0  0  0  0
  5  4  1  0  0  0  0
  5 25  1  0  0  0  0
  6  7  1  0  0  0  0
  6  1  2  0  0  0  0
  7  3  2  0  0  0  0
  8  1  1  6  0  0  0
  8  4  1  0  0  0  0
  9  5  2  0  0  0  0
 10 16  1  6  0  0  0
 10 11  1  0  0  0  0
 12 13  1  0  0  0  0
 12 10  1  0  0  0  0
 13 14  1  0  0  0  0
 14  9  1  1  0  0  0
 14 11  1  0  0  0  0
 15 20  2  0  0  0  0
 15 16  1  0  0  0  0
 16 18  2  0  0  0  0
 17 19  1  0  0  0  0
 18 17  1  0  0  0  0
 20 21  1  0  0  0  0
 21 22  1  0  0  0  0
 21 17  2  0  0  0  0
 23 24  1  0  0  0  0
 23 22  1  0  0  0  0
 26 25  1  0  0  0  0
 27 26  1  0  0  0  0
 28 27  1  0  0  0  0
 29 30  1  0  0  0  0
 30 28  1  0  0  0  0
 30 31  2  0  0  0  0
 32 29  1  0  0  0  0
 33 32  1  0  0  0  0
 34 33  2  0  0  0  0
 35 33  1  0  0  0  0
M  END
>  <MODEL>
5

>  <REMARK>
 VINA RESULT:      -6.0      2.456      8.304
  Name = 
  11 active torsions:
  status: ('A' for Active; 'I' for Inactive)
    1  A    between atoms: C_3  and  C_8
    2  A    between atoms: C_4  and  N_9
    3  A    between atoms: N_6  and  C_26
    4  A    between atoms: C_7  and  C_30
    5  A    between atoms: N_9  and  C_25
    6  A    between atoms: C_12  and  C_17
    7  A    between atoms: C_12  and  N_19
    8  A    between atoms: C_14  and  C_26
    9  A    between atoms: C_17  and  C_30
   10  A    between atoms: N_19  and  C_27
   11  A    between atoms: C_32  and  C_35
                            x       y       z     vdW  Elec       q    Type
                         _______ _______ _______ _____ _____    ______ ____

>  <TORSDO>
F 11

$$$$
=
 OpenBabel11042418193D

 35 38  0  0  1  0  0  0  0  0999 V2000
  196.1640  173.2070  144.4470 C   0  0  0  0  0  3  0  0  0  0  0  0
  194.4320  174.5050  143.3030 C   0  0  2  0  0  3  0  0  0  0  0  0
  194.5370  173.6150  142.1410 C   0  0  0  0  0  3  0  0  0  0  0  0
  194.8050  175.0310  145.5370 C   0  0  0  0  0  2  0  0  0  0  0  0
  193.5570  175.3410  145.1940 C   0  0  0  0  0  0  0  0  0  0  0  0
  196.1230  172.3500  143.4620 N   0  0  0  0  0  0  0  0  0  0  0  0
  195.3890  172.5870  142.2400 C   0  0  0  0  0  3  0  0  0  0  0  0
  195.5310  174.5670  144.3110 C   0  0  1  0  0  3  0  0  0  0  0  0
  193.3110  175.0080  143.7930 C   0  0  0  0  0  0  0  0  0  0  0  0
  189.5940  175.7020  143.1090 C   0  0  2  0  0  3  0  0  0  0  0  0
  191.1560  176.5810  143.1680 S   0  0  0  0  0  0  0  0  0  0  0  0
  189.6690  174.4170  143.4220 C   0  0  0  0  0  2  0  0  0  0  0  0
  191.0380  173.9520  143.7550 C   0  0  0  0  0  2  0  0  0  0  0  0
  191.9800  174.9610  143.1080 C   0  0  2  0  0  3  0  0  0  0  0  0
  187.4240  176.8370  143.5600 C   0  0  0  0  0  3  0  0  0  0  0  0
  188.3480  176.3380  142.6340 C   0  0  0  0  0  0  0  0  0  0  0  0
  186.9030  177.0920  140.8260 C   0  0  0  0  0  0  0  0  0  0  0  0
  188.0770  176.4700  141.2640 C   0  0  0  0  0  3  0  0  0  0  0  0
  186.6550  177.2030  139.4640 O   0  0  0  0  0  1  0  0  0  0  0  0
  186.2520  177.4650  143.1260 C   0  0  0  0  0  3  0  0  0  0  0  0
  185.9870  177.6000  141.7570 C   0  0  0  0  0  0  0  0  0  0  0  0
  184.7880  178.2380  141.3010 N   0  0  0  0  0  2  0  0  0  0  0  0
  183.5350  178.1860  142.0400 C   0  0  0  0  0  2  0  0  0  0  0  0
  182.3730  178.1790  141.0680 C   0  0  0  0  0  1  0  0  0  0  0  0
  192.5500  175.7880  146.1050 N   0  0  0  0  0  2  0  0  0  0  0  0
  191.9740  174.9190  147.1160 C   0  0  0  0  0  2  0  0  0  0  0  0
  190.8520  175.6470  147.8280 C   0  0  0  0  0  2  0  0  0  0  0  0
  189.5920  175.5640  146.9940 C   0  0  0  0  0  2  0  0  0  0  0  0
  187.5010  176.9630  147.1350 N   0  0  0  0  0  2  0  0  0  0  0  0
  188.9160  176.8870  146.9600 C   0  0  0  0  0  0  0  0  0  0  0  0
  189.5950  177.9280  146.7510 O   0  0  0  0  0  0  0  0  0  0  0  0
  186.7830  178.2300  147.1990 C   0  0  0  0  0  2  0  0  0  0  0  0
  185.4280  178.0880  146.5870 C   0  0  0  0  0  0  0  0  0  0  0  0
  184.8890  179.0870  145.9920 N   0  0  0  0  0  2  0  0  0  0  0  0
  184.7730  176.7550  146.5320 C   0  0  0  0  0  1  0  0  0  0  0  0
  2  3  1  1  0  0  0
  2  9  1  0  0  0  0
  2  8  1  0  0  0  0
  3  7  2  0  0  0  0
  5  4  1  0  0  0  0
  5 25  1  0  0  0  0
  6  1  2  0  0  0  0
  7  6  1  0  0  0  0
  8  1  1  1  0  0  0
  8  4  1  0  0  0  0
  9  5  2  0  0  0  0
 10 16  1  6  0  0  0
 10 11  1  0  0  0  0
 10 12  1  0  0  0  0
 12 13  1  0  0  0  0
 14 11  1  0  0  0  0
 14 13  1  0  0  0  0
 14  9  1  1  0  0  0
 16 15  2  0  0  0  0
 17 18  2  0  0  0  0
 17 21  1  0  0  0  0
 18 16  1  0  0  0  0
 19 17  1  0  0  0  0
 20 15  1  0  0  0  0
 21 20  2  0  0  0  0
 22 21  1  0  0  0  0
 22 23  1  0  0  0  0
 24 23  1  0  0  0  0
 25 26  1  0  0  0  0
 26 27  1  0  0  0  0
 28 27  1  0  0  0  0
 29 32  1  0  0  0  0
 30 28  1  0  0  0  0
 30 29  1  0  0  0  0
 31 30  2  0  0  0  0
 33 32  1  0  0  0  0
 34 33  2  0  0  0  0
 35 33  1  0  0  0  0
M  END
>  <MODEL>
6

>  <REMARK>
 VINA RESULT:      -6.0      2.541      9.020
  Name = 
  11 active torsions:
  status: ('A' for Active; 'I' for Inactive)
    1  A    between atoms: C_3  and  C_8
    2  A    between atoms: C_4  and  N_9
    3  A    between atoms: N_6  and  C_26
    4  A    between atoms: C_7  and  C_30
    5  A    between atoms: N_9  and  C_25
    6  A    between atoms: C_12  and  C_17
    7  A    between atoms: C_12  and  N_19
    8  A    between atoms: C_14  and  C_26
    9  A    between atoms: C_17  and  C_30
   10  A    between atoms: N_19  and  C_27
   11  A    between atoms: C_32  and  C_35
                            x       y       z     vdW  Elec       q    Type
                         _______ _______ _______ _____ _____    ______ ____

>  <TORSDO>
F 11

$$$$
=
 OpenBabel11042418193D

 35 38  0  0  1  0  0  0  0  0999 V2000
  186.8110  177.3950  141.3050 C   0  0  0  0  0  3  0  0  0  0  0  0
  188.3020  175.7150  142.2780 C   0  0  2  0  0  3  0  0  0  0  0  0
  188.4190  175.0640  140.9680 C   0  0  0  0  0  3  0  0  0  0  0  0
  187.7430  177.5110  143.6440 C   0  0  0  0  0  2  0  0  0  0  0  0
  188.9190  177.0060  144.0080 C   0  0  0  0  0  0  0  0  0  0  0  0
  187.0580  176.8820  140.1280 N   0  0  0  0  0  0  0  0  0  0  0  0
  187.7810  175.6440  139.9440 C   0  0  0  0  0  3  0  0  0  0  0  0
  187.1720  176.6480  142.5610 C   0  0  1  0  0  3  0  0  0  0  0  0
  189.2830  175.8800  143.1510 C   0  0  0  0  0  0  0  0  0  0  0  0
  192.6940  174.5140  144.2750 C   0  0  2  0  0  3  0  0  0  0  0  0
  190.9470  174.2060  144.5420 S   0  0  0  0  0  0  0  0  0  0  0  0
  192.9610  175.5400  143.4800 C   0  0  0  0  0  2  0  0  0  0  0  0
  191.7560  176.2330  142.9580 C   0  0  0  0  0  2  0  0  0  0  0  0
  190.6240  175.2180  143.0660 C   0  0  2  0  0  3  0  0  0  0  0  0
  193.5100  172.2410  144.8800 C   0  0  0  0  0  3  0  0  0  0  0  0
  193.7430  173.6200  144.8050 C   0  0  0  0  0  0  0  0  0  0  0  0
  195.9770  173.2630  145.7020 C   0  0  0  0  0  0  0  0  0  0  0  0
  194.9840  174.1230  145.2210 C   0  0  0  0  0  3  0  0  0  0  0  0
  197.1960  173.7880  146.1150 O   0  0  0  0  0  1  0  0  0  0  0  0
  194.5020  171.3780  145.3550 C   0  0  0  0  0  3  0  0  0  0  0  0
  195.7430  171.8830  145.7650 C   0  0  0  0  0  0  0  0  0  0  0  0
  196.7660  171.0090  146.2560 N   0  0  0  0  0  2  0  0  0  0  0  0
  197.5440  170.1370  145.3880 C   0  0  0  0  0  2  0  0  0  0  0  0
  197.3790  168.6980  145.8350 C   0  0  0  0  0  1  0  0  0  0  0  0
  189.7830  177.5790  144.9930 N   0  0  0  0  0  2  0  0  0  0  0  0
  189.7570  177.1680  146.3840 C   0  0  0  0  0  2  0  0  0  0  0  0
  188.4430  176.4740  146.6820 C   0  0  0  0  0  2  0  0  0  0  0  0
  187.5030  177.4500  147.3570 C   0  0  0  0  0  2  0  0  0  0  0  0
  185.4510  178.6910  146.5810 N   0  0  0  0  0  2  0  0  0  0  0  0
  186.1990  177.4760  146.6430 C   0  0  0  0  0  0  0  0  0  0  0  0
  185.7540  176.4190  146.1220 O   0  0  0  0  0  0  0  0  0  0  0  0
  184.2100  178.8120  145.8280 C   0  0  0  0  0  2  0  0  0  0  0  0
  184.4960  179.2520  144.4290 C   0  0  0  0  0  0  0  0  0  0  0  0
  185.3710  180.1630  144.2130 N   0  0  0  0  0  2  0  0  0  0  0  0
  183.8820  178.5320  143.2830 C   0  0  0  0  0  1  0  0  0  0  0  0
  2  3  1  6  0  0  0
  2  8  1  0  0  0  0
  2  9  1  0  0  0  0
  4  5  1  0  0  0  0
  5 25  1  0  0  0  0
  6  1  2  0  0  0  0
  7  6  1  0  0  0  0
  7  3  2  0  0  0  0
  8  1  1  6  0  0  0
  8  4  1  0  0  0  0
  9  5  2  0  0  0  0
 10 11  1  0  0  0  0
 10 16  1  6  0  0  0
 12 10  1  0  0  0  0
 13 14  1  0  0  0  0
 13 12  1  0  0  0  0
 14  9  1  1  0  0  0
 14 11  1  0  0  0  0
 15 20  1  0  0  0  0
 16 15  2  0  0  0  0
 16 18  1  0  0  0  0
 17 21  1  0  0  0  0
 17 19  1  0  0  0  0
 18 17  2  0  0  0  0
 20 21  2  0  0  0  0
 21 22  1  0  0  0  0
 23 24  1  0  0  0  0
 23 22  1  0  0  0  0
 25 26  1  0  0  0  0
 26 27  1  0  0  0  0
 27 28  1  0  0  0  0
 29 30  1  0  0  0  0
 30 28  1  0  0  0  0
 31 30  2  0  0  0  0
 32 29  1  0  0  0  0
 33 32  1  0  0  0  0
 34 33  2  0  0  0  0
 35 33  1  0  0  0  0
M  END
>  <MODEL>
7

>  <REMARK>
 VINA RESULT:      -6.0      2.628      5.809
  Name = 
  11 active torsions:
  status: ('A' for Active; 'I' for Inactive)
    1  A    between atoms: C_3  and  C_8
    2  A    between atoms: C_4  and  N_9
    3  A    between atoms: N_6  and  C_26
    4  A    between atoms: C_7  and  C_30
    5  A    between atoms: N_9  and  C_25
    6  A    between atoms: C_12  and  C_17
    7  A    between atoms: C_12  and  N_19
    8  A    between atoms: C_14  and  C_26
    9  A    between atoms: C_17  and  C_30
   10  A    between atoms: N_19  and  C_27
   11  A    between atoms: C_32  and  C_35
                            x       y       z     vdW  Elec       q    Type
                         _______ _______ _______ _____ _____    ______ ____

>  <TORSDO>
F 11

$$$$
=
 OpenBabel11042418193D

 35 38  0  0  1  0  0  0  0  0999 V2000
  196.1330  175.7570  144.3200 C   0  0  0  0  0  3  0  0  0  0  0  0
  194.4100  175.3620  146.0140 C   0  0  2  0  0  3  0  0  0  0  0  0
  194.2250  176.8090  146.1590 C   0  0  0  0  0  3  0  0  0  0  0  0
  195.1890  173.4870  144.8800 C   0  0  0  0  0  2  0  0  0  0  0  0
  193.9490  173.2780  145.3150 C   0  0  0  0  0  0  0  0  0  0  0  0
  195.8360  177.0290  144.3650 N   0  0  0  0  0  0  0  0  0  0  0  0
  194.9530  177.5970  145.3580 C   0  0  0  0  0  3  0  0  0  0  0  0
  195.6520  174.8160  145.3930 C   0  0  1  0  0  3  0  0  0  0  0  0
  193.4480  174.4530  146.0240 C   0  0  0  0  0  0  0  0  0  0  0  0
  190.0710  176.2620  146.3310 C   0  0  2  0  0  3  0  0  0  0  0  0
  191.0940  175.4880  145.0770 S   0  0  0  0  0  0  0  0  0  0  0  0
  190.6010  176.2800  147.5450 C   0  0  0  0  0  2  0  0  0  0  0  0
  191.9410  175.6470  147.6320 C   0  0  0  0  0  2  0  0  0  0  0  0
  192.0290  174.7140  146.4300 C   0  0  2  0  0  3  0  0  0  0  0  0
  188.0740  176.3790  144.8480 C   0  0  0  0  0  3  0  0  0  0  0  0
  188.6990  176.7320  146.0510 C   0  0  0  0  0  0  0  0  0  0  0  0
  186.6900  177.9370  146.7090 C   0  0  0  0  0  0  0  0  0  0  0  0
  187.9970  177.5150  146.9780 C   0  0  0  0  0  3  0  0  0  0  0  0
  186.0180  178.7180  147.6420 O   0  0  0  0  0  1  0  0  0  0  0  0
  186.7670  176.7940  144.5800 C   0  0  0  0  0  3  0  0  0  0  0  0
  186.0650  177.5720  145.5100 C   0  0  0  0  0  0  0  0  0  0  0  0
  184.7260  178.0050  145.2430 N   0  0  0  0  0  2  0  0  0  0  0  0
  184.3960  178.9390  144.1770 C   0  0  0  0  0  2  0  0  0  0  0  0
  185.2780  180.1660  144.2850 C   0  0  0  0  0  1  0  0  0  0  0  0
  193.1570  172.1300  144.9990 N   0  0  0  0  0  2  0  0  0  0  0  0
  193.7390  170.8170  144.7920 C   0  0  0  0  0  2  0  0  0  0  0  0
  192.9740  170.0910  143.7030 C   0  0  0  0  0  2  0  0  0  0  0  0
  192.5770  171.0770  142.6260 C   0  0  0  0  0  2  0  0  0  0  0  0
  190.3570  172.2040  143.0180 N   0  0  0  0  0  2  0  0  0  0  0  0
  191.0980  171.1060  142.4830 C   0  0  0  0  0  0  0  0  0  0  0  0
  190.5090  170.1490  141.9140 O   0  0  0  0  0  0  0  0  0  0  0  0
  188.9180  172.3420  142.8410 C   0  0  0  0  0  2  0  0  0  0  0  0
  188.6040  173.6220  142.1370 C   0  0  0  0  0  0  0  0  0  0  0  0
  187.3850  173.9950  142.0050 N   0  0  0  0  0  2  0  0  0  0  0  0
  189.7030  174.5340  141.7270 C   0  0  0  0  0  1  0  0  0  0  0  0
  1  6  2  0  0  0  0
  2  9  1  0  0  0  0
  2  3  1  6  0  0  0
  4  5  1  0  0  0  0
  4  8  1  0  0  0  0
  5  9  2  0  0  0  0
  6  7  1  0  0  0  0
  7  3  2  0  0  0  0
  8  1  1  6  0  0  0
  8  2  1  0  0  0  0
 10 16  1  1  0  0  0
 10 12  1  0  0  0  0
 11 10  1  0  0  0  0
 11 14  1  0  0  0  0
 12 13  1  0  0  0  0
 14  9  1  6  0  0  0
 14 13  1  0  0  0  0
 15 16  1  0  0  0  0
 16 18  2  0  0  0  0
 17 18  1  0  0  0  0
 17 19  1  0  0  0  0
 20 15  2  0  0  0  0
 20 21  1  0  0  0  0
 21 17  2  0  0  0  0
 22 21  1  0  0  0  0
 23 24  1  0  0  0  0
 23 22  1  0  0  0  0
 25  5  1  0  0  0  0
 26 25  1  0  0  0  0
 27 26  1  0  0  0  0
 28 27  1  0  0  0  0
 30 28  1  0  0  0  0
 30 29  1  0  0  0  0
 31 30  2  0  0  0  0
 32 29  1  0  0  0  0
 33 32  1  0  0  0  0
 34 33  2  0  0  0  0
 35 33  1  0  0  0  0
M  END
>  <MODEL>
8

>  <REMARK>
 VINA RESULT:      -6.0      2.515      7.980
  Name = 
  11 active torsions:
  status: ('A' for Active; 'I' for Inactive)
    1  A    between atoms: C_3  and  C_8
    2  A    between atoms: C_4  and  N_9
    3  A    between atoms: N_6  and  C_26
    4  A    between atoms: C_7  and  C_30
    5  A    between atoms: N_9  and  C_25
    6  A    between atoms: C_12  and  C_17
    7  A    between atoms: C_12  and  N_19
    8  A    between atoms: C_14  and  C_26
    9  A    between atoms: C_17  and  C_30
   10  A    between atoms: N_19  and  C_27
   11  A    between atoms: C_32  and  C_35
                            x       y       z     vdW  Elec       q    Type
                         _______ _______ _______ _____ _____    ______ ____

>  <TORSDO>
F 11

$$$$
=
 OpenBabel11042418193D

 35 38  0  0  1  0  0  0  0  0999 V2000
  197.2290  174.6670  143.7330 C   0  0  0  0  0  3  0  0  0  0  0  0
  195.3860  175.0230  145.3040 C   0  0  2  0  0  3  0  0  0  0  0  0
  195.2560  176.4060  144.8340 C   0  0  0  0  0  3  0  0  0  0  0  0
  196.1520  172.8370  145.0940 C   0  0  0  0  0  2  0  0  0  0  0  0
  194.8790  172.8420  145.4800 C   0  0  0  0  0  0  0  0  0  0  0  0
  196.9860  175.8500  143.2350 N   0  0  0  0  0  0  0  0  0  0  0  0
  196.0670  176.7870  143.8410 C   0  0  0  0  0  3  0  0  0  0  0  0
  196.6400  174.2530  145.0560 C   0  0  1  0  0  3  0  0  0  0  0  0
  194.3860  174.2110  145.6100 C   0  0  0  0  0  0  0  0  0  0  0  0
  191.1960  176.3150  145.2030 C   0  0  2  0  0  3  0  0  0  0  0  0
  192.3030  175.3120  144.2100 S   0  0  0  0  0  0  0  0  0  0  0  0
  191.5480  176.4370  146.4740 C   0  0  0  0  0  2  0  0  0  0  0  0
  192.7940  175.7130  146.8310 C   0  0  0  0  0  2  0  0  0  0  0  0
  192.9580  174.6350  145.7660 C   0  0  2  0  0  3  0  0  0  0  0  0
  188.8080  176.9520  145.5000 C   0  0  0  0  0  3  0  0  0  0  0  0
  189.9310  176.8580  144.6690 C   0  0  0  0  0  0  0  0  0  0  0  0
  188.6350  177.8340  142.8540 C   0  0  0  0  0  0  0  0  0  0  0  0
  189.8340  177.3020  143.3420 C   0  0  0  0  0  3  0  0  0  0  0  0
  188.5630  178.2600  141.5340 O   0  0  0  0  0  1  0  0  0  0  0  0
  187.6100  177.4880  145.0170 C   0  0  0  0  0  3  0  0  0  0  0  0
  187.5170  177.9360  143.6930 C   0  0  0  0  0  0  0  0  0  0  0  0
  186.2950  178.4840  143.1870 N   0  0  0  0  0  2  0  0  0  0  0  0
  185.5510  179.5280  143.8770 C   0  0  0  0  0  2  0  0  0  0  0  0
  184.1450  179.0410  144.1680 C   0  0  0  0  0  1  0  0  0  0  0  0
  194.0600  171.6760  145.5980 N   0  0  0  0  0  2  0  0  0  0  0  0
  193.7410  170.8310  144.4630 C   0  0  0  0  0  2  0  0  0  0  0  0
  192.8750  171.6020  143.4870 C   0  0  0  0  0  2  0  0  0  0  0  0
  192.6630  170.7710  142.2400 C   0  0  0  0  0  2  0  0  0  0  0  0
  191.3650  172.8190  141.5540 N   0  0  0  0  0  2  0  0  0  0  0  0
  191.6960  171.4470  141.3360 C   0  0  0  0  0  0  0  0  0  0  0  0
  191.1570  170.7960  140.4020 O   0  0  0  0  0  0  0  0  0  0  0  0
  190.4930  173.5690  140.6600 C   0  0  0  0  0  2  0  0  0  0  0  0
  189.3220  174.1100  141.4130 C   0  0  0  0  0  0  0  0  0  0  0  0
  188.4490  174.8270  140.8060 N   0  0  0  0  0  2  0  0  0  0  0  0
  189.0860  173.6940  142.8200 C   0  0  0  0  0  1  0  0  0  0  0  0
  2  3  1  6  0  0  0
  2  9  1  0  0  0  0
  4  5  1  0  0  0  0
  5 25  1  0  0  0  0
  5  9  2  0  0  0  0
  6  1  2  0  0  0  0
  6  7  1  0  0  0  0
  7  3  2  0  0  0  0
  8  1  1  6  0  0  0
  8  4  1  0  0  0  0
  8  2  1  0  0  0  0
 10 16  1  1  0  0  0
 10 12  1  0  0  0  0
 11 10  1  0  0  0  0
 11 14  1  0  0  0  0
 12 13  1  0  0  0  0
 14  9  1  6  0  0  0
 14 13  1  0  0  0  0
 16 15  2  0  0  0  0
 17 18  2  0  0  0  0
 17 21  1  0  0  0  0
 18 16  1  0  0  0  0
 19 17  1  0  0  0  0
 20 15  1  0  0  0  0
 21 20  2  0  0  0  0
 22 21  1  0  0  0  0
 22 23  1  0  0  0  0
 23 24  1  0  0  0  0
 26 25  1  0  0  0  0
 27 26  1  0  0  0  0
 28 27  1  0  0  0  0
 30 29  1  0  0  0  0
 30 28  1  0  0  0  0
 31 30  2  0  0  0  0
 32 33  1  0  0  0  0
 32 29  1  0  0  0  0
 33 35  1  0  0  0  0
 34 33  2  0  0  0  0
M  END
>  <MODEL>
9

>  <REMARK>
 VINA RESULT:      -6.0      2.139      8.084
  Name = 
  11 active torsions:
  status: ('A' for Active; 'I' for Inactive)
    1  A    between atoms: C_3  and  C_8
    2  A    between atoms: C_4  and  N_9
    3  A    between atoms: N_6  and  C_26
    4  A    between atoms: C_7  and  C_30
    5  A    between atoms: N_9  and  C_25
    6  A    between atoms: C_12  and  C_17
    7  A    between atoms: C_12  and  N_19
    8  A    between atoms: C_14  and  C_26
    9  A    between atoms: C_17  and  C_30
   10  A    between atoms: N_19  and  C_27
   11  A    between atoms: C_32  and  C_35
                            x       y       z     vdW  Elec       q    Type
                         _______ _______ _______ _____ _____    ______ ____

>  <TORSDO>
F 11

$$$$
