=
 OpenBabel11042418573D

 68 72  0  0  1  0  0  0  0  0999 V2000
  194.8770  172.0230  144.9530 C   0  0  2  0  0  3  0  0  0  0  0  0
  196.6770  170.3790  145.6310 C   0  0  0  0  0  3  0  0  0  0  0  0
  197.0730  169.1780  146.2320 C   0  0  0  0  0  3  0  0  0  0  0  0
  194.3700  169.9080  146.2050 C   0  0  0  0  0  3  0  0  0  0  0  0
  194.7670  168.7030  146.7980 C   0  0  0  0  0  3  0  0  0  0  0  0
  196.1170  168.3350  146.8060 C   0  0  0  0  0  3  0  0  0  0  0  0
  195.3200  170.7430  145.6070 C   0  0  0  0  0  0  0  0  0  0  0  0
  193.6200  172.0270  144.1070 C   0  0  0  0  0  0  0  0  0  0  0  0
  191.3390  171.7310  142.5640 C   0  0  0  0  0  3  0  0  0  0  0  0
  193.3170  170.8610  143.4790 N   0  0  0  0  0  0  0  0  0  0  0  0
  191.5800  172.9540  143.1800 C   0  0  0  0  0  3  0  0  0  0  0  0
  192.7130  173.1180  143.9770 C   0  0  0  0  0  0  0  0  0  0  0  0
  192.2170  170.7080  142.7440 N   0  0  0  0  0  0  0  0  0  0  0  0
  192.9120  174.4490  144.6270 C   0  0  0  0  0  2  0  0  0  0  0  0
  192.9580  174.2840  146.0780 N   0  0  0  0  0  2  0  0  0  0  0  0
  192.7890  175.5440  146.6690 N   0  0  0  0  0  0  0  0  0  0  0  0
  192.0760  176.3840  145.6880 C   0  0  0  0  0  2  0  0  0  0  0  0
  192.9320  177.2900  145.0660 O   0  0  0  0  0  1  0  0  0  0  0  0
  191.9850  175.3250  147.8790 C   0  0  0  0  0  2  0  0  0  0  0  0
  190.7180  176.1910  147.9300 C   0  0  2  0  0  3  0  0  0  0  0  0
  189.4330  174.7830  146.4540 O   0  0  0  0  0  0  0  0  0  0  0  0
  189.7470  175.9550  146.8040 C   0  0  0  0  0  0  0  0  0  0  0  0
  189.1250  177.0800  146.1810 N   0  0  0  0  0  2  0  0  0  0  0  0
  188.0080  176.9690  145.2570 C   0  0  1  0  0  3  0  0  0  0  0  0
  186.5040  177.8720  147.8200 C   0  0  0  0  0  1  0  0  0  0  0  0
  186.3510  178.7250  146.5600 C   0  0  1  0  0  3  0  0  0  0  0  0
  187.1490  178.2650  145.3140 C   0  0  2  0  0  3  0  0  0  0  0  0
  185.6340  178.0360  145.3990 C   0  0  2  0  0  0  0  0  0  0  0  0
  184.8090  178.9990  144.5510 C   0  0  0  0  0  2  0  0  0  0  0  0
  185.6110  179.4980  143.3670 C   0  0  0  0  0  1  0  0  0  0  0  0
  185.0800  176.6220  145.6200 C   0  0  0  0  0  2  0  0  0  0  0  0
  185.3320  175.8250  144.5030 O   0  0  0  0  0  1  0  0  0  0  0  0
  188.4850  176.6250  143.9890 O   0  0  0  0  0  0  0  0  0  0  0  0
  189.1980  177.7520  143.5620 C   0  0  0  0  0  2  0  0  0  0  0  0
  188.8520  178.0440  142.1160 C   0  0  0  0  0  1  0  0  0  0  0  0
  191.0820  177.6660  148.1090 C   0  0  0  0  0  2  0  0  0  0  0  0
  191.3860  178.0150  149.5630 C   0  0  0  0  0  1  0  0  0  0  0  0
  196.0090  172.8710  144.3560 C   0  0  0  0  0  2  0  0  0  0  0  0
  195.9820  172.8800  142.8240 C   0  0  1  0  0  3  0  0  0  0  0  0
  197.7320  174.4480  142.7030 O   0  0  0  0  0  0  0  0  0  0  0  0
  196.6420  174.0980  142.2700 C   0  0  0  0  0  3  0  0  0  0  0  0
  196.6210  171.6250  142.2430 C   0  0  0  0  0  2  0  0  0  0  0  0
  194.2070  171.2760  139.7880 C   0  0  2  0  0  3  0  0  0  0  0  0
  195.0430  172.1990  140.6170 C   0  0  2  0  0  3  0  0  0  0  0  0
  192.8800  171.7070  139.7990 O   0  0  0  0  0  0  0  0  0  0  0  0
  192.8970  172.7830  138.8830 C   0  0  2  0  0  3  0  0  0  0  0  0
  195.1730  173.4840  139.8050 C   0  0  0  0  0  2  0  0  0  0  0  0
  194.5010  169.9350  140.3750 C   0  0  0  0  0  2  0  0  0  0  0  0
  196.0110  170.0690  140.5750 C   0  0  2  0  0  3  0  0  0  0  0  0
  193.7660  173.9930  139.3720 C   0  0  1  0  0  0  0  0  0  0  0  0
  196.3070  171.5000  140.8290 N   0  0  0  0  0  0  0  0  0  0  0  0
  193.9440  174.9600  138.2050 C   0  0  0  0  0  1  0  0  0  0  0  0
  193.9460  175.5230  140.9500 O   0  0  0  0  0  1  0  0  0  0  0  0
  193.1080  174.6310  140.4500 O   0  0  0  0  0  0  0  0  0  0  0  0
  196.7180  169.5830  139.2990 C   0  0  2  0  0  3  0  0  0  0  0  0
  195.7580  169.4530  138.1210 C   0  0  0  0  0  2  0  0  0  0  0  0
  195.9850  168.1690  137.3360 C   0  0  0  0  0  1  0  0  0  0  0  0
  197.9110  168.4710  140.7960 C   0  0  0  0  0  1  0  0  0  0  0  0
  197.4170  168.3870  139.4920 O   0  0  0  0  0  0  0  0  0  0  0  0
  191.4910  173.1350  138.3970 C   0  0  0  0  0  2  0  0  0  0  0  0
  190.7090  171.9780  138.1910 O   0  0  0  0  0  0  0  0  0  0  0  0
  190.2270  171.9280  136.8520 C   0  0  2  0  0  0  0  0  0  0  0  0
  191.3760  172.1790  135.8810 C   0  0  0  0  0  1  0  0  0  0  0  0
  188.5840  173.4820  137.7770 O   0  0  0  0  0  1  0  0  0  0  0  0
  189.5050  173.9710  135.7460 O   0  0  0  0  0  1  0  0  0  0  0  0
  189.0840  172.9430  136.5880 C   0  0  0  0  0  3  0  0  0  0  0  0
  189.7440  170.5250  136.5860 C   0  0  0  0  0  3  0  0  0  0  0  0
  190.1130  169.4890  137.3350 C   0  0  0  0  0  2  0  0  0  0  0  0
  1 38  1  6  0  0  0
  1  7  1  0  0  0  0
  2  3  1  0  0  0  0
  3  6  2  0  0  0  0
  4  5  2  0  0  0  0
  5  6  1  0  0  0  0
  7  2  2  0  0  0  0
  7  4  1  0  0  0  0
  8  1  1  0  0  0  0
  9 13  2  0  0  0  0
  9 11  1  0  0  0  0
 10  8  2  0  0  0  0
 11 12  2  0  0  0  0
 12  8  1  0  0  0  0
 12 14  1  0  0  0  0
 13 10  1  0  0  0  0
 14 15  1  0  0  0  0
 15 16  1  0  0  0  0
 16 19  1  0  0  0  0
 17 16  1  0  0  0  0
 18 17  1  0  0  0  0
 20 19  1  6  0  0  0
 20 36  1  0  0  0  0
 21 22  2  0  0  0  0
 22 20  1  0  0  0  0
 23 22  1  0  0  0  0
 24 33  1  6  0  0  0
 24 23  1  0  0  0  0
 26 25  1  1  0  0  0
 27 24  1  1  0  0  0
 27 28  1  0  0  0  0
 27 26  1  0  0  0  0
 28 29  1  6  0  0  0
 28 31  1  0  0  0  0
 28 26  1  0  0  0  0
 30 29  1  0  0  0  0
 32 31  1  0  0  0  0
 34 33  1  0  0  0  0
 35 34  1  0  0  0  0
 36 37  1  0  0  0  0
 39 42  1  6  0  0  0
 39 38  1  0  0  0  0
 41 40  2  0  0  0  0
 41 39  1  0  0  0  0
 43 45  1  0  0  0  0
 43 48  1  1  0  0  0
 43 44  1  0  0  0  0
 44 47  1  6  0  0  0
 44 51  1  0  0  0  0
 46 60  1  1  0  0  0
 46 50  1  0  0  0  0
 46 45  1  0  0  0  0
 48 49  1  0  0  0  0
 49 55  1  6  0  0  0
 49 51  1  0  0  0  0
 50 52  1  6  0  0  0
 50 47  1  0  0  0  0
 50 54  1  0  0  0  0
 51 42  1  0  0  0  0
 54 53  1  0  0  0  0
 55 56  1  6  0  0  0
 55 59  1  0  0  0  0
 57 56  1  0  0  0  0
 59 58  1  0  0  0  0
 61 60  1  0  0  0  0
 62 63  1  6  0  0  0
 62 61  1  0  0  0  0
 65 66  1  0  0  0  0
 66 62  1  0  0  0  0
 66 64  1  0  0  0  0
 67 62  1  0  0  0  0
 67 68  2  0  0  0  0
M  END
>  <MODEL>
1

>  <REMARK>
 VINA RESULT:      -4.7      0.000      0.000
  Name = 
  30 active torsions:
  status: ('A' for Active; 'I' for Inactive)
    1  A    between atoms: C_2  and  C_21
    2  A    between atoms: C_2  and  O_34
    3  A    between atoms: C_2  and  C_60
    4  A    between atoms: N_4  and  C_56
    5  A    between atoms: N_4  and  N_65
    6  A    between atoms: C_8  and  C_57
    7  A    between atoms: C_10  and  O_34
    8  A    between atoms: C_10  and  C_44
    9  A    between atoms: C_17  and  C_50
   10  A    between atoms: O_19  and  C_61
   11  A    between atoms: C_20  and  C_39
   12  A    between atoms: C_23  and  C_45
   13  A    between atoms: C_23  and  O_54
   14  A    between atoms: C_23  and  N_67
   15  A    between atoms: C_25  and  N_65
   16  A    between atoms: C_26  and  C_33
   17  A    between atoms: C_26  and  C_57
   18  A    between atoms: C_27  and  C_58
   19  A    between atoms: C_30  and  C_50
   20  A    between atoms: C_30  and  N_65
   21  A    between atoms: C_33  and  C_52
   22  A    between atoms: C_33  and  C_55
   23  A    between atoms: C_36  and  C_58
   24  A    between atoms: C_38  and  C_57
   25  A    between atoms: C_39  and  O_53
   26  A    between atoms: C_39  and  C_59
   27  A    between atoms: C_47  and  C_56
   28  A    between atoms: C_50  and  C_64
   29  A    between atoms: C_51  and  O_54
   30  A    between atoms: C_52  and  N_62
                            x       y       z     vdW  Elec       q    Type
                         _______ _______ _______ _____ _____    ______ ____

>  <TORSDO>
F 30

$$$$
=
 OpenBabel11042418573D

 68 72  0  0  1  0  0  0  0  0999 V2000
  194.9350  172.3740  142.5760 C   0  0  2  0  0  3  0  0  0  0  0  0
  196.4270  174.1440  143.5990 C   0  0  0  0  0  3  0  0  0  0  0  0
  197.2330  174.6090  144.6440 C   0  0  0  0  0  3  0  0  0  0  0  0
  195.9560  172.1270  144.8550 C   0  0  0  0  0  3  0  0  0  0  0  0
  196.7700  172.5900  145.8970 C   0  0  0  0  0  3  0  0  0  0  0  0
  197.4130  173.8280  145.7890 C   0  0  0  0  0  3  0  0  0  0  0  0
  195.7930  172.8940  143.6970 C   0  0  0  0  0  0  0  0  0  0  0  0
  195.3940  171.1610  141.7940 C   0  0  0  0  0  0  0  0  0  0  0  0
  196.5150  169.0210  140.4390 C   0  0  0  0  0  3  0  0  0  0  0  0
  196.7130  171.1190  141.4710 N   0  0  0  0  0  0  0  0  0  0  0  0
  195.1570  168.9900  140.7380 C   0  0  0  0  0  3  0  0  0  0  0  0
  194.5780  170.0490  141.4370 C   0  0  0  0  0  0  0  0  0  0  0  0
  197.2610  170.0890  140.8300 N   0  0  0  0  0  0  0  0  0  0  0  0
  193.1180  169.9540  141.7450 C   0  0  0  0  0  2  0  0  0  0  0  0
  192.3720  170.8550  140.8700 N   0  0  0  0  0  2  0  0  0  0  0  0
  191.2460  170.1710  140.3920 N   0  0  0  0  0  0  0  0  0  0  0  0
  190.4030  171.1650  139.7010 C   0  0  0  0  0  2  0  0  0  0  0  0
  190.7190  172.4660  140.0860 O   0  0  0  0  0  1  0  0  0  0  0  0
  191.7500  169.1500  139.4630 C   0  0  0  0  0  2  0  0  0  0  0  0
  191.7010  169.5900  137.9940 C   0  0  2  0  0  3  0  0  0  0  0  0
  194.0070  170.2940  137.9490 O   0  0  0  0  0  0  0  0  0  0  0  0
  192.8210  170.5050  137.5710 C   0  0  0  0  0  0  0  0  0  0  0  0
  192.5340  171.5790  136.6740 N   0  0  0  0  0  2  0  0  0  0  0  0
  193.5610  172.3720  136.0180 C   0  0  1  0  0  3  0  0  0  0  0  0
  193.5850  174.8220  137.9260 C   0  0  0  0  0  1  0  0  0  0  0  0
  194.7920  173.8830  137.9480 C   0  0  1  0  0  3  0  0  0  0  0  0
  194.7250  172.6500  137.0130 C   0  0  2  0  0  3  0  0  0  0  0  0
  195.6090  173.8530  136.6560 C   0  0  2  0  0  0  0  0  0  0  0  0
  197.0980  173.6260  136.8970 C   0  0  0  0  0  2  0  0  0  0  0  0
  197.5860  172.4060  136.1440 C   0  0  0  0  0  1  0  0  0  0  0  0
  195.2040  174.7960  135.5150 C   0  0  0  0  0  2  0  0  0  0  0  0
  195.2590  176.1230  135.9410 O   0  0  0  0  0  1  0  0  0  0  0  0
  193.9350  171.7520  134.8220 O   0  0  0  0  0  0  0  0  0  0  0  0
  194.8600  170.7730  135.2050 C   0  0  0  0  0  2  0  0  0  0  0  0
  194.4890  169.4540  134.5580 C   0  0  0  0  0  1  0  0  0  0  0  0
  190.3170  170.1360  137.6420 C   0  0  0  0  0  2  0  0  0  0  0  0
  190.1460  170.3580  136.1420 C   0  0  0  0  0  1  0  0  0  0  0  0
  194.2970  173.4560  141.6930 C   0  0  0  0  0  2  0  0  0  0  0  0
  192.8970  173.8480  142.1740 C   0  0  1  0  0  3  0  0  0  0  0  0
  191.3290  172.7530  143.5450 O   0  0  0  0  0  0  0  0  0  0  0  0
  192.4980  173.0810  143.3900 C   0  0  0  0  0  3  0  0  0  0  0  0
  192.7920  175.3450  142.4390 C   0  0  0  0  0  2  0  0  0  0  0  0
  190.1820  177.3940  143.4250 C   0  0  2  0  0  3  0  0  0  0  0  0
  190.6250  176.2000  142.6390 C   0  0  2  0  0  3  0  0  0  0  0  0
  189.3520  178.1930  142.6370 O   0  0  0  0  0  0  0  0  0  0  0  0
  188.1230  177.4980  142.6830 C   0  0  2  0  0  3  0  0  0  0  0  0
  189.4030  175.2940  142.5350 C   0  0  0  0  0  2  0  0  0  0  0  0
  191.4700  177.9880  143.8920 C   0  0  0  0  0  2  0  0  0  0  0  0
  192.2160  176.7100  144.2780 C   0  0  2  0  0  3  0  0  0  0  0  0
  188.1840  176.0940  141.9880 C   0  0  1  0  0  0  0  0  0  0  0  0
  191.7320  175.6220  143.3960 N   0  0  0  0  0  0  0  0  0  0  0  0
  186.9110  175.3280  142.3390 C   0  0  0  0  0  1  0  0  0  0  0  0
  187.0560  176.2770  140.1010 O   0  0  0  0  0  1  0  0  0  0  0  0
  188.2860  176.2720  140.5880 O   0  0  0  0  0  0  0  0  0  0  0  0
  191.9130  176.3950  145.7520 C   0  0  2  0  0  3  0  0  0  0  0  0
  192.9790  175.5060  146.3840 C   0  0  0  0  0  2  0  0  0  0  0  0
  194.3450  176.1770  146.4050 C   0  0  0  0  0  1  0  0  0  0  0  0
  190.4290  175.8790  147.3130 C   0  0  0  0  0  1  0  0  0  0  0  0
  190.6420  175.8370  145.9330 O   0  0  0  0  0  0  0  0  0  0  0  0
  186.9530  178.3900  142.2630 C   0  0  0  0  0  2  0  0  0  0  0  0
  186.5510  179.2440  143.3130 O   0  0  0  0  0  0  0  0  0  0  0  0
  185.7580  178.5360  144.2620 C   0  0  2  0  0  0  0  0  0  0  0  0
  186.5020  177.2880  144.7260 C   0  0  0  0  0  1  0  0  0  0  0  0
  183.4190  179.1500  143.9100 O   0  0  0  0  0  1  0  0  0  0  0  0
  184.4340  177.8310  142.3470 O   0  0  0  0  0  1  0  0  0  0  0  0
  184.3660  178.1420  143.7040 C   0  0  0  0  0  3  0  0  0  0  0  0
  185.5990  179.4130  145.4780 C   0  0  0  0  0  3  0  0  0  0  0  0
  185.1700  178.9420  146.6460 C   0  0  0  0  0  2  0  0  0  0  0  0
  1 38  1  6  0  0  0
  1  7  1  0  0  0  0
  2  7  2  0  0  0  0
  2  3  1  0  0  0  0
  3  6  2  0  0  0  0
  4  5  2  0  0  0  0
  6  5  1  0  0  0  0
  7  4  1  0  0  0  0
  8  1  1  0  0  0  0
  9 11  2  0  0  0  0
  9 13  1  0  0  0  0
 10  8  1  0  0  0  0
 11 12  1  0  0  0  0
 12 14  1  0  0  0  0
 12  8  2  0  0  0  0
 13 10  2  0  0  0  0
 15 14  1  0  0  0  0
 16 15  1  0  0  0  0
 17 18  1  0  0  0  0
 17 16  1  0  0  0  0
 19 16  1  0  0  0  0
 20 36  1  1  0  0  0
 20 19  1  0  0  0  0
 22 21  2  0  0  0  0
 22 20  1  0  0  0  0
 23 22  1  0  0  0  0
 24 33  1  6  0  0  0
 24 23  1  0  0  0  0
 26 25  1  6  0  0  0
 27 24  1  6  0  0  0
 27 26  1  0  0  0  0
 28 31  1  6  0  0  0
 28 29  1  0  0  0  0
 28 27  1  0  0  0  0
 28 26  1  0  0  0  0
 30 29  1  0  0  0  0
 31 32  1  0  0  0  0
 33 34  1  0  0  0  0
 35 34  1  0  0  0  0
 37 36  1  0  0  0  0
 39 38  1  1  0  0  0
 39 42  1  0  0  0  0
 39 41  1  0  0  0  0
 41 40  2  0  0  0  0
 42 51  1  0  0  0  0
 43 48  1  6  0  0  0
 44 47  1  1  0  0  0
 44 51  1  0  0  0  0
 44 43  1  0  0  0  0
 45 46  1  0  0  0  0
 45 43  1  0  0  0  0
 46 60  1  6  0  0  0
 48 49  1  0  0  0  0
 49 55  1  1  0  0  0
 50 52  1  1  0  0  0
 50 47  1  0  0  0  0
 50 46  1  0  0  0  0
 51 49  1  0  0  0  0
 53 54  1  0  0  0  0
 54 50  1  0  0  0  0
 55 59  1  0  0  0  0
 55 56  1  6  0  0  0
 56 57  1  0  0  0  0
 59 58  1  0  0  0  0
 60 61  1  0  0  0  0
 61 62  1  0  0  0  0
 62 63  1  1  0  0  0
 62 67  1  0  0  0  0
 65 66  1  0  0  0  0
 66 64  1  0  0  0  0
 66 62  1  0  0  0  0
 67 68  2  0  0  0  0
M  END
>  <MODEL>
2

>  <REMARK>
 VINA RESULT:      -4.5      2.438      9.545
  Name = 
  30 active torsions:
  status: ('A' for Active; 'I' for Inactive)
    1  A    between atoms: C_2  and  C_21
    2  A    between atoms: C_2  and  O_34
    3  A    between atoms: C_2  and  C_60
    4  A    between atoms: N_4  and  C_56
    5  A    between atoms: N_4  and  N_65
    6  A    between atoms: C_8  and  C_57
    7  A    between atoms: C_10  and  O_34
    8  A    between atoms: C_10  and  C_44
    9  A    between atoms: C_17  and  C_50
   10  A    between atoms: O_19  and  C_61
   11  A    between atoms: C_20  and  C_39
   12  A    between atoms: C_23  and  C_45
   13  A    between atoms: C_23  and  O_54
   14  A    between atoms: C_23  and  N_67
   15  A    between atoms: C_25  and  N_65
   16  A    between atoms: C_26  and  C_33
   17  A    between atoms: C_26  and  C_57
   18  A    between atoms: C_27  and  C_58
   19  A    between atoms: C_30  and  C_50
   20  A    between atoms: C_30  and  N_65
   21  A    between atoms: C_33  and  C_52
   22  A    between atoms: C_33  and  C_55
   23  A    between atoms: C_36  and  C_58
   24  A    between atoms: C_38  and  C_57
   25  A    between atoms: C_39  and  O_53
   26  A    between atoms: C_39  and  C_59
   27  A    between atoms: C_47  and  C_56
   28  A    between atoms: C_50  and  C_64
   29  A    between atoms: C_51  and  O_54
   30  A    between atoms: C_52  and  N_62
                            x       y       z     vdW  Elec       q    Type
                         _______ _______ _______ _____ _____    ______ ____

>  <TORSDO>
F 30

$$$$
=
 OpenBabel11042418573D

 68 72  0  0  1  0  0  0  0  0999 V2000
  191.1070  176.3610  145.6790 C   0  0  2  0  0  3  0  0  0  0  0  0
  191.8210  176.8340  148.0600 C   0  0  0  0  0  3  0  0  0  0  0  0
  191.6250  177.4680  149.2920 C   0  0  0  0  0  3  0  0  0  0  0  0
  189.8350  177.9130  147.1870 C   0  0  0  0  0  3  0  0  0  0  0  0
  189.6370  178.5400  148.4230 C   0  0  0  0  0  3  0  0  0  0  0  0
  190.5280  178.3140  149.4770 C   0  0  0  0  0  3  0  0  0  0  0  0
  190.9180  177.0470  147.0040 C   0  0  0  0  0  0  0  0  0  0  0  0
  190.6750  177.0690  144.4110 C   0  0  0  0  0  0  0  0  0  0  0  0
  190.1780  178.3860  142.0250 C   0  0  0  0  0  3  0  0  0  0  0  0
  191.6410  177.7580  143.7490 N   0  0  0  0  0  0  0  0  0  0  0  0
  189.1390  177.6990  142.6420 C   0  0  0  0  0  3  0  0  0  0  0  0
  189.3730  177.0120  143.8340 C   0  0  0  0  0  0  0  0  0  0  0  0
  191.4120  178.3840  142.5960 N   0  0  0  0  0  0  0  0  0  0  0  0
  188.2230  176.2770  144.4430 C   0  0  0  0  0  2  0  0  0  0  0  0
  187.2610  175.9220  143.4020 N   0  0  0  0  0  2  0  0  0  0  0  0
  186.4480  177.0380  143.1570 N   0  0  0  0  0  0  0  0  0  0  0  0
  186.1600  177.0470  141.7110 C   0  0  0  0  0  2  0  0  0  0  0  0
  186.3520  178.3110  141.1550 O   0  0  0  0  0  1  0  0  0  0  0  0
  185.2270  176.8370  143.9510 C   0  0  0  0  0  2  0  0  0  0  0  0
  184.8300  178.0710  144.7740 C   0  0  2  0  0  3  0  0  0  0  0  0
  184.1350  180.1330  143.7360 O   0  0  0  0  0  0  0  0  0  0  0  0
  183.8190  178.9710  144.1140 C   0  0  0  0  0  0  0  0  0  0  0  0
  182.5080  178.4640  143.8560 N   0  0  0  0  0  2  0  0  0  0  0  0
  181.5330  179.1490  143.0230 C   0  0  1  0  0  3  0  0  0  0  0  0
  183.0230  178.4840  140.3800 C   0  0  0  0  0  1  0  0  0  0  0  0
  181.6560  177.8400  140.6160 C   0  0  1  0  0  3  0  0  0  0  0  0
  180.9630  178.1630  141.9630 C   0  0  2  0  0  3  0  0  0  0  0  0
  180.4820  178.8180  140.6610 C   0  0  2  0  0  0  0  0  0  0  0  0
  179.1900  178.2260  140.1050 C   0  0  0  0  0  2  0  0  0  0  0  0
  178.5160  177.3430  141.1350 C   0  0  0  0  0  1  0  0  0  0  0  0
  180.7600  180.3040  140.3970 C   0  0  0  0  0  2  0  0  0  0  0  0
  179.5670  181.0270  140.4010 O   0  0  0  0  0  1  0  0  0  0  0  0
  180.5790  179.7680  143.8360 O   0  0  0  0  0  0  0  0  0  0  0  0
  179.4020  179.0420  143.6160 C   0  0  0  0  0  2  0  0  0  0  0  0
  178.4710  179.2300  144.7970 C   0  0  0  0  0  1  0  0  0  0  0  0
  186.0750  178.8190  145.2540 C   0  0  0  0  0  2  0  0  0  0  0  0
  186.0060  179.1610  146.7400 C   0  0  0  0  0  1  0  0  0  0  0  0
  190.7840  174.8610  145.6730 C   0  0  0  0  0  2  0  0  0  0  0  0
  191.7040  174.0720  144.7370 C   0  0  1  0  0  3  0  0  0  0  0  0
  193.9170  174.7690  145.1290 O   0  0  0  0  0  0  0  0  0  0  0  0
  193.0690  173.9070  145.3170 C   0  0  0  0  0  3  0  0  0  0  0  0
  191.1150  172.7120  144.3840 C   0  0  0  0  0  2  0  0  0  0  0  0
  192.6830  173.5110  141.4030 C   0  0  2  0  0  3  0  0  0  0  0  0
  192.7010  172.7080  142.6660 C   0  0  2  0  0  3  0  0  0  0  0  0
  193.9340  174.0980  141.2040 O   0  0  0  0  0  0  0  0  0  0  0  0
  194.7030  173.0220  140.7050 C   0  0  2  0  0  3  0  0  0  0  0  0
  193.5320  171.4670  142.3570 C   0  0  0  0  0  2  0  0  0  0  0  0
  191.5180  174.4230  141.5990 C   0  0  0  0  0  2  0  0  0  0  0  0
  190.5230  173.4380  142.2160 C   0  0  2  0  0  3  0  0  0  0  0  0
  194.9090  171.8750  141.7550 C   0  0  1  0  0  0  0  0  0  0  0  0
  191.3010  172.4260  142.9700 N   0  0  0  0  0  0  0  0  0  0  0  0
  195.4960  170.6640  141.0350 C   0  0  0  0  0  1  0  0  0  0  0  0
  196.3020  171.2530  143.3470 O   0  0  0  0  0  1  0  0  0  0  0  0
  195.7880  172.3250  142.7680 O   0  0  0  0  0  0  0  0  0  0  0  0
  189.7230  172.7790  141.0810 C   0  0  2  0  0  3  0  0  0  0  0  0
  190.1670  171.3440  140.8190 C   0  0  0  0  0  2  0  0  0  0  0  0
  190.5420  171.1180  139.3610 C   0  0  0  0  0  1  0  0  0  0  0  0
  188.5000  174.1360  139.8300 C   0  0  0  0  0  1  0  0  0  0  0  0
  189.7530  173.5230  139.8970 O   0  0  0  0  0  0  0  0  0  0  0  0
  195.9720  173.5100  140.0050 C   0  0  0  0  0  2  0  0  0  0  0  0
  195.6790  174.4670  139.0090 O   0  0  0  0  0  0  0  0  0  0  0  0
  196.0870  174.0000  137.7270 C   0  0  2  0  0  0  0  0  0  0  0  0
  196.0920  172.4740  137.7120 C   0  0  0  0  0  1  0  0  0  0  0  0
  197.5160  174.9040  135.9630 O   0  0  0  0  0  1  0  0  0  0  0  0
  197.8680  175.6140  138.1040 O   0  0  0  0  0  1  0  0  0  0  0  0
  197.4820  174.5340  137.3110 C   0  0  0  0  0  3  0  0  0  0  0  0
  195.0470  174.4320  136.7250 C   0  0  0  0  0  3  0  0  0  0  0  0
  194.0500  175.2550  137.0410 C   0  0  0  0  0  2  0  0  0  0  0  0
  1 38  1  1  0  0  0
  1  7  1  0  0  0  0
  2  3  1  0  0  0  0
  3  6  2  0  0  0  0
  4  5  2  0  0  0  0
  5  6  1  0  0  0  0
  7  4  1  0  0  0  0
  7  2  2  0  0  0  0
  8  1  1  0  0  0  0
  9 13  2  0  0  0  0
  9 11  1  0  0  0  0
 10  8  2  0  0  0  0
 11 12  2  0  0  0  0
 12  8  1  0  0  0  0
 12 14  1  0  0  0  0
 13 10  1  0  0  0  0
 15 14  1  0  0  0  0
 16 15  1  0  0  0  0
 16 19  1  0  0  0  0
 17 16  1  0  0  0  0
 18 17  1  0  0  0  0
 20 19  1  6  0  0  0
 20 36  1  0  0  0  0
 21 22  2  0  0  0  0
 22 20  1  0  0  0  0
 23 22  1  0  0  0  0
 24 33  1  1  0  0  0
 24 23  1  0  0  0  0
 26 25  1  1  0  0  0
 26 28  1  0  0  0  0
 26 27  1  0  0  0  0
 27 24  1  1  0  0  0
 28 29  1  6  0  0  0
 28 27  1  0  0  0  0
 29 30  1  0  0  0  0
 31 32  1  0  0  0  0
 31 28  1  0  0  0  0
 34 33  1  0  0  0  0
 34 35  1  0  0  0  0
 36 37  1  0  0  0  0
 39 42  1  1  0  0  0
 39 41  1  0  0  0  0
 39 38  1  0  0  0  0
 40 41  2  0  0  0  0
 43 48  1  1  0  0  0
 43 44  1  0  0  0  0
 44 47  1  6  0  0  0
 44 51  1  0  0  0  0
 45 43  1  0  0  0  0
 46 60  1  1  0  0  0
 46 45  1  0  0  0  0
 46 50  1  0  0  0  0
 48 49  1  0  0  0  0
 49 55  1  6  0  0  0
 49 51  1  0  0  0  0
 50 52  1  6  0  0  0
 50 47  1  0  0  0  0
 50 54  1  0  0  0  0
 51 42  1  0  0  0  0
 54 53  1  0  0  0  0
 55 56  1  6  0  0  0
 57 56  1  0  0  0  0
 58 59  1  0  0  0  0
 59 55  1  0  0  0  0
 61 60  1  0  0  0  0
 62 63  1  1  0  0  0
 62 61  1  0  0  0  0
 64 66  1  0  0  0  0
 66 62  1  0  0  0  0
 66 65  1  0  0  0  0
 67 68  2  0  0  0  0
 67 62  1  0  0  0  0
M  END
>  <MODEL>
3

>  <REMARK>
 VINA RESULT:      -4.4      3.455      7.116
  Name = 
  30 active torsions:
  status: ('A' for Active; 'I' for Inactive)
    1  A    between atoms: C_2  and  C_21
    2  A    between atoms: C_2  and  O_34
    3  A    between atoms: C_2  and  C_60
    4  A    between atoms: N_4  and  C_56
    5  A    between atoms: N_4  and  N_65
    6  A    between atoms: C_8  and  C_57
    7  A    between atoms: C_10  and  O_34
    8  A    between atoms: C_10  and  C_44
    9  A    between atoms: C_17  and  C_50
   10  A    between atoms: O_19  and  C_61
   11  A    between atoms: C_20  and  C_39
   12  A    between atoms: C_23  and  C_45
   13  A    between atoms: C_23  and  O_54
   14  A    between atoms: C_23  and  N_67
   15  A    between atoms: C_25  and  N_65
   16  A    between atoms: C_26  and  C_33
   17  A    between atoms: C_26  and  C_57
   18  A    between atoms: C_27  and  C_58
   19  A    between atoms: C_30  and  C_50
   20  A    between atoms: C_30  and  N_65
   21  A    between atoms: C_33  and  C_52
   22  A    between atoms: C_33  and  C_55
   23  A    between atoms: C_36  and  C_58
   24  A    between atoms: C_38  and  C_57
   25  A    between atoms: C_39  and  O_53
   26  A    between atoms: C_39  and  C_59
   27  A    between atoms: C_47  and  C_56
   28  A    between atoms: C_50  and  C_64
   29  A    between atoms: C_51  and  O_54
   30  A    between atoms: C_52  and  N_62
                            x       y       z     vdW  Elec       q    Type
                         _______ _______ _______ _____ _____    ______ ____

>  <TORSDO>
F 30

$$$$
=
 OpenBabel11042418573D

 68 72  0  0  1  0  0  0  0  0999 V2000
  195.8660  172.1730  141.9210 C   0  0  2  0  0  3  0  0  0  0  0  0
  196.7660  174.4350  142.6110 C   0  0  0  0  0  3  0  0  0  0  0  0
  196.6560  175.8290  142.6690 C   0  0  0  0  0  3  0  0  0  0  0  0
  194.6780  174.3180  141.3880 C   0  0  0  0  0  3  0  0  0  0  0  0
  194.5650  175.7130  141.4540 C   0  0  0  0  0  3  0  0  0  0  0  0
  195.5510  176.4670  142.0990 C   0  0  0  0  0  3  0  0  0  0  0  0
  195.7690  173.6730  141.9780 C   0  0  0  0  0  0  0  0  0  0  0  0
  195.0010  171.3390  142.8440 C   0  0  0  0  0  0  0  0  0  0  0  0
  193.5850  169.5760  144.4440 C   0  0  0  0  0  3  0  0  0  0  0  0
  195.0490  169.9940  142.6590 N   0  0  0  0  0  0  0  0  0  0  0  0
  193.4890  170.9400  144.6980 C   0  0  0  0  0  3  0  0  0  0  0  0
  194.2100  171.8430  143.9160 C   0  0  0  0  0  0  0  0  0  0  0  0
  194.3800  169.1400  143.4300 N   0  0  0  0  0  0  0  0  0  0  0  0
  194.0810  173.2950  144.2460 C   0  0  0  0  0  2  0  0  0  0  0  0
  192.8820  173.5110  145.0510 N   0  0  0  0  0  2  0  0  0  0  0  0
  191.9770  174.2720  144.2980 N   0  0  0  0  0  0  0  0  0  0  0  0
  191.4770  173.3990  143.2200 C   0  0  0  0  0  2  0  0  0  0  0  0
  190.5610  172.4630  143.6980 O   0  0  0  0  0  1  0  0  0  0  0  0
  190.9030  174.6640  145.2210 C   0  0  0  0  0  2  0  0  0  0  0  0
  190.9580  176.1450  145.6200 C   0  0  2  0  0  3  0  0  0  0  0  0
  189.4670  177.4450  146.9990 O   0  0  0  0  0  0  0  0  0  0  0  0
  189.6230  176.7600  145.9500 C   0  0  0  0  0  0  0  0  0  0  0  0
  188.5480  176.6180  145.0190 N   0  0  0  0  0  2  0  0  0  0  0  0
  187.3010  177.3590  145.1160 C   0  0  1  0  0  3  0  0  0  0  0  0
  188.1160  175.8220  142.5430 C   0  0  0  0  0  1  0  0  0  0  0  0
  186.6250  176.0260  142.8160 C   0  0  1  0  0  3  0  0  0  0  0  0
  186.2570  176.7610  144.1290 C   0  0  2  0  0  3  0  0  0  0  0  0
  186.1560  177.4810  142.7770 C   0  0  2  0  0  0  0  0  0  0  0  0
  184.7300  177.6350  142.2580 C   0  0  0  0  0  2  0  0  0  0  0  0
  184.6660  178.6740  141.1580 C   0  0  0  0  0  1  0  0  0  0  0  0
  187.1750  178.5660  142.4040 C   0  0  0  0  0  2  0  0  0  0  0  0
  187.4590  178.5140  141.0390 O   0  0  0  0  0  1  0  0  0  0  0  0
  186.8950  177.4140  146.4520 O   0  0  0  0  0  0  0  0  0  0  0  0
  186.0200  178.5060  146.5120 C   0  0  0  0  0  2  0  0  0  0  0  0
  186.4120  179.3970  147.6740 C   0  0  0  0  0  1  0  0  0  0  0  0
  191.7510  176.9510  144.5900 C   0  0  0  0  0  2  0  0  0  0  0  0
  193.2410  177.0020  144.9170 C   0  0  0  0  0  1  0  0  0  0  0  0
  197.2900  171.6210  141.7660 C   0  0  0  0  0  2  0  0  0  0  0  0
  197.4190  170.6740  140.5680 C   0  0  1  0  0  3  0  0  0  0  0  0
  197.9170  168.4070  140.1800 O   0  0  0  0  0  0  0  0  0  0  0  0
  197.9330  169.3350  140.9790 C   0  0  0  0  0  3  0  0  0  0  0  0
  196.0970  170.5240  139.8260 C   0  0  0  0  0  2  0  0  0  0  0  0
  194.2330  172.1070  137.3750 C   0  0  2  0  0  3  0  0  0  0  0  0
  194.3350  171.6720  138.8040 C   0  0  2  0  0  3  0  0  0  0  0  0
  192.9810  171.7580  136.8670 O   0  0  0  0  0  0  0  0  0  0  0  0
  192.1400  172.7580  137.4050 C   0  0  2  0  0  3  0  0  0  0  0  0
  193.4490  172.6300  139.5940 C   0  0  0  0  0  2  0  0  0  0  0  0
  195.4320  171.4800  136.7450 C   0  0  0  0  0  2  0  0  0  0  0  0
  196.4660  171.7470  137.8400 C   0  0  2  0  0  3  0  0  0  0  0  0
  192.0240  172.6880  138.9670 C   0  0  1  0  0  0  0  0  0  0  0  0
  195.7530  171.7600  139.1400 N   0  0  0  0  0  0  0  0  0  0  0  0
  191.3370  173.9610  139.4560 C   0  0  0  0  0  1  0  0  0  0  0  0
  190.0380  171.9550  139.5820 O   0  0  0  0  0  1  0  0  0  0  0  0
  191.2700  171.5470  139.3270 O   0  0  0  0  0  0  0  0  0  0  0  0
  197.1260  173.1090  137.5650 C   0  0  2  0  0  3  0  0  0  0  0  0
  196.7270  174.1620  138.5940 C   0  0  0  0  0  2  0  0  0  0  0  0
  197.9380  174.8270  139.2320 C   0  0  0  0  0  1  0  0  0  0  0  0
  197.4380  172.6080  135.4320 C   0  0  0  0  0  1  0  0  0  0  0  0
  196.8800  173.5750  136.2690 O   0  0  0  0  0  0  0  0  0  0  0  0
  190.8130  172.8490  136.6500 C   0  0  0  0  0  2  0  0  0  0  0  0
  190.4290  174.1900  136.4380 O   0  0  0  0  0  0  0  0  0  0  0  0
  189.0770  174.2630  135.9960 C   0  0  2  0  0  0  0  0  0  0  0  0
  188.7860  173.1140  135.0360 C   0  0  0  0  0  1  0  0  0  0  0  0
  189.8120  176.0940  134.5540 O   0  0  0  0  0  1  0  0  0  0  0  0
  187.6050  175.5100  134.5130 O   0  0  0  0  0  1  0  0  0  0  0  0
  188.7420  175.6150  135.3150 C   0  0  0  0  0  3  0  0  0  0  0  0
  188.1870  174.0520  137.1940 C   0  0  0  0  0  3  0  0  0  0  0  0
  187.6800  175.0650  137.8940 C   0  0  0  0  0  2  0  0  0  0  0  0
  1 38  1  1  0  0  0
  1  7  1  0  0  0  0
  1  8  1  0  0  0  0
  2  3  1  0  0  0  0
  4  5  2  0  0  0  0
  4  7  1  0  0  0  0
  5  6  1  0  0  0  0
  6  3  2  0  0  0  0
  7  2  2  0  0  0  0
  8 12  1  0  0  0  0
  9 11  1  0  0  0  0
 10  8  2  0  0  0  0
 10 13  1  0  0  0  0
 12 14  1  0  0  0  0
 12 11  2  0  0  0  0
 13  9  2  0  0  0  0
 14 15  1  0  0  0  0
 16 15  1  0  0  0  0
 16 19  1  0  0  0  0
 17 18  1  0  0  0  0
 17 16  1  0  0  0  0
 19 20  1  0  0  0  0
 20 36  1  6  0  0  0
 20 22  1  0  0  0  0
 22 21  2  0  0  0  0
 23 22  1  0  0  0  0
 24 23  1  1  0  0  0
 24 33  1  0  0  0  0
 26 25  1  1  0  0  0
 26 27  1  0  0  0  0
 27 24  1  1  0  0  0
 28 29  1  6  0  0  0
 28 26  1  0  0  0  0
 28 27  1  0  0  0  0
 30 29  1  0  0  0  0
 31 28  1  0  0  0  0
 32 31  1  0  0  0  0
 33 34  1  0  0  0  0
 34 35  1  0  0  0  0
 36 37  1  0  0  0  0
 39 42  1  1  0  0  0
 39 41  1  0  0  0  0
 39 38  1  0  0  0  0
 40 41  2  0  0  0  0
 43 48  1  6  0  0  0
 43 44  1  0  0  0  0
 44 51  1  0  0  0  0
 44 47  1  1  0  0  0
 45 43  1  0  0  0  0
 45 46  1  0  0  0  0
 46 60  1  6  0  0  0
 46 50  1  0  0  0  0
 48 49  1  0  0  0  0
 49 55  1  6  0  0  0
 49 51  1  0  0  0  0
 50 54  1  0  0  0  0
 50 52  1  1  0  0  0
 50 47  1  0  0  0  0
 51 42  1  0  0  0  0
 54 53  1  0  0  0  0
 55 56  1  1  0  0  0
 56 57  1  0  0  0  0
 58 59  1  0  0  0  0
 59 55  1  0  0  0  0
 61 60  1  0  0  0  0
 62 63  1  6  0  0  0
 62 61  1  0  0  0  0
 62 67  1  0  0  0  0
 64 66  1  0  0  0  0
 65 66  1  0  0  0  0
 66 62  1  0  0  0  0
 67 68  2  0  0  0  0
M  END
>  <MODEL>
4

>  <REMARK>
 VINA RESULT:      -3.9      2.320      4.171
  Name = 
  30 active torsions:
  status: ('A' for Active; 'I' for Inactive)
    1  A    between atoms: C_2  and  C_21
    2  A    between atoms: C_2  and  O_34
    3  A    between atoms: C_2  and  C_60
    4  A    between atoms: N_4  and  C_56
    5  A    between atoms: N_4  and  N_65
    6  A    between atoms: C_8  and  C_57
    7  A    between atoms: C_10  and  O_34
    8  A    between atoms: C_10  and  C_44
    9  A    between atoms: C_17  and  C_50
   10  A    between atoms: O_19  and  C_61
   11  A    between atoms: C_20  and  C_39
   12  A    between atoms: C_23  and  C_45
   13  A    between atoms: C_23  and  O_54
   14  A    between atoms: C_23  and  N_67
   15  A    between atoms: C_25  and  N_65
   16  A    between atoms: C_26  and  C_33
   17  A    between atoms: C_26  and  C_57
   18  A    between atoms: C_27  and  C_58
   19  A    between atoms: C_30  and  C_50
   20  A    between atoms: C_30  and  N_65
   21  A    between atoms: C_33  and  C_52
   22  A    between atoms: C_33  and  C_55
   23  A    between atoms: C_36  and  C_58
   24  A    between atoms: C_38  and  C_57
   25  A    between atoms: C_39  and  O_53
   26  A    between atoms: C_39  and  C_59
   27  A    between atoms: C_47  and  C_56
   28  A    between atoms: C_50  and  C_64
   29  A    between atoms: C_51  and  O_54
   30  A    between atoms: C_52  and  N_62
                            x       y       z     vdW  Elec       q    Type
                         _______ _______ _______ _____ _____    ______ ____

>  <TORSDO>
F 30

$$$$
=
 OpenBabel11042418573D

 68 72  0  0  1  0  0  0  0  0999 V2000
  194.3210  171.5130  138.3930 C   0  0  2  0  0  3  0  0  0  0  0  0
  196.4070  170.0850  138.2950 C   0  0  0  0  0  3  0  0  0  0  0  0
  197.4300  169.4620  137.5710 C   0  0  0  0  0  3  0  0  0  0  0  0
  195.4490  170.9180  136.2320 C   0  0  0  0  0  3  0  0  0  0  0  0
  196.4780  170.3010  135.5090 C   0  0  0  0  0  3  0  0  0  0  0  0
  197.4710  169.5780  136.1790 C   0  0  0  0  0  3  0  0  0  0  0  0
  195.4180  170.8260  137.6270 C   0  0  0  0  0  0  0  0  0  0  0  0
  193.7540  172.8160  137.8660 C   0  0  0  0  0  0  0  0  0  0  0  0
  192.5130  175.0290  136.7540 C   0  0  0  0  0  3  0  0  0  0  0  0
  192.9190  172.7180  136.7990 N   0  0  0  0  0  0  0  0  0  0  0  0
  193.3520  175.2080  137.8490 C   0  0  0  0  0  3  0  0  0  0  0  0
  193.9710  174.1040  138.4360 C   0  0  0  0  0  0  0  0  0  0  0  0
  192.3110  173.7770  136.2660 N   0  0  0  0  0  0  0  0  0  0  0  0
  194.8470  174.3540  139.6200 C   0  0  0  0  0  2  0  0  0  0  0  0
  194.0360  174.3820  140.8340 N   0  0  0  0  0  2  0  0  0  0  0  0
  194.4050  175.5080  141.5830 N   0  0  0  0  0  0  0  0  0  0  0  0
  195.5370  176.1380  140.8790 C   0  0  0  0  0  2  0  0  0  0  0  0
  196.6420  176.2940  141.7130 O   0  0  0  0  0  1  0  0  0  0  0  0
  193.2270  176.3870  141.6110 C   0  0  0  0  0  2  0  0  0  0  0  0
  192.5840  176.4950  143.0000 C   0  0  2  0  0  3  0  0  0  0  0  0
  191.1440  178.4260  143.0960 O   0  0  0  0  0  0  0  0  0  0  0  0
  191.2380  177.1690  143.0220 C   0  0  0  0  0  0  0  0  0  0  0  0
  190.0620  176.3680  142.8860 N   0  0  0  0  0  2  0  0  0  0  0  0
  188.7370  176.9220  142.6570 C   0  0  1  0  0  3  0  0  0  0  0  0
  185.9010  175.7960  143.2340 C   0  0  0  0  0  1  0  0  0  0  0  0
  186.5820  176.6200  144.3270 C   0  0  1  0  0  3  0  0  0  0  0  0
  188.0120  177.1290  144.0180 C   0  0  2  0  0  3  0  0  0  0  0  0
  186.8160  178.0890  143.9760 C   0  0  2  0  0  0  0  0  0  0  0  0
  186.7160  179.0150  145.1840 C   0  0  0  0  0  2  0  0  0  0  0  0
  185.5870  178.5880  146.0990 C   0  0  0  0  0  1  0  0  0  0  0  0
  186.2930  178.6100  142.6300 C   0  0  0  0  0  2  0  0  0  0  0  0
  184.9520  178.2610  142.4650 O   0  0  0  0  0  1  0  0  0  0  0  0
  188.8420  178.0630  141.8570 O   0  0  0  0  0  0  0  0  0  0  0  0
  188.0880  177.7670  140.7150 C   0  0  0  0  0  2  0  0  0  0  0  0
  187.9960  176.2630  140.5540 C   0  0  0  0  0  1  0  0  0  0  0  0
  193.5710  177.0950  144.0040 C   0  0  0  0  0  2  0  0  0  0  0  0
  194.6070  176.0780  144.4750 C   0  0  0  0  0  1  0  0  0  0  0  0
  194.4900  171.5020  139.9180 C   0  0  0  0  0  2  0  0  0  0  0  0
  193.4440  170.6240  140.6130 C   0  0  1  0  0  3  0  0  0  0  0  0
  192.3950  168.8520  139.4750 O   0  0  0  0  0  0  0  0  0  0  0  0
  192.4630  170.0630  139.6390 C   0  0  0  0  0  3  0  0  0  0  0  0
  194.0940  169.5010  141.4110 C   0  0  0  0  0  2  0  0  0  0  0  0
  193.7370  171.6520  144.0990 C   0  0  2  0  0  3  0  0  0  0  0  0
  193.0810  170.9100  142.9770 C   0  0  2  0  0  3  0  0  0  0  0  0
  193.2960  172.9760  144.1060 O   0  0  0  0  0  0  0  0  0  0  0  0
  192.0180  172.8730  144.7010 C   0  0  2  0  0  3  0  0  0  0  0  0
  191.6310  170.7070  143.4050 C   0  0  0  0  0  2  0  0  0  0  0  0
  195.1900  171.4110  143.8600 C   0  0  0  0  0  2  0  0  0  0  0  0
  195.1450  169.9290  143.4820 C   0  0  2  0  0  3  0  0  0  0  0  0
  190.9970  172.0660  143.8260 C   0  0  1  0  0  0  0  0  0  0  0  0
  193.8370  169.6700  142.8330 N   0  0  0  0  0  0  0  0  0  0  0  0
  189.7610  171.7770  144.6740 C   0  0  0  0  0  1  0  0  0  0  0  0
  189.8470  172.0940  141.9450 O   0  0  0  0  0  1  0  0  0  0  0  0
  190.6510  172.8340  142.6890 O   0  0  0  0  0  0  0  0  0  0  0  0
  195.2930  169.0940  144.7650 C   0  0  2  0  0  3  0  0  0  0  0  0
  195.2340  169.9530  146.0240 C   0  0  0  0  0  2  0  0  0  0  0  0
  194.3880  169.3130  147.1150 C   0  0  0  0  0  1  0  0  0  0  0  0
  196.7830  168.1660  143.4160 C   0  0  0  0  0  1  0  0  0  0  0  0
  196.4500  168.3070  144.7650 O   0  0  0  0  0  0  0  0  0  0  0  0
  191.5210  174.2250  145.2140 C   0  0  0  0  0  2  0  0  0  0  0  0
  191.3760  174.2240  146.6190 O   0  0  0  0  0  0  0  0  0  0  0  0
  190.5860  175.3300  147.0440 C   0  0  2  0  0  0  0  0  0  0  0  0
  190.7010  176.4640  146.0310 C   0  0  0  0  0  1  0  0  0  0  0  0
  191.6180  174.8510  149.2060 O   0  0  0  0  0  1  0  0  0  0  0  0
  191.7970  176.9690  148.3730 O   0  0  0  0  0  1  0  0  0  0  0  0
  190.9810  175.8410  148.4530 C   0  0  0  0  0  3  0  0  0  0  0  0
  189.1410  174.8970  147.0360 C   0  0  0  0  0  3  0  0  0  0  0  0
  188.1530  175.7030  147.4190 C   0  0  0  0  0  2  0  0  0  0  0  0
  1 38  1  1  0  0  0
  3  2  2  0  0  0  0
  4  7  2  0  0  0  0
  5  6  2  0  0  0  0
  5  4  1  0  0  0  0
  6  3  1  0  0  0  0
  7  2  1  0  0  0  0
  7  1  1  0  0  0  0
  8  1  1  0  0  0  0
  8 12  1  0  0  0  0
  9 11  1  0  0  0  0
 10  8  2  0  0  0  0
 11 12  2  0  0  0  0
 12 14  1  0  0  0  0
 13  9  2  0  0  0  0
 13 10  1  0  0  0  0
 14 15  1  0  0  0  0
 15 16  1  0  0  0  0
 16 19  1  0  0  0  0
 17 16  1  0  0  0  0
 17 18  1  0  0  0  0
 20 19  1  6  0  0  0
 20 22  1  0  0  0  0
 20 36  1  0  0  0  0
 22 21  2  0  0  0  0
 23 22  1  0  0  0  0
 24 33  1  1  0  0  0
 24 23  1  0  0  0  0
 26 25  1  6  0  0  0
 27 24  1  6  0  0  0
 27 26  1  0  0  0  0
 28 31  1  6  0  0  0
 28 27  1  0  0  0  0
 28 26  1  0  0  0  0
 28 29  1  0  0  0  0
 29 30  1  0  0  0  0
 32 31  1  0  0  0  0
 34 33  1  0  0  0  0
 35 34  1  0  0  0  0
 36 37  1  0  0  0  0
 38 39  1  0  0  0  0
 39 41  1  6  0  0  0
 39 42  1  0  0  0  0
 40 41  2  0  0  0  0
 42 51  1  0  0  0  0
 43 48  1  6  0  0  0
 43 45  1  0  0  0  0
 44 47  1  1  0  0  0
 44 43  1  0  0  0  0
 45 46  1  0  0  0  0
 46 60  1  6  0  0  0
 47 50  1  0  0  0  0
 49 48  1  0  0  0  0
 49 55  1  1  0  0  0
 50 52  1  1  0  0  0
 50 46  1  0  0  0  0
 51 44  1  0  0  0  0
 51 49  1  0  0  0  0
 53 54  1  0  0  0  0
 54 50  1  0  0  0  0
 55 59  1  0  0  0  0
 55 56  1  1  0  0  0
 56 57  1  0  0  0  0
 58 59  1  0  0  0  0
 60 61  1  0  0  0  0
 61 62  1  0  0  0  0
 62 63  1  6  0  0  0
 62 66  1  0  0  0  0
 65 66  1  0  0  0  0
 66 64  1  0  0  0  0
 67 62  1  0  0  0  0
 67 68  2  0  0  0  0
M  END
>  <MODEL>
5

>  <REMARK>
 VINA RESULT:      -3.9      2.489      6.737
  Name = 
  30 active torsions:
  status: ('A' for Active; 'I' for Inactive)
    1  A    between atoms: C_2  and  C_21
    2  A    between atoms: C_2  and  O_34
    3  A    between atoms: C_2  and  C_60
    4  A    between atoms: N_4  and  C_56
    5  A    between atoms: N_4  and  N_65
    6  A    between atoms: C_8  and  C_57
    7  A    between atoms: C_10  and  O_34
    8  A    between atoms: C_10  and  C_44
    9  A    between atoms: C_17  and  C_50
   10  A    between atoms: O_19  and  C_61
   11  A    between atoms: C_20  and  C_39
   12  A    between atoms: C_23  and  C_45
   13  A    between atoms: C_23  and  O_54
   14  A    between atoms: C_23  and  N_67
   15  A    between atoms: C_25  and  N_65
   16  A    between atoms: C_26  and  C_33
   17  A    between atoms: C_26  and  C_57
   18  A    between atoms: C_27  and  C_58
   19  A    between atoms: C_30  and  C_50
   20  A    between atoms: C_30  and  N_65
   21  A    between atoms: C_33  and  C_52
   22  A    between atoms: C_33  and  C_55
   23  A    between atoms: C_36  and  C_58
   24  A    between atoms: C_38  and  C_57
   25  A    between atoms: C_39  and  O_53
   26  A    between atoms: C_39  and  C_59
   27  A    between atoms: C_47  and  C_56
   28  A    between atoms: C_50  and  C_64
   29  A    between atoms: C_51  and  O_54
   30  A    between atoms: C_52  and  N_62
                            x       y       z     vdW  Elec       q    Type
                         _______ _______ _______ _____ _____    ______ ____

>  <TORSDO>
F 30

$$$$
=
 OpenBabel11042418573D

 68 72  0  0  1  0  0  0  0  0999 V2000
  193.4430  172.8390  143.0240 C   0  0  2  0  0  3  0  0  0  0  0  0
  191.9030  170.8310  143.0100 C   0  0  0  0  0  3  0  0  0  0  0  0
  191.4970  169.6040  142.4710 C   0  0  0  0  0  3  0  0  0  0  0  0
  193.6420  170.9960  141.3320 C   0  0  0  0  0  3  0  0  0  0  0  0
  193.2400  169.7650  140.7990 C   0  0  0  0  0  3  0  0  0  0  0  0
  192.1720  169.0660  141.3710 C   0  0  0  0  0  3  0  0  0  0  0  0
  192.9860  171.5270  142.4470 C   0  0  0  0  0  0  0  0  0  0  0  0
  194.5070  172.8430  144.1030 C   0  0  0  0  0  0  0  0  0  0  0  0
  196.3790  173.1400  146.1230 C   0  0  0  0  0  3  0  0  0  0  0  0
  194.9150  174.0630  144.5380 N   0  0  0  0  0  0  0  0  0  0  0  0
  196.0080  171.8570  145.7330 C   0  0  0  0  0  3  0  0  0  0  0  0
  195.0520  171.6860  144.7310 C   0  0  0  0  0  0  0  0  0  0  0  0
  195.8060  174.2140  145.5160 N   0  0  0  0  0  0  0  0  0  0  0  0
  194.6810  170.2860  144.3660 C   0  0  0  0  0  2  0  0  0  0  0  0
  195.8830  169.5360  144.0110 N   0  0  0  0  0  2  0  0  0  0  0  0
  196.9170  170.4510  143.7690 N   0  0  0  0  0  0  0  0  0  0  0  0
  197.9410  170.2220  144.8050 C   0  0  0  0  0  2  0  0  0  0  0  0
  197.7550  169.0030  145.4540 O   0  0  0  0  0  1  0  0  0  0  0  0
  197.4280  170.1470  142.4260 C   0  0  0  0  0  2  0  0  0  0  0  0
  197.0200  171.1870  141.3730 C   0  0  2  0  0  3  0  0  0  0  0  0
  197.1300  169.4380  139.7170 O   0  0  0  0  0  0  0  0  0  0  0  0
  196.8610  170.6430  139.9770 C   0  0  0  0  0  0  0  0  0  0  0  0
  196.3290  171.4950  138.9610 N   0  0  0  0  0  2  0  0  0  0  0  0
  195.9130  171.0180  137.6510 C   0  0  1  0  0  3  0  0  0  0  0  0
  195.9480  168.1690  136.4140 C   0  0  0  0  0  1  0  0  0  0  0  0
  194.6930  168.6090  137.1700 C   0  0  1  0  0  3  0  0  0  0  0  0
  194.7300  170.0200  137.8080 C   0  0  2  0  0  3  0  0  0  0  0  0
  193.9250  169.7630  136.5270 C   0  0  2  0  0  0  0  0  0  0  0  0
  192.4180  169.6720  136.7450 C   0  0  0  0  0  2  0  0  0  0  0  0
  191.8580  168.4120  136.1170 C   0  0  0  0  0  1  0  0  0  0  0  0
  194.4220  170.3110  135.1820 C   0  0  0  0  0  2  0  0  0  0  0  0
  193.4990  171.2180  134.6590 O   0  0  0  0  0  1  0  0  0  0  0  0
  195.6660  172.1100  136.8160 O   0  0  0  0  0  0  0  0  0  0  0  0
  195.6530  173.2170  137.6740 C   0  0  0  0  0  2  0  0  0  0  0  0
  194.3210  173.9290  137.5500 C   0  0  0  0  0  1  0  0  0  0  0  0
  197.9380  172.4080  141.4390 C   0  0  0  0  0  2  0  0  0  0  0  0
  197.2710  173.5980  142.1240 C   0  0  0  0  0  1  0  0  0  0  0  0
  192.3260  173.8600  143.2750 C   0  0  0  0  0  2  0  0  0  0  0  0
  191.3630  173.4100  144.3780 C   0  0  1  0  0  3  0  0  0  0  0  0
  192.0480  174.3600  146.4200 O   0  0  0  0  0  0  0  0  0  0  0  0
  191.2720  174.4190  145.4740 C   0  0  0  0  0  3  0  0  0  0  0  0
  189.9760  173.1080  143.8250 C   0  0  0  0  0  2  0  0  0  0  0  0
  187.9600  175.1990  141.9430 C   0  0  2  0  0  3  0  0  0  0  0  0
  189.0910  175.0710  142.9150 C   0  0  2  0  0  3  0  0  0  0  0  0
  187.0760  176.1880  142.3800 O   0  0  0  0  0  0  0  0  0  0  0  0
  187.7440  177.3790  142.0170 C   0  0  2  0  0  3  0  0  0  0  0  0
  189.9560  176.3110  142.7120 C   0  0  0  0  0  2  0  0  0  0  0  0
  187.4390  173.8040  141.8440 C   0  0  0  0  0  2  0  0  0  0  0  0
  188.7630  173.0390  141.8010 C   0  0  2  0  0  3  0  0  0  0  0  0
  189.0830  177.5980  142.8020 C   0  0  1  0  0  0  0  0  0  0  0  0
  189.7590  173.8180  142.5750 N   0  0  0  0  0  0  0  0  0  0  0  0
  189.8470  178.7420  142.1400 C   0  0  0  0  0  1  0  0  0  0  0  0
  189.9340  177.9510  144.8050 O   0  0  0  0  0  1  0  0  0  0  0  0
  188.7860  177.9120  144.1490 O   0  0  0  0  0  0  0  0  0  0  0  0
  189.1980  172.9020  140.3320 C   0  0  2  0  0  3  0  0  0  0  0  0
  190.7000  172.6790  140.1930 C   0  0  0  0  0  2  0  0  0  0  0  0
  191.1140  172.4520  138.7460 C   0  0  0  0  0  1  0  0  0  0  0  0
  188.1490  173.4060  138.4490 C   0  0  0  0  0  1  0  0  0  0  0  0
  188.7900  173.9850  139.5460 O   0  0  0  0  0  0  0  0  0  0  0  0
  186.7910  178.5760  141.9930 C   0  0  0  0  0  2  0  0  0  0  0  0
  186.3890  178.9430  143.2950 O   0  0  0  0  0  0  0  0  0  0  0  0
  185.0280  178.5880  143.5200 C   0  0  2  0  0  0  0  0  0  0  0  0
  184.9370  177.1130  143.8990 C   0  0  0  0  0  1  0  0  0  0  0  0
  184.6980  178.4100  141.1050 O   0  0  0  0  0  1  0  0  0  0  0  0
  182.8590  178.3080  142.4540 O   0  0  0  0  0  1  0  0  0  0  0  0
  184.1240  178.8720  142.2930 C   0  0  0  0  0  3  0  0  0  0  0  0
  184.5380  179.3650  144.7160 C   0  0  0  0  0  3  0  0  0  0  0  0
  185.0630  179.2140  145.9290 C   0  0  0  0  0  2  0  0  0  0  0  0
  1 38  1  1  0  0  0
  1  8  1  0  0  0  0
  3  2  1  0  0  0  0
  4  7  1  0  0  0  0
  5  4  2  0  0  0  0
  5  6  1  0  0  0  0
  6  3  2  0  0  0  0
  7  2  2  0  0  0  0
  7  1  1  0  0  0  0
  8 10  2  0  0  0  0
  8 12  1  0  0  0  0
 10 13  1  0  0  0  0
 11  9  1  0  0  0  0
 12 11  2  0  0  0  0
 13  9  2  0  0  0  0
 14 12  1  0  0  0  0
 15 14  1  0  0  0  0
 16 15  1  0  0  0  0
 16 17  1  0  0  0  0
 17 18  1  0  0  0  0
 19 16  1  0  0  0  0
 20 36  1  6  0  0  0
 20 19  1  0  0  0  0
 21 22  2  0  0  0  0
 22 20  1  0  0  0  0
 23 22  1  0  0  0  0
 24 33  1  6  0  0  0
 24 23  1  0  0  0  0
 26 25  1  6  0  0  0
 26 27  1  0  0  0  0
 27 24  1  6  0  0  0
 28 31  1  6  0  0  0
 28 29  1  0  0  0  0
 28 26  1  0  0  0  0
 28 27  1  0  0  0  0
 30 29  1  0  0  0  0
 32 31  1  0  0  0  0
 33 34  1  0  0  0  0
 35 34  1  0  0  0  0
 36 37  1  0  0  0  0
 39 38  1  6  0  0  0
 39 41  1  0  0  0  0
 41 40  2  0  0  0  0
 42 39  1  0  0  0  0
 43 48  1  1  0  0  0
 43 45  1  0  0  0  0
 43 44  1  0  0  0  0
 44 47  1  6  0  0  0
 46 60  1  1  0  0  0
 46 45  1  0  0  0  0
 46 50  1  0  0  0  0
 47 50  1  0  0  0  0
 49 55  1  6  0  0  0
 49 48  1  0  0  0  0
 49 51  1  0  0  0  0
 50 52  1  6  0  0  0
 50 54  1  0  0  0  0
 51 44  1  0  0  0  0
 51 42  1  0  0  0  0
 54 53  1  0  0  0  0
 55 56  1  1  0  0  0
 57 56  1  0  0  0  0
 58 59  1  0  0  0  0
 59 55  1  0  0  0  0
 60 61  1  0  0  0  0
 61 62  1  0  0  0  0
 62 63  1  1  0  0  0
 62 67  1  0  0  0  0
 64 66  1  0  0  0  0
 66 65  1  0  0  0  0
 66 62  1  0  0  0  0
 67 68  2  0  0  0  0
M  END
>  <MODEL>
6

>  <REMARK>
 VINA RESULT:      -3.7      2.551      9.298
  Name = 
  30 active torsions:
  status: ('A' for Active; 'I' for Inactive)
    1  A    between atoms: C_2  and  C_21
    2  A    between atoms: C_2  and  O_34
    3  A    between atoms: C_2  and  C_60
    4  A    between atoms: N_4  and  C_56
    5  A    between atoms: N_4  and  N_65
    6  A    between atoms: C_8  and  C_57
    7  A    between atoms: C_10  and  O_34
    8  A    between atoms: C_10  and  C_44
    9  A    between atoms: C_17  and  C_50
   10  A    between atoms: O_19  and  C_61
   11  A    between atoms: C_20  and  C_39
   12  A    between atoms: C_23  and  C_45
   13  A    between atoms: C_23  and  O_54
   14  A    between atoms: C_23  and  N_67
   15  A    between atoms: C_25  and  N_65
   16  A    between atoms: C_26  and  C_33
   17  A    between atoms: C_26  and  C_57
   18  A    between atoms: C_27  and  C_58
   19  A    between atoms: C_30  and  C_50
   20  A    between atoms: C_30  and  N_65
   21  A    between atoms: C_33  and  C_52
   22  A    between atoms: C_33  and  C_55
   23  A    between atoms: C_36  and  C_58
   24  A    between atoms: C_38  and  C_57
   25  A    between atoms: C_39  and  O_53
   26  A    between atoms: C_39  and  C_59
   27  A    between atoms: C_47  and  C_56
   28  A    between atoms: C_50  and  C_64
   29  A    between atoms: C_51  and  O_54
   30  A    between atoms: C_52  and  N_62
                            x       y       z     vdW  Elec       q    Type
                         _______ _______ _______ _____ _____    ______ ____

>  <TORSDO>
F 30

$$$$
=
 OpenBabel11042418573D

 68 72  0  0  1  0  0  0  0  0999 V2000
  188.3560  177.3380  144.5520 C   0  0  2  0  0  3  0  0  0  0  0  0
  187.6180  178.1830  146.8200 C   0  0  0  0  0  3  0  0  0  0  0  0
  186.6700  178.2610  147.8470 C   0  0  0  0  0  3  0  0  0  0  0  0
  186.1050  176.8030  145.5250 C   0  0  0  0  0  3  0  0  0  0  0  0
  185.1610  176.8760  146.5570 C   0  0  0  0  0  3  0  0  0  0  0  0
  185.4450  177.5990  147.7200 C   0  0  0  0  0  3  0  0  0  0  0  0
  187.3420  177.4430  145.6580 C   0  0  0  0  0  0  0  0  0  0  0  0
  188.1690  176.2900  143.4730 C   0  0  0  0  0  0  0  0  0  0  0  0
  187.9120  174.1710  141.7080 C   0  0  0  0  0  3  0  0  0  0  0  0
  188.7290  175.0760  143.7130 N   0  0  0  0  0  0  0  0  0  0  0  0
  187.3070  175.3840  141.3960 C   0  0  0  0  0  3  0  0  0  0  0  0
  187.4080  176.4570  142.2810 C   0  0  0  0  0  0  0  0  0  0  0  0
  188.6010  174.0500  142.8740 N   0  0  0  0  0  0  0  0  0  0  0  0
  186.7220  177.7300  141.9010 C   0  0  0  0  0  2  0  0  0  0  0  0
  185.8170  177.4840  140.7810 N   0  0  0  0  0  2  0  0  0  0  0  0
  184.6180  178.1680  141.0270 N   0  0  0  0  0  0  0  0  0  0  0  0
  183.7390  177.9210  139.8690 C   0  0  0  0  0  2  0  0  0  0  0  0
  184.4290  177.3230  138.8160 O   0  0  0  0  0  1  0  0  0  0  0  0
  184.0640  177.5930  142.2600 C   0  0  0  0  0  2  0  0  0  0  0  0
  183.5110  178.6500  143.2260 C   0  0  2  0  0  3  0  0  0  0  0  0
  181.3920  179.4460  144.0560 O   0  0  0  0  0  0  0  0  0  0  0  0
  182.0270  178.8890  143.1190 C   0  0  0  0  0  0  0  0  0  0  0  0
  181.3580  178.5390  141.9060 N   0  0  0  0  0  2  0  0  0  0  0  0
  179.9920  178.9360  141.6010 C   0  0  1  0  0  3  0  0  0  0  0  0
  177.8990  181.2280  141.6890 C   0  0  0  0  0  1  0  0  0  0  0  0
  178.9500  181.2580  140.5780 C   0  0  1  0  0  3  0  0  0  0  0  0
  180.0020  180.1200  140.5930 C   0  0  2  0  0  3  0  0  0  0  0  0
  178.8570  180.1120  139.5710 C   0  0  2  0  0  0  0  0  0  0  0  0
  179.2750  180.5200  138.1620 C   0  0  0  0  0  2  0  0  0  0  0  0
  178.2020  181.3630  137.5040 C   0  0  0  0  0  1  0  0  0  0  0  0
  177.7050  179.1080  139.7140 C   0  0  0  0  0  2  0  0  0  0  0  0
  177.6920  178.2310  138.6290 O   0  0  0  0  0  1  0  0  0  0  0  0
  179.2620  177.8150  141.1970 O   0  0  0  0  0  0  0  0  0  0  0  0
  178.9430  177.1510  142.3890 C   0  0  0  0  0  2  0  0  0  0  0  0
  177.9050  177.9540  143.1460 C   0  0  0  0  0  1  0  0  0  0  0  0
  184.3320  179.9380  143.1420 C   0  0  0  0  0  2  0  0  0  0  0  0
  185.0680  180.2410  144.4450 C   0  0  0  0  0  1  0  0  0  0  0  0
  189.8170  177.4930  144.9960 C   0  0  0  0  0  2  0  0  0  0  0  0
  190.8040  177.1840  143.8650 C   0  0  1  0  0  3  0  0  0  0  0  0
  190.6450  179.0790  142.4810 O   0  0  0  0  0  0  0  0  0  0  0  0
  190.4280  177.8810  142.6010 C   0  0  0  0  0  3  0  0  0  0  0  0
  192.2340  177.5370  144.2550 C   0  0  0  0  0  2  0  0  0  0  0  0
  193.5040  174.5830  142.9730 C   0  0  2  0  0  3  0  0  0  0  0  0
  193.7060  176.0450  143.2190 C   0  0  2  0  0  3  0  0  0  0  0  0
  193.8450  174.2780  141.6540 O   0  0  0  0  0  0  0  0  0  0  0  0
  195.2570  174.2440  141.7020 C   0  0  2  0  0  3  0  0  0  0  0  0
  195.2160  176.2520  143.2800 C   0  0  0  0  0  2  0  0  0  0  0  0
  192.0860  174.3630  143.3860 C   0  0  0  0  0  2  0  0  0  0  0  0
  192.0550  175.2160  144.6560 C   0  0  2  0  0  3  0  0  0  0  0  0
  195.8950  175.6410  142.0170 C   0  0  1  0  0  0  0  0  0  0  0  0
  193.0160  176.3300  144.4740 N   0  0  0  0  0  0  0  0  0  0  0  0
  197.3770  175.4360  142.3210 C   0  0  0  0  0  1  0  0  0  0  0  0
  196.0040  177.7220  141.2940 O   0  0  0  0  0  1  0  0  0  0  0  0
  195.7310  176.4910  140.8980 O   0  0  0  0  0  0  0  0  0  0  0  0
  192.4610  174.3330  145.8470 C   0  0  2  0  0  3  0  0  0  0  0  0
  191.9950  174.9090  147.1790 C   0  0  0  0  0  2  0  0  0  0  0  0
  192.3420  176.3850  147.3180 C   0  0  0  0  0  1  0  0  0  0  0  0
  193.9360  172.6810  145.8490 C   0  0  0  0  0  1  0  0  0  0  0  0
  193.8360  174.0740  145.8810 O   0  0  0  0  0  0  0  0  0  0  0  0
  195.8460  173.5080  140.4970 C   0  0  0  0  0  2  0  0  0  0  0  0
  196.2830  172.2120  140.8460 O   0  0  0  0  0  0  0  0  0  0  0  0
  195.5380  171.2230  140.1430 C   0  0  2  0  0  0  0  0  0  0  0  0
  194.7020  171.8870  139.0530 C   0  0  0  0  0  1  0  0  0  0  0  0
  194.8000  170.7260  142.4180 O   0  0  0  0  0  1  0  0  0  0  0  0
  193.2780  170.5360  140.7270 O   0  0  0  0  0  1  0  0  0  0  0  0
  194.6210  170.3880  141.0740 C   0  0  0  0  0  3  0  0  0  0  0  0
  196.5180  170.3200  139.4370 C   0  0  0  0  0  3  0  0  0  0  0  0
  196.2140  169.0720  139.0870 C   0  0  0  0  0  2  0  0  0  0  0  0
  1 38  1  1  0  0  0
  1  7  1  0  0  0  0
  2  3  1  0  0  0  0
  4  7  1  0  0  0  0
  4  5  2  0  0  0  0
  5  6  1  0  0  0  0
  6  3  2  0  0  0  0
  7  2  2  0  0  0  0
  8 10  1  0  0  0  0
  8  1  1  0  0  0  0
  9 13  1  0  0  0  0
 11  9  2  0  0  0  0
 11 12  1  0  0  0  0
 12  8  2  0  0  0  0
 13 10  2  0  0  0  0
 14 12  1  0  0  0  0
 15 16  1  0  0  0  0
 15 14  1  0  0  0  0
 16 19  1  0  0  0  0
 17 16  1  0  0  0  0
 18 17  1  0  0  0  0
 20 19  1  6  0  0  0
 22 20  1  0  0  0  0
 22 21  2  0  0  0  0
 23 22  1  0  0  0  0
 24 33  1  6  0  0  0
 24 23  1  0  0  0  0
 26 27  1  0  0  0  0
 26 25  1  1  0  0  0
 27 24  1  1  0  0  0
 28 29  1  6  0  0  0
 28 31  1  0  0  0  0
 28 26  1  0  0  0  0
 28 27  1  0  0  0  0
 30 29  1  0  0  0  0
 32 31  1  0  0  0  0
 33 34  1  0  0  0  0
 34 35  1  0  0  0  0
 36 20  1  0  0  0  0
 36 37  1  0  0  0  0
 39 41  1  6  0  0  0
 39 42  1  0  0  0  0
 39 38  1  0  0  0  0
 40 41  2  0  0  0  0
 42 51  1  0  0  0  0
 43 44  1  0  0  0  0
 43 48  1  6  0  0  0
 44 47  1  1  0  0  0
 44 51  1  0  0  0  0
 45 46  1  0  0  0  0
 45 43  1  0  0  0  0
 46 60  1  6  0  0  0
 46 50  1  0  0  0  0
 48 49  1  0  0  0  0
 49 55  1  1  0  0  0
 50 52  1  1  0  0  0
 50 47  1  0  0  0  0
 51 49  1  0  0  0  0
 54 53  1  0  0  0  0
 54 50  1  0  0  0  0
 55 59  1  0  0  0  0
 55 56  1  1  0  0  0
 56 57  1  0  0  0  0
 58 59  1  0  0  0  0
 60 61  1  0  0  0  0
 62 63  1  6  0  0  0
 62 61  1  0  0  0  0
 62 66  1  0  0  0  0
 65 66  1  0  0  0  0
 66 64  1  0  0  0  0
 67 62  1  0  0  0  0
 68 67  2  0  0  0  0
M  END
>  <MODEL>
7

>  <REMARK>
 VINA RESULT:      -3.5      4.194      8.488
  Name = 
  30 active torsions:
  status: ('A' for Active; 'I' for Inactive)
    1  A    between atoms: C_2  and  C_21
    2  A    between atoms: C_2  and  O_34
    3  A    between atoms: C_2  and  C_60
    4  A    between atoms: N_4  and  C_56
    5  A    between atoms: N_4  and  N_65
    6  A    between atoms: C_8  and  C_57
    7  A    between atoms: C_10  and  O_34
    8  A    between atoms: C_10  and  C_44
    9  A    between atoms: C_17  and  C_50
   10  A    between atoms: O_19  and  C_61
   11  A    between atoms: C_20  and  C_39
   12  A    between atoms: C_23  and  C_45
   13  A    between atoms: C_23  and  O_54
   14  A    between atoms: C_23  and  N_67
   15  A    between atoms: C_25  and  N_65
   16  A    between atoms: C_26  and  C_33
   17  A    between atoms: C_26  and  C_57
   18  A    between atoms: C_27  and  C_58
   19  A    between atoms: C_30  and  C_50
   20  A    between atoms: C_30  and  N_65
   21  A    between atoms: C_33  and  C_52
   22  A    between atoms: C_33  and  C_55
   23  A    between atoms: C_36  and  C_58
   24  A    between atoms: C_38  and  C_57
   25  A    between atoms: C_39  and  O_53
   26  A    between atoms: C_39  and  C_59
   27  A    between atoms: C_47  and  C_56
   28  A    between atoms: C_50  and  C_64
   29  A    between atoms: C_51  and  O_54
   30  A    between atoms: C_52  and  N_62
                            x       y       z     vdW  Elec       q    Type
                         _______ _______ _______ _____ _____    ______ ____

>  <TORSDO>
F 30

$$$$
=
 OpenBabel11042418573D

 68 72  0  0  1  0  0  0  0  0999 V2000
  194.6350  171.5160  138.9110 C   0  0  2  0  0  3  0  0  0  0  0  0
  196.2850  169.6210  138.6110 C   0  0  0  0  0  3  0  0  0  0  0  0
  197.3610  169.0320  137.9370 C   0  0  0  0  0  3  0  0  0  0  0  0
  196.3500  171.4960  137.0780 C   0  0  0  0  0  3  0  0  0  0  0  0
  197.4320  170.9090  136.4110 C   0  0  0  0  0  3  0  0  0  0  0  0
  197.9410  169.6800  136.8440 C   0  0  0  0  0  3  0  0  0  0  0  0
  195.7820  170.8640  138.1880 C   0  0  0  0  0  0  0  0  0  0  0  0
  194.0220  172.7780  138.3390 C   0  0  0  0  0  0  0  0  0  0  0  0
  192.7020  174.9070  137.1560 C   0  0  0  0  0  3  0  0  0  0  0  0
  193.1740  172.6120  137.2910 N   0  0  0  0  0  0  0  0  0  0  0  0
  193.5520  175.1550  138.2280 C   0  0  0  0  0  3  0  0  0  0  0  0
  194.2110  174.0950  138.8510 C   0  0  0  0  0  0  0  0  0  0  0  0
  192.5280  173.6290  136.7240 N   0  0  0  0  0  0  0  0  0  0  0  0
  195.0980  174.4200  140.0080 C   0  0  0  0  0  2  0  0  0  0  0  0
  194.3440  174.3000  141.2540 N   0  0  0  0  0  2  0  0  0  0  0  0
  194.8010  175.2840  142.1410 N   0  0  0  0  0  0  0  0  0  0  0  0
  196.1040  175.7490  141.6300 C   0  0  0  0  0  2  0  0  0  0  0  0
  197.0990  175.6680  142.6020 O   0  0  0  0  0  1  0  0  0  0  0  0
  193.7960  176.3560  142.1170 C   0  0  0  0  0  2  0  0  0  0  0  0
  193.0380  176.5050  143.4430 C   0  0  2  0  0  3  0  0  0  0  0  0
  191.5090  178.3660  143.5350 O   0  0  0  0  0  0  0  0  0  0  0  0
  191.6740  177.1330  143.3240 C   0  0  0  0  0  0  0  0  0  0  0  0
  190.5760  176.3250  142.8960 N   0  0  0  0  0  2  0  0  0  0  0  0
  189.2800  176.8660  142.5200 C   0  0  1  0  0  3  0  0  0  0  0  0
  186.3300  176.6510  141.5740 C   0  0  0  0  0  1  0  0  0  0  0  0
  187.4280  176.1930  140.6120 C   0  0  1  0  0  3  0  0  0  0  0  0
  188.8880  176.3550  141.1040 C   0  0  2  0  0  3  0  0  0  0  0  0
  188.2230  174.9720  141.0750 C   0  0  2  0  0  0  0  0  0  0  0  0
  188.6790  174.0840  139.9220 C   0  0  0  0  0  2  0  0  0  0  0  0
  188.0850  174.5570  138.6110 C   0  0  0  0  0  1  0  0  0  0  0  0
  187.8110  174.2880  142.3860 C   0  0  0  0  0  2  0  0  0  0  0  0
  186.8270  173.3300  142.1430 O   0  0  0  0  0  1  0  0  0  0  0  0
  188.3530  176.5960  143.5300 O   0  0  0  0  0  0  0  0  0  0  0  0
  188.2500  177.7950  144.2470 C   0  0  0  0  0  2  0  0  0  0  0  0
  186.7920  178.0650  144.5610 C   0  0  0  0  0  1  0  0  0  0  0  0
  193.9190  177.1820  144.4940 C   0  0  0  0  0  2  0  0  0  0  0  0
  194.7440  176.1770  145.2930 C   0  0  0  0  0  1  0  0  0  0  0  0
  194.7650  171.5470  140.4400 C   0  0  0  0  0  2  0  0  0  0  0  0
  193.7530  170.6250  141.1270 C   0  0  1  0  0  3  0  0  0  0  0  0
  193.0810  168.6590  140.0230 O   0  0  0  0  0  0  0  0  0  0  0  0
  192.9340  169.8690  140.1360 C   0  0  0  0  0  3  0  0  0  0  0  0
  194.4360  169.6600  142.0890 C   0  0  0  0  0  2  0  0  0  0  0  0
  193.6040  172.0860  144.4140 C   0  0  2  0  0  3  0  0  0  0  0  0
  193.1320  171.0800  143.4120 C   0  0  2  0  0  3  0  0  0  0  0  0
  192.9350  173.2950  144.2140 O   0  0  0  0  0  0  0  0  0  0  0  0
  191.6750  173.0510  144.8060 C   0  0  2  0  0  3  0  0  0  0  0  0
  191.7260  170.6830  143.8530 C   0  0  0  0  0  2  0  0  0  0  0  0
  195.0850  172.0800  144.2270 C   0  0  0  0  0  2  0  0  0  0  0  0
  195.3170  170.5750  144.0800 C   0  0  2  0  0  3  0  0  0  0  0  0
  190.8460  171.9520  144.0550 C   0  0  1  0  0  0  0  0  0  0  0  0
  194.1020  169.9890  143.4660 N   0  0  0  0  0  0  0  0  0  0  0  0
  189.6510  171.5730  144.9260 C   0  0  0  0  0  1  0  0  0  0  0  0
  191.0280  173.6210  142.6260 O   0  0  0  0  0  1  0  0  0  0  0  0
  190.4110  172.4670  142.8110 O   0  0  0  0  0  0  0  0  0  0  0  0
  195.5640  169.9810  145.4770 C   0  0  2  0  0  3  0  0  0  0  0  0
  196.4940  168.7720  145.4340 C   0  0  0  0  0  2  0  0  0  0  0  0
  196.9040  168.3160  146.8270 C   0  0  0  0  0  1  0  0  0  0  0  0
  194.2290  168.2830  145.9640 C   0  0  0  0  0  1  0  0  0  0  0  0
  194.3770  169.6600  146.1440 O   0  0  0  0  0  0  0  0  0  0  0  0
  190.9280  174.3530  145.1020 C   0  0  0  0  0  2  0  0  0  0  0  0
  191.5890  175.1170  146.0870 O   0  0  0  0  0  0  0  0  0  0  0  0
  190.6890  175.4860  147.1270 C   0  0  2  0  0  0  0  0  0  0  0  0
  191.2500  175.0440  148.4740 C   0  0  0  0  0  1  0  0  0  0  0  0
  188.9290  174.0060  147.9530 O   0  0  0  0  0  1  0  0  0  0  0  0
  188.3090  175.9000  146.8400 O   0  0  0  0  0  1  0  0  0  0  0  0
  189.2700  174.8940  146.9280 C   0  0  0  0  0  3  0  0  0  0  0  0
  190.6210  176.9920  147.1680 C   0  0  0  0  0  3  0  0  0  0  0  0
  191.7110  177.7550  147.1900 C   0  0  0  0  0  2  0  0  0  0  0  0
  1 38  1  1  0  0  0
  3  2  2  0  0  0  0
  4  7  2  0  0  0  0
  5  6  2  0  0  0  0
  5  4  1  0  0  0  0
  6  3  1  0  0  0  0
  7  2  1  0  0  0  0
  7  1  1  0  0  0  0
  8 12  1  0  0  0  0
  8  1  1  0  0  0  0
  9 11  1  0  0  0  0
 10  8  2  0  0  0  0
 11 12  2  0  0  0  0
 12 14  1  0  0  0  0
 13  9  2  0  0  0  0
 13 10  1  0  0  0  0
 14 15  1  0  0  0  0
 15 16  1  0  0  0  0
 17 16  1  0  0  0  0
 17 18  1  0  0  0  0
 19 16  1  0  0  0  0
 20 19  1  6  0  0  0
 20 36  1  0  0  0  0
 22 20  1  0  0  0  0
 22 21  2  0  0  0  0
 23 22  1  0  0  0  0
 24 23  1  1  0  0  0
 24 33  1  0  0  0  0
 26 28  1  0  0  0  0
 26 27  1  0  0  0  0
 26 25  1  1  0  0  0
 27 24  1  1  0  0  0
 28 29  1  6  0  0  0
 28 27  1  0  0  0  0
 28 31  1  0  0  0  0
 30 29  1  0  0  0  0
 32 31  1  0  0  0  0
 33 34  1  0  0  0  0
 34 35  1  0  0  0  0
 36 37  1  0  0  0  0
 38 39  1  0  0  0  0
 39 41  1  6  0  0  0
 39 42  1  0  0  0  0
 40 41  2  0  0  0  0
 42 51  1  0  0  0  0
 43 48  1  6  0  0  0
 44 51  1  0  0  0  0
 44 47  1  1  0  0  0
 44 43  1  0  0  0  0
 45 43  1  0  0  0  0
 45 46  1  0  0  0  0
 46 60  1  6  0  0  0
 47 50  1  0  0  0  0
 49 48  1  0  0  0  0
 49 55  1  1  0  0  0
 50 46  1  0  0  0  0
 50 52  1  1  0  0  0
 51 49  1  0  0  0  0
 53 54  1  0  0  0  0
 54 50  1  0  0  0  0
 55 56  1  6  0  0  0
 55 59  1  0  0  0  0
 56 57  1  0  0  0  0
 58 59  1  0  0  0  0
 60 61  1  0  0  0  0
 61 62  1  0  0  0  0
 62 67  1  0  0  0  0
 62 63  1  1  0  0  0
 65 66  1  0  0  0  0
 66 62  1  0  0  0  0
 66 64  1  0  0  0  0
 67 68  2  0  0  0  0
M  END
>  <MODEL>
8

>  <REMARK>
 VINA RESULT:      -3.5      2.488      6.840
  Name = 
  30 active torsions:
  status: ('A' for Active; 'I' for Inactive)
    1  A    between atoms: C_2  and  C_21
    2  A    between atoms: C_2  and  O_34
    3  A    between atoms: C_2  and  C_60
    4  A    between atoms: N_4  and  C_56
    5  A    between atoms: N_4  and  N_65
    6  A    between atoms: C_8  and  C_57
    7  A    between atoms: C_10  and  O_34
    8  A    between atoms: C_10  and  C_44
    9  A    between atoms: C_17  and  C_50
   10  A    between atoms: O_19  and  C_61
   11  A    between atoms: C_20  and  C_39
   12  A    between atoms: C_23  and  C_45
   13  A    between atoms: C_23  and  O_54
   14  A    between atoms: C_23  and  N_67
   15  A    between atoms: C_25  and  N_65
   16  A    between atoms: C_26  and  C_33
   17  A    between atoms: C_26  and  C_57
   18  A    between atoms: C_27  and  C_58
   19  A    between atoms: C_30  and  C_50
   20  A    between atoms: C_30  and  N_65
   21  A    between atoms: C_33  and  C_52
   22  A    between atoms: C_33  and  C_55
   23  A    between atoms: C_36  and  C_58
   24  A    between atoms: C_38  and  C_57
   25  A    between atoms: C_39  and  O_53
   26  A    between atoms: C_39  and  C_59
   27  A    between atoms: C_47  and  C_56
   28  A    between atoms: C_50  and  C_64
   29  A    between atoms: C_51  and  O_54
   30  A    between atoms: C_52  and  N_62
                            x       y       z     vdW  Elec       q    Type
                         _______ _______ _______ _____ _____    ______ ____

>  <TORSDO>
F 30

$$$$
=
 OpenBabel11042418573D

 68 72  0  0  1  0  0  0  0  0999 V2000
  194.3500  172.1310  145.3790 C   0  0  2  0  0  3  0  0  0  0  0  0
  194.3000  169.6070  145.2040 C   0  0  0  0  0  3  0  0  0  0  0  0
  194.7220  168.3430  145.6310 C   0  0  0  0  0  3  0  0  0  0  0  0
  195.7470  170.6480  146.8440 C   0  0  0  0  0  3  0  0  0  0  0  0
  196.1620  169.3820  147.2760 C   0  0  0  0  0  3  0  0  0  0  0  0
  195.6460  168.2300  146.6740 C   0  0  0  0  0  3  0  0  0  0  0  0
  194.8050  170.7660  145.8180 C   0  0  0  0  0  0  0  0  0  0  0  0
  193.3960  172.2520  144.2080 C   0  0  0  0  0  0  0  0  0  0  0  0
  191.6390  172.1710  142.0680 C   0  0  0  0  0  3  0  0  0  0  0  0
  193.1840  171.1200  143.4870 N   0  0  0  0  0  0  0  0  0  0  0  0
  191.8000  173.3660  142.7610 C   0  0  0  0  0  3  0  0  0  0  0  0
  192.6650  173.4230  143.8540 C   0  0  0  0  0  0  0  0  0  0  0  0
  192.3330  171.0710  142.4640 N   0  0  0  0  0  0  0  0  0  0  0  0
  192.7850  174.7290  144.5700 C   0  0  0  0  0  2  0  0  0  0  0  0
  192.6180  174.5180  146.0060 N   0  0  0  0  0  2  0  0  0  0  0  0
  192.8580  175.7350  146.6600 N   0  0  0  0  0  0  0  0  0  0  0  0
  192.5060  176.8070  145.7100 C   0  0  0  0  0  2  0  0  0  0  0  0
  193.5990  177.6240  145.4260 O   0  0  0  0  0  1  0  0  0  0  0  0
  191.9820  175.7470  147.8390 C   0  0  0  0  0  2  0  0  0  0  0  0
  190.6720  176.5150  147.6120 C   0  0  2  0  0  3  0  0  0  0  0  0
  190.1080  174.9960  145.8270 O   0  0  0  0  0  0  0  0  0  0  0  0
  189.9130  176.1170  146.3730 C   0  0  0  0  0  0  0  0  0  0  0  0
  188.9140  177.0010  145.8620 N   0  0  0  0  0  2  0  0  0  0  0  0
  187.9650  176.6250  144.8260 C   0  0  1  0  0  3  0  0  0  0  0  0
  190.4090  177.7200  143.2530 C   0  0  0  0  0  1  0  0  0  0  0  0
  189.8850  176.3310  142.8880 C   0  0  1  0  0  3  0  0  0  0  0  0
  188.6910  175.8020  143.7220 C   0  0  2  0  0  3  0  0  0  0  0  0
  188.4780  176.3090  142.2890 C   0  0  2  0  0  0  0  0  0  0  0  0
  188.2860  175.2020  141.2580 C   0  0  0  0  0  2  0  0  0  0  0  0
  188.0490  173.8680  141.9370 C   0  0  0  0  0  1  0  0  0  0  0  0
  187.7690  177.6480  142.0440 C   0  0  0  0  0  2  0  0  0  0  0  0
  187.5340  177.8280  140.6810 O   0  0  0  0  0  1  0  0  0  0  0  0
  186.8630  175.9950  145.4110 O   0  0  0  0  0  0  0  0  0  0  0  0
  186.3950  176.9110  146.3610 C   0  0  0  0  0  2  0  0  0  0  0  0
  185.0180  176.4840  146.8300 C   0  0  0  0  0  1  0  0  0  0  0  0
  190.9090  178.0220  147.7120 C   0  0  0  0  0  2  0  0  0  0  0  0
  190.2100  178.6390  148.9200 C   0  0  0  0  0  1  0  0  0  0  0  0
  195.4410  173.2100  145.3820 C   0  0  0  0  0  2  0  0  0  0  0  0
  196.2200  173.2530  144.0640 C   0  0  1  0  0  3  0  0  0  0  0  0
  196.4370  175.5950  144.1440 O   0  0  0  0  0  0  0  0  0  0  0  0
  196.9870  174.5250  143.9190 C   0  0  0  0  0  3  0  0  0  0  0  0
  197.1540  172.0570  143.9240 C   0  0  0  0  0  2  0  0  0  0  0  0
  195.9100  172.0700  140.6930 C   0  0  2  0  0  3  0  0  0  0  0  0
  196.7030  172.7790  141.7460 C   0  0  2  0  0  3  0  0  0  0  0  0
  195.0070  172.9590  140.1080 O   0  0  0  0  0  0  0  0  0  0  0  0
  195.8290  173.6980  139.2270 C   0  0  2  0  0  3  0  0  0  0  0  0
  197.6710  173.6880  140.9960 C   0  0  0  0  0  2  0  0  0  0  0  0
  195.3460  170.8980  141.4270 C   0  0  0  0  0  2  0  0  0  0  0  0
  196.5720  170.4970  142.2490 C   0  0  2  0  0  3  0  0  0  0  0  0
  196.8990  174.5710  139.9710 C   0  0  1  0  0  0  0  0  0  0  0  0
  197.3540  171.7270  142.5210 N   0  0  0  0  0  0  0  0  0  0  0  0
  197.8960  175.0920  138.9400 C   0  0  0  0  0  1  0  0  0  0  0  0
  197.1510  176.5950  140.8080 O   0  0  0  0  0  1  0  0  0  0  0  0
  196.2490  175.6460  140.6220 O   0  0  0  0  0  0  0  0  0  0  0  0
  197.4000  169.4930  141.4310 C   0  0  2  0  0  3  0  0  0  0  0  0
  197.1360  169.6100  139.9330 C   0  0  0  0  0  2  0  0  0  0  0  0
  197.6140  168.3840  139.1690 C   0  0  0  0  0  1  0  0  0  0  0  0
  197.1120  168.2580  143.2460 C   0  0  0  0  0  1  0  0  0  0  0  0
  197.2190  168.1720  141.8560 O   0  0  0  0  0  0  0  0  0  0  0  0
  195.0070  174.4280  138.1640 C   0  0  0  0  0  2  0  0  0  0  0  0
  193.6220  174.2450  138.3650 O   0  0  0  0  0  0  0  0  0  0  0  0
  193.0680  173.4280  137.3380 C   0  0  2  0  0  0  0  0  0  0  0  0
  194.1530  173.0620  136.3300 C   0  0  0  0  0  1  0  0  0  0  0  0
  192.0220  175.4950  136.5620 O   0  0  0  0  0  1  0  0  0  0  0  0
  191.7260  173.6040  135.3170 O   0  0  0  0  0  1  0  0  0  0  0  0
  191.8790  174.1050  136.6090 C   0  0  0  0  0  3  0  0  0  0  0  0
  192.6200  172.1330  137.9690 C   0  0  0  0  0  3  0  0  0  0  0  0
  191.3960  171.9680  138.4650 C   0  0  0  0  0  2  0  0  0  0  0  0
  1 38  1  6  0  0  0
  1  7  1  0  0  0  0
  2  3  2  0  0  0  0
  2  7  1  0  0  0  0
  3  6  1  0  0  0  0
  4  5  1  0  0  0  0
  6  5  2  0  0  0  0
  7  4  2  0  0  0  0
  8  1  1  0  0  0  0
  9 13  2  0  0  0  0
  9 11  1  0  0  0  0
 10  8  2  0  0  0  0
 11 12  2  0  0  0  0
 12  8  1  0  0  0  0
 12 14  1  0  0  0  0
 13 10  1  0  0  0  0
 14 15  1  0  0  0  0
 15 16  1  0  0  0  0
 16 19  1  0  0  0  0
 17 16  1  0  0  0  0
 18 17  1  0  0  0  0
 20 36  1  6  0  0  0
 20 19  1  0  0  0  0
 21 22  2  0  0  0  0
 22 20  1  0  0  0  0
 23 22  1  0  0  0  0
 24 33  1  1  0  0  0
 24 23  1  0  0  0  0
 26 25  1  1  0  0  0
 26 27  1  0  0  0  0
 27 24  1  1  0  0  0
 28 29  1  6  0  0  0
 28 26  1  0  0  0  0
 28 27  1  0  0  0  0
 29 30  1  0  0  0  0
 31 28  1  0  0  0  0
 32 31  1  0  0  0  0
 33 34  1  0  0  0  0
 34 35  1  0  0  0  0
 36 37  1  0  0  0  0
 39 41  1  1  0  0  0
 39 38  1  0  0  0  0
 41 40  2  0  0  0  0
 42 39  1  0  0  0  0
 43 48  1  1  0  0  0
 43 44  1  0  0  0  0
 44 47  1  6  0  0  0
 44 51  1  0  0  0  0
 45 43  1  0  0  0  0
 46 60  1  1  0  0  0
 46 50  1  0  0  0  0
 46 45  1  0  0  0  0
 48 49  1  0  0  0  0
 49 55  1  6  0  0  0
 49 51  1  0  0  0  0
 50 52  1  6  0  0  0
 50 54  1  0  0  0  0
 50 47  1  0  0  0  0
 51 42  1  0  0  0  0
 54 53  1  0  0  0  0
 55 56  1  6  0  0  0
 55 59  1  0  0  0  0
 57 56  1  0  0  0  0
 59 58  1  0  0  0  0
 60 61  1  0  0  0  0
 62 63  1  6  0  0  0
 62 67  1  0  0  0  0
 62 61  1  0  0  0  0
 64 66  1  0  0  0  0
 65 66  1  0  0  0  0
 66 62  1  0  0  0  0
 67 68  2  0  0  0  0
M  END
>  <MODEL>
9

>  <REMARK>
 VINA RESULT:      -3.2      1.697      2.828
  Name = 
  30 active torsions:
  status: ('A' for Active; 'I' for Inactive)
    1  A    between atoms: C_2  and  C_21
    2  A    between atoms: C_2  and  O_34
    3  A    between atoms: C_2  and  C_60
    4  A    between atoms: N_4  and  C_56
    5  A    between atoms: N_4  and  N_65
    6  A    between atoms: C_8  and  C_57
    7  A    between atoms: C_10  and  O_34
    8  A    between atoms: C_10  and  C_44
    9  A    between atoms: C_17  and  C_50
   10  A    between atoms: O_19  and  C_61
   11  A    between atoms: C_20  and  C_39
   12  A    between atoms: C_23  and  C_45
   13  A    between atoms: C_23  and  O_54
   14  A    between atoms: C_23  and  N_67
   15  A    between atoms: C_25  and  N_65
   16  A    between atoms: C_26  and  C_33
   17  A    between atoms: C_26  and  C_57
   18  A    between atoms: C_27  and  C_58
   19  A    between atoms: C_30  and  C_50
   20  A    between atoms: C_30  and  N_65
   21  A    between atoms: C_33  and  C_52
   22  A    between atoms: C_33  and  C_55
   23  A    between atoms: C_36  and  C_58
   24  A    between atoms: C_38  and  C_57
   25  A    between atoms: C_39  and  O_53
   26  A    between atoms: C_39  and  C_59
   27  A    between atoms: C_47  and  C_56
   28  A    between atoms: C_50  and  C_64
   29  A    between atoms: C_51  and  O_54
   30  A    between atoms: C_52  and  N_62
                            x       y       z     vdW  Elec       q    Type
                         _______ _______ _______ _____ _____    ______ ____

>  <TORSDO>
F 30

$$$$
