=
 OpenBabel11042415493D

 50 56  0  0  1  0  0  0  0  0999 V2000
  189.3330  175.8540  143.2490 C   0  0  0  0  0  0  0  0  0  0  0  0
  192.0590  175.4180  144.4090 C   0  0  0  0  0  2  0  0  0  0  0  0
  191.1820  175.2780  146.4310 C   0  0  0  0  0  0  0  0  0  0  0  0
  189.6330  175.7770  144.6290 C   0  0  0  0  0  0  0  0  0  0  0  0
  190.9330  175.5120  145.1050 C   0  0  0  0  0  0  0  0  0  0  0  0
  192.4580  175.0440  146.6660 C   0  0  0  0  0  2  0  0  0  0  0  0
  188.0510  176.2300  142.8300 C   0  0  0  0  0  0  0  0  0  0  0  0
  188.5910  175.9080  145.5940 C   0  0  0  0  0  0  0  0  0  0  0  0
  187.8250  175.3500  147.8530 O   0  0  0  0  0  1  0  0  0  0  0  0
  193.1780  175.1050  145.3540 C   0  0  2  0  0  3  0  0  0  0  0  0
  188.8580  175.5200  146.9400 C   0  0  0  0  0  0  0  0  0  0  0  0
  187.3110  176.3390  145.1510 C   0  0  0  0  0  0  0  0  0  0  0  0
  190.1600  175.2420  147.3640 C   0  0  0  0  0  3  0  0  0  0  0  0
  187.0660  176.4850  143.7860 C   0  0  0  0  0  3  0  0  0  0  0  0
  186.2560  176.7150  146.0440 N   0  0  0  0  0  2  0  0  0  0  0  0
  184.5940  178.3070  147.0900 C   0  0  0  0  0  1  0  0  0  0  0  0
  185.7230  178.0400  146.1610 C   0  0  0  0  0  0  0  0  0  0  0  0
  186.2100  178.9920  145.4920 O   0  0  0  0  0  0  0  0  0  0  0  0
  190.2750  175.4200  142.3020 O   0  0  0  0  0  0  0  0  0  0  0  0
  190.8350  171.9540  142.2060 C   0  0  2  0  0  3  0  0  0  0  0  0
  188.5320  172.5810  142.4370 O   0  0  0  0  0  1  0  0  0  0  0  0
  189.8410  173.0330  142.5720 C   0  0  2  0  0  3  0  0  0  0  0  0
  191.5460  171.4810  143.4610 C   0  0  0  0  0  1  0  0  0  0  0  0
  191.7730  172.6020  141.3340 N   0  0  0  0  0  2  0  0  0  0  0  0
  190.1100  174.1800  141.5990 C   0  0  2  0  0  3  0  0  0  0  0  0
  191.4050  173.7740  140.9860 C   0  0  0  0  0  2  0  0  0  0  0  0
  194.1830  176.2610  145.3660 C   0  0  0  0  0  2  0  0  0  0  0  0
  196.1640  176.0460  144.0650 N   0  0  0  0  0  2  0  0  0  0  0  0
  195.6880  174.3930  145.5740 C   0  0  0  0  0  2  0  0  0  0  0  0
  195.5940  175.8260  145.3350 N   0  0  0  0  0  0  0  0  0  0  0  0
  196.9260  173.9950  144.8270 C   0  0  2  0  0  3  0  0  0  0  0  0
  197.1800  175.0830  143.8880 N   0  0  0  0  0  2  0  0  0  0  0  0
  196.7300  172.7050  144.0820 C   0  0  0  0  0  0  0  0  0  0  0  0
  197.0430  171.6000  144.6780 N   0  0  0  0  0  0  0  0  0  0  0  0
  194.9010  172.8650  142.5610 O   0  0  0  0  0  1  0  0  0  0  0  0
  196.2900  172.7310  142.6390 C   0  0  0  0  0  2  0  0  0  0  0  0
  197.0000  170.3140  144.0210 C   0  0  0  0  0  2  0  0  0  0  0  0
  195.0980  169.0550  144.9550 C   0  0  0  0  0  2  0  0  0  0  0  0
  196.5840  169.2300  145.0080 C   0  0  2  0  0  3  0  0  0  0  0  0
  195.7220  169.2500  147.2590 N   0  0  0  0  0  2  0  0  0  0  0  0
  194.7330  168.6630  146.3620 C   0  0  0  0  0  2  0  0  0  0  0  0
  196.8300  169.7060  146.4240 C   0  0  0  0  0  2  0  0  0  0  0  0
  187.7710  176.3210  141.4290 N   0  0  0  0  0  2  0  0  0  0  0  0
  185.9550  177.1810  140.1950 O   0  0  0  0  0  0  0  0  0  0  0  0
  185.4480  178.9010  141.5250 N   0  0  0  0  0  0  0  0  0  0  0  0
  185.0070  178.0770  140.6460 C   0  0  0  0  0  0  0  0  0  0  0  0
  187.2040  177.5000  140.7870 C   0  0  1  0  0  3  0  0  0  0  0  0
  186.8340  178.5670  141.8280 C   0  0  0  0  0  2  0  0  0  0  0  0
  182.5570  178.1060  140.9250 C   0  0  0  0  0  1  0  0  0  0  0  0
  183.7180  178.1440  140.1090 O   0  0  0  0  0  0  0  0  0  0  0  0
  1  4  1  0  0  0  0
  2  5  1  0  0  0  0
  2 10  1  0  0  0  0
  3  6  1  0  0  0  0
  3 13  1  0  0  0  0
  4  5  1  0  0  0  0
  4  8  2  0  0  0  0
  5  3  2  0  0  0  0
  7  1  2  0  0  0  0
  7 14  1  0  0  0  0
  8 11  1  0  0  0  0
 10 27  1  1  0  0  0
 10  6  1  0  0  0  0
 11 13  2  0  0  0  0
 11  9  1  0  0  0  0
 12  8  1  0  0  0  0
 12 15  1  0  0  0  0
 14 12  2  0  0  0  0
 15 17  1  0  0  0  0
 17 16  1  0  0  0  0
 18 17  2  0  0  0  0
 19  1  1  0  0  0  0
 20 22  1  0  0  0  0
 20 23  1  1  0  0  0
 22 21  1  6  0  0  0
 24 20  1  0  0  0  0
 25 19  1  1  0  0  0
 25 22  1  0  0  0  0
 26 24  1  0  0  0  0
 26 25  1  0  0  0  0
 28 30  1  0  0  0  0
 30 27  1  0  0  0  0
 30 29  1  0  0  0  0
 31 33  1  6  0  0  0
 31 29  1  0  0  0  0
 32 28  1  0  0  0  0
 32 31  1  0  0  0  0
 33 34  2  0  0  0  0
 35 36  1  0  0  0  0
 36 33  1  0  0  0  0
 37 34  1  0  0  0  0
 38 39  1  0  0  0  0
 38 41  1  0  0  0  0
 39 37  1  6  0  0  0
 39 42  1  0  0  0  0
 41 40  1  0  0  0  0
 42 40  1  0  0  0  0
 43  7  1  0  0  0  0
 44 46  1  0  0  0  0
 44 47  1  0  0  0  0
 45 48  1  0  0  0  0
 46 45  2  0  0  0  0
 47 43  1  1  0  0  0
 47 48  1  0  0  0  0
 50 46  1  0  0  0  0
 50 49  1  0  0  0  0
M  END
>  <MODEL>
1

>  <REMARK>
 VINA RESULT:      -7.9      0.000      0.000
  Name = 
  12 active torsions:
  status: ('A' for Active; 'I' for Inactive)
    1  A    between atoms: C_1  and  O_10
    2  A    between atoms: N_2  and  C_39
    3  A    between atoms: CA_3  and  C_37
    4  A    between atoms: CA_3  and  C_46
    5  A    between atoms: C_8  and  C_15
    6  A    between atoms: C_8  and  N_25
    7  A    between atoms: O_10  and  C_41
    8  A    between atoms: C_12  and  N_34
    9  A    between atoms: C_12  and  C_35
   10  A    between atoms: C_19  and  N_21
   11  A    between atoms: N_21  and  C_49
   12  A    between atoms: O_28  and  C_47
                            x       y       z     vdW  Elec       q    Type
                         _______ _______ _______ _____ _____    ______ ____

>  <TORSDO>
F 12

$$$$
=
 OpenBabel11042415493D

 50 56  0  0  1  0  0  0  0  0999 V2000
  193.9350  175.1320  142.3120 C   0  0  0  0  0  0  0  0  0  0  0  0
  191.1430  174.2890  142.9920 C   0  0  0  0  0  2  0  0  0  0  0  0
  190.8320  173.6210  140.9100 C   0  0  0  0  0  0  0  0  0  0  0  0
  192.9740  174.6600  141.3880 C   0  0  0  0  0  0  0  0  0  0  0  0
  191.6940  174.2250  141.7860 C   0  0  0  0  0  0  0  0  0  0  0  0
  189.6930  173.2840  141.4810 C   0  0  0  0  0  2  0  0  0  0  0  0
  195.1500  175.6570  141.8540 C   0  0  0  0  0  0  0  0  0  0  0  0
  193.3070  174.5540  140.0050 C   0  0  0  0  0  0  0  0  0  0  0  0
  192.8560  173.4140  137.8830 O   0  0  0  0  0  1  0  0  0  0  0  0
  189.7750  173.6830  142.9230 C   0  0  2  0  0  3  0  0  0  0  0  0
  192.4480  173.7950  139.1550 C   0  0  0  0  0  0  0  0  0  0  0  0
  194.5220  175.1390  139.5550 C   0  0  0  0  0  0  0  0  0  0  0  0
  191.1960  173.3620  139.5990 C   0  0  0  0  0  3  0  0  0  0  0  0
  195.4160  175.6700  140.4840 C   0  0  0  0  0  3  0  0  0  0  0  0
  194.8570  175.2880  138.1710 N   0  0  0  0  0  2  0  0  0  0  0  0
  196.1230  174.7600  136.0470 C   0  0  0  0  0  1  0  0  0  0  0  0
  195.8930  174.5570  137.5020 C   0  0  0  0  0  0  0  0  0  0  0  0
  196.6230  173.7480  138.1360 O   0  0  0  0  0  0  0  0  0  0  0  0
  193.7320  174.9470  143.6890 O   0  0  0  0  0  0  0  0  0  0  0  0
  192.3420  176.3630  146.5880 C   0  0  2  0  0  3  0  0  0  0  0  0
  194.6760  175.8380  146.7600 O   0  0  0  0  0  1  0  0  0  0  0  0
  193.5150  175.5840  146.0350 C   0  0  2  0  0  3  0  0  0  0  0  0
  191.3730  175.4030  147.2520 C   0  0  0  0  0  1  0  0  0  0  0  0
  191.7230  176.9540  145.4360 N   0  0  0  0  0  2  0  0  0  0  0  0
  193.6750  176.0610  144.5920 C   0  0  2  0  0  3  0  0  0  0  0  0
  192.4150  176.8230  144.3710 C   0  0  0  0  0  2  0  0  0  0  0  0
  188.7210  174.7520  143.2260 C   0  0  0  0  0  2  0  0  0  0  0  0
  189.1640  176.9460  142.4180 N   0  0  0  0  0  2  0  0  0  0  0  0
  187.1100  176.0370  141.9790 C   0  0  0  0  0  2  0  0  0  0  0  0
  188.5240  175.7240  142.1310 N   0  0  0  0  0  0  0  0  0  0  0  0
  187.1190  177.4390  141.4470 C   0  0  2  0  0  3  0  0  0  0  0  0
  188.4470  177.9630  141.7510 N   0  0  0  0  0  2  0  0  0  0  0  0
  186.0670  178.2850  142.1060 C   0  0  0  0  0  0  0  0  0  0  0  0
  186.4020  178.9800  143.1440 N   0  0  0  0  0  0  0  0  0  0  0  0
  184.5890  178.4030  140.2390 O   0  0  0  0  0  1  0  0  0  0  0  0
  184.6390  178.2180  141.6240 C   0  0  0  0  0  2  0  0  0  0  0  0
  185.4500  179.7400  143.9220 C   0  0  0  0  0  2  0  0  0  0  0  0
  186.4710  178.1800  145.5350 C   0  0  0  0  0  2  0  0  0  0  0  0
  185.4820  179.2940  145.3790 C   0  0  2  0  0  3  0  0  0  0  0  0
  184.4410  177.5030  146.6110 N   0  0  0  0  0  2  0  0  0  0  0  0
  185.8900  177.3380  146.6400 C   0  0  0  0  0  2  0  0  0  0  0  0
  184.1640  178.6460  145.7450 C   0  0  0  0  0  2  0  0  0  0  0  0
  196.1020  176.1470  142.8040 N   0  0  0  0  0  2  0  0  0  0  0  0
  196.9370  174.9280  144.6420 O   0  0  0  0  0  0  0  0  0  0  0  0
  197.3950  173.0180  143.5800 N   0  0  0  0  0  0  0  0  0  0  0  0
  197.1140  173.5610  144.7080 C   0  0  0  0  0  0  0  0  0  0  0  0
  197.2160  175.3610  143.3200 C   0  0  1  0  0  3  0  0  0  0  0  0
  197.3640  174.0450  142.5450 C   0  0  0  0  0  2  0  0  0  0  0  0
  196.6570  171.5080  145.9960 C   0  0  0  0  0  1  0  0  0  0  0  0
  197.0950  172.8570  145.9150 O   0  0  0  0  0  0  0  0  0  0  0  0
  1 19  1  0  0  0  0
  3  6  1  0  0  0  0
  3  5  2  0  0  0  0
  4  5  1  0  0  0  0
  4  1  2  0  0  0  0
  5  2  1  0  0  0  0
  6 10  1  0  0  0  0
  7  1  1  0  0  0  0
  7 43  1  0  0  0  0
  8  4  1  0  0  0  0
  9 11  1  0  0  0  0
 10  2  1  0  0  0  0
 10 27  1  6  0  0  0
 11 13  2  0  0  0  0
 11  8  1  0  0  0  0
 12  8  2  0  0  0  0
 12 14  1  0  0  0  0
 13  3  1  0  0  0  0
 14  7  2  0  0  0  0
 15 12  1  0  0  0  0
 16 17  1  0  0  0  0
 17 18  2  0  0  0  0
 17 15  1  0  0  0  0
 20 23  1  6  0  0  0
 22 20  1  0  0  0  0
 22 21  1  1  0  0  0
 24 20  1  0  0  0  0
 25 19  1  6  0  0  0
 25 22  1  0  0  0  0
 26 25  1  0  0  0  0
 26 24  1  0  0  0  0
 29 30  1  0  0  0  0
 30 28  1  0  0  0  0
 30 27  1  0  0  0  0
 31 32  1  0  0  0  0
 31 29  1  0  0  0  0
 31 33  1  1  0  0  0
 32 28  1  0  0  0  0
 33 34  2  0  0  0  0
 34 37  1  0  0  0  0
 35 36  1  0  0  0  0
 36 33  1  0  0  0  0
 38 41  1  0  0  0  0
 39 37  1  6  0  0  0
 39 38  1  0  0  0  0
 39 42  1  0  0  0  0
 40 41  1  0  0  0  0
 42 40  1  0  0  0  0
 44 46  1  0  0  0  0
 45 46  2  0  0  0  0
 46 50  1  0  0  0  0
 47 43  1  6  0  0  0
 47 44  1  0  0  0  0
 48 47  1  0  0  0  0
 48 45  1  0  0  0  0
 50 49  1  0  0  0  0
M  END
>  <MODEL>
2

>  <REMARK>
 VINA RESULT:      -7.9      2.674     10.347
  Name = 
  12 active torsions:
  status: ('A' for Active; 'I' for Inactive)
    1  A    between atoms: C_1  and  O_10
    2  A    between atoms: N_2  and  C_39
    3  A    between atoms: CA_3  and  C_37
    4  A    between atoms: CA_3  and  C_46
    5  A    between atoms: C_8  and  C_15
    6  A    between atoms: C_8  and  N_25
    7  A    between atoms: O_10  and  C_41
    8  A    between atoms: C_12  and  N_34
    9  A    between atoms: C_12  and  C_35
   10  A    between atoms: C_19  and  N_21
   11  A    between atoms: N_21  and  C_49
   12  A    between atoms: O_28  and  C_47
                            x       y       z     vdW  Elec       q    Type
                         _______ _______ _______ _____ _____    ______ ____

>  <TORSDO>
F 12

$$$$
=
 OpenBabel11042415493D

 50 56  0  0  1  0  0  0  0  0999 V2000
  189.2240  174.9660  142.9480 C   0  0  0  0  0  0  0  0  0  0  0  0
  191.6850  175.4940  144.5700 C   0  0  0  0  0  2  0  0  0  0  0  0
  190.4670  176.5370  146.0890 C   0  0  0  0  0  0  0  0  0  0  0  0
  189.2770  175.7510  144.1220 C   0  0  0  0  0  0  0  0  0  0  0  0
  190.4610  175.9120  144.8700 C   0  0  0  0  0  0  0  0  0  0  0  0
  191.6700  176.5760  146.6250 C   0  0  0  0  0  2  0  0  0  0  0  0
  188.0540  174.9290  142.1810 C   0  0  0  0  0  0  0  0  0  0  0  0
  188.0920  176.3650  144.6250 C   0  0  0  0  0  0  0  0  0  0  0  0
  186.9220  177.2240  146.5990 O   0  0  0  0  0  1  0  0  0  0  0  0
  192.6080  175.8870  145.6830 C   0  0  2  0  0  3  0  0  0  0  0  0
  188.1030  176.8800  145.9550 C   0  0  0  0  0  0  0  0  0  0  0  0
  186.9290  176.3580  143.8060 C   0  0  0  0  0  0  0  0  0  0  0  0
  189.2980  176.9990  146.6690 C   0  0  0  0  0  3  0  0  0  0  0  0
  186.9320  175.6400  142.6110 C   0  0  0  0  0  3  0  0  0  0  0  0
  185.7550  177.1230  144.1030 N   0  0  0  0  0  2  0  0  0  0  0  0
  184.2080  179.1140  143.9210 C   0  0  0  0  0  1  0  0  0  0  0  0
  185.4840  178.4300  143.5820 C   0  0  0  0  0  0  0  0  0  0  0  0
  186.3220  179.0180  142.8460 O   0  0  0  0  0  0  0  0  0  0  0  0
  190.2940  174.1150  142.6250 O   0  0  0  0  0  0  0  0  0  0  0  0
  191.7780  171.2490  144.0130 C   0  0  2  0  0  3  0  0  0  0  0  0
  189.7420  171.9300  145.0830 O   0  0  0  0  0  1  0  0  0  0  0  0
  190.7710  172.3540  144.2470 C   0  0  2  0  0  3  0  0  0  0  0  0
  193.0740  171.5960  144.7220 C   0  0  0  0  0  1  0  0  0  0  0  0
  191.9900  171.2440  142.5940 N   0  0  0  0  0  2  0  0  0  0  0  0
  190.2220  172.7020  142.8640 C   0  0  2  0  0  3  0  0  0  0  0  0
  191.1700  171.9910  141.9610 C   0  0  0  0  0  2  0  0  0  0  0  0
  193.6490  176.8830  145.1640 C   0  0  0  0  0  2  0  0  0  0  0  0
  195.7620  176.7400  144.0780 N   0  0  0  0  0  2  0  0  0  0  0  0
  195.0530  174.9290  145.2840 C   0  0  0  0  0  2  0  0  0  0  0  0
  195.0380  176.3840  145.2330 N   0  0  0  0  0  0  0  0  0  0  0  0
  196.3560  174.5710  144.6340 C   0  0  2  0  0  3  0  0  0  0  0  0
  196.7570  175.7580  143.8860 N   0  0  0  0  0  2  0  0  0  0  0  0
  196.2040  173.4010  143.7030 C   0  0  0  0  0  0  0  0  0  0  0  0
  195.5140  173.5660  142.6210 N   0  0  0  0  0  0  0  0  0  0  0  0
  197.5340  172.1670  145.2490 O   0  0  0  0  0  1  0  0  0  0  0  0
  196.7490  172.0510  144.0980 C   0  0  0  0  0  2  0  0  0  0  0  0
  195.2090  172.4850  141.7110 C   0  0  0  0  0  2  0  0  0  0  0  0
  193.8350  174.1440  140.5110 C   0  0  0  0  0  2  0  0  0  0  0  0
  194.8310  173.0380  140.3420 C   0  0  2  0  0  3  0  0  0  0  0  0
  192.9940  172.6620  138.8280 N   0  0  0  0  0  2  0  0  0  0  0  0
  192.9840  174.0510  139.2730 C   0  0  0  0  0  2  0  0  0  0  0  0
  194.0640  171.9920  139.5620 C   0  0  0  0  0  2  0  0  0  0  0  0
  188.0250  174.1430  140.9840 N   0  0  0  0  0  2  0  0  0  0  0  0
  189.5380  173.3430  139.3630 O   0  0  0  0  0  0  0  0  0  0  0  0
  188.3510  173.8440  137.5390 N   0  0  0  0  0  0  0  0  0  0  0  0
  189.2600  173.0860  138.0360 C   0  0  0  0  0  0  0  0  0  0  0  0
  188.7790  174.4660  139.7800 C   0  0  1  0  0  3  0  0  0  0  0  0
  187.8380  174.7120  138.5930 C   0  0  0  0  0  2  0  0  0  0  0  0
  189.4870  171.6290  136.0600 C   0  0  0  0  0  1  0  0  0  0  0  0
  189.9820  172.1580  137.2800 O   0  0  0  0  0  0  0  0  0  0  0  0
  1  4  1  0  0  0  0
  2  5  1  0  0  0  0
  2 10  1  0  0  0  0
  3  6  1  0  0  0  0
  3 13  1  0  0  0  0
  4  8  2  0  0  0  0
  4  5  1  0  0  0  0
  5  3  2  0  0  0  0
  7 14  1  0  0  0  0
  7  1  2  0  0  0  0
  8 11  1  0  0  0  0
 10 27  1  6  0  0  0
 10  6  1  0  0  0  0
 11  9  1  0  0  0  0
 11 13  2  0  0  0  0
 12 15  1  0  0  0  0
 12  8  1  0  0  0  0
 14 12  2  0  0  0  0
 17 16  1  0  0  0  0
 17 15  1  0  0  0  0
 18 17  2  0  0  0  0
 19  1  1  0  0  0  0
 20 22  1  0  0  0  0
 20 23  1  1  0  0  0
 22 21  1  1  0  0  0
 24 20  1  0  0  0  0
 25 19  1  6  0  0  0
 25 22  1  0  0  0  0
 26 24  1  0  0  0  0
 26 25  1  0  0  0  0
 27 30  1  0  0  0  0
 28 30  1  0  0  0  0
 30 29  1  0  0  0  0
 31 33  1  6  0  0  0
 31 29  1  0  0  0  0
 32 28  1  0  0  0  0
 32 31  1  0  0  0  0
 33 36  1  0  0  0  0
 34 33  2  0  0  0  0
 36 35  1  0  0  0  0
 37 34  1  0  0  0  0
 39 38  1  0  0  0  0
 39 37  1  1  0  0  0
 40 41  1  0  0  0  0
 40 42  1  0  0  0  0
 41 38  1  0  0  0  0
 42 39  1  0  0  0  0
 43  7  1  0  0  0  0
 44 47  1  0  0  0  0
 45 46  2  0  0  0  0
 45 48  1  0  0  0  0
 46 44  1  0  0  0  0
 47 43  1  1  0  0  0
 48 47  1  0  0  0  0
 49 50  1  0  0  0  0
 50 46  1  0  0  0  0
M  END
>  <MODEL>
3

>  <REMARK>
 VINA RESULT:      -7.8      2.302      4.067
  Name = 
  12 active torsions:
  status: ('A' for Active; 'I' for Inactive)
    1  A    between atoms: C_1  and  O_10
    2  A    between atoms: N_2  and  C_39
    3  A    between atoms: CA_3  and  C_37
    4  A    between atoms: CA_3  and  C_46
    5  A    between atoms: C_8  and  C_15
    6  A    between atoms: C_8  and  N_25
    7  A    between atoms: O_10  and  C_41
    8  A    between atoms: C_12  and  N_34
    9  A    between atoms: C_12  and  C_35
   10  A    between atoms: C_19  and  N_21
   11  A    between atoms: N_21  and  C_49
   12  A    between atoms: O_28  and  C_47
                            x       y       z     vdW  Elec       q    Type
                         _______ _______ _______ _____ _____    ______ ____

>  <TORSDO>
F 12

$$$$
=
 OpenBabel11042415493D

 50 56  0  0  1  0  0  0  0  0999 V2000
  189.5390  175.2550  144.7440 C   0  0  0  0  0  0  0  0  0  0  0  0
  189.2130  174.5110  141.8610 C   0  0  0  0  0  2  0  0  0  0  0  0
  187.7640  176.1570  141.5960 C   0  0  0  0  0  0  0  0  0  0  0  0
  188.6120  175.8350  143.8490 C   0  0  0  0  0  0  0  0  0  0  0  0
  188.5500  175.4770  142.4870 C   0  0  0  0  0  0  0  0  0  0  0  0
  187.8550  175.6690  140.3750 C   0  0  0  0  0  2  0  0  0  0  0  0
  189.4850  175.5630  146.1080 C   0  0  0  0  0  0  0  0  0  0  0  0
  187.7350  176.8660  144.2990 C   0  0  0  0  0  0  0  0  0  0  0  0
  186.4070  178.8280  143.6740 O   0  0  0  0  0  1  0  0  0  0  0  0
  188.8270  174.5300  140.4140 C   0  0  2  0  0  3  0  0  0  0  0  0
  187.0400  177.6430  143.3250 C   0  0  0  0  0  0  0  0  0  0  0  0
  187.6600  177.1270  145.6950 C   0  0  0  0  0  0  0  0  0  0  0  0
  187.0260  177.2630  141.9800 C   0  0  0  0  0  3  0  0  0  0  0  0
  188.5350  176.4790  146.5650 C   0  0  0  0  0  3  0  0  0  0  0  0
  186.6690  177.9770  146.2830 N   0  0  0  0  0  2  0  0  0  0  0  0
  184.4130  178.5140  147.2900 C   0  0  0  0  0  1  0  0  0  0  0  0
  185.3460  177.5560  146.6410 C   0  0  0  0  0  0  0  0  0  0  0  0
  184.9570  176.3810  146.3990 O   0  0  0  0  0  0  0  0  0  0  0  0
  190.6010  174.4800  144.2480 O   0  0  0  0  0  0  0  0  0  0  0  0
  191.2890  171.1960  143.2090 C   0  0  2  0  0  3  0  0  0  0  0  0
  192.9460  172.1460  144.6590 O   0  0  0  0  0  1  0  0  0  0  0  0
  191.8820  172.4480  143.8140 C   0  0  2  0  0  3  0  0  0  0  0  0
  191.6180  171.1500  141.7280 C   0  0  0  0  0  1  0  0  0  0  0  0
  189.8720  171.3420  143.3840 N   0  0  0  0  0  2  0  0  0  0  0  0
  190.7450  173.0970  144.6020 C   0  0  2  0  0  3  0  0  0  0  0  0
  189.5590  172.3310  144.1300 C   0  0  0  0  0  2  0  0  0  0  0  0
  188.1140  173.2250  140.0520 C   0  0  0  0  0  2  0  0  0  0  0  0
  189.3870  171.5060  139.0090 N   0  0  0  0  0  2  0  0  0  0  0  0
  189.3880  173.5790  138.0390 C   0  0  0  0  0  2  0  0  0  0  0  0
  188.5680  172.6290  138.7780 N   0  0  0  0  0  0  0  0  0  0  0  0
  190.3170  172.7000  137.2540 C   0  0  2  0  0  3  0  0  0  0  0  0
  190.2720  171.4000  137.9140 N   0  0  0  0  0  2  0  0  0  0  0  0
  191.7200  173.2360  137.2640 C   0  0  0  0  0  0  0  0  0  0  0  0
  192.2540  173.5350  138.4040 N   0  0  0  0  0  0  0  0  0  0  0  0
  191.5800  173.2310  134.8840 O   0  0  0  0  0  1  0  0  0  0  0  0
  192.4240  173.5200  135.9600 C   0  0  0  0  0  2  0  0  0  0  0  0
  193.5510  174.1600  138.5240 C   0  0  0  0  0  2  0  0  0  0  0  0
  192.7130  174.5440  140.8100 C   0  0  0  0  0  2  0  0  0  0  0  0
  193.9410  174.2900  139.9920 C   0  0  2  0  0  3  0  0  0  0  0  0
  194.3620  176.1550  141.4590 N   0  0  0  0  0  2  0  0  0  0  0  0
  193.2090  175.4050  141.9420 C   0  0  0  0  0  2  0  0  0  0  0  0
  194.7620  175.5450  140.1940 C   0  0  0  0  0  2  0  0  0  0  0  0
  190.4210  174.9510  147.0020 N   0  0  0  0  0  2  0  0  0  0  0  0
  192.7480  174.6190  146.8070 O   0  0  0  0  0  0  0  0  0  0  0  0
  193.2710  176.5640  145.8440 N   0  0  0  0  0  0  0  0  0  0  0  0
  193.6160  175.3400  146.0140 C   0  0  0  0  0  0  0  0  0  0  0  0
  191.7420  175.4930  147.2950 C   0  0  1  0  0  3  0  0  0  0  0  0
  191.9910  176.7860  146.5070 C   0  0  0  0  0  2  0  0  0  0  0  0
  195.7370  175.5820  144.7790 C   0  0  0  0  0  1  0  0  0  0  0  0
  194.8150  174.8080  145.5330 O   0  0  0  0  0  0  0  0  0  0  0  0
  1  7  1  0  0  0  0
  2  5  1  0  0  0  0
  3 13  1  0  0  0  0
  3  5  2  0  0  0  0
  4  8  1  0  0  0  0
  4  1  2  0  0  0  0
  5  4  1  0  0  0  0
  6 10  1  0  0  0  0
  6  3  1  0  0  0  0
  7 14  2  0  0  0  0
  7 43  1  0  0  0  0
  8 12  2  0  0  0  0
 10 27  1  1  0  0  0
 10  2  1  0  0  0  0
 11  9  1  0  0  0  0
 11  8  1  0  0  0  0
 12 15  1  0  0  0  0
 12 14  1  0  0  0  0
 13 11  2  0  0  0  0
 15 17  1  0  0  0  0
 17 16  1  0  0  0  0
 18 17  2  0  0  0  0
 19  1  1  0  0  0  0
 20 23  1  6  0  0  0
 20 24  1  0  0  0  0
 20 22  1  0  0  0  0
 22 25  1  0  0  0  0
 22 21  1  1  0  0  0
 24 26  1  0  0  0  0
 25 19  1  6  0  0  0
 26 25  1  0  0  0  0
 29 30  1  0  0  0  0
 30 28  1  0  0  0  0
 30 27  1  0  0  0  0
 31 33  1  1  0  0  0
 31 32  1  0  0  0  0
 31 29  1  0  0  0  0
 32 28  1  0  0  0  0
 33 34  2  0  0  0  0
 34 37  1  0  0  0  0
 35 36  1  0  0  0  0
 36 33  1  0  0  0  0
 38 41  1  0  0  0  0
 39 37  1  6  0  0  0
 39 42  1  0  0  0  0
 39 38  1  0  0  0  0
 40 41  1  0  0  0  0
 42 40  1  0  0  0  0
 44 47  1  0  0  0  0
 45 46  2  0  0  0  0
 45 48  1  0  0  0  0
 46 44  1  0  0  0  0
 47 43  1  6  0  0  0
 48 47  1  0  0  0  0
 49 50  1  0  0  0  0
 50 46  1  0  0  0  0
M  END
>  <MODEL>
4

>  <REMARK>
 VINA RESULT:      -7.6      3.154      6.960
  Name = 
  12 active torsions:
  status: ('A' for Active; 'I' for Inactive)
    1  A    between atoms: C_1  and  O_10
    2  A    between atoms: N_2  and  C_39
    3  A    between atoms: CA_3  and  C_37
    4  A    between atoms: CA_3  and  C_46
    5  A    between atoms: C_8  and  C_15
    6  A    between atoms: C_8  and  N_25
    7  A    between atoms: O_10  and  C_41
    8  A    between atoms: C_12  and  N_34
    9  A    between atoms: C_12  and  C_35
   10  A    between atoms: C_19  and  N_21
   11  A    between atoms: N_21  and  C_49
   12  A    between atoms: O_28  and  C_47
                            x       y       z     vdW  Elec       q    Type
                         _______ _______ _______ _____ _____    ______ ____

>  <TORSDO>
F 12

$$$$
=
 OpenBabel11042415493D

 50 56  0  0  1  0  0  0  0  0999 V2000
  193.0940  174.2410  141.0700 C   0  0  0  0  0  0  0  0  0  0  0  0
  191.7090  175.1940  143.5470 C   0  0  0  0  0  2  0  0  0  0  0  0
  190.6120  173.2820  143.6760 C   0  0  0  0  0  0  0  0  0  0  0  0
  192.0630  173.5510  141.7470 C   0  0  0  0  0  0  0  0  0  0  0  0
  191.4930  174.0320  142.9430 C   0  0  0  0  0  0  0  0  0  0  0  0
  190.2030  173.9080  144.7610 C   0  0  0  0  0  2  0  0  0  0  0  0
  193.5490  173.7800  139.8280 C   0  0  0  0  0  0  0  0  0  0  0  0
  191.6050  172.2930  141.2570 C   0  0  0  0  0  0  0  0  0  0  0  0
  190.5660  170.1450  141.8160 O   0  0  0  0  0  1  0  0  0  0  0  0
  190.8870  175.2410  144.7990 C   0  0  2  0  0  3  0  0  0  0  0  0
  190.8010  171.4810  142.1120 C   0  0  0  0  0  0  0  0  0  0  0  0
  192.0400  171.8690  139.9720 C   0  0  0  0  0  0  0  0  0  0  0  0
  190.2760  171.9910  143.3030 C   0  0  0  0  0  3  0  0  0  0  0  0
  193.0020  172.6130  139.2900 C   0  0  0  0  0  3  0  0  0  0  0  0
  191.4840  170.7410  139.2860 N   0  0  0  0  0  2  0  0  0  0  0  0
  189.8590  169.5640  137.7490 C   0  0  0  0  0  1  0  0  0  0  0  0
  190.3210  170.7910  138.4510 C   0  0  0  0  0  0  0  0  0  0  0  0
  189.6730  171.8630  138.3110 O   0  0  0  0  0  0  0  0  0  0  0  0
  193.7600  175.3030  141.7020 O   0  0  0  0  0  0  0  0  0  0  0  0
  195.6060  174.0520  144.4170 C   0  0  2  0  0  3  0  0  0  0  0  0
  196.0080  172.9240  142.3390 O   0  0  0  0  0  1  0  0  0  0  0  0
  195.1230  173.7600  143.0140 C   0  0  2  0  0  3  0  0  0  0  0  0
  194.7020  173.3510  145.4150 C   0  0  0  0  0  1  0  0  0  0  0  0
  195.4720  175.4740  144.5600 N   0  0  0  0  0  2  0  0  0  0  0  0
  195.0420  175.1190  142.3210 C   0  0  2  0  0  3  0  0  0  0  0  0
  195.1900  176.0640  143.4630 C   0  0  0  0  0  2  0  0  0  0  0  0
  189.8490  176.3610  144.6940 C   0  0  0  0  0  2  0  0  0  0  0  0
  189.5280  177.9540  142.9550 N   0  0  0  0  0  2  0  0  0  0  0  0
  187.9410  176.3270  143.2240 C   0  0  0  0  0  2  0  0  0  0  0  0
  189.3680  176.6020  143.3180 N   0  0  0  0  0  0  0  0  0  0  0  0
  187.4790  177.2480  142.1340 C   0  0  2  0  0  3  0  0  0  0  0  0
  188.5270  178.2560  142.0060 N   0  0  0  0  0  2  0  0  0  0  0  0
  186.1730  177.9020  142.4820 C   0  0  0  0  0  0  0  0  0  0  0  0
  185.9130  178.1260  143.7290 N   0  0  0  0  0  0  0  0  0  0  0  0
  185.7160  177.9280  140.1420 O   0  0  0  0  0  1  0  0  0  0  0  0
  185.1570  178.1740  141.4000 C   0  0  0  0  0  2  0  0  0  0  0  0
  184.6450  178.6460  144.1870 C   0  0  0  0  0  2  0  0  0  0  0  0
  185.5820  179.4170  146.3330 C   0  0  0  0  0  2  0  0  0  0  0  0
  184.5460  178.5370  145.7040 C   0  0  2  0  0  3  0  0  0  0  0  0
  185.7260  177.2660  147.3780 N   0  0  0  0  0  2  0  0  0  0  0  0
  185.9460  178.6900  147.6010 C   0  0  0  0  0  2  0  0  0  0  0  0
  184.9520  177.1470  146.1450 C   0  0  0  0  0  2  0  0  0  0  0  0
  194.5810  174.5020  139.1480 N   0  0  0  0  0  2  0  0  0  0  0  0
  194.0080  175.0040  136.9170 O   0  0  0  0  0  0  0  0  0  0  0  0
  195.9860  175.7940  136.2460 N   0  0  0  0  0  0  0  0  0  0  0  0
  194.7180  175.8060  136.0470 C   0  0  0  0  0  0  0  0  0  0  0  0
  194.9230  174.3050  137.7450 C   0  0  1  0  0  3  0  0  0  0  0  0
  196.2690  174.9640  137.4110 C   0  0  0  0  0  2  0  0  0  0  0  0
  192.8390  177.0930  135.1000 C   0  0  0  0  0  1  0  0  0  0  0  0
  194.1150  176.4820  134.9820 O   0  0  0  0  0  0  0  0  0  0  0  0
  1 19  1  0  0  0  0
  1  4  1  0  0  0  0
  2 10  1  0  0  0  0
  3  6  1  0  0  0  0
  4  5  1  0  0  0  0
  5  2  1  0  0  0  0
  5  3  2  0  0  0  0
  6 10  1  0  0  0  0
  7  1  2  0  0  0  0
  8  4  2  0  0  0  0
  8 11  1  0  0  0  0
  9 11  1  0  0  0  0
 10 27  1  6  0  0  0
 11 13  2  0  0  0  0
 12  8  1  0  0  0  0
 13  3  1  0  0  0  0
 14  7  1  0  0  0  0
 14 12  2  0  0  0  0
 15 12  1  0  0  0  0
 16 17  1  0  0  0  0
 17 15  1  0  0  0  0
 18 17  2  0  0  0  0
 20 24  1  0  0  0  0
 20 23  1  1  0  0  0
 22 21  1  6  0  0  0
 22 20  1  0  0  0  0
 25 19  1  1  0  0  0
 25 22  1  0  0  0  0
 25 26  1  0  0  0  0
 26 24  1  0  0  0  0
 28 30  1  0  0  0  0
 29 30  1  0  0  0  0
 30 27  1  0  0  0  0
 31 33  1  1  0  0  0
 31 29  1  0  0  0  0
 32 31  1  0  0  0  0
 32 28  1  0  0  0  0
 33 34  2  0  0  0  0
 34 37  1  0  0  0  0
 35 36  1  0  0  0  0
 36 33  1  0  0  0  0
 38 41  1  0  0  0  0
 39 37  1  6  0  0  0
 39 42  1  0  0  0  0
 39 38  1  0  0  0  0
 40 41  1  0  0  0  0
 42 40  1  0  0  0  0
 43  7  1  0  0  0  0
 44 47  1  0  0  0  0
 45 48  1  0  0  0  0
 46 45  2  0  0  0  0
 46 44  1  0  0  0  0
 47 43  1  1  0  0  0
 48 47  1  0  0  0  0
 50 49  1  0  0  0  0
 50 46  1  0  0  0  0
M  END
>  <MODEL>
5

>  <REMARK>
 VINA RESULT:      -7.4      3.184      9.224
  Name = 
  12 active torsions:
  status: ('A' for Active; 'I' for Inactive)
    1  A    between atoms: C_1  and  O_10
    2  A    between atoms: N_2  and  C_39
    3  A    between atoms: CA_3  and  C_37
    4  A    between atoms: CA_3  and  C_46
    5  A    between atoms: C_8  and  C_15
    6  A    between atoms: C_8  and  N_25
    7  A    between atoms: O_10  and  C_41
    8  A    between atoms: C_12  and  N_34
    9  A    between atoms: C_12  and  C_35
   10  A    between atoms: C_19  and  N_21
   11  A    between atoms: N_21  and  C_49
   12  A    between atoms: O_28  and  C_47
                            x       y       z     vdW  Elec       q    Type
                         _______ _______ _______ _____ _____    ______ ____

>  <TORSDO>
F 12

$$$$
=
 OpenBabel11042415493D

 50 56  0  0  1  0  0  0  0  0999 V2000
  192.9570  174.5240  140.8440 C   0  0  0  0  0  0  0  0  0  0  0  0
  191.3340  174.6580  143.3570 C   0  0  0  0  0  2  0  0  0  0  0  0
  190.2690  172.8140  142.7730 C   0  0  0  0  0  0  0  0  0  0  0  0
  191.8820  173.6660  141.1710 C   0  0  0  0  0  0  0  0  0  0  0  0
  191.1960  173.7490  142.3990 C   0  0  0  0  0  0  0  0  0  0  0  0
  189.7500  173.0690  143.9580 C   0  0  0  0  0  2  0  0  0  0  0  0
  193.5310  174.4750  139.5680 C   0  0  0  0  0  0  0  0  0  0  0  0
  191.4950  172.6320  140.2680 C   0  0  0  0  0  0  0  0  0  0  0  0
  190.4530  170.4280  140.0220 O   0  0  0  0  0  1  0  0  0  0  0  0
  190.4020  174.3150  144.4770 C   0  0  2  0  0  3  0  0  0  0  0  0
  190.6340  171.5990  140.7450 C   0  0  0  0  0  0  0  0  0  0  0  0
  192.0530  172.6320  138.9610 C   0  0  0  0  0  0  0  0  0  0  0  0
  189.9930  171.7120  141.9820 C   0  0  0  0  0  3  0  0  0  0  0  0
  193.0580  173.5440  138.6400 C   0  0  0  0  0  3  0  0  0  0  0  0
  191.5840  171.7850  137.9060 N   0  0  0  0  0  2  0  0  0  0  0  0
  190.1320  171.1720  135.9290 C   0  0  0  0  0  1  0  0  0  0  0  0
  190.5050  172.1100  137.0220 C   0  0  0  0  0  0  0  0  0  0  0  0
  189.8540  173.1800  137.1650 O   0  0  0  0  0  0  0  0  0  0  0  0
  193.5410  175.3250  141.8380 O   0  0  0  0  0  0  0  0  0  0  0  0
  195.5560  175.2200  144.7140 C   0  0  2  0  0  3  0  0  0  0  0  0
  194.9230  173.0670  143.8660 O   0  0  0  0  0  1  0  0  0  0  0  0
  194.6140  174.4250  143.8370 C   0  0  2  0  0  3  0  0  0  0  0  0
  194.8010  175.7280  145.9280 C   0  0  0  0  0  1  0  0  0  0  0  0
  195.9640  176.3290  143.8990 N   0  0  0  0  0  2  0  0  0  0  0  0
  194.8040  174.9820  142.4270 C   0  0  2  0  0  3  0  0  0  0  0  0
  195.5920  176.2200  142.6820 C   0  0  0  0  0  2  0  0  0  0  0  0
  189.3550  175.4210  144.6360 C   0  0  0  0  0  2  0  0  0  0  0  0
  189.2790  177.4540  143.4020 N   0  0  0  0  0  2  0  0  0  0  0  0
  187.5460  175.9820  143.1490 C   0  0  0  0  0  2  0  0  0  0  0  0
  188.9820  176.0770  143.3660 N   0  0  0  0  0  0  0  0  0  0  0  0
  187.2330  177.2080  142.3430 C   0  0  2  0  0  3  0  0  0  0  0  0
  188.3690  178.1030  142.5400 N   0  0  0  0  0  2  0  0  0  0  0  0
  185.9680  177.8690  142.8140 C   0  0  0  0  0  0  0  0  0  0  0  0
  185.9100  178.2760  144.0400 N   0  0  0  0  0  0  0  0  0  0  0  0
  185.1880  178.0120  140.5660 O   0  0  0  0  0  1  0  0  0  0  0  0
  184.7710  177.9360  141.8980 C   0  0  0  0  0  2  0  0  0  0  0  0
  184.7090  178.8220  144.6310 C   0  0  0  0  0  2  0  0  0  0  0  0
  185.6060  179.2140  146.8930 C   0  0  0  0  0  2  0  0  0  0  0  0
  184.6140  178.4230  146.0980 C   0  0  2  0  0  3  0  0  0  0  0  0
  185.8500  176.9130  147.5120 N   0  0  0  0  0  2  0  0  0  0  0  0
  186.0020  178.2770  148.0040 C   0  0  0  0  0  2  0  0  0  0  0  0
  185.0840  176.9950  146.2720 C   0  0  0  0  0  2  0  0  0  0  0  0
  194.6060  175.3650  139.2490 N   0  0  0  0  0  2  0  0  0  0  0  0
  196.1450  173.5960  139.5030 O   0  0  0  0  0  0  0  0  0  0  0  0
  196.9360  173.5540  137.4150 N   0  0  0  0  0  0  0  0  0  0  0  0
  196.7450  172.8780  138.4900 C   0  0  0  0  0  0  0  0  0  0  0  0
  195.9900  174.9420  139.0810 C   0  0  1  0  0  3  0  0  0  0  0  0
  196.3710  174.8870  137.5950 C   0  0  0  0  0  2  0  0  0  0  0  0
  197.5180  170.7280  137.5620 C   0  0  0  0  0  1  0  0  0  0  0  0
  197.2000  171.5680  138.6610 O   0  0  0  0  0  0  0  0  0  0  0  0
  1  4  1  0  0  0  0
  1 19  1  0  0  0  0
  2 10  1  0  0  0  0
  3  6  1  0  0  0  0
  4  5  2  0  0  0  0
  5  3  1  0  0  0  0
  5  2  1  0  0  0  0
  6 10  1  0  0  0  0
  7  1  2  0  0  0  0
  8 11  2  0  0  0  0
  8  4  1  0  0  0  0
  9 11  1  0  0  0  0
 10 27  1  6  0  0  0
 11 13  1  0  0  0  0
 12  8  1  0  0  0  0
 13  3  2  0  0  0  0
 14 12  2  0  0  0  0
 14  7  1  0  0  0  0
 15 12  1  0  0  0  0
 16 17  1  0  0  0  0
 17 18  2  0  0  0  0
 17 15  1  0  0  0  0
 20 23  1  1  0  0  0
 22 21  1  6  0  0  0
 22 20  1  0  0  0  0
 24 20  1  0  0  0  0
 25 19  1  1  0  0  0
 25 26  1  0  0  0  0
 25 22  1  0  0  0  0
 26 24  1  0  0  0  0
 29 30  1  0  0  0  0
 30 28  1  0  0  0  0
 30 27  1  0  0  0  0
 31 32  1  0  0  0  0
 31 33  1  1  0  0  0
 31 29  1  0  0  0  0
 32 28  1  0  0  0  0
 33 34  2  0  0  0  0
 34 37  1  0  0  0  0
 35 36  1  0  0  0  0
 36 33  1  0  0  0  0
 38 41  1  0  0  0  0
 39 37  1  6  0  0  0
 39 42  1  0  0  0  0
 39 38  1  0  0  0  0
 40 41  1  0  0  0  0
 42 40  1  0  0  0  0
 43  7  1  0  0  0  0
 45 48  1  0  0  0  0
 45 46  2  0  0  0  0
 46 50  1  0  0  0  0
 46 44  1  0  0  0  0
 47 43  1  6  0  0  0
 47 44  1  0  0  0  0
 48 47  1  0  0  0  0
 49 50  1  0  0  0  0
M  END
>  <MODEL>
6

>  <REMARK>
 VINA RESULT:      -7.3      3.116      9.757
  Name = 
  12 active torsions:
  status: ('A' for Active; 'I' for Inactive)
    1  A    between atoms: C_1  and  O_10
    2  A    between atoms: N_2  and  C_39
    3  A    between atoms: CA_3  and  C_37
    4  A    between atoms: CA_3  and  C_46
    5  A    between atoms: C_8  and  C_15
    6  A    between atoms: C_8  and  N_25
    7  A    between atoms: O_10  and  C_41
    8  A    between atoms: C_12  and  N_34
    9  A    between atoms: C_12  and  C_35
   10  A    between atoms: C_19  and  N_21
   11  A    between atoms: N_21  and  C_49
   12  A    between atoms: O_28  and  C_47
                            x       y       z     vdW  Elec       q    Type
                         _______ _______ _______ _____ _____    ______ ____

>  <TORSDO>
F 12

$$$$
=
 OpenBabel11042415493D

 50 56  0  0  1  0  0  0  0  0999 V2000
  189.3480  175.7340  144.7030 C   0  0  0  0  0  0  0  0  0  0  0  0
  191.1070  173.4580  143.8710 C   0  0  0  0  0  2  0  0  0  0  0  0
  190.2400  173.5220  141.8410 C   0  0  0  0  0  0  0  0  0  0  0  0
  189.2950  175.0720  143.4550 C   0  0  0  0  0  0  0  0  0  0  0  0
  190.1940  174.0430  143.1070 C   0  0  0  0  0  0  0  0  0  0  0  0
  191.1520  172.5780  141.7220 C   0  0  0  0  0  2  0  0  0  0  0  0
  188.3640  176.6700  145.0430 C   0  0  0  0  0  0  0  0  0  0  0  0
  188.3470  175.4810  142.4700 C   0  0  0  0  0  0  0  0  0  0  0  0
  187.8150  175.6010  140.0820 O   0  0  0  0  0  1  0  0  0  0  0  0
  191.8300  172.4340  143.0500 C   0  0  2  0  0  3  0  0  0  0  0  0
  188.5170  175.0220  141.1300 C   0  0  0  0  0  0  0  0  0  0  0  0
  187.3280  176.3950  142.8520 C   0  0  0  0  0  0  0  0  0  0  0  0
  189.4380  174.0160  140.8260 C   0  0  0  0  0  3  0  0  0  0  0  0
  187.3590  176.9720  144.1210 C   0  0  0  0  0  3  0  0  0  0  0  0
  186.2020  176.7080  142.0240 N   0  0  0  0  0  2  0  0  0  0  0  0
  184.6490  178.2400  140.7470 C   0  0  0  0  0  1  0  0  0  0  0  0
  185.8100  178.0350  141.6520 C   0  0  0  0  0  0  0  0  0  0  0  0
  186.4330  179.0380  142.0950 O   0  0  0  0  0  0  0  0  0  0  0  0
  190.4600  175.5580  145.5430 O   0  0  0  0  0  0  0  0  0  0  0  0
  193.6030  176.7860  144.5680 C   0  0  2  0  0  3  0  0  0  0  0  0
  191.7510  178.1520  143.8920 O   0  0  0  0  0  1  0  0  0  0  0  0
  192.1130  176.8800  144.3270 C   0  0  2  0  0  3  0  0  0  0  0  0
  194.2280  175.9030  143.5040 C   0  0  0  0  0  1  0  0  0  0  0  0
  193.7260  176.1570  145.8520 N   0  0  0  0  0  2  0  0  0  0  0  0
  191.4630  176.5750  145.6760 C   0  0  2  0  0  3  0  0  0  0  0  0
  192.6110  176.0470  146.4650 C   0  0  0  0  0  2  0  0  0  0  0  0
  191.5680  171.0370  143.6190 C   0  0  0  0  0  2  0  0  0  0  0  0
  193.1140  169.8870  145.0160 N   0  0  0  0  0  2  0  0  0  0  0  0
  193.9190  170.8820  143.1190 C   0  0  0  0  0  2  0  0  0  0  0  0
  192.7730  170.1830  143.6820 N   0  0  0  0  0  0  0  0  0  0  0  0
  195.0830  170.3000  143.8660 C   0  0  2  0  0  3  0  0  0  0  0  0
  194.5100  169.6810  145.0570 N   0  0  0  0  0  2  0  0  0  0  0  0
  196.0700  171.3620  144.2600 C   0  0  0  0  0  0  0  0  0  0  0  0
  196.1450  172.4290  143.5320 N   0  0  0  0  0  0  0  0  0  0  0  0
  197.9400  170.1220  145.0650 O   0  0  0  0  0  1  0  0  0  0  0  0
  197.0190  171.1160  145.4070 C   0  0  0  0  0  2  0  0  0  0  0  0
  197.1310  173.4620  143.7520 C   0  0  0  0  0  2  0  0  0  0  0  0
  197.7530  175.4290  142.4030 C   0  0  0  0  0  2  0  0  0  0  0  0
  197.7080  173.9330  142.4220 C   0  0  2  0  0  3  0  0  0  0  0  0
  196.7430  174.7090  140.3540 N   0  0  0  0  0  2  0  0  0  0  0  0
  197.5370  175.7750  140.9530 C   0  0  0  0  0  2  0  0  0  0  0  0
  196.7480  173.5970  141.3010 C   0  0  0  0  0  2  0  0  0  0  0  0
  188.4230  177.3160  146.3190 N   0  0  0  0  0  2  0  0  0  0  0  0
  186.4330  178.5760  146.4390 O   0  0  0  0  0  0  0  0  0  0  0  0
  185.0190  176.9030  146.8720 N   0  0  0  0  0  0  0  0  0  0  0  0
  185.1460  178.0840  146.3840 C   0  0  0  0  0  0  0  0  0  0  0  0
  187.2520  177.6400  147.1230 C   0  0  1  0  0  3  0  0  0  0  0  0
  186.3350  176.4180  147.2730 C   0  0  0  0  0  2  0  0  0  0  0  0
  183.7980  179.0440  144.5570 C   0  0  0  0  0  1  0  0  0  0  0  0
  184.0650  178.8490  145.9370 O   0  0  0  0  0  0  0  0  0  0  0  0
  1  7  1  0  0  0  0
  1 19  1  0  0  0  0
  3  5  2  0  0  0  0
  4  1  2  0  0  0  0
  5  4  1  0  0  0  0
  5  2  1  0  0  0  0
  6  3  1  0  0  0  0
  6 10  1  0  0  0  0
  7 43  1  0  0  0  0
  8 12  2  0  0  0  0
  8  4  1  0  0  0  0
  9 11  1  0  0  0  0
 10 27  1  1  0  0  0
 10  2  1  0  0  0  0
 11  8  1  0  0  0  0
 12 14  1  0  0  0  0
 13 11  2  0  0  0  0
 13  3  1  0  0  0  0
 14  7  2  0  0  0  0
 15 12  1  0  0  0  0
 16 17  1  0  0  0  0
 17 15  1  0  0  0  0
 17 18  2  0  0  0  0
 20 23  1  6  0  0  0
 20 24  1  0  0  0  0
 22 21  1  1  0  0  0
 22 20  1  0  0  0  0
 22 25  1  0  0  0  0
 24 26  1  0  0  0  0
 25 19  1  6  0  0  0
 25 26  1  0  0  0  0
 27 30  1  0  0  0  0
 28 32  1  0  0  0  0
 29 30  1  0  0  0  0
 29 31  1  0  0  0  0
 30 28  1  0  0  0  0
 31 33  1  1  0  0  0
 31 32  1  0  0  0  0
 33 36  1  0  0  0  0
 34 37  1  0  0  0  0
 34 33  2  0  0  0  0
 35 36  1  0  0  0  0
 38 39  1  0  0  0  0
 39 37  1  1  0  0  0
 40 41  1  0  0  0  0
 40 42  1  0  0  0  0
 41 38  1  0  0  0  0
 42 39  1  0  0  0  0
 44 47  1  0  0  0  0
 45 48  1  0  0  0  0
 46 44  1  0  0  0  0
 46 45  2  0  0  0  0
 47 43  1  6  0  0  0
 47 48  1  0  0  0  0
 49 50  1  0  0  0  0
 50 46  1  0  0  0  0
M  END
>  <MODEL>
7

>  <REMARK>
 VINA RESULT:      -7.3      2.054      5.248
  Name = 
  12 active torsions:
  status: ('A' for Active; 'I' for Inactive)
    1  A    between atoms: C_1  and  O_10
    2  A    between atoms: N_2  and  C_39
    3  A    between atoms: CA_3  and  C_37
    4  A    between atoms: CA_3  and  C_46
    5  A    between atoms: C_8  and  C_15
    6  A    between atoms: C_8  and  N_25
    7  A    between atoms: O_10  and  C_41
    8  A    between atoms: C_12  and  N_34
    9  A    between atoms: C_12  and  C_35
   10  A    between atoms: C_19  and  N_21
   11  A    between atoms: N_21  and  C_49
   12  A    between atoms: O_28  and  C_47
                            x       y       z     vdW  Elec       q    Type
                         _______ _______ _______ _____ _____    ______ ____

>  <TORSDO>
F 12

$$$$
=
 OpenBabel11042415493D

 50 56  0  0  1  0  0  0  0  0999 V2000
  193.8530  173.6510  142.0850 C   0  0  0  0  0  0  0  0  0  0  0  0
  192.3510  176.0650  143.0230 C   0  0  0  0  0  2  0  0  0  0  0  0
  193.5150  176.0660  144.9000 C   0  0  0  0  0  0  0  0  0  0  0  0
  193.9690  174.2410  143.3650 C   0  0  0  0  0  0  0  0  0  0  0  0
  193.2730  175.4140  143.7210 C   0  0  0  0  0  0  0  0  0  0  0  0
  192.7670  177.1430  145.0390 C   0  0  0  0  0  2  0  0  0  0  0  0
  194.4770  172.4260  141.8180 C   0  0  0  0  0  0  0  0  0  0  0  0
  194.8610  173.6850  144.3290 C   0  0  0  0  0  0  0  0  0  0  0  0
  196.2590  174.1110  146.2960 O   0  0  0  0  0  1  0  0  0  0  0  0
  191.9180  177.2640  143.8100 C   0  0  2  0  0  3  0  0  0  0  0  0
  195.1930  174.4620  145.4780 C   0  0  0  0  0  0  0  0  0  0  0  0
  195.4440  172.4170  144.0570 C   0  0  0  0  0  0  0  0  0  0  0  0
  194.4920  175.6330  145.7800 C   0  0  0  0  0  3  0  0  0  0  0  0
  195.2460  171.8190  142.8130 C   0  0  0  0  0  3  0  0  0  0  0  0
  196.1750  171.6630  145.0310 N   0  0  0  0  0  2  0  0  0  0  0  0
  196.4790  169.8740  146.7910 C   0  0  0  0  0  1  0  0  0  0  0  0
  195.6140  170.6240  145.8430 C   0  0  0  0  0  0  0  0  0  0  0  0
  194.3860  170.3430  145.7730 O   0  0  0  0  0  0  0  0  0  0  0  0
  193.2320  174.3560  141.0420 O   0  0  0  0  0  0  0  0  0  0  0  0
  195.7250  174.8290  138.6130 C   0  0  2  0  0  3  0  0  0  0  0  0
  193.5020  175.3300  137.8640 O   0  0  0  0  0  1  0  0  0  0  0  0
  194.2390  174.6640  138.8400 C   0  0  2  0  0  3  0  0  0  0  0  0
  196.3150  173.5020  138.1720 C   0  0  0  0  0  1  0  0  0  0  0  0
  196.2520  175.1880  139.8990 N   0  0  0  0  0  2  0  0  0  0  0  0
  193.9680  175.2700  140.2160 C   0  0  2  0  0  3  0  0  0  0  0  0
  195.3440  175.4420  140.7600 C   0  0  0  0  0  2  0  0  0  0  0  0
  190.4390  177.1300  144.1850 C   0  0  0  0  0  2  0  0  0  0  0  0
  189.4580  178.1150  142.2540 N   0  0  0  0  0  2  0  0  0  0  0  0
  188.1890  176.6510  143.4720 C   0  0  0  0  0  2  0  0  0  0  0  0
  189.5450  176.9390  143.0240 N   0  0  0  0  0  0  0  0  0  0  0  0
  187.3340  177.1950  142.3650 C   0  0  2  0  0  3  0  0  0  0  0  0
  188.1930  178.1140  141.6260 N   0  0  0  0  0  2  0  0  0  0  0  0
  186.1380  177.9270  142.9030 C   0  0  0  0  0  0  0  0  0  0  0  0
  186.2450  178.5150  144.0510 N   0  0  0  0  0  0  0  0  0  0  0  0
  184.8710  178.6730  141.0260 O   0  0  0  0  0  1  0  0  0  0  0  0
  184.8240  177.8630  142.1640 C   0  0  0  0  0  2  0  0  0  0  0  0
  185.1300  179.1520  144.7140 C   0  0  0  0  0  2  0  0  0  0  0  0
  185.9320  179.1650  147.0450 C   0  0  0  0  0  2  0  0  0  0  0  0
  184.9350  178.5610  146.1050 C   0  0  2  0  0  3  0  0  0  0  0  0
  186.0030  176.7890  147.3410 N   0  0  0  0  0  2  0  0  0  0  0  0
  186.2130  178.0580  148.0270 C   0  0  0  0  0  2  0  0  0  0  0  0
  185.3080  177.0940  146.0940 C   0  0  0  0  0  2  0  0  0  0  0  0
  194.3320  171.8340  140.5220 N   0  0  0  0  0  2  0  0  0  0  0  0
  192.0840  171.2850  140.9750 O   0  0  0  0  0  0  0  0  0  0  0  0
  191.2390  171.6930  138.9480 N   0  0  0  0  0  0  0  0  0  0  0  0
  190.9880  171.6140  140.2050 C   0  0  0  0  0  0  0  0  0  0  0  0
  193.1860  171.0320  140.1170 C   0  0  1  0  0  3  0  0  0  0  0  0
  192.6660  171.4730  138.7420 C   0  0  0  0  0  2  0  0  0  0  0  0
  189.4790  171.9970  142.1170 C   0  0  0  0  0  1  0  0  0  0  0  0
  189.7020  171.7420  140.7390 O   0  0  0  0  0  0  0  0  0  0  0  0
  1  4  1  0  0  0  0
  2  5  1  0  0  0  0
  2 10  1  0  0  0  0
  3  6  1  0  0  0  0
  3 13  1  0  0  0  0
  4  5  1  0  0  0  0
  4  8  2  0  0  0  0
  5  3  2  0  0  0  0
  7  1  2  0  0  0  0
  7 14  1  0  0  0  0
  8 11  1  0  0  0  0
 10 27  1  1  0  0  0
 10  6  1  0  0  0  0
 11 13  2  0  0  0  0
 11  9  1  0  0  0  0
 12  8  1  0  0  0  0
 12 15  1  0  0  0  0
 14 12  2  0  0  0  0
 15 17  1  0  0  0  0
 17 16  1  0  0  0  0
 18 17  2  0  0  0  0
 19  1  1  0  0  0  0
 20 23  1  1  0  0  0
 20 22  1  0  0  0  0
 20 24  1  0  0  0  0
 22 21  1  6  0  0  0
 22 25  1  0  0  0  0
 24 26  1  0  0  0  0
 25 26  1  0  0  0  0
 25 19  1  1  0  0  0
 28 30  1  0  0  0  0
 30 29  1  0  0  0  0
 30 27  1  0  0  0  0
 31 33  1  1  0  0  0
 31 29  1  0  0  0  0
 32 28  1  0  0  0  0
 32 31  1  0  0  0  0
 33 34  2  0  0  0  0
 34 37  1  0  0  0  0
 35 36  1  0  0  0  0
 36 33  1  0  0  0  0
 38 41  1  0  0  0  0
 39 37  1  6  0  0  0
 39 38  1  0  0  0  0
 40 41  1  0  0  0  0
 42 39  1  0  0  0  0
 42 40  1  0  0  0  0
 43  7  1  0  0  0  0
 45 46  2  0  0  0  0
 46 50  1  0  0  0  0
 46 44  1  0  0  0  0
 47 43  1  1  0  0  0
 47 44  1  0  0  0  0
 48 45  1  0  0  0  0
 48 47  1  0  0  0  0
 50 49  1  0  0  0  0
M  END
>  <MODEL>
8

>  <REMARK>
 VINA RESULT:      -7.1      2.544      9.117
  Name = 
  12 active torsions:
  status: ('A' for Active; 'I' for Inactive)
    1  A    between atoms: C_1  and  O_10
    2  A    between atoms: N_2  and  C_39
    3  A    between atoms: CA_3  and  C_37
    4  A    between atoms: CA_3  and  C_46
    5  A    between atoms: C_8  and  C_15
    6  A    between atoms: C_8  and  N_25
    7  A    between atoms: O_10  and  C_41
    8  A    between atoms: C_12  and  N_34
    9  A    between atoms: C_12  and  C_35
   10  A    between atoms: C_19  and  N_21
   11  A    between atoms: N_21  and  C_49
   12  A    between atoms: O_28  and  C_47
                            x       y       z     vdW  Elec       q    Type
                         _______ _______ _______ _____ _____    ______ ____

>  <TORSDO>
F 12

$$$$
=
 OpenBabel11042415493D

 50 56  0  0  1  0  0  0  0  0999 V2000
  193.0190  172.2710  142.7460 C   0  0  0  0  0  0  0  0  0  0  0  0
  191.7830  174.5660  144.2190 C   0  0  0  0  0  2  0  0  0  0  0  0
  192.9510  175.9870  142.9940 C   0  0  0  0  0  0  0  0  0  0  0  0
  193.3740  173.6300  142.5880 C   0  0  0  0  0  0  0  0  0  0  0  0
  192.7100  174.6680  143.2740 C   0  0  0  0  0  0  0  0  0  0  0  0
  192.2240  176.7960  143.7390 C   0  0  0  0  0  2  0  0  0  0  0  0
  193.7810  171.2710  142.1290 C   0  0  0  0  0  0  0  0  0  0  0  0
  194.3970  173.9980  141.6650 C   0  0  0  0  0  0  0  0  0  0  0  0
  195.2880  175.7530  140.2050 O   0  0  0  0  0  1  0  0  0  0  0  0
  191.3680  175.9460  144.6270 C   0  0  2  0  0  3  0  0  0  0  0  0
  194.5190  175.3710  141.2970 C   0  0  0  0  0  0  0  0  0  0  0  0
  195.1900  172.9680  141.0900 C   0  0  0  0  0  0  0  0  0  0  0  0
  193.8230  176.3660  141.9890 C   0  0  0  0  0  3  0  0  0  0  0  0
  194.8650  171.6330  141.3280 C   0  0  0  0  0  3  0  0  0  0  0  0
  196.3750  173.2230  140.3270 N   0  0  0  0  0  2  0  0  0  0  0  0
  197.7410  173.4260  138.2100 C   0  0  0  0  0  1  0  0  0  0  0  0
  196.4700  173.0890  138.9040 C   0  0  0  0  0  0  0  0  0  0  0  0
  195.4880  172.6770  138.2280 O   0  0  0  0  0  0  0  0  0  0  0  0
  191.8250  171.9300  143.4010 O   0  0  0  0  0  0  0  0  0  0  0  0
  189.0870  172.9120  141.4300 C   0  0  2  0  0  3  0  0  0  0  0  0
  190.7260  171.5990  140.2700 O   0  0  0  0  0  1  0  0  0  0  0  0
  190.5040  172.3830  141.3990 C   0  0  2  0  0  3  0  0  0  0  0  0
  189.1050  174.4080  141.1790 C   0  0  0  0  0  1  0  0  0  0  0  0
  188.6310  172.6510  142.7660 N   0  0  0  0  0  2  0  0  0  0  0  0
  190.6530  171.5440  142.6670 C   0  0  2  0  0  3  0  0  0  0  0  0
  189.4330  171.9170  143.4360 C   0  0  0  0  0  2  0  0  0  0  0  0
  191.7410  176.1860  146.0930 C   0  0  0  0  0  2  0  0  0  0  0  0
  189.8010  174.9910  146.7770 N   0  0  0  0  0  2  0  0  0  0  0  0
  189.7180  177.2770  146.8090 C   0  0  0  0  0  2  0  0  0  0  0  0
  190.5910  176.1310  147.0190 N   0  0  0  0  0  0  0  0  0  0  0  0
  188.3640  176.7590  147.1990 C   0  0  2  0  0  3  0  0  0  0  0  0
  188.4800  175.3050  147.1640 N   0  0  0  0  0  2  0  0  0  0  0  0
  187.3030  177.2160  146.2380 C   0  0  0  0  0  0  0  0  0  0  0  0
  187.6770  177.7200  145.1070 N   0  0  0  0  0  0  0  0  0  0  0  0
  185.7230  177.6080  147.9800 O   0  0  0  0  0  1  0  0  0  0  0  0
  185.8530  177.1880  146.6530 C   0  0  0  0  0  2  0  0  0  0  0  0
  186.7500  178.2920  144.1570 C   0  0  0  0  0  2  0  0  0  0  0  0
  187.6980  177.8250  141.9300 C   0  0  0  0  0  2  0  0  0  0  0  0
  186.6530  177.4100  142.9180 C   0  0  2  0  0  3  0  0  0  0  0  0
  185.6160  177.6600  140.7560 N   0  0  0  0  0  2  0  0  0  0  0  0
  187.0610  177.5420  140.5950 C   0  0  0  0  0  2  0  0  0  0  0  0
  185.3540  177.6890  142.1930 C   0  0  0  0  0  2  0  0  0  0  0  0
  193.4170  169.8980  142.3150 N   0  0  0  0  0  2  0  0  0  0  0  0
  195.1790  169.6450  143.8630 O   0  0  0  0  0  0  0  0  0  0  0  0
  193.9590  169.1030  145.6530 N   0  0  0  0  0  0  0  0  0  0  0  0
  195.0650  169.6050  145.2370 C   0  0  0  0  0  0  0  0  0  0  0  0
  194.0430  169.0150  143.2910 C   0  0  1  0  0  3  0  0  0  0  0  0
  193.1220  168.7930  144.4990 C   0  0  0  0  0  2  0  0  0  0  0  0
  196.8120  171.2000  145.9320 C   0  0  0  0  0  1  0  0  0  0  0  0
  196.1060  169.9790  146.0910 O   0  0  0  0  0  0  0  0  0  0  0  0
  1 19  1  0  0  0  0
  2 10  1  0  0  0  0
  3  5  1  0  0  0  0
  3  6  1  0  0  0  0
  4  1  1  0  0  0  0
  4  5  2  0  0  0  0
  5  2  1  0  0  0  0
  6 10  1  0  0  0  0
  7 43  1  0  0  0  0
  7  1  2  0  0  0  0
  8  4  1  0  0  0  0
  9 11  1  0  0  0  0
 10 27  1  1  0  0  0
 11  8  2  0  0  0  0
 11 13  1  0  0  0  0
 12 14  2  0  0  0  0
 12  8  1  0  0  0  0
 13  3  2  0  0  0  0
 14  7  1  0  0  0  0
 15 12  1  0  0  0  0
 16 17  1  0  0  0  0
 17 15  1  0  0  0  0
 18 17  2  0  0  0  0
 20 23  1  1  0  0  0
 20 24  1  0  0  0  0
 22 21  1  6  0  0  0
 22 20  1  0  0  0  0
 22 25  1  0  0  0  0
 24 26  1  0  0  0  0
 25 19  1  1  0  0  0
 25 26  1  0  0  0  0
 27 30  1  0  0  0  0
 28 30  1  0  0  0  0
 28 32  1  0  0  0  0
 29 30  1  0  0  0  0
 29 31  1  0  0  0  0
 31 33  1  6  0  0  0
 32 31  1  0  0  0  0
 33 36  1  0  0  0  0
 34 33  2  0  0  0  0
 36 35  1  0  0  0  0
 37 34  1  0  0  0  0
 38 39  1  0  0  0  0
 39 37  1  1  0  0  0
 40 42  1  0  0  0  0
 41 40  1  0  0  0  0
 41 38  1  0  0  0  0
 42 39  1  0  0  0  0
 44 46  1  0  0  0  0
 46 45  2  0  0  0  0
 46 50  1  0  0  0  0
 47 43  1  6  0  0  0
 47 44  1  0  0  0  0
 47 48  1  0  0  0  0
 48 45  1  0  0  0  0
 49 50  1  0  0  0  0
M  END
>  <MODEL>
9

>  <REMARK>
 VINA RESULT:      -7.1      2.818      9.789
  Name = 
  12 active torsions:
  status: ('A' for Active; 'I' for Inactive)
    1  A    between atoms: C_1  and  O_10
    2  A    between atoms: N_2  and  C_39
    3  A    between atoms: CA_3  and  C_37
    4  A    between atoms: CA_3  and  C_46
    5  A    between atoms: C_8  and  C_15
    6  A    between atoms: C_8  and  N_25
    7  A    between atoms: O_10  and  C_41
    8  A    between atoms: C_12  and  N_34
    9  A    between atoms: C_12  and  C_35
   10  A    between atoms: C_19  and  N_21
   11  A    between atoms: N_21  and  C_49
   12  A    between atoms: O_28  and  C_47
                            x       y       z     vdW  Elec       q    Type
                         _______ _______ _______ _____ _____    ______ ____

>  <TORSDO>
F 12

$$$$
