=
 OpenBabel11042413593D

 36 38  0  0  1  0  0  0  0  0999 V2000
  189.8630  173.7560  144.8060 O   0  0  0  0  0  0  0  0  0  0  0  0
  190.0780  175.3810  146.5170 C   0  0  0  0  0  0  0  0  0  0  0  0
  190.5790  174.6510  145.3300 C   0  0  0  0  0  0  0  0  0  0  0  0
  192.5070  176.2740  145.3120 C   0  0  1  0  0  3  0  0  0  0  0  0
  191.9630  174.9350  144.7680 C   0  0  2  0  0  3  0  0  0  0  0  0
  192.3270  176.3540  146.8270 C   0  0  0  0  0  2  0  0  0  0  0  0
  190.8820  176.2070  147.1900 C   0  0  0  0  0  3  0  0  0  0  0  0
  193.2820  174.7680  142.7980 C   0  0  0  0  0  2  0  0  0  0  0  0
  192.3540  173.6510  142.8120 C   0  0  1  0  0  3  0  0  0  0  0  0
  191.9120  174.9700  143.3040 N   0  0  1  0  0  0  0  0  0  0  0  0
  191.7960  173.4330  141.4220 C   0  0  0  0  0  2  0  0  0  0  0  0
  191.0770  172.1020  141.3680 C   0  0  0  0  0  2  0  0  0  0  0  0
  190.2150  172.0660  140.2020 N   0  0  0  0  0  2  0  0  0  0  0  0
  190.0800  173.4400  139.7410 C   0  0  0  0  0  2  0  0  0  0  0  0
  188.6310  173.9070  139.8420 C   0  0  2  0  0  3  0  0  0  0  0  0
  188.2130  174.4340  138.6180 O   0  0  0  0  0  1  0  0  0  0  0  0
  188.4500  174.9480  140.9390 C   0  0  0  0  0  2  0  0  0  0  0  0
  187.5500  172.9900  141.9840 O   0  0  0  0  0  1  0  0  0  0  0  0
  187.6810  174.3740  142.1190 C   0  0  0  0  0  2  0  0  0  0  0  0
  193.9830  176.4380  144.9800 C   0  0  0  0  0  2  0  0  0  0  0  0
  194.7780  175.5040  145.7670 N   0  0  0  0  0  2  0  0  0  0  0  0
  196.0130  174.9170  145.3370 C   0  0  0  0  0  0  0  0  0  0  0  0
  196.4950  173.9700  146.0110 O   0  0  0  0  0  0  0  0  0  0  0  0
  196.7150  175.3560  144.1640 N   0  0  0  0  0  2  0  0  0  0  0  0
  196.4720  176.6060  143.4610 C   0  0  0  0  0  2  0  0  0  0  0  0
  196.4690  176.3700  142.0280 N   0  0  0  0  0  1  0  0  0  0  0  0
  188.6590  175.2300  146.9630 C   0  0  0  0  0  2  0  0  0  0  0  0
  187.0790  177.6660  144.5240 C   0  0  0  0  0  0  0  0  0  0  0  0
  186.1980  178.3610  145.3620 C   0  0  0  0  0  3  0  0  0  0  0  0
  187.8860  176.6500  145.0480 C   0  0  0  0  0  3  0  0  0  0  0  0
  186.9160  177.0120  147.2400 C   0  0  0  0  0  3  0  0  0  0  0  0
  186.1160  178.0320  146.7190 C   0  0  0  0  0  3  0  0  0  0  0  0
  187.8030  176.3190  146.4060 C   0  0  0  0  0  0  0  0  0  0  0  0
  187.1820  178.0310  143.0860 C   0  0  0  0  0  2  0  0  0  0  0  0
  185.9180  177.7660  142.4190 N   0  0  0  0  0  2  0  0  0  0  0  0
  186.1690  177.8570  140.9930 C   0  0  0  0  0  1  0  0  0  0  0  0
  1  3  2  0  0  0  0
  2 27  1  0  0  0  0
  2  7  2  0  0  0  0
  3  2  1  0  0  0  0
  4 20  1  1  0  0  0
  4  6  1  0  0  0  0
  5  4  1  0  0  0  0
  5  3  1  1  0  0  0
  6  7  1  0  0  0  0
  8  9  1  0  0  0  0
  9 11  1  6  0  0  0
  9 10  1  0  0  0  0
 10  8  1  6  0  0  0
 10  5  1  0  0  0  0
 12 11  1  0  0  0  0
 13 12  1  0  0  0  0
 14 15  1  0  0  0  0
 14 13  1  0  0  0  0
 15 16  1  6  0  0  0
 15 17  1  0  0  0  0
 17 19  1  0  0  0  0
 18 19  1  0  0  0  0
 20 21  1  0  0  0  0
 22 21  1  0  0  0  0
 22 23  2  0  0  0  0
 24 22  1  0  0  0  0
 25 24  1  0  0  0  0
 26 25  1  0  0  0  0
 28 30  2  0  0  0  0
 28 29  1  0  0  0  0
 29 32  2  0  0  0  0
 30 33  1  0  0  0  0
 32 31  1  0  0  0  0
 33 27  1  0  0  0  0
 33 31  2  0  0  0  0
 34 28  1  0  0  0  0
 35 34  1  0  0  0  0
 36 35  1  0  0  0  0
M  END
>  <MODEL>
1

>  <REMARK>
 VINA RESULT:      -6.2      0.000      0.000
  Name = 
  15 active torsions:
  status: ('A' for Active; 'I' for Inactive)
    1  A    between atoms: N_1  and  C_24
    2  A    between atoms: N_1  and  C_29
    3  A    between atoms: C_3  and  C_20
    4  A    between atoms: C_4  and  C_24
    5  A    between atoms: C_4  and  C_27
    6  A    between atoms: N_5  and  C_7
    7  A    between atoms: C_6  and  C_32
    8  A    between atoms: C_7  and  C_23
    9  A    between atoms: N_10  and  C_32
   10  A    between atoms: C_14  and  C_27
   11  A    between atoms: C_16  and  C_29
   12  A    between atoms: C_16  and  C_33
   13  A    between atoms: C_20  and  C_35
   14  A    between atoms: N_22  and  C_31
   15  A    between atoms: C_25  and  N_34
                            x       y       z     vdW  Elec       q    Type
                         _______ _______ _______ _____ _____    ______ ____

>  <TORSDO>
F 15

$$$$
=
 OpenBabel11042413593D

 36 38  0  0  1  0  0  0  0  0999 V2000
  190.5350  173.3670  144.9440 O   0  0  0  0  0  0  0  0  0  0  0  0
  190.8180  175.0770  146.5600 C   0  0  0  0  0  0  0  0  0  0  0  0
  191.2950  174.2480  145.4290 C   0  0  0  0  0  0  0  0  0  0  0  0
  193.3180  175.7480  145.3560 C   0  0  1  0  0  3  0  0  0  0  0  0
  192.7020  174.4130  144.8810 C   0  0  2  0  0  3  0  0  0  0  0  0
  193.1160  175.9310  146.8600 C   0  0  0  0  0  2  0  0  0  0  0  0
  191.6590  175.8920  147.2000 C   0  0  0  0  0  3  0  0  0  0  0  0
  193.9250  173.7140  142.9670 C   0  0  0  0  0  2  0  0  0  0  0  0
  192.6970  172.9410  143.0220 C   0  0  1  0  0  3  0  0  0  0  0  0
  192.6800  174.3630  143.4170 N   0  0  1  0  0  0  0  0  0  0  0  0
  192.1130  172.8120  141.6310 C   0  0  0  0  0  2  0  0  0  0  0  0
  191.5210  171.4290  141.4570 C   0  0  0  0  0  2  0  0  0  0  0  0
  190.1550  171.5450  140.9820 N   0  0  0  0  0  2  0  0  0  0  0  0
  189.3890  172.1540  142.0590 C   0  0  0  0  0  2  0  0  0  0  0  0
  188.1320  172.8270  141.5180 C   0  0  2  0  0  3  0  0  0  0  0  0
  188.2040  172.9250  140.1270 O   0  0  0  0  0  1  0  0  0  0  0  0
  187.9310  174.2110  142.1210 C   0  0  0  0  0  2  0  0  0  0  0  0
  187.4550  176.3050  141.0620 O   0  0  0  0  0  1  0  0  0  0  0  0
  188.4160  175.2980  141.1740 C   0  0  0  0  0  2  0  0  0  0  0  0
  194.8070  175.8030  145.0470 C   0  0  0  0  0  2  0  0  0  0  0  0
  195.5410  174.9560  145.9770 N   0  0  0  0  0  2  0  0  0  0  0  0
  196.7060  174.1900  145.6420 C   0  0  0  0  0  0  0  0  0  0  0  0
  197.1240  173.3390  146.4690 O   0  0  0  0  0  0  0  0  0  0  0  0
  197.4060  174.3450  144.3990 N   0  0  0  0  0  2  0  0  0  0  0  0
  197.2510  175.4650  143.4830 C   0  0  0  0  0  2  0  0  0  0  0  0
  197.2430  174.9830  142.1140 N   0  0  0  0  0  1  0  0  0  0  0  0
  189.3850  175.0380  146.9840 C   0  0  0  0  0  2  0  0  0  0  0  0
  186.7860  177.7110  146.2910 C   0  0  0  0  0  0  0  0  0  0  0  0
  187.0990  178.0650  144.9730 C   0  0  0  0  0  3  0  0  0  0  0  0
  187.5270  176.7200  146.9450 C   0  0  0  0  0  3  0  0  0  0  0  0
  188.9050  176.4510  144.9680 C   0  0  0  0  0  3  0  0  0  0  0  0
  188.1600  177.4360  144.3140 C   0  0  0  0  0  3  0  0  0  0  0  0
  188.5900  176.0910  146.2850 C   0  0  0  0  0  0  0  0  0  0  0  0
  185.6440  178.3650  146.9860 C   0  0  0  0  0  2  0  0  0  0  0  0
  184.3900  177.8240  146.4880 N   0  0  0  0  0  2  0  0  0  0  0  0
  183.7710  178.8670  145.6920 C   0  0  0  0  0  1  0  0  0  0  0  0
  1  3  2  0  0  0  0
  2 27  1  0  0  0  0
  2  7  2  0  0  0  0
  3  2  1  0  0  0  0
  4 20  1  1  0  0  0
  4  6  1  0  0  0  0
  5  4  1  0  0  0  0
  5  3  1  6  0  0  0
  6  7  1  0  0  0  0
  8  9  1  0  0  0  0
  9 11  1  6  0  0  0
  9 10  1  0  0  0  0
 10  8  1  6  0  0  0
 10  5  1  0  0  0  0
 12 11  1  0  0  0  0
 13 12  1  0  0  0  0
 13 14  1  0  0  0  0
 15 16  1  6  0  0  0
 15 14  1  0  0  0  0
 15 17  1  0  0  0  0
 18 19  1  0  0  0  0
 19 17  1  0  0  0  0
 20 21  1  0  0  0  0
 22 21  1  0  0  0  0
 22 23  2  0  0  0  0
 24 22  1  0  0  0  0
 25 24  1  0  0  0  0
 26 25  1  0  0  0  0
 28 30  1  0  0  0  0
 28 34  1  0  0  0  0
 29 28  2  0  0  0  0
 31 33  1  0  0  0  0
 32 31  2  0  0  0  0
 32 29  1  0  0  0  0
 33 30  2  0  0  0  0
 33 27  1  0  0  0  0
 35 34  1  0  0  0  0
 36 35  1  0  0  0  0
M  END
>  <MODEL>
2

>  <REMARK>
 VINA RESULT:      -6.0      1.474      2.025
  Name = 
  15 active torsions:
  status: ('A' for Active; 'I' for Inactive)
    1  A    between atoms: N_1  and  C_24
    2  A    between atoms: N_1  and  C_29
    3  A    between atoms: C_3  and  C_20
    4  A    between atoms: C_4  and  C_24
    5  A    between atoms: C_4  and  C_27
    6  A    between atoms: N_5  and  C_7
    7  A    between atoms: C_6  and  C_32
    8  A    between atoms: C_7  and  C_23
    9  A    between atoms: N_10  and  C_32
   10  A    between atoms: C_14  and  C_27
   11  A    between atoms: C_16  and  C_29
   12  A    between atoms: C_16  and  C_33
   13  A    between atoms: C_20  and  C_35
   14  A    between atoms: N_22  and  C_31
   15  A    between atoms: C_25  and  N_34
                            x       y       z     vdW  Elec       q    Type
                         _______ _______ _______ _____ _____    ______ ____

>  <TORSDO>
F 15

$$$$
=
 OpenBabel11042413593D

 36 38  0  0  1  0  0  0  0  0999 V2000
  189.8150  177.3150  143.8050 O   0  0  0  0  0  0  0  0  0  0  0  0
  188.2210  177.0020  142.0800 C   0  0  0  0  0  0  0  0  0  0  0  0
  189.2320  176.5010  143.0400 C   0  0  0  0  0  0  0  0  0  0  0  0
  188.5480  174.1780  142.3430 C   0  0  1  0  0  3  0  0  0  0  0  0
  189.6060  175.0290  143.0800 C   0  0  2  0  0  3  0  0  0  0  0  0
  188.2160  174.7890  140.9830 C   0  0  0  0  0  2  0  0  0  0  0  0
  187.7180  176.1920  141.1470 C   0  0  0  0  0  3  0  0  0  0  0  0
  190.6810  173.4520  144.4960 C   0  0  0  0  0  2  0  0  0  0  0  0
  191.1390  174.7770  144.8720 C   0  0  1  0  0  3  0  0  0  0  0  0
  189.7330  174.5810  144.4690 N   0  0  1  0  0  0  0  0  0  0  0  0
  191.2070  174.8850  146.3800 C   0  0  0  0  0  2  0  0  0  0  0  0
  191.8210  176.2140  146.7660 C   0  0  0  0  0  2  0  0  0  0  0  0
  192.7000  176.6670  145.7050 N   0  0  0  0  0  2  0  0  0  0  0  0
  194.0440  176.6950  146.2590 C   0  0  0  0  0  2  0  0  0  0  0  0
  195.0320  176.0050  145.3240 C   0  0  2  0  0  3  0  0  0  0  0  0
  194.5130  175.9610  144.0290 O   0  0  0  0  0  1  0  0  0  0  0  0
  195.3610  174.5940  145.7950 C   0  0  0  0  0  2  0  0  0  0  0  0
  193.9680  172.6480  145.7420 O   0  0  0  0  0  1  0  0  0  0  0  0
  194.6610  173.5530  144.9360 C   0  0  0  0  0  2  0  0  0  0  0  0
  189.0400  172.7540  142.1380 C   0  0  0  0  0  2  0  0  0  0  0  0
  189.1750  172.4710  140.7160 N   0  0  0  0  0  2  0  0  0  0  0  0
  190.2020  171.6550  140.1370 C   0  0  0  0  0  0  0  0  0  0  0  0
  190.3380  171.6570  138.8860 O   0  0  0  0  0  0  0  0  0  0  0  0
  191.0860  170.8440  140.9250 N   0  0  0  0  0  2  0  0  0  0  0  0
  190.8780  170.4900  142.3210 C   0  0  0  0  0  2  0  0  0  0  0  0
  192.1430  170.1130  142.9260 N   0  0  0  0  0  1  0  0  0  0  0  0
  187.7270  178.4110  142.1570 C   0  0  0  0  0  2  0  0  0  0  0  0
  185.3570  178.7440  145.0990 C   0  0  0  0  0  0  0  0  0  0  0  0
  184.1140  178.6510  144.4630 C   0  0  0  0  0  3  0  0  0  0  0  0
  186.5360  178.6580  144.3480 C   0  0  0  0  0  3  0  0  0  0  0  0
  185.2250  178.4090  142.3240 C   0  0  0  0  0  3  0  0  0  0  0  0
  184.0480  178.4860  143.0760 C   0  0  0  0  0  3  0  0  0  0  0  0
  186.4700  178.4950  142.9590 C   0  0  0  0  0  0  0  0  0  0  0  0
  185.4270  178.8980  146.5770 C   0  0  0  0  0  2  0  0  0  0  0  0
  186.6190  178.2390  147.0850 N   0  0  0  0  0  2  0  0  0  0  0  0
  186.1940  176.9600  147.6210 C   0  0  0  0  0  1  0  0  0  0  0  0
  2 27  1  0  0  0  0
  2  3  1  0  0  0  0
  3  1  2  0  0  0  0
  4 20  1  6  0  0  0
  4  5  1  0  0  0  0
  5  3  1  1  0  0  0
  5 10  1  0  0  0  0
  6  7  1  0  0  0  0
  6  4  1  0  0  0  0
  7  2  2  0  0  0  0
  8  9  1  0  0  0  0
  9 11  1  1  0  0  0
 10  8  1  6  0  0  0
 10  9  1  0  0  0  0
 11 12  1  0  0  0  0
 13 14  1  0  0  0  0
 13 12  1  0  0  0  0
 15 16  1  6  0  0  0
 15 17  1  0  0  0  0
 15 14  1  0  0  0  0
 19 18  1  0  0  0  0
 19 17  1  0  0  0  0
 21 20  1  0  0  0  0
 22 21  1  0  0  0  0
 22 24  1  0  0  0  0
 23 22  2  0  0  0  0
 24 25  1  0  0  0  0
 25 26  1  0  0  0  0
 27 33  1  0  0  0  0
 28 34  1  0  0  0  0
 29 28  1  0  0  0  0
 30 28  2  0  0  0  0
 31 33  2  0  0  0  0
 31 32  1  0  0  0  0
 32 29  2  0  0  0  0
 33 30  1  0  0  0  0
 34 35  1  0  0  0  0
 35 36  1  0  0  0  0
M  END
>  <MODEL>
3

>  <REMARK>
 VINA RESULT:      -6.0      2.399      6.259
  Name = 
  15 active torsions:
  status: ('A' for Active; 'I' for Inactive)
    1  A    between atoms: N_1  and  C_24
    2  A    between atoms: N_1  and  C_29
    3  A    between atoms: C_3  and  C_20
    4  A    between atoms: C_4  and  C_24
    5  A    between atoms: C_4  and  C_27
    6  A    between atoms: N_5  and  C_7
    7  A    between atoms: C_6  and  C_32
    8  A    between atoms: C_7  and  C_23
    9  A    between atoms: N_10  and  C_32
   10  A    between atoms: C_14  and  C_27
   11  A    between atoms: C_16  and  C_29
   12  A    between atoms: C_16  and  C_33
   13  A    between atoms: C_20  and  C_35
   14  A    between atoms: N_22  and  C_31
   15  A    between atoms: C_25  and  N_34
                            x       y       z     vdW  Elec       q    Type
                         _______ _______ _______ _____ _____    ______ ____

>  <TORSDO>
F 15

$$$$
=
 OpenBabel11042413593D

 36 38  0  0  1  0  0  0  0  0999 V2000
  190.3160  177.9220  143.2590 O   0  0  0  0  0  0  0  0  0  0  0  0
  188.4800  176.8570  142.2050 C   0  0  0  0  0  0  0  0  0  0  0  0
  189.7240  176.8370  143.0090 C   0  0  0  0  0  0  0  0  0  0  0  0
  189.2800  174.3870  143.3930 C   0  0  1  0  0  3  0  0  0  0  0  0
  190.3190  175.5250  143.4910 C   0  0  2  0  0  3  0  0  0  0  0  0
  188.5970  174.3960  142.0260 C   0  0  0  0  0  2  0  0  0  0  0  0
  187.9330  175.7150  141.7820 C   0  0  0  0  0  3  0  0  0  0  0  0
  191.6650  174.5190  145.1720 C   0  0  0  0  0  2  0  0  0  0  0  0
  192.2530  175.8040  144.8360 C   0  0  1  0  0  3  0  0  0  0  0  0
  190.7850  175.6640  144.8740 N   0  0  1  0  0  0  0  0  0  0  0  0
  192.7120  176.5010  146.0990 C   0  0  0  0  0  2  0  0  0  0  0  0
  194.1790  176.2070  146.3350 C   0  0  0  0  0  2  0  0  0  0  0  0
  194.9090  176.3620  145.0910 N   0  0  0  0  0  2  0  0  0  0  0  0
  195.6760  175.1400  144.9020 C   0  0  0  0  0  2  0  0  0  0  0  0
  196.5960  175.2580  143.6920 C   0  0  2  0  0  3  0  0  0  0  0  0
  197.8990  174.9000  144.0460 O   0  0  0  0  0  1  0  0  0  0  0  0
  196.5900  176.6670  143.1150 C   0  0  0  0  0  2  0  0  0  0  0  0
  194.8370  176.6210  141.4830 O   0  0  0  0  0  1  0  0  0  0  0  0
  196.2250  176.6540  141.6380 C   0  0  0  0  0  2  0  0  0  0  0  0
  189.9340  173.0310  143.6100 C   0  0  0  0  0  2  0  0  0  0  0  0
  189.7390  172.1890  142.4370 N   0  0  0  0  0  2  0  0  0  0  0  0
  190.6850  171.2250  141.9550 C   0  0  0  0  0  0  0  0  0  0  0  0
  190.4970  170.7130  140.8220 O   0  0  0  0  0  0  0  0  0  0  0  0
  191.8410  170.8290  142.7070 N   0  0  0  0  0  2  0  0  0  0  0  0
  192.0450  171.0790  144.1260 C   0  0  0  0  0  2  0  0  0  0  0  0
  193.4450  171.3730  144.3760 N   0  0  0  0  0  1  0  0  0  0  0  0
  187.8010  178.1480  141.8800 C   0  0  0  0  0  2  0  0  0  0  0  0
  185.4570  178.7380  144.8010 C   0  0  0  0  0  0  0  0  0  0  0  0
  184.2080  178.6230  144.1800 C   0  0  0  0  0  3  0  0  0  0  0  0
  186.6290  178.5760  144.0530 C   0  0  0  0  0  3  0  0  0  0  0  0
  185.3010  178.2050  142.0590 C   0  0  0  0  0  3  0  0  0  0  0  0
  184.1310  178.3590  142.8080 C   0  0  0  0  0  3  0  0  0  0  0  0
  186.5520  178.3130  142.6790 C   0  0  0  0  0  0  0  0  0  0  0  0
  185.5390  178.9980  146.2640 C   0  0  0  0  0  2  0  0  0  0  0  0
  184.9860  177.8700  146.9960 N   0  0  0  0  0  2  0  0  0  0  0  0
  186.1100  177.1440  147.5570 C   0  0  0  0  0  1  0  0  0  0  0  0
  2  3  1  0  0  0  0
  3  1  2  0  0  0  0
  4  5  1  0  0  0  0
  4 20  1  6  0  0  0
  5  3  1  1  0  0  0
  5 10  1  0  0  0  0
  6  4  1  0  0  0  0
  7  6  1  0  0  0  0
  7  2  2  0  0  0  0
  9 10  1  0  0  0  0
  9  8  1  0  0  0  0
  9 11  1  1  0  0  0
 10  8  1  1  0  0  0
 11 12  1  0  0  0  0
 13 12  1  0  0  0  0
 14 13  1  0  0  0  0
 15 16  1  1  0  0  0
 15 14  1  0  0  0  0
 17 15  1  0  0  0  0
 18 19  1  0  0  0  0
 19 17  1  0  0  0  0
 21 20  1  0  0  0  0
 22 21  1  0  0  0  0
 22 24  1  0  0  0  0
 23 22  2  0  0  0  0
 24 25  1  0  0  0  0
 25 26  1  0  0  0  0
 27  2  1  0  0  0  0
 27 33  1  0  0  0  0
 28 34  1  0  0  0  0
 29 28  1  0  0  0  0
 30 28  2  0  0  0  0
 31 33  2  0  0  0  0
 31 32  1  0  0  0  0
 32 29  2  0  0  0  0
 33 30  1  0  0  0  0
 34 35  1  0  0  0  0
 35 36  1  0  0  0  0
M  END
>  <MODEL>
4

>  <REMARK>
 VINA RESULT:      -5.9      2.362      6.120
  Name = 
  15 active torsions:
  status: ('A' for Active; 'I' for Inactive)
    1  A    between atoms: N_1  and  C_24
    2  A    between atoms: N_1  and  C_29
    3  A    between atoms: C_3  and  C_20
    4  A    between atoms: C_4  and  C_24
    5  A    between atoms: C_4  and  C_27
    6  A    between atoms: N_5  and  C_7
    7  A    between atoms: C_6  and  C_32
    8  A    between atoms: C_7  and  C_23
    9  A    between atoms: N_10  and  C_32
   10  A    between atoms: C_14  and  C_27
   11  A    between atoms: C_16  and  C_29
   12  A    between atoms: C_16  and  C_33
   13  A    between atoms: C_20  and  C_35
   14  A    between atoms: N_22  and  C_31
   15  A    between atoms: C_25  and  N_34
                            x       y       z     vdW  Elec       q    Type
                         _______ _______ _______ _____ _____    ______ ____

>  <TORSDO>
F 15

$$$$
=
 OpenBabel11042413593D

 36 38  0  0  1  0  0  0  0  0999 V2000
  189.7520  173.5760  145.0980 O   0  0  0  0  0  0  0  0  0  0  0  0
  189.9910  175.3320  146.6700 C   0  0  0  0  0  0  0  0  0  0  0  0
  190.4690  174.5180  145.5290 C   0  0  0  0  0  0  0  0  0  0  0  0
  192.3720  176.1590  145.3290 C   0  0  1  0  0  3  0  0  0  0  0  0
  191.8320  174.7740  144.9070 C   0  0  2  0  0  3  0  0  0  0  0  0
  192.2330  176.3550  146.8380 C   0  0  0  0  0  2  0  0  0  0  0  0
  190.8020  176.2180  147.2540 C   0  0  0  0  0  3  0  0  0  0  0  0
  193.0370  174.2170  142.9360 C   0  0  0  0  0  2  0  0  0  0  0  0
  191.9340  173.2820  143.0660 C   0  0  1  0  0  3  0  0  0  0  0  0
  191.7390  174.6940  143.4470 N   0  0  1  0  0  0  0  0  0  0  0  0
  191.3010  173.0470  141.7110 C   0  0  0  0  0  2  0  0  0  0  0  0
  190.1350  172.0910  141.8550 C   0  0  0  0  0  2  0  0  0  0  0  0
  188.9760  172.6390  141.1770 N   0  0  0  0  0  2  0  0  0  0  0  0
  189.4270  173.8300  140.4740 C   0  0  0  0  0  2  0  0  0  0  0  0
  188.9680  173.8100  139.0200 C   0  0  2  0  0  3  0  0  0  0  0  0
  188.0100  172.8100  138.8350 O   0  0  0  0  0  1  0  0  0  0  0  0
  190.1330  173.5870  138.0650 C   0  0  0  0  0  2  0  0  0  0  0  0
  191.3090  171.5510  138.5140 O   0  0  0  0  0  1  0  0  0  0  0  0
  190.2980  172.1120  137.7330 C   0  0  0  0  0  2  0  0  0  0  0  0
  193.8350  176.3140  144.9430 C   0  0  0  0  0  2  0  0  0  0  0  0
  194.6750  175.5340  145.8420 N   0  0  0  0  0  2  0  0  0  0  0  0
  195.8560  174.8240  145.4480 C   0  0  0  0  0  0  0  0  0  0  0  0
  196.3750  174.0200  146.2660 O   0  0  0  0  0  0  0  0  0  0  0  0
  196.4650  174.9840  144.1580 N   0  0  0  0  0  2  0  0  0  0  0  0
  196.1890  176.0690  143.2290 C   0  0  0  0  0  2  0  0  0  0  0  0
  197.3180  176.9800  143.1880 N   0  0  0  0  0  1  0  0  0  0  0  0
  188.5880  175.1990  147.1690 C   0  0  0  0  0  2  0  0  0  0  0  0
  187.0460  177.6670  144.7380 C   0  0  0  0  0  0  0  0  0  0  0  0
  186.0760  178.2770  145.5430 C   0  0  0  0  0  3  0  0  0  0  0  0
  187.8700  176.6680  145.2700 C   0  0  0  0  0  3  0  0  0  0  0  0
  186.7390  176.8770  147.4050 C   0  0  0  0  0  3  0  0  0  0  0  0
  185.9220  177.8800  146.8750 C   0  0  0  0  0  3  0  0  0  0  0  0
  187.7140  176.2690  146.6030 C   0  0  0  0  0  0  0  0  0  0  0  0
  187.2240  178.1050  143.3270 C   0  0  0  0  0  2  0  0  0  0  0  0
  186.7480  177.0680  142.4260 N   0  0  0  0  0  2  0  0  0  0  0  0
  185.5800  177.6030  141.7530 C   0  0  0  0  0  1  0  0  0  0  0  0
  1  3  2  0  0  0  0
  2 27  1  0  0  0  0
  2  7  2  0  0  0  0
  3  2  1  0  0  0  0
  4 20  1  1  0  0  0
  4  6  1  0  0  0  0
  5  4  1  0  0  0  0
  5  3  1  1  0  0  0
  6  7  1  0  0  0  0
  8  9  1  0  0  0  0
  9 11  1  6  0  0  0
  9 10  1  0  0  0  0
 10  8  1  6  0  0  0
 10  5  1  0  0  0  0
 11 12  1  0  0  0  0
 13 12  1  0  0  0  0
 14 13  1  0  0  0  0
 15 16  1  1  0  0  0
 15 14  1  0  0  0  0
 17 15  1  0  0  0  0
 19 17  1  0  0  0  0
 19 18  1  0  0  0  0
 20 21  1  0  0  0  0
 22 21  1  0  0  0  0
 22 23  2  0  0  0  0
 24 22  1  0  0  0  0
 25 24  1  0  0  0  0
 26 25  1  0  0  0  0
 28 30  2  0  0  0  0
 28 29  1  0  0  0  0
 29 32  2  0  0  0  0
 30 33  1  0  0  0  0
 32 31  1  0  0  0  0
 33 27  1  0  0  0  0
 33 31  2  0  0  0  0
 34 28  1  0  0  0  0
 35 34  1  0  0  0  0
 36 35  1  0  0  0  0
M  END
>  <MODEL>
5

>  <REMARK>
 VINA RESULT:      -5.9      1.089      1.568
  Name = 
  15 active torsions:
  status: ('A' for Active; 'I' for Inactive)
    1  A    between atoms: N_1  and  C_24
    2  A    between atoms: N_1  and  C_29
    3  A    between atoms: C_3  and  C_20
    4  A    between atoms: C_4  and  C_24
    5  A    between atoms: C_4  and  C_27
    6  A    between atoms: N_5  and  C_7
    7  A    between atoms: C_6  and  C_32
    8  A    between atoms: C_7  and  C_23
    9  A    between atoms: N_10  and  C_32
   10  A    between atoms: C_14  and  C_27
   11  A    between atoms: C_16  and  C_29
   12  A    between atoms: C_16  and  C_33
   13  A    between atoms: C_20  and  C_35
   14  A    between atoms: N_22  and  C_31
   15  A    between atoms: C_25  and  N_34
                            x       y       z     vdW  Elec       q    Type
                         _______ _______ _______ _____ _____    ______ ____

>  <TORSDO>
F 15

$$$$
=
 OpenBabel11042413593D

 36 38  0  0  1  0  0  0  0  0999 V2000
  190.8060  176.8070  143.2640 O   0  0  0  0  0  0  0  0  0  0  0  0
  188.7910  176.5990  142.0340 C   0  0  0  0  0  0  0  0  0  0  0  0
  190.0080  176.0380  142.6650 C   0  0  0  0  0  0  0  0  0  0  0  0
  189.0800  173.7600  142.1120 C   0  0  1  0  0  3  0  0  0  0  0  0
  190.3280  174.5560  142.5560 C   0  0  2  0  0  3  0  0  0  0  0  0
  188.4110  174.4310  140.9140 C   0  0  0  0  0  2  0  0  0  0  0  0
  188.0250  175.8380  141.2500 C   0  0  0  0  0  3  0  0  0  0  0  0
  191.5100  172.7760  143.5970 C   0  0  0  0  0  2  0  0  0  0  0  0
  192.2870  173.9910  143.7680 C   0  0  1  0  0  3  0  0  0  0  0  0
  190.8150  174.0520  143.8430 N   0  0  1  0  0  0  0  0  0  0  0  0
  192.8520  174.0410  145.1710 C   0  0  0  0  0  2  0  0  0  0  0  0
  193.5540  175.3650  145.3880 C   0  0  0  0  0  2  0  0  0  0  0  0
  193.1450  175.9250  146.6620 N   0  0  0  0  0  2  0  0  0  0  0  0
  192.0100  176.7950  146.3900 C   0  0  0  0  0  2  0  0  0  0  0  0
  190.9790  176.7080  147.5100 C   0  0  2  0  0  3  0  0  0  0  0  0
  191.4920  177.2770  148.6780 O   0  0  0  0  0  1  0  0  0  0  0  0
  190.5600  175.2690  147.7800 C   0  0  0  0  0  2  0  0  0  0  0  0
  188.4710  176.0020  146.8680 O   0  0  0  0  0  1  0  0  0  0  0  0
  189.3200  174.8990  146.9820 C   0  0  0  0  0  2  0  0  0  0  0  0
  189.4490  172.3330  141.7380 C   0  0  0  0  0  2  0  0  0  0  0  0
  189.5550  172.2080  140.2900 N   0  0  0  0  0  2  0  0  0  0  0  0
  190.4460  171.3150  139.6090 C   0  0  0  0  0  0  0  0  0  0  0  0
  190.5970  171.4470  138.3670 O   0  0  0  0  0  0  0  0  0  0  0  0
  191.1800  170.2830  140.2870 N   0  0  0  0  0  2  0  0  0  0  0  0
  190.9010  169.8000  141.6300 C   0  0  0  0  0  2  0  0  0  0  0  0
  190.7610  168.3550  141.6130 N   0  0  0  0  0  1  0  0  0  0  0  0
  188.3850  178.0160  142.2860 C   0  0  0  0  0  2  0  0  0  0  0  0
  185.5260  177.6790  144.7530 C   0  0  0  0  0  0  0  0  0  0  0  0
  184.4610  178.2100  144.0150 C   0  0  0  0  0  3  0  0  0  0  0  0
  186.8040  177.6090  144.1870 C   0  0  0  0  0  3  0  0  0  0  0  0
  185.9550  178.6210  142.1530 C   0  0  0  0  0  3  0  0  0  0  0  0
  184.6770  178.6830  142.7170 C   0  0  0  0  0  3  0  0  0  0  0  0
  187.0210  178.0840  142.8870 C   0  0  0  0  0  0  0  0  0  0  0  0
  185.2920  177.1560  146.1260 C   0  0  0  0  0  2  0  0  0  0  0  0
  184.6890  178.1900  146.9500 N   0  0  0  0  0  2  0  0  0  0  0  0
  185.7780  178.9690  147.5090 C   0  0  0  0  0  1  0  0  0  0  0  0
  2 27  1  0  0  0  0
  2  3  1  0  0  0  0
  3  1  2  0  0  0  0
  4 20  1  6  0  0  0
  4  5  1  0  0  0  0
  5  3  1  1  0  0  0
  5 10  1  0  0  0  0
  6  7  1  0  0  0  0
  6  4  1  0  0  0  0
  7  2  2  0  0  0  0
  8  9  1  0  0  0  0
  9 10  1  0  0  0  0
  9 11  1  1  0  0  0
 10  8  1  6  0  0  0
 11 12  1  0  0  0  0
 12 13  1  0  0  0  0
 14 13  1  0  0  0  0
 14 15  1  0  0  0  0
 15 17  1  0  0  0  0
 15 16  1  1  0  0  0
 18 19  1  0  0  0  0
 19 17  1  0  0  0  0
 21 20  1  0  0  0  0
 22 24  1  0  0  0  0
 22 21  1  0  0  0  0
 23 22  2  0  0  0  0
 24 25  1  0  0  0  0
 26 25  1  0  0  0  0
 27 33  1  0  0  0  0
 28 34  1  0  0  0  0
 29 28  2  0  0  0  0
 30 28  1  0  0  0  0
 31 32  2  0  0  0  0
 31 33  1  0  0  0  0
 32 29  1  0  0  0  0
 33 30  2  0  0  0  0
 34 35  1  0  0  0  0
 35 36  1  0  0  0  0
M  END
>  <MODEL>
6

>  <REMARK>
 VINA RESULT:      -5.8      2.594      6.218
  Name = 
  15 active torsions:
  status: ('A' for Active; 'I' for Inactive)
    1  A    between atoms: N_1  and  C_24
    2  A    between atoms: N_1  and  C_29
    3  A    between atoms: C_3  and  C_20
    4  A    between atoms: C_4  and  C_24
    5  A    between atoms: C_4  and  C_27
    6  A    between atoms: N_5  and  C_7
    7  A    between atoms: C_6  and  C_32
    8  A    between atoms: C_7  and  C_23
    9  A    between atoms: N_10  and  C_32
   10  A    between atoms: C_14  and  C_27
   11  A    between atoms: C_16  and  C_29
   12  A    between atoms: C_16  and  C_33
   13  A    between atoms: C_20  and  C_35
   14  A    between atoms: N_22  and  C_31
   15  A    between atoms: C_25  and  N_34
                            x       y       z     vdW  Elec       q    Type
                         _______ _______ _______ _____ _____    ______ ____

>  <TORSDO>
F 15

$$$$
=
 OpenBabel11042413593D

 36 38  0  0  1  0  0  0  0  0999 V2000
  190.0520  173.4740  144.7340 O   0  0  0  0  0  0  0  0  0  0  0  0
  191.4550  174.6950  146.2020 C   0  0  0  0  0  0  0  0  0  0  0  0
  191.2010  173.9440  144.9510 C   0  0  0  0  0  0  0  0  0  0  0  0
  193.5150  174.6310  144.2260 C   0  0  1  0  0  3  0  0  0  0  0  0
  192.3190  173.6910  143.9540 C   0  0  2  0  0  3  0  0  0  0  0  0
  193.8750  174.6300  145.7110 C   0  0  0  0  0  2  0  0  0  0  0  0
  192.6980  175.0510  146.5350 C   0  0  0  0  0  3  0  0  0  0  0  0
  192.5500  172.9500  141.7070 C   0  0  0  0  0  2  0  0  0  0  0  0
  191.2090  172.6180  142.1530 C   0  0  1  0  0  3  0  0  0  0  0  0
  191.8270  173.8860  142.5880 N   0  0  1  0  0  0  0  0  0  0  0  0
  190.2170  172.9100  141.0480 C   0  0  0  0  0  2  0  0  0  0  0  0
  188.8510  172.3880  141.4420 C   0  0  0  0  0  2  0  0  0  0  0  0
  188.0890  173.4520  142.0660 N   0  0  0  0  0  2  0  0  0  0  0  0
  188.4800  174.6880  141.4060 C   0  0  0  0  0  2  0  0  0  0  0  0
  187.7430  175.8810  142.0050 C   0  0  2  0  0  3  0  0  0  0  0  0
  186.6790  175.4390  142.7930 O   0  0  0  0  0  1  0  0  0  0  0  0
  187.2260  176.8230  140.9250 C   0  0  0  0  0  2  0  0  0  0  0  0
  186.2590  178.5780  142.2360 O   0  0  0  0  0  1  0  0  0  0  0  0
  187.3140  178.2740  141.3740 C   0  0  0  0  0  2  0  0  0  0  0  0
  194.7340  174.2090  143.4210 C   0  0  0  0  0  2  0  0  0  0  0  0
  195.4670  175.3850  142.9700 N   0  0  0  0  0  2  0  0  0  0  0  0
  196.7620  175.7750  143.4450 C   0  0  0  0  0  0  0  0  0  0  0  0
  197.1970  176.9150  143.1380 O   0  0  0  0  0  0  0  0  0  0  0  0
  197.5780  174.9220  144.2620 N   0  0  0  0  0  2  0  0  0  0  0  0
  197.3740  173.4940  144.4500 C   0  0  0  0  0  2  0  0  0  0  0  0
  197.1940  173.2050  145.8610 N   0  0  0  0  0  1  0  0  0  0  0  0
  190.3250  175.0940  147.0960 C   0  0  0  0  0  2  0  0  0  0  0  0
  187.2130  177.0090  146.0790 C   0  0  0  0  0  0  0  0  0  0  0  0
  187.7390  177.9120  145.1480 C   0  0  0  0  0  3  0  0  0  0  0  0
  188.0560  176.0850  146.7090 C   0  0  0  0  0  3  0  0  0  0  0  0
  189.9490  176.9840  145.4910 C   0  0  0  0  0  3  0  0  0  0  0  0
  189.1060  177.9010  144.8560 C   0  0  0  0  0  3  0  0  0  0  0  0
  189.4260  176.0740  146.4180 C   0  0  0  0  0  0  0  0  0  0  0  0
  185.7550  177.0060  146.3740 C   0  0  0  0  0  2  0  0  0  0  0  0
  185.3280  178.3430  146.7530 N   0  0  0  0  0  2  0  0  0  0  0  0
  184.0740  178.5920  146.0650 C   0  0  0  0  0  1  0  0  0  0  0  0
  1  3  2  0  0  0  0
  2  7  2  0  0  0  0
  2 27  1  0  0  0  0
  3  2  1  0  0  0  0
  4 20  1  6  0  0  0
  4  6  1  0  0  0  0
  5  4  1  0  0  0  0
  5  3  1  1  0  0  0
  6  7  1  0  0  0  0
  8  9  1  0  0  0  0
  9 11  1  6  0  0  0
  9 10  1  0  0  0  0
 10  8  1  6  0  0  0
 10  5  1  0  0  0  0
 11 12  1  0  0  0  0
 12 13  1  0  0  0  0
 14 15  1  0  0  0  0
 14 13  1  0  0  0  0
 15 16  1  6  0  0  0
 17 19  1  0  0  0  0
 17 15  1  0  0  0  0
 19 18  1  0  0  0  0
 21 20  1  0  0  0  0
 21 22  1  0  0  0  0
 22 24  1  0  0  0  0
 23 22  2  0  0  0  0
 24 25  1  0  0  0  0
 25 26  1  0  0  0  0
 28 34  1  0  0  0  0
 28 30  1  0  0  0  0
 29 28  2  0  0  0  0
 31 33  1  0  0  0  0
 32 29  1  0  0  0  0
 32 31  2  0  0  0  0
 33 30  2  0  0  0  0
 33 27  1  0  0  0  0
 34 35  1  0  0  0  0
 36 35  1  0  0  0  0
M  END
>  <MODEL>
7

>  <REMARK>
 VINA RESULT:      -5.7      2.051      2.981
  Name = 
  15 active torsions:
  status: ('A' for Active; 'I' for Inactive)
    1  A    between atoms: N_1  and  C_24
    2  A    between atoms: N_1  and  C_29
    3  A    between atoms: C_3  and  C_20
    4  A    between atoms: C_4  and  C_24
    5  A    between atoms: C_4  and  C_27
    6  A    between atoms: N_5  and  C_7
    7  A    between atoms: C_6  and  C_32
    8  A    between atoms: C_7  and  C_23
    9  A    between atoms: N_10  and  C_32
   10  A    between atoms: C_14  and  C_27
   11  A    between atoms: C_16  and  C_29
   12  A    between atoms: C_16  and  C_33
   13  A    between atoms: C_20  and  C_35
   14  A    between atoms: N_22  and  C_31
   15  A    between atoms: C_25  and  N_34
                            x       y       z     vdW  Elec       q    Type
                         _______ _______ _______ _____ _____    ______ ____

>  <TORSDO>
F 15

$$$$
=
 OpenBabel11042413593D

 36 38  0  0  1  0  0  0  0  0999 V2000
  191.8500  176.6190  143.7740 O   0  0  0  0  0  0  0  0  0  0  0  0
  189.6130  175.9390  144.1560 C   0  0  0  0  0  0  0  0  0  0  0  0
  190.8890  175.8910  143.4070 C   0  0  0  0  0  0  0  0  0  0  0  0
  189.9050  173.9630  142.1160 C   0  0  1  0  0  3  0  0  0  0  0  0
  191.0370  175.0120  142.1760 C   0  0  2  0  0  3  0  0  0  0  0  0
  188.5470  174.6200  142.3600 C   0  0  0  0  0  2  0  0  0  0  0  0
  188.5310  175.3120  143.6870 C   0  0  0  0  0  3  0  0  0  0  0  0
  192.6770  173.9750  140.8030 C   0  0  0  0  0  2  0  0  0  0  0  0
  193.2690  175.1650  141.3870 C   0  0  1  0  0  3  0  0  0  0  0  0
  192.3420  174.3440  142.1900 N   0  0  1  0  0  0  0  0  0  0  0  0
  194.6880  174.8670  141.8210 C   0  0  0  0  0  2  0  0  0  0  0  0
  195.3940  176.1610  142.1690 C   0  0  0  0  0  2  0  0  0  0  0  0
  196.3620  175.9160  143.2200 N   0  0  0  0  0  2  0  0  0  0  0  0
  195.9240  174.7170  143.9190 C   0  0  0  0  0  2  0  0  0  0  0  0
  195.8000  174.9760  145.4170 C   0  0  2  0  0  3  0  0  0  0  0  0
  196.3710  173.9220  146.1330 O   0  0  0  0  0  1  0  0  0  0  0  0
  194.3490  175.1580  145.8400 C   0  0  0  0  0  2  0  0  0  0  0  0
  194.5740  177.5380  145.7160 O   0  0  0  0  0  1  0  0  0  0  0  0
  194.1420  176.4940  146.5360 C   0  0  0  0  0  2  0  0  0  0  0  0
  189.8810  173.2630  140.7660 C   0  0  0  0  0  2  0  0  0  0  0  0
  188.8040  173.8000  139.9440 N   0  0  0  0  0  2  0  0  0  0  0  0
  188.7180  173.6670  138.5200 C   0  0  0  0  0  0  0  0  0  0  0  0
  187.8590  174.3490  137.9030 O   0  0  0  0  0  0  0  0  0  0  0  0
  189.5760  172.7960  137.7670 N   0  0  0  0  0  2  0  0  0  0  0  0
  190.3930  171.7320  138.3310 C   0  0  0  0  0  2  0  0  0  0  0  0
  189.6890  170.4660  138.2300 N   0  0  0  0  0  1  0  0  0  0  0  0
  189.5200  176.6640  145.4600 C   0  0  0  0  0  2  0  0  0  0  0  0
  186.1260  178.3450  145.2650 C   0  0  0  0  0  0  0  0  0  0  0  0
  185.4580  177.7430  146.3380 C   0  0  0  0  0  3  0  0  0  0  0  0
  187.4530  177.9980  144.9830 C   0  0  0  0  0  3  0  0  0  0  0  0
  187.4340  176.4330  146.8340 C   0  0  0  0  0  3  0  0  0  0  0  0
  186.1120  176.7860  147.1200 C   0  0  0  0  0  3  0  0  0  0  0  0
  188.1070  177.0390  145.7650 C   0  0  0  0  0  0  0  0  0  0  0  0
  185.4380  179.3790  144.4450 C   0  0  0  0  0  2  0  0  0  0  0  0
  185.5370  179.0370  143.0360 N   0  0  0  0  0  2  0  0  0  0  0  0
  184.4090  178.1770  142.7340 C   0  0  0  0  0  1  0  0  0  0  0  0
  2 27  1  0  0  0  0
  3  1  2  0  0  0  0
  3  2  1  0  0  0  0
  4 20  1  6  0  0  0
  4  5  1  0  0  0  0
  4  6  1  0  0  0  0
  5 10  1  0  0  0  0
  5  3  1  1  0  0  0
  6  7  1  0  0  0  0
  7  2  2  0  0  0  0
  8  9  1  0  0  0  0
  9 11  1  1  0  0  0
  9 10  1  0  0  0  0
 10  8  1  6  0  0  0
 11 12  1  0  0  0  0
 12 13  1  0  0  0  0
 13 14  1  0  0  0  0
 14 15  1  0  0  0  0
 15 17  1  0  0  0  0
 15 16  1  1  0  0  0
 17 19  1  0  0  0  0
 18 19  1  0  0  0  0
 21 20  1  0  0  0  0
 22 21  1  0  0  0  0
 23 22  2  0  0  0  0
 24 25  1  0  0  0  0
 24 22  1  0  0  0  0
 26 25  1  0  0  0  0
 27 33  1  0  0  0  0
 28 29  1  0  0  0  0
 29 32  2  0  0  0  0
 30 28  2  0  0  0  0
 30 33  1  0  0  0  0
 31 32  1  0  0  0  0
 33 31  2  0  0  0  0
 34 28  1  0  0  0  0
 35 34  1  0  0  0  0
 36 35  1  0  0  0  0
M  END
>  <MODEL>
8

>  <REMARK>
 VINA RESULT:      -5.7      1.789      6.165
  Name = 
  15 active torsions:
  status: ('A' for Active; 'I' for Inactive)
    1  A    between atoms: N_1  and  C_24
    2  A    between atoms: N_1  and  C_29
    3  A    between atoms: C_3  and  C_20
    4  A    between atoms: C_4  and  C_24
    5  A    between atoms: C_4  and  C_27
    6  A    between atoms: N_5  and  C_7
    7  A    between atoms: C_6  and  C_32
    8  A    between atoms: C_7  and  C_23
    9  A    between atoms: N_10  and  C_32
   10  A    between atoms: C_14  and  C_27
   11  A    between atoms: C_16  and  C_29
   12  A    between atoms: C_16  and  C_33
   13  A    between atoms: C_20  and  C_35
   14  A    between atoms: N_22  and  C_31
   15  A    between atoms: C_25  and  N_34
                            x       y       z     vdW  Elec       q    Type
                         _______ _______ _______ _____ _____    ______ ____

>  <TORSDO>
F 15

$$$$
=
 OpenBabel11042413593D

 36 38  0  0  1  0  0  0  0  0999 V2000
  189.3230  173.8290  146.2100 O   0  0  0  0  0  0  0  0  0  0  0  0
  188.9040  176.1590  146.1090 C   0  0  0  0  0  0  0  0  0  0  0  0
  189.6540  174.9420  145.7210 C   0  0  0  0  0  0  0  0  0  0  0  0
  190.8540  176.3820  144.0360 C   0  0  1  0  0  3  0  0  0  0  0  0
  190.8450  175.0290  144.7810 C   0  0  2  0  0  3  0  0  0  0  0  0
  190.6360  177.5370  145.0130 C   0  0  0  0  0  2  0  0  0  0  0  0
  189.3410  177.3660  145.7440 C   0  0  0  0  0  3  0  0  0  0  0  0
  192.1850  173.6700  143.3640 C   0  0  0  0  0  2  0  0  0  0  0  0
  191.5990  172.8160  144.3810 C   0  0  1  0  0  3  0  0  0  0  0  0
  190.8050  173.9250  143.8180 N   0  0  1  0  0  0  0  0  0  0  0  0
  191.1400  171.5170  143.7550 C   0  0  0  0  0  2  0  0  0  0  0  0
  192.3460  170.6920  143.3570 C   0  0  0  0  0  2  0  0  0  0  0  0
  191.9940  169.8230  142.2500 N   0  0  0  0  0  2  0  0  0  0  0  0
  190.8180  170.4050  141.6220 C   0  0  0  0  0  2  0  0  0  0  0  0
  191.0340  170.5830  140.1230 C   0  0  2  0  0  3  0  0  0  0  0  0
  192.3420  171.0060  139.8760 O   0  0  0  0  0  1  0  0  0  0  0  0
  190.0510  171.5820  139.5270 C   0  0  0  0  0  2  0  0  0  0  0  0
  188.3330  172.8030  140.6620 O   0  0  0  0  0  1  0  0  0  0  0  0
  189.7160  172.6830  140.5210 C   0  0  0  0  0  2  0  0  0  0  0  0
  192.1710  176.5940  143.3060 C   0  0  0  0  0  2  0  0  0  0  0  0
  193.2500  176.7830  144.2670 N   0  0  0  0  0  2  0  0  0  0  0  0
  194.6180  176.4160  144.0440 C   0  0  0  0  0  0  0  0  0  0  0  0
  195.4120  176.4340  145.0200 O   0  0  0  0  0  0  0  0  0  0  0  0
  195.1160  176.0190  142.7580 N   0  0  0  0  0  2  0  0  0  0  0  0
  194.4320  176.2320  141.4920 C   0  0  0  0  0  2  0  0  0  0  0  0
  194.3700  174.9850  140.7510 N   0  0  0  0  0  1  0  0  0  0  0  0
  187.6340  176.0550  146.8900 C   0  0  0  0  0  2  0  0  0  0  0  0
  185.1930  177.9800  144.7170 C   0  0  0  0  0  0  0  0  0  0  0  0
  184.7850  178.9930  145.5920 C   0  0  0  0  0  3  0  0  0  0  0  0
  186.1280  177.0260  145.1380 C   0  0  0  0  0  3  0  0  0  0  0  0
  186.2270  178.0880  147.3150 C   0  0  0  0  0  3  0  0  0  0  0  0
  185.3000  179.0450  146.8910 C   0  0  0  0  0  3  0  0  0  0  0  0
  186.6430  177.0770  146.4390 C   0  0  0  0  0  0  0  0  0  0  0  0
  184.6620  177.9370  143.3280 C   0  0  0  0  0  2  0  0  0  0  0  0
  185.5640  177.1770  142.4790 N   0  0  0  0  0  2  0  0  0  0  0  0
  185.7220  177.9350  141.2520 C   0  0  0  0  0  1  0  0  0  0  0  0
  2 27  1  0  0  0  0
  3  2  1  0  0  0  0
  3  1  2  0  0  0  0
  4 20  1  1  0  0  0
  4  5  1  0  0  0  0
  4  6  1  0  0  0  0
  5  3  1  1  0  0  0
  6  7  1  0  0  0  0
  7  2  2  0  0  0  0
  8  9  1  0  0  0  0
  9 11  1  6  0  0  0
 10  8  1  6  0  0  0
 10  9  1  0  0  0  0
 10  5  1  0  0  0  0
 12 11  1  0  0  0  0
 13 12  1  0  0  0  0
 14 13  1  0  0  0  0
 15 16  1  1  0  0  0
 15 14  1  0  0  0  0
 17 15  1  0  0  0  0
 17 19  1  0  0  0  0
 19 18  1  0  0  0  0
 20 21  1  0  0  0  0
 22 21  1  0  0  0  0
 22 23  2  0  0  0  0
 24 22  1  0  0  0  0
 25 24  1  0  0  0  0
 26 25  1  0  0  0  0
 28 30  2  0  0  0  0
 28 29  1  0  0  0  0
 29 32  2  0  0  0  0
 30 33  1  0  0  0  0
 32 31  1  0  0  0  0
 33 27  1  0  0  0  0
 33 31  2  0  0  0  0
 34 28  1  0  0  0  0
 35 34  1  0  0  0  0
 36 35  1  0  0  0  0
M  END
>  <MODEL>
9

>  <REMARK>
 VINA RESULT:      -5.7      2.012      2.486
  Name = 
  15 active torsions:
  status: ('A' for Active; 'I' for Inactive)
    1  A    between atoms: N_1  and  C_24
    2  A    between atoms: N_1  and  C_29
    3  A    between atoms: C_3  and  C_20
    4  A    between atoms: C_4  and  C_24
    5  A    between atoms: C_4  and  C_27
    6  A    between atoms: N_5  and  C_7
    7  A    between atoms: C_6  and  C_32
    8  A    between atoms: C_7  and  C_23
    9  A    between atoms: N_10  and  C_32
   10  A    between atoms: C_14  and  C_27
   11  A    between atoms: C_16  and  C_29
   12  A    between atoms: C_16  and  C_33
   13  A    between atoms: C_20  and  C_35
   14  A    between atoms: N_22  and  C_31
   15  A    between atoms: C_25  and  N_34
                            x       y       z     vdW  Elec       q    Type
                         _______ _______ _______ _____ _____    ______ ____

>  <TORSDO>
F 15

$$$$
