=
 OpenBabel11042416063D

 34 36  0  0  1  0  0  0  0  0999 V2000
  186.6260  176.7420  144.1090 C   0  0  2  0  0  3  0  0  0  0  0  0
  184.8840  177.9010  145.0470 O   0  0  0  0  0  0  0  0  0  0  0  0
  185.2110  179.9950  144.0580 C   0  0  0  0  0  2  0  0  0  0  0  0
  185.7020  179.0210  141.9660 O   0  0  0  0  0  1  0  0  0  0  0  0
  184.3070  179.1740  144.9280 C   0  0  0  0  0  2  0  0  0  0  0  0
  185.5080  177.6630  143.8560 N   0  0  0  0  0  0  0  0  0  0  0  0
  185.9820  178.9430  143.3310 C   0  0  2  0  0  3  0  0  0  0  0  0
  186.6340  175.5310  143.1730 C   0  0  0  0  0  2  0  0  0  0  0  0
  187.7970  175.6380  142.2060 C   0  0  0  0  0  2  0  0  0  0  0  0
  188.5020  174.3650  142.1440 N   0  0  0  0  0  0  0  0  0  0  0  0
  189.7530  174.5070  142.8760 C   0  0  0  0  0  2  0  0  0  0  0  0
  190.8210  173.4770  144.8160 C   0  0  0  0  0  2  0  0  0  0  0  0
  189.7120  173.6730  144.1110 C   0  0  0  0  0  3  0  0  0  0  0  0
  188.7650  173.9990  140.7440 C   0  0  0  0  0  2  0  0  0  0  0  0
  190.1010  173.2830  140.5230 C   0  0  0  0  0  2  0  0  0  0  0  0
  190.7010  169.7070  141.6910 N   0  0  0  0  0  1  0  0  0  0  0  0
  191.9130  171.6620  141.9950 O   0  0  0  0  0  0  0  0  0  0  0  0
  189.9480  171.8550  140.7480 N   0  0  0  0  0  2  0  0  0  0  0  0
  190.9000  171.1030  141.4990 C   0  0  0  0  0  0  0  0  0  0  0  0
  186.6670  176.3220  145.5760 C   0  0  0  0  0  2  0  0  0  0  0  0
  188.0970  176.3100  146.0930 C   0  0  0  0  0  2  0  0  0  0  0  0
  188.9010  177.4220  145.4390 C   0  0  0  0  0  2  0  0  0  0  0  0
  192.1240  176.1440  147.2080 C   0  0  0  0  0  3  0  0  0  0  0  0
  193.1690  176.2290  146.4190 C   0  0  0  0  0  0  0  0  0  0  0  0
  193.2970  176.7140  145.0330 C   0  0  0  0  0  0  0  0  0  0  0  0
  190.3540  177.1160  145.5180 C   0  0  0  0  0  0  0  0  0  0  0  0
  194.5920  175.9090  146.4950 N   0  0  0  0  0  2  0  0  0  0  0  0
  191.0750  177.3780  144.4040 C   0  0  0  0  0  3  0  0  0  0  0  0
  194.6900  176.4060  145.1640 C   0  0  1  0  0  3  0  0  0  0  0  0
  190.8260  176.5630  146.7690 N   0  0  0  0  0  2  0  0  0  0  0  0
  192.4800  177.1940  144.1650 N   0  0  0  0  0  0  0  0  0  0  0  0
  195.0780  175.2860  144.2070 C   0  0  0  0  0  2  0  0  0  0  0  0
  196.7430  176.8220  143.2950 C   0  0  0  0  0  2  0  0  0  0  0  0
  196.4050  175.5730  143.5910 C   0  0  0  0  0  3  0  0  0  0  0  0
  1  8  1  6  0  0  0
  1 20  1  0  0  0  0
  3  5  1  0  0  0  0
  5  2  1  0  0  0  0
  6  1  1  0  0  0  0
  6  2  1  0  0  0  0
  7  4  1  6  0  0  0
  7  6  1  0  0  0  0
  7  3  1  0  0  0  0
  9  8  1  0  0  0  0
 10  9  1  0  0  0  0
 10 11  1  0  0  0  0
 11 13  1  0  0  0  0
 13 12  2  0  0  0  0
 14 10  1  0  0  0  0
 15 14  1  0  0  0  0
 15 18  1  0  0  0  0
 18 19  1  0  0  0  0
 19 16  1  0  0  0  0
 19 17  2  0  0  0  0
 20 21  1  0  0  0  0
 22 26  1  0  0  0  0
 22 21  1  0  0  0  0
 24 27  1  0  0  0  0
 24 23  2  0  0  0  0
 25 29  1  0  0  0  0
 25 24  1  0  0  0  0
 26 30  1  0  0  0  0
 28 26  2  0  0  0  0
 29 32  1  6  0  0  0
 29 27  1  0  0  0  0
 30 23  1  0  0  0  0
 31 28  1  0  0  0  0
 31 25  2  0  0  0  0
 33 34  2  0  0  0  0
 34 32  1  0  0  0  0
M  END
>  <MODEL>
1

>  <REMARK>
 VINA RESULT:      -5.6      0.000      0.000
  Name = 
  15 active torsions:
  status: ('A' for Active; 'I' for Inactive)
    1  A    between atoms: C_7  and  C_13
    2  A    between atoms: C_7  and  N_33
    3  A    between atoms: C_9  and  C_20
    4  A    between atoms: C_9  and  C_22
    5  A    between atoms: C_10  and  C_24
    6  A    between atoms: C_15  and  C_28
    7  A    between atoms: C_15  and  N_30
    8  A    between atoms: C_16  and  C_18
    9  A    between atoms: C_16  and  C_24
   10  A    between atoms: N_17  and  C_20
   11  A    between atoms: C_18  and  C_20
   12  A    between atoms: C_21  and  C_25
   13  A    between atoms: C_21  and  C_27
   14  A    between atoms: C_22  and  N_33
   15  A    between atoms: C_28  and  N_33
                            x       y       z     vdW  Elec       q    Type
                         _______ _______ _______ _____ _____    ______ ____

>  <TORSDO>
F 15

$$$$
=
 OpenBabel11042416063D

 34 36  0  0  1  0  0  0  0  0999 V2000
  188.4390  177.1430  145.6440 C   0  0  2  0  0  3  0  0  0  0  0  0
  186.2700  177.5060  144.9930 O   0  0  0  0  0  0  0  0  0  0  0  0
  185.2050  177.4330  147.0750 C   0  0  0  0  0  2  0  0  0  0  0  0
  186.9290  178.6820  148.0920 O   0  0  0  0  0  1  0  0  0  0  0  0
  185.0250  177.7010  145.6100 C   0  0  0  0  0  2  0  0  0  0  0  0
  187.2030  177.8960  145.9100 N   0  0  0  0  0  0  0  0  0  0  0  0
  186.6780  177.6030  147.2430 C   0  0  2  0  0  3  0  0  0  0  0  0
  188.8590  177.1720  144.1730 C   0  0  0  0  0  2  0  0  0  0  0  0
  188.8970  175.7600  143.6230 C   0  0  0  0  0  2  0  0  0  0  0  0
  187.9810  175.6470  142.4970 N   0  0  0  0  0  0  0  0  0  0  0  0
  188.2490  174.3830  141.8240 C   0  0  0  0  0  2  0  0  0  0  0  0
  188.8610  172.1920  142.7110 C   0  0  0  0  0  2  0  0  0  0  0  0
  189.0660  173.5040  142.7080 C   0  0  0  0  0  3  0  0  0  0  0  0
  188.1730  176.7740  141.5720 C   0  0  0  0  0  2  0  0  0  0  0  0
  186.9010  177.2050  140.8360 C   0  0  0  0  0  2  0  0  0  0  0  0
  183.5940  178.2600  142.4050 N   0  0  0  0  0  1  0  0  0  0  0  0
  184.4980  178.6240  140.2990 O   0  0  0  0  0  0  0  0  0  0  0  0
  185.8110  177.3870  141.7810 N   0  0  0  0  0  2  0  0  0  0  0  0
  184.6310  178.1130  141.4420 C   0  0  0  0  0  0  0  0  0  0  0  0
  188.3320  175.7140  146.1720 C   0  0  0  0  0  2  0  0  0  0  0  0
  189.4970  175.3920  147.0940 C   0  0  0  0  0  2  0  0  0  0  0  0
  190.5620  176.4720  146.9920 C   0  0  0  0  0  2  0  0  0  0  0  0
  194.4280  176.3970  146.5450 C   0  0  0  0  0  3  0  0  0  0  0  0
  194.8150  175.3180  145.9060 C   0  0  0  0  0  0  0  0  0  0  0  0
  194.0420  174.1890  145.3580 C   0  0  0  0  0  0  0  0  0  0  0  0
  191.8450  175.8840  146.5240 C   0  0  0  0  0  0  0  0  0  0  0  0
  196.0800  174.7350  145.4650 N   0  0  0  0  0  2  0  0  0  0  0  0
  191.7520  174.6980  145.8800 C   0  0  0  0  0  3  0  0  0  0  0  0
  195.3040  173.6690  144.9250 C   0  0  1  0  0  3  0  0  0  0  0  0
  193.0430  176.6400  146.8210 N   0  0  0  0  0  2  0  0  0  0  0  0
  192.7940  173.8830  145.3170 N   0  0  0  0  0  0  0  0  0  0  0  0
  195.6180  172.3660  145.6480 C   0  0  0  0  0  2  0  0  0  0  0  0
  197.7200  171.5270  144.7300 C   0  0  0  0  0  2  0  0  0  0  0  0
  196.3940  171.4580  144.7570 C   0  0  0  0  0  3  0  0  0  0  0  0
  1  8  1  6  0  0  0
  1  6  1  0  0  0  0
  1 20  1  0  0  0  0
  2  5  1  0  0  0  0
  2  6  1  0  0  0  0
  3  7  1  0  0  0  0
  5  3  1  0  0  0  0
  6  7  1  0  0  0  0
  7  4  1  1  0  0  0
  9  8  1  0  0  0  0
 10  9  1  0  0  0  0
 11 10  1  0  0  0  0
 11 13  1  0  0  0  0
 13 12  2  0  0  0  0
 14 10  1  0  0  0  0
 15 14  1  0  0  0  0
 15 18  1  0  0  0  0
 17 19  2  0  0  0  0
 19 18  1  0  0  0  0
 19 16  1  0  0  0  0
 20 21  1  0  0  0  0
 22 21  1  0  0  0  0
 23 30  1  0  0  0  0
 24 23  2  0  0  0  0
 25 24  1  0  0  0  0
 26 30  1  0  0  0  0
 26 22  1  0  0  0  0
 27 24  1  0  0  0  0
 28 26  2  0  0  0  0
 29 25  1  0  0  0  0
 29 27  1  0  0  0  0
 29 32  1  1  0  0  0
 31 25  2  0  0  0  0
 31 28  1  0  0  0  0
 33 34  2  0  0  0  0
 34 32  1  0  0  0  0
M  END
>  <MODEL>
2

>  <REMARK>
 VINA RESULT:      -5.6      2.727      4.396
  Name = 
  15 active torsions:
  status: ('A' for Active; 'I' for Inactive)
    1  A    between atoms: C_7  and  C_13
    2  A    between atoms: C_7  and  N_33
    3  A    between atoms: C_9  and  C_20
    4  A    between atoms: C_9  and  C_22
    5  A    between atoms: C_10  and  C_24
    6  A    between atoms: C_15  and  C_28
    7  A    between atoms: C_15  and  N_30
    8  A    between atoms: C_16  and  C_18
    9  A    between atoms: C_16  and  C_24
   10  A    between atoms: N_17  and  C_20
   11  A    between atoms: C_18  and  C_20
   12  A    between atoms: C_21  and  C_25
   13  A    between atoms: C_21  and  C_27
   14  A    between atoms: C_22  and  N_33
   15  A    between atoms: C_28  and  N_33
                            x       y       z     vdW  Elec       q    Type
                         _______ _______ _______ _____ _____    ______ ____

>  <TORSDO>
F 15

$$$$
=
 OpenBabel11042416063D

 34 36  0  0  1  0  0  0  0  0999 V2000
  194.2800  173.0160  145.0970 C   0  0  2  0  0  3  0  0  0  0  0  0
  195.9890  172.9210  143.5700 O   0  0  0  0  0  0  0  0  0  0  0  0
  197.4960  174.4150  144.5550 C   0  0  0  0  0  2  0  0  0  0  0  0
  197.0630  173.5580  146.7100 O   0  0  0  0  0  1  0  0  0  0  0  0
  197.2890  173.4310  143.4420 C   0  0  0  0  0  2  0  0  0  0  0  0
  195.7340  172.8870  144.9110 N   0  0  0  0  0  0  0  0  0  0  0  0
  196.4510  173.9980  145.5360 C   0  0  2  0  0  3  0  0  0  0  0  0
  193.4670  172.2490  144.0520 C   0  0  0  0  0  2  0  0  0  0  0  0
  192.7610  173.2280  143.1340 C   0  0  0  0  0  2  0  0  0  0  0  0
  191.3660  172.8380  142.9800 N   0  0  0  0  0  0  0  0  0  0  0  0
  191.0340  171.9190  144.0600 C   0  0  0  0  0  2  0  0  0  0  0  0
  189.7060  173.5740  145.2680 C   0  0  0  0  0  2  0  0  0  0  0  0
  189.7790  172.3610  144.7310 C   0  0  0  0  0  3  0  0  0  0  0  0
  191.1610  172.1930  141.6750 C   0  0  0  0  0  2  0  0  0  0  0  0
  190.4270  173.0660  140.6520 C   0  0  0  0  0  2  0  0  0  0  0  0
  187.6110  174.9620  142.3790 N   0  0  0  0  0  1  0  0  0  0  0  0
  187.7160  172.8290  141.4730 O   0  0  0  0  0  0  0  0  0  0  0  0
  189.6680  174.1030  141.3310 N   0  0  0  0  0  2  0  0  0  0  0  0
  188.3060  173.9140  141.7150 C   0  0  0  0  0  0  0  0  0  0  0  0
  193.8670  174.4850  145.1690 C   0  0  0  0  0  2  0  0  0  0  0  0
  192.9730  174.7350  146.3720 C   0  0  0  0  0  2  0  0  0  0  0  0
  192.7930  176.2270  146.5930 C   0  0  0  0  0  2  0  0  0  0  0  0
  190.1330  177.4400  144.0230 C   0  0  0  0  0  3  0  0  0  0  0  0
  188.9540  177.5800  144.5840 C   0  0  0  0  0  0  0  0  0  0  0  0
  188.5120  177.3580  145.9720 C   0  0  0  0  0  0  0  0  0  0  0  0
  191.4290  176.6460  146.1730 C   0  0  0  0  0  0  0  0  0  0  0  0
  187.6120  177.9730  144.1620 N   0  0  0  0  0  2  0  0  0  0  0  0
  190.4820  176.6320  147.1390 C   0  0  0  0  0  3  0  0  0  0  0  0
  187.2190  177.7740  145.5170 C   0  0  1  0  0  3  0  0  0  0  0  0
  191.2680  177.0060  144.7810 N   0  0  0  0  0  2  0  0  0  0  0  0
  189.0890  176.9740  147.0540 N   0  0  0  0  0  0  0  0  0  0  0  0
  186.2260  176.6220  145.6160 C   0  0  0  0  0  2  0  0  0  0  0  0
  184.6240  178.2830  146.4190 C   0  0  0  0  0  2  0  0  0  0  0  0
  185.0530  177.0260  146.4430 C   0  0  0  0  0  3  0  0  0  0  0  0
  1  8  1  6  0  0  0
  1 20  1  0  0  0  0
  2  6  1  0  0  0  0
  3  7  1  0  0  0  0
  5  2  1  0  0  0  0
  5  3  1  0  0  0  0
  6  1  1  0  0  0  0
  6  7  1  0  0  0  0
  7  4  1  1  0  0  0
  9  8  1  0  0  0  0
 10  9  1  0  0  0  0
 10 11  1  0  0  0  0
 11 13  1  0  0  0  0
 13 12  2  0  0  0  0
 14 10  1  0  0  0  0
 15 18  1  0  0  0  0
 15 14  1  0  0  0  0
 17 19  2  0  0  0  0
 18 19  1  0  0  0  0
 19 16  1  0  0  0  0
 20 21  1  0  0  0  0
 21 22  1  0  0  0  0
 23 24  2  0  0  0  0
 23 30  1  0  0  0  0
 24 25  1  0  0  0  0
 25 31  2  0  0  0  0
 26 22  1  0  0  0  0
 26 28  2  0  0  0  0
 27 24  1  0  0  0  0
 27 29  1  0  0  0  0
 29 32  1  6  0  0  0
 29 25  1  0  0  0  0
 30 26  1  0  0  0  0
 31 28  1  0  0  0  0
 32 34  1  0  0  0  0
 33 34  2  0  0  0  0
M  END
>  <MODEL>
3

>  <REMARK>
 VINA RESULT:      -5.6      2.540      7.579
  Name = 
  15 active torsions:
  status: ('A' for Active; 'I' for Inactive)
    1  A    between atoms: C_7  and  C_13
    2  A    between atoms: C_7  and  N_33
    3  A    between atoms: C_9  and  C_20
    4  A    between atoms: C_9  and  C_22
    5  A    between atoms: C_10  and  C_24
    6  A    between atoms: C_15  and  C_28
    7  A    between atoms: C_15  and  N_30
    8  A    between atoms: C_16  and  C_18
    9  A    between atoms: C_16  and  C_24
   10  A    between atoms: N_17  and  C_20
   11  A    between atoms: C_18  and  C_20
   12  A    between atoms: C_21  and  C_25
   13  A    between atoms: C_21  and  C_27
   14  A    between atoms: C_22  and  N_33
   15  A    between atoms: C_28  and  N_33
                            x       y       z     vdW  Elec       q    Type
                         _______ _______ _______ _____ _____    ______ ____

>  <TORSDO>
F 15

$$$$
=
 OpenBabel11042416063D

 34 36  0  0  1  0  0  0  0  0999 V2000
  188.5620  177.1370  145.6040 C   0  0  2  0  0  3  0  0  0  0  0  0
  187.6090  178.1140  147.4470 O   0  0  0  0  0  0  0  0  0  0  0  0
  185.5140  178.6750  146.5710 C   0  0  0  0  0  2  0  0  0  0  0  0
  185.3470  176.6150  145.4340 O   0  0  0  0  0  1  0  0  0  0  0  0
  186.3580  178.6340  147.8100 C   0  0  0  0  0  2  0  0  0  0  0  0
  187.3620  177.2130  146.4510 N   0  0  0  0  0  0  0  0  0  0  0  0
  186.2040  177.6850  145.6920 C   0  0  2  0  0  3  0  0  0  0  0  0
  188.3830  177.8120  144.2420 C   0  0  0  0  0  2  0  0  0  0  0  0
  189.2100  177.0860  143.1990 C   0  0  0  0  0  2  0  0  0  0  0  0
  188.4260  176.9150  141.9830 N   0  0  0  0  0  0  0  0  0  0  0  0
  187.4100  177.9570  141.9530 C   0  0  0  0  0  2  0  0  0  0  0  0
  184.9730  178.0060  142.1080 C   0  0  0  0  0  2  0  0  0  0  0  0
  186.0670  177.3460  141.7420 C   0  0  0  0  0  3  0  0  0  0  0  0
  187.7990  175.5850  141.9670 C   0  0  0  0  0  2  0  0  0  0  0  0
  188.5140  174.5650  141.0750 C   0  0  0  0  0  2  0  0  0  0  0  0
  190.7230  172.2980  143.1960 N   0  0  0  0  0  1  0  0  0  0  0  0
  188.4770  172.1820  142.6240 O   0  0  0  0  0  0  0  0  0  0  0  0
  189.6610  174.0060  141.7730 N   0  0  0  0  0  2  0  0  0  0  0  0
  189.5690  172.8020  142.5340 C   0  0  0  0  0  0  0  0  0  0  0  0
  189.0400  175.6940  145.4610 C   0  0  0  0  0  2  0  0  0  0  0  0
  190.0060  175.3330  146.5770 C   0  0  0  0  0  2  0  0  0  0  0  0
  191.0980  176.3850  146.6880 C   0  0  0  0  0  2  0  0  0  0  0  0
  194.7400  176.6560  145.3420 C   0  0  0  0  0  3  0  0  0  0  0  0
  195.2670  175.4710  145.1450 C   0  0  0  0  0  0  0  0  0  0  0  0
  194.7120  174.1200  145.3470 C   0  0  0  0  0  0  0  0  0  0  0  0
  192.3910  175.8340  146.2020 C   0  0  0  0  0  0  0  0  0  0  0  0
  196.5460  174.9350  144.6860 N   0  0  0  0  0  2  0  0  0  0  0  0
  192.4850  174.4850  146.1710 C   0  0  0  0  0  3  0  0  0  0  0  0
  195.9750  173.6430  144.8680 C   0  0  1  0  0  3  0  0  0  0  0  0
  193.4020  176.8010  145.8320 N   0  0  0  0  0  2  0  0  0  0  0  0
  193.5860  173.6580  145.7610 N   0  0  0  0  0  0  0  0  0  0  0  0
  196.7090  172.8890  145.9700 C   0  0  0  0  0  2  0  0  0  0  0  0
  196.5930  170.9860  144.4420 C   0  0  0  0  0  2  0  0  0  0  0  0
  197.2150  171.5850  145.4510 C   0  0  0  0  0  3  0  0  0  0  0  0
  1  8  1  6  0  0  0
  1  6  1  0  0  0  0
  2  5  1  0  0  0  0
  3  5  1  0  0  0  0
  6  2  1  0  0  0  0
  7  4  1  1  0  0  0
  7  6  1  0  0  0  0
  7  3  1  0  0  0  0
  9  8  1  0  0  0  0
 10  9  1  0  0  0  0
 11 10  1  0  0  0  0
 13 11  1  0  0  0  0
 13 12  2  0  0  0  0
 14 10  1  0  0  0  0
 15 18  1  0  0  0  0
 15 14  1  0  0  0  0
 18 19  1  0  0  0  0
 19 17  2  0  0  0  0
 19 16  1  0  0  0  0
 20  1  1  0  0  0  0
 20 21  1  0  0  0  0
 21 22  1  0  0  0  0
 23 30  1  0  0  0  0
 24 23  2  0  0  0  0
 24 25  1  0  0  0  0
 25 31  2  0  0  0  0
 26 22  1  0  0  0  0
 27 29  1  0  0  0  0
 27 24  1  0  0  0  0
 28 26  2  0  0  0  0
 29 25  1  0  0  0  0
 29 32  1  1  0  0  0
 30 26  1  0  0  0  0
 31 28  1  0  0  0  0
 33 34  2  0  0  0  0
 34 32  1  0  0  0  0
M  END
>  <MODEL>
4

>  <REMARK>
 VINA RESULT:      -5.4      2.321      3.532
  Name = 
  15 active torsions:
  status: ('A' for Active; 'I' for Inactive)
    1  A    between atoms: C_7  and  C_13
    2  A    between atoms: C_7  and  N_33
    3  A    between atoms: C_9  and  C_20
    4  A    between atoms: C_9  and  C_22
    5  A    between atoms: C_10  and  C_24
    6  A    between atoms: C_15  and  C_28
    7  A    between atoms: C_15  and  N_30
    8  A    between atoms: C_16  and  C_18
    9  A    between atoms: C_16  and  C_24
   10  A    between atoms: N_17  and  C_20
   11  A    between atoms: C_18  and  C_20
   12  A    between atoms: C_21  and  C_25
   13  A    between atoms: C_21  and  C_27
   14  A    between atoms: C_22  and  N_33
   15  A    between atoms: C_28  and  N_33
                            x       y       z     vdW  Elec       q    Type
                         _______ _______ _______ _____ _____    ______ ____

>  <TORSDO>
F 15

$$$$
=
 OpenBabel11042416063D

 34 36  0  0  1  0  0  0  0  0999 V2000
  192.9600  175.0060  145.1650 C   0  0  2  0  0  3  0  0  0  0  0  0
  195.1440  174.3870  144.8380 O   0  0  0  0  0  0  0  0  0  0  0  0
  196.0170  176.3980  144.0230 C   0  0  0  0  0  2  0  0  0  0  0  0
  194.8020  177.6610  145.6030 O   0  0  0  0  0  1  0  0  0  0  0  0
  196.3470  175.0040  144.4640 C   0  0  0  0  0  2  0  0  0  0  0  0
  194.3680  175.3790  145.3670 N   0  0  0  0  0  0  0  0  0  0  0  0
  194.6930  176.6250  144.6750 C   0  0  2  0  0  3  0  0  0  0  0  0
  192.3670  175.5650  143.8690 C   0  0  0  0  0  2  0  0  0  0  0  0
  192.2500  174.4580  142.8400 C   0  0  0  0  0  2  0  0  0  0  0  0
  190.9230  173.8620  142.9090 N   0  0  0  0  0  0  0  0  0  0  0  0
  191.0540  172.5380  143.5010 C   0  0  0  0  0  2  0  0  0  0  0  0
  189.6060  172.7740  145.4530 C   0  0  0  0  0  2  0  0  0  0  0  0
  189.8220  172.2060  144.2720 C   0  0  0  0  0  3  0  0  0  0  0  0
  190.3380  173.7690  141.5630 C   0  0  0  0  0  2  0  0  0  0  0  0
  189.0020  174.5000  141.4070 C   0  0  0  0  0  2  0  0  0  0  0  0
  188.3300  178.2160  141.9050 N   0  0  0  0  0  1  0  0  0  0  0  0
  187.0860  176.5370  140.8980 O   0  0  0  0  0  0  0  0  0  0  0  0
  189.1450  175.8950  141.7930 N   0  0  0  0  0  2  0  0  0  0  0  0
  188.1390  176.8650  141.5030 C   0  0  0  0  0  0  0  0  0  0  0  0
  192.1150  175.3810  146.3800 C   0  0  0  0  0  2  0  0  0  0  0  0
  190.9120  176.2120  145.9650 C   0  0  0  0  0  2  0  0  0  0  0  0
  189.8840  176.2450  147.0830 C   0  0  0  0  0  2  0  0  0  0  0  0
  186.6300  178.3770  147.2190 C   0  0  0  0  0  3  0  0  0  0  0  0
  185.8830  178.1800  146.1590 C   0  0  0  0  0  0  0  0  0  0  0  0
  186.0830  177.3130  144.9830 C   0  0  0  0  0  0  0  0  0  0  0  0
  188.5780  176.7310  146.5630 C   0  0  0  0  0  0  0  0  0  0  0  0
  184.6090  178.6750  145.6430 N   0  0  0  0  0  2  0  0  0  0  0  0
  188.1930  176.2280  145.3680 C   0  0  0  0  0  3  0  0  0  0  0  0
  184.8180  177.8090  144.5310 C   0  0  1  0  0  3  0  0  0  0  0  0
  187.8770  177.6930  147.3870 N   0  0  0  0  0  2  0  0  0  0  0  0
  187.0020  176.4960  144.6080 N   0  0  0  0  0  0  0  0  0  0  0  0
  184.9920  178.6210  143.2540 C   0  0  0  0  0  2  0  0  0  0  0  0
  184.2560  178.3750  140.9380 C   0  0  0  0  0  2  0  0  0  0  0  0
  184.0040  178.1820  142.2270 C   0  0  0  0  0  3  0  0  0  0  0  0
  1  8  1  6  0  0  0
  1  6  1  0  0  0  0
  1 20  1  0  0  0  0
  2  6  1  0  0  0  0
  3  5  1  0  0  0  0
  3  7  1  0  0  0  0
  5  2  1  0  0  0  0
  7  6  1  0  0  0  0
  7  4  1  1  0  0  0
  9 10  1  0  0  0  0
  9  8  1  0  0  0  0
 10 11  1  0  0  0  0
 11 13  1  0  0  0  0
 13 12  2  0  0  0  0
 14 10  1  0  0  0  0
 15 14  1  0  0  0  0
 15 18  1  0  0  0  0
 17 19  2  0  0  0  0
 19 18  1  0  0  0  0
 19 16  1  0  0  0  0
 21 20  1  0  0  0  0
 21 22  1  0  0  0  0
 23 30  1  0  0  0  0
 24 23  2  0  0  0  0
 25 24  1  0  0  0  0
 26 22  1  0  0  0  0
 26 30  1  0  0  0  0
 27 24  1  0  0  0  0
 28 26  2  0  0  0  0
 29 32  1  6  0  0  0
 29 25  1  0  0  0  0
 29 27  1  0  0  0  0
 31 25  2  0  0  0  0
 31 28  1  0  0  0  0
 33 34  2  0  0  0  0
 34 32  1  0  0  0  0
M  END
>  <MODEL>
5

>  <REMARK>
 VINA RESULT:      -5.4      2.426      7.432
  Name = 
  15 active torsions:
  status: ('A' for Active; 'I' for Inactive)
    1  A    between atoms: C_7  and  C_13
    2  A    between atoms: C_7  and  N_33
    3  A    between atoms: C_9  and  C_20
    4  A    between atoms: C_9  and  C_22
    5  A    between atoms: C_10  and  C_24
    6  A    between atoms: C_15  and  C_28
    7  A    between atoms: C_15  and  N_30
    8  A    between atoms: C_16  and  C_18
    9  A    between atoms: C_16  and  C_24
   10  A    between atoms: N_17  and  C_20
   11  A    between atoms: C_18  and  C_20
   12  A    between atoms: C_21  and  C_25
   13  A    between atoms: C_21  and  C_27
   14  A    between atoms: C_22  and  N_33
   15  A    between atoms: C_28  and  N_33
                            x       y       z     vdW  Elec       q    Type
                         _______ _______ _______ _____ _____    ______ ____

>  <TORSDO>
F 15

$$$$
=
 OpenBabel11042416063D

 34 36  0  0  1  0  0  0  0  0999 V2000
  187.0370  176.7190  144.0890 C   0  0  2  0  0  3  0  0  0  0  0  0
  185.5620  177.4480  145.6880 O   0  0  0  0  0  0  0  0  0  0  0  0
  184.4650  179.1300  144.4890 C   0  0  0  0  0  2  0  0  0  0  0  0
  184.3760  177.7990  142.5440 O   0  0  0  0  0  1  0  0  0  0  0  0
  184.4950  178.3540  145.7720 C   0  0  0  0  0  2  0  0  0  0  0  0
  185.6420  177.0890  144.3730 N   0  0  0  0  0  0  0  0  0  0  0  0
  185.2210  178.2340  143.5650 C   0  0  2  0  0  3  0  0  0  0  0  0
  187.9860  177.0050  145.2560 C   0  0  0  0  0  2  0  0  0  0  0  0
  188.8880  175.8070  145.4860 C   0  0  0  0  0  2  0  0  0  0  0  0
  190.2820  176.2160  145.3830 N   0  0  0  0  0  0  0  0  0  0  0  0
  190.8180  175.6780  144.1410 C   0  0  0  0  0  2  0  0  0  0  0  0
  191.1770  178.0430  143.6450 C   0  0  0  0  0  2  0  0  0  0  0  0
  191.1240  176.7930  143.1990 C   0  0  0  0  0  3  0  0  0  0  0  0
  191.0450  175.7110  146.5340 C   0  0  0  0  0  2  0  0  0  0  0  0
  192.3250  176.4980  146.8330 C   0  0  0  0  0  2  0  0  0  0  0  0
  195.5790  174.9640  145.5830 N   0  0  0  0  0  1  0  0  0  0  0  0
  194.3340  176.7770  144.8420 O   0  0  0  0  0  0  0  0  0  0  0  0
  193.4880  175.6370  146.6970 N   0  0  0  0  0  2  0  0  0  0  0  0
  194.4590  175.8360  145.6700 C   0  0  0  0  0  0  0  0  0  0  0  0
  187.5220  177.3680  142.7950 C   0  0  0  0  0  2  0  0  0  0  0  0
  187.7660  176.3160  141.7240 C   0  0  0  0  0  2  0  0  0  0  0  0
  187.4940  174.9280  142.2790 C   0  0  0  0  0  2  0  0  0  0  0  0
  189.9170  171.8870  142.0940 C   0  0  0  0  0  3  0  0  0  0  0  0
  190.2050  171.5800  140.8510 C   0  0  0  0  0  0  0  0  0  0  0  0
  189.7700  172.1860  139.5800 C   0  0  0  0  0  0  0  0  0  0  0  0
  188.3280  173.9210  141.5700 C   0  0  0  0  0  0  0  0  0  0  0  0
  191.0100  170.5760  140.1600 N   0  0  0  0  0  2  0  0  0  0  0  0
  188.3160  173.9880  140.2200 C   0  0  0  0  0  3  0  0  0  0  0  0
  190.5920  171.1970  138.9480 C   0  0  1  0  0  3  0  0  0  0  0  0
  189.0430  172.9800  142.4050 N   0  0  0  0  0  2  0  0  0  0  0  0
  189.0040  173.1670  139.2610 N   0  0  0  0  0  0  0  0  0  0  0  0
  189.7360  170.2400  138.1290 C   0  0  0  0  0  2  0  0  0  0  0  0
  189.6130  171.2200  135.8960 C   0  0  0  0  0  2  0  0  0  0  0  0
  190.1330  170.2950  136.6930 C   0  0  0  0  0  3  0  0  0  0  0  0
  1 20  1  6  0  0  0
  1  6  1  0  0  0  0
  1  8  1  0  0  0  0
  2  5  1  0  0  0  0
  3  5  1  0  0  0  0
  6  2  1  0  0  0  0
  7  4  1  6  0  0  0
  7  6  1  0  0  0  0
  7  3  1  0  0  0  0
  8  9  1  0  0  0  0
 10  9  1  0  0  0  0
 10 14  1  0  0  0  0
 11 10  1  0  0  0  0
 13 12  2  0  0  0  0
 13 11  1  0  0  0  0
 14 15  1  0  0  0  0
 16 19  1  0  0  0  0
 17 19  2  0  0  0  0
 18 15  1  0  0  0  0
 19 18  1  0  0  0  0
 21 22  1  0  0  0  0
 21 20  1  0  0  0  0
 23 30  1  0  0  0  0
 24 23  2  0  0  0  0
 25 24  1  0  0  0  0
 26 22  1  0  0  0  0
 26 30  1  0  0  0  0
 27 24  1  0  0  0  0
 28 26  2  0  0  0  0
 29 32  1  6  0  0  0
 29 25  1  0  0  0  0
 29 27  1  0  0  0  0
 31 25  2  0  0  0  0
 31 28  1  0  0  0  0
 33 34  2  0  0  0  0
 34 32  1  0  0  0  0
M  END
>  <MODEL>
6

>  <REMARK>
 VINA RESULT:      -5.4      2.144      6.147
  Name = 
  15 active torsions:
  status: ('A' for Active; 'I' for Inactive)
    1  A    between atoms: C_7  and  C_13
    2  A    between atoms: C_7  and  N_33
    3  A    between atoms: C_9  and  C_20
    4  A    between atoms: C_9  and  C_22
    5  A    between atoms: C_10  and  C_24
    6  A    between atoms: C_15  and  C_28
    7  A    between atoms: C_15  and  N_30
    8  A    between atoms: C_16  and  C_18
    9  A    between atoms: C_16  and  C_24
   10  A    between atoms: N_17  and  C_20
   11  A    between atoms: C_18  and  C_20
   12  A    between atoms: C_21  and  C_25
   13  A    between atoms: C_21  and  C_27
   14  A    between atoms: C_22  and  N_33
   15  A    between atoms: C_28  and  N_33
                            x       y       z     vdW  Elec       q    Type
                         _______ _______ _______ _____ _____    ______ ____

>  <TORSDO>
F 15

$$$$
=
 OpenBabel11042416063D

 34 36  0  0  1  0  0  0  0  0999 V2000
  190.5420  173.3330  140.9200 C   0  0  2  0  0  3  0  0  0  0  0  0
  190.6580  171.4610  139.6010 O   0  0  0  0  0  0  0  0  0  0  0  0
  190.8440  172.4600  137.4950 C   0  0  0  0  0  2  0  0  0  0  0  0
  192.3450  174.0880  138.3090 O   0  0  0  0  0  1  0  0  0  0  0  0
  190.8670  171.1630  138.2470 C   0  0  0  0  0  2  0  0  0  0  0  0
  191.2460  172.6750  139.8090 N   0  0  0  0  0  0  0  0  0  0  0  0
  191.1330  173.4500  138.5740 C   0  0  2  0  0  3  0  0  0  0  0  0
  191.3690  173.3980  142.2070 C   0  0  0  0  0  2  0  0  0  0  0  0
  191.9810  174.7770  142.3530 C   0  0  0  0  0  2  0  0  0  0  0  0
  191.4260  175.4380  143.5260 N   0  0  0  0  0  0  0  0  0  0  0  0
  192.2640  176.5890  143.8330 C   0  0  0  0  0  2  0  0  0  0  0  0
  190.3300  178.0510  143.5400 C   0  0  0  0  0  2  0  0  0  0  0  0
  191.6220  177.8320  143.3200 C   0  0  0  0  0  3  0  0  0  0  0  0
  191.3920  174.5080  144.6640 C   0  0  0  0  0  2  0  0  0  0  0  0
  190.3690  174.8750  145.7440 C   0  0  0  0  0  2  0  0  0  0  0  0
  191.3900  177.1790  148.6010 N   0  0  0  0  0  1  0  0  0  0  0  0
  189.7850  177.3870  146.9380 O   0  0  0  0  0  0  0  0  0  0  0  0
  191.0450  175.4210  146.9100 N   0  0  0  0  0  2  0  0  0  0  0  0
  190.6980  176.6930  147.4570 C   0  0  0  0  0  0  0  0  0  0  0  0
  189.1770  172.6910  141.1580 C   0  0  0  0  0  2  0  0  0  0  0  0
  188.2260  173.6770  141.8180 C   0  0  0  0  0  2  0  0  0  0  0  0
  188.2490  175.0050  141.0790 C   0  0  0  0  0  2  0  0  0  0  0  0
  186.4720  178.4210  141.6460 C   0  0  0  0  0  3  0  0  0  0  0  0
  186.2020  178.6150  142.9160 C   0  0  2  0  0  3  0  0  0  0  0  0
  186.4590  177.7740  144.0980 C   0  0  0  0  0  0  0  0  0  0  0  0
  187.6160  176.0640  141.9100 C   0  0  0  0  0  0  0  0  0  0  0  0
  185.5610  179.6500  143.7240 N   0  0  0  0  0  2  0  0  0  0  0  0
  187.5520  175.8150  143.2380 C   0  0  0  0  0  3  0  0  0  0  0  0
  185.8450  178.8260  144.8520 C   0  0  1  0  0  3  0  0  0  0  0  0
  187.1310  177.2290  141.2020 N   0  0  0  0  0  0  0  0  0  0  0  0
  187.0060  176.6270  144.2900 N   0  0  0  0  0  0  0  0  0  0  0  0
  184.5510  178.3370  145.4890 C   0  0  0  0  0  2  0  0  0  0  0  0
  185.7640  178.8530  147.5460 C   0  0  0  0  0  2  0  0  0  0  0  0
  184.6360  178.4460  146.9740 C   0  0  0  0  0  3  0  0  0  0  0  0
  1 20  1  1  0  0  0
  1  8  1  0  0  0  0
  2  6  1  0  0  0  0
  3  5  1  0  0  0  0
  3  7  1  0  0  0  0
  5  2  1  0  0  0  0
  6  1  1  0  0  0  0
  7  4  1  6  0  0  0
  7  6  1  0  0  0  0
  8  9  1  0  0  0  0
  9 10  1  0  0  0  0
 10 11  1  0  0  0  0
 10 14  1  0  0  0  0
 13 12  2  0  0  0  0
 13 11  1  0  0  0  0
 14 15  1  0  0  0  0
 15 18  1  0  0  0  0
 17 19  2  0  0  0  0
 18 19  1  0  0  0  0
 19 16  1  0  0  0  0
 20 21  1  0  0  0  0
 22 21  1  0  0  0  0
 22 26  1  0  0  0  0
 24 23  1  6  0  0  0
 24 27  1  0  0  0  0
 24 25  1  0  0  0  0
 25 31  2  0  0  0  0
 25 29  1  0  0  0  0
 26 28  2  0  0  0  0
 27 29  1  0  0  0  0
 28 31  1  0  0  0  0
 29 32  1  6  0  0  0
 30 23  2  0  0  0  0
 30 26  1  0  0  0  0
 32 34  1  0  0  0  0
 34 33  2  0  0  0  0
M  END
>  <MODEL>
7

>  <REMARK>
 VINA RESULT:      -5.4      2.674      7.873
  Name = 
  15 active torsions:
  status: ('A' for Active; 'I' for Inactive)
    1  A    between atoms: C_7  and  C_13
    2  A    between atoms: C_7  and  N_33
    3  A    between atoms: C_9  and  C_20
    4  A    between atoms: C_9  and  C_22
    5  A    between atoms: C_10  and  C_24
    6  A    between atoms: C_15  and  C_28
    7  A    between atoms: C_15  and  N_30
    8  A    between atoms: C_16  and  C_18
    9  A    between atoms: C_16  and  C_24
   10  A    between atoms: N_17  and  C_20
   11  A    between atoms: C_18  and  C_20
   12  A    between atoms: C_21  and  C_25
   13  A    between atoms: C_21  and  C_27
   14  A    between atoms: C_22  and  N_33
   15  A    between atoms: C_28  and  N_33
                            x       y       z     vdW  Elec       q    Type
                         _______ _______ _______ _____ _____    ______ ____

>  <TORSDO>
F 15

$$$$
=
 OpenBabel11042416063D

 34 36  0  0  1  0  0  0  0  0999 V2000
  194.6810  175.1800  144.6300 C   0  0  2  0  0  3  0  0  0  0  0  0
  196.8040  174.4530  144.1550 O   0  0  0  0  0  0  0  0  0  0  0  0
  197.1240  172.9560  145.9240 C   0  0  0  0  0  2  0  0  0  0  0  0
  194.9290  172.1160  145.7170 O   0  0  0  0  0  1  0  0  0  0  0  0
  197.7030  173.4980  144.6520 C   0  0  0  0  0  2  0  0  0  0  0  0
  195.5600  174.0080  144.5040 N   0  0  0  0  0  0  0  0  0  0  0  0
  195.6770  173.2920  145.7740 C   0  0  2  0  0  3  0  0  0  0  0  0
  194.8630  176.1960  143.4990 C   0  0  0  0  0  2  0  0  0  0  0  0
  193.7290  176.0590  142.5010 C   0  0  0  0  0  2  0  0  0  0  0  0
  193.9580  174.8950  141.6560 N   0  0  0  0  0  0  0  0  0  0  0  0
  194.8630  175.2880  140.5850 C   0  0  0  0  0  2  0  0  0  0  0  0
  195.0010  175.0360  138.1590 C   0  0  0  0  0  2  0  0  0  0  0  0
  194.2790  174.9070  139.2670 C   0  0  0  0  0  3  0  0  0  0  0  0
  192.6840  174.4120  141.1020 C   0  0  0  0  0  2  0  0  0  0  0  0
  191.6310  174.0670  142.1600 C   0  0  0  0  0  2  0  0  0  0  0  0
  187.8750  174.6790  142.0010 N   0  0  0  0  0  1  0  0  0  0  0  0
  189.2150  173.6680  143.6030 O   0  0  0  0  0  0  0  0  0  0  0  0
  190.3130  174.4830  141.7090 N   0  0  0  0  0  2  0  0  0  0  0  0
  189.1400  174.2490  142.4890 C   0  0  0  0  0  0  0  0  0  0  0  0
  194.8310  175.8320  146.0030 C   0  0  0  0  0  2  0  0  0  0  0  0
  193.4730  176.2170  146.5670 C   0  0  0  0  0  2  0  0  0  0  0  0
  192.4140  175.2280  146.1110 C   0  0  0  0  0  2  0  0  0  0  0  0
  189.9660  177.4290  144.0340 C   0  0  0  0  0  3  0  0  0  0  0  0
  188.8220  177.5900  144.6550 C   0  0  2  0  0  3  0  0  0  0  0  0
  188.3500  177.0870  145.9580 C   0  0  0  0  0  0  0  0  0  0  0  0
  191.1280  175.9320  145.8630 C   0  0  0  0  0  0  0  0  0  0  0  0
  187.5540  178.2670  144.3970 N   0  0  0  0  0  2  0  0  0  0  0  0
  190.1890  175.8090  146.8290 C   0  0  0  0  0  3  0  0  0  0  0  0
  187.1340  177.7870  145.6720 C   0  0  1  0  0  3  0  0  0  0  0  0
  191.0240  176.6560  144.6140 N   0  0  0  0  0  0  0  0  0  0  0  0
  188.8630  176.3600  146.8860 N   0  0  0  0  0  0  0  0  0  0  0  0
  185.9810  176.8050  145.5140 C   0  0  0  0  0  2  0  0  0  0  0  0
  184.2550  178.3280  146.3320 C   0  0  0  0  0  2  0  0  0  0  0  0
  184.8730  177.1590  146.4480 C   0  0  0  0  0  3  0  0  0  0  0  0
  1  8  1  6  0  0  0
  1 20  1  0  0  0  0
  2  6  1  0  0  0  0
  2  5  1  0  0  0  0
  5  3  1  0  0  0  0
  6  1  1  0  0  0  0
  6  7  1  0  0  0  0
  7  4  1  6  0  0  0
  7  3  1  0  0  0  0
  9  8  1  0  0  0  0
 10  9  1  0  0  0  0
 11 10  1  0  0  0  0
 12 13  2  0  0  0  0
 13 11  1  0  0  0  0
 14 10  1  0  0  0  0
 14 15  1  0  0  0  0
 16 19  1  0  0  0  0
 18 15  1  0  0  0  0
 18 19  1  0  0  0  0
 19 17  2  0  0  0  0
 20 21  1  0  0  0  0
 22 21  1  0  0  0  0
 23 30  2  0  0  0  0
 24 23  1  6  0  0  0
 24 25  1  0  0  0  0
 25 31  2  0  0  0  0
 26 22  1  0  0  0  0
 26 28  2  0  0  0  0
 27 24  1  0  0  0  0
 27 29  1  0  0  0  0
 28 31  1  0  0  0  0
 29 32  1  6  0  0  0
 29 25  1  0  0  0  0
 30 26  1  0  0  0  0
 32 34  1  0  0  0  0
 33 34  2  0  0  0  0
M  END
>  <MODEL>
8

>  <REMARK>
 VINA RESULT:      -5.3      2.680      7.900
  Name = 
  15 active torsions:
  status: ('A' for Active; 'I' for Inactive)
    1  A    between atoms: C_7  and  C_13
    2  A    between atoms: C_7  and  N_33
    3  A    between atoms: C_9  and  C_20
    4  A    between atoms: C_9  and  C_22
    5  A    between atoms: C_10  and  C_24
    6  A    between atoms: C_15  and  C_28
    7  A    between atoms: C_15  and  N_30
    8  A    between atoms: C_16  and  C_18
    9  A    between atoms: C_16  and  C_24
   10  A    between atoms: N_17  and  C_20
   11  A    between atoms: C_18  and  C_20
   12  A    between atoms: C_21  and  C_25
   13  A    between atoms: C_21  and  C_27
   14  A    between atoms: C_22  and  N_33
   15  A    between atoms: C_28  and  N_33
                            x       y       z     vdW  Elec       q    Type
                         _______ _______ _______ _____ _____    ______ ____

>  <TORSDO>
F 15

$$$$
=
 OpenBabel11042416063D

 34 36  0  0  1  0  0  0  0  0999 V2000
  190.1570  173.1380  141.3810 C   0  0  2  0  0  3  0  0  0  0  0  0
  190.6280  173.0900  139.1370 O   0  0  0  0  0  0  0  0  0  0  0  0
  192.0920  171.2670  139.0690 C   0  0  0  0  0  2  0  0  0  0  0  0
  190.7590  170.0360  140.5760 O   0  0  0  0  0  1  0  0  0  0  0  0
  191.3370  172.2690  138.2480 C   0  0  0  0  0  2  0  0  0  0  0  0
  190.2830  172.2880  140.1870 N   0  0  0  0  0  0  0  0  0  0  0  0
  191.3350  171.2870  140.3560 C   0  0  2  0  0  3  0  0  0  0  0  0
  191.4290  173.1760  142.2320 C   0  0  0  0  0  2  0  0  0  0  0  0
  191.0630  173.1010  143.7020 C   0  0  0  0  0  2  0  0  0  0  0  0
  191.9950  173.9040  144.4810 N   0  0  0  0  0  0  0  0  0  0  0  0
  191.2180  174.7920  145.3350 C   0  0  0  0  0  2  0  0  0  0  0  0
  189.2520  174.5670  146.7660 C   0  0  0  0  0  2  0  0  0  0  0  0
  189.9340  174.1340  145.7120 C   0  0  0  0  0  3  0  0  0  0  0  0
  192.8640  174.6830  143.5860 C   0  0  0  0  0  2  0  0  0  0  0  0
  194.3620  174.4680  143.8240 C   0  0  0  0  0  2  0  0  0  0  0  0
  197.1770  176.9640  143.2260 N   0  0  0  0  0  1  0  0  0  0  0  0
  197.0940  174.9770  144.4210 O   0  0  0  0  0  0  0  0  0  0  0  0
  195.1150  175.6240  143.3640 N   0  0  0  0  0  2  0  0  0  0  0  0
  196.4880  175.8150  143.7040 C   0  0  0  0  0  0  0  0  0  0  0  0
  188.9360  172.7430  142.2080 C   0  0  0  0  0  2  0  0  0  0  0  0
  187.7700  173.6760  141.9270 C   0  0  0  0  0  2  0  0  0  0  0  0
  188.2800  175.0230  141.4430 C   0  0  0  0  0  2  0  0  0  0  0  0
  186.3760  178.4000  141.7990 C   0  0  0  0  0  3  0  0  0  0  0  0
  186.1430  178.6880  143.0580 C   0  0  2  0  0  3  0  0  0  0  0  0
  186.4800  177.9600  144.2940 C   0  0  0  0  0  0  0  0  0  0  0  0
  187.6310  176.1210  142.2080 C   0  0  0  0  0  0  0  0  0  0  0  0
  185.4880  179.7590  143.8030 N   0  0  0  0  0  2  0  0  0  0  0  0
  187.6260  175.9820  143.5540 C   0  0  0  0  0  3  0  0  0  0  0  0
  185.8480  179.0450  144.9820 C   0  0  1  0  0  3  0  0  0  0  0  0
  187.0700  177.2030  141.4270 N   0  0  0  0  0  0  0  0  0  0  0  0
  187.0830  176.8560  144.5570 N   0  0  0  0  0  0  0  0  0  0  0  0
  184.6010  178.5580  145.7090 C   0  0  0  0  0  2  0  0  0  0  0  0
  185.9590  179.0650  147.6750 C   0  0  0  0  0  2  0  0  0  0  0  0
  184.8180  178.5950  147.1840 C   0  0  0  0  0  3  0  0  0  0  0  0
  1 20  1  1  0  0  0
  1  8  1  0  0  0  0
  2  6  1  0  0  0  0
  3  7  1  0  0  0  0
  5  3  1  0  0  0  0
  5  2  1  0  0  0  0
  6  7  1  0  0  0  0
  6  1  1  0  0  0  0
  7  4  1  6  0  0  0
  8  9  1  0  0  0  0
  9 10  1  0  0  0  0
 10 11  1  0  0  0  0
 11 13  1  0  0  0  0
 13 12  2  0  0  0  0
 14 15  1  0  0  0  0
 14 10  1  0  0  0  0
 16 19  1  0  0  0  0
 18 19  1  0  0  0  0
 18 15  1  0  0  0  0
 19 17  2  0  0  0  0
 21 20  1  0  0  0  0
 22 21  1  0  0  0  0
 22 26  1  0  0  0  0
 24 23  1  6  0  0  0
 24 27  1  0  0  0  0
 24 25  1  0  0  0  0
 25 31  2  0  0  0  0
 25 29  1  0  0  0  0
 26 28  2  0  0  0  0
 27 29  1  0  0  0  0
 28 31  1  0  0  0  0
 29 32  1  6  0  0  0
 30 23  2  0  0  0  0
 30 26  1  0  0  0  0
 32 34  1  0  0  0  0
 34 33  2  0  0  0  0
M  END
>  <MODEL>
9

>  <REMARK>
 VINA RESULT:      -5.2      2.966      7.757
  Name = 
  15 active torsions:
  status: ('A' for Active; 'I' for Inactive)
    1  A    between atoms: C_7  and  C_13
    2  A    between atoms: C_7  and  N_33
    3  A    between atoms: C_9  and  C_20
    4  A    between atoms: C_9  and  C_22
    5  A    between atoms: C_10  and  C_24
    6  A    between atoms: C_15  and  C_28
    7  A    between atoms: C_15  and  N_30
    8  A    between atoms: C_16  and  C_18
    9  A    between atoms: C_16  and  C_24
   10  A    between atoms: N_17  and  C_20
   11  A    between atoms: C_18  and  C_20
   12  A    between atoms: C_21  and  C_25
   13  A    between atoms: C_21  and  C_27
   14  A    between atoms: C_22  and  N_33
   15  A    between atoms: C_28  and  N_33
                            x       y       z     vdW  Elec       q    Type
                         _______ _______ _______ _____ _____    ______ ____

>  <TORSDO>
F 15

$$$$
