=
 OpenBabel11042416023D

 43 48  0  0  1  0  0  0  0  0999 V2000
  189.5240  174.3700  143.8020 C   0  0  1  0  0  3  0  0  0  0  0  0
  190.3060  175.6910  143.6590 C   0  0  0  0  0  2  0  0  0  0  0  0
  185.0470  178.5540  144.8850 C   0  0  0  0  0  0  0  0  0  0  0  0
  189.4230  176.9030  143.9310 C   0  0  1  0  0  3  0  0  0  0  0  0
  186.0480  177.6950  145.3570 C   0  0  0  0  0  3  0  0  0  0  0  0
  188.6930  177.5090  142.3600 S   0  0  0  0  0  0  0  0  0  0  0  0
  186.2730  178.8620  142.8090 C   0  0  0  0  0  3  0  0  0  0  0  0
  187.2540  177.9930  143.2840 C   0  0  0  0  0  0  0  0  0  0  0  0
  183.8650  178.8430  145.7360 C   0  0  0  0  0  1  0  0  0  0  0  0
  188.7070  176.7570  146.2410 O   0  0  0  0  0  1  0  0  0  0  0  0
  185.1660  179.1560  143.6200 C   0  0  0  0  0  3  0  0  0  0  0  0
  187.1630  177.4370  144.5520 C   0  0  0  0  0  0  0  0  0  0  0  0
  188.2940  176.5500  144.9140 C   0  0  1  0  0  3  0  0  0  0  0  0
  189.4570  173.5440  142.4970 C   0  0  2  0  0  3  0  0  0  0  0  0
  188.1910  173.8600  141.6870 C   0  0  0  0  0  2  0  0  0  0  0  0
  188.2550  173.1770  139.3750 O   0  0  0  0  0  1  0  0  0  0  0  0
  188.4750  174.2600  140.2440 C   0  0  0  0  0  2  0  0  0  0  0  0
  189.5910  172.0340  142.7420 C   0  0  0  0  0  2  0  0  0  0  0  0
  190.3830  170.6020  140.8050 O   0  0  0  0  0  1  0  0  0  0  0  0
  191.8790  172.3350  141.7400 C   0  0  1  0  0  3  0  0  0  0  0  0
  190.6980  171.3930  141.9190 C   0  0  1  0  0  0  0  0  0  0  0  0
  192.0090  171.0630  142.5750 C   0  0  0  0  0  2  0  0  0  0  0  0
  192.4070  172.2230  140.3700 N   0  0  0  0  0  0  0  0  0  0  0  0
  192.0090  173.4470  139.6670 C   0  0  0  0  0  1  0  0  0  0  0  0
  194.2580  170.9090  139.8130 O   0  0  0  0  0  1  0  0  0  0  0  0
  193.8750  172.1570  140.3390 C   0  0  0  0  0  2  0  0  0  0  0  0
  190.0010  173.5600  145.0090 C   0  0  0  0  0  2  0  0  0  0  0  0
  192.4960  173.7110  145.0850 C   0  0  0  0  0  3  0  0  0  0  0  0
  192.6080  175.3120  146.7170 C   0  0  0  0  0  0  0  0  0  0  0  0
  193.5020  174.4280  145.9220 C   0  0  2  0  0  3  0  0  0  0  0  0
  194.5480  175.2100  145.1670 C   0  0  0  0  0  0  0  0  0  0  0  0
  191.3600  175.0680  146.5260 N   0  0  0  0  0  0  0  0  0  0  0  0
  191.3000  174.0250  145.5680 C   0  0  0  0  0  0  0  0  0  0  0  0
  193.0670  176.5600  147.2170 N   0  0  0  0  0  0  0  0  0  0  0  0
  194.9500  176.4070  145.6130 C   0  0  0  0  0  3  0  0  0  0  0  0
  194.2720  177.0700  146.6970 N   0  0  0  0  0  0  0  0  0  0  0  0
  195.3780  174.5250  144.1260 C   0  0  0  0  0  2  0  0  0  0  0  0
  196.3370  176.0570  142.3710 N   0  0  0  0  0  0  0  0  0  0  0  0
  195.3280  175.3000  142.8480 C   0  0  0  0  0  0  0  0  0  0  0  0
  197.6660  176.2150  142.9540 C   0  0  0  0  0  1  0  0  0  0  0  0
  194.2000  175.4930  142.0720 C   0  0  0  0  0  3  0  0  0  0  0  0
  195.9290  176.6890  141.2880 N   0  0  0  0  0  0  0  0  0  0  0  0
  194.6310  176.3700  141.0820 C   0  0  0  0  0  3  0  0  0  0  0  0
  1  2  1  6  0  0  0
  1 27  1  0  0  0  0
  3  5  1  0  0  0  0
  3  9  1  0  0  0  0
  4  2  1  6  0  0  0
  4 13  1  0  0  0  0
  6  8  1  0  0  0  0
  6  4  1  0  0  0  0
  7  8  2  0  0  0  0
  7 11  1  0  0  0  0
  8 12  1  0  0  0  0
 11  3  2  0  0  0  0
 12 13  1  0  0  0  0
 12  5  2  0  0  0  0
 13 10  1  1  0  0  0
 14 15  1  1  0  0  0
 14 18  1  0  0  0  0
 14  1  1  0  0  0  0
 16 17  1  0  0  0  0
 17 15  1  0  0  0  0
 20 23  1  6  0  0  0
 20 21  1  0  0  0  0
 20 22  1  0  0  0  0
 21 19  1  6  0  0  0
 21 22  1  0  0  0  0
 21 18  1  0  0  0  0
 24 23  1  0  0  0  0
 25 26  1  0  0  0  0
 26 23  1  0  0  0  0
 27 33  1  0  0  0  0
 28 33  2  0  0  0  0
 29 34  1  0  0  0  0
 30 28  1  6  0  0  0
 30 29  1  0  0  0  0
 31 35  2  0  0  0  0
 31 30  1  0  0  0  0
 32 29  2  0  0  0  0
 33 32  1  0  0  0  0
 35 36  1  0  0  0  0
 36 34  2  0  0  0  0
 37 31  1  0  0  0  0
 38 39  1  0  0  0  0
 38 40  1  0  0  0  0
 39 37  1  0  0  0  0
 41 39  2  0  0  0  0
 42 38  1  0  0  0  0
 43 42  2  0  0  0  0
 43 41  1  0  0  0  0
M  END
>  <MODEL>
1

>  <REMARK>
 VINA RESULT:      -7.0      0.000      0.000
  Name = 
  13 active torsions:
  status: ('A' for Active; 'I' for Inactive)
    1  A    between atoms: C_3  and  C_25
    2  A    between atoms: C_3  and  C_27
    3  A    between atoms: C_4  and  C_13
    4  A    between atoms: C_4  and  C_21
    5  A    between atoms: C_8  and  C_22
    6  A    between atoms: C_9  and  C_22
    7  A    between atoms: C_14  and  N_37
    8  A    between atoms: C_19  and  C_26
    9  A    between atoms: C_19  and  C_27
   10  A    between atoms: C_21  and  C_27
   11  A    between atoms: C_21  and  C_35
   12  A    between atoms: C_23  and  C_35
   13  A    between atoms: C_36  and  N_37
                            x       y       z     vdW  Elec       q    Type
                         _______ _______ _______ _____ _____    ______ ____

>  <TORSDO>
F 13

$$$$
=
 OpenBabel11042416023D

 43 48  0  0  1  0  0  0  0  0999 V2000
  189.6740  174.0720  143.3490 C   0  0  1  0  0  3  0  0  0  0  0  0
  188.8540  173.0400  142.5480 C   0  0  0  0  0  2  0  0  0  0  0  0
  192.7420  173.8490  137.9020 C   0  0  0  0  0  0  0  0  0  0  0  0
  189.5390  172.6690  141.2380 C   0  0  1  0  0  3  0  0  0  0  0  0
  192.5940  173.5890  139.2690 C   0  0  0  0  0  3  0  0  0  0  0  0
  188.6350  173.4160  139.8270 S   0  0  0  0  0  0  0  0  0  0  0  0
  190.3280  173.8160  137.6220 C   0  0  0  0  0  3  0  0  0  0  0  0
  190.1940  173.5730  138.9880 C   0  0  0  0  0  0  0  0  0  0  0  0
  194.1010  174.0090  137.3260 C   0  0  0  0  0  1  0  0  0  0  0  0
  191.8540  172.1790  141.7600 O   0  0  0  0  0  1  0  0  0  0  0  0
  191.6120  173.9440  137.0700 C   0  0  0  0  0  3  0  0  0  0  0  0
  191.3090  173.4310  139.8010 C   0  0  0  0  0  0  0  0  0  0  0  0
  190.9980  173.1560  141.2230 C   0  0  1  0  0  3  0  0  0  0  0  0
  189.1870  175.5280  143.1660 C   0  0  2  0  0  3  0  0  0  0  0  0
  190.3400  176.4700  142.7870 C   0  0  0  0  0  2  0  0  0  0  0  0
  192.1050  177.6380  143.9420 O   0  0  0  0  0  1  0  0  0  0  0  0
  190.7130  177.4520  143.8920 C   0  0  0  0  0  2  0  0  0  0  0  0
  188.4220  176.0570  144.3870 C   0  0  0  0  0  2  0  0  0  0  0  0
  186.0630  175.9860  143.4560 O   0  0  0  0  0  1  0  0  0  0  0  0
  186.6930  177.7520  145.0700 C   0  0  1  0  0  3  0  0  0  0  0  0
  187.1090  176.7310  144.0200 C   0  0  1  0  0  0  0  0  0  0  0  0
  187.1030  178.1920  143.6660 C   0  0  0  0  0  2  0  0  0  0  0  0
  185.2380  177.6840  145.2870 N   0  0  0  0  0  0  0  0  0  0  0  0
  185.0230  176.7210  146.3730 C   0  0  0  0  0  1  0  0  0  0  0  0
  185.3180  179.3640  146.9100 O   0  0  0  0  0  1  0  0  0  0  0  0
  184.6750  178.9690  145.7220 C   0  0  0  0  0  2  0  0  0  0  0  0
  189.8200  173.6610  144.8150 C   0  0  0  0  0  2  0  0  0  0  0  0
  192.3150  173.7210  144.9610 C   0  0  0  0  0  3  0  0  0  0  0  0
  192.4370  175.2610  146.6500 C   0  0  0  0  0  0  0  0  0  0  0  0
  193.3220  174.3740  145.8480 C   0  0  2  0  0  3  0  0  0  0  0  0
  194.4140  175.1430  145.1480 C   0  0  0  0  0  0  0  0  0  0  0  0
  191.1880  175.0680  146.4180 N   0  0  0  0  0  0  0  0  0  0  0  0
  191.1180  174.0610  145.4230 C   0  0  0  0  0  0  0  0  0  0  0  0
  192.9250  176.4760  147.2040 N   0  0  0  0  0  0  0  0  0  0  0  0
  194.8450  176.3100  145.6460 C   0  0  0  0  0  3  0  0  0  0  0  0
  194.1610  176.9600  146.7350 N   0  0  0  0  0  0  0  0  0  0  0  0
  195.2490  174.4650  144.1060 C   0  0  0  0  0  2  0  0  0  0  0  0
  196.2680  176.0240  142.4110 N   0  0  0  0  0  0  0  0  0  0  0  0
  195.2380  175.2710  142.8460 C   0  0  0  0  0  0  0  0  0  0  0  0
  197.5860  176.1500  143.0260 C   0  0  0  0  0  1  0  0  0  0  0  0
  194.1310  175.4970  142.0500 C   0  0  0  0  0  3  0  0  0  0  0  0
  195.8940  176.6870  141.3340 N   0  0  0  0  0  0  0  0  0  0  0  0
  194.5960  176.3910  141.0910 C   0  0  0  0  0  3  0  0  0  0  0  0
  1  2  1  1  0  0  0
  1 27  1  0  0  0  0
  3  5  1  0  0  0  0
  4  2  1  1  0  0  0
  5 12  2  0  0  0  0
  6  4  1  0  0  0  0
  7  8  2  0  0  0  0
  8 12  1  0  0  0  0
  8  6  1  0  0  0  0
  9  3  1  0  0  0  0
 11  7  1  0  0  0  0
 11  3  2  0  0  0  0
 12 13  1  0  0  0  0
 13  4  1  0  0  0  0
 13 10  1  6  0  0  0
 14 15  1  1  0  0  0
 14  1  1  0  0  0  0
 14 18  1  0  0  0  0
 15 17  1  0  0  0  0
 17 16  1  0  0  0  0
 20 23  1  6  0  0  0
 21 19  1  6  0  0  0
 21 18  1  0  0  0  0
 21 20  1  0  0  0  0
 22 21  1  0  0  0  0
 22 20  1  0  0  0  0
 23 26  1  0  0  0  0
 23 24  1  0  0  0  0
 26 25  1  0  0  0  0
 27 33  1  0  0  0  0
 28 33  2  0  0  0  0
 29 34  1  0  0  0  0
 30 28  1  6  0  0  0
 30 29  1  0  0  0  0
 31 35  2  0  0  0  0
 31 30  1  0  0  0  0
 32 29  2  0  0  0  0
 33 32  1  0  0  0  0
 35 36  1  0  0  0  0
 36 34  2  0  0  0  0
 37 31  1  0  0  0  0
 38 39  1  0  0  0  0
 38 40  1  0  0  0  0
 39 37  1  0  0  0  0
 41 39  2  0  0  0  0
 42 38  1  0  0  0  0
 43 42  2  0  0  0  0
 43 41  1  0  0  0  0
M  END
>  <MODEL>
2

>  <REMARK>
 VINA RESULT:      -6.9      2.020      6.449
  Name = 
  13 active torsions:
  status: ('A' for Active; 'I' for Inactive)
    1  A    between atoms: C_3  and  C_25
    2  A    between atoms: C_3  and  C_27
    3  A    between atoms: C_4  and  C_13
    4  A    between atoms: C_4  and  C_21
    5  A    between atoms: C_8  and  C_22
    6  A    between atoms: C_9  and  C_22
    7  A    between atoms: C_14  and  N_37
    8  A    between atoms: C_19  and  C_26
    9  A    between atoms: C_19  and  C_27
   10  A    between atoms: C_21  and  C_27
   11  A    between atoms: C_21  and  C_35
   12  A    between atoms: C_23  and  C_35
   13  A    between atoms: C_36  and  N_37
                            x       y       z     vdW  Elec       q    Type
                         _______ _______ _______ _____ _____    ______ ____

>  <TORSDO>
F 13

$$$$
=
 OpenBabel11042416023D

 43 48  0  0  1  0  0  0  0  0999 V2000
  189.3700  175.1670  143.7310 C   0  0  1  0  0  3  0  0  0  0  0  0
  188.6230  174.2620  142.7310 C   0  0  0  0  0  2  0  0  0  0  0  0
  190.0140  171.3140  137.5610 C   0  0  0  0  0  0  0  0  0  0  0  0
  189.4850  173.9280  141.5190 C   0  0  1  0  0  3  0  0  0  0  0  0
  189.1700  172.2390  138.1880 C   0  0  0  0  0  3  0  0  0  0  0  0
  190.6010  172.5260  141.9140 S   0  0  0  0  0  0  0  0  0  0  0  0
  191.3210  171.1070  139.6000 C   0  0  0  0  0  3  0  0  0  0  0  0
  190.4640  172.0160  140.2170 C   0  0  0  0  0  0  0  0  0  0  0  0
  189.7660  170.9320  136.1480 C   0  0  0  0  0  1  0  0  0  0  0  0
  188.2890  174.7040  139.5610 O   0  0  0  0  0  1  0  0  0  0  0  0
  191.1040  170.7610  138.2570 C   0  0  0  0  0  3  0  0  0  0  0  0
  189.4180  172.6000  139.5170 C   0  0  0  0  0  0  0  0  0  0  0  0
  188.6120  173.5580  140.3090 C   0  0  1  0  0  3  0  0  0  0  0  0
  188.7330  176.5660  143.8960 C   0  0  2  0  0  3  0  0  0  0  0  0
  189.7910  177.6800  143.8620 C   0  0  0  0  0  2  0  0  0  0  0  0
  192.1990  177.5450  143.8330 O   0  0  0  0  0  1  0  0  0  0  0  0
  191.0410  177.3100  143.0710 C   0  0  0  0  0  2  0  0  0  0  0  0
  187.8580  176.6770  145.1520 C   0  0  0  0  0  2  0  0  0  0  0  0
  185.4280  176.6990  145.8770 O   0  0  0  0  0  1  0  0  0  0  0  0
  186.0660  177.6830  143.7000 C   0  0  1  0  0  3  0  0  0  0  0  0
  186.3700  176.7210  144.8390 C   0  0  1  0  0  0  0  0  0  0  0  0
  185.8750  176.1780  143.5280 C   0  0  0  0  0  2  0  0  0  0  0  0
  184.8280  178.4260  143.9880 N   0  0  0  0  0  0  0  0  0  0  0  0
  185.2220  179.8220  144.2110 C   0  0  0  0  0  1  0  0  0  0  0  0
  184.6120  178.6060  141.6680 O   0  0  0  0  0  1  0  0  0  0  0  0
  183.8880  178.4100  142.8590 C   0  0  0  0  0  2  0  0  0  0  0  0
  189.6190  174.4530  145.0620 C   0  0  0  0  0  2  0  0  0  0  0  0
  192.0970  174.1320  145.1180 C   0  0  0  0  0  3  0  0  0  0  0  0
  192.5220  175.6840  146.7460 C   0  0  0  0  0  0  0  0  0  0  0  0
  193.2270  174.6480  145.9450 C   0  0  2  0  0  3  0  0  0  0  0  0
  194.3950  175.2180  145.1810 C   0  0  0  0  0  0  0  0  0  0  0  0
  191.2490  175.6790  146.5650 N   0  0  0  0  0  0  0  0  0  0  0  0
  190.9860  174.6660  145.6090 C   0  0  0  0  0  0  0  0  0  0  0  0
  193.2110  176.8240  147.2390 N   0  0  0  0  0  0  0  0  0  0  0  0
  195.0190  176.3180  145.6210 C   0  0  0  0  0  3  0  0  0  0  0  0
  194.4870  177.0980  146.7100 N   0  0  0  0  0  0  0  0  0  0  0  0
  195.0740  174.3890  144.1340 C   0  0  0  0  0  2  0  0  0  0  0  0
  196.4130  175.7580  142.4990 N   0  0  0  0  0  0  0  0  0  0  0  0
  195.2510  175.1940  142.8870 C   0  0  0  0  0  0  0  0  0  0  0  0
  197.7080  175.6450  143.1620 C   0  0  0  0  0  1  0  0  0  0  0  0
  194.2320  175.6180  142.0560 C   0  0  0  0  0  3  0  0  0  0  0  0
  196.2000  176.4850  141.4190 N   0  0  0  0  0  0  0  0  0  0  0  0
  194.8810  176.4240  141.1270 C   0  0  0  0  0  3  0  0  0  0  0  0
  1  2  1  6  0  0  0
  1 14  1  0  0  0  0
  1 27  1  0  0  0  0
  3  5  2  0  0  0  0
  3 11  1  0  0  0  0
  4  6  1  0  0  0  0
  4  2  1  1  0  0  0
  5 12  1  0  0  0  0
  7  8  1  0  0  0  0
  8  6  1  0  0  0  0
  9  3  1  0  0  0  0
 11  7  2  0  0  0  0
 12  8  2  0  0  0  0
 12 13  1  0  0  0  0
 13 10  1  6  0  0  0
 13  4  1  0  0  0  0
 14 15  1  1  0  0  0
 14 18  1  0  0  0  0
 17 16  1  0  0  0  0
 17 15  1  0  0  0  0
 20 23  1  1  0  0  0
 20 21  1  0  0  0  0
 21 18  1  0  0  0  0
 21 19  1  1  0  0  0
 22 20  1  0  0  0  0
 22 21  1  0  0  0  0
 23 24  1  0  0  0  0
 25 26  1  0  0  0  0
 26 23  1  0  0  0  0
 27 33  1  0  0  0  0
 28 33  2  0  0  0  0
 29 34  1  0  0  0  0
 30 28  1  6  0  0  0
 30 29  1  0  0  0  0
 31 35  2  0  0  0  0
 31 30  1  0  0  0  0
 32 29  2  0  0  0  0
 33 32  1  0  0  0  0
 35 36  1  0  0  0  0
 36 34  2  0  0  0  0
 37 31  1  0  0  0  0
 38 39  1  0  0  0  0
 38 40  1  0  0  0  0
 39 37  1  0  0  0  0
 41 39  2  0  0  0  0
 42 38  1  0  0  0  0
 43 42  2  0  0  0  0
 43 41  1  0  0  0  0
M  END
>  <MODEL>
3

>  <REMARK>
 VINA RESULT:      -6.8      2.429      6.500
  Name = 
  13 active torsions:
  status: ('A' for Active; 'I' for Inactive)
    1  A    between atoms: C_3  and  C_25
    2  A    between atoms: C_3  and  C_27
    3  A    between atoms: C_4  and  C_13
    4  A    between atoms: C_4  and  C_21
    5  A    between atoms: C_8  and  C_22
    6  A    between atoms: C_9  and  C_22
    7  A    between atoms: C_14  and  N_37
    8  A    between atoms: C_19  and  C_26
    9  A    between atoms: C_19  and  C_27
   10  A    between atoms: C_21  and  C_27
   11  A    between atoms: C_21  and  C_35
   12  A    between atoms: C_23  and  C_35
   13  A    between atoms: C_36  and  N_37
                            x       y       z     vdW  Elec       q    Type
                         _______ _______ _______ _____ _____    ______ ____

>  <TORSDO>
F 13

$$$$
=
 OpenBabel11042416023D

 43 48  0  0  1  0  0  0  0  0999 V2000
  189.6880  172.9170  141.0650 C   0  0  1  0  0  3  0  0  0  0  0  0
  189.9540  171.7570  142.0450 C   0  0  0  0  0  2  0  0  0  0  0  0
  191.4590  175.4130  146.7050 C   0  0  0  0  0  0  0  0  0  0  0  0
  190.7940  172.2040  143.2350 C   0  0  1  0  0  3  0  0  0  0  0  0
  190.5360  174.4930  146.1930 C   0  0  0  0  0  3  0  0  0  0  0  0
  192.0910  173.3760  142.6790 S   0  0  0  0  0  0  0  0  0  0  0  0
  192.8750  175.0990  144.7550 C   0  0  0  0  0  3  0  0  0  0  0  0
  191.9410  174.1960  144.2490 C   0  0  0  0  0  0  0  0  0  0  0  0
  191.1950  176.0710  148.0100 C   0  0  0  0  0  1  0  0  0  0  0  0
  189.4210  171.9370  145.2140 O   0  0  0  0  0  1  0  0  0  0  0  0
  192.6400  175.7040  145.9990 C   0  0  0  0  0  3  0  0  0  0  0  0
  190.7990  173.8710  144.9670 C   0  0  0  0  0  0  0  0  0  0  0  0
  189.9180  172.8840  144.3010 C   0  0  1  0  0  3  0  0  0  0  0  0
  189.9610  172.5560  139.5870 C   0  0  2  0  0  3  0  0  0  0  0  0
  188.6670  172.5390  138.7570 C   0  0  0  0  0  2  0  0  0  0  0  0
  187.7450  174.6240  137.9740 O   0  0  0  0  0  1  0  0  0  0  0  0
  188.6380  173.5870  137.6520 C   0  0  0  0  0  2  0  0  0  0  0  0
  190.7330  171.2390  139.4290 C   0  0  0  0  0  2  0  0  0  0  0  0
  192.1420  171.0020  137.3340 O   0  0  0  0  0  1  0  0  0  0  0  0
  192.7230  172.7220  139.0130 C   0  0  1  0  0  3  0  0  0  0  0  0
  192.0430  171.4040  138.6740 C   0  0  1  0  0  0  0  0  0  0  0  0
  193.3400  171.3890  139.4330 C   0  0  0  0  0  2  0  0  0  0  0  0
  193.3110  173.3110  137.7990 N   0  0  0  0  0  0  0  0  0  0  0  0
  192.3160  174.2490  137.2660 C   0  0  0  0  0  1  0  0  0  0  0  0
  194.3420  174.8030  139.2730 O   0  0  0  0  0  1  0  0  0  0  0  0
  194.5310  174.0780  138.0810 C   0  0  0  0  0  2  0  0  0  0  0  0
  188.3110  173.5440  141.2920 C   0  0  0  0  0  2  0  0  0  0  0  0
  187.4710  175.3390  142.8160 C   0  0  0  0  0  3  0  0  0  0  0  0
  189.2930  176.7120  142.6250 C   0  0  0  0  0  0  0  0  0  0  0  0
  187.9380  176.6920  143.2380 C   0  0  2  0  0  3  0  0  0  0  0  0
  187.9830  176.9380  144.7250 C   0  0  0  0  0  0  0  0  0  0  0  0
  189.5220  175.6910  141.8780 N   0  0  0  0  0  0  0  0  0  0  0  0
  188.3600  174.8810  141.9440 C   0  0  0  0  0  0  0  0  0  0  0  0
  190.3420  177.4860  143.1910 N   0  0  0  0  0  0  0  0  0  0  0  0
  188.9950  177.6300  145.2650 C   0  0  0  0  0  3  0  0  0  0  0  0
  190.1560  177.9900  144.4920 N   0  0  0  0  0  0  0  0  0  0  0  0
  186.7550  176.7140  145.5530 C   0  0  0  0  0  2  0  0  0  0  0  0
  185.3320  178.7180  146.1030 N   0  0  0  0  0  0  0  0  0  0  0  0
  185.7360  177.7630  145.2410 C   0  0  0  0  0  0  0  0  0  0  0  0
  185.8400  178.9560  147.4510 C   0  0  0  0  0  1  0  0  0  0  0  0
  184.9470  177.8000  144.1070 C   0  0  0  0  0  3  0  0  0  0  0  0
  184.3520  179.4080  145.5540 N   0  0  0  0  0  0  0  0  0  0  0  0
  184.0900  178.8700  144.3410 C   0  0  0  0  0  3  0  0  0  0  0  0
  1 27  1  6  0  0  0
  1  2  1  0  0  0  0
  3  9  1  0  0  0  0
  4  2  1  6  0  0  0
  4 13  1  0  0  0  0
  5  3  1  0  0  0  0
  6  4  1  0  0  0  0
  6  8  1  0  0  0  0
  7 11  1  0  0  0  0
  8  7  2  0  0  0  0
  8 12  1  0  0  0  0
 11  3  2  0  0  0  0
 12  5  2  0  0  0  0
 13 12  1  0  0  0  0
 13 10  1  1  0  0  0
 14 15  1  6  0  0  0
 14  1  1  0  0  0  0
 17 16  1  0  0  0  0
 17 15  1  0  0  0  0
 18 14  1  0  0  0  0
 20 23  1  6  0  0  0
 20 22  1  0  0  0  0
 21 19  1  6  0  0  0
 21 20  1  0  0  0  0
 21 18  1  0  0  0  0
 21 22  1  0  0  0  0
 23 26  1  0  0  0  0
 24 23  1  0  0  0  0
 26 25  1  0  0  0  0
 27 33  1  0  0  0  0
 29 34  1  0  0  0  0
 29 30  1  0  0  0  0
 30 28  1  1  0  0  0
 30 31  1  0  0  0  0
 31 35  2  0  0  0  0
 31 37  1  0  0  0  0
 32 33  1  0  0  0  0
 32 29  2  0  0  0  0
 33 28  2  0  0  0  0
 34 36  2  0  0  0  0
 36 35  1  0  0  0  0
 38 40  1  0  0  0  0
 39 37  1  0  0  0  0
 39 38  1  0  0  0  0
 41 43  1  0  0  0  0
 41 39  2  0  0  0  0
 42 38  1  0  0  0  0
 43 42  2  0  0  0  0
M  END
>  <MODEL>
4

>  <REMARK>
 VINA RESULT:      -6.7      2.853      6.440
  Name = 
  13 active torsions:
  status: ('A' for Active; 'I' for Inactive)
    1  A    between atoms: C_3  and  C_25
    2  A    between atoms: C_3  and  C_27
    3  A    between atoms: C_4  and  C_13
    4  A    between atoms: C_4  and  C_21
    5  A    between atoms: C_8  and  C_22
    6  A    between atoms: C_9  and  C_22
    7  A    between atoms: C_14  and  N_37
    8  A    between atoms: C_19  and  C_26
    9  A    between atoms: C_19  and  C_27
   10  A    between atoms: C_21  and  C_27
   11  A    between atoms: C_21  and  C_35
   12  A    between atoms: C_23  and  C_35
   13  A    between atoms: C_36  and  N_37
                            x       y       z     vdW  Elec       q    Type
                         _______ _______ _______ _____ _____    ______ ____

>  <TORSDO>
F 13

$$$$
=
 OpenBabel11042416023D

 43 48  0  0  1  0  0  0  0  0999 V2000
  190.3290  176.6870  144.7620 C   0  0  1  0  0  3  0  0  0  0  0  0
  191.0890  177.1050  146.0370 C   0  0  0  0  0  2  0  0  0  0  0  0
  196.0600  173.6040  145.4160 C   0  0  0  0  0  0  0  0  0  0  0  0
  192.0950  176.0440  146.4670 C   0  0  1  0  0  3  0  0  0  0  0  0
  195.5580  174.8980  145.6040 C   0  0  0  0  0  3  0  0  0  0  0  0
  191.5920  174.4050  145.8140 S   0  0  0  0  0  0  0  0  0  0  0  0
  193.8050  172.7020  145.5060 C   0  0  0  0  0  3  0  0  0  0  0  0
  193.3160  173.9970  145.6770 C   0  0  0  0  0  0  0  0  0  0  0  0
  197.5230  173.3980  145.2650 C   0  0  0  0  0  1  0  0  0  0  0  0
  194.1920  177.1830  146.8880 O   0  0  0  0  0  1  0  0  0  0  0  0
  195.1890  172.5010  145.3870 C   0  0  0  0  0  3  0  0  0  0  0  0
  194.1790  175.0810  145.7550 C   0  0  0  0  0  0  0  0  0  0  0  0
  193.5050  176.3850  145.9560 C   0  0  1  0  0  3  0  0  0  0  0  0
  188.8180  177.0090  144.8070 C   0  0  2  0  0  3  0  0  0  0  0  0
  188.1380  176.3810  146.0340 C   0  0  0  0  0  2  0  0  0  0  0  0
  186.5750  177.9540  146.9800 O   0  0  0  0  0  1  0  0  0  0  0  0
  186.6790  176.7900  146.1990 C   0  0  0  0  0  2  0  0  0  0  0  0
  188.0880  176.6200  143.5140 C   0  0  0  0  0  2  0  0  0  0  0  0
  188.4400  178.4620  141.8060 O   0  0  0  0  0  1  0  0  0  0  0  0
  186.1540  177.6380  142.2670 C   0  0  1  0  0  3  0  0  0  0  0  0
  187.5940  177.8220  142.7240 C   0  0  1  0  0  0  0  0  0  0  0  0
  186.5200  178.6980  143.3060 C   0  0  0  0  0  2  0  0  0  0  0  0
  185.9920  178.1560  140.8990 N   0  0  0  0  0  0  0  0  0  0  0  0
  186.5970  177.1640  140.0030 C   0  0  0  0  0  1  0  0  0  0  0  0
  183.7850  178.1710  141.6690 O   0  0  0  0  0  1  0  0  0  0  0  0
  184.5800  178.2920  140.5140 C   0  0  0  0  0  2  0  0  0  0  0  0
  191.0210  177.2020  143.4980 C   0  0  0  0  0  2  0  0  0  0  0  0
  191.4120  174.9990  142.3830 C   0  0  0  0  0  3  0  0  0  0  0  0
  193.5450  175.4410  141.6800 C   0  0  0  0  0  0  0  0  0  0  0  0
  192.5640  174.3230  141.7180 C   0  0  2  0  0  3  0  0  0  0  0  0
  192.2930  173.7580  140.3460 C   0  0  0  0  0  0  0  0  0  0  0  0
  193.1430  176.4840  142.3140 N   0  0  0  0  0  0  0  0  0  0  0  0
  191.8510  176.1770  142.8090 C   0  0  0  0  0  0  0  0  0  0  0  0
  194.5410  175.5070  140.6690 N   0  0  0  0  0  0  0  0  0  0  0  0
  193.2150  173.8580  139.3800 C   0  0  0  0  0  3  0  0  0  0  0  0
  194.3950  174.6660  139.5490 N   0  0  0  0  0  0  0  0  0  0  0  0
  191.1600  172.7990  140.1490 C   0  0  0  0  0  2  0  0  0  0  0  0
  188.8890  173.7780  139.6750 N   0  0  0  0  0  0  0  0  0  0  0  0
  190.1220  173.4160  139.2680 C   0  0  0  0  0  0  0  0  0  0  0  0
  188.3560  173.7030  141.0320 C   0  0  0  0  0  1  0  0  0  0  0  0
  190.2100  173.5430  137.8940 C   0  0  0  0  0  3  0  0  0  0  0  0
  188.1910  174.1850  138.6330 N   0  0  0  0  0  0  0  0  0  0  0  0
  188.9670  174.0500  137.5330 C   0  0  0  0  0  3  0  0  0  0  0  0
  1 27  1  6  0  0  0
  1 14  1  0  0  0  0
  1  2  1  0  0  0  0
  3  5  1  0  0  0  0
  4  2  1  6  0  0  0
  5 12  2  0  0  0  0
  6  4  1  0  0  0  0
  7  8  2  0  0  0  0
  8 12  1  0  0  0  0
  8  6  1  0  0  0  0
  9  3  1  0  0  0  0
 11  3  2  0  0  0  0
 11  7  1  0  0  0  0
 12 13  1  0  0  0  0
 13  4  1  0  0  0  0
 13 10  1  1  0  0  0
 14 18  1  6  0  0  0
 14 15  1  0  0  0  0
 15 17  1  0  0  0  0
 17 16  1  0  0  0  0
 20 23  1  6  0  0  0
 20 21  1  0  0  0  0
 20 22  1  0  0  0  0
 21 19  1  6  0  0  0
 21 22  1  0  0  0  0
 21 18  1  0  0  0  0
 24 23  1  0  0  0  0
 26 23  1  0  0  0  0
 26 25  1  0  0  0  0
 28 33  2  0  0  0  0
 29 30  1  0  0  0  0
 29 32  2  0  0  0  0
 30 28  1  6  0  0  0
 31 30  1  0  0  0  0
 32 33  1  0  0  0  0
 33 27  1  0  0  0  0
 34 29  1  0  0  0  0
 35 36  1  0  0  0  0
 35 31  2  0  0  0  0
 36 34  2  0  0  0  0
 37 31  1  0  0  0  0
 38 40  1  0  0  0  0
 39 38  1  0  0  0  0
 39 37  1  0  0  0  0
 41 39  2  0  0  0  0
 42 38  1  0  0  0  0
 43 41  1  0  0  0  0
 43 42  2  0  0  0  0
M  END
>  <MODEL>
5

>  <REMARK>
 VINA RESULT:      -6.7      3.149      7.642
  Name = 
  13 active torsions:
  status: ('A' for Active; 'I' for Inactive)
    1  A    between atoms: C_3  and  C_25
    2  A    between atoms: C_3  and  C_27
    3  A    between atoms: C_4  and  C_13
    4  A    between atoms: C_4  and  C_21
    5  A    between atoms: C_8  and  C_22
    6  A    between atoms: C_9  and  C_22
    7  A    between atoms: C_14  and  N_37
    8  A    between atoms: C_19  and  C_26
    9  A    between atoms: C_19  and  C_27
   10  A    between atoms: C_21  and  C_27
   11  A    between atoms: C_21  and  C_35
   12  A    between atoms: C_23  and  C_35
   13  A    between atoms: C_36  and  N_37
                            x       y       z     vdW  Elec       q    Type
                         _______ _______ _______ _____ _____    ______ ____

>  <TORSDO>
F 13

$$$$
=
 OpenBabel11042416023D

 43 48  0  0  1  0  0  0  0  0999 V2000
  189.9400  176.7270  144.7820 C   0  0  1  0  0  3  0  0  0  0  0  0
  190.8220  177.2370  145.9390 C   0  0  0  0  0  2  0  0  0  0  0  0
  195.7300  173.5990  145.7520 C   0  0  0  0  0  0  0  0  0  0  0  0
  191.7580  176.1510  146.4550 C   0  0  1  0  0  3  0  0  0  0  0  0
  195.2500  174.9070  145.8940 C   0  0  0  0  0  3  0  0  0  0  0  0
  191.2680  174.5230  145.7640 S   0  0  0  0  0  0  0  0  0  0  0  0
  193.4510  172.7600  145.6490 C   0  0  0  0  0  3  0  0  0  0  0  0
  192.9860  174.0680  145.7760 C   0  0  0  0  0  0  0  0  0  0  0  0
  197.1940  173.3520  145.7270 C   0  0  0  0  0  1  0  0  0  0  0  0
  193.8420  177.2330  147.0520 O   0  0  0  0  0  1  0  0  0  0  0  0
  194.8350  172.5200  145.6490 C   0  0  0  0  0  3  0  0  0  0  0  0
  193.8680  175.1280  145.9260 C   0  0  0  0  0  0  0  0  0  0  0  0
  193.2160  176.4510  146.0670 C   0  0  1  0  0  3  0  0  0  0  0  0
  188.4350  177.0260  144.9720 C   0  0  2  0  0  3  0  0  0  0  0  0
  187.8870  176.3950  146.2620 C   0  0  0  0  0  2  0  0  0  0  0  0
  185.7870  177.1220  147.1980 O   0  0  0  0  0  1  0  0  0  0  0  0
  187.1680  177.3870  147.1680 C   0  0  0  0  0  2  0  0  0  0  0  0
  187.5890  176.6170  143.7580 C   0  0  0  0  0  2  0  0  0  0  0  0
  187.1030  178.9900  143.0050 O   0  0  0  0  0  1  0  0  0  0  0  0
  185.5690  177.1600  142.3600 C   0  0  1  0  0  3  0  0  0  0  0  0
  186.6270  177.7060  143.3080 C   0  0  1  0  0  0  0  0  0  0  0  0
  185.1940  177.6550  143.7560 C   0  0  0  0  0  2  0  0  0  0  0  0
  185.3150  178.1290  141.2810 N   0  0  0  0  0  0  0  0  0  0  0  0
  186.3450  177.8980  140.2620 C   0  0  0  0  0  1  0  0  0  0  0  0
  183.0210  178.5590  141.4150 O   0  0  0  0  0  1  0  0  0  0  0  0
  184.0090  177.9240  140.6390 C   0  0  0  0  0  2  0  0  0  0  0  0
  190.4790  177.1730  143.4210 C   0  0  0  0  0  2  0  0  0  0  0  0
  192.3510  175.8710  142.3950 C   0  0  0  0  0  3  0  0  0  0  0  0
  191.0710  174.1310  141.6400 C   0  0  0  0  0  0  0  0  0  0  0  0
  192.4710  174.6290  141.5780 C   0  0  2  0  0  3  0  0  0  0  0  0
  193.4600  173.6050  142.0780 C   0  0  0  0  0  0  0  0  0  0  0  0
  190.2690  174.9560  142.2120 N   0  0  0  0  0  0  0  0  0  0  0  0
  191.0560  176.0640  142.6130 C   0  0  0  0  0  0  0  0  0  0  0  0
  190.7800  172.7440  141.5340 N   0  0  0  0  0  0  0  0  0  0  0  0
  193.1700  172.2990  142.0190 C   0  0  0  0  0  3  0  0  0  0  0  0
  191.8510  171.8390  141.6680 N   0  0  0  0  0  0  0  0  0  0  0  0
  194.8820  174.0050  142.3230 C   0  0  0  0  0  2  0  0  0  0  0  0
  196.0010  175.6290  140.7560 N   0  0  0  0  0  0  0  0  0  0  0  0
  195.5270  174.3970  141.0320 C   0  0  0  0  0  0  0  0  0  0  0  0
  196.0380  176.7770  141.6570 C   0  0  0  0  0  1  0  0  0  0  0  0
  195.5740  173.6180  139.8910 C   0  0  0  0  0  3  0  0  0  0  0  0
  196.4030  175.6660  139.5010 N   0  0  0  0  0  0  0  0  0  0  0  0
  196.1520  174.4580  138.9460 C   0  0  0  0  0  3  0  0  0  0  0  0
  1 27  1  6  0  0  0
  1 14  1  0  0  0  0
  1  2  1  0  0  0  0
  3  5  1  0  0  0  0
  4  2  1  6  0  0  0
  5 12  2  0  0  0  0
  6  8  1  0  0  0  0
  6  4  1  0  0  0  0
  7  8  2  0  0  0  0
  8 12  1  0  0  0  0
  9  3  1  0  0  0  0
 11  7  1  0  0  0  0
 11  3  2  0  0  0  0
 12 13  1  0  0  0  0
 13  4  1  0  0  0  0
 13 10  1  1  0  0  0
 14 18  1  6  0  0  0
 14 15  1  0  0  0  0
 15 17  1  0  0  0  0
 17 16  1  0  0  0  0
 20 23  1  6  0  0  0
 20 21  1  0  0  0  0
 20 22  1  0  0  0  0
 21 19  1  6  0  0  0
 21 22  1  0  0  0  0
 21 18  1  0  0  0  0
 24 23  1  0  0  0  0
 26 23  1  0  0  0  0
 26 25  1  0  0  0  0
 28 33  2  0  0  0  0
 29 32  2  0  0  0  0
 30 29  1  0  0  0  0
 30 31  1  0  0  0  0
 30 28  1  1  0  0  0
 31 37  1  0  0  0  0
 32 33  1  0  0  0  0
 33 27  1  0  0  0  0
 34 29  1  0  0  0  0
 34 36  2  0  0  0  0
 35 31  2  0  0  0  0
 36 35  1  0  0  0  0
 38 39  1  0  0  0  0
 38 40  1  0  0  0  0
 39 37  1  0  0  0  0
 41 39  2  0  0  0  0
 42 38  1  0  0  0  0
 43 42  2  0  0  0  0
 43 41  1  0  0  0  0
M  END
>  <MODEL>
6

>  <REMARK>
 VINA RESULT:      -6.6      3.330      7.104
  Name = 
  13 active torsions:
  status: ('A' for Active; 'I' for Inactive)
    1  A    between atoms: C_3  and  C_25
    2  A    between atoms: C_3  and  C_27
    3  A    between atoms: C_4  and  C_13
    4  A    between atoms: C_4  and  C_21
    5  A    between atoms: C_8  and  C_22
    6  A    between atoms: C_9  and  C_22
    7  A    between atoms: C_14  and  N_37
    8  A    between atoms: C_19  and  C_26
    9  A    between atoms: C_19  and  C_27
   10  A    between atoms: C_21  and  C_27
   11  A    between atoms: C_21  and  C_35
   12  A    between atoms: C_23  and  C_35
   13  A    between atoms: C_36  and  N_37
                            x       y       z     vdW  Elec       q    Type
                         _______ _______ _______ _____ _____    ______ ____

>  <TORSDO>
F 13

$$$$
=
 OpenBabel11042416023D

 43 48  0  0  1  0  0  0  0  0999 V2000
  189.7020  174.4230  142.2040 C   0  0  1  0  0  3  0  0  0  0  0  0
  188.5680  175.3360  141.6990 C   0  0  0  0  0  2  0  0  0  0  0  0
  185.3950  178.5030  145.8540 C   0  0  0  0  0  0  0  0  0  0  0  0
  188.3120  176.4980  142.6520 C   0  0  1  0  0  3  0  0  0  0  0  0
  186.1300  177.3430  145.5810 C   0  0  0  0  0  3  0  0  0  0  0  0
  187.3500  177.8060  141.7970 S   0  0  0  0  0  0  0  0  0  0  0  0
  185.8630  179.3400  143.6200 C   0  0  0  0  0  3  0  0  0  0  0  0
  186.5780  178.1740  143.3550 C   0  0  0  0  0  0  0  0  0  0  0  0
  184.7540  178.6720  147.1820 C   0  0  0  0  0  1  0  0  0  0  0  0
  188.4270  175.6100  144.9030 O   0  0  0  0  0  1  0  0  0  0  0  0
  185.2750  179.5140  144.8830 C   0  0  0  0  0  3  0  0  0  0  0  0
  186.7380  177.1970  144.3280 C   0  0  0  0  0  0  0  0  0  0  0  0
  187.5400  176.0290  143.8960 C   0  0  1  0  0  3  0  0  0  0  0  0
  189.6350  172.9830  141.6440 C   0  0  2  0  0  3  0  0  0  0  0  0
  189.2930  171.9620  142.7400 C   0  0  0  0  0  2  0  0  0  0  0  0
  191.0110  171.9380  144.4310 O   0  0  0  0  0  1  0  0  0  0  0  0
  189.7170  172.4000  144.1370 C   0  0  0  0  0  2  0  0  0  0  0  0
  190.9100  172.5770  140.8930 C   0  0  0  0  0  2  0  0  0  0  0  0
  189.8030  171.1470  139.1150 O   0  0  0  0  0  1  0  0  0  0  0  0
  190.5090  173.4540  138.5690 C   0  0  1  0  0  3  0  0  0  0  0  0
  190.6540  172.2140  139.4380 C   0  0  1  0  0  0  0  0  0  0  0  0
  191.7040  172.5160  138.4060 C   0  0  0  0  0  2  0  0  0  0  0  0
  189.4360  173.2510  137.5820 N   0  0  0  0  0  0  0  0  0  0  0  0
  188.2110  173.7930  138.1800 C   0  0  0  0  0  1  0  0  0  0  0  0
  188.6420  174.9240  136.1550 O   0  0  0  0  0  1  0  0  0  0  0  0
  189.6770  173.9870  136.3320 C   0  0  0  0  0  2  0  0  0  0  0  0
  191.0750  175.0770  142.0310 C   0  0  0  0  0  2  0  0  0  0  0  0
  193.2040  174.8390  143.3190 C   0  0  0  0  0  3  0  0  0  0  0  0
  192.3730  175.5600  145.3260 C   0  0  0  0  0  0  0  0  0  0  0  0
  193.6170  174.9870  144.7450 C   0  0  2  0  0  3  0  0  0  0  0  0
  194.8170  175.8650  144.9960 C   0  0  0  0  0  0  0  0  0  0  0  0
  191.3970  175.5930  144.4910 N   0  0  0  0  0  0  0  0  0  0  0  0
  191.8990  175.0780  143.2700 C   0  0  0  0  0  0  0  0  0  0  0  0
  192.4180  176.4010  146.4710 N   0  0  0  0  0  0  0  0  0  0  0  0
  194.8430  176.6900  146.0500 C   0  0  0  0  0  3  0  0  0  0  0  0
  193.6710  176.9140  146.8570 N   0  0  0  0  0  0  0  0  0  0  0  0
  196.1040  175.5840  144.2830 C   0  0  0  0  0  2  0  0  0  0  0  0
  196.6970  173.1870  143.7880 N   0  0  0  0  0  0  0  0  0  0  0  0
  196.5970  174.2200  144.6480 C   0  0  0  0  0  0  0  0  0  0  0  0
  196.4160  173.2070  142.3550 C   0  0  0  0  0  1  0  0  0  0  0  0
  196.8510  173.7770  145.9330 C   0  0  0  0  0  3  0  0  0  0  0  0
  197.0580  172.1060  144.4510 N   0  0  0  0  0  0  0  0  0  0  0  0
  197.1560  172.4320  145.7600 C   0  0  0  0  0  3  0  0  0  0  0  0
  1  2  1  6  0  0  0
  3  9  1  0  0  0  0
  4  2  1  6  0  0  0
  4 13  1  0  0  0  0
  5  3  1  0  0  0  0
  6  4  1  0  0  0  0
  6  8  1  0  0  0  0
  7 11  1  0  0  0  0
  8  7  2  0  0  0  0
  8 12  1  0  0  0  0
 11  3  2  0  0  0  0
 12  5  2  0  0  0  0
 13 12  1  0  0  0  0
 13 10  1  1  0  0  0
 14 18  1  1  0  0  0
 14  1  1  0  0  0  0
 14 15  1  0  0  0  0
 15 17  1  0  0  0  0
 17 16  1  0  0  0  0
 20 23  1  6  0  0  0
 20 21  1  0  0  0  0
 21 19  1  6  0  0  0
 21 18  1  0  0  0  0
 22 20  1  0  0  0  0
 22 21  1  0  0  0  0
 23 24  1  0  0  0  0
 25 26  1  0  0  0  0
 26 23  1  0  0  0  0
 27  1  1  0  0  0  0
 27 33  1  0  0  0  0
 29 34  1  0  0  0  0
 30 28  1  6  0  0  0
 30 31  1  0  0  0  0
 30 29  1  0  0  0  0
 31 35  2  0  0  0  0
 32 29  2  0  0  0  0
 33 28  2  0  0  0  0
 33 32  1  0  0  0  0
 34 36  2  0  0  0  0
 35 36  1  0  0  0  0
 37 39  1  0  0  0  0
 37 31  1  0  0  0  0
 38 42  1  0  0  0  0
 38 39  1  0  0  0  0
 39 41  2  0  0  0  0
 40 38  1  0  0  0  0
 42 43  2  0  0  0  0
 43 41  1  0  0  0  0
M  END
>  <MODEL>
7

>  <REMARK>
 VINA RESULT:      -6.5      2.055      3.180
  Name = 
  13 active torsions:
  status: ('A' for Active; 'I' for Inactive)
    1  A    between atoms: C_3  and  C_25
    2  A    between atoms: C_3  and  C_27
    3  A    between atoms: C_4  and  C_13
    4  A    between atoms: C_4  and  C_21
    5  A    between atoms: C_8  and  C_22
    6  A    between atoms: C_9  and  C_22
    7  A    between atoms: C_14  and  N_37
    8  A    between atoms: C_19  and  C_26
    9  A    between atoms: C_19  and  C_27
   10  A    between atoms: C_21  and  C_27
   11  A    between atoms: C_21  and  C_35
   12  A    between atoms: C_23  and  C_35
   13  A    between atoms: C_36  and  N_37
                            x       y       z     vdW  Elec       q    Type
                         _______ _______ _______ _____ _____    ______ ____

>  <TORSDO>
F 13

$$$$
=
 OpenBabel11042416023D

 43 48  0  0  1  0  0  0  0  0999 V2000
  189.7530  172.6860  141.1800 C   0  0  1  0  0  3  0  0  0  0  0  0
  189.9220  171.5850  142.2460 C   0  0  0  0  0  2  0  0  0  0  0  0
  191.4430  175.4340  146.7430 C   0  0  0  0  0  0  0  0  0  0  0  0
  190.7490  172.0680  143.4310 C   0  0  1  0  0  3  0  0  0  0  0  0
  190.5030  174.5170  146.2580 C   0  0  0  0  0  3  0  0  0  0  0  0
  192.0970  173.1670  142.8450 S   0  0  0  0  0  0  0  0  0  0  0  0
  192.8910  174.9710  144.8450 C   0  0  0  0  0  3  0  0  0  0  0  0
  191.9390  174.0730  144.3650 C   0  0  0  0  0  0  0  0  0  0  0  0
  191.1720  176.1680  148.0050 C   0  0  0  0  0  1  0  0  0  0  0  0
  189.3250  171.9500  145.3870 O   0  0  0  0  0  1  0  0  0  0  0  0
  192.6480  175.6490  146.0510 C   0  0  0  0  0  3  0  0  0  0  0  0
  190.7710  173.8230  145.0730 C   0  0  0  0  0  0  0  0  0  0  0  0
  189.8730  172.8300  144.4390 C   0  0  1  0  0  3  0  0  0  0  0  0
  190.1410  172.2340  139.7540 C   0  0  2  0  0  3  0  0  0  0  0  0
  191.2300  171.1500  139.7760 C   0  0  0  0  0  2  0  0  0  0  0  0
  191.0620  169.8870  137.7290 O   0  0  0  0  0  1  0  0  0  0  0  0
  190.8060  169.8460  139.1110 C   0  0  0  0  0  2  0  0  0  0  0  0
  190.5480  173.4050  138.8490 C   0  0  0  0  0  2  0  0  0  0  0  0
  188.9960  172.4680  137.0750 O   0  0  0  0  0  1  0  0  0  0  0  0
  190.3660  174.4650  136.5740 C   0  0  1  0  0  3  0  0  0  0  0  0
  190.1460  173.2030  137.3960 C   0  0  1  0  0  0  0  0  0  0  0  0
  191.2050  173.2120  136.3290 C   0  0  0  0  0  2  0  0  0  0  0  0
  189.2530  174.6480  135.6290 N   0  0  0  0  0  0  0  0  0  0  0  0
  188.1700  175.2940  136.3790 C   0  0  0  0  0  1  0  0  0  0  0  0
  190.7450  176.2810  134.8720 O   0  0  0  0  0  1  0  0  0  0  0  0
  189.6050  175.5370  134.5130 C   0  0  0  0  0  2  0  0  0  0  0  0
  188.3700  173.3370  141.2550 C   0  0  0  0  0  2  0  0  0  0  0  0
  187.4140  175.1600  142.6740 C   0  0  0  0  0  3  0  0  0  0  0  0
  189.2600  176.5130  142.6330 C   0  0  0  0  0  0  0  0  0  0  0  0
  187.8540  176.5140  143.1200 C   0  0  2  0  0  3  0  0  0  0  0  0
  187.7670  176.7790  144.6020 C   0  0  0  0  0  0  0  0  0  0  0  0
  189.5450  175.4800  141.9230 N   0  0  0  0  0  0  0  0  0  0  0  0
  188.3740  174.6820  141.8920 C   0  0  0  0  0  0  0  0  0  0  0  0
  190.2610  177.2850  143.2820 N   0  0  0  0  0  0  0  0  0  0  0  0
  188.7320  177.4690  145.2240 C   0  0  0  0  0  3  0  0  0  0  0  0
  189.9630  177.8070  144.5550 N   0  0  0  0  0  0  0  0  0  0  0  0
  186.4670  176.5780  145.3170 C   0  0  0  0  0  2  0  0  0  0  0  0
  185.1430  178.6270  145.9430 N   0  0  0  0  0  0  0  0  0  0  0  0
  185.5480  177.7220  145.0290 C   0  0  0  0  0  0  0  0  0  0  0  0
  185.5600  178.7110  147.3400 C   0  0  0  0  0  1  0  0  0  0  0  0
  184.8530  177.9140  143.8500 C   0  0  0  0  0  3  0  0  0  0  0  0
  184.2570  179.4320  145.3910 N   0  0  0  0  0  0  0  0  0  0  0  0
  184.0550  179.0210  144.1180 C   0  0  0  0  0  3  0  0  0  0  0  0
  1 27  1  6  0  0  0
  1  2  1  0  0  0  0
  3  9  1  0  0  0  0
  4  2  1  6  0  0  0
  4 13  1  0  0  0  0
  5  3  1  0  0  0  0
  6  4  1  0  0  0  0
  6  8  1  0  0  0  0
  7 11  1  0  0  0  0
  8  7  2  0  0  0  0
  8 12  1  0  0  0  0
 11  3  2  0  0  0  0
 12  5  2  0  0  0  0
 13 12  1  0  0  0  0
 13 10  1  1  0  0  0
 14 18  1  6  0  0  0
 14 15  1  0  0  0  0
 14  1  1  0  0  0  0
 16 17  1  0  0  0  0
 17 15  1  0  0  0  0
 20 23  1  6  0  0  0
 20 21  1  0  0  0  0
 21 19  1  6  0  0  0
 21 18  1  0  0  0  0
 22 20  1  0  0  0  0
 22 21  1  0  0  0  0
 23 24  1  0  0  0  0
 26 25  1  0  0  0  0
 26 23  1  0  0  0  0
 27 33  1  0  0  0  0
 29 30  1  0  0  0  0
 29 34  1  0  0  0  0
 30 28  1  1  0  0  0
 30 31  1  0  0  0  0
 31 35  2  0  0  0  0
 31 37  1  0  0  0  0
 32 29  2  0  0  0  0
 33 32  1  0  0  0  0
 33 28  2  0  0  0  0
 34 36  2  0  0  0  0
 36 35  1  0  0  0  0
 38 40  1  0  0  0  0
 39 37  1  0  0  0  0
 39 38  1  0  0  0  0
 41 43  1  0  0  0  0
 41 39  2  0  0  0  0
 42 38  1  0  0  0  0
 43 42  2  0  0  0  0
M  END
>  <MODEL>
8

>  <REMARK>
 VINA RESULT:      -6.5      3.290      6.975
  Name = 
  13 active torsions:
  status: ('A' for Active; 'I' for Inactive)
    1  A    between atoms: C_3  and  C_25
    2  A    between atoms: C_3  and  C_27
    3  A    between atoms: C_4  and  C_13
    4  A    between atoms: C_4  and  C_21
    5  A    between atoms: C_8  and  C_22
    6  A    between atoms: C_9  and  C_22
    7  A    between atoms: C_14  and  N_37
    8  A    between atoms: C_19  and  C_26
    9  A    between atoms: C_19  and  C_27
   10  A    between atoms: C_21  and  C_27
   11  A    between atoms: C_21  and  C_35
   12  A    between atoms: C_23  and  C_35
   13  A    between atoms: C_36  and  N_37
                            x       y       z     vdW  Elec       q    Type
                         _______ _______ _______ _____ _____    ______ ____

>  <TORSDO>
F 13

$$$$
=
 OpenBabel11042416023D

 43 48  0  0  1  0  0  0  0  0999 V2000
  189.7800  173.8390  143.2010 C   0  0  1  0  0  3  0  0  0  0  0  0
  190.4690  175.1990  142.9700 C   0  0  0  0  0  2  0  0  0  0  0  0
  185.5370  178.4550  144.5270 C   0  0  0  0  0  0  0  0  0  0  0  0
  189.4560  176.3280  142.8250 C   0  0  1  0  0  3  0  0  0  0  0  0
  186.8430  178.0800  144.8640 C   0  0  0  0  0  3  0  0  0  0  0  0
  188.0270  175.7600  141.8250 S   0  0  0  0  0  0  0  0  0  0  0  0
  185.7010  177.2060  142.4480 C   0  0  0  0  0  3  0  0  0  0  0  0
  186.9950  176.8270  142.8020 C   0  0  0  0  0  0  0  0  0  0  0  0
  184.7560  179.3130  145.4540 C   0  0  0  0  0  1  0  0  0  0  0  0
  189.7830  177.8220  144.7040 O   0  0  0  0  0  1  0  0  0  0  0  0
  184.9690  178.0380  143.3100 C   0  0  0  0  0  3  0  0  0  0  0  0
  187.5740  177.2780  143.9790 C   0  0  0  0  0  0  0  0  0  0  0  0
  188.9590  176.8000  144.2020 C   0  0  1  0  0  3  0  0  0  0  0  0
  190.1590  172.7660  142.1540 C   0  0  2  0  0  3  0  0  0  0  0  0
  190.2890  171.3730  142.7890 C   0  0  0  0  0  2  0  0  0  0  0  0
  192.2470  170.3430  143.7480 O   0  0  0  0  0  1  0  0  0  0  0  0
  191.6380  170.7110  142.5350 C   0  0  0  0  0  2  0  0  0  0  0  0
  191.4210  173.1290  141.3600 C   0  0  0  0  0  2  0  0  0  0  0  0
  192.0790  173.9830  139.0640 O   0  0  0  0  0  1  0  0  0  0  0  0
  190.5790  172.0260  139.2620 C   0  0  1  0  0  3  0  0  0  0  0  0
  191.1620  173.2930  139.8710 C   0  0  1  0  0  0  0  0  0  0  0  0
  189.7470  173.3020  139.3640 C   0  0  0  0  0  2  0  0  0  0  0  0
  191.1720  171.7880  137.9350 N   0  0  0  0  0  0  0  0  0  0  0  0
  192.3430  170.9310  138.1480 C   0  0  0  0  0  1  0  0  0  0  0  0
  190.7360  169.7560  136.8660 O   0  0  0  0  0  1  0  0  0  0  0  0
  190.2600  171.0700  137.0340 C   0  0  0  0  0  2  0  0  0  0  0  0
  189.9430  173.3620  144.6450 C   0  0  0  0  0  2  0  0  0  0  0  0
  192.4060  173.6660  144.9480 C   0  0  0  0  0  3  0  0  0  0  0  0
  192.2690  175.2530  146.5920 C   0  0  0  0  0  0  0  0  0  0  0  0
  193.2850  174.4350  145.8760 C   0  0  2  0  0  3  0  0  0  0  0  0
  194.3440  175.2880  145.2240 C   0  0  0  0  0  0  0  0  0  0  0  0
  191.0620  174.9340  146.2870 N   0  0  0  0  0  0  0  0  0  0  0  0
  191.1540  173.9000  145.3220 C   0  0  0  0  0  0  0  0  0  0  0  0
  192.6020  176.5220  147.1370 N   0  0  0  0  0  0  0  0  0  0  0  0
  194.6280  176.5020  145.7100 C   0  0  0  0  0  3  0  0  0  0  0  0
  193.8150  177.1110  146.7320 N   0  0  0  0  0  0  0  0  0  0  0  0
  195.3070  174.6670  144.2590 C   0  0  0  0  0  2  0  0  0  0  0  0
  196.2780  176.1830  142.4980 N   0  0  0  0  0  0  0  0  0  0  0  0
  195.2750  175.4120  142.9630 C   0  0  0  0  0  0  0  0  0  0  0  0
  197.5860  176.3880  143.1160 C   0  0  0  0  0  1  0  0  0  0  0  0
  194.1670  175.5580  142.1490 C   0  0  0  0  0  3  0  0  0  0  0  0
  195.8880  176.7800  141.3890 N   0  0  0  0  0  0  0  0  0  0  0  0
  194.6040  176.4230  141.1530 C   0  0  0  0  0  3  0  0  0  0  0  0
  1  2  1  1  0  0  0
  1 27  1  0  0  0  0
  3  5  1  0  0  0  0
  3  9  1  0  0  0  0
  4  2  1  1  0  0  0
  4 13  1  0  0  0  0
  6  8  1  0  0  0  0
  6  4  1  0  0  0  0
  7  8  2  0  0  0  0
  7 11  1  0  0  0  0
  8 12  1  0  0  0  0
 11  3  2  0  0  0  0
 12 13  1  0  0  0  0
 12  5  2  0  0  0  0
 13 10  1  6  0  0  0
 14 18  1  1  0  0  0
 14 15  1  0  0  0  0
 14  1  1  0  0  0  0
 17 15  1  0  0  0  0
 17 16  1  0  0  0  0
 20 23  1  6  0  0  0
 20 22  1  0  0  0  0
 20 21  1  0  0  0  0
 21 19  1  6  0  0  0
 21 18  1  0  0  0  0
 22 21  1  0  0  0  0
 23 24  1  0  0  0  0
 25 26  1  0  0  0  0
 26 23  1  0  0  0  0
 27 33  1  0  0  0  0
 28 33  2  0  0  0  0
 29 34  1  0  0  0  0
 30 28  1  6  0  0  0
 30 29  1  0  0  0  0
 31 35  2  0  0  0  0
 31 30  1  0  0  0  0
 32 29  2  0  0  0  0
 33 32  1  0  0  0  0
 35 36  1  0  0  0  0
 36 34  2  0  0  0  0
 37 31  1  0  0  0  0
 38 39  1  0  0  0  0
 38 40  1  0  0  0  0
 39 37  1  0  0  0  0
 41 39  2  0  0  0  0
 42 38  1  0  0  0  0
 43 42  2  0  0  0  0
 43 41  1  0  0  0  0
M  END
>  <MODEL>
9

>  <REMARK>
 VINA RESULT:      -6.5      1.591      2.319
  Name = 
  13 active torsions:
  status: ('A' for Active; 'I' for Inactive)
    1  A    between atoms: C_3  and  C_25
    2  A    between atoms: C_3  and  C_27
    3  A    between atoms: C_4  and  C_13
    4  A    between atoms: C_4  and  C_21
    5  A    between atoms: C_8  and  C_22
    6  A    between atoms: C_9  and  C_22
    7  A    between atoms: C_14  and  N_37
    8  A    between atoms: C_19  and  C_26
    9  A    between atoms: C_19  and  C_27
   10  A    between atoms: C_21  and  C_27
   11  A    between atoms: C_21  and  C_35
   12  A    between atoms: C_23  and  C_35
   13  A    between atoms: C_36  and  N_37
                            x       y       z     vdW  Elec       q    Type
                         _______ _______ _______ _____ _____    ______ ____

>  <TORSDO>
F 13

$$$$
