=
 OpenBabel11042419373D

 56 63  0  0  1  0  0  0  0  0999 V2000
  190.3060  173.6860  141.9190 C   0  0  0  0  0  3  0  0  0  0  0  0
  192.7460  172.9330  140.1320 S   0  0  0  0  0  0  0  0  0  0  0  0
  187.9940  175.6950  142.4910 C   0  0  0  0  0  0  0  0  0  0  0  0
  192.3300  175.1430  141.7400 C   0  0  0  0  0  0  0  0  0  0  0  0
  189.2060  176.3920  142.9910 C   0  0  0  0  0  3  0  0  0  0  0  0
  190.9450  174.8440  142.0880 C   0  0  0  0  0  0  0  0  0  0  0  0
  194.5790  174.8150  140.7810 C   0  0  0  0  0  2  0  0  0  0  0  0
  193.1600  174.4430  140.9510 C   0  0  0  0  0  0  0  0  0  0  0  0
  190.4760  175.9830  142.8750 C   0  0  0  0  0  0  0  0  0  0  0  0
  192.7330  176.3500  142.3870 N   0  0  0  0  0  2  0  0  0  0  0  0
  189.0050  173.3900  142.5890 C   0  0  0  0  0  2  0  0  0  0  0  0
  187.9290  174.3770  142.2630 C   0  0  0  0  0  3  0  0  0  0  0  0
  191.6360  176.8830  143.1960 C   0  0  2  0  0  3  0  0  0  0  0  0
  194.4800  172.4420  140.3690 C   0  0  1  0  0  3  0  0  0  0  0  0
  195.3640  173.6030  140.5510 N   0  0  0  0  0  2  0  0  0  0  0  0
  185.3990  177.8190  140.7150 C   0  0  0  0  0  3  0  0  0  0  0  0
  186.8020  176.5210  142.2160 C   0  0  0  0  0  0  0  0  0  0  0  0
  184.7940  177.6140  143.0490 C   0  0  0  0  0  0  0  0  0  0  0  0
  186.5340  177.0340  140.9300 C   0  0  0  0  0  0  0  0  0  0  0  0
  187.3830  176.7700  139.8600 O   0  0  0  0  0  1  0  0  0  0  0  0
  184.5240  178.1100  141.7640 C   0  0  0  0  0  0  0  0  0  0  0  0
  185.9240  176.8220  143.2660 C   0  0  0  0  0  3  0  0  0  0  0  0
  183.9910  177.9290  144.0940 F   0  0  0  0  0  0  0  0  0  0  0  0
  183.3380  178.9850  141.4920 C   0  0  0  0  0  2  0  0  0  0  0  0
  181.1120  179.1770  142.1930 C   0  0  0  0  0  2  0  0  0  0  0  0
  180.1590  178.2850  140.2080 C   0  0  0  0  0  2  0  0  0  0  0  0
  181.6120  177.8890  140.3020 C   0  0  0  0  0  2  0  0  0  0  0  0
  180.0550  179.4520  141.1430 C   0  0  0  0  0  2  0  0  0  0  0  0
  182.0880  178.2440  141.6370 N   0  0  0  0  0  0  0  0  0  0  0  0
  194.6130  171.4440  141.5190 C   0  0  2  0  0  3  0  0  0  0  0  0
  194.8360  170.1500  141.0400 O   0  0  0  0  0  1  0  0  0  0  0  0
  193.4050  171.4650  142.3330 N   0  0  0  0  0  2  0  0  0  0  0  0
  195.7720  171.9740  145.0360 C   0  0  2  0  0  3  0  0  0  0  0  0
  193.5700  170.9760  144.7510 C   0  0  1  0  0  3  0  0  0  0  0  0
  194.6020  171.3580  145.7910 C   0  0  0  0  0  2  0  0  0  0  0  0
  193.7820  171.9930  143.6380 C   0  0  1  0  0  3  0  0  0  0  0  0
  195.4840  173.4310  144.7210 C   0  0  2  0  0  3  0  0  0  0  0  0
  193.8480  169.6800  144.2960 O   0  0  0  0  0  1  0  0  0  0  0  0
  195.2520  172.3640  143.6640 C   0  0  1  0  0  3  0  0  0  0  0  0
  196.7520  175.1880  143.4260 N   0  0  0  0  0  2  0  0  0  0  0  0
  197.9410  175.9640  143.1180 C   0  0  0  0  0  1  0  0  0  0  0  0
  197.7940  173.9180  145.0880 O   0  0  0  0  0  0  0  0  0  0  0  0
  196.7500  174.1650  144.4250 C   0  0  0  0  0  0  0  0  0  0  0  0
  193.0220  175.7200  144.9590 C   0  0  0  0  0  1  0  0  0  0  0  0
  192.0090  176.8180  144.6830 C   0  0  2  0  0  3  0  0  0  0  0  0
  190.0420  177.5500  145.9340 N   0  0  0  0  0  0  0  0  0  0  0  0
  189.0230  177.0310  146.8400 C   0  0  2  0  0  3  0  0  0  0  0  0
  190.4670  175.2900  146.0470 N   0  0  0  0  0  2  0  0  0  0  0  0
  190.8010  176.5780  145.5300 C   0  0  0  0  0  0  0  0  0  0  0  0
  189.3420  175.5780  146.8550 C   0  0  0  0  0  0  0  0  0  0  0  0
  188.7400  174.7070  147.5370 O   0  0  0  0  0  0  0  0  0  0  0  0
  187.6780  178.2960  145.3280 O   0  0  0  0  0  1  0  0  0  0  0  0
  187.5980  177.3570  146.3600 C   0  0  2  0  0  3  0  0  0  0  0  0
  185.5780  178.7590  146.8650 C   0  0  0  0  0  1  0  0  0  0  0  0
  186.6550  177.8670  147.4630 C   0  0  1  0  0  3  0  0  0  0  0  0
  186.0410  176.7980  148.1180 O   0  0  0  0  0  1  0  0  0  0  0  0
  1  6  2  0  0  0  0
  1 11  1  0  0  0  0
  2 14  1  0  0  0  0
  2  8  1  0  0  0  0
  3  5  1  0  0  0  0
  4  6  1  0  0  0  0
  4 10  1  0  0  0  0
  6  9  1  0  0  0  0
  7  8  1  0  0  0  0
  8  4  2  0  0  0  0
  9  5  2  0  0  0  0
  9 13  1  0  0  0  0
 10 13  1  0  0  0  0
 12  3  2  0  0  0  0
 12 11  1  0  0  0  0
 13 45  1  1  0  0  0
 14 15  1  0  0  0  0
 14 30  1  1  0  0  0
 15  7  1  0  0  0  0
 16 19  2  0  0  0  0
 16 21  1  0  0  0  0
 17  3  1  0  0  0  0
 17 22  2  0  0  0  0
 18 22  1  0  0  0  0
 18 23  1  0  0  0  0
 19 17  1  0  0  0  0
 20 19  1  0  0  0  0
 21 18  2  0  0  0  0
 24 29  1  0  0  0  0
 24 21  1  0  0  0  0
 26 27  1  0  0  0  0
 26 28  1  0  0  0  0
 27 29  1  0  0  0  0
 28 25  1  0  0  0  0
 29 25  1  0  0  0  0
 30 31  1  6  0  0  0
 30 32  1  0  0  0  0
 33 35  1  1  0  0  0
 34 38  1  6  0  0  0
 34 35  1  0  0  0  0
 36 32  1  6  0  0  0
 36 39  1  0  0  0  0
 36 34  1  0  0  0  0
 37 43  1  6  0  0  0
 37 33  1  0  0  0  0
 39 37  1  0  0  0  0
 39 33  1  0  0  0  0
 40 43  1  0  0  0  0
 41 40  1  0  0  0  0
 43 42  2  0  0  0  0
 45 44  1  0  0  0  0
 45 49  1  0  0  0  0
 46 47  1  0  0  0  0
 47 50  1  0  0  0  0
 48 50  1  0  0  0  0
 49 46  2  0  0  0  0
 49 48  1  0  0  0  0
 50 51  2  0  0  0  0
 52 53  1  0  0  0  0
 53 47  1  0  0  0  0
 53 55  1  0  0  0  0
 54 55  1  0  0  0  0
 55 56  1  0  0  0  0
M  END
>  <MODEL>
1

>  <REMARK>
 VINA RESULT:      -8.5      0.000      0.000
  Name = 
  11 active torsions:
  status: ('A' for Active; 'I' for Inactive)
    1  A    between atoms: C_4  and  C_41
    2  A    between atoms: C_4  and  N_56
    3  A    between atoms: C_7  and  C_22
    4  A    between atoms: C_9  and  C_47
    5  A    between atoms: C_9  and  N_48
    6  A    between atoms: C_10  and  C_32
    7  A    between atoms: C_23  and  N_48
    8  A    between atoms: C_29  and  C_32
    9  A    between atoms: C_31  and  C_37
   10  A    between atoms: C_37  and  C_45
   11  A    between atoms: C_39  and  C_52
                            x       y       z     vdW  Elec       q    Type
                         _______ _______ _______ _____ _____    ______ ____

>  <TORSDO>
F 11

$$$$
=
 OpenBabel11042419373D

 56 63  0  0  1  0  0  0  0  0999 V2000
  190.2310  175.9460  143.1460 C   0  0  0  0  0  3  0  0  0  0  0  0
  191.7420  173.8590  144.9010 S   0  0  0  0  0  0  0  0  0  0  0  0
  187.4940  176.9930  142.0880 C   0  0  0  0  0  0  0  0  0  0  0  0
  190.1560  173.4930  142.6660 C   0  0  0  0  0  0  0  0  0  0  0  0
  187.7380  175.7640  141.2930 C   0  0  0  0  0  3  0  0  0  0  0  0
  189.7090  174.8770  142.5440 C   0  0  0  0  0  0  0  0  0  0  0  0
  191.4280  171.5570  143.5140 C   0  0  0  0  0  2  0  0  0  0  0  0
  190.9770  172.9610  143.5850 C   0  0  1  0  0  3  0  0  0  0  0  0
  188.7400  174.8890  141.4500 C   0  0  0  0  0  0  0  0  0  0  0  0
  189.5820  172.7130  141.6170 N   0  0  0  0  0  0  0  0  0  0  0  0
  189.9100  177.3380  142.7140 C   0  0  0  0  0  2  0  0  0  0  0  0
  188.4480  177.6530  142.7580 C   0  0  0  0  0  3  0  0  0  0  0  0
  188.7500  173.5550  140.7570 C   0  0  2  0  0  3  0  0  0  0  0  0
  193.1540  172.7290  144.7210 C   0  0  1  0  0  3  0  0  0  0  0  0
  192.7690  171.4580  144.0880 N   0  0  0  0  0  2  0  0  0  0  0  0
  184.0660  178.2720  141.0830 C   0  0  0  0  0  3  0  0  0  0  0  0
  186.1080  177.4980  142.1490 C   0  0  0  0  0  0  0  0  0  0  0  0
  184.2120  178.2080  143.4980 C   0  0  0  0  0  0  0  0  0  0  0  0
  185.3720  177.7880  140.9820 C   0  0  0  0  0  0  0  0  0  0  0  0
  185.9230  177.5960  139.7190 O   0  0  0  0  0  1  0  0  0  0  0  0
  183.4780  178.4800  142.3330 C   0  0  0  0  0  0  0  0  0  0  0  0
  185.5160  177.7160  143.4000 C   0  0  0  0  0  3  0  0  0  0  0  0
  183.6840  178.4550  144.7210 F   0  0  0  0  0  0  0  0  0  0  0  0
  182.0860  179.0340  142.3930 C   0  0  0  0  0  2  0  0  0  0  0  0
  180.1480  177.8670  141.7910 C   0  0  0  0  0  2  0  0  0  0  0  0
  179.2760  179.5650  140.3780 C   0  0  0  0  0  2  0  0  0  0  0  0
  180.7550  179.7820  140.5870 C   0  0  0  0  0  2  0  0  0  0  0  0
  178.8910  178.6660  141.5130 C   0  0  0  0  0  2  0  0  0  0  0  0
  181.2910  178.5960  141.2490 N   0  0  0  0  0  0  0  0  0  0  0  0
  194.3050  173.4050  143.9770 C   0  0  2  0  0  3  0  0  0  0  0  0
  195.4710  172.6380  144.0490 O   0  0  0  0  0  1  0  0  0  0  0  0
  194.5500  174.7260  144.5420 N   0  0  0  0  0  2  0  0  0  0  0  0
  195.9370  175.4880  141.2770 C   0  0  2  0  0  3  0  0  0  0  0  0
  196.1450  176.3340  143.5500 C   0  0  1  0  0  3  0  0  0  0  0  0
  196.5480  176.6020  142.1160 C   0  0  0  0  0  2  0  0  0  0  0  0
  194.8030  175.6250  143.4240 C   0  0  1  0  0  3  0  0  0  0  0  0
  194.4820  175.7980  140.9730 C   0  0  2  0  0  3  0  0  0  0  0  0
  197.0970  175.4870  144.1350 O   0  0  0  0  0  1  0  0  0  0  0  0
  194.8380  174.8600  142.1160 C   0  0  1  0  0  3  0  0  0  0  0  0
  194.9010  174.7630  138.7100 N   0  0  0  0  0  2  0  0  0  0  0  0
  194.5140  173.9670  137.5570 C   0  0  0  0  0  1  0  0  0  0  0  0
  192.8490  174.5100  139.7980 O   0  0  0  0  0  0  0  0  0  0  0  0
  194.0090  175.0040  139.8000 C   0  0  0  0  0  0  0  0  0  0  0  0
  188.3530  174.0510  138.3110 C   0  0  0  0  0  1  0  0  0  0  0  0
  189.3770  173.6470  139.3590 C   0  0  2  0  0  3  0  0  0  0  0  0
  191.2610  172.2110  138.7620 N   0  0  0  0  0  0  0  0  0  0  0  0
  191.5440  170.8710  138.2570 C   0  0  2  0  0  3  0  0  0  0  0  0
  189.2000  171.1920  138.6410 N   0  0  0  0  0  2  0  0  0  0  0  0
  189.9840  172.3430  138.9540 C   0  0  0  0  0  0  0  0  0  0  0  0
  190.1850  170.2680  138.2190 C   0  0  0  0  0  0  0  0  0  0  0  0
  189.9150  169.1080  137.8120 O   0  0  0  0  0  0  0  0  0  0  0  0
  191.9770  169.9460  140.4150 O   0  0  0  0  0  1  0  0  0  0  0  0
  192.5440  170.1140  139.1480 C   0  0  2  0  0  3  0  0  0  0  0  0
  194.1270  171.3040  140.6890 C   0  0  0  0  0  1  0  0  0  0  0  0
  193.9210  170.7860  139.2740 C   0  0  1  0  0  3  0  0  0  0  0  0
  194.9400  169.8780  138.9760 O   0  0  0  0  0  1  0  0  0  0  0  0
  3 17  1  0  0  0  0
  3 12  2  0  0  0  0
  5  9  2  0  0  0  0
  5  3  1  0  0  0  0
  6  4  1  0  0  0  0
  6  1  2  0  0  0  0
  7  8  1  0  0  0  0
  7 15  1  0  0  0  0
  8  4  1  6  0  0  0
  8  2  1  0  0  0  0
  9  6  1  0  0  0  0
 10  4  2  0  0  0  0
 11 12  1  0  0  0  0
 11  1  1  0  0  0  0
 13 45  1  6  0  0  0
 13  9  1  0  0  0  0
 13 10  1  0  0  0  0
 14 30  1  6  0  0  0
 14  2  1  0  0  0  0
 15 14  1  0  0  0  0
 16 21  1  0  0  0  0
 17 22  2  0  0  0  0
 18 23  1  0  0  0  0
 19 16  2  0  0  0  0
 19 17  1  0  0  0  0
 20 19  1  0  0  0  0
 21 24  1  0  0  0  0
 21 18  2  0  0  0  0
 22 18  1  0  0  0  0
 26 27  1  0  0  0  0
 26 28  1  0  0  0  0
 27 29  1  0  0  0  0
 28 25  1  0  0  0  0
 29 25  1  0  0  0  0
 29 24  1  0  0  0  0
 30 31  1  1  0  0  0
 30 32  1  0  0  0  0
 33 35  1  1  0  0  0
 33 39  1  0  0  0  0
 34 38  1  6  0  0  0
 35 34  1  0  0  0  0
 36 34  1  0  0  0  0
 36 32  1  1  0  0  0
 37 43  1  6  0  0  0
 37 33  1  0  0  0  0
 37 39  1  0  0  0  0
 39 36  1  0  0  0  0
 40 43  1  0  0  0  0
 41 40  1  0  0  0  0
 42 43  2  0  0  0  0
 44 45  1  0  0  0  0
 46 49  2  0  0  0  0
 47 46  1  0  0  0  0
 47 53  1  0  0  0  0
 48 49  1  0  0  0  0
 49 45  1  0  0  0  0
 50 47  1  0  0  0  0
 50 48  1  0  0  0  0
 51 50  2  0  0  0  0
 53 55  1  0  0  0  0
 53 52  1  0  0  0  0
 55 54  1  0  0  0  0
 56 55  1  0  0  0  0
M  END
>  <MODEL>
2

>  <REMARK>
 VINA RESULT:      -8.1      2.838      6.135
  Name = 
  11 active torsions:
  status: ('A' for Active; 'I' for Inactive)
    1  A    between atoms: C_4  and  C_41
    2  A    between atoms: C_4  and  N_56
    3  A    between atoms: C_7  and  C_22
    4  A    between atoms: C_9  and  C_47
    5  A    between atoms: C_9  and  N_48
    6  A    between atoms: C_10  and  C_32
    7  A    between atoms: C_23  and  N_48
    8  A    between atoms: C_29  and  C_32
    9  A    between atoms: C_31  and  C_37
   10  A    between atoms: C_37  and  C_45
   11  A    between atoms: C_39  and  C_52
                            x       y       z     vdW  Elec       q    Type
                         _______ _______ _______ _____ _____    ______ ____

>  <TORSDO>
F 11

$$$$
=
 OpenBabel11042419373D

 56 63  0  0  1  0  0  0  0  0999 V2000
  190.0720  176.6230  143.2730 C   0  0  0  0  0  3  0  0  0  0  0  0
  191.7550  174.8690  145.2240 S   0  0  0  0  0  0  0  0  0  0  0  0
  187.2500  177.3570  142.1750 C   0  0  0  0  0  0  0  0  0  0  0  0
  190.1500  174.1300  143.0980 C   0  0  0  0  0  0  0  0  0  0  0  0
  187.5590  176.0570  141.5290 C   0  0  0  0  0  3  0  0  0  0  0  0
  189.6100  175.4580  142.8200 C   0  0  0  0  0  0  0  0  0  0  0  0
  191.5650  172.3980  144.1380 C   0  0  0  0  0  2  0  0  0  0  0  0
  191.0240  173.7690  144.0510 C   0  0  0  0  0  0  0  0  0  0  0  0
  188.6200  175.2730  141.7620 C   0  0  0  0  0  0  0  0  0  0  0  0
  189.6080  173.1920  142.1690 N   0  0  0  0  0  2  0  0  0  0  0  0
  189.6500  177.9290  142.6840 C   0  0  0  0  0  2  0  0  0  0  0  0
  188.1720  178.1540  142.7320 C   0  0  0  0  0  3  0  0  0  0  0  0
  188.7040  173.8670  141.2360 C   0  0  2  0  0  3  0  0  0  0  0  0
  193.2350  173.8170  145.1430 C   0  0  1  0  0  3  0  0  0  0  0  0
  192.9220  172.4560  144.6810 N   0  0  0  0  0  2  0  0  0  0  0  0
  183.7270  178.2920  141.1200 C   0  0  0  0  0  3  0  0  0  0  0  0
  185.8360  177.7760  142.2140 C   0  0  0  0  0  0  0  0  0  0  0  0
  183.9220  178.5150  143.5220 C   0  0  0  0  0  0  0  0  0  0  0  0
  185.0600  177.8830  141.0410 C   0  0  0  0  0  0  0  0  0  0  0  0
  185.6000  177.5840  139.7940 O   0  0  0  0  0  1  0  0  0  0  0  0
  183.1500  178.6050  142.3540 C   0  0  0  0  0  0  0  0  0  0  0  0
  185.2530  178.0990  143.4470 C   0  0  0  0  0  3  0  0  0  0  0  0
  183.4010  178.8660  144.7230 F   0  0  0  0  0  0  0  0  0  0  0  0
  181.7270  179.0720  142.3860 C   0  0  0  0  0  2  0  0  0  0  0  0
  179.8390  177.9090  141.6350 C   0  0  0  0  0  2  0  0  0  0  0  0
  179.0370  179.6410  140.2220 C   0  0  0  0  0  2  0  0  0  0  0  0
  180.4980  179.8620  140.5260 C   0  0  0  0  0  2  0  0  0  0  0  0
  178.5930  178.7060  141.3060 C   0  0  0  0  0  2  0  0  0  0  0  0
  181.0060  178.6620  141.1850 N   0  0  0  0  0  0  0  0  0  0  0  0
  194.3230  174.4680  144.2890 C   0  0  2  0  0  3  0  0  0  0  0  0
  193.8870  175.6880  143.7630 O   0  0  0  0  0  1  0  0  0  0  0  0
  194.6990  173.5720  143.2030 N   0  0  0  0  0  2  0  0  0  0  0  0
  196.9550  173.8230  140.3720 C   0  0  2  0  0  3  0  0  0  0  0  0
  197.1220  173.8650  142.8000 C   0  0  1  0  0  3  0  0  0  0  0  0
  197.9170  174.0650  141.5270 C   0  0  0  0  0  2  0  0  0  0  0  0
  195.7060  174.2670  142.4100 C   0  0  1  0  0  3  0  0  0  0  0  0
  196.1320  175.0700  140.1050 C   0  0  2  0  0  3  0  0  0  0  0  0
  197.1710  172.5100  143.1550 O   0  0  0  0  0  1  0  0  0  0  0  0
  195.5510  173.9390  140.9380 C   0  0  1  0  0  3  0  0  0  0  0  0
  194.1510  175.2640  138.5530 N   0  0  0  0  0  2  0  0  0  0  0  0
  193.5310  175.2790  137.2390 C   0  0  0  0  0  1  0  0  0  0  0  0
  196.2990  174.8480  137.7330 O   0  0  0  0  0  0  0  0  0  0  0  0
  195.5500  175.0320  138.7300 C   0  0  0  0  0  0  0  0  0  0  0  0
  188.2380  174.1090  138.7650 C   0  0  0  0  0  1  0  0  0  0  0  0
  189.2940  173.8260  139.8200 C   0  0  2  0  0  3  0  0  0  0  0  0
  191.1660  172.2560  139.7580 N   0  0  0  0  0  0  0  0  0  0  0  0
  191.5080  170.9260  139.2670 C   0  0  2  0  0  3  0  0  0  0  0  0
  189.1970  171.4390  138.8890 N   0  0  0  0  0  2  0  0  0  0  0  0
  189.9100  172.4940  139.5330 C   0  0  0  0  0  0  0  0  0  0  0  0
  190.2000  170.4520  138.7390 C   0  0  0  0  0  0  0  0  0  0  0  0
  190.0010  169.3450  138.1740 O   0  0  0  0  0  0  0  0  0  0  0  0
  191.1000  169.7570  141.3080 O   0  0  0  0  0  1  0  0  0  0  0  0
  192.1000  170.0330  140.3710 C   0  0  2  0  0  3  0  0  0  0  0  0
  193.6780  169.8060  142.3100 C   0  0  0  0  0  1  0  0  0  0  0  0
  193.3310  170.6260  141.0780 C   0  0  1  0  0  3  0  0  0  0  0  0
  194.4330  170.6360  140.2200 O   0  0  0  0  0  1  0  0  0  0  0  0
  3 17  1  0  0  0  0
  3 12  2  0  0  0  0
  4  8  2  0  0  0  0
  5  9  2  0  0  0  0
  5  3  1  0  0  0  0
  6  4  1  0  0  0  0
  6  1  2  0  0  0  0
  7 15  1  0  0  0  0
  8  7  1  0  0  0  0
  8  2  1  0  0  0  0
  9  6  1  0  0  0  0
 10  4  1  0  0  0  0
 11 12  1  0  0  0  0
 11  1  1  0  0  0  0
 13 45  1  6  0  0  0
 13  9  1  0  0  0  0
 13 10  1  0  0  0  0
 14 30  1  6  0  0  0
 14  2  1  0  0  0  0
 15 14  1  0  0  0  0
 16 21  1  0  0  0  0
 17 22  2  0  0  0  0
 18 23  1  0  0  0  0
 19 16  2  0  0  0  0
 19 17  1  0  0  0  0
 20 19  1  0  0  0  0
 21 24  1  0  0  0  0
 21 18  2  0  0  0  0
 22 18  1  0  0  0  0
 26 27  1  0  0  0  0
 26 28  1  0  0  0  0
 27 29  1  0  0  0  0
 28 25  1  0  0  0  0
 29 25  1  0  0  0  0
 29 24  1  0  0  0  0
 30 31  1  6  0  0  0
 32 30  1  0  0  0  0
 33 39  1  0  0  0  0
 33 35  1  1  0  0  0
 34 38  1  6  0  0  0
 35 34  1  0  0  0  0
 36 34  1  0  0  0  0
 36 32  1  1  0  0  0
 37 43  1  6  0  0  0
 37 33  1  0  0  0  0
 37 39  1  0  0  0  0
 39 36  1  0  0  0  0
 40 43  1  0  0  0  0
 41 40  1  0  0  0  0
 42 43  2  0  0  0  0
 44 45  1  0  0  0  0
 47 46  1  0  0  0  0
 47 53  1  0  0  0  0
 48 49  1  0  0  0  0
 49 46  2  0  0  0  0
 49 45  1  0  0  0  0
 50 48  1  0  0  0  0
 50 47  1  0  0  0  0
 51 50  2  0  0  0  0
 53 55  1  0  0  0  0
 53 52  1  0  0  0  0
 55 54  1  0  0  0  0
 56 55  1  0  0  0  0
M  END
>  <MODEL>
3

>  <REMARK>
 VINA RESULT:      -8.0      2.909      5.909
  Name = 
  11 active torsions:
  status: ('A' for Active; 'I' for Inactive)
    1  A    between atoms: C_4  and  C_41
    2  A    between atoms: C_4  and  N_56
    3  A    between atoms: C_7  and  C_22
    4  A    between atoms: C_9  and  C_47
    5  A    between atoms: C_9  and  N_48
    6  A    between atoms: C_10  and  C_32
    7  A    between atoms: C_23  and  N_48
    8  A    between atoms: C_29  and  C_32
    9  A    between atoms: C_31  and  C_37
   10  A    between atoms: C_37  and  C_45
   11  A    between atoms: C_39  and  C_52
                            x       y       z     vdW  Elec       q    Type
                         _______ _______ _______ _____ _____    ______ ____

>  <TORSDO>
F 11

$$$$
=
 OpenBabel11042419373D

 56 63  0  0  1  0  0  0  0  0999 V2000
  191.4630  173.2940  139.4060 C   0  0  0  0  0  3  0  0  0  0  0  0
  192.1930  174.0800  136.4790 S   0  0  0  0  0  0  0  0  0  0  0  0
  190.8050  174.2580  142.2940 C   0  0  0  0  0  0  0  0  0  0  0  0
  193.5710  174.5130  138.8370 C   0  0  0  0  0  0  0  0  0  0  0  0
  192.2740  174.4370  142.1830 C   0  0  0  0  0  3  0  0  0  0  0  0
  192.5330  174.0180  139.7350 C   0  0  0  0  0  0  0  0  0  0  0  0
  194.7210  175.0160  136.7130 C   0  0  0  0  0  2  0  0  0  0  0  0
  193.5440  174.5920  137.4960 C   0  0  0  0  0  0  0  0  0  0  0  0
  193.0260  174.2630  141.0890 C   0  0  0  0  0  0  0  0  0  0  0  0
  194.7020  174.9300  139.6000 N   0  0  0  0  0  2  0  0  0  0  0  0
  190.6430  172.5760  140.4260 C   0  0  0  0  0  2  0  0  0  0  0  0
  190.0820  173.4770  141.4810 C   0  0  0  0  0  3  0  0  0  0  0  0
  194.4600  174.7120  141.0260 C   0  0  2  0  0  3  0  0  0  0  0  0
  193.4340  173.6120  135.2360 C   0  0  1  0  0  3  0  0  0  0  0  0
  194.7010  174.3360  135.4190 N   0  0  0  0  0  2  0  0  0  0  0  0
  189.1850  175.1730  145.6020 C   0  0  0  0  0  3  0  0  0  0  0  0
  190.1090  175.0060  143.3600 C   0  0  0  0  0  0  0  0  0  0  0  0
  188.9930  177.0450  144.0800 C   0  0  0  0  0  0  0  0  0  0  0  0
  189.8550  174.4340  144.6240 C   0  0  0  0  0  0  0  0  0  0  0  0
  190.2640  173.1380  144.9210 O   0  0  0  0  0  1  0  0  0  0  0  0
  188.7560  176.4760  145.3410 C   0  0  0  0  0  0  0  0  0  0  0  0
  189.6690  176.3110  143.1020 C   0  0  0  0  0  3  0  0  0  0  0  0
  188.5370  178.2860  143.7850 F   0  0  0  0  0  0  0  0  0  0  0  0
  188.0120  177.2180  146.4100 C   0  0  0  0  0  2  0  0  0  0  0  0
  186.0930  177.3570  147.7440 C   0  0  0  0  0  2  0  0  0  0  0  0
  184.5870  177.7690  145.9540 C   0  0  0  0  0  2  0  0  0  0  0  0
  185.8640  177.1670  145.4210 C   0  0  0  0  0  2  0  0  0  0  0  0
  184.9820  178.2890  147.3020 C   0  0  0  0  0  2  0  0  0  0  0  0
  186.6520  176.7080  146.5610 N   0  0  0  0  0  0  0  0  0  0  0  0
  193.6450  172.0980  135.2160 C   0  0  2  0  0  3  0  0  0  0  0  0
  192.4340  171.4230  135.0400 O   0  0  0  0  0  1  0  0  0  0  0  0
  194.2680  171.6710  136.4620 N   0  0  0  0  0  2  0  0  0  0  0  0
  193.7100  168.7900  138.5960 C   0  0  2  0  0  3  0  0  0  0  0  0
  195.0390  169.3270  136.6290 C   0  0  1  0  0  3  0  0  0  0  0  0
  194.6210  168.1890  137.5350 C   0  0  0  0  0  2  0  0  0  0  0  0
  193.8610  170.2900  136.6880 C   0  0  1  0  0  3  0  0  0  0  0  0
  192.2990  168.9370  138.0550 C   0  0  2  0  0  3  0  0  0  0  0  0
  196.1920  169.9240  137.1590 O   0  0  0  0  0  1  0  0  0  0  0  0
  193.2390  170.1310  138.0620 C   0  0  1  0  0  3  0  0  0  0  0  0
  191.7330  168.7720  140.5090 N   0  0  0  0  0  2  0  0  0  0  0  0
  190.8360  168.9130  141.6440 C   0  0  0  0  0  1  0  0  0  0  0  0
  190.1470  169.4730  138.9430 O   0  0  0  0  0  0  0  0  0  0  0  0
  191.3170  169.0630  139.1730 C   0  0  0  0  0  0  0  0  0  0  0  0
  194.8470  172.2370  141.3590 C   0  0  0  0  0  1  0  0  0  0  0  0
  195.4150  173.6330  141.5550 C   0  0  2  0  0  3  0  0  0  0  0  0
  195.5370  174.9820  143.5890 N   0  0  0  0  0  0  0  0  0  0  0  0
  196.0090  174.9060  144.9680 C   0  0  2  0  0  3  0  0  0  0  0  0
  196.2710  172.8130  143.8290 N   0  0  0  0  0  2  0  0  0  0  0  0
  195.6990  173.8320  143.0100 C   0  0  0  0  0  0  0  0  0  0  0  0
  196.4500  173.4880  145.0590 C   0  0  0  0  0  0  0  0  0  0  0  0
  196.9710  172.9520  146.0730 O   0  0  0  0  0  0  0  0  0  0  0  0
  193.9080  174.3220  145.9390 O   0  0  0  0  0  1  0  0  0  0  0  0
  194.9150  175.2910  145.9790 C   0  0  2  0  0  3  0  0  0  0  0  0
  192.8150  176.5770  145.4910 C   0  0  0  0  0  1  0  0  0  0  0  0
  194.3080  176.6870  145.7590 C   0  0  1  0  0  3  0  0  0  0  0  0
  194.5030  177.4900  146.8840 O   0  0  0  0  0  1  0  0  0  0  0  0
  1  6  2  0  0  0  0
  1 11  1  0  0  0  0
  2  8  1  0  0  0  0
  3 17  1  0  0  0  0
  4 10  1  0  0  0  0
  4  6  1  0  0  0  0
  5  3  1  0  0  0  0
  6  9  1  0  0  0  0
  7  8  1  0  0  0  0
  8  4  2  0  0  0  0
  9  5  2  0  0  0  0
 10 13  1  0  0  0  0
 11 12  1  0  0  0  0
 12  3  2  0  0  0  0
 13  9  1  0  0  0  0
 13 45  1  6  0  0  0
 14 30  1  1  0  0  0
 14 15  1  0  0  0  0
 14  2  1  0  0  0  0
 15  7  1  0  0  0  0
 17 19  1  0  0  0  0
 18 21  2  0  0  0  0
 19 20  1  0  0  0  0
 19 16  2  0  0  0  0
 21 16  1  0  0  0  0
 21 24  1  0  0  0  0
 22 17  2  0  0  0  0
 22 18  1  0  0  0  0
 23 18  1  0  0  0  0
 24 29  1  0  0  0  0
 26 28  1  0  0  0  0
 27 26  1  0  0  0  0
 27 29  1  0  0  0  0
 28 25  1  0  0  0  0
 29 25  1  0  0  0  0
 30 31  1  1  0  0  0
 30 32  1  0  0  0  0
 33 35  1  6  0  0  0
 34 36  1  0  0  0  0
 34 38  1  1  0  0  0
 34 35  1  0  0  0  0
 36 32  1  1  0  0  0
 36 39  1  0  0  0  0
 37 39  1  0  0  0  0
 37 33  1  0  0  0  0
 37 43  1  1  0  0  0
 39 33  1  0  0  0  0
 40 41  1  0  0  0  0
 42 43  2  0  0  0  0
 43 40  1  0  0  0  0
 44 45  1  0  0  0  0
 45 49  1  0  0  0  0
 46 47  1  0  0  0  0
 47 50  1  0  0  0  0
 47 53  1  0  0  0  0
 48 50  1  0  0  0  0
 49 46  2  0  0  0  0
 49 48  1  0  0  0  0
 50 51  2  0  0  0  0
 52 53  1  0  0  0  0
 54 55  1  0  0  0  0
 55 53  1  0  0  0  0
 55 56  1  0  0  0  0
M  END
>  <MODEL>
4

>  <REMARK>
 VINA RESULT:      -7.8      3.434      6.486
  Name = 
  11 active torsions:
  status: ('A' for Active; 'I' for Inactive)
    1  A    between atoms: C_4  and  C_41
    2  A    between atoms: C_4  and  N_56
    3  A    between atoms: C_7  and  C_22
    4  A    between atoms: C_9  and  C_47
    5  A    between atoms: C_9  and  N_48
    6  A    between atoms: C_10  and  C_32
    7  A    between atoms: C_23  and  N_48
    8  A    between atoms: C_29  and  C_32
    9  A    between atoms: C_31  and  C_37
   10  A    between atoms: C_37  and  C_45
   11  A    between atoms: C_39  and  C_52
                            x       y       z     vdW  Elec       q    Type
                         _______ _______ _______ _____ _____    ______ ____

>  <TORSDO>
F 11

$$$$
=
 OpenBabel11042419373D

 56 63  0  0  1  0  0  0  0  0999 V2000
  192.0540  174.5670  141.6800 C   0  0  0  0  0  3  0  0  0  0  0  0
  194.5850  175.0640  139.9290 S   0  0  0  0  0  0  0  0  0  0  0  0
  189.5510  175.7850  143.0790 C   0  0  0  0  0  0  0  0  0  0  0  0
  193.9320  176.0340  142.4350 C   0  0  0  0  0  0  0  0  0  0  0  0
  190.6830  176.1920  143.9510 C   0  0  0  0  0  3  0  0  0  0  0  0
  192.5760  175.4970  142.4790 C   0  0  0  0  0  0  0  0  0  0  0  0
  196.2180  176.4330  141.5960 C   0  0  0  0  0  2  0  0  0  0  0  0
  194.8390  175.9260  141.4500 C   0  0  0  0  0  0  0  0  0  0  0  0
  191.9870  176.0010  143.7180 C   0  0  0  0  0  0  0  0  0  0  0  0
  194.2070  176.7330  143.6480 N   0  0  0  0  0  2  0  0  0  0  0  0
  190.7770  173.8650  142.0040 C   0  0  0  0  0  2  0  0  0  0  0  0
  189.6160  174.7920  142.1830 C   0  0  0  0  0  3  0  0  0  0  0  0
  193.0510  176.6710  144.5430 C   0  0  2  0  0  3  0  0  0  0  0  0
  196.3540  174.6480  139.9820 C   0  0  1  0  0  3  0  0  0  0  0  0
  197.1190  175.5920  140.8100 N   0  0  0  0  0  2  0  0  0  0  0  0
  186.8750  178.4460  142.6800 C   0  0  0  0  0  3  0  0  0  0  0  0
  188.2900  176.5420  143.2080 C   0  0  0  0  0  0  0  0  0  0  0  0
  186.0830  176.7470  144.2110 C   0  0  0  0  0  0  0  0  0  0  0  0
  188.0800  177.7560  142.5230 C   0  0  0  0  0  0  0  0  0  0  0  0
  189.0550  178.2860  141.6840 O   0  0  0  0  0  1  0  0  0  0  0  0
  185.8730  177.9480  143.5160 C   0  0  0  0  0  0  0  0  0  0  0  0
  187.2840  176.0510  144.0510 C   0  0  0  0  0  3  0  0  0  0  0  0
  185.1490  176.2730  145.0700 F   0  0  0  0  0  0  0  0  0  0  0  0
  184.6110  178.7400  143.6790 C   0  0  0  0  0  2  0  0  0  0  0  0
  183.6880  179.0280  145.8110 C   0  0  0  0  0  2  0  0  0  0  0  0
  185.7650  179.1380  146.9580 C   0  0  0  0  0  2  0  0  0  0  0  0
  185.9740  179.4150  145.4890 C   0  0  0  0  0  2  0  0  0  0  0  0
  184.4340  178.4500  146.9960 C   0  0  0  0  0  2  0  0  0  0  0  0
  184.6610  179.5790  144.8720 N   0  0  0  0  0  0  0  0  0  0  0  0
  196.5620  173.2020  140.4320 C   0  0  2  0  0  3  0  0  0  0  0  0
  197.2620  173.1480  141.6410 O   0  0  0  0  0  1  0  0  0  0  0  0
  197.2930  172.4670  139.4080 N   0  0  0  0  0  2  0  0  0  0  0  0
  194.8300  169.8580  139.9460 C   0  0  2  0  0  3  0  0  0  0  0  0
  197.0720  170.0360  139.0150 C   0  0  1  0  0  3  0  0  0  0  0  0
  195.9090  169.0850  139.2010 C   0  0  0  0  0  2  0  0  0  0  0  0
  196.4120  171.4060  138.9390 C   0  0  1  0  0  3  0  0  0  0  0  0
  194.0330  170.7130  138.9760 C   0  0  2  0  0  3  0  0  0  0  0  0
  197.9060  169.9520  140.1380 O   0  0  0  0  0  1  0  0  0  0  0  0
  195.1590  171.3320  139.7890 C   0  0  1  0  0  3  0  0  0  0  0  0
  192.0720  170.1990  140.4800 N   0  0  0  0  0  2  0  0  0  0  0  0
  190.8090  170.5270  141.1200 C   0  0  0  0  0  1  0  0  0  0  0  0
  192.2060  172.2160  139.3080 O   0  0  0  0  0  0  0  0  0  0  0  0
  192.7170  171.0930  139.5690 C   0  0  0  0  0  0  0  0  0  0  0  0
  194.0360  176.7100  146.8690 C   0  0  0  0  0  1  0  0  0  0  0  0
  193.4040  175.8480  145.7890 C   0  0  2  0  0  3  0  0  0  0  0  0
  193.9330  173.5230  145.2530 N   0  0  0  0  0  0  0  0  0  0  0  0
  195.0800  172.6400  145.0690 C   0  0  2  0  0  3  0  0  0  0  0  0
  195.7630  174.9080  145.4390 N   0  0  0  0  0  2  0  0  0  0  0  0
  194.3470  174.7380  145.4520 C   0  0  0  0  0  0  0  0  0  0  0  0
  196.2170  173.5920  145.1840 C   0  0  0  0  0  0  0  0  0  0  0  0
  197.4360  173.2810  145.1230 O   0  0  0  0  0  0  0  0  0  0  0  0
  193.7700  172.1000  143.1480 O   0  0  0  0  0  1  0  0  0  0  0  0
  195.0240  171.8860  143.7290 C   0  0  2  0  0  3  0  0  0  0  0  0
  196.7610  170.0860  143.5240 C   0  0  0  0  0  1  0  0  0  0  0  0
  195.3010  170.3770  143.8360 C   0  0  1  0  0  3  0  0  0  0  0  0
  195.0170  169.9150  145.1230 O   0  0  0  0  0  1  0  0  0  0  0  0
  1 11  1  0  0  0  0
  1  6  2  0  0  0  0
  2 14  1  0  0  0  0
  2  8  1  0  0  0  0
  3 17  1  0  0  0  0
  3  5  1  0  0  0  0
  4  6  1  0  0  0  0
  4 10  1  0  0  0  0
  6  9  1  0  0  0  0
  8  7  1  0  0  0  0
  8  4  2  0  0  0  0
  9  5  2  0  0  0  0
  9 13  1  0  0  0  0
 10 13  1  0  0  0  0
 11 12  1  0  0  0  0
 12  3  2  0  0  0  0
 13 45  1  1  0  0  0
 14 30  1  1  0  0  0
 14 15  1  0  0  0  0
 15  7  1  0  0  0  0
 16 21  1  0  0  0  0
 17 22  2  0  0  0  0
 18 23  1  0  0  0  0
 19 16  2  0  0  0  0
 19 17  1  0  0  0  0
 20 19  1  0  0  0  0
 21 24  1  0  0  0  0
 21 18  2  0  0  0  0
 22 18  1  0  0  0  0
 24 29  1  0  0  0  0
 25 28  1  0  0  0  0
 26 28  1  0  0  0  0
 27 26  1  0  0  0  0
 29 27  1  0  0  0  0
 29 25  1  0  0  0  0
 30 31  1  1  0  0  0
 32 30  1  0  0  0  0
 33 35  1  6  0  0  0
 34 35  1  0  0  0  0
 34 38  1  1  0  0  0
 36 34  1  0  0  0  0
 36 32  1  1  0  0  0
 36 39  1  0  0  0  0
 37 43  1  1  0  0  0
 37 39  1  0  0  0  0
 37 33  1  0  0  0  0
 39 33  1  0  0  0  0
 40 41  1  0  0  0  0
 42 43  2  0  0  0  0
 43 40  1  0  0  0  0
 45 44  1  0  0  0  0
 46 49  2  0  0  0  0
 47 50  1  0  0  0  0
 47 46  1  0  0  0  0
 48 49  1  0  0  0  0
 49 45  1  0  0  0  0
 50 48  1  0  0  0  0
 51 50  2  0  0  0  0
 52 53  1  0  0  0  0
 53 55  1  0  0  0  0
 53 47  1  0  0  0  0
 54 55  1  0  0  0  0
 55 56  1  0  0  0  0
M  END
>  <MODEL>
5

>  <REMARK>
 VINA RESULT:      -7.6      2.755      5.726
  Name = 
  11 active torsions:
  status: ('A' for Active; 'I' for Inactive)
    1  A    between atoms: C_4  and  C_41
    2  A    between atoms: C_4  and  N_56
    3  A    between atoms: C_7  and  C_22
    4  A    between atoms: C_9  and  C_47
    5  A    between atoms: C_9  and  N_48
    6  A    between atoms: C_10  and  C_32
    7  A    between atoms: C_23  and  N_48
    8  A    between atoms: C_29  and  C_32
    9  A    between atoms: C_31  and  C_37
   10  A    between atoms: C_37  and  C_45
   11  A    between atoms: C_39  and  C_52
                            x       y       z     vdW  Elec       q    Type
                         _______ _______ _______ _____ _____    ______ ____

>  <TORSDO>
F 11

$$$$
=
 OpenBabel11042419373D

 56 63  0  0  1  0  0  0  0  0999 V2000
  189.8480  176.7220  143.2100 C   0  0  0  0  0  3  0  0  0  0  0  0
  191.4750  175.1290  145.3390 S   0  0  0  0  0  0  0  0  0  0  0  0
  187.0590  177.3590  141.9770 C   0  0  0  0  0  0  0  0  0  0  0  0
  189.9350  174.2240  143.2280 C   0  0  0  0  0  0  0  0  0  0  0  0
  187.3890  176.0150  141.4410 C   0  0  0  0  0  3  0  0  0  0  0  0
  189.4010  175.5240  142.8350 C   0  0  0  0  0  0  0  0  0  0  0  0
  191.3220  172.5820  144.4390 C   0  0  0  0  0  2  0  0  0  0  0  0
  190.7810  173.9400  144.2310 C   0  0  0  0  0  0  0  0  0  0  0  0
  188.4430  175.2550  141.7650 C   0  0  0  0  0  0  0  0  0  0  0  0
  189.4220  173.2160  142.3580 N   0  0  0  0  0  2  0  0  0  0  0  0
  189.4410  177.9780  142.5110 C   0  0  0  0  0  2  0  0  0  0  0  0
  187.9620  178.2000  142.4990 C   0  0  0  0  0  3  0  0  0  0  0  0
  188.5450  173.8140  141.3510 C   0  0  2  0  0  3  0  0  0  0  0  0
  192.9590  174.0790  145.3810 C   0  0  1  0  0  3  0  0  0  0  0  0
  192.6620  172.6860  145.0150 N   0  0  0  0  0  2  0  0  0  0  0  0
  183.6070  178.3350  140.7380 C   0  0  0  0  0  3  0  0  0  0  0  0
  185.6420  177.7750  141.9420 C   0  0  0  0  0  0  0  0  0  0  0  0
  183.6450  178.4540  143.1550 C   0  0  0  0  0  0  0  0  0  0  0  0
  184.9440  177.9310  140.7270 C   0  0  0  0  0  0  0  0  0  0  0  0
  185.5650  177.6860  139.5060 O   0  0  0  0  0  1  0  0  0  0  0  0
  182.9500  178.5930  141.9430 C   0  0  0  0  0  0  0  0  0  0  0  0
  184.9810  178.0430  143.1480 C   0  0  0  0  0  3  0  0  0  0  0  0
  183.0470  178.7530  144.3330 F   0  0  0  0  0  0  0  0  0  0  0  0
  181.5260  179.0570  141.9030 C   0  0  0  0  0  2  0  0  0  0  0  0
  179.5380  177.8810  142.2840 C   0  0  0  0  0  2  0  0  0  0  0  0
  178.5890  178.3190  140.1510 C   0  0  0  0  0  2  0  0  0  0  0  0
  180.0800  178.5410  140.1040 C   0  0  0  0  0  2  0  0  0  0  0  0
  178.2730  178.3810  141.6150 C   0  0  0  0  0  2  0  0  0  0  0  0
  180.6490  178.0300  141.3490 N   0  0  0  0  0  0  0  0  0  0  0  0
  194.0700  174.6680  144.5120 C   0  0  2  0  0  3  0  0  0  0  0  0
  194.0470  174.1210  143.2260 O   0  0  0  0  0  1  0  0  0  0  0  0
  195.3650  174.4150  145.1300 N   0  0  0  0  0  2  0  0  0  0  0  0
  197.5450  171.5150  145.1200 C   0  0  2  0  0  3  0  0  0  0  0  0
  197.1460  173.4570  143.7070 C   0  0  1  0  0  3  0  0  0  0  0  0
  197.9050  172.1490  143.7830 C   0  0  0  0  0  2  0  0  0  0  0  0
  195.8910  173.1960  144.5290 C   0  0  1  0  0  3  0  0  0  0  0  0
  196.2160  170.7880  145.0150 C   0  0  2  0  0  3  0  0  0  0  0  0
  197.9220  174.4630  144.2970 O   0  0  0  0  0  1  0  0  0  0  0  0
  196.2730  172.1910  145.5980 C   0  0  1  0  0  3  0  0  0  0  0  0
  197.2460  169.2480  146.7290 N   0  0  0  0  0  2  0  0  0  0  0  0
  197.1740  168.3030  147.8310 C   0  0  0  0  0  1  0  0  0  0  0  0
  194.9280  169.4720  146.5360 O   0  0  0  0  0  0  0  0  0  0  0  0
  196.0730  169.7910  146.1170 C   0  0  0  0  0  0  0  0  0  0  0  0
  188.1960  173.0840  138.9570 C   0  0  0  0  0  1  0  0  0  0  0  0
  189.1770  173.6670  139.9600 C   0  0  2  0  0  3  0  0  0  0  0  0
  190.3290  171.5240  139.7300 N   0  0  0  0  0  0  0  0  0  0  0  0
  191.6270  170.9070  139.9820 C   0  0  2  0  0  3  0  0  0  0  0  0
  191.6550  173.2540  140.4700 N   0  0  0  0  0  2  0  0  0  0  0  0
  190.3870  172.7910  140.0080 C   0  0  0  0  0  0  0  0  0  0  0  0
  192.4320  172.0720  140.4370 C   0  0  0  0  0  0  0  0  0  0  0  0
  193.6350  172.0250  140.8070 O   0  0  0  0  0  0  0  0  0  0  0  0
  191.2360  170.2800  137.7130 O   0  0  0  0  0  1  0  0  0  0  0  0
  192.1880  170.2030  138.7340 C   0  0  2  0  0  3  0  0  0  0  0  0
  193.9900  168.4890  138.3990 C   0  0  0  0  0  1  0  0  0  0  0  0
  192.5990  168.7390  138.9600 C   0  0  1  0  0  3  0  0  0  0  0  0
  192.6040  168.4350  140.3230 O   0  0  0  0  0  1  0  0  0  0  0  0
  2 14  1  0  0  0  0
  3 12  2  0  0  0  0
  4  8  2  0  0  0  0
  5  9  2  0  0  0  0
  5  3  1  0  0  0  0
  6  1  2  0  0  0  0
  6  4  1  0  0  0  0
  7 15  1  0  0  0  0
  8  7  1  0  0  0  0
  8  2  1  0  0  0  0
  9  6  1  0  0  0  0
 10  4  1  0  0  0  0
 11  1  1  0  0  0  0
 12 11  1  0  0  0  0
 13 45  1  6  0  0  0
 13  9  1  0  0  0  0
 13 10  1  0  0  0  0
 14 30  1  6  0  0  0
 15 14  1  0  0  0  0
 16 21  1  0  0  0  0
 17  3  1  0  0  0  0
 17 22  2  0  0  0  0
 18 23  1  0  0  0  0
 19 16  2  0  0  0  0
 19 17  1  0  0  0  0
 20 19  1  0  0  0  0
 21 18  2  0  0  0  0
 22 18  1  0  0  0  0
 24 21  1  0  0  0  0
 26 28  1  0  0  0  0
 27 26  1  0  0  0  0
 27 29  1  0  0  0  0
 28 25  1  0  0  0  0
 29 24  1  0  0  0  0
 29 25  1  0  0  0  0
 30 31  1  6  0  0  0
 30 32  1  0  0  0  0
 33 35  1  6  0  0  0
 33 39  1  0  0  0  0
 34 35  1  0  0  0  0
 34 38  1  1  0  0  0
 34 36  1  0  0  0  0
 36 32  1  1  0  0  0
 36 39  1  0  0  0  0
 37 33  1  0  0  0  0
 37 39  1  0  0  0  0
 37 43  1  1  0  0  0
 40 41  1  0  0  0  0
 43 42  2  0  0  0  0
 43 40  1  0  0  0  0
 44 45  1  0  0  0  0
 45 49  1  0  0  0  0
 46 47  1  0  0  0  0
 46 49  2  0  0  0  0
 47 50  1  0  0  0  0
 49 48  1  0  0  0  0
 50 48  1  0  0  0  0
 50 51  2  0  0  0  0
 52 53  1  0  0  0  0
 53 55  1  0  0  0  0
 53 47  1  0  0  0  0
 54 55  1  0  0  0  0
 55 56  1  0  0  0  0
M  END
>  <MODEL>
6

>  <REMARK>
 VINA RESULT:      -7.6      2.949      5.990
  Name = 
  11 active torsions:
  status: ('A' for Active; 'I' for Inactive)
    1  A    between atoms: C_4  and  C_41
    2  A    between atoms: C_4  and  N_56
    3  A    between atoms: C_7  and  C_22
    4  A    between atoms: C_9  and  C_47
    5  A    between atoms: C_9  and  N_48
    6  A    between atoms: C_10  and  C_32
    7  A    between atoms: C_23  and  N_48
    8  A    between atoms: C_29  and  C_32
    9  A    between atoms: C_31  and  C_37
   10  A    between atoms: C_37  and  C_45
   11  A    between atoms: C_39  and  C_52
                            x       y       z     vdW  Elec       q    Type
                         _______ _______ _______ _____ _____    ______ ____

>  <TORSDO>
F 11

$$$$
=
 OpenBabel11042419373D

 56 63  0  0  1  0  0  0  0  0999 V2000
  190.0360  175.3340  143.0410 C   0  0  0  0  0  3  0  0  0  0  0  0
  191.2960  172.8770  144.4860 S   0  0  0  0  0  0  0  0  0  0  0  0
  187.4440  176.7470  142.0440 C   0  0  0  0  0  0  0  0  0  0  0  0
  189.8290  173.0090  142.1460 C   0  0  0  0  0  0  0  0  0  0  0  0
  187.6550  175.6530  141.0630 C   0  0  0  0  0  3  0  0  0  0  0  0
  189.4830  174.4240  142.2400 C   0  0  0  0  0  0  0  0  0  0  0  0
  190.9160  170.8680  142.7120 C   0  0  0  0  0  2  0  0  0  0  0  0
  190.5550  172.2710  143.0000 C   0  0  1  0  0  3  0  0  0  0  0  0
  188.5850  174.6910  141.1180 C   0  0  0  0  0  0  0  0  0  0  0  0
  189.2710  172.4610  140.9520 N   0  0  0  0  0  0  0  0  0  0  0  0
  189.8340  176.8000  142.8380 C   0  0  0  0  0  2  0  0  0  0  0  0
  188.3960  177.2120  142.8630 C   0  0  0  0  0  3  0  0  0  0  0  0
  188.5500  173.4950  140.2080 C   0  0  2  0  0  3  0  0  0  0  0  0
  192.6390  171.6890  144.1850 C   0  0  1  0  0  3  0  0  0  0  0  0
  192.2100  170.5750  143.3260 N   0  0  0  0  0  2  0  0  0  0  0  0
  184.1120  178.2870  141.0830 C   0  0  0  0  0  3  0  0  0  0  0  0
  186.0930  177.3370  142.1210 C   0  0  0  0  0  0  0  0  0  0  0  0
  184.2390  178.1110  143.4940 C   0  0  0  0  0  0  0  0  0  0  0  0
  185.3840  177.7240  140.9650 C   0  0  0  0  0  0  0  0  0  0  0  0
  185.9300  177.5510  139.6970 O   0  0  0  0  0  1  0  0  0  0  0  0
  183.5310  178.4800  142.3390 C   0  0  0  0  0  0  0  0  0  0  0  0
  185.5090  177.5400  143.3790 C   0  0  0  0  0  3  0  0  0  0  0  0
  183.7200  178.3390  144.7240 F   0  0  0  0  0  0  0  0  0  0  0  0
  182.1780  179.1190  142.4180 C   0  0  0  0  0  2  0  0  0  0  0  0
  180.2110  177.9160  142.0110 C   0  0  0  0  0  2  0  0  0  0  0  0
  179.2110  179.5570  140.6150 C   0  0  0  0  0  2  0  0  0  0  0  0
  180.6990  179.7930  140.6990 C   0  0  0  0  0  2  0  0  0  0  0  0
  178.9270  178.6950  141.8070 C   0  0  0  0  0  2  0  0  0  0  0  0
  181.3000  178.6350  141.3560 N   0  0  0  0  0  0  0  0  0  0  0  0
  193.8750  172.3920  143.6250 C   0  0  2  0  0  3  0  0  0  0  0  0
  193.9000  172.3300  142.2290 O   0  0  0  0  0  1  0  0  0  0  0  0
  195.0800  171.7760  144.1660 N   0  0  0  0  0  2  0  0  0  0  0  0
  196.0490  175.2090  144.8310 C   0  0  2  0  0  3  0  0  0  0  0  0
  197.1630  173.0820  144.4280 C   0  0  1  0  0  3  0  0  0  0  0  0
  197.4090  174.5230  144.8210 C   0  0  0  0  0  2  0  0  0  0  0  0
  195.7620  172.7970  144.9510 C   0  0  1  0  0  3  0  0  0  0  0  0
  195.3300  174.9280  146.1390 C   0  0  2  0  0  3  0  0  0  0  0  0
  197.1980  172.9840  143.0300 O   0  0  0  0  0  1  0  0  0  0  0  0
  195.0040  174.1090  144.9000 C   0  0  1  0  0  3  0  0  0  0  0  0
  192.9240  175.4900  146.6560 N   0  0  0  0  0  2  0  0  0  0  0  0
  191.8410  176.4190  146.9310 C   0  0  0  0  0  1  0  0  0  0  0  0
  194.5280  177.1660  146.3730 O   0  0  0  0  0  0  0  0  0  0  0  0
  194.2530  175.9350  146.3740 C   0  0  0  0  0  0  0  0  0  0  0  0
  188.2960  174.2320  137.8040 C   0  0  0  0  0  1  0  0  0  0  0  0
  189.2660  173.7720  138.8800 C   0  0  2  0  0  3  0  0  0  0  0  0
  191.2480  172.5660  138.1120 N   0  0  0  0  0  0  0  0  0  0  0  0
  191.6360  171.2810  137.5390 C   0  0  2  0  0  3  0  0  0  0  0  0
  189.3020  171.3360  138.0810 N   0  0  0  0  0  2  0  0  0  0  0  0
  189.9800  172.5530  138.3880 C   0  0  0  0  0  0  0  0  0  0  0  0
  190.3490  170.5370  137.5630 C   0  0  0  0  0  0  0  0  0  0  0  0
  190.1760  169.3670  137.1300 O   0  0  0  0  0  0  0  0  0  0  0  0
  192.5870  170.8900  139.6930 O   0  0  0  0  0  1  0  0  0  0  0  0
  192.7680  170.6080  138.3360 C   0  0  2  0  0  3  0  0  0  0  0  0
  194.1610  171.5710  136.4830 C   0  0  0  0  0  1  0  0  0  0  0  0
  194.1840  171.0160  137.8990 C   0  0  1  0  0  3  0  0  0  0  0  0
  194.7000  171.9910  138.7550 O   0  0  0  0  0  1  0  0  0  0  0  0
  3 17  1  0  0  0  0
  3 12  2  0  0  0  0
  4  6  1  0  0  0  0
  5  9  2  0  0  0  0
  5  3  1  0  0  0  0
  6  1  2  0  0  0  0
  7  8  1  0  0  0  0
  7 15  1  0  0  0  0
  8  4  1  6  0  0  0
  8  2  1  0  0  0  0
  9  6  1  0  0  0  0
 10  4  2  0  0  0  0
 11 12  1  0  0  0  0
 11  1  1  0  0  0  0
 13 45  1  6  0  0  0
 13 10  1  0  0  0  0
 13  9  1  0  0  0  0
 14 30  1  6  0  0  0
 14  2  1  0  0  0  0
 15 14  1  0  0  0  0
 16 21  1  0  0  0  0
 17 22  2  0  0  0  0
 18 23  1  0  0  0  0
 19 16  2  0  0  0  0
 19 17  1  0  0  0  0
 20 19  1  0  0  0  0
 21 24  1  0  0  0  0
 21 18  2  0  0  0  0
 22 18  1  0  0  0  0
 26 27  1  0  0  0  0
 26 28  1  0  0  0  0
 27 29  1  0  0  0  0
 28 25  1  0  0  0  0
 29 25  1  0  0  0  0
 29 24  1  0  0  0  0
 30 31  1  6  0  0  0
 30 32  1  0  0  0  0
 33 35  1  1  0  0  0
 33 39  1  0  0  0  0
 33 37  1  0  0  0  0
 34 38  1  6  0  0  0
 34 35  1  0  0  0  0
 34 36  1  0  0  0  0
 36 32  1  6  0  0  0
 37 43  1  6  0  0  0
 39 36  1  0  0  0  0
 39 37  1  0  0  0  0
 40 41  1  0  0  0  0
 42 43  2  0  0  0  0
 43 40  1  0  0  0  0
 44 45  1  0  0  0  0
 46 49  2  0  0  0  0
 47 50  1  0  0  0  0
 47 46  1  0  0  0  0
 47 53  1  0  0  0  0
 48 49  1  0  0  0  0
 49 45  1  0  0  0  0
 50 48  1  0  0  0  0
 51 50  2  0  0  0  0
 53 52  1  0  0  0  0
 54 55  1  0  0  0  0
 55 53  1  0  0  0  0
 55 56  1  0  0  0  0
M  END
>  <MODEL>
7

>  <REMARK>
 VINA RESULT:      -7.6      2.773      6.087
  Name = 
  11 active torsions:
  status: ('A' for Active; 'I' for Inactive)
    1  A    between atoms: C_4  and  C_41
    2  A    between atoms: C_4  and  N_56
    3  A    between atoms: C_7  and  C_22
    4  A    between atoms: C_9  and  C_47
    5  A    between atoms: C_9  and  N_48
    6  A    between atoms: C_10  and  C_32
    7  A    between atoms: C_23  and  N_48
    8  A    between atoms: C_29  and  C_32
    9  A    between atoms: C_31  and  C_37
   10  A    between atoms: C_37  and  C_45
   11  A    between atoms: C_39  and  C_52
                            x       y       z     vdW  Elec       q    Type
                         _______ _______ _______ _____ _____    ______ ____

>  <TORSDO>
F 11

$$$$
=
 OpenBabel11042419373D

 56 63  0  0  1  0  0  0  0  0999 V2000
  190.3760  174.6730  142.8080 C   0  0  0  0  0  3  0  0  0  0  0  0
  191.3450  172.0710  144.2240 S   0  0  0  0  0  0  0  0  0  0  0  0
  187.9760  176.3090  141.6820 C   0  0  0  0  0  0  0  0  0  0  0  0
  190.0870  172.4100  141.7860 C   0  0  0  0  0  0  0  0  0  0  0  0
  188.1920  175.2460  140.6680 C   0  0  0  0  0  3  0  0  0  0  0  0
  189.8300  173.8400  141.9220 C   0  0  0  0  0  0  0  0  0  0  0  0
  190.9770  170.1740  142.3290 C   0  0  0  0  0  2  0  0  0  0  0  0
  190.6900  171.5850  142.6570 C   0  0  0  0  0  0  0  0  0  0  0  0
  189.0480  174.2190  140.7470 C   0  0  0  0  0  0  0  0  0  0  0  0
  189.5920  171.9550  140.5260 N   0  0  0  0  0  2  0  0  0  0  0  0
  190.2910  176.1570  142.6620 C   0  0  0  0  0  2  0  0  0  0  0  0
  188.8870  176.6690  142.5950 C   0  0  0  0  0  3  0  0  0  0  0  0
  189.0060  173.0690  139.7800 C   0  0  2  0  0  3  0  0  0  0  0  0
  192.6250  170.8050  143.9720 C   0  0  1  0  0  3  0  0  0  0  0  0
  192.1940  169.7630  143.0280 N   0  0  0  0  0  2  0  0  0  0  0  0
  184.8770  178.1850  140.5520 C   0  0  0  0  0  3  0  0  0  0  0  0
  186.6660  176.9900  141.6820 C   0  0  0  0  0  0  0  0  0  0  0  0
  184.7260  177.7630  142.9300 C   0  0  0  0  0  0  0  0  0  0  0  0
  186.1160  177.5410  140.5060 C   0  0  0  0  0  0  0  0  0  0  0  0
  186.7850  177.4540  139.2900 O   0  0  0  0  0  1  0  0  0  0  0  0
  184.1750  178.2970  141.7540 C   0  0  0  0  0  0  0  0  0  0  0  0
  185.9610  177.1110  142.8870 C   0  0  0  0  0  3  0  0  0  0  0  0
  184.0900  177.9070  144.1180 F   0  0  0  0  0  0  0  0  0  0  0  0
  182.8660  179.0260  141.7610 C   0  0  0  0  0  2  0  0  0  0  0  0
  180.6120  178.7430  142.3250 C   0  0  0  0  0  2  0  0  0  0  0  0
  179.8880  178.1680  140.1370 C   0  0  0  0  0  2  0  0  0  0  0  0
  181.3800  177.9740  140.2510 C   0  0  0  0  0  2  0  0  0  0  0  0
  179.5660  179.0810  141.2810 C   0  0  0  0  0  2  0  0  0  0  0  0
  181.7420  178.1010  141.6600 N   0  0  0  0  0  0  0  0  0  0  0  0
  193.9480  171.4420  143.5460 C   0  0  2  0  0  3  0  0  0  0  0  0
  194.2770  171.0900  142.2340 O   0  0  0  0  0  1  0  0  0  0  0  0
  195.0110  171.0210  144.4490 N   0  0  0  0  0  2  0  0  0  0  0  0
  195.7220  174.4870  145.2570 C   0  0  2  0  0  3  0  0  0  0  0  0
  196.6930  172.3050  145.7300 C   0  0  1  0  0  3  0  0  0  0  0  0
  196.7940  173.7760  146.0710 C   0  0  0  0  0  2  0  0  0  0  0  0
  195.2200  172.1110  145.3940 C   0  0  1  0  0  3  0  0  0  0  0  0
  194.3760  174.3730  145.9500 C   0  0  2  0  0  3  0  0  0  0  0  0
  197.4930  172.0460  144.6080 O   0  0  0  0  0  1  0  0  0  0  0  0
  194.7300  173.4250  144.8160 C   0  0  1  0  0  3  0  0  0  0  0  0
  192.2790  175.7520  146.2220 N   0  0  0  0  0  2  0  0  0  0  0  0
  191.3490  176.7900  145.8110 C   0  0  0  0  0  1  0  0  0  0  0  0
  193.6970  176.0490  144.3880 O   0  0  0  0  0  0  0  0  0  0  0  0
  193.4380  175.4230  145.4520 C   0  0  0  0  0  0  0  0  0  0  0  0
  189.4470  172.4530  137.3690 C   0  0  0  0  0  1  0  0  0  0  0  0
  189.8460  173.3530  138.5270 C   0  0  2  0  0  3  0  0  0  0  0  0
  192.0850  174.1560  139.0850 N   0  0  0  0  0  0  0  0  0  0  0  0
  193.4630  173.6850  139.1770 C   0  0  2  0  0  3  0  0  0  0  0  0
  191.9530  171.8980  138.6560 N   0  0  0  0  0  2  0  0  0  0  0  0
  191.3030  173.1600  138.8010 C   0  0  0  0  0  0  0  0  0  0  0  0
  193.3050  172.2310  138.9080 C   0  0  0  0  0  0  0  0  0  0  0  0
  194.2450  171.3950  138.8490 O   0  0  0  0  0  0  0  0  0  0  0  0
  193.3010  174.9530  141.1930 O   0  0  0  0  0  1  0  0  0  0  0  0
  194.0980  174.0070  140.5420 C   0  0  2  0  0  3  0  0  0  0  0  0
  195.6470  175.9270  141.0010 C   0  0  0  0  0  1  0  0  0  0  0  0
  195.5500  174.5070  140.4670 C   0  0  1  0  0  3  0  0  0  0  0  0
  196.3920  173.6850  141.2200 O   0  0  0  0  0  1  0  0  0  0  0  0
  3 12  2  0  0  0  0
  4  6  1  0  0  0  0
  4  8  2  0  0  0  0
  5  9  2  0  0  0  0
  5  3  1  0  0  0  0
  6  1  2  0  0  0  0
  7  8  1  0  0  0  0
  7 15  1  0  0  0  0
  8  2  1  0  0  0  0
  9  6  1  0  0  0  0
 10  4  1  0  0  0  0
 11  1  1  0  0  0  0
 12 11  1  0  0  0  0
 13 45  1  6  0  0  0
 13 10  1  0  0  0  0
 13  9  1  0  0  0  0
 14 30  1  6  0  0  0
 14  2  1  0  0  0  0
 15 14  1  0  0  0  0
 16 21  1  0  0  0  0
 17  3  1  0  0  0  0
 17 22  2  0  0  0  0
 18 23  1  0  0  0  0
 19 16  2  0  0  0  0
 19 17  1  0  0  0  0
 20 19  1  0  0  0  0
 21 24  1  0  0  0  0
 21 18  2  0  0  0  0
 22 18  1  0  0  0  0
 26 27  1  0  0  0  0
 26 28  1  0  0  0  0
 27 29  1  0  0  0  0
 28 25  1  0  0  0  0
 29 24  1  0  0  0  0
 29 25  1  0  0  0  0
 30 31  1  6  0  0  0
 30 32  1  0  0  0  0
 33 37  1  0  0  0  0
 33 35  1  1  0  0  0
 34 38  1  6  0  0  0
 34 35  1  0  0  0  0
 36 32  1  6  0  0  0
 36 34  1  0  0  0  0
 37 43  1  6  0  0  0
 39 33  1  0  0  0  0
 39 36  1  0  0  0  0
 39 37  1  0  0  0  0
 41 40  1  0  0  0  0
 42 43  2  0  0  0  0
 43 40  1  0  0  0  0
 44 45  1  0  0  0  0
 45 49  1  0  0  0  0
 46 47  1  0  0  0  0
 47 53  1  0  0  0  0
 48 49  1  0  0  0  0
 48 50  1  0  0  0  0
 49 46  2  0  0  0  0
 50 47  1  0  0  0  0
 51 50  2  0  0  0  0
 53 52  1  0  0  0  0
 55 53  1  0  0  0  0
 55 54  1  0  0  0  0
 55 56  1  0  0  0  0
M  END
>  <MODEL>
8

>  <REMARK>
 VINA RESULT:      -7.6      2.546      5.426
  Name = 
  11 active torsions:
  status: ('A' for Active; 'I' for Inactive)
    1  A    between atoms: C_4  and  C_41
    2  A    between atoms: C_4  and  N_56
    3  A    between atoms: C_7  and  C_22
    4  A    between atoms: C_9  and  C_47
    5  A    between atoms: C_9  and  N_48
    6  A    between atoms: C_10  and  C_32
    7  A    between atoms: C_23  and  N_48
    8  A    between atoms: C_29  and  C_32
    9  A    between atoms: C_31  and  C_37
   10  A    between atoms: C_37  and  C_45
   11  A    between atoms: C_39  and  C_52
                            x       y       z     vdW  Elec       q    Type
                         _______ _______ _______ _____ _____    ______ ____

>  <TORSDO>
F 11

$$$$
=
 OpenBabel11042419373D

 56 63  0  0  1  0  0  0  0  0999 V2000
  190.2040  176.6350  143.3750 C   0  0  0  0  0  3  0  0  0  0  0  0
  191.8580  174.9580  145.4170 S   0  0  0  0  0  0  0  0  0  0  0  0
  187.3980  177.3280  142.2120 C   0  0  0  0  0  0  0  0  0  0  0  0
  190.2800  174.1370  143.3000 C   0  0  0  0  0  0  0  0  0  0  0  0
  187.7130  176.0020  141.6220 C   0  0  0  0  0  3  0  0  0  0  0  0
  189.7460  175.4530  142.9640 C   0  0  0  0  0  0  0  0  0  0  0  0
  191.6790  172.4460  144.4270 C   0  0  0  0  0  2  0  0  0  0  0  0
  191.1410  173.8130  144.2780 C   0  0  0  0  0  0  0  0  0  0  0  0
  188.7690  175.2270  141.9000 C   0  0  0  0  0  0  0  0  0  0  0  0
  189.7480  173.1630  142.4020 N   0  0  0  0  0  2  0  0  0  0  0  0
  189.7920  177.9170  142.7290 C   0  0  0  0  0  2  0  0  0  0  0  0
  188.3140  178.1450  142.7490 C   0  0  0  0  0  3  0  0  0  0  0  0
  188.8580  173.8020  141.4320 C   0  0  2  0  0  3  0  0  0  0  0  0
  193.3380  173.9020  145.3960 C   0  0  1  0  0  3  0  0  0  0  0  0
  193.0280  172.5240  144.9850 N   0  0  0  0  0  2  0  0  0  0  0  0
  183.9140  178.3040  141.0680 C   0  0  0  0  0  3  0  0  0  0  0  0
  185.9830  177.7500  142.2160 C   0  0  0  0  0  0  0  0  0  0  0  0
  184.0280  178.4560  143.4810 C   0  0  0  0  0  0  0  0  0  0  0  0
  185.2490  177.8940  141.0210 C   0  0  0  0  0  0  0  0  0  0  0  0
  185.8290  177.6290  139.7850 O   0  0  0  0  0  1  0  0  0  0  0  0
  183.2970  178.5820  142.2900 C   0  0  0  0  0  0  0  0  0  0  0  0
  185.3610  178.0380  143.4380 C   0  0  0  0  0  3  0  0  0  0  0  0
  183.4680  178.7730  144.6730 F   0  0  0  0  0  0  0  0  0  0  0  0
  181.8740  179.0520  142.2880 C   0  0  0  0  0  2  0  0  0  0  0  0
  180.1180  177.8300  141.3370 C   0  0  0  0  0  2  0  0  0  0  0  0
  179.1750  179.6550  140.1450 C   0  0  0  0  0  2  0  0  0  0  0  0
  180.6030  179.9690  140.5160 C   0  0  0  0  0  2  0  0  0  0  0  0
  178.8060  178.5450  141.0820 C   0  0  0  0  0  2  0  0  0  0  0  0
  181.2140  178.7430  141.0230 N   0  0  0  0  0  0  0  0  0  0  0  0
  194.4370  174.5170  144.5310 C   0  0  2  0  0  3  0  0  0  0  0  0
  195.2850  175.3250  145.2940 O   0  0  0  0  0  1  0  0  0  0  0  0
  193.8400  175.3050  143.4610 N   0  0  0  0  0  2  0  0  0  0  0  0
  196.5010  173.9030  141.4310 C   0  0  2  0  0  3  0  0  0  0  0  0
  195.0670  175.8690  141.3890 C   0  0  1  0  0  3  0  0  0  0  0  0
  196.1040  175.1080  140.5910 C   0  0  0  0  0  2  0  0  0  0  0  0
  194.3730  174.7880  142.2070 C   0  0  1  0  0  3  0  0  0  0  0  0
  195.4860  172.7870  141.2610 C   0  0  2  0  0  3  0  0  0  0  0  0
  195.7230  176.7790  142.2290 O   0  0  0  0  0  1  0  0  0  0  0  0
  195.4070  173.7100  142.4660 C   0  0  1  0  0  3  0  0  0  0  0  0
  195.6110  170.8410  142.8630 N   0  0  0  0  0  2  0  0  0  0  0  0
  196.1140  169.5470  143.2940 C   0  0  0  0  0  1  0  0  0  0  0  0
  196.9320  170.9120  140.9370 O   0  0  0  0  0  0  0  0  0  0  0  0
  196.0730  171.4760  141.6690 C   0  0  0  0  0  0  0  0  0  0  0  0
  188.4860  174.1610  138.9590 C   0  0  0  0  0  1  0  0  0  0  0  0
  189.4660  173.7040  140.0270 C   0  0  2  0  0  3  0  0  0  0  0  0
  190.9270  171.7610  140.2750 N   0  0  0  0  0  0  0  0  0  0  0  0
  191.1640  170.4440  139.6930 C   0  0  2  0  0  3  0  0  0  0  0  0
  189.2510  171.5100  138.7170 N   0  0  0  0  0  2  0  0  0  0  0  0
  189.8870  172.3020  139.7190 C   0  0  0  0  0  0  0  0  0  0  0  0
  190.0470  170.3400  138.7160 C   0  0  0  0  0  0  0  0  0  0  0  0
  189.8490  169.3700  137.9370 O   0  0  0  0  0  0  0  0  0  0  0  0
  190.7810  169.8800  141.9810 O   0  0  0  0  0  1  0  0  0  0  0  0
  191.1750  169.3320  140.7570 C   0  0  2  0  0  3  0  0  0  0  0  0
  193.6060  169.3470  140.1310 C   0  0  0  0  0  1  0  0  0  0  0  0
  192.5270  168.6150  140.9140 C   0  0  1  0  0  3  0  0  0  0  0  0
  192.9030  168.5660  142.2580 O   0  0  0  0  0  1  0  0  0  0  0  0
  3 17  1  0  0  0  0
  3 12  2  0  0  0  0
  4  8  2  0  0  0  0
  5  9  2  0  0  0  0
  5  3  1  0  0  0  0
  6  4  1  0  0  0  0
  6  1  2  0  0  0  0
  7 15  1  0  0  0  0
  8  7  1  0  0  0  0
  8  2  1  0  0  0  0
  9  6  1  0  0  0  0
 10  4  1  0  0  0  0
 11 12  1  0  0  0  0
 11  1  1  0  0  0  0
 13 45  1  6  0  0  0
 13  9  1  0  0  0  0
 13 10  1  0  0  0  0
 14 30  1  6  0  0  0
 14  2  1  0  0  0  0
 15 14  1  0  0  0  0
 16 21  1  0  0  0  0
 17 22  2  0  0  0  0
 18 23  1  0  0  0  0
 19 16  2  0  0  0  0
 19 17  1  0  0  0  0
 20 19  1  0  0  0  0
 21 18  2  0  0  0  0
 22 18  1  0  0  0  0
 24 21  1  0  0  0  0
 26 27  1  0  0  0  0
 26 28  1  0  0  0  0
 27 29  1  0  0  0  0
 28 25  1  0  0  0  0
 29 25  1  0  0  0  0
 29 24  1  0  0  0  0
 30 31  1  1  0  0  0
 32 30  1  0  0  0  0
 33 35  1  6  0  0  0
 33 39  1  0  0  0  0
 34 36  1  0  0  0  0
 34 38  1  1  0  0  0
 35 34  1  0  0  0  0
 36 39  1  0  0  0  0
 36 32  1  1  0  0  0
 37 33  1  0  0  0  0
 37 43  1  1  0  0  0
 37 39  1  0  0  0  0
 40 41  1  0  0  0  0
 42 43  2  0  0  0  0
 43 40  1  0  0  0  0
 44 45  1  0  0  0  0
 47 46  1  0  0  0  0
 47 53  1  0  0  0  0
 48 49  1  0  0  0  0
 49 45  1  0  0  0  0
 49 46  2  0  0  0  0
 50 48  1  0  0  0  0
 50 47  1  0  0  0  0
 51 50  2  0  0  0  0
 53 55  1  0  0  0  0
 53 52  1  0  0  0  0
 54 55  1  0  0  0  0
 55 56  1  0  0  0  0
M  END
>  <MODEL>
9

>  <REMARK>
 VINA RESULT:      -7.5      2.851      5.908
  Name = 
  11 active torsions:
  status: ('A' for Active; 'I' for Inactive)
    1  A    between atoms: C_4  and  C_41
    2  A    between atoms: C_4  and  N_56
    3  A    between atoms: C_7  and  C_22
    4  A    between atoms: C_9  and  C_47
    5  A    between atoms: C_9  and  N_48
    6  A    between atoms: C_10  and  C_32
    7  A    between atoms: C_23  and  N_48
    8  A    between atoms: C_29  and  C_32
    9  A    between atoms: C_31  and  C_37
   10  A    between atoms: C_37  and  C_45
   11  A    between atoms: C_39  and  C_52
                            x       y       z     vdW  Elec       q    Type
                         _______ _______ _______ _____ _____    ______ ____

>  <TORSDO>
F 11

$$$$
