=
 OpenBabel11042413363D

 42 47  0  0  1  0  0  0  0  0999 V2000
  191.6330  172.8210  143.0890 N   0  0  0  0  0  1  0  0  0  0  0  0
  186.9940  175.9790  142.1450 C   0  0  0  0  0  3  0  0  0  0  0  0
  188.1550  175.8750  144.7270 N   0  0  0  0  0  0  0  0  0  0  0  0
  188.2170  175.2000  142.3650 C   0  0  0  0  0  0  0  0  0  0  0  0
  186.7490  177.8630  147.0710 S   0  0  0  0  0  0  0  0  0  0  0  0
  186.5200  176.7850  143.0970 C   0  0  0  0  0  0  0  0  0  0  0  0
  184.5840  178.0080  143.8850 N   0  0  0  0  0  0  0  0  0  0  0  0
  189.9210  173.6860  141.5320 C   0  0  0  0  0  0  0  0  0  0  0  0
  188.7670  175.1290  143.6550 C   0  0  0  0  0  0  0  0  0  0  0  0
  184.5020  178.6160  146.3030 C   0  0  0  0  0  3  0  0  0  0  0  0
  185.1360  178.0220  145.2060 C   0  0  0  0  0  0  0  0  0  0  0  0
  189.8990  174.3330  143.8770 C   0  0  0  0  0  3  0  0  0  0  0  0
  186.3910  177.5020  145.4720 C   0  0  0  0  0  0  0  0  0  0  0  0
  190.4800  173.6160  142.8270 C   0  0  0  0  0  0  0  0  0  0  0  0
  187.3160  177.0360  144.3730 C   0  0  0  0  0  0  0  0  0  0  0  0
  188.7860  174.4760  141.3160 C   0  0  0  0  0  2  0  0  0  0  0  0
  185.2090  177.4380  142.8970 C   0  0  0  0  0  3  0  0  0  0  0  0
  185.2810  178.6010  147.4600 C   0  0  0  0  0  3  0  0  0  0  0  0
  192.0480  173.1180  138.3900 C   0  0  0  0  0  3  0  0  0  0  0  0
  191.6670  173.6810  139.7370 C   0  0  0  0  0  2  0  0  0  0  0  0
  190.4850  172.9390  140.3590 C   0  0  2  0  0  3  0  0  0  0  0  0
  189.4240  172.6520  139.3070 C   0  0  0  0  0  2  0  0  0  0  0  0
  191.2900  172.3070  137.7280 N   0  0  0  0  0  0  0  0  0  0  0  0
  190.0450  171.7600  138.2390 C   0  0  0  0  0  2  0  0  0  0  0  0
  188.6480  175.7310  146.0350 N   0  0  0  0  0  2  0  0  0  0  0  0
  189.8340  176.5650  146.1480 C   0  0  0  0  0  2  0  0  0  0  0  0
  190.5560  176.2380  147.4370 C   0  0  0  0  0  2  0  0  0  0  0  0
  191.7890  175.4170  147.1270 C   0  0  0  0  0  2  0  0  0  0  0  0
  192.9600  176.3460  146.8780 C   0  0  0  0  0  2  0  0  0  0  0  0
  193.6630  174.3050  145.8770 O   0  0  0  0  0  1  0  0  0  0  0  0
  193.9970  175.6550  146.0060 C   0  0  1  0  0  3  0  0  0  0  0  0
  193.2610  176.2120  142.5100 C   0  0  0  0  0  2  0  0  0  0  0  0
  192.9370  175.9260  143.8540 O   0  0  0  0  0  0  0  0  0  0  0  0
  194.0480  176.3120  144.6290 C   0  0  2  0  0  3  0  0  0  0  0  0
  194.6390  175.6580  142.1740 C   0  0  1  0  0  0  0  0  0  0  0  0
  195.5270  175.8180  143.7170 P   0  0  1  0  0  0  0  0  0  0  0  0
  196.6980  177.0400  143.7050 O   0  0  0  0  0  0  0  0  0  0  0  0
  196.0990  174.5010  144.1910 O   0  0  0  0  0  1  0  0  0  0  0  0
  194.5410  174.3120  141.8150 O   0  0  0  0  0  1  0  0  0  0  0  0
  195.3170  176.4610  141.0720 C   0  0  0  0  0  2  0  0  0  0  0  0
  195.8770  175.5790  140.0590 N   0  0  0  0  0  2  0  0  0  0  0  0
  197.3200  175.6810  140.1720 C   0  0  0  0  0  1  0  0  0  0  0  0
  2  4  2  0  0  0  0
  2  6  1  0  0  0  0
  3 25  1  0  0  0  0
  4  9  1  0  0  0  0
  5 18  1  0  0  0  0
  6 15  1  0  0  0  0
  7 11  2  0  0  0  0
  8 14  2  0  0  0  0
  9 12  2  0  0  0  0
  9  3  1  0  0  0  0
 10 18  2  0  0  0  0
 11 13  1  0  0  0  0
 11 10  1  0  0  0  0
 13  5  1  0  0  0  0
 14  1  1  0  0  0  0
 14 12  1  0  0  0  0
 15  3  1  0  0  0  0
 15 13  2  0  0  0  0
 16  8  1  0  0  0  0
 16  4  1  0  0  0  0
 17  6  2  0  0  0  0
 17  7  1  0  0  0  0
 19 20  1  0  0  0  0
 20 21  1  0  0  0  0
 21  8  1  1  0  0  0
 22 21  1  0  0  0  0
 23 24  1  0  0  0  0
 23 19  2  0  0  0  0
 24 22  1  0  0  0  0
 25 26  1  0  0  0  0
 26 27  1  0  0  0  0
 28 27  1  0  0  0  0
 29 28  1  0  0  0  0
 31 30  1  6  0  0  0
 31 29  1  0  0  0  0
 32 33  1  0  0  0  0
 33 34  1  0  0  0  0
 34 31  1  1  0  0  0
 35 39  1  6  0  0  0
 35 32  1  0  0  0  0
 35 36  1  0  0  0  0
 36 37  2  6  0  0  0
 36 38  1  0  0  0  0
 36 34  1  0  0  0  0
 40 35  1  0  0  0  0
 41 42  1  0  0  0  0
 41 40  1  0  0  0  0
M  END
>  <MODEL>
1

>  <REMARK>
 VINA RESULT:      -7.7      0.000      0.000
  Name = 
  10 active torsions:
  status: ('A' for Active; 'I' for Inactive)
    1  A    between atoms: C_5  and  C_36
    2  A    between atoms: N_6  and  N_21
    3  A    between atoms: C_7  and  C_25
    4  A    between atoms: N_8  and  C_25
    5  A    between atoms: C_13  and  C_20
    6  A    between atoms: C_15  and  C_17
    7  A    between atoms: C_15  and  C_41
    8  A    between atoms: C_17  and  C_22
    9  A    between atoms: N_21  and  C_22
   10  A    between atoms: C_36  and  C_41
                            x       y       z     vdW  Elec       q    Type
                         _______ _______ _______ _____ _____    ______ ____

>  <TORSDO>
F 10

$$$$
=
 OpenBabel11042413363D

 42 47  0  0  1  0  0  0  0  0999 V2000
  191.8280  172.7850  143.2560 N   0  0  0  0  0  1  0  0  0  0  0  0
  187.1860  175.8970  142.1840 C   0  0  0  0  0  3  0  0  0  0  0  0
  188.2680  175.7940  144.7990 N   0  0  0  0  0  0  0  0  0  0  0  0
  188.4100  175.1300  142.4370 C   0  0  0  0  0  0  0  0  0  0  0  0
  186.7710  177.7570  147.1080 S   0  0  0  0  0  0  0  0  0  0  0  0
  186.6740  176.6930  143.1230 C   0  0  0  0  0  0  0  0  0  0  0  0
  184.7010  177.8930  143.8570 N   0  0  0  0  0  0  0  0  0  0  0  0
  190.1550  173.6390  141.6500 C   0  0  0  0  0  0  0  0  0  0  0  0
  188.9210  175.0600  143.7430 C   0  0  0  0  0  0  0  0  0  0  0  0
  184.5400  178.4890  146.2740 C   0  0  0  0  0  3  0  0  0  0  0  0
  185.2130  177.9070  145.1950 C   0  0  0  0  0  0  0  0  0  0  0  0
  190.0550  174.2750  143.9960 C   0  0  0  0  0  3  0  0  0  0  0  0
  186.4650  177.3990  145.4960 C   0  0  0  0  0  0  0  0  0  0  0  0
  190.6750  173.5690  142.9620 C   0  0  0  0  0  0  0  0  0  0  0  0
  187.4280  176.9480  144.4250 C   0  0  0  0  0  0  0  0  0  0  0  0
  189.0190  174.4170  141.4040 C   0  0  0  0  0  2  0  0  0  0  0  0
  185.3630  177.3330  142.8860 C   0  0  0  0  0  3  0  0  0  0  0  0
  185.2830  178.4770  147.4540 C   0  0  0  0  0  3  0  0  0  0  0  0
  190.7690  172.7070  137.9800 C   0  0  0  0  0  3  0  0  0  0  0  0
  190.4390  173.5820  139.1630 C   0  0  0  0  0  2  0  0  0  0  0  0
  190.7630  172.9030  140.4920 C   0  0  2  0  0  3  0  0  0  0  0  0
  190.3340  171.4430  140.4620 C   0  0  0  0  0  2  0  0  0  0  0  0
  191.0190  171.4430  138.0900 N   0  0  0  0  0  0  0  0  0  0  0  0
  191.1180  170.7430  139.3580 C   0  0  0  0  0  2  0  0  0  0  0  0
  188.7230  175.6500  146.1210 N   0  0  0  0  0  2  0  0  0  0  0  0
  189.9220  176.4600  146.2600 C   0  0  0  0  0  2  0  0  0  0  0  0
  190.9220  175.7310  147.1310 C   0  0  0  0  0  2  0  0  0  0  0  0
  192.3070  176.2880  146.8810 C   0  0  0  0  0  2  0  0  0  0  0  0
  193.1090  175.2910  146.0700 C   0  0  0  0  0  2  0  0  0  0  0  0
  193.0130  177.1780  144.6230 O   0  0  0  0  0  1  0  0  0  0  0  0
  193.3130  175.8140  144.6570 C   0  0  1  0  0  3  0  0  0  0  0  0
  196.6440  176.6070  143.4950 C   0  0  0  0  0  2  0  0  0  0  0  0
  195.4910  176.7880  144.2910 O   0  0  0  0  0  0  0  0  0  0  0  0
  194.7570  175.5880  144.2150 C   0  0  2  0  0  3  0  0  0  0  0  0
  196.2570  176.0500  142.1320 C   0  0  1  0  0  0  0  0  0  0  0  0
  194.8420  175.0220  142.5020 P   0  0  1  0  0  0  0  0  0  0  0  0
  195.1600  173.3630  142.4000 O   0  0  0  0  0  1  0  0  0  0  0  0
  193.6240  175.4080  141.6920 O   0  0  0  0  0  0  0  0  0  0  0  0
  195.8850  177.0880  141.2760 O   0  0  0  0  0  1  0  0  0  0  0  0
  197.3820  175.2250  141.5190 C   0  0  0  0  0  2  0  0  0  0  0  0
  197.3230  175.2680  140.0660 N   0  0  0  0  0  2  0  0  0  0  0  0
  197.4150  173.8950  139.6070 C   0  0  0  0  0  1  0  0  0  0  0  0
  2  4  2  0  0  0  0
  2  6  1  0  0  0  0
  3 25  1  0  0  0  0
  4  9  1  0  0  0  0
  5 18  1  0  0  0  0
  6 15  1  0  0  0  0
  7 11  2  0  0  0  0
  8 14  2  0  0  0  0
  9 12  2  0  0  0  0
  9  3  1  0  0  0  0
 10 18  2  0  0  0  0
 11 13  1  0  0  0  0
 11 10  1  0  0  0  0
 13  5  1  0  0  0  0
 14  1  1  0  0  0  0
 14 12  1  0  0  0  0
 15  3  1  0  0  0  0
 15 13  2  0  0  0  0
 16  8  1  0  0  0  0
 16  4  1  0  0  0  0
 17  6  2  0  0  0  0
 17  7  1  0  0  0  0
 19 23  2  0  0  0  0
 19 20  1  0  0  0  0
 20 21  1  0  0  0  0
 21  8  1  1  0  0  0
 22 21  1  0  0  0  0
 23 24  1  0  0  0  0
 24 22  1  0  0  0  0
 25 26  1  0  0  0  0
 26 27  1  0  0  0  0
 28 27  1  0  0  0  0
 29 28  1  0  0  0  0
 31 30  1  1  0  0  0
 31 29  1  0  0  0  0
 32 33  1  0  0  0  0
 34 33  1  0  0  0  0
 34 31  1  6  0  0  0
 35 39  1  6  0  0  0
 35 36  1  0  0  0  0
 35 32  1  0  0  0  0
 36 38  2  6  0  0  0
 36 34  1  0  0  0  0
 37 36  1  0  0  0  0
 40 35  1  0  0  0  0
 41 40  1  0  0  0  0
 42 41  1  0  0  0  0
M  END
>  <MODEL>
2

>  <REMARK>
 VINA RESULT:      -7.6      1.094      1.599
  Name = 
  10 active torsions:
  status: ('A' for Active; 'I' for Inactive)
    1  A    between atoms: C_5  and  C_36
    2  A    between atoms: N_6  and  N_21
    3  A    between atoms: C_7  and  C_25
    4  A    between atoms: N_8  and  C_25
    5  A    between atoms: C_13  and  C_20
    6  A    between atoms: C_15  and  C_17
    7  A    between atoms: C_15  and  C_41
    8  A    between atoms: C_17  and  C_22
    9  A    between atoms: N_21  and  C_22
   10  A    between atoms: C_36  and  C_41
                            x       y       z     vdW  Elec       q    Type
                         _______ _______ _______ _____ _____    ______ ____

>  <TORSDO>
F 10

$$$$
=
 OpenBabel11042413363D

 42 47  0  0  1  0  0  0  0  0999 V2000
  195.3030  175.3860  145.9650 N   0  0  0  0  0  1  0  0  0  0  0  0
  190.8720  177.0850  142.8230 C   0  0  0  0  0  3  0  0  0  0  0  0
  190.6190  176.8220  145.6320 N   0  0  0  0  0  0  0  0  0  0  0  0
  192.0340  176.6930  143.6270 C   0  0  0  0  0  0  0  0  0  0  0  0
  187.6540  177.7630  146.9530 S   0  0  0  0  0  0  0  0  0  0  0  0
  189.7460  177.4950  143.4090 C   0  0  0  0  0  0  0  0  0  0  0  0
  187.3730  177.8770  143.1100 N   0  0  0  0  0  0  0  0  0  0  0  0
  194.3500  175.9790  143.7630 C   0  0  0  0  0  0  0  0  0  0  0  0
  191.8910  176.5350  145.0150 C   0  0  0  0  0  0  0  0  0  0  0  0
  185.9400  177.9260  145.1520 C   0  0  0  0  0  3  0  0  0  0  0  0
  187.1850  177.7920  144.5270 C   0  0  0  0  0  0  0  0  0  0  0  0
  192.9860  176.0990  145.7740 C   0  0  0  0  0  3  0  0  0  0  0  0
  188.2560  177.6410  145.3910 C   0  0  0  0  0  0  0  0  0  0  0  0
  194.2110  175.8240  145.1600 C   0  0  0  0  0  0  0  0  0  0  0  0
  189.6870  177.7150  144.9170 C   0  0  0  0  0  0  0  0  0  0  0  0
  193.2520  176.4080  143.0090 C   0  0  0  0  0  3  0  0  0  0  0  0
  188.5500  177.7390  142.5740 C   0  0  0  0  0  2  0  0  0  0  0  0
  186.0230  177.9180  146.5440 C   0  0  0  0  0  3  0  0  0  0  0  0
  196.8540  176.0320  140.8580 C   0  0  0  0  0  3  0  0  0  0  0  0
  195.7410  176.5180  141.7530 C   0  0  0  0  0  2  0  0  0  0  0  0
  195.6310  175.6960  143.0350 C   0  0  2  0  0  3  0  0  0  0  0  0
  195.7950  174.2140  142.7330 C   0  0  0  0  0  2  0  0  0  0  0  0
  197.4420  174.8930  141.0250 N   0  0  0  0  0  0  0  0  0  0  0  0
  197.1830  174.0020  142.1410 C   0  0  0  0  0  2  0  0  0  0  0  0
  190.4490  176.5760  147.0050 N   0  0  0  0  0  2  0  0  0  0  0  0
  190.5310  175.1380  147.2040 C   0  0  0  0  0  2  0  0  0  0  0  0
  189.3440  174.4710  146.5440 C   0  0  0  0  0  2  0  0  0  0  0  0
  189.8330  173.5090  145.4830 C   0  0  0  0  0  2  0  0  0  0  0  0
  189.3870  173.9960  144.1200 C   0  0  0  0  0  2  0  0  0  0  0  0
  189.0080  171.8810  143.0980 O   0  0  0  0  0  1  0  0  0  0  0  0
  189.8250  173.0130  143.0460 C   0  0  1  0  0  3  0  0  0  0  0  0
  188.6080  173.6500  139.7010 C   0  0  0  0  0  2  0  0  0  0  0  0
  188.4720  173.3990  141.0850 O   0  0  0  0  0  0  0  0  0  0  0  0
  189.7270  173.6610  141.6670 C   0  0  2  0  0  3  0  0  0  0  0  0
  189.8470  172.9480  139.1620 C   0  0  1  0  0  0  0  0  0  0  0  0
  190.9810  173.0090  140.5420 P   0  0  1  0  0  0  0  0  0  0  0  0
  192.2600  174.0960  140.3250 O   0  0  0  0  0  0  0  0  0  0  0  0
  191.4750  171.6370  140.9410 O   0  0  0  0  0  1  0  0  0  0  0  0
  189.5480  171.6220  138.8450 O   0  0  0  0  0  1  0  0  0  0  0  0
  190.4240  173.6730  137.9520 C   0  0  0  0  0  2  0  0  0  0  0  0
  189.3640  174.1090  137.0560 N   0  0  0  0  0  2  0  0  0  0  0  0
  189.5880  173.4350  135.7910 C   0  0  0  0  0  1  0  0  0  0  0  0
  2  6  2  0  0  0  0
  2  4  1  0  0  0  0
  3 25  1  0  0  0  0
  4  9  1  0  0  0  0
  6 15  1  0  0  0  0
  7 11  2  0  0  0  0
  8 14  2  0  0  0  0
  9  3  1  0  0  0  0
  9 12  2  0  0  0  0
 10 18  2  0  0  0  0
 11 10  1  0  0  0  0
 11 13  1  0  0  0  0
 13  5  1  0  0  0  0
 14 12  1  0  0  0  0
 14  1  1  0  0  0  0
 15 13  2  0  0  0  0
 15  3  1  0  0  0  0
 16  4  2  0  0  0  0
 16  8  1  0  0  0  0
 17  7  1  0  0  0  0
 17  6  1  0  0  0  0
 18  5  1  0  0  0  0
 19 23  2  0  0  0  0
 19 20  1  0  0  0  0
 20 21  1  0  0  0  0
 21  8  1  6  0  0  0
 22 21  1  0  0  0  0
 23 24  1  0  0  0  0
 24 22  1  0  0  0  0
 25 26  1  0  0  0  0
 27 26  1  0  0  0  0
 28 27  1  0  0  0  0
 29 28  1  0  0  0  0
 31 30  1  6  0  0  0
 31 29  1  0  0  0  0
 32 33  1  0  0  0  0
 33 34  1  0  0  0  0
 34 31  1  1  0  0  0
 35 39  1  6  0  0  0
 35 32  1  0  0  0  0
 35 36  1  0  0  0  0
 36 37  2  6  0  0  0
 36 38  1  0  0  0  0
 36 34  1  0  0  0  0
 40 35  1  0  0  0  0
 41 40  1  0  0  0  0
 42 41  1  0  0  0  0
M  END
>  <MODEL>
3

>  <REMARK>
 VINA RESULT:      -7.6      2.690      5.172
  Name = 
  10 active torsions:
  status: ('A' for Active; 'I' for Inactive)
    1  A    between atoms: C_5  and  C_36
    2  A    between atoms: N_6  and  N_21
    3  A    between atoms: C_7  and  C_25
    4  A    between atoms: N_8  and  C_25
    5  A    between atoms: C_13  and  C_20
    6  A    between atoms: C_15  and  C_17
    7  A    between atoms: C_15  and  C_41
    8  A    between atoms: C_17  and  C_22
    9  A    between atoms: N_21  and  C_22
   10  A    between atoms: C_36  and  C_41
                            x       y       z     vdW  Elec       q    Type
                         _______ _______ _______ _____ _____    ______ ____

>  <TORSDO>
F 10

$$$$
=
 OpenBabel11042413363D

 42 47  0  0  1  0  0  0  0  0999 V2000
  191.8360  172.5420  143.9540 N   0  0  0  0  0  1  0  0  0  0  0  0
  187.3560  175.6920  142.4080 C   0  0  0  0  0  3  0  0  0  0  0  0
  188.2760  175.7280  145.0870 N   0  0  0  0  0  0  0  0  0  0  0  0
  188.5410  174.9140  142.7830 C   0  0  0  0  0  0  0  0  0  0  0  0
  186.6980  177.8680  147.1730 S   0  0  0  0  0  0  0  0  0  0  0  0
  186.8110  176.5580  143.2640 C   0  0  0  0  0  0  0  0  0  0  0  0
  184.8320  177.8490  143.7990 N   0  0  0  0  0  0  0  0  0  0  0  0
  190.2870  173.3330  142.1980 C   0  0  0  0  0  0  0  0  0  0  0  0
  188.9710  174.9130  144.1200 C   0  0  0  0  0  0  0  0  0  0  0  0
  184.5420  178.6000  146.1600 C   0  0  0  0  0  3  0  0  0  0  0  0
  185.2630  177.9340  145.1630 C   0  0  0  0  0  0  0  0  0  0  0  0
  190.0640  174.1180  144.4900 C   0  0  0  0  0  3  0  0  0  0  0  0
  186.4800  177.4170  145.5710 C   0  0  0  0  0  0  0  0  0  0  0  0
  190.7250  173.3340  143.5410 C   0  0  0  0  0  0  0  0  0  0  0  0
  187.4920  176.8760  144.5910 C   0  0  0  0  0  0  0  0  0  0  0  0
  189.1900  174.1220  141.8350 C   0  0  0  0  0  2  0  0  0  0  0  0
  185.5350  177.2140  142.9070 C   0  0  0  0  0  3  0  0  0  0  0  0
  185.2130  178.6440  147.3830 C   0  0  0  0  0  3  0  0  0  0  0  0
  191.1300  172.1880  138.6350 C   0  0  0  0  0  3  0  0  0  0  0  0
  190.7560  173.1370  139.7470 C   0  0  0  0  0  2  0  0  0  0  0  0
  190.9430  172.5120  141.1270 C   0  0  2  0  0  3  0  0  0  0  0  0
  190.4440  171.0740  141.1320 C   0  0  0  0  0  2  0  0  0  0  0  0
  191.3060  170.9210  138.8240 N   0  0  0  0  0  0  0  0  0  0  0  0
  191.2720  170.2820  140.1280 C   0  0  0  0  0  2  0  0  0  0  0  0
  188.6460  175.6560  146.4400 N   0  0  0  0  0  2  0  0  0  0  0  0
  189.8820  176.4070  146.5950 C   0  0  0  0  0  2  0  0  0  0  0  0
  190.7420  175.7460  147.6500 C   0  0  0  0  0  2  0  0  0  0  0  0
  192.1780  175.7060  147.1740 C   0  0  0  0  0  2  0  0  0  0  0  0
  192.2960  176.4690  145.8700 C   0  0  0  0  0  2  0  0  0  0  0  0
  194.4650  177.2000  146.5170 O   0  0  0  0  0  1  0  0  0  0  0  0
  193.7570  176.6000  145.4730 C   0  0  1  0  0  3  0  0  0  0  0  0
  196.1180  173.8610  145.5180 C   0  0  0  0  0  2  0  0  0  0  0  0
  195.3610  174.9060  146.0940 O   0  0  0  0  0  0  0  0  0  0  0  0
  194.3460  175.2230  145.1710 C   0  0  2  0  0  3  0  0  0  0  0  0
  196.4910  174.2130  144.0850 C   0  0  1  0  0  0  0  0  0  0  0  0
  195.0890  175.1710  143.5260 P   0  0  1  0  0  0  0  0  0  0  0  0
  194.1070  174.3570  142.4140 O   0  0  0  0  0  0  0  0  0  0  0  0
  195.4940  176.5370  143.0170 O   0  0  0  0  0  1  0  0  0  0  0  0
  197.6460  174.9970  144.0670 O   0  0  0  0  0  1  0  0  0  0  0  0
  196.6730  172.9670  143.2270 C   0  0  0  0  0  2  0  0  0  0  0  0
  195.9190  171.8490  143.7710 N   0  0  0  0  0  2  0  0  0  0  0  0
  195.6690  170.9410  142.6670 C   0  0  0  0  0  1  0  0  0  0  0  0
  2  4  2  0  0  0  0
  2  6  1  0  0  0  0
  3 25  1  0  0  0  0
  4  9  1  0  0  0  0
  5 18  1  0  0  0  0
  6 15  1  0  0  0  0
  7 11  2  0  0  0  0
  8 14  2  0  0  0  0
  9 12  2  0  0  0  0
  9  3  1  0  0  0  0
 10 18  2  0  0  0  0
 11 13  1  0  0  0  0
 11 10  1  0  0  0  0
 13  5  1  0  0  0  0
 14  1  1  0  0  0  0
 14 12  1  0  0  0  0
 15  3  1  0  0  0  0
 15 13  2  0  0  0  0
 16  8  1  0  0  0  0
 16  4  1  0  0  0  0
 17  6  2  0  0  0  0
 17  7  1  0  0  0  0
 19 23  2  0  0  0  0
 19 20  1  0  0  0  0
 20 21  1  0  0  0  0
 21 22  1  0  0  0  0
 21  8  1  1  0  0  0
 23 24  1  0  0  0  0
 24 22  1  0  0  0  0
 25 26  1  0  0  0  0
 26 27  1  0  0  0  0
 28 27  1  0  0  0  0
 29 28  1  0  0  0  0
 31 29  1  0  0  0  0
 31 30  1  1  0  0  0
 32 33  1  0  0  0  0
 34 31  1  1  0  0  0
 34 33  1  0  0  0  0
 35 39  1  6  0  0  0
 35 32  1  0  0  0  0
 36 37  2  6  0  0  0
 36 35  1  0  0  0  0
 36 34  1  0  0  0  0
 38 36  1  0  0  0  0
 40 41  1  0  0  0  0
 40 35  1  0  0  0  0
 42 41  1  0  0  0  0
M  END
>  <MODEL>
4

>  <REMARK>
 VINA RESULT:      -7.4      1.678      2.181
  Name = 
  10 active torsions:
  status: ('A' for Active; 'I' for Inactive)
    1  A    between atoms: C_5  and  C_36
    2  A    between atoms: N_6  and  N_21
    3  A    between atoms: C_7  and  C_25
    4  A    between atoms: N_8  and  C_25
    5  A    between atoms: C_13  and  C_20
    6  A    between atoms: C_15  and  C_17
    7  A    between atoms: C_15  and  C_41
    8  A    between atoms: C_17  and  C_22
    9  A    between atoms: N_21  and  C_22
   10  A    between atoms: C_36  and  C_41
                            x       y       z     vdW  Elec       q    Type
                         _______ _______ _______ _____ _____    ______ ____

>  <TORSDO>
F 10

$$$$
=
 OpenBabel11042413363D

 42 47  0  0  1  0  0  0  0  0999 V2000
  192.9830  176.5920  142.2480 N   0  0  0  0  0  1  0  0  0  0  0  0
  189.0650  175.9930  146.3310 C   0  0  0  0  0  3  0  0  0  0  0  0
  188.4720  177.4590  143.9820 N   0  0  0  0  0  0  0  0  0  0  0  0
  190.0660  176.0990  145.2650 C   0  0  0  0  0  0  0  0  0  0  0  0
  185.3050  178.6070  143.7040 S   0  0  0  0  0  0  0  0  0  0  0  0
  187.8170  176.4210  146.1380 C   0  0  0  0  0  0  0  0  0  0  0  0
  185.7500  177.0810  147.2170 N   0  0  0  0  0  0  0  0  0  0  0  0
  192.3040  175.6620  144.4340 C   0  0  0  0  0  0  0  0  0  0  0  0
  189.7740  176.8540  144.1180 C   0  0  2  0  0  3  0  0  0  0  0  0
  184.1800  178.5270  145.9260 C   0  0  0  0  0  3  0  0  0  0  0  0
  185.3760  177.8110  146.0420 C   0  0  0  0  0  0  0  0  0  0  0  0
  190.7550  177.0090  143.1280 C   0  0  0  0  0  3  0  0  0  0  0  0
  186.1570  177.7930  144.8990 C   0  0  0  0  0  0  0  0  0  0  0  0
  192.0120  176.4170  143.2770 C   0  0  0  0  0  0  0  0  0  0  0  0
  187.3560  176.8870  144.7610 C   0  0  0  0  0  0  0  0  0  0  0  0
  191.3250  175.5170  145.4230 C   0  0  0  0  0  3  0  0  0  0  0  0
  186.8770  176.4340  147.2800 C   0  0  0  0  0  3  0  0  0  0  0  0
  183.9840  179.0630  144.6530 C   0  0  0  0  0  3  0  0  0  0  0  0
  194.7560  172.8140  145.2020 C   0  0  0  0  0  3  0  0  0  0  0  0
  193.5120  173.4820  144.6720 C   0  0  0  0  0  2  0  0  0  0  0  0
  193.6330  175.0050  144.6650 C   0  0  2  0  0  3  0  0  0  0  0  0
  194.2900  175.4920  145.9480 C   0  0  0  0  0  2  0  0  0  0  0  0
  195.6820  173.4570  145.8360 N   0  0  0  0  0  0  0  0  0  0  0  0
  195.6910  174.8970  146.0180 C   0  0  0  0  0  2  0  0  0  0  0  0
  188.2110  178.2910  142.8790 N   0  0  0  0  0  2  0  0  0  0  0  0
  188.5640  177.5500  141.6800 C   0  0  0  0  0  2  0  0  0  0  0  0
  187.5110  176.4970  141.4110 C   0  0  0  0  0  2  0  0  0  0  0  0
  188.1840  175.1950  141.0380 C   0  0  0  0  0  2  0  0  0  0  0  0
  188.0000  174.1950  142.1600 C   0  0  0  0  0  2  0  0  0  0  0  0
  189.3300  173.1660  143.8430 O   0  0  0  0  0  1  0  0  0  0  0  0
  189.3280  173.5370  142.4960 C   0  0  1  0  0  3  0  0  0  0  0  0
  190.5680  170.2940  141.4860 C   0  0  0  0  0  2  0  0  0  0  0  0
  190.0050  171.2220  142.3890 O   0  0  0  0  0  0  0  0  0  0  0  0
  189.5440  172.3070  141.6180 C   0  0  2  0  0  3  0  0  0  0  0  0
  191.5270  171.0020  140.5380 C   0  0  1  0  0  0  0  0  0  0  0  0
  190.7850  172.6160  140.3430 P   0  0  1  0  0  0  0  0  0  0  0  0
  190.0820  172.8630  138.8240 O   0  0  0  0  0  0  0  0  0  0  0  0
  191.7370  173.7340  140.7060 O   0  0  0  0  0  1  0  0  0  0  0  0
  192.7860  171.1210  141.1290 O   0  0  0  0  0  1  0  0  0  0  0  0
  191.6270  170.2850  139.1980 C   0  0  0  0  0  2  0  0  0  0  0  0
  190.4420  169.4770  138.9520 N   0  0  0  0  0  2  0  0  0  0  0  0
  190.7130  168.6940  137.7610 C   0  0  0  0  0  1  0  0  0  0  0  0
  1 14  1  0  0  0  0
  3  9  1  0  0  0  0
  3 15  1  0  0  0  0
  4 16  1  0  0  0  0
  4  2  2  0  0  0  0
  5 18  1  0  0  0  0
  5 13  1  0  0  0  0
  6  2  1  0  0  0  0
  6 17  1  0  0  0  0
  7 17  2  0  0  0  0
  8 16  2  0  0  0  0
  9 12  1  1  0  0  0
  9  4  1  0  0  0  0
 10 11  1  0  0  0  0
 11  7  1  0  0  0  0
 12 14  2  0  0  0  0
 13 11  2  0  0  0  0
 14  8  1  0  0  0  0
 15 13  1  0  0  0  0
 15  6  2  0  0  0  0
 18 10  2  0  0  0  0
 19 23  2  0  0  0  0
 20 19  1  0  0  0  0
 21  8  1  1  0  0  0
 21 20  1  0  0  0  0
 21 22  1  0  0  0  0
 22 24  1  0  0  0  0
 23 24  1  0  0  0  0
 25  3  1  0  0  0  0
 26 25  1  0  0  0  0
 27 26  1  0  0  0  0
 28 27  1  0  0  0  0
 28 29  1  0  0  0  0
 29 31  1  0  0  0  0
 31 30  1  1  0  0  0
 32 33  1  0  0  0  0
 34 33  1  0  0  0  0
 34 31  1  1  0  0  0
 35 39  1  1  0  0  0
 35 32  1  0  0  0  0
 36 37  2  6  0  0  0
 36 35  1  0  0  0  0
 36 38  1  0  0  0  0
 36 34  1  0  0  0  0
 40 35  1  0  0  0  0
 41 40  1  0  0  0  0
 42 41  1  0  0  0  0
M  END
>  <MODEL>
5

>  <REMARK>
 VINA RESULT:      -7.1      2.999      5.717
  Name = 
  10 active torsions:
  status: ('A' for Active; 'I' for Inactive)
    1  A    between atoms: C_5  and  C_36
    2  A    between atoms: N_6  and  N_21
    3  A    between atoms: C_7  and  C_25
    4  A    between atoms: N_8  and  C_25
    5  A    between atoms: C_13  and  C_20
    6  A    between atoms: C_15  and  C_17
    7  A    between atoms: C_15  and  C_41
    8  A    between atoms: C_17  and  C_22
    9  A    between atoms: N_21  and  C_22
   10  A    between atoms: C_36  and  C_41
                            x       y       z     vdW  Elec       q    Type
                         _______ _______ _______ _____ _____    ______ ____

>  <TORSDO>
F 10

$$$$
=
 OpenBabel11042413363D

 42 47  0  0  1  0  0  0  0  0999 V2000
  186.7510  175.5400  142.4660 N   0  0  0  0  0  1  0  0  0  0  0  0
  191.0700  176.7850  145.9560 C   0  0  0  0  0  3  0  0  0  0  0  0
  191.4890  175.1390  143.6900 N   0  0  0  0  0  0  0  0  0  0  0  0
  189.9600  176.5110  145.0380 C   0  0  0  0  0  0  0  0  0  0  0  0
  194.6790  174.1760  143.1190 S   0  0  0  0  0  0  0  0  0  0  0  0
  192.3150  176.4210  145.6470 C   0  0  0  0  0  0  0  0  0  0  0  0
  194.5390  176.0040  146.5110 N   0  0  0  0  0  0  0  0  0  0  0  0
  187.6120  176.7200  144.4590 C   0  0  0  0  0  0  0  0  0  0  0  0
  190.1700  175.6690  143.9340 C   0  0  2  0  0  3  0  0  0  0  0  0
  196.0500  174.5440  145.1660 C   0  0  0  0  0  3  0  0  0  0  0  0
  194.8260  175.1890  145.3690 C   0  0  0  0  0  0  0  0  0  0  0  0
  189.0930  175.3560  143.0930 C   0  0  0  0  0  3  0  0  0  0  0  0
  193.9150  175.0460  144.3350 C   0  0  0  0  0  0  0  0  0  0  0  0
  187.8210  175.8770  143.3450 C   0  0  0  0  0  0  0  0  0  0  0  0
  192.6420  175.8540  144.2690 C   0  0  0  0  0  0  0  0  0  0  0  0
  188.6880  177.0230  145.3000 C   0  0  0  0  0  3  0  0  0  0  0  0
  193.3820  176.5800  146.6580 C   0  0  0  0  0  3  0  0  0  0  0  0
  196.1330  173.9010  143.9310 C   0  0  0  0  0  3  0  0  0  0  0  0
  184.9640  179.4600  144.9030 C   0  0  0  0  0  3  0  0  0  0  0  0
  186.1600  178.7550  144.3140 C   0  0  0  0  0  2  0  0  0  0  0  0
  186.2740  177.3100  144.7950 C   0  0  2  0  0  3  0  0  0  0  0  0
  185.9750  177.2200  146.2850 C   0  0  0  0  0  2  0  0  0  0  0  0
  184.2960  178.9890  145.9060 N   0  0  0  0  0  0  0  0  0  0  0  0
  184.5440  177.6920  146.5100 C   0  0  0  0  0  2  0  0  0  0  0  0
  191.6800  174.2220  142.6410 N   0  0  0  0  0  2  0  0  0  0  0  0
  191.3460  172.9020  143.1500 C   0  0  0  0  0  2  0  0  0  0  0  0
  190.9080  172.0180  142.0030 C   0  0  0  0  0  2  0  0  0  0  0  0
  189.3980  172.0350  141.9020 C   0  0  0  0  0  2  0  0  0  0  0  0
  188.9900  172.6360  140.5730 C   0  0  0  0  0  2  0  0  0  0  0  0
  189.3670  171.3280  138.6210 O   0  0  0  0  0  1  0  0  0  0  0  0
  189.9800  172.2320  139.4920 C   0  0  1  0  0  3  0  0  0  0  0  0
  190.6150  174.3940  136.6640 C   0  0  0  0  0  2  0  0  0  0  0  0
  189.8420  173.5080  137.4490 O   0  0  0  0  0  0  0  0  0  0  0  0
  190.4480  173.4630  138.7200 C   0  0  2  0  0  3  0  0  0  0  0  0
  192.0920  174.0420  136.7800 C   0  0  1  0  0  0  0  0  0  0  0  0
  192.2340  173.4360  138.4550 P   0  0  1  0  0  0  0  0  0  0  0  0
  193.0420  174.4970  139.4970 O   0  0  0  0  0  1  0  0  0  0  0  0
  192.8190  172.0420  138.5150 O   0  0  0  0  0  0  0  0  0  0  0  0
  192.4170  173.0300  135.8740 O   0  0  0  0  0  1  0  0  0  0  0  0
  192.9810  175.2610  136.5660 C   0  0  0  0  0  2  0  0  0  0  0  0
  194.2140  174.8900  135.8900 N   0  0  0  0  0  2  0  0  0  0  0  0
  195.3020  175.2880  136.7650 C   0  0  0  0  0  1  0  0  0  0  0  0
  1 14  1  0  0  0  0
  3  9  1  0  0  0  0
  3 15  1  0  0  0  0
  4 16  1  0  0  0  0
  4  2  2  0  0  0  0
  5 18  1  0  0  0  0
  5 13  1  0  0  0  0
  6  2  1  0  0  0  0
  6 17  1  0  0  0  0
  7 17  2  0  0  0  0
  8 16  2  0  0  0  0
  9 12  1  1  0  0  0
  9  4  1  0  0  0  0
 10 11  1  0  0  0  0
 11  7  1  0  0  0  0
 12 14  2  0  0  0  0
 13 11  2  0  0  0  0
 14  8  1  0  0  0  0
 15 13  1  0  0  0  0
 15  6  2  0  0  0  0
 18 10  2  0  0  0  0
 19 23  2  0  0  0  0
 20 21  1  0  0  0  0
 20 19  1  0  0  0  0
 21  8  1  1  0  0  0
 21 22  1  0  0  0  0
 22 24  1  0  0  0  0
 23 24  1  0  0  0  0
 25 26  1  0  0  0  0
 25  3  1  0  0  0  0
 27 26  1  0  0  0  0
 28 27  1  0  0  0  0
 29 28  1  0  0  0  0
 31 30  1  6  0  0  0
 31 29  1  0  0  0  0
 32 35  1  0  0  0  0
 32 33  1  0  0  0  0
 33 34  1  0  0  0  0
 34 31  1  6  0  0  0
 35 39  1  6  0  0  0
 35 36  1  0  0  0  0
 36 38  2  1  0  0  0
 36 34  1  0  0  0  0
 36 37  1  0  0  0  0
 40 35  1  0  0  0  0
 41 40  1  0  0  0  0
 41 42  1  0  0  0  0
M  END
>  <MODEL>
6

>  <REMARK>
 VINA RESULT:      -7.1      3.260      7.569
  Name = 
  10 active torsions:
  status: ('A' for Active; 'I' for Inactive)
    1  A    between atoms: C_5  and  C_36
    2  A    between atoms: N_6  and  N_21
    3  A    between atoms: C_7  and  C_25
    4  A    between atoms: N_8  and  C_25
    5  A    between atoms: C_13  and  C_20
    6  A    between atoms: C_15  and  C_17
    7  A    between atoms: C_15  and  C_41
    8  A    between atoms: C_17  and  C_22
    9  A    between atoms: N_21  and  C_22
   10  A    between atoms: C_36  and  C_41
                            x       y       z     vdW  Elec       q    Type
                         _______ _______ _______ _____ _____    ______ ____

>  <TORSDO>
F 10

$$$$
=
 OpenBabel11042413363D

 42 47  0  0  1  0  0  0  0  0999 V2000
  193.0760  176.4870  142.3340 N   0  0  0  0  0  1  0  0  0  0  0  0
  189.1240  175.8860  146.3850 C   0  0  0  0  0  3  0  0  0  0  0  0
  188.6380  177.5500  144.1450 N   0  0  0  0  0  0  0  0  0  0  0  0
  190.1310  175.9950  145.3240 C   0  0  0  0  0  0  0  0  0  0  0  0
  185.5610  178.9370  143.9620 S   0  0  0  0  0  0  0  0  0  0  0  0
  187.9100  176.4140  146.2270 C   0  0  0  0  0  0  0  0  0  0  0  0
  185.8950  177.1430  147.3580 N   0  0  0  0  0  0  0  0  0  0  0  0
  192.3320  175.4580  144.4540 C   0  0  0  0  0  0  0  0  0  0  0  0
  189.8940  176.8460  144.2330 C   0  0  2  0  0  3  0  0  0  0  0  0
  184.4320  178.7830  146.1780 C   0  0  0  0  0  3  0  0  0  0  0  0
  185.5740  177.9770  146.2390 C   0  0  0  0  0  0  0  0  0  0  0  0
  190.8830  176.9990  143.2520 C   0  0  0  0  0  3  0  0  0  0  0  0
  186.3520  177.9830  145.0940 C   0  0  0  0  0  0  0  0  0  0  0  0
  192.0950  176.3100  143.3530 C   0  0  0  0  0  0  0  0  0  0  0  0
  187.4840  177.0060  144.8880 C   0  0  0  0  0  0  0  0  0  0  0  0
  191.3450  175.3150  145.4350 C   0  0  0  0  0  3  0  0  0  0  0  0
  186.9730  176.4150  147.3720 C   0  0  0  0  0  3  0  0  0  0  0  0
  184.2760  179.4180  144.9460 C   0  0  0  0  0  3  0  0  0  0  0  0
  194.5780  172.4800  145.3520 C   0  0  0  0  0  3  0  0  0  0  0  0
  193.3480  173.2070  144.8680 C   0  0  0  0  0  2  0  0  0  0  0  0
  193.6110  174.6930  144.6330 C   0  0  2  0  0  3  0  0  0  0  0  0
  194.4610  175.2680  145.7570 C   0  0  0  0  0  2  0  0  0  0  0  0
  195.6300  173.0940  145.7860 N   0  0  0  0  0  0  0  0  0  0  0  0
  195.7980  174.5360  145.7600 C   0  0  0  0  0  2  0  0  0  0  0  0
  188.4370  178.4730  143.1040 N   0  0  0  0  0  2  0  0  0  0  0  0
  188.6890  177.7790  141.8520 C   0  0  0  0  0  2  0  0  0  0  0  0
  187.4400  177.0360  141.4300 C   0  0  0  0  0  2  0  0  0  0  0  0
  187.8140  175.6410  140.9800 C   0  0  0  0  0  2  0  0  0  0  0  0
  187.7330  174.6950  142.1610 C   0  0  0  0  0  2  0  0  0  0  0  0
  187.0820  172.4510  141.7130 O   0  0  0  0  0  1  0  0  0  0  0  0
  188.1870  173.3040  141.7470 C   0  0  1  0  0  3  0  0  0  0  0  0
  188.9430  172.3680  138.3370 C   0  0  0  0  0  2  0  0  0  0  0  0
  188.0890  172.6280  139.4310 O   0  0  0  0  0  0  0  0  0  0  0  0
  188.8470  173.3550  140.3700 C   0  0  2  0  0  3  0  0  0  0  0  0
  190.2680  171.8030  138.8290 C   0  0  1  0  0  0  0  0  0  0  0  0
  190.4960  172.6190  140.4030 P   0  0  1  0  0  0  0  0  0  0  0  0
  191.7120  173.7960  140.3900 O   0  0  0  0  0  0  0  0  0  0  0  0
  190.6820  171.6370  141.5380 O   0  0  0  0  0  1  0  0  0  0  0  0
  190.1630  170.4240  139.0150 O   0  0  0  0  0  1  0  0  0  0  0  0
  191.4110  172.1320  137.8760 C   0  0  0  0  0  2  0  0  0  0  0  0
  191.0630  173.2560  137.0200 N   0  0  0  0  0  2  0  0  0  0  0  0
  192.2910  173.9910  136.7820 C   0  0  0  0  0  1  0  0  0  0  0  0
  1 14  1  0  0  0  0
  3  9  1  0  0  0  0
  3 15  1  0  0  0  0
  4 16  1  0  0  0  0
  4  2  2  0  0  0  0
  5 18  1  0  0  0  0
  5 13  1  0  0  0  0
  6  2  1  0  0  0  0
  6 17  1  0  0  0  0
  7 17  2  0  0  0  0
  8 16  2  0  0  0  0
  9 12  1  1  0  0  0
  9  4  1  0  0  0  0
 10 11  1  0  0  0  0
 11  7  1  0  0  0  0
 12 14  2  0  0  0  0
 13 11  2  0  0  0  0
 14  8  1  0  0  0  0
 15 13  1  0  0  0  0
 15  6  2  0  0  0  0
 18 10  2  0  0  0  0
 19 23  2  0  0  0  0
 20 19  1  0  0  0  0
 21  8  1  1  0  0  0
 21 20  1  0  0  0  0
 21 22  1  0  0  0  0
 22 24  1  0  0  0  0
 24 23  1  0  0  0  0
 25  3  1  0  0  0  0
 26 25  1  0  0  0  0
 27 26  1  0  0  0  0
 28 27  1  0  0  0  0
 28 29  1  0  0  0  0
 31 30  1  6  0  0  0
 31 29  1  0  0  0  0
 32 35  1  0  0  0  0
 32 33  1  0  0  0  0
 33 34  1  0  0  0  0
 34 36  1  0  0  0  0
 34 31  1  1  0  0  0
 35 39  1  1  0  0  0
 35 36  1  0  0  0  0
 36 37  2  6  0  0  0
 36 38  1  0  0  0  0
 40 35  1  0  0  0  0
 41 40  1  0  0  0  0
 42 41  1  0  0  0  0
M  END
>  <MODEL>
7

>  <REMARK>
 VINA RESULT:      -7.1      3.013      5.733
  Name = 
  10 active torsions:
  status: ('A' for Active; 'I' for Inactive)
    1  A    between atoms: C_5  and  C_36
    2  A    between atoms: N_6  and  N_21
    3  A    between atoms: C_7  and  C_25
    4  A    between atoms: N_8  and  C_25
    5  A    between atoms: C_13  and  C_20
    6  A    between atoms: C_15  and  C_17
    7  A    between atoms: C_15  and  C_41
    8  A    between atoms: C_17  and  C_22
    9  A    between atoms: N_21  and  C_22
   10  A    between atoms: C_36  and  C_41
                            x       y       z     vdW  Elec       q    Type
                         _______ _______ _______ _____ _____    ______ ____

>  <TORSDO>
F 10

$$$$
=
 OpenBabel11042413363D

 42 47  0  0  1  0  0  0  0  0999 V2000
  189.1100  175.9310  146.1270 N   0  0  0  0  0  1  0  0  0  0  0  0
  187.8110  175.2340  140.6300 C   0  0  0  0  0  3  0  0  0  0  0  0
  189.9230  173.7550  141.8010 N   0  0  0  0  0  0  0  0  0  0  0  0
  188.1050  175.3870  142.0590 C   0  0  0  0  0  0  0  0  0  0  0  0
  191.4230  171.4710  139.8110 S   0  0  0  0  0  0  0  0  0  0  0  0
  188.4020  174.2780  139.9120 C   0  0  0  0  0  0  0  0  0  0  0  0
  188.9470  173.5180  137.6780 N   0  0  0  0  0  0  0  0  0  0  0  0
  187.6870  176.4830  144.1840 C   0  0  0  0  0  0  0  0  0  0  0  0
  189.1730  174.6730  142.6230 C   0  0  0  0  0  0  0  0  0  0  0  0
  190.8470  171.9200  137.4290 C   0  0  0  0  0  3  0  0  0  0  0  0
  190.0080  172.7180  138.2140 C   0  0  0  0  0  0  0  0  0  0  0  0
  189.4940  174.8680  143.9740 C   0  0  0  0  0  3  0  0  0  0  0  0
  190.2260  172.6250  139.5770 C   0  0  0  0  0  0  0  0  0  0  0  0
  188.7580  175.7620  144.7560 C   0  0  0  0  0  0  0  0  0  0  0  0
  189.2760  173.2250  140.5850 C   0  0  0  0  0  0  0  0  0  0  0  0
  187.3750  176.2910  142.8330 C   0  0  0  0  0  3  0  0  0  0  0  0
  188.1950  174.2480  138.4480 C   0  0  0  0  0  2  0  0  0  0  0  0
  191.7310  171.1490  138.1820 C   0  0  0  0  0  3  0  0  0  0  0  0
  184.7390  177.7330  146.2970 C   0  0  0  0  0  3  0  0  0  0  0  0
  185.7640  176.7640  145.7640 C   0  0  0  0  0  2  0  0  0  0  0  0
  186.8580  177.4640  144.9590 C   0  0  2  0  0  3  0  0  0  0  0  0
  186.2540  178.5320  144.0580 C   0  0  0  0  0  2  0  0  0  0  0  0
  184.6440  178.9530  145.8810 N   0  0  0  0  0  0  0  0  0  0  0  0
  185.5680  179.5660  144.9420 C   0  0  0  0  0  2  0  0  0  0  0  0
  191.0500  173.1100  142.3410 N   0  0  0  0  0  2  0  0  0  0  0  0
  190.5720  171.9980  143.1460 C   0  0  0  0  0  2  0  0  0  0  0  0
  191.6370  171.6120  144.1500 C   0  0  0  0  0  2  0  0  0  0  0  0
  192.8770  172.4450  143.9120 C   0  0  0  0  0  2  0  0  0  0  0  0
  193.1550  173.2930  145.1370 C   0  0  0  0  0  2  0  0  0  0  0  0
  195.3040  172.4880  145.7640 O   0  0  0  0  0  1  0  0  0  0  0  0
  194.6410  173.5980  145.2350 C   0  0  1  0  0  3  0  0  0  0  0  0
  197.0690  174.5030  142.7130 C   0  0  0  0  0  2  0  0  0  0  0  0
  196.6040  173.7970  143.8450 O   0  0  0  0  0  0  0  0  0  0  0  0
  195.2020  173.9280  143.8530 C   0  0  2  0  0  3  0  0  0  0  0  0
  196.4450  175.8910  142.6700 C   0  0  1  0  0  0  0  0  0  0  0  0
  194.8250  175.6290  143.3790 P   0  0  1  0  0  0  0  0  0  0  0  0
  193.5670  175.7060  142.2500 O   0  0  0  0  0  0  0  0  0  0  0  0
  194.5650  176.5290  144.5660 O   0  0  0  0  0  1  0  0  0  0  0  0
  197.1800  176.7730  143.4650 O   0  0  0  0  0  1  0  0  0  0  0  0
  196.3350  176.4160  141.2440 C   0  0  0  0  0  2  0  0  0  0  0  0
  196.4440  175.3300  140.2820 N   0  0  0  0  0  2  0  0  0  0  0  0
  197.5450  175.6660  139.4000 C   0  0  0  0  0  1  0  0  0  0  0  0
  2  4  1  0  0  0  0
  3 25  1  0  0  0  0
  3  9  1  0  0  0  0
  4  9  2  0  0  0  0
  4 16  1  0  0  0  0
  6 15  1  0  0  0  0
  6  2  2  0  0  0  0
  7 11  2  0  0  0  0
  7 17  1  0  0  0  0
  8 14  1  0  0  0  0
  9 12  1  0  0  0  0
 10 18  2  0  0  0  0
 10 11  1  0  0  0  0
 11 13  1  0  0  0  0
 12 14  2  0  0  0  0
 13  5  1  0  0  0  0
 13 15  2  0  0  0  0
 14  1  1  0  0  0  0
 15  3  1  0  0  0  0
 16  8  2  0  0  0  0
 17  6  1  0  0  0  0
 18  5  1  0  0  0  0
 20 19  1  0  0  0  0
 21  8  1  6  0  0  0
 21 20  1  0  0  0  0
 22 24  1  0  0  0  0
 22 21  1  0  0  0  0
 23 19  2  0  0  0  0
 24 23  1  0  0  0  0
 25 26  1  0  0  0  0
 26 27  1  0  0  0  0
 28 27  1  0  0  0  0
 28 29  1  0  0  0  0
 29 31  1  0  0  0  0
 31 30  1  6  0  0  0
 32 33  1  0  0  0  0
 33 34  1  0  0  0  0
 34 31  1  1  0  0  0
 35 32  1  0  0  0  0
 35 36  1  0  0  0  0
 35 39  1  1  0  0  0
 36 37  2  6  0  0  0
 36 34  1  0  0  0  0
 36 38  1  0  0  0  0
 40 35  1  0  0  0  0
 41 40  1  0  0  0  0
 42 41  1  0  0  0  0
M  END
>  <MODEL>
8

>  <REMARK>
 VINA RESULT:      -7.0      2.386      6.421
  Name = 
  10 active torsions:
  status: ('A' for Active; 'I' for Inactive)
    1  A    between atoms: C_5  and  C_36
    2  A    between atoms: N_6  and  N_21
    3  A    between atoms: C_7  and  C_25
    4  A    between atoms: N_8  and  C_25
    5  A    between atoms: C_13  and  C_20
    6  A    between atoms: C_15  and  C_17
    7  A    between atoms: C_15  and  C_41
    8  A    between atoms: C_17  and  C_22
    9  A    between atoms: N_21  and  C_22
   10  A    between atoms: C_36  and  C_41
                            x       y       z     vdW  Elec       q    Type
                         _______ _______ _______ _____ _____    ______ ____

>  <TORSDO>
F 10

$$$$
=
 OpenBabel11042413363D

 42 47  0  0  1  0  0  0  0  0999 V2000
  186.8390  176.4080  142.0360 N   0  0  0  0  0  1  0  0  0  0  0  0
  190.9160  176.7370  145.9930 C   0  0  0  0  0  3  0  0  0  0  0  0
  191.5280  175.8410  143.3770 N   0  0  0  0  0  0  0  0  0  0  0  0
  189.8660  176.7030  144.9690 C   0  0  0  0  0  0  0  0  0  0  0  0
  194.7870  175.2060  142.7470 S   0  0  0  0  0  0  0  0  0  0  0  0
  192.1920  176.5260  145.6680 C   0  0  0  0  0  0  0  0  0  0  0  0
  194.3910  175.9560  146.5070 N   0  0  0  0  0  0  0  0  0  0  0  0
  187.5410  176.9850  144.3340 C   0  0  0  0  0  0  0  0  0  0  0  0
  190.1720  176.2280  143.6840 C   0  0  2  0  0  3  0  0  0  0  0  0
  196.0400  175.0100  144.8920 C   0  0  0  0  0  3  0  0  0  0  0  0
  194.7740  175.5220  145.1970 C   0  0  0  0  0  0  0  0  0  0  0  0
  189.1550  176.1350  142.7240 C   0  0  0  0  0  3  0  0  0  0  0  0
  193.9230  175.6540  144.1140 C   0  0  0  0  0  0  0  0  0  0  0  0
  187.8460  176.5120  143.0390 C   0  0  0  0  0  0  0  0  0  0  0  0
  192.6130  176.3990  144.2070 C   0  0  0  0  0  0  0  0  0  0  0  0
  188.5590  177.0690  145.2910 C   0  0  0  0  0  3  0  0  0  0  0  0
  193.2000  176.4210  146.7450 C   0  0  0  0  0  3  0  0  0  0  0  0
  196.2150  174.7590  143.5310 C   0  0  0  0  0  3  0  0  0  0  0  0
  184.6450  179.3870  145.0820 C   0  0  0  0  0  3  0  0  0  0  0  0
  185.8910  178.8670  144.4100 C   0  0  0  0  0  2  0  0  0  0  0  0
  186.1590  177.4010  144.7460 C   0  0  2  0  0  3  0  0  0  0  0  0
  185.9060  177.1380  146.2230 C   0  0  0  0  0  2  0  0  0  0  0  0
  184.0500  178.7570  146.0420 N   0  0  0  0  0  0  0  0  0  0  0  0
  184.4400  177.4390  146.5120 C   0  0  0  0  0  2  0  0  0  0  0  0
  191.8160  175.2790  142.1210 N   0  0  0  0  0  2  0  0  0  0  0  0
  191.1420  173.9930  142.0550 C   0  0  0  0  0  2  0  0  0  0  0  0
  191.8920  172.9890  142.9030 C   0  0  0  0  0  2  0  0  0  0  0  0
  190.9540  171.8730  143.3090 C   0  0  0  0  0  2  0  0  0  0  0  0
  190.0820  171.4960  142.1290 C   0  0  0  0  0  2  0  0  0  0  0  0
  190.4620  169.1960  141.6530 O   0  0  0  0  0  1  0  0  0  0  0  0
  190.8030  170.4890  141.2480 C   0  0  1  0  0  3  0  0  0  0  0  0
  190.4730  169.7800  137.7180 C   0  0  0  0  0  2  0  0  0  0  0  0
  190.4210  169.4680  139.0940 O   0  0  0  0  0  0  0  0  0  0  0  0
  190.4150  170.6950  139.7860 C   0  0  2  0  0  3  0  0  0  0  0  0
  191.5760  170.7960  137.4530 C   0  0  1  0  0  0  0  0  0  0  0  0
  191.5810  171.7850  138.9410 P   0  0  1  0  0  0  0  0  0  0  0  0
  190.9490  173.3410  138.7270 O   0  0  0  0  0  0  0  0  0  0  0  0
  192.9410  171.8210  139.6030 O   0  0  0  0  0  1  0  0  0  0  0  0
  192.8030  170.1460  137.3050 O   0  0  0  0  0  1  0  0  0  0  0  0
  191.2710  171.6540  136.2310 C   0  0  0  0  0  2  0  0  0  0  0  0
  189.8360  171.7660  136.0220 N   0  0  0  0  0  2  0  0  0  0  0  0
  189.6210  171.7200  134.5880 C   0  0  0  0  0  1  0  0  0  0  0  0
  1 14  1  0  0  0  0
  3  9  1  0  0  0  0
  3 15  1  0  0  0  0
  4 16  1  0  0  0  0
  4  2  2  0  0  0  0
  5 18  1  0  0  0  0
  5 13  1  0  0  0  0
  6  2  1  0  0  0  0
  6 17  1  0  0  0  0
  7 17  2  0  0  0  0
  8 16  2  0  0  0  0
  9 12  1  1  0  0  0
  9  4  1  0  0  0  0
 10 11  1  0  0  0  0
 11  7  1  0  0  0  0
 12 14  2  0  0  0  0
 13 15  1  0  0  0  0
 13 11  2  0  0  0  0
 14  8  1  0  0  0  0
 15  6  2  0  0  0  0
 18 10  2  0  0  0  0
 19 23  2  0  0  0  0
 20 21  1  0  0  0  0
 20 19  1  0  0  0  0
 21  8  1  1  0  0  0
 21 22  1  0  0  0  0
 22 24  1  0  0  0  0
 23 24  1  0  0  0  0
 25  3  1  0  0  0  0
 26 25  1  0  0  0  0
 26 27  1  0  0  0  0
 27 28  1  0  0  0  0
 29 28  1  0  0  0  0
 31 30  1  1  0  0  0
 31 29  1  0  0  0  0
 32 33  1  0  0  0  0
 33 34  1  0  0  0  0
 34 31  1  1  0  0  0
 35 39  1  6  0  0  0
 35 32  1  0  0  0  0
 35 36  1  0  0  0  0
 36 37  2  6  0  0  0
 36 38  1  0  0  0  0
 36 34  1  0  0  0  0
 40 35  1  0  0  0  0
 41 40  1  0  0  0  0
 42 41  1  0  0  0  0
M  END
>  <MODEL>
9

>  <REMARK>
 VINA RESULT:      -6.8      3.431      7.881
  Name = 
  10 active torsions:
  status: ('A' for Active; 'I' for Inactive)
    1  A    between atoms: C_5  and  C_36
    2  A    between atoms: N_6  and  N_21
    3  A    between atoms: C_7  and  C_25
    4  A    between atoms: N_8  and  C_25
    5  A    between atoms: C_13  and  C_20
    6  A    between atoms: C_15  and  C_17
    7  A    between atoms: C_15  and  C_41
    8  A    between atoms: C_17  and  C_22
    9  A    between atoms: N_21  and  C_22
   10  A    between atoms: C_36  and  C_41
                            x       y       z     vdW  Elec       q    Type
                         _______ _______ _______ _____ _____    ______ ____

>  <TORSDO>
F 10

$$$$
