=
 OpenBabel11042414403D

 59 66  0  0  1  0  0  0  0  0999 V2000
  190.5980  174.1150  139.8440 C   0  0  0  0  0  2  0  0  0  0  0  0
  191.0450  171.9560  143.5240 C   0  0  0  0  0  3  0  0  0  0  0  0
  190.7070  172.3900  142.3140 C   0  0  0  0  0  0  0  0  0  0  0  0
  191.4340  172.8880  139.9220 C   0  0  0  0  0  0  0  0  0  0  0  0
  189.0670  173.1370  143.7170 C   0  0  0  0  0  3  0  0  0  0  0  0
  189.4530  173.1530  142.4500 C   0  0  0  0  0  0  0  0  0  0  0  0
  190.0440  172.3780  144.5420 C   0  0  0  0  0  2  0  0  0  0  0  0
  188.6630  173.9100  141.4090 C   0  0  2  0  0  3  0  0  0  0  0  0
  193.0340  171.4690  138.7700 C   0  0  0  0  0  0  0  0  0  0  0  0
  192.3590  170.9350  141.0490 C   0  0  0  0  0  0  0  0  0  0  0  0
  193.1220  170.6630  139.9030 C   0  0  0  0  0  3  0  0  0  0  0  0
  191.4980  172.0700  141.0780 C   0  0  0  0  0  0  0  0  0  0  0  0
  192.1890  172.5760  138.7880 C   0  0  0  0  0  3  0  0  0  0  0  0
  189.1370  173.7400  139.9730 C   0  0  0  0  0  2  0  0  0  0  0  0
  187.3300  176.0570  141.3850 N   0  0  0  0  0  2  0  0  0  0  0  0
  189.4070  175.9490  142.4320 O   0  0  0  0  0  0  0  0  0  0  0  0
  188.5090  175.3580  141.7730 C   0  0  0  0  0  0  0  0  0  0  0  0
  187.0270  177.3120  141.9340 N   0  0  0  0  0  2  0  0  0  0  0  0
  183.9840  178.9990  145.0590 C   0  0  0  0  0  2  0  0  0  0  0  0
  185.2610  176.3950  145.1510 C   0  0  0  0  0  2  0  0  0  0  0  0
  186.3530  179.5010  144.4240 O   0  0  0  0  0  0  0  0  0  0  0  0
  184.9650  177.0870  146.4870 C   0  0  0  0  0  2  0  0  0  0  0  0
  184.5900  178.5730  146.3970 C   0  0  0  0  0  2  0  0  0  0  0  0
  187.0120  178.2980  144.8210 C   0  0  0  0  0  2  0  0  0  0  0  0
  184.9740  178.3460  142.7330 C   0  0  2  0  0  3  0  0  0  0  0  0
  185.9130  177.1430  142.8600 C   0  0  2  0  0  3  0  0  0  0  0  0
  186.4050  176.9760  144.3000 C   0  0  2  0  0  3  0  0  0  0  0  0
  185.0290  179.2890  143.9540 C   0  0  1  0  0  3  0  0  0  0  0  0
  183.4640  178.1630  140.7810 S   0  0  0  0  0  1  0  0  0  0  0  0
  183.6700  177.9210  142.4700 O   0  0  0  0  0  0  0  0  0  0  0  0
  193.8220  171.1590  137.5670 C   0  0  0  0  0  0  0  0  0  0  0  0
  193.6620  170.0590  136.9720 O   0  0  0  0  0  0  0  0  0  0  0  0
  194.7580  172.0860  137.0980 O   0  0  0  0  0  0  0  0  0  0  0  0
  196.0630  172.2100  137.6600 C   0  0  2  0  0  3  0  0  0  0  0  0
  197.7760  173.8260  138.3770 O   0  0  0  0  0  0  0  0  0  0  0  0
  196.8720  173.9540  139.4540 C   0  0  1  0  0  0  0  0  0  0  0  0
  197.0150  172.9160  140.3580 F   0  0  0  0  0  0  0  0  0  0  0  0
  196.8440  175.3760  139.9830 C   0  0  0  0  0  1  0  0  0  0  0  0
  196.4090  173.6540  138.0710 C   0  0  2  0  0  0  0  0  0  0  0  0
  196.9030  175.3330  136.4340 O   0  0  0  0  0  1  0  0  0  0  0  0
  195.8780  174.8000  137.2200 C   0  0  0  0  0  2  0  0  0  0  0  0
  196.8250  172.0210  135.3880 O   0  0  0  0  0  1  0  0  0  0  0  0
  197.1040  171.6400  136.7040 C   0  0  0  0  0  2  0  0  0  0  0  0
  192.4330  170.0740  142.1530 O   0  0  0  0  0  0  0  0  0  0  0  0
  193.6090  169.3720  142.5480 C   0  0  0  0  0  2  0  0  0  0  0  0
  194.5850  170.2960  143.2660 C   0  0  0  0  0  2  0  0  0  0  0  0
  194.1160  170.6030  144.5480 O   0  0  0  0  0  0  0  0  0  0  0  0
  193.6880  172.7010  145.6600 C   0  0  0  0  0  2  0  0  0  0  0  0
  192.6780  175.6500  143.9340 O   0  0  0  0  0  0  0  0  0  0  0  0
  193.7600  173.6600  143.6600 C   0  0  2  0  0  3  0  0  0  0  0  0
  194.7100  171.8190  144.9030 C   0  0  2  0  0  3  0  0  0  0  0  0
  192.6930  174.9470  145.1810 C   0  0  1  0  0  3  0  0  0  0  0  0
  193.5770  175.2520  141.7370 C   0  0  0  0  0  2  0  0  0  0  0  0
  193.3990  174.9180  143.0060 C   0  0  0  0  0  0  0  0  0  0  0  0
  193.8080  174.0060  145.0520 N   0  0  1  0  0  0  0  0  0  0  0  0
  195.2310  172.6990  143.3590 S   0  0  0  0  0  0  0  0  0  0  0  0
  192.9700  175.9440  146.3020 C   0  0  0  0  0  2  0  0  0  0  0  0
  194.4560  176.2450  146.4340 C   0  0  0  0  0  2  0  0  0  0  0  0
  194.7960  177.5520  145.7410 C   0  0  0  0  0  1  0  0  0  0  0  0
  1  4  1  0  0  0  0
  1 14  1  0  0  0  0
  2  7  1  0  0  0  0
  3  6  1  0  0  0  0
  3  2  2  0  0  0  0
  4 12  1  0  0  0  0
  5  7  1  0  0  0  0
  6  5  2  0  0  0  0
  8 17  1  1  0  0  0
  8  6  1  0  0  0  0
  9 13  1  0  0  0  0
  9 11  2  0  0  0  0
 10 12  2  0  0  0  0
 10 44  1  0  0  0  0
 11 10  1  0  0  0  0
 12  3  1  0  0  0  0
 13  4  2  0  0  0  0
 14  8  1  0  0  0  0
 15 17  1  0  0  0  0
 15 18  1  0  0  0  0
 17 16  2  0  0  0  0
 19 23  1  0  0  0  0
 20 22  1  0  0  0  0
 21 24  1  0  0  0  0
 23 22  1  0  0  0  0
 25 30  1  1  0  0  0
 25 26  1  0  0  0  0
 25 28  1  0  0  0  0
 26 18  1  6  0  0  0
 26 27  1  0  0  0  0
 27 24  1  1  0  0  0
 27 20  1  0  0  0  0
 28 21  1  0  0  0  0
 28 19  1  1  0  0  0
 29 30  1  0  0  0  0
 31  9  1  0  0  0  0
 32 31  2  0  0  0  0
 33 31  1  0  0  0  0
 33 34  1  0  0  0  0
 34 43  1  6  0  0  0
 34 39  1  0  0  0  0
 35 36  1  0  0  0  0
 36 38  1  1  0  0  0
 36 37  1  0  0  0  0
 39 41  1  6  0  0  0
 39 35  1  0  0  0  0
 39 36  1  0  0  0  0
 40 41  1  0  0  0  0
 42 43  1  0  0  0  0
 44 45  1  0  0  0  0
 45 46  1  0  0  0  0
 46 47  1  0  0  0  0
 49 52  1  0  0  0  0
 50 54  1  6  0  0  0
 50 55  1  0  0  0  0
 51 47  1  6  0  0  0
 51 48  1  0  0  0  0
 52 57  1  1  0  0  0
 53 54  2  0  0  0  0
 54 49  1  0  0  0  0
 55 52  1  0  0  0  0
 55 48  1  1  0  0  0
 56 50  1  0  0  0  0
 56 51  1  0  0  0  0
 57 58  1  0  0  0  0
 59 58  1  0  0  0  0
M  END
>  <MODEL>
1

>  <REMARK>
 VINA RESULT:      -6.4      0.000      0.000
  Name = 
  17 active torsions:
  status: ('A' for Active; 'I' for Inactive)
    1  A    between atoms: C_4  and  C_19
    2  A    between atoms: C_4  and  O_20
    3  A    between atoms: C_4  and  C_54
    4  A    between atoms: C_6  and  C_28
    5  A    between atoms: C_6  and  C_30
    6  A    between atoms: N_7  and  N_59
    7  A    between atoms: C_10  and  O_20
    8  A    between atoms: C_10  and  C_36
    9  A    between atoms: C_14  and  C_54
   10  A    between atoms: C_27  and  O_58
   11  A    between atoms: C_32  and  O_38
   12  A    between atoms: C_35  and  C_45
   13  A    between atoms: C_39  and  O_46
   14  A    between atoms: C_40  and  N_59
   15  A    between atoms: O_46  and  C_56
   16  A    between atoms: C_52  and  C_56
   17  A    between atoms: C_52  and  O_58
                            x       y       z     vdW  Elec       q    Type
                         _______ _______ _______ _____ _____    ______ ____

>  <TORSDO>
F 17

$$$$
=
 OpenBabel11042414403D

 59 66  0  0  1  0  0  0  0  0999 V2000
  189.4220  173.2560  143.2740 C   0  0  0  0  0  2  0  0  0  0  0  0
  192.7730  175.9030  142.8760 C   0  0  0  0  0  3  0  0  0  0  0  0
  191.9580  174.8750  143.0850 C   0  0  0  0  0  0  0  0  0  0  0  0
  190.3280  173.1820  142.0980 C   0  0  0  0  0  0  0  0  0  0  0  0
  192.2930  175.8230  145.1350 C   0  0  0  0  0  3  0  0  0  0  0  0
  191.6460  174.8410  144.5250 C   0  0  0  0  0  0  0  0  0  0  0  0
  193.0780  176.6120  144.1490 C   0  0  0  0  0  2  0  0  0  0  0  0
  190.7270  173.9230  145.2950 C   0  0  2  0  0  3  0  0  0  0  0  0
  190.6960  172.2120  139.9010 C   0  0  0  0  0  0  0  0  0  0  0  0
  192.2960  173.8110  140.8040 C   0  0  0  0  0  0  0  0  0  0  0  0
  191.8630  172.9630  139.7740 C   0  0  0  0  0  3  0  0  0  0  0  0
  191.5210  173.9400  141.9940 C   0  0  0  0  0  0  0  0  0  0  0  0
  189.9370  172.3270  141.0640 C   0  0  0  0  0  3  0  0  0  0  0  0
  190.1490  172.7580  144.5050 C   0  0  0  0  0  2  0  0  0  0  0  0
  189.1190  175.8680  145.4270 N   0  0  0  0  0  2  0  0  0  0  0  0
  189.2220  174.2820  147.1290 O   0  0  0  0  0  0  0  0  0  0  0  0
  189.6560  174.6870  146.0170 C   0  0  0  0  0  0  0  0  0  0  0  0
  187.9440  176.4480  145.9280 N   0  0  0  0  0  2  0  0  0  0  0  0
  184.9360  178.4480  142.9580 C   0  0  0  0  0  2  0  0  0  0  0  0
  187.8290  178.4680  142.7320 C   0  0  0  0  0  2  0  0  0  0  0  0
  185.5700  176.0980  143.5420 O   0  0  0  0  0  0  0  0  0  0  0  0
  187.0160  178.4370  141.4320 C   0  0  0  0  0  2  0  0  0  0  0  0
  185.5240  178.1090  141.5880 C   0  0  0  0  0  2  0  0  0  0  0  0
  186.9210  176.0490  143.0810 C   0  0  0  0  0  2  0  0  0  0  0  0
  186.0680  177.8320  145.2280 C   0  0  2  0  0  3  0  0  0  0  0  0
  187.5560  177.5290  145.0300 C   0  0  2  0  0  3  0  0  0  0  0  0
  187.8580  177.1780  143.5700 C   0  0  2  0  0  3  0  0  0  0  0  0
  185.1930  177.3740  144.0420 C   0  0  1  0  0  3  0  0  0  0  0  0
  185.7600  179.2600  147.2250 S   0  0  0  0  0  1  0  0  0  0  0  0
  185.8790  179.1860  145.5120 O   0  0  0  0  0  0  0  0  0  0  0  0
  190.2650  171.3080  138.8220 C   0  0  0  0  0  0  0  0  0  0  0  0
  190.4010  170.0620  138.9510 O   0  0  0  0  0  0  0  0  0  0  0  0
  189.7190  171.8430  137.6510 O   0  0  0  0  0  0  0  0  0  0  0  0
  190.4860  172.0270  136.4630 C   0  0  2  0  0  3  0  0  0  0  0  0
  191.5250  173.6890  134.9730 O   0  0  0  0  0  0  0  0  0  0  0  0
  192.1090  174.0790  136.1980 C   0  0  1  0  0  0  0  0  0  0  0  0
  193.1650  173.2530  136.5380 F   0  0  0  0  0  0  0  0  0  0  0  0
  192.3190  175.5810  136.2540 C   0  0  0  0  0  1  0  0  0  0  0  0
  190.7350  173.5110  136.1290 C   0  0  2  0  0  0  0  0  0  0  0  0
  189.0800  174.6840  134.8540 O   0  0  0  0  0  1  0  0  0  0  0  0
  189.5520  174.4700  136.1500 C   0  0  0  0  0  2  0  0  0  0  0  0
  190.7560  170.4680  134.6540 O   0  0  0  0  0  1  0  0  0  0  0  0
  189.8320  171.2980  135.2950 C   0  0  0  0  0  2  0  0  0  0  0  0
  193.5020  174.5130  140.6660 O   0  0  0  0  0  0  0  0  0  0  0  0
  194.1110  174.8240  139.4160 C   0  0  0  0  0  2  0  0  0  0  0  0
  195.5430  174.3080  139.3590 C   0  0  0  0  0  2  0  0  0  0  0  0
  195.6030  172.9800  139.7980 O   0  0  0  0  0  0  0  0  0  0  0  0
  196.1300  172.4410  142.0890 C   0  0  0  0  0  2  0  0  0  0  0  0
  196.2740  174.8820  144.6820 O   0  0  0  0  0  0  0  0  0  0  0  0
  196.4450  174.6120  142.4230 C   0  0  2  0  0  3  0  0  0  0  0  0
  196.6580  172.9170  140.7140 C   0  0  2  0  0  3  0  0  0  0  0  0
  196.0900  173.4990  144.3570 C   0  0  1  0  0  3  0  0  0  0  0  0
  196.7850  176.8760  143.4360 C   0  0  0  0  0  2  0  0  0  0  0  0
  196.5750  175.5710  143.5200 C   0  0  0  0  0  0  0  0  0  0  0  0
  196.7220  173.3490  143.0440 N   0  0  1  0  0  0  0  0  0  0  0  0
  197.3820  174.6110  140.9070 S   0  0  0  0  0  0  0  0  0  0  0  0
  196.8200  172.6510  145.3940 C   0  0  0  0  0  2  0  0  0  0  0  0
  196.6490  171.1620  145.1260 C   0  0  0  0  0  2  0  0  0  0  0  0
  196.6670  170.3830  146.4290 C   0  0  0  0  0  1  0  0  0  0  0  0
  1 14  1  0  0  0  0
  2  3  2  0  0  0  0
  2  7  1  0  0  0  0
  3  6  1  0  0  0  0
  4  1  1  0  0  0  0
  6  5  2  0  0  0  0
  6  8  1  0  0  0  0
  7  5  1  0  0  0  0
  8 17  1  6  0  0  0
  9 13  1  0  0  0  0
 10 12  2  0  0  0  0
 11  9  2  0  0  0  0
 11 10  1  0  0  0  0
 12  4  1  0  0  0  0
 12  3  1  0  0  0  0
 13  4  2  0  0  0  0
 14  8  1  0  0  0  0
 15 18  1  0  0  0  0
 15 17  1  0  0  0  0
 17 16  2  0  0  0  0
 21 28  1  0  0  0  0
 22 23  1  0  0  0  0
 22 20  1  0  0  0  0
 23 19  1  0  0  0  0
 24 21  1  0  0  0  0
 24 27  1  0  0  0  0
 25 30  1  6  0  0  0
 26 25  1  0  0  0  0
 26 18  1  1  0  0  0
 27 20  1  6  0  0  0
 27 26  1  0  0  0  0
 28 19  1  6  0  0  0
 28 25  1  0  0  0  0
 30 29  1  0  0  0  0
 31 32  2  0  0  0  0
 31  9  1  0  0  0  0
 33 31  1  0  0  0  0
 34 43  1  6  0  0  0
 34 33  1  0  0  0  0
 35 39  1  0  0  0  0
 35 36  1  0  0  0  0
 36 38  1  1  0  0  0
 36 37  1  0  0  0  0
 39 41  1  1  0  0  0
 39 36  1  0  0  0  0
 39 34  1  0  0  0  0
 40 41  1  0  0  0  0
 42 43  1  0  0  0  0
 44 10  1  0  0  0  0
 45 44  1  0  0  0  0
 46 45  1  0  0  0  0
 46 47  1  0  0  0  0
 50 56  1  6  0  0  0
 50 55  1  0  0  0  0
 50 54  1  0  0  0  0
 51 47  1  6  0  0  0
 51 56  1  0  0  0  0
 51 48  1  0  0  0  0
 52 49  1  0  0  0  0
 52 57  1  1  0  0  0
 53 54  2  0  0  0  0
 54 49  1  0  0  0  0
 55 48  1  6  0  0  0
 55 52  1  0  0  0  0
 58 57  1  0  0  0  0
 58 59  1  0  0  0  0
M  END
>  <MODEL>
2

>  <REMARK>
 VINA RESULT:      -6.4      2.968      4.686
  Name = 
  17 active torsions:
  status: ('A' for Active; 'I' for Inactive)
    1  A    between atoms: C_4  and  C_19
    2  A    between atoms: C_4  and  O_20
    3  A    between atoms: C_4  and  C_54
    4  A    between atoms: C_6  and  C_28
    5  A    between atoms: C_6  and  C_30
    6  A    between atoms: N_7  and  N_59
    7  A    between atoms: C_10  and  O_20
    8  A    between atoms: C_10  and  C_36
    9  A    between atoms: C_14  and  C_54
   10  A    between atoms: C_27  and  O_58
   11  A    between atoms: C_32  and  O_38
   12  A    between atoms: C_35  and  C_45
   13  A    between atoms: C_39  and  O_46
   14  A    between atoms: C_40  and  N_59
   15  A    between atoms: O_46  and  C_56
   16  A    between atoms: C_52  and  C_56
   17  A    between atoms: C_52  and  O_58
                            x       y       z     vdW  Elec       q    Type
                         _______ _______ _______ _____ _____    ______ ____

>  <TORSDO>
F 17

$$$$
=
 OpenBabel11042414403D

 59 66  0  0  1  0  0  0  0  0999 V2000
  193.1880  176.5730  141.8880 C   0  0  0  0  0  2  0  0  0  0  0  0
  194.9870  176.2980  145.7730 C   0  0  0  0  0  3  0  0  0  0  0  0
  194.3930  176.0710  144.6060 C   0  0  0  0  0  0  0  0  0  0  0  0
  194.5720  176.0580  142.0630 C   0  0  0  0  0  0  0  0  0  0  0  0
  192.7030  176.2760  146.1290 C   0  0  0  0  0  3  0  0  0  0  0  0
  192.9370  176.0730  144.8400 C   0  0  0  0  0  0  0  0  0  0  0  0
  193.9850  176.4490  146.8630 C   0  0  0  0  0  2  0  0  0  0  0  0
  191.7990  175.9250  143.8600 C   0  0  2  0  0  3  0  0  0  0  0  0
  196.6210  175.3830  140.9480 C   0  0  0  0  0  0  0  0  0  0  0  0
  196.4990  175.3570  143.3800 C   0  0  0  0  0  0  0  0  0  0  0  0
  197.2140  175.1610  142.1890 C   0  0  0  0  0  3  0  0  0  0  0  0
  195.1520  175.8210  143.3340 C   0  0  0  0  0  0  0  0  0  0  0  0
  195.3020  175.8290  140.8950 C   0  0  0  0  0  3  0  0  0  0  0  0
  192.2010  175.5640  142.4370 C   0  0  0  0  0  2  0  0  0  0  0  0
  189.4820  176.9090  144.0820 N   0  0  0  0  0  2  0  0  0  0  0  0
  191.3400  178.2780  143.7690 O   0  0  0  0  0  0  0  0  0  0  0  0
  190.8800  177.1110  143.8920 C   0  0  0  0  0  0  0  0  0  0  0  0
  188.6390  177.9870  144.3910 N   0  0  0  0  0  2  0  0  0  0  0  0
  184.0050  178.6160  144.4150 C   0  0  0  0  0  2  0  0  0  0  0  0
  185.4850  176.7520  146.0750 C   0  0  0  0  0  2  0  0  0  0  0  0
  185.9900  179.9540  145.1450 O   0  0  0  0  0  0  0  0  0  0  0  0
  184.2280  177.3930  146.6770 C   0  0  0  0  0  2  0  0  0  0  0  0
  183.6600  178.5930  145.9050 C   0  0  0  0  0  2  0  0  0  0  0  0
  186.4900  179.1530  146.2160 C   0  0  0  0  0  2  0  0  0  0  0  0
  186.3980  178.1930  143.4630 C   0  0  2  0  0  3  0  0  0  0  0  0
  187.2760  177.4780  144.4940 C   0  0  2  0  0  3  0  0  0  0  0  0
  186.7200  177.6560  145.9100 C   0  0  2  0  0  3  0  0  0  0  0  0
  185.4060  179.1900  144.0980 C   0  0  1  0  0  3  0  0  0  0  0  0
  186.6380  177.2550  141.1850 S   0  0  0  0  0  1  0  0  0  0  0  0
  185.7430  177.2630  142.6520 O   0  0  0  0  0  0  0  0  0  0  0  0
  197.3750  175.1500  139.7050 C   0  0  0  0  0  0  0  0  0  0  0  0
  197.9410  176.1120  139.1200 O   0  0  0  0  0  0  0  0  0  0  0  0
  197.4440  173.8590  139.1730 O   0  0  0  0  0  0  0  0  0  0  0  0
  197.5450  173.6130  137.7710 C   0  0  2  0  0  3  0  0  0  0  0  0
  196.3880  173.7970  135.6060 O   0  0  0  0  0  0  0  0  0  0  0  0
  196.4550  175.1650  135.9500 C   0  0  1  0  0  0  0  0  0  0  0  0
  197.7080  175.6890  135.6860 F   0  0  0  0  0  0  0  0  0  0  0  0
  195.2360  175.9180  135.4500 C   0  0  0  0  0  1  0  0  0  0  0  0
  196.3150  174.1020  136.9820 C   0  0  2  0  0  0  0  0  0  0  0  0
  194.6420  172.4530  137.4530 O   0  0  0  0  0  1  0  0  0  0  0  0
  194.9290  173.8160  137.5450 C   0  0  0  0  0  2  0  0  0  0  0  0
  197.3450  171.3560  138.5740 O   0  0  0  0  0  1  0  0  0  0  0  0
  197.8180  172.1350  137.5150 C   0  0  0  0  0  2  0  0  0  0  0  0
  197.1090  175.0750  144.6110 O   0  0  0  0  0  0  0  0  0  0  0  0
  197.5610  173.7830  145.0060 C   0  0  0  0  0  2  0  0  0  0  0  0
  196.6340  173.1720  146.0500 C   0  0  0  0  0  2  0  0  0  0  0  0
  196.1650  171.9260  145.6190 O   0  0  0  0  0  0  0  0  0  0  0  0
  194.0520  172.4650  144.5870 C   0  0  0  0  0  2  0  0  0  0  0  0
  191.7990  169.9950  143.3530 O   0  0  0  0  0  0  0  0  0  0  0  0
  193.9950  170.3740  143.8450 C   0  0  2  0  0  3  0  0  0  0  0  0
  195.5520  172.1430  144.3800 C   0  0  2  0  0  3  0  0  0  0  0  0
  191.9480  171.3330  143.8390 C   0  0  1  0  0  3  0  0  0  0  0  0
  193.2980  168.1720  142.8800 C   0  0  0  0  0  2  0  0  0  0  0  0
  193.0540  169.4150  143.2690 C   0  0  0  0  0  0  0  0  0  0  0  0
  193.3630  171.6420  143.6190 N   0  0  1  0  0  0  0  0  0  0  0  0
  195.6970  170.6000  143.3660 S   0  0  0  0  0  0  0  0  0  0  0  0
  191.0690  172.2590  143.0050 C   0  0  0  0  0  2  0  0  0  0  0  0
  189.6750  172.4010  143.6000 C   0  0  0  0  0  2  0  0  0  0  0  0
  189.7300  173.1840  144.8990 C   0  0  0  0  0  1  0  0  0  0  0  0
  1  4  1  0  0  0  0
  1 14  1  0  0  0  0
  2  7  1  0  0  0  0
  3  6  1  0  0  0  0
  3  2  2  0  0  0  0
  4 12  1  0  0  0  0
  5  7  1  0  0  0  0
  6  5  2  0  0  0  0
  8 17  1  6  0  0  0
  8  6  1  0  0  0  0
  9 11  2  0  0  0  0
 10 44  1  0  0  0  0
 11 10  1  0  0  0  0
 12 10  2  0  0  0  0
 12  3  1  0  0  0  0
 13  9  1  0  0  0  0
 13  4  2  0  0  0  0
 14  8  1  0  0  0  0
 15 18  1  0  0  0  0
 16 17  2  0  0  0  0
 17 15  1  0  0  0  0
 19 23  1  0  0  0  0
 20 22  1  0  0  0  0
 21 24  1  0  0  0  0
 23 22  1  0  0  0  0
 25 30  1  1  0  0  0
 25 28  1  0  0  0  0
 25 26  1  0  0  0  0
 26 18  1  1  0  0  0
 26 27  1  0  0  0  0
 27 20  1  6  0  0  0
 27 24  1  0  0  0  0
 28 19  1  1  0  0  0
 28 21  1  0  0  0  0
 29 30  1  0  0  0  0
 31  9  1  0  0  0  0
 32 31  2  0  0  0  0
 33 31  1  0  0  0  0
 34 43  1  1  0  0  0
 34 33  1  0  0  0  0
 35 36  1  0  0  0  0
 35 39  1  0  0  0  0
 36 38  1  6  0  0  0
 36 39  1  0  0  0  0
 37 36  1  0  0  0  0
 39 41  1  1  0  0  0
 39 34  1  0  0  0  0
 40 41  1  0  0  0  0
 43 42  1  0  0  0  0
 44 45  1  0  0  0  0
 45 46  1  0  0  0  0
 47 46  1  0  0  0  0
 49 52  1  0  0  0  0
 50 54  1  6  0  0  0
 51 48  1  0  0  0  0
 51 47  1  1  0  0  0
 52 57  1  6  0  0  0
 53 54  2  0  0  0  0
 54 49  1  0  0  0  0
 55 52  1  0  0  0  0
 55 50  1  0  0  0  0
 55 48  1  1  0  0  0
 56 50  1  0  0  0  0
 56 51  1  0  0  0  0
 57 58  1  0  0  0  0
 58 59  1  0  0  0  0
M  END
>  <MODEL>
3

>  <REMARK>
 VINA RESULT:      -6.3      2.149      4.345
  Name = 
  17 active torsions:
  status: ('A' for Active; 'I' for Inactive)
    1  A    between atoms: C_4  and  C_19
    2  A    between atoms: C_4  and  O_20
    3  A    between atoms: C_4  and  C_54
    4  A    between atoms: C_6  and  C_28
    5  A    between atoms: C_6  and  C_30
    6  A    between atoms: N_7  and  N_59
    7  A    between atoms: C_10  and  O_20
    8  A    between atoms: C_10  and  C_36
    9  A    between atoms: C_14  and  C_54
   10  A    between atoms: C_27  and  O_58
   11  A    between atoms: C_32  and  O_38
   12  A    between atoms: C_35  and  C_45
   13  A    between atoms: C_39  and  O_46
   14  A    between atoms: C_40  and  N_59
   15  A    between atoms: O_46  and  C_56
   16  A    between atoms: C_52  and  C_56
   17  A    between atoms: C_52  and  O_58
                            x       y       z     vdW  Elec       q    Type
                         _______ _______ _______ _____ _____    ______ ____

>  <TORSDO>
F 17

$$$$
=
 OpenBabel11042414403D

 59 66  0  0  1  0  0  0  0  0999 V2000
  193.9810  175.5310  145.2780 C   0  0  0  0  0  2  0  0  0  0  0  0
  192.5350  171.9480  143.4140 C   0  0  0  0  0  3  0  0  0  0  0  0
  192.9170  172.9010  144.2580 C   0  0  2  0  0  3  0  0  0  0  0  0
  192.5260  175.2430  145.1840 C   0  0  0  0  0  0  0  0  0  0  0  0
  194.7030  171.4900  144.0700 C   0  0  0  0  0  3  0  0  0  0  0  0
  194.3050  172.6080  144.6600 C   0  0  0  0  0  0  0  0  0  0  0  0
  193.6200  170.9510  143.2060 C   0  0  0  0  0  3  0  0  0  0  0  0
  195.2410  173.3910  145.5490 C   0  0  2  0  0  3  0  0  0  0  0  0
  190.2800  176.1150  145.4980 C   0  0  0  0  0  0  0  0  0  0  0  0
  190.5960  173.8620  144.6280 C   0  0  0  0  0  0  0  0  0  0  0  0
  189.7570  174.9190  145.0120 C   0  0  0  0  0  3  0  0  0  0  0  0
  192.0110  174.0130  144.7040 C   0  0  0  0  0  0  0  0  0  0  0  0
  191.6630  176.2670  145.5820 C   0  0  0  0  0  3  0  0  0  0  0  0
  194.6210  174.5800  146.2690 C   0  0  0  0  0  2  0  0  0  0  0  0
  196.4790  173.9280  143.4130 N   0  0  0  0  0  2  0  0  0  0  0  0
  197.5670  173.9750  145.4710 O   0  0  0  0  0  0  0  0  0  0  0  0
  196.5010  173.7740  144.8290 C   0  0  0  0  0  0  0  0  0  0  0  0
  197.5470  174.5440  142.7430 N   0  0  0  0  0  2  0  0  0  0  0  0
  195.1190  174.0520  138.7760 C   0  0  0  0  0  2  0  0  0  0  0  0
  197.6190  175.4930  139.0820 C   0  0  0  0  0  2  0  0  0  0  0  0
  196.4760  172.5380  140.2360 O   0  0  0  0  0  0  0  0  0  0  0  0
  197.3730  174.7780  137.7480 C   0  0  0  0  0  2  0  0  0  0  0  0
  196.2070  173.7780  137.7360 C   0  0  0  0  0  2  0  0  0  0  0  0
  197.7840  173.0870  140.0720 C   0  0  0  0  0  2  0  0  0  0  0  0
  195.5990  174.5960  141.2830 C   0  0  2  0  0  3  0  0  0  0  0  0
  197.0470  175.0580  141.4730 C   0  0  2  0  0  3  0  0  0  0  0  0
  197.9270  174.6090  140.3040 C   0  0  2  0  0  3  0  0  0  0  0  0
  195.4460  173.5160  140.1900 C   0  0  1  0  0  3  0  0  0  0  0  0
  193.1980  175.1520  141.5060 S   0  0  0  0  0  1  0  0  0  0  0  0
  194.7650  175.6890  141.0460 O   0  0  0  0  0  0  0  0  0  0  0  0
  189.3880  177.2070  145.9200 C   0  0  0  0  0  0  0  0  0  0  0  0
  189.5090  177.7140  147.0670 O   0  0  0  0  0  0  0  0  0  0  0  0
  188.4000  177.6670  145.0440 O   0  0  0  0  0  0  0  0  0  0  0  0
  187.1690  176.9740  144.8470 C   0  0  2  0  0  3  0  0  0  0  0  0
  186.3080  175.9480  142.7810 O   0  0  0  0  0  0  0  0  0  0  0  0
  187.3510  176.7270  142.2350 C   0  0  1  0  0  0  0  0  0  0  0  0
  188.5790  176.1140  142.4060 F   0  0  0  0  0  0  0  0  0  0  0  0
  186.9870  177.2450  140.8560 C   0  0  0  0  0  1  0  0  0  0  0  0
  186.5860  177.1690  143.4330 C   0  0  2  0  0  0  0  0  0  0  0  0
  185.9500  179.4770  143.3410 O   0  0  0  0  0  1  0  0  0  0  0  0
  185.4580  178.1740  143.2430 C   0  0  0  0  0  2  0  0  0  0  0  0
  186.2960  176.5510  147.0460 O   0  0  0  0  0  1  0  0  0  0  0  0
  186.1630  177.3710  145.9210 C   0  0  0  0  0  2  0  0  0  0  0  0
  190.0360  172.6530  144.1920 O   0  0  0  0  0  0  0  0  0  0  0  0
  188.9910  172.5540  143.2270 C   0  0  0  0  0  2  0  0  0  0  0  0
  189.5180  172.8060  141.8200 C   0  0  0  0  0  2  0  0  0  0  0  0
  188.5030  173.3140  141.0000 O   0  0  0  0  0  0  0  0  0  0  0  0
  189.8170  171.7070  139.7720 C   0  0  0  0  0  2  0  0  0  0  0  0
  192.0580  172.6160  137.1540 O   0  0  0  0  0  0  0  0  0  0  0  0
  190.2000  173.3080  138.2840 C   0  0  2  0  0  3  0  0  0  0  0  0
  188.5140  172.5400  139.8350 C   0  0  2  0  0  3  0  0  0  0  0  0
  191.7180  171.6400  138.1450 C   0  0  1  0  0  3  0  0  0  0  0  0
  191.0950  174.6870  136.3960 C   0  0  0  0  0  2  0  0  0  0  0  0
  191.0930  173.6080  137.1650 C   0  0  0  0  0  0  0  0  0  0  0  0
  190.3000  171.8840  138.4220 N   0  0  1  0  0  0  0  0  0  0  0  0
  188.4570  173.6720  138.3700 S   0  0  0  0  0  0  0  0  0  0  0  0
  191.9080  170.2480  137.5480 C   0  0  0  0  0  2  0  0  0  0  0  0
  190.7360  169.8510  136.6610 C   0  0  0  0  0  2  0  0  0  0  0  0
  191.1550  169.8380  135.2030 C   0  0  0  0  0  1  0  0  0  0  0  0
  1 14  1  0  0  0  0
  3  2  1  1  0  0  0
  3  6  1  0  0  0  0
  3 12  1  0  0  0  0
  4  1  1  0  0  0  0
  4 13  1  0  0  0  0
  5  6  2  0  0  0  0
  6  8  1  0  0  0  0
  7  2  2  0  0  0  0
  7  5  1  0  0  0  0
  8 17  1  6  0  0  0
  8 14  1  0  0  0  0
  9 13  2  0  0  0  0
  9 31  1  0  0  0  0
 10 12  1  0  0  0  0
 10 11  2  0  0  0  0
 11  9  1  0  0  0  0
 12  4  2  0  0  0  0
 15 17  1  0  0  0  0
 17 16  2  0  0  0  0
 18 15  1  0  0  0  0
 22 20  1  0  0  0  0
 23 22  1  0  0  0  0
 23 19  1  0  0  0  0
 24 21  1  0  0  0  0
 24 27  1  0  0  0  0
 25 30  1  6  0  0  0
 25 26  1  0  0  0  0
 26 18  1  1  0  0  0
 27 20  1  6  0  0  0
 27 26  1  0  0  0  0
 28 19  1  6  0  0  0
 28 21  1  0  0  0  0
 28 25  1  0  0  0  0
 30 29  1  0  0  0  0
 31 32  2  0  0  0  0
 33 31  1  0  0  0  0
 34 33  1  0  0  0  0
 34 43  1  1  0  0  0
 35 39  1  0  0  0  0
 36 38  1  6  0  0  0
 36 37  1  0  0  0  0
 36 35  1  0  0  0  0
 36 39  1  0  0  0  0
 39 41  1  6  0  0  0
 39 34  1  0  0  0  0
 41 40  1  0  0  0  0
 43 42  1  0  0  0  0
 44 10  1  0  0  0  0
 45 44  1  0  0  0  0
 46 45  1  0  0  0  0
 47 46  1  0  0  0  0
 48 51  1  0  0  0  0
 49 54  1  0  0  0  0
 49 52  1  0  0  0  0
 50 54  1  6  0  0  0
 50 56  1  0  0  0  0
 50 55  1  0  0  0  0
 51 47  1  1  0  0  0
 52 57  1  6  0  0  0
 52 55  1  0  0  0  0
 53 54  2  0  0  0  0
 55 48  1  1  0  0  0
 56 51  1  0  0  0  0
 58 57  1  0  0  0  0
 59 58  1  0  0  0  0
M  END
>  <MODEL>
4

>  <REMARK>
 VINA RESULT:      -6.2      2.900     10.057
  Name = 
  17 active torsions:
  status: ('A' for Active; 'I' for Inactive)
    1  A    between atoms: C_4  and  C_19
    2  A    between atoms: C_4  and  O_20
    3  A    between atoms: C_4  and  C_54
    4  A    between atoms: C_6  and  C_28
    5  A    between atoms: C_6  and  C_30
    6  A    between atoms: N_7  and  N_59
    7  A    between atoms: C_10  and  O_20
    8  A    between atoms: C_10  and  C_36
    9  A    between atoms: C_14  and  C_54
   10  A    between atoms: C_27  and  O_58
   11  A    between atoms: C_32  and  O_38
   12  A    between atoms: C_35  and  C_45
   13  A    between atoms: C_39  and  O_46
   14  A    between atoms: C_40  and  N_59
   15  A    between atoms: O_46  and  C_56
   16  A    between atoms: C_52  and  C_56
   17  A    between atoms: C_52  and  O_58
                            x       y       z     vdW  Elec       q    Type
                         _______ _______ _______ _____ _____    ______ ____

>  <TORSDO>
F 17

$$$$
=
 OpenBabel11042414403D

 59 66  0  0  1  0  0  0  0  0999 V2000
  189.5300  173.3410  139.3720 C   0  0  0  0  0  2  0  0  0  0  0  0
  191.1430  171.1160  142.6660 C   0  0  0  0  0  3  0  0  0  0  0  0
  190.4230  171.5790  141.6500 C   0  0  0  0  0  0  0  0  0  0  0  0
  190.2920  172.0840  139.1540 C   0  0  0  0  0  0  0  0  0  0  0  0
  189.4030  172.3650  143.5360 C   0  0  0  0  0  3  0  0  0  0  0  0
  189.3250  172.3860  142.2130 C   0  0  0  0  0  0  0  0  0  0  0  0
  190.5760  171.5600  143.9690 C   0  0  0  0  0  2  0  0  0  0  0  0
  188.2530  173.1850  141.5130 C   0  0  2  0  0  3  0  0  0  0  0  0
  191.3360  170.6230  137.5170 C   0  0  0  0  0  0  0  0  0  0  0  0
  191.4740  170.0820  139.8880 C   0  0  0  0  0  0  0  0  0  0  0  0
  191.7810  169.7990  138.5490 C   0  0  0  0  0  3  0  0  0  0  0  0
  190.7220  171.2470  140.2150 C   0  0  0  0  0  0  0  0  0  0  0  0
  190.5930  171.7600  137.8290 C   0  0  0  0  0  3  0  0  0  0  0  0
  188.1910  173.0180  140.0010 C   0  0  0  0  0  2  0  0  0  0  0  0
  187.4200  175.1020  142.9320 N   0  0  0  0  0  2  0  0  0  0  0  0
  189.0990  175.4240  141.3530 O   0  0  0  0  0  0  0  0  0  0  0  0
  188.2920  174.6320  141.9080 C   0  0  0  0  0  0  0  0  0  0  0  0
  187.6130  176.3640  143.5150 N   0  0  0  0  0  2  0  0  0  0  0  0
  189.6370  177.6050  147.5450 C   0  0  0  0  0  2  0  0  0  0  0  0
  189.1870  174.8900  146.6230 C   0  0  0  0  0  2  0  0  0  0  0  0
  190.2670  177.7110  145.1250 O   0  0  0  0  0  0  0  0  0  0  0  0
  190.4450  175.1550  147.4590 C   0  0  0  0  0  2  0  0  0  0  0  0
  190.8130  176.6330  147.6550 C   0  0  0  0  0  2  0  0  0  0  0  0
  190.3790  176.3240  144.8020 C   0  0  0  0  0  2  0  0  0  0  0  0
  187.8580  177.5340  145.6350 C   0  0  2  0  0  3  0  0  0  0  0  0
  187.8600  176.1700  144.9390 C   0  0  2  0  0  3  0  0  0  0  0  0
  189.1780  175.4290  145.1810 C   0  0  2  0  0  3  0  0  0  0  0  0
  189.2630  177.9840  146.0910 C   0  0  1  0  0  3  0  0  0  0  0  0
  185.5460  178.3070  146.0600 S   0  0  0  0  0  1  0  0  0  0  0  0
  186.9480  177.5410  146.6940 O   0  0  0  0  0  0  0  0  0  0  0  0
  191.6440  170.3020  136.1150 C   0  0  0  0  0  0  0  0  0  0  0  0
  191.2210  169.2290  135.6050 O   0  0  0  0  0  0  0  0  0  0  0  0
  192.4190  171.1870  135.3590 O   0  0  0  0  0  0  0  0  0  0  0  0
  193.7090  171.6270  135.7790 C   0  0  2  0  0  3  0  0  0  0  0  0
  194.9810  173.5630  136.6110 O   0  0  0  0  0  0  0  0  0  0  0  0
  193.7810  173.7490  137.3300 C   0  0  1  0  0  0  0  0  0  0  0  0
  193.7190  172.9130  138.4310 F   0  0  0  0  0  0  0  0  0  0  0  0
  193.4780  175.2240  137.5230 C   0  0  0  0  0  1  0  0  0  0  0  0
  193.7940  173.1540  135.9660 C   0  0  2  0  0  0  0  0  0  0  0  0
  192.0900  174.0490  134.5390 O   0  0  0  0  0  1  0  0  0  0  0  0
  193.4650  174.0510  134.7800 C   0  0  0  0  0  2  0  0  0  0  0  0
  195.7230  170.3480  135.4900 O   0  0  0  0  0  1  0  0  0  0  0  0
  194.7770  171.1240  134.8150 C   0  0  0  0  0  2  0  0  0  0  0  0
  191.8940  169.2040  140.8980 O   0  0  0  0  0  0  0  0  0  0  0  0
  193.1610  168.5530  140.9210 C   0  0  0  0  0  2  0  0  0  0  0  0
  194.2810  169.5410  141.2240 C   0  0  0  0  0  2  0  0  0  0  0  0
  194.3620  169.7820  142.6000 O   0  0  0  0  0  0  0  0  0  0  0  0
  194.7760  171.6210  144.1060 C   0  0  0  0  0  2  0  0  0  0  0  0
  193.0920  174.7520  143.8680 O   0  0  0  0  0  0  0  0  0  0  0  0
  193.7050  172.9170  142.6580 C   0  0  2  0  0  3  0  0  0  0  0  0
  195.1110  170.9540  142.7500 C   0  0  2  0  0  3  0  0  0  0  0  0
  193.8030  173.8450  144.7170 C   0  0  1  0  0  3  0  0  0  0  0  0
  192.5030  174.8040  141.5350 C   0  0  0  0  0  2  0  0  0  0  0  0
  193.0910  174.2420  142.5810 C   0  0  0  0  0  0  0  0  0  0  0  0
  194.5800  173.0170  143.7900 N   0  0  1  0  0  0  0  0  0  0  0  0
  194.6660  172.1230  141.3840 S   0  0  0  0  0  0  0  0  0  0  0  0
  194.7370  174.6460  145.6180 C   0  0  0  0  0  2  0  0  0  0  0  0
  194.0360  175.8540  146.2250 C   0  0  0  0  0  2  0  0  0  0  0  0
  194.5980  177.1390  145.6470 C   0  0  0  0  0  1  0  0  0  0  0  0
  1 14  1  0  0  0  0
  2  7  1  0  0  0  0
  3  6  1  0  0  0  0
  3  2  2  0  0  0  0
  4  1  1  0  0  0  0
  4 12  1  0  0  0  0
  5  7  1  0  0  0  0
  6  5  2  0  0  0  0
  8 17  1  6  0  0  0
  8  6  1  0  0  0  0
  9 13  1  0  0  0  0
  9 11  2  0  0  0  0
 10 12  2  0  0  0  0
 10 44  1  0  0  0  0
 11 10  1  0  0  0  0
 12  3  1  0  0  0  0
 13  4  2  0  0  0  0
 14  8  1  0  0  0  0
 15 18  1  0  0  0  0
 16 17  2  0  0  0  0
 17 15  1  0  0  0  0
 19 23  1  0  0  0  0
 20 22  1  0  0  0  0
 21 28  1  0  0  0  0
 22 23  1  0  0  0  0
 24 21  1  0  0  0  0
 25 28  1  0  0  0  0
 25 30  1  1  0  0  0
 26 18  1  6  0  0  0
 26 27  1  0  0  0  0
 26 25  1  0  0  0  0
 27 24  1  1  0  0  0
 27 20  1  0  0  0  0
 28 19  1  1  0  0  0
 29 30  1  0  0  0  0
 31  9  1  0  0  0  0
 32 31  2  0  0  0  0
 33 34  1  0  0  0  0
 33 31  1  0  0  0  0
 34 43  1  6  0  0  0
 34 39  1  0  0  0  0
 35 36  1  0  0  0  0
 36 38  1  1  0  0  0
 36 37  1  0  0  0  0
 39 41  1  6  0  0  0
 39 35  1  0  0  0  0
 39 36  1  0  0  0  0
 40 41  1  0  0  0  0
 43 42  1  0  0  0  0
 44 45  1  0  0  0  0
 45 46  1  0  0  0  0
 46 47  1  0  0  0  0
 49 52  1  0  0  0  0
 50 56  1  6  0  0  0
 50 55  1  0  0  0  0
 51 47  1  6  0  0  0
 51 48  1  0  0  0  0
 52 57  1  1  0  0  0
 53 54  2  0  0  0  0
 54 50  1  0  0  0  0
 54 49  1  0  0  0  0
 55 48  1  1  0  0  0
 55 52  1  0  0  0  0
 56 51  1  0  0  0  0
 57 58  1  0  0  0  0
 59 58  1  0  0  0  0
M  END
>  <MODEL>
5

>  <REMARK>
 VINA RESULT:      -6.1      2.387      3.023
  Name = 
  17 active torsions:
  status: ('A' for Active; 'I' for Inactive)
    1  A    between atoms: C_4  and  C_19
    2  A    between atoms: C_4  and  O_20
    3  A    between atoms: C_4  and  C_54
    4  A    between atoms: C_6  and  C_28
    5  A    between atoms: C_6  and  C_30
    6  A    between atoms: N_7  and  N_59
    7  A    between atoms: C_10  and  O_20
    8  A    between atoms: C_10  and  C_36
    9  A    between atoms: C_14  and  C_54
   10  A    between atoms: C_27  and  O_58
   11  A    between atoms: C_32  and  O_38
   12  A    between atoms: C_35  and  C_45
   13  A    between atoms: C_39  and  O_46
   14  A    between atoms: C_40  and  N_59
   15  A    between atoms: O_46  and  C_56
   16  A    between atoms: C_52  and  C_56
   17  A    between atoms: C_52  and  O_58
                            x       y       z     vdW  Elec       q    Type
                         _______ _______ _______ _____ _____    ______ ____

>  <TORSDO>
F 17

$$$$
=
 OpenBabel11042414403D

 59 66  0  0  1  0  0  0  0  0999 V2000
  190.0030  174.0750  143.4140 C   0  0  0  0  0  2  0  0  0  0  0  0
  193.5310  176.3870  144.1960 C   0  0  0  0  0  3  0  0  0  0  0  0
  192.6260  175.4280  144.0300 C   0  0  0  0  0  0  0  0  0  0  0  0
  191.1130  174.1470  142.4270 C   0  0  0  0  0  0  0  0  0  0  0  0
  192.6190  175.9010  146.2640 C   0  0  0  0  0  3  0  0  0  0  0  0
  192.0400  175.1350  145.3510 C   0  0  0  0  0  0  0  0  0  0  0  0
  193.6280  176.7880  145.6260 C   0  0  0  0  0  2  0  0  0  0  0  0
  190.9330  174.1810  145.7290 C   0  0  2  0  0  3  0  0  0  0  0  0
  191.8350  173.6090  140.1710 C   0  0  0  0  0  0  0  0  0  0  0  0
  193.3290  174.8180  141.6670 C   0  0  0  0  0  0  0  0  0  0  0  0
  193.0500  174.2450  140.4170 C   0  0  0  0  0  3  0  0  0  0  0  0
  192.3500  174.7820  142.7020 C   0  0  0  0  0  0  0  0  0  0  0  0
  190.8750  173.5640  141.1800 C   0  0  0  0  0  3  0  0  0  0  0  0
  190.4460  173.2660  144.6150 C   0  0  0  0  0  2  0  0  0  0  0  0
  189.1930  176.0120  145.7620 N   0  0  0  0  0  2  0  0  0  0  0  0
  189.3610  174.4890  147.5150 O   0  0  0  0  0  0  0  0  0  0  0  0
  189.7940  174.8900  146.4010 C   0  0  0  0  0  0  0  0  0  0  0  0
  187.9680  176.5240  146.2170 N   0  0  0  0  0  2  0  0  0  0  0  0
  184.9230  178.5300  143.2890 C   0  0  0  0  0  2  0  0  0  0  0  0
  187.8120  178.5380  143.0190 C   0  0  0  0  0  2  0  0  0  0  0  0
  185.5570  176.1790  143.8680 O   0  0  0  0  0  0  0  0  0  0  0  0
  186.9800  178.5080  141.7310 C   0  0  0  0  0  2  0  0  0  0  0  0
  185.4890  178.1860  141.9100 C   0  0  0  0  0  2  0  0  0  0  0  0
  186.9010  176.1240  143.3870 C   0  0  0  0  0  2  0  0  0  0  0  0
  186.0870  177.9140  145.5430 C   0  0  2  0  0  3  0  0  0  0  0  0
  187.5710  177.6050  145.3220 C   0  0  2  0  0  3  0  0  0  0  0  0
  187.8490  177.2490  143.8590 C   0  0  2  0  0  3  0  0  0  0  0  0
  185.1930  177.4570  144.3710 C   0  0  1  0  0  3  0  0  0  0  0  0
  185.9910  179.3710  147.5410 S   0  0  0  0  0  1  0  0  0  0  0  0
  185.9080  179.2700  145.8270 O   0  0  0  0  0  0  0  0  0  0  0  0
  191.5640  172.9920  138.8630 C   0  0  0  0  0  0  0  0  0  0  0  0
  191.1910  171.7890  138.7970 O   0  0  0  0  0  0  0  0  0  0  0  0
  191.7370  173.7430  137.6970 O   0  0  0  0  0  0  0  0  0  0  0  0
  192.3980  173.2270  136.5430 C   0  0  2  0  0  3  0  0  0  0  0  0
  194.6260  172.4440  135.8500 O   0  0  0  0  0  0  0  0  0  0  0  0
  194.7980  172.4200  137.2510 C   0  0  1  0  0  0  0  0  0  0  0  0
  194.2250  171.2920  137.8100 F   0  0  0  0  0  0  0  0  0  0  0  0
  196.2230  172.7740  137.6360 C   0  0  0  0  0  1  0  0  0  0  0  0
  193.9260  173.4250  136.5840 C   0  0  2  0  0  0  0  0  0  0  0  0
  194.1170  175.6830  137.3640 O   0  0  0  0  0  1  0  0  0  0  0  0
  194.4860  174.8180  136.3310 C   0  0  0  0  0  2  0  0  0  0  0  0
  191.0270  174.9520  135.5850 O   0  0  0  0  0  1  0  0  0  0  0  0
  191.7930  173.8250  135.2780 C   0  0  0  0  0  2  0  0  0  0  0  0
  194.5820  175.4050  141.8990 O   0  0  0  0  0  0  0  0  0  0  0  0
  195.3540  176.0680  140.9020 C   0  0  0  0  0  2  0  0  0  0  0  0
  196.8060  175.6070  140.9350 C   0  0  0  0  0  2  0  0  0  0  0  0
  196.8860  174.2240  140.7380 O   0  0  0  0  0  0  0  0  0  0  0  0
  197.4900  172.2940  142.0530 C   0  0  0  0  0  2  0  0  0  0  0  0
  196.4870  171.8550  145.4440 O   0  0  0  0  0  0  0  0  0  0  0  0
  196.8540  173.4390  143.8430 C   0  0  2  0  0  3  0  0  0  0  0  0
  197.8300  173.7500  141.6550 C   0  0  2  0  0  3  0  0  0  0  0  0
  196.9130  171.2150  144.2360 C   0  0  1  0  0  3  0  0  0  0  0  0
  196.1720  174.1340  146.1500 C   0  0  0  0  0  2  0  0  0  0  0  0
  196.5240  173.2260  145.2520 C   0  0  0  0  0  0  0  0  0  0  0  0
  197.6060  172.2690  143.4930 N   0  0  1  0  0  0  0  0  0  0  0  0
  197.7710  174.8120  143.1710 S   0  0  0  0  0  0  0  0  0  0  0  0
  197.8840  170.0930  144.5910 C   0  0  0  0  0  2  0  0  0  0  0  0
  197.4690  168.7690  143.9660 C   0  0  0  0  0  2  0  0  0  0  0  0
  196.0020  168.8020  143.5770 C   0  0  0  0  0  1  0  0  0  0  0  0
  1 14  1  0  0  0  0
  2  7  1  0  0  0  0
  3  2  2  0  0  0  0
  3  6  1  0  0  0  0
  4 12  1  0  0  0  0
  4  1  1  0  0  0  0
  6  8  1  0  0  0  0
  6  5  2  0  0  0  0
  7  5  1  0  0  0  0
  8 17  1  6  0  0  0
  9 11  2  0  0  0  0
  9 13  1  0  0  0  0
 10 44  1  0  0  0  0
 10 12  2  0  0  0  0
 11 10  1  0  0  0  0
 12  3  1  0  0  0  0
 13  4  2  0  0  0  0
 14  8  1  0  0  0  0
 15 18  1  0  0  0  0
 15 17  1  0  0  0  0
 17 16  2  0  0  0  0
 21 28  1  0  0  0  0
 22 23  1  0  0  0  0
 22 20  1  0  0  0  0
 23 19  1  0  0  0  0
 24 27  1  0  0  0  0
 24 21  1  0  0  0  0
 25 30  1  6  0  0  0
 26 25  1  0  0  0  0
 26 18  1  1  0  0  0
 27 20  1  6  0  0  0
 27 26  1  0  0  0  0
 28 19  1  6  0  0  0
 28 25  1  0  0  0  0
 30 29  1  0  0  0  0
 31  9  1  0  0  0  0
 32 31  2  0  0  0  0
 33 31  1  0  0  0  0
 34 43  1  6  0  0  0
 34 39  1  0  0  0  0
 34 33  1  0  0  0  0
 35 39  1  0  0  0  0
 35 36  1  0  0  0  0
 36 38  1  1  0  0  0
 36 37  1  0  0  0  0
 39 41  1  6  0  0  0
 39 36  1  0  0  0  0
 41 40  1  0  0  0  0
 43 42  1  0  0  0  0
 45 46  1  0  0  0  0
 45 44  1  0  0  0  0
 47 46  1  0  0  0  0
 50 56  1  1  0  0  0
 50 54  1  0  0  0  0
 51 47  1  6  0  0  0
 51 48  1  0  0  0  0
 51 56  1  0  0  0  0
 52 57  1  1  0  0  0
 52 49  1  0  0  0  0
 54 49  1  0  0  0  0
 54 53  2  0  0  0  0
 55 48  1  6  0  0  0
 55 50  1  0  0  0  0
 55 52  1  0  0  0  0
 58 57  1  0  0  0  0
 59 58  1  0  0  0  0
M  END
>  <MODEL>
6

>  <REMARK>
 VINA RESULT:      -6.0      2.665      4.703
  Name = 
  17 active torsions:
  status: ('A' for Active; 'I' for Inactive)
    1  A    between atoms: C_4  and  C_19
    2  A    between atoms: C_4  and  O_20
    3  A    between atoms: C_4  and  C_54
    4  A    between atoms: C_6  and  C_28
    5  A    between atoms: C_6  and  C_30
    6  A    between atoms: N_7  and  N_59
    7  A    between atoms: C_10  and  O_20
    8  A    between atoms: C_10  and  C_36
    9  A    between atoms: C_14  and  C_54
   10  A    between atoms: C_27  and  O_58
   11  A    between atoms: C_32  and  O_38
   12  A    between atoms: C_35  and  C_45
   13  A    between atoms: C_39  and  O_46
   14  A    between atoms: C_40  and  N_59
   15  A    between atoms: O_46  and  C_56
   16  A    between atoms: C_52  and  C_56
   17  A    between atoms: C_52  and  O_58
                            x       y       z     vdW  Elec       q    Type
                         _______ _______ _______ _____ _____    ______ ____

>  <TORSDO>
F 17

$$$$
=
 OpenBabel11042414403D

 59 66  0  0  1  0  0  0  0  0999 V2000
  190.1870  173.8110  139.1360 C   0  0  0  0  0  2  0  0  0  0  0  0
  191.5730  173.2010  143.1500 C   0  0  0  0  0  3  0  0  0  0  0  0
  190.9950  173.1150  141.9570 C   0  0  0  0  0  0  0  0  0  0  0  0
  191.2820  172.8510  139.4370 C   0  0  0  0  0  0  0  0  0  0  0  0
  189.4200  174.0210  143.3400 C   0  0  0  0  0  3  0  0  0  0  0  0
  189.6280  173.6540  142.0840 C   0  0  0  0  0  0  0  0  0  0  0  0
  190.6390  173.7800  144.1560 C   0  0  0  0  0  2  0  0  0  0  0  0
  188.5620  173.8490  141.0330 C   0  0  2  0  0  3  0  0  0  0  0  0
  193.0020  171.4080  138.5100 C   0  0  0  0  0  0  0  0  0  0  0  0
  192.7590  171.6080  140.9250 C   0  0  0  0  0  0  0  0  0  0  0  0
  193.4130  171.0820  139.8010 C   0  0  0  0  0  3  0  0  0  0  0  0
  191.6740  172.5170  140.7580 C   0  0  0  0  0  0  0  0  0  0  0  0
  191.9370  172.2910  138.3380 C   0  0  0  0  0  3  0  0  0  0  0  0
  188.8770  173.2640  139.6630 C   0  0  0  0  0  2  0  0  0  0  0  0
  188.5280  176.2020  141.9520 N   0  0  0  0  0  2  0  0  0  0  0  0
  187.4410  175.6790  139.9600 O   0  0  0  0  0  0  0  0  0  0  0  0
  188.1330  175.2830  140.9370 C   0  0  0  0  0  0  0  0  0  0  0  0
  188.3840  177.5850  141.7620 N   0  0  0  0  0  2  0  0  0  0  0  0
  185.6730  177.3120  145.5620 C   0  0  0  0  0  2  0  0  0  0  0  0
  186.0730  179.6660  143.9140 C   0  0  0  0  0  2  0  0  0  0  0  0
  185.5760  176.4010  143.2330 O   0  0  0  0  0  0  0  0  0  0  0  0
  184.6950  179.4790  144.5600 C   0  0  0  0  0  2  0  0  0  0  0  0
  184.4210  178.0890  145.1520 C   0  0  0  0  0  2  0  0  0  0  0  0
  185.4170  177.5980  142.4700 C   0  0  0  0  0  2  0  0  0  0  0  0
  187.8000  177.0730  144.0680 C   0  0  2  0  0  3  0  0  0  0  0  0
  187.8280  178.1530  142.9840 C   0  0  2  0  0  3  0  0  0  0  0  0
  186.4310  178.7310  142.7450 C   0  0  2  0  0  3  0  0  0  0  0  0
  186.3750  176.5780  144.3940 C   0  0  1  0  0  3  0  0  0  0  0  0
  190.0850  177.7800  144.7040 S   0  0  0  0  0  1  0  0  0  0  0  0
  188.4650  177.5140  145.2140 O   0  0  0  0  0  0  0  0  0  0  0  0
  193.6810  170.8310  137.3390 C   0  0  0  0  0  0  0  0  0  0  0  0
  193.2850  169.7360  136.8550 O   0  0  0  0  0  0  0  0  0  0  0  0
  194.7740  171.4980  136.7780 O   0  0  0  0  0  0  0  0  0  0  0  0
  195.3070  172.6980  137.3350 C   0  0  2  0  0  3  0  0  0  0  0  0
  195.5290  175.1300  137.0260 O   0  0  0  0  0  0  0  0  0  0  0  0
  194.1330  175.0480  137.2180 C   0  0  1  0  0  0  0  0  0  0  0  0
  193.8140  174.9250  138.5590 F   0  0  0  0  0  0  0  0  0  0  0  0
  193.4010  176.0910  136.3930 C   0  0  0  0  0  1  0  0  0  0  0  0
  194.8990  173.9610  136.5500 C   0  0  2  0  0  0  0  0  0  0  0  0
  195.8520  174.7890  134.5130 O   0  0  0  0  0  1  0  0  0  0  0  0
  194.9020  173.9040  135.0280 C   0  0  0  0  0  2  0  0  0  0  0  0
  197.3900  172.1640  136.2610 O   0  0  0  0  0  1  0  0  0  0  0  0
  196.8220  172.5910  137.4650 C   0  0  0  0  0  2  0  0  0  0  0  0
  193.1650  171.2190  142.2100 O   0  0  0  0  0  0  0  0  0  0  0  0
  193.8740  170.0180  142.4990 C   0  0  0  0  0  2  0  0  0  0  0  0
  194.8870  170.2330  143.6170 C   0  0  0  0  0  2  0  0  0  0  0  0
  194.2690  170.8040  144.7350 O   0  0  0  0  0  0  0  0  0  0  0  0
  194.3140  173.0010  145.7300 C   0  0  0  0  0  2  0  0  0  0  0  0
  194.6170  175.9970  143.8240 O   0  0  0  0  0  0  0  0  0  0  0  0
  195.0570  173.7580  143.7810 C   0  0  2  0  0  3  0  0  0  0  0  0
  195.1340  171.8020  145.1960 C   0  0  2  0  0  3  0  0  0  0  0  0
  194.1780  175.4070  145.0520 C   0  0  1  0  0  3  0  0  0  0  0  0
  195.7440  175.2000  141.8530 C   0  0  0  0  0  2  0  0  0  0  0  0
  195.2350  175.0200  143.0630 C   0  0  0  0  0  0  0  0  0  0  0  0
  194.9470  174.1650  145.1520 N   0  0  1  0  0  0  0  0  0  0  0  0
  196.1840  172.3780  143.7830 S   0  0  0  0  0  0  0  0  0  0  0  0
  194.5350  176.3430  146.2020 C   0  0  0  0  0  2  0  0  0  0  0  0
  193.3000  176.7810  146.9780 C   0  0  0  0  0  2  0  0  0  0  0  0
  192.2190  175.7200  146.8960 C   0  0  0  0  0  1  0  0  0  0  0  0
  1  4  1  0  0  0  0
  1 14  1  0  0  0  0
  2  7  1  0  0  0  0
  3  6  1  0  0  0  0
  3  2  2  0  0  0  0
  4 12  1  0  0  0  0
  5  7  1  0  0  0  0
  6  5  2  0  0  0  0
  8 17  1  6  0  0  0
  8  6  1  0  0  0  0
  9 11  2  0  0  0  0
 10 44  1  0  0  0  0
 11 10  1  0  0  0  0
 12 10  2  0  0  0  0
 12  3  1  0  0  0  0
 13  9  1  0  0  0  0
 13  4  2  0  0  0  0
 14  8  1  0  0  0  0
 16 17  2  0  0  0  0
 17 15  1  0  0  0  0
 18 15  1  0  0  0  0
 20 22  1  0  0  0  0
 21 28  1  0  0  0  0
 22 23  1  0  0  0  0
 23 19  1  0  0  0  0
 24 21  1  0  0  0  0
 25 28  1  0  0  0  0
 25 30  1  1  0  0  0
 26 18  1  6  0  0  0
 26 25  1  0  0  0  0
 27 24  1  1  0  0  0
 27 26  1  0  0  0  0
 27 20  1  0  0  0  0
 28 19  1  1  0  0  0
 29 30  1  0  0  0  0
 31  9  1  0  0  0  0
 32 31  2  0  0  0  0
 33 34  1  0  0  0  0
 33 31  1  0  0  0  0
 34 43  1  6  0  0  0
 35 36  1  0  0  0  0
 36 38  1  6  0  0  0
 36 37  1  0  0  0  0
 39 41  1  6  0  0  0
 39 35  1  0  0  0  0
 39 36  1  0  0  0  0
 39 34  1  0  0  0  0
 40 41  1  0  0  0  0
 42 43  1  0  0  0  0
 44 45  1  0  0  0  0
 45 46  1  0  0  0  0
 46 47  1  0  0  0  0
 49 52  1  0  0  0  0
 50 54  1  6  0  0  0
 50 56  1  0  0  0  0
 50 55  1  0  0  0  0
 51 47  1  6  0  0  0
 51 48  1  0  0  0  0
 52 55  1  0  0  0  0
 52 57  1  1  0  0  0
 53 54  2  0  0  0  0
 54 49  1  0  0  0  0
 55 48  1  1  0  0  0
 56 51  1  0  0  0  0
 57 58  1  0  0  0  0
 59 58  1  0  0  0  0
M  END
>  <MODEL>
7

>  <REMARK>
 VINA RESULT:      -5.9      1.749      2.328
  Name = 
  17 active torsions:
  status: ('A' for Active; 'I' for Inactive)
    1  A    between atoms: C_4  and  C_19
    2  A    between atoms: C_4  and  O_20
    3  A    between atoms: C_4  and  C_54
    4  A    between atoms: C_6  and  C_28
    5  A    between atoms: C_6  and  C_30
    6  A    between atoms: N_7  and  N_59
    7  A    between atoms: C_10  and  O_20
    8  A    between atoms: C_10  and  C_36
    9  A    between atoms: C_14  and  C_54
   10  A    between atoms: C_27  and  O_58
   11  A    between atoms: C_32  and  O_38
   12  A    between atoms: C_35  and  C_45
   13  A    between atoms: C_39  and  O_46
   14  A    between atoms: C_40  and  N_59
   15  A    between atoms: O_46  and  C_56
   16  A    between atoms: C_52  and  C_56
   17  A    between atoms: C_52  and  O_58
                            x       y       z     vdW  Elec       q    Type
                         _______ _______ _______ _____ _____    ______ ____

>  <TORSDO>
F 17

$$$$
=
 OpenBabel11042414403D

 59 66  0  0  1  0  0  0  0  0999 V2000
  190.2900  175.4170  144.3950 C   0  0  0  0  0  2  0  0  0  0  0  0
  191.0500  172.3250  141.5200 C   0  0  0  0  0  3  0  0  0  0  0  0
  190.5910  173.0820  142.5110 C   0  0  2  0  0  3  0  0  0  0  0  0
  189.4090  175.2290  143.2120 C   0  0  0  0  0  0  0  0  0  0  0  0
  192.0750  171.6400  143.4750 C   0  0  0  0  0  3  0  0  0  0  0  0
  191.2610  172.6480  143.7500 C   0  0  0  0  0  0  0  0  0  0  0  0
  192.0350  171.3280  142.0220 C   0  0  0  0  0  3  0  0  0  0  0  0
  191.1580  173.2010  145.1520 C   0  0  2  0  0  3  0  0  0  0  0  0
  187.5780  176.1450  141.9030 C   0  0  0  0  0  0  0  0  0  0  0  0
  188.6590  174.0790  141.1980 C   0  0  0  0  0  0  0  0  0  0  0  0
  187.7050  175.0890  141.0030 C   0  0  0  0  0  3  0  0  0  0  0  0
  189.5410  174.1390  142.3160 C   0  0  0  0  0  0  0  0  0  0  0  0
  188.4320  176.2060  143.0030 C   0  0  0  0  0  3  0  0  0  0  0  0
  190.0920  174.2670  145.3600 C   0  0  0  0  0  2  0  0  0  0  0  0
  193.6780  173.0230  145.1830 N   0  0  0  0  0  2  0  0  0  0  0  0
  192.5720  174.5710  146.5230 O   0  0  0  0  0  0  0  0  0  0  0  0
  192.4940  173.6450  145.6720 C   0  0  0  0  0  0  0  0  0  0  0  0
  194.9390  173.5850  145.4320 N   0  0  0  0  0  2  0  0  0  0  0  0
  197.0150  176.4240  142.3510 C   0  0  0  0  0  2  0  0  0  0  0  0
  195.1990  174.2510  141.7180 C   0  0  0  0  0  2  0  0  0  0  0  0
  195.2110  176.6690  144.0680 O   0  0  0  0  0  0  0  0  0  0  0  0
  195.1690  175.4870  140.8100 C   0  0  0  0  0  2  0  0  0  0  0  0
  195.8980  176.7260  141.3500 C   0  0  0  0  0  2  0  0  0  0  0  0
  194.1860  175.8400  143.5200 C   0  0  0  0  0  2  0  0  0  0  0  0
  196.7710  174.7780  144.3610 C   0  0  2  0  0  3  0  0  0  0  0  0
  195.5860  173.8310  144.1490 C   0  0  2  0  0  3  0  0  0  0  0  0
  194.5990  174.4030  143.1270 C   0  0  2  0  0  3  0  0  0  0  0  0
  196.5230  176.1940  143.7990 C   0  0  1  0  0  3  0  0  0  0  0  0
  197.7500  172.5250  144.0670 S   0  0  0  0  0  1  0  0  0  0  0  0
  197.9410  174.2180  143.8460 O   0  0  0  0  0  0  0  0  0  0  0  0
  186.5570  177.1850  141.7000 C   0  0  0  0  0  0  0  0  0  0  0  0
  186.4980  177.8070  140.6050 O   0  0  0  0  0  0  0  0  0  0  0  0
  185.6650  177.4870  142.7330 O   0  0  0  0  0  0  0  0  0  0  0  0
  185.9980  178.3740  143.7990 C   0  0  2  0  0  3  0  0  0  0  0  0
  186.5100  178.5360  146.2010 O   0  0  0  0  0  0  0  0  0  0  0  0
  187.5110  177.6200  145.8130 C   0  0  1  0  0  0  0  0  0  0  0  0
  188.5800  178.2640  145.2160 F   0  0  0  0  0  0  0  0  0  0  0  0
  187.7950  176.6150  146.9150 C   0  0  0  0  0  1  0  0  0  0  0  0
  186.1790  177.6550  145.1500 C   0  0  2  0  0  0  0  0  0  0  0  0
  184.4440  177.1020  146.7080 O   0  0  0  0  0  1  0  0  0  0  0  0
  185.1270  176.6410  145.5800 C   0  0  0  0  0  2  0  0  0  0  0  0
  185.5910  180.7400  143.9290 O   0  0  0  0  0  1  0  0  0  0  0  0
  184.9650  179.4900  143.8980 C   0  0  0  0  0  2  0  0  0  0  0  0
  188.7260  173.0040  140.3010 O   0  0  0  0  0  0  0  0  0  0  0  0
  188.1260  172.9970  139.0080 C   0  0  0  0  0  2  0  0  0  0  0  0
  189.1840  172.9760  137.9120 C   0  0  0  0  0  2  0  0  0  0  0  0
  190.4230  172.5850  138.4330 O   0  0  0  0  0  0  0  0  0  0  0  0
  192.5050  173.5990  137.7610 C   0  0  0  0  0  2  0  0  0  0  0  0
  192.6840  176.6270  135.8900 O   0  0  0  0  0  0  0  0  0  0  0  0
  191.3270  174.8540  136.3610 C   0  0  2  0  0  3  0  0  0  0  0  0
  191.3360  172.6620  137.3760 C   0  0  2  0  0  3  0  0  0  0  0  0
  193.3600  175.7430  136.7910 C   0  0  1  0  0  3  0  0  0  0  0  0
  190.5650  176.6120  134.7490 C   0  0  0  0  0  2  0  0  0  0  0  0
  191.4680  176.0610  135.5470 C   0  0  0  0  0  0  0  0  0  0  0  0
  192.6820  174.4560  136.6110 N   0  0  1  0  0  0  0  0  0  0  0  0
  190.4720  173.3610  135.8940 S   0  0  0  0  0  0  0  0  0  0  0  0
  194.8210  175.6330  136.3670 C   0  0  0  0  0  2  0  0  0  0  0  0
  195.6320  174.7980  137.3490 C   0  0  0  0  0  2  0  0  0  0  0  0
  197.1140  175.0850  137.1920 C   0  0  0  0  0  1  0  0  0  0  0  0
  1 14  1  0  0  0  0
  2  7  2  0  0  0  0
  3  2  1  1  0  0  0
  3  6  1  0  0  0  0
  4  1  1  0  0  0  0
  5  6  2  0  0  0  0
  6  8  1  0  0  0  0
  7  5  1  0  0  0  0
  8 14  1  0  0  0  0
  8 17  1  6  0  0  0
  9 13  2  0  0  0  0
 10 12  1  0  0  0  0
 11 10  2  0  0  0  0
 11  9  1  0  0  0  0
 12  3  1  0  0  0  0
 12  4  2  0  0  0  0
 13  4  1  0  0  0  0
 15 18  1  0  0  0  0
 15 17  1  0  0  0  0
 17 16  2  0  0  0  0
 22 23  1  0  0  0  0
 22 20  1  0  0  0  0
 23 19  1  0  0  0  0
 24 21  1  0  0  0  0
 25 30  1  6  0  0  0
 26 25  1  0  0  0  0
 26 18  1  1  0  0  0
 27 20  1  6  0  0  0
 27 24  1  0  0  0  0
 27 26  1  0  0  0  0
 28 19  1  6  0  0  0
 28 21  1  0  0  0  0
 28 25  1  0  0  0  0
 30 29  1  0  0  0  0
 31  9  1  0  0  0  0
 31 33  1  0  0  0  0
 32 31  2  0  0  0  0
 33 34  1  0  0  0  0
 34 43  1  1  0  0  0
 34 39  1  0  0  0  0
 36 35  1  0  0  0  0
 36 38  1  1  0  0  0
 37 36  1  0  0  0  0
 39 41  1  1  0  0  0
 39 36  1  0  0  0  0
 39 35  1  0  0  0  0
 41 40  1  0  0  0  0
 43 42  1  0  0  0  0
 44 10  1  0  0  0  0
 45 44  1  0  0  0  0
 46 47  1  0  0  0  0
 46 45  1  0  0  0  0
 49 52  1  0  0  0  0
 50 54  1  6  0  0  0
 50 55  1  0  0  0  0
 51 48  1  0  0  0  0
 51 47  1  1  0  0  0
 52 57  1  6  0  0  0
 53 54  2  0  0  0  0
 54 49  1  0  0  0  0
 55 52  1  0  0  0  0
 55 48  1  1  0  0  0
 56 50  1  0  0  0  0
 56 51  1  0  0  0  0
 57 58  1  0  0  0  0
 59 58  1  0  0  0  0
M  END
>  <MODEL>
8

>  <REMARK>
 VINA RESULT:      -5.8      3.433      9.752
  Name = 
  17 active torsions:
  status: ('A' for Active; 'I' for Inactive)
    1  A    between atoms: C_4  and  C_19
    2  A    between atoms: C_4  and  O_20
    3  A    between atoms: C_4  and  C_54
    4  A    between atoms: C_6  and  C_28
    5  A    between atoms: C_6  and  C_30
    6  A    between atoms: N_7  and  N_59
    7  A    between atoms: C_10  and  O_20
    8  A    between atoms: C_10  and  C_36
    9  A    between atoms: C_14  and  C_54
   10  A    between atoms: C_27  and  O_58
   11  A    between atoms: C_32  and  O_38
   12  A    between atoms: C_35  and  C_45
   13  A    between atoms: C_39  and  O_46
   14  A    between atoms: C_40  and  N_59
   15  A    between atoms: O_46  and  C_56
   16  A    between atoms: C_52  and  C_56
   17  A    between atoms: C_52  and  O_58
                            x       y       z     vdW  Elec       q    Type
                         _______ _______ _______ _____ _____    ______ ____

>  <TORSDO>
F 17

$$$$
=
 OpenBabel11042414403D

 59 66  0  0  1  0  0  0  0  0999 V2000
  189.3530  174.0290  143.3880 C   0  0  0  0  0  2  0  0  0  0  0  0
  193.1490  176.0140  143.1640 C   0  0  0  0  0  3  0  0  0  0  0  0
  192.1520  175.1440  143.2870 C   0  0  0  0  0  0  0  0  0  0  0  0
  190.2090  173.9230  142.1770 C   0  0  0  0  0  0  0  0  0  0  0  0
  192.6980  175.7590  145.4170 C   0  0  0  0  0  3  0  0  0  0  0  0
  191.8630  174.9990  144.7250 C   0  0  0  0  0  0  0  0  0  0  0  0
  193.6060  176.4950  144.4970 C   0  0  0  0  0  2  0  0  0  0  0  0
  190.7950  174.1890  145.4210 C   0  0  2  0  0  3  0  0  0  0  0  0
  190.3460  173.1700  139.8720 C   0  0  0  0  0  0  0  0  0  0  0  0
  192.2410  174.3140  140.8890 C   0  0  0  0  0  0  0  0  0  0  0  0
  191.6350  173.6930  139.7860 C   0  0  0  0  0  3  0  0  0  0  0  0
  191.5250  174.4460  142.1140 C   0  0  0  0  0  0  0  0  0  0  0  0
  189.6430  173.2880  141.0690 C   0  0  0  0  0  3  0  0  0  0  0  0
  189.9890  173.2580  144.5250 C   0  0  0  0  0  2  0  0  0  0  0  0
  189.0550  176.0080  145.6380 N   0  0  0  0  0  2  0  0  0  0  0  0
  189.8950  174.9250  147.5190 O   0  0  0  0  0  0  0  0  0  0  0  0
  189.9050  175.0520  146.2650 C   0  0  0  0  0  0  0  0  0  0  0  0
  188.0240  176.6320  146.3560 N   0  0  0  0  0  2  0  0  0  0  0  0
  184.5570  178.7380  144.0290 C   0  0  0  0  0  2  0  0  0  0  0  0
  187.3450  178.6480  143.2280 C   0  0  0  0  0  2  0  0  0  0  0  0
  185.2090  176.3670  144.4970 O   0  0  0  0  0  0  0  0  0  0  0  0
  186.2880  178.6440  142.1170 C   0  0  0  0  0  2  0  0  0  0  0  0
  184.8470  178.3740  142.5720 C   0  0  0  0  0  2  0  0  0  0  0  0
  186.4380  176.2660  143.7760 C   0  0  0  0  0  2  0  0  0  0  0  0
  186.0980  178.0850  146.0320 C   0  0  2  0  0  3  0  0  0  0  0  0
  187.5040  177.7250  145.5430 C   0  0  2  0  0  3  0  0  0  0  0  0
  187.4940  177.3590  144.0560 C   0  0  2  0  0  3  0  0  0  0  0  0
  184.9870  177.6570  145.0500 C   0  0  1  0  0  3  0  0  0  0  0  0
  186.3460  179.5370  148.0210 S   0  0  0  0  0  1  0  0  0  0  0  0
  186.0200  179.4450  146.3350 O   0  0  0  0  0  0  0  0  0  0  0  0
  189.7310  172.5000  138.7150 C   0  0  0  0  0  0  0  0  0  0  0  0
  188.4870  172.2980  138.6900 O   0  0  0  0  0  0  0  0  0  0  0  0
  190.5370  172.0780  137.6530 O   0  0  0  0  0  0  0  0  0  0  0  0
  190.1680  171.0050  136.7890 C   0  0  2  0  0  3  0  0  0  0  0  0
  190.4930  168.5860  137.1090 O   0  0  0  0  0  0  0  0  0  0  0  0
  191.3390  169.0700  138.1300 C   0  0  1  0  0  0  0  0  0  0  0  0
  190.6150  169.4440  139.2490 F   0  0  0  0  0  0  0  0  0  0  0  0
  192.5460  168.1700  138.3180 C   0  0  0  0  0  1  0  0  0  0  0  0
  191.1430  169.8130  136.8560 C   0  0  2  0  0  0  0  0  0  0  0  0
  191.8220  168.6820  134.8550 O   0  0  0  0  0  1  0  0  0  0  0  0
  192.1960  169.6730  135.7650 C   0  0  0  0  0  2  0  0  0  0  0  0
  191.0040  172.4390  135.0510 O   0  0  0  0  0  1  0  0  0  0  0  0
  190.0060  171.5110  135.3600 C   0  0  0  0  0  2  0  0  0  0  0  0
  193.5580  174.7830  140.7840 O   0  0  0  0  0  0  0  0  0  0  0  0
  194.1360  175.2950  139.5860 C   0  0  0  0  0  2  0  0  0  0  0  0
  195.5090  174.6840  139.3350 C   0  0  0  0  0  2  0  0  0  0  0  0
  195.5380  173.3510  139.7600 O   0  0  0  0  0  0  0  0  0  0  0  0
  196.2940  172.6870  141.9520 C   0  0  0  0  0  2  0  0  0  0  0  0
  196.7930  174.9930  144.6230 O   0  0  0  0  0  0  0  0  0  0  0  0
  196.7090  174.8300  142.3480 C   0  0  2  0  0  3  0  0  0  0  0  0
  196.6840  173.2150  140.5510 C   0  0  2  0  0  3  0  0  0  0  0  0
  196.5330  173.6330  144.2570 C   0  0  1  0  0  3  0  0  0  0  0  0
  197.2270  177.0320  143.4210 C   0  0  0  0  0  2  0  0  0  0  0  0
  196.9880  175.7300  143.4670 C   0  0  0  0  0  0  0  0  0  0  0  0
  197.0140  173.5320  142.8770 N   0  0  1  0  0  0  0  0  0  0  0  0
  197.4760  174.8790  140.7400 S   0  0  0  0  0  0  0  0  0  0  0  0
  197.3450  172.7160  145.1670 C   0  0  0  0  0  2  0  0  0  0  0  0
  196.4480  171.8850  146.0740 C   0  0  0  0  0  2  0  0  0  0  0  0
  195.0930  171.6680  145.4260 C   0  0  0  0  0  1  0  0  0  0  0  0
  1 14  1  0  0  0  0
  2  3  2  0  0  0  0
  2  7  1  0  0  0  0
  3  6  1  0  0  0  0
  4  1  1  0  0  0  0
  6  5  2  0  0  0  0
  6  8  1  0  0  0  0
  7  5  1  0  0  0  0
  8 17  1  6  0  0  0
  9 13  1  0  0  0  0
 10 12  2  0  0  0  0
 11  9  2  0  0  0  0
 11 10  1  0  0  0  0
 12  4  1  0  0  0  0
 12  3  1  0  0  0  0
 13  4  2  0  0  0  0
 14  8  1  0  0  0  0
 15 17  1  0  0  0  0
 15 18  1  0  0  0  0
 17 16  2  0  0  0  0
 21 28  1  0  0  0  0
 22 23  1  0  0  0  0
 22 20  1  0  0  0  0
 23 19  1  0  0  0  0
 24 27  1  0  0  0  0
 24 21  1  0  0  0  0
 25 30  1  6  0  0  0
 26 25  1  0  0  0  0
 26 18  1  1  0  0  0
 27 20  1  6  0  0  0
 27 26  1  0  0  0  0
 28 19  1  6  0  0  0
 28 25  1  0  0  0  0
 30 29  1  0  0  0  0
 31  9  1  0  0  0  0
 32 31  2  0  0  0  0
 33 31  1  0  0  0  0
 34 43  1  6  0  0  0
 34 39  1  0  0  0  0
 34 33  1  0  0  0  0
 35 36  1  0  0  0  0
 36 38  1  1  0  0  0
 36 37  1  0  0  0  0
 39 41  1  6  0  0  0
 39 35  1  0  0  0  0
 39 36  1  0  0  0  0
 40 41  1  0  0  0  0
 42 43  1  0  0  0  0
 44 10  1  0  0  0  0
 45 44  1  0  0  0  0
 46 45  1  0  0  0  0
 46 47  1  0  0  0  0
 50 56  1  6  0  0  0
 50 55  1  0  0  0  0
 50 54  1  0  0  0  0
 51 47  1  6  0  0  0
 51 56  1  0  0  0  0
 51 48  1  0  0  0  0
 52 49  1  0  0  0  0
 52 57  1  1  0  0  0
 53 54  2  0  0  0  0
 54 49  1  0  0  0  0
 55 48  1  6  0  0  0
 55 52  1  0  0  0  0
 57 58  1  0  0  0  0
 59 58  1  0  0  0  0
M  END
>  <MODEL>
9

>  <REMARK>
 VINA RESULT:      -5.7      2.976      5.031
  Name = 
  17 active torsions:
  status: ('A' for Active; 'I' for Inactive)
    1  A    between atoms: C_4  and  C_19
    2  A    between atoms: C_4  and  O_20
    3  A    between atoms: C_4  and  C_54
    4  A    between atoms: C_6  and  C_28
    5  A    between atoms: C_6  and  C_30
    6  A    between atoms: N_7  and  N_59
    7  A    between atoms: C_10  and  O_20
    8  A    between atoms: C_10  and  C_36
    9  A    between atoms: C_14  and  C_54
   10  A    between atoms: C_27  and  O_58
   11  A    between atoms: C_32  and  O_38
   12  A    between atoms: C_35  and  C_45
   13  A    between atoms: C_39  and  O_46
   14  A    between atoms: C_40  and  N_59
   15  A    between atoms: O_46  and  C_56
   16  A    between atoms: C_52  and  C_56
   17  A    between atoms: C_52  and  O_58
                            x       y       z     vdW  Elec       q    Type
                         _______ _______ _______ _____ _____    ______ ____

>  <TORSDO>
F 17

$$$$
