=
 OpenBabel11042419133D

 66 71  0  0  1  0  0  0  0  0999 V2000
  190.9430  174.3330  141.1850 C   0  0  2  0  0  3  0  0  0  0  0  0
  190.7270  170.7920  139.6200 C   0  0  2  0  0  3  0  0  0  0  0  0
  191.3920  173.1050  140.3820 C   0  0  2  0  0  3  0  0  0  0  0  0
  190.0330  172.4230  139.3630 S   0  0  0  0  0  0  0  0  0  0  0  0
  191.8480  171.9860  141.3190 C   0  0  0  0  0  2  0  0  0  0  0  0
  191.6260  170.7100  140.5900 C   0  0  0  0  0  2  0  0  0  0  0  0
  190.4380  169.6310  138.7170 C   0  0  1  0  0  3  0  0  0  0  0  0
  189.3290  169.9270  137.9180 O   0  0  0  0  0  1  0  0  0  0  0  0
  193.2510  169.3710  135.4490 C   0  0  0  0  0  2  0  0  0  0  0  0
  191.6540  169.2940  137.8520 C   0  0  2  0  0  3  0  0  0  0  0  0
  193.6640  170.2240  136.6520 C   0  0  1  0  0  3  0  0  0  0  0  0
  192.4450  170.5630  137.5100 C   0  0  0  0  0  2  0  0  0  0  0  0
  191.2250  168.6430  136.6140 N   0  0  0  0  0  2  0  0  0  0  0  0
  192.4090  168.1780  135.8950 C   0  0  0  0  0  2  0  0  0  0  0  0
  194.7320  169.5350  137.4940 C   0  0  0  0  0  2  0  0  0  0  0  0
  195.6230  171.8160  136.6560 N   0  0  0  0  0  1  0  0  0  0  0  0
  196.3530  170.3220  137.2490 S   0  0  0  0  0  0  0  0  0  0  0  0
  192.2360  175.0160  143.1270 N   0  0  0  0  0  0  0  0  0  0  0  0
  192.0920  175.0330  141.8510 C   0  0  0  0  0  3  0  0  0  0  0  0
  193.3560  175.6790  143.7390 C   0  0  1  0  0  3  0  0  0  0  0  0
  194.4350  175.9440  142.7010 C   0  0  0  0  0  2  0  0  0  0  0  0
  195.8050  175.9630  143.3510 C   0  0  0  0  0  2  0  0  0  0  0  0
  196.4640  174.6830  143.1510 N   0  0  0  0  0  2  0  0  0  0  0  0
  195.9040  174.0740  141.9480 C   0  0  1  0  0  3  0  0  0  0  0  0
  196.7450  174.3660  140.7910 N   0  0  0  0  0  2  0  0  0  0  0  0
  194.8580  174.7490  139.0990 C   0  0  0  0  0  3  0  0  0  0  0  0
  194.8600  175.0690  137.8150 C   0  0  0  0  0  0  0  0  0  0  0  0
  197.0600  174.9610  138.5080 N   0  0  0  0  0  0  0  0  0  0  0  0
  196.2640  175.2300  137.3220 C   0  0  0  0  0  2  0  0  0  0  0  0
  196.2600  174.6960  139.4850 C   0  0  0  0  0  0  0  0  0  0  0  0
  191.5650  174.4310  136.0770 C   0  0  0  0  0  0  0  0  0  0  0  0
  190.5560  173.3530  135.9330 C   0  0  0  0  0  1  0  0  0  0  0  0
  193.4200  176.4710  136.3410 C   0  0  0  0  0  3  0  0  0  0  0  0
  191.3810  175.6560  135.4390 C   0  0  0  0  0  3  0  0  0  0  0  0
  193.6510  175.2550  136.9940 C   0  0  0  0  0  0  0  0  0  0  0  0
  192.3040  176.6420  135.5840 N   0  0  0  0  0  0  0  0  0  0  0  0
  192.7050  174.2290  136.8530 C   0  0  0  0  0  3  0  0  0  0  0  0
  196.9630  170.4100  141.5060 C   0  0  0  0  0  2  0  0  0  0  0  0
  195.2570  171.9480  140.8310 N   0  0  0  0  0  2  0  0  0  0  0  0
  195.5650  170.5370  140.9530 C   0  0  0  0  0  2  0  0  0  0  0  0
  197.1710  171.7440  142.7080 S   0  0  0  0  0  0  0  0  0  0  0  0
  195.6690  172.5630  142.0880 C   0  0  1  0  0  3  0  0  0  0  0  0
  192.9310  176.8870  144.2920 O   0  0  0  0  0  0  0  0  0  0  0  0
  191.9710  176.5320  145.2430 C   0  0  0  0  0  2  0  0  0  0  0  0
  193.9550  176.6830  146.8830 C   0  0  0  0  0  1  0  0  0  0  0  0
  192.0250  175.2570  147.3330 C   0  0  0  0  0  2  0  0  0  0  0  0
  192.6430  176.0890  146.4990 C   0  0  0  0  0  0  0  0  0  0  0  0
  189.9000  173.9480  142.2250 C   0  0  0  0  0  2  0  0  0  0  0  0
  189.1620  176.2610  141.9390 C   0  0  0  0  0  3  0  0  0  0  0  0
  188.8670  175.0160  142.2970 C   0  0  0  0  0  3  0  0  0  0  0  0
  188.1220  177.3350  142.0050 C   0  0  2  0  0  3  0  0  0  0  0  0
  187.7670  177.6190  143.4330 C   0  0  0  0  0  0  0  0  0  0  0  0
  187.2550  178.7260  143.7530 O   0  0  0  0  0  0  0  0  0  0  0  0
  187.9930  176.6110  144.4220 N   0  0  0  0  0  2  0  0  0  0  0  0
  188.3960  175.7090  146.6650 C   0  0  0  0  0  1  0  0  0  0  0  0
  187.7040  176.7800  145.8430 C   0  0  2  0  0  3  0  0  0  0  0  0
  186.2660  176.7470  146.0690 N   0  0  0  0  0  2  0  0  0  0  0  0
  185.8250  177.8950  148.1540 C   0  0  0  0  0  1  0  0  0  0  0  0
  185.8730  178.0220  146.6460 C   0  0  2  0  0  3  0  0  0  0  0  0
  184.2280  178.5050  146.0320 S   0  0  0  0  0  1  0  0  0  0  0  0
  186.9140  176.9930  141.1770 C   0  0  0  0  0  0  0  0  0  0  0  0
  187.0620  176.5760  139.9960 O   0  0  0  0  0  0  0  0  0  0  0  0
  185.6320  177.2230  141.6820 O   0  0  0  0  0  0  0  0  0  0  0  0
  184.8660  178.3550  141.2960 C   0  0  0  0  0  3  0  0  0  0  0  0
  183.6920  177.8960  140.4560 C   0  0  0  0  0  2  0  0  0  0  0  0
  183.4840  178.2540  141.9090 C   0  0  0  0  0  2  0  0  0  0  0  0
  1 19  1  1  0  0  0
  1 48  1  0  0  0  0
  2  7  1  6  0  0  0
  2  6  1  0  0  0  0
  3  1  1  1  0  0  0
  3  5  1  0  0  0  0
  4  2  1  0  0  0  0
  4  3  1  0  0  0  0
  6  5  1  0  0  0  0
  7  8  1  6  0  0  0
  9 14  1  0  0  0  0
  9 11  1  0  0  0  0
 10  7  1  1  0  0  0
 11 15  1  1  0  0  0
 11 12  1  0  0  0  0
 12 10  1  0  0  0  0
 13 10  1  0  0  0  0
 14 13  1  0  0  0  0
 16 17  1  0  0  0  0
 17 15  1  0  0  0  0
 18 20  1  0  0  0  0
 19 18  2  0  0  0  0
 20 21  1  6  0  0  0
 20 43  1  0  0  0  0
 21 22  1  0  0  0  0
 23 22  1  0  0  0  0
 24 25  1  6  0  0  0
 24 23  1  0  0  0  0
 26 30  1  0  0  0  0
 27 26  2  0  0  0  0
 28 30  2  0  0  0  0
 29 27  1  0  0  0  0
 29 28  1  0  0  0  0
 30 25  1  0  0  0  0
 31 37  1  0  0  0  0
 32 31  1  0  0  0  0
 33 35  1  0  0  0  0
 34 36  1  0  0  0  0
 34 31  2  0  0  0  0
 35 27  1  0  0  0  0
 36 33  2  0  0  0  0
 37 35  2  0  0  0  0
 38 41  1  0  0  0  0
 39 40  1  0  0  0  0
 39 42  1  0  0  0  0
 40 38  1  0  0  0  0
 42 24  1  6  0  0  0
 42 41  1  0  0  0  0
 43 44  1  0  0  0  0
 44 47  1  0  0  0  0
 47 45  1  0  0  0  0
 47 46  2  0  0  0  0
 48 50  1  0  0  0  0
 49 50  2  0  0  0  0
 51 49  1  1  0  0  0
 51 52  1  0  0  0  0
 52 53  2  0  0  0  0
 52 54  1  0  0  0  0
 54 56  1  0  0  0  0
 56 57  1  0  0  0  0
 56 55  1  1  0  0  0
 57 59  1  0  0  0  0
 59 58  1  1  0  0  0
 60 59  1  0  0  0  0
 61 63  1  0  0  0  0
 61 51  1  0  0  0  0
 62 61  2  0  0  0  0
 64 63  1  0  0  0  0
 64 66  1  0  0  0  0
 65 64  1  0  0  0  0
 65 66  1  0  0  0  0
M  END
>  <MODEL>
1

>  <REMARK>
 VINA RESULT:      -5.5      0.000      0.000
  Name = 
  27 active torsions:
  status: ('A' for Active; 'I' for Inactive)
    1  A    between atoms: C_3  and  C_5
    2  A    between atoms: C_3  and  C_14
    3  A    between atoms: C_6  and  N_10
    4  A    between atoms: C_6  and  N_50
    5  A    between atoms: C_6  and  C_61
    6  A    between atoms: O_7  and  C_37
    7  A    between atoms: O_7  and  C_45
    8  A    between atoms: C_8  and  C_17
    9  A    between atoms: C_9  and  C_42
   10  A    between atoms: N_11  and  C_37
   11  A    between atoms: C_13  and  C_42
   12  A    between atoms: C_13  and  O_53
   13  A    between atoms: C_17  and  C_18
   14  A    between atoms: C_17  and  C_26
   15  A    between atoms: C_18  and  C_48
   16  A    between atoms: C_23  and  C_49
   17  A    between atoms: C_27  and  C_28
   18  A    between atoms: C_27  and  C_37
   19  A    between atoms: C_28  and  N_50
   20  A    between atoms: C_29  and  C_55
   21  A    between atoms: C_31  and  C_42
   22  A    between atoms: C_35  and  O_53
   23  A    between atoms: C_44  and  C_45
   24  A    between atoms: C_46  and  N_59
   25  A    between atoms: C_46  and  N_66
   26  A    between atoms: C_51  and  N_59
   27  A    between atoms: C_55  and  S_60
                            x       y       z     vdW  Elec       q    Type
                         _______ _______ _______ _____ _____    ______ ____

>  <TORSDO>
F 27

$$$$
=
 OpenBabel11042419133D

 66 71  0  0  1  0  0  0  0  0999 V2000
  190.1960  173.1920  140.6340 C   0  0  2  0  0  3  0  0  0  0  0  0
  192.0870  170.8300  143.0570 C   0  0  2  0  0  3  0  0  0  0  0  0
  190.4230  171.9820  141.5480 C   0  0  2  0  0  3  0  0  0  0  0  0
  191.3090  172.4420  143.0820 S   0  0  0  0  0  0  0  0  0  0  0  0
  191.2780  170.9280  140.8430 C   0  0  0  0  0  2  0  0  0  0  0  0
  191.9820  170.1720  141.9110 C   0  0  0  0  0  2  0  0  0  0  0  0
  192.6850  170.1940  144.2760 C   0  0  1  0  0  3  0  0  0  0  0  0
  192.5900  168.8030  144.1700 O   0  0  0  0  0  1  0  0  0  0  0  0
  196.5990  170.9680  145.9330 C   0  0  0  0  0  2  0  0  0  0  0  0
  194.1420  170.6240  144.4570 C   0  0  2  0  0  3  0  0  0  0  0  0
  196.4940  169.8410  144.9020 C   0  0  1  0  0  3  0  0  0  0  0  0
  195.0380  169.4090  144.7280 C   0  0  0  0  0  2  0  0  0  0  0  0
  194.2530  171.5650  145.5730 N   0  0  0  0  0  2  0  0  0  0  0  0
  195.6150  172.0900  145.6090 C   0  0  0  0  0  2  0  0  0  0  0  0
  197.0930  170.2440  143.5590 C   0  0  0  0  0  2  0  0  0  0  0  0
  197.7710  168.8670  141.4760 N   0  0  0  0  0  1  0  0  0  0  0  0
  196.2470  169.3940  142.1930 S   0  0  0  0  0  0  0  0  0  0  0  0
  188.3600  174.5010  141.5430 N   0  0  0  0  0  0  0  0  0  0  0  0
  189.6260  174.3700  141.3720 C   0  0  0  0  0  3  0  0  0  0  0  0
  187.8410  175.6280  142.2700 C   0  0  1  0  0  3  0  0  0  0  0  0
  188.9600  176.6120  142.5740 C   0  0  0  0  0  2  0  0  0  0  0  0
  188.9320  177.0150  144.0360 C   0  0  0  0  0  2  0  0  0  0  0  0
  189.1270  175.8430  144.8750 N   0  0  0  0  0  2  0  0  0  0  0  0
  188.4630  176.0920  146.1510 C   0  0  1  0  0  3  0  0  0  0  0  0
  189.4430  176.4430  147.1750 N   0  0  0  0  0  2  0  0  0  0  0  0
  191.5460  176.0930  145.7520 C   0  0  0  0  0  3  0  0  0  0  0  0
  192.8350  176.2330  146.0130 C   0  0  0  0  0  0  0  0  0  0  0  0
  191.6730  176.7990  147.9260 N   0  0  0  0  0  0  0  0  0  0  0  0
  193.0320  176.6920  147.4240 C   0  0  0  0  0  2  0  0  0  0  0  0
  190.8610  176.4610  146.9820 C   0  0  0  0  0  0  0  0  0  0  0  0
  194.8930  174.7020  143.2370 C   0  0  0  0  0  0  0  0  0  0  0  0
  194.8280  173.5750  142.2750 C   0  0  0  0  0  1  0  0  0  0  0  0
  195.0370  176.8270  145.0070 C   0  0  0  0  0  3  0  0  0  0  0  0
  195.9890  175.5620  143.2380 C   0  0  0  0  0  3  0  0  0  0  0  0
  193.9200  175.9850  145.0470 C   0  0  0  0  0  0  0  0  0  0  0  0
  196.0370  176.5990  144.1160 N   0  0  0  0  0  0  0  0  0  0  0  0
  193.8580  174.9120  144.1470 C   0  0  0  0  0  3  0  0  0  0  0  0
  185.6260  178.1880  147.6670 C   0  0  0  0  0  2  0  0  0  0  0  0
  186.0300  176.5640  145.9550 N   0  0  0  0  0  2  0  0  0  0  0  0
  185.0980  177.5870  146.3880 C   0  0  0  0  0  2  0  0  0  0  0  0
  187.4250  178.2600  147.5060 S   0  0  0  0  0  0  0  0  0  0  0  0
  187.3580  177.1550  146.0610 C   0  0  1  0  0  3  0  0  0  0  0  0
  186.8580  176.2570  141.5060 O   0  0  0  0  0  0  0  0  0  0  0  0
  185.8970  176.6790  142.4280 C   0  0  0  0  0  2  0  0  0  0  0  0
  185.8880  179.1550  143.1500 C   0  0  0  0  0  1  0  0  0  0  0  0
  184.9910  178.4440  140.9930 C   0  0  0  0  0  2  0  0  0  0  0  0
  185.5300  178.1000  142.1610 C   0  0  0  0  0  0  0  0  0  0  0  0
  189.2900  172.8270  139.4670 C   0  0  0  0  0  2  0  0  0  0  0  0
  191.0680  173.7210  138.0480 C   0  0  0  0  0  3  0  0  0  0  0  0
  189.7690  173.5220  138.2420 C   0  0  0  0  0  3  0  0  0  0  0  0
  191.5520  174.4140  136.8120 C   0  0  2  0  0  3  0  0  0  0  0  0
  191.6910  173.4300  135.6920 C   0  0  0  0  0  0  0  0  0  0  0  0
  191.3880  173.7600  134.5130 O   0  0  0  0  0  0  0  0  0  0  0  0
  192.1950  172.1210  135.9710 N   0  0  0  0  0  2  0  0  0  0  0  0
  191.0740  170.2810  134.8020 C   0  0  0  0  0  1  0  0  0  0  0  0
  192.3570  171.0750  134.9660 C   0  0  2  0  0  3  0  0  0  0  0  0
  193.4580  170.1950  135.3310 N   0  0  0  0  0  2  0  0  0  0  0  0
  195.3840  170.6750  136.7160 C   0  0  0  0  0  1  0  0  0  0  0  0
  193.8770  170.5360  136.6810 C   0  0  2  0  0  3  0  0  0  0  0  0
  193.3680  169.2300  137.8410 S   0  0  0  0  0  1  0  0  0  0  0  0
  192.8250  175.1750  137.0620 C   0  0  0  0  0  0  0  0  0  0  0  0
  193.0970  176.1890  136.3620 O   0  0  0  0  0  0  0  0  0  0  0  0
  193.7450  174.7070  138.0030 O   0  0  0  0  0  0  0  0  0  0  0  0
  195.0340  174.2440  137.6250 C   0  0  0  0  0  3  0  0  0  0  0  0
  196.0840  175.0220  138.3920 C   0  0  0  0  0  2  0  0  0  0  0  0
  195.7130  173.6230  138.8300 C   0  0  0  0  0  2  0  0  0  0  0  0
  1 48  1  6  0  0  0
  1 19  1  0  0  0  0
  2  4  1  0  0  0  0
  2  7  1  1  0  0  0
  3  1  1  6  0  0  0
  3  4  1  0  0  0  0
  5  3  1  0  0  0  0
  5  6  1  0  0  0  0
  6  2  1  0  0  0  0
  7  8  1  6  0  0  0
 10  7  1  1  0  0  0
 10 12  1  0  0  0  0
 10 13  1  0  0  0  0
 11 15  1  6  0  0  0
 11  9  1  0  0  0  0
 12 11  1  0  0  0  0
 13 14  1  0  0  0  0
 14  9  1  0  0  0  0
 16 17  1  0  0  0  0
 17 15  1  0  0  0  0
 18 20  1  0  0  0  0
 19 18  2  0  0  0  0
 20 21  1  6  0  0  0
 21 22  1  0  0  0  0
 22 23  1  0  0  0  0
 24 23  1  6  0  0  0
 24 25  1  0  0  0  0
 26 27  2  0  0  0  0
 26 30  1  0  0  0  0
 27 29  1  0  0  0  0
 29 28  1  0  0  0  0
 30 25  1  0  0  0  0
 30 28  2  0  0  0  0
 31 34  2  0  0  0  0
 31 37  1  0  0  0  0
 32 31  1  0  0  0  0
 33 35  1  0  0  0  0
 34 36  1  0  0  0  0
 35 27  1  0  0  0  0
 36 33  2  0  0  0  0
 37 35  2  0  0  0  0
 39 42  1  0  0  0  0
 39 40  1  0  0  0  0
 40 38  1  0  0  0  0
 41 38  1  0  0  0  0
 42 24  1  1  0  0  0
 42 41  1  0  0  0  0
 43 20  1  0  0  0  0
 43 44  1  0  0  0  0
 46 47  2  0  0  0  0
 47 44  1  0  0  0  0
 47 45  1  0  0  0  0
 49 50  2  0  0  0  0
 50 48  1  0  0  0  0
 51 61  1  0  0  0  0
 51 49  1  1  0  0  0
 52 54  1  0  0  0  0
 52 51  1  0  0  0  0
 53 52  2  0  0  0  0
 56 55  1  1  0  0  0
 56 57  1  0  0  0  0
 56 54  1  0  0  0  0
 57 59  1  0  0  0  0
 59 58  1  6  0  0  0
 59 60  1  0  0  0  0
 61 63  1  0  0  0  0
 62 61  2  0  0  0  0
 64 63  1  0  0  0  0
 64 65  1  0  0  0  0
 64 66  1  0  0  0  0
 65 66  1  0  0  0  0
M  END
>  <MODEL>
2

>  <REMARK>
 VINA RESULT:      -5.5      2.747      9.233
  Name = 
  27 active torsions:
  status: ('A' for Active; 'I' for Inactive)
    1  A    between atoms: C_3  and  C_5
    2  A    between atoms: C_3  and  C_14
    3  A    between atoms: C_6  and  N_10
    4  A    between atoms: C_6  and  N_50
    5  A    between atoms: C_6  and  C_61
    6  A    between atoms: O_7  and  C_37
    7  A    between atoms: O_7  and  C_45
    8  A    between atoms: C_8  and  C_17
    9  A    between atoms: C_9  and  C_42
   10  A    between atoms: N_11  and  C_37
   11  A    between atoms: C_13  and  C_42
   12  A    between atoms: C_13  and  O_53
   13  A    between atoms: C_17  and  C_18
   14  A    between atoms: C_17  and  C_26
   15  A    between atoms: C_18  and  C_48
   16  A    between atoms: C_23  and  C_49
   17  A    between atoms: C_27  and  C_28
   18  A    between atoms: C_27  and  C_37
   19  A    between atoms: C_28  and  N_50
   20  A    between atoms: C_29  and  C_55
   21  A    between atoms: C_31  and  C_42
   22  A    between atoms: C_35  and  O_53
   23  A    between atoms: C_44  and  C_45
   24  A    between atoms: C_46  and  N_59
   25  A    between atoms: C_46  and  N_66
   26  A    between atoms: C_51  and  N_59
   27  A    between atoms: C_55  and  S_60
                            x       y       z     vdW  Elec       q    Type
                         _______ _______ _______ _____ _____    ______ ____

>  <TORSDO>
F 27

$$$$
=
 OpenBabel11042419133D

 66 71  0  0  1  0  0  0  0  0999 V2000
  192.0860  175.7290  142.7590 C   0  0  2  0  0  3  0  0  0  0  0  0
  189.1010  176.7120  145.0300 C   0  0  2  0  0  3  0  0  0  0  0  0
  191.3080  175.9600  144.0600 C   0  0  2  0  0  3  0  0  0  0  0  0
  189.5770  175.3780  143.9340 S   0  0  0  0  0  0  0  0  0  0  0  0
  191.2500  177.4520  144.3940 C   0  0  0  0  0  2  0  0  0  0  0  0
  190.0160  177.6560  145.1970 C   0  0  0  0  0  2  0  0  0  0  0  0
  187.8300  176.7000  145.8240 C   0  0  1  0  0  3  0  0  0  0  0  0
  188.0500  177.3080  147.0650 O   0  0  0  0  0  1  0  0  0  0  0  0
  185.3720  179.6930  143.9090 C   0  0  0  0  0  2  0  0  0  0  0  0
  186.7060  177.4090  145.0660 C   0  0  2  0  0  3  0  0  0  0  0  0
  186.1030  178.7070  142.9940 C   0  0  1  0  0  3  0  0  0  0  0  0
  187.2280  178.0050  143.7530 C   0  0  0  0  0  2  0  0  0  0  0  0
  186.1410  178.4780  145.8910 N   0  0  0  0  0  2  0  0  0  0  0  0
  184.9630  179.0160  145.2160 C   0  0  0  0  0  2  0  0  0  0  0  0
  185.1480  177.6820  142.3900 C   0  0  0  0  0  2  0  0  0  0  0  0
  186.3770  177.8070  140.1160 N   0  0  0  0  0  1  0  0  0  0  0  0
  184.7330  178.1190  140.6760 S   0  0  0  0  0  0  0  0  0  0  0  0
  191.4880  173.4210  142.2830 N   0  0  0  0  0  0  0  0  0  0  0  0
  192.4090  174.2790  142.5350 C   0  0  0  0  0  3  0  0  0  0  0  0
  191.8250  172.0420  142.0530 C   0  0  1  0  0  3  0  0  0  0  0  0
  191.2920  171.1800  143.1870 C   0  0  0  0  0  2  0  0  0  0  0  0
  192.3630  170.2240  143.6780 C   0  0  0  0  0  2  0  0  0  0  0  0
  193.6800  170.7730  143.3980 N   0  0  0  0  0  2  0  0  0  0  0  0
  194.5850  169.6550  143.1430 C   0  0  1  0  0  3  0  0  0  0  0  0
  195.5320  169.9980  142.0870 N   0  0  0  0  0  2  0  0  0  0  0  0
  193.8530  170.0910  140.1540 C   0  0  0  0  0  3  0  0  0  0  0  0
  193.9870  170.3590  138.8650 C   0  0  0  0  0  0  0  0  0  0  0  0
  196.0750  170.5360  139.8330 N   0  0  0  0  0  0  0  0  0  0  0  0
  195.4170  170.6630  138.5440 C   0  0  0  0  0  2  0  0  0  0  0  0
  195.1890  170.2180  140.7150 C   0  0  0  0  0  0  0  0  0  0  0  0
  191.9220  171.0870  135.7840 C   0  0  0  0  0  0  0  0  0  0  0  0
  192.0200  171.8490  134.5150 C   0  0  0  0  0  1  0  0  0  0  0  0
  191.7150  169.6390  138.1350 C   0  0  0  0  0  3  0  0  0  0  0  0
  190.7760  170.3510  136.0750 C   0  0  0  0  0  3  0  0  0  0  0  0
  192.8830  170.3690  137.8890 C   0  0  0  0  0  0  0  0  0  0  0  0
  190.6970  169.6480  137.2360 N   0  0  0  0  0  0  0  0  0  0  0  0
  192.9770  171.0990  136.6960 C   0  0  0  0  0  3  0  0  0  0  0  0
  196.6120  170.2650  146.3460 C   0  0  0  0  0  2  0  0  0  0  0  0
  196.7660  169.1580  144.2290 N   0  0  0  0  0  2  0  0  0  0  0  0
  197.3320  169.1950  145.5630 C   0  0  0  0  0  2  0  0  0  0  0  0
  194.8800  170.2140  145.8290 S   0  0  0  0  0  0  0  0  0  0  0  0
  195.3180  169.1710  144.4030 C   0  0  1  0  0  3  0  0  0  0  0  0
  191.2670  171.6250  140.8450 O   0  0  0  0  0  0  0  0  0  0  0  0
  190.0900  172.3660  140.7160 C   0  0  0  0  0  2  0  0  0  0  0  0
  191.1000  173.4890  138.6250 C   0  0  0  0  0  1  0  0  0  0  0  0
  188.8320  172.5840  138.6260 C   0  0  0  0  0  2  0  0  0  0  0  0
  189.9450  172.8410  139.3090 C   0  0  0  0  0  0  0  0  0  0  0  0
  193.3650  176.5520  142.7380 C   0  0  0  0  0  2  0  0  0  0  0  0
  195.4140  176.1350  141.4710 C   0  0  0  0  0  3  0  0  0  0  0  0
  194.4980  175.6830  142.3210 C   0  0  0  0  0  3  0  0  0  0  0  0
  196.5570  175.2630  141.0550 C   0  0  2  0  0  3  0  0  0  0  0  0
  196.2290  174.5640  139.7720 C   0  0  0  0  0  0  0  0  0  0  0  0
  195.1540  173.9150  139.6580 O   0  0  0  0  0  0  0  0  0  0  0  0
  197.1370  174.6610  138.6710 N   0  0  0  0  0  2  0  0  0  0  0  0
  197.9270  172.8820  137.1820 C   0  0  0  0  0  1  0  0  0  0  0  0
  196.9310  174.0090  137.3810 C   0  0  2  0  0  3  0  0  0  0  0  0
  197.0420  174.9830  136.3050 N   0  0  0  0  0  2  0  0  0  0  0  0
  194.6230  174.9700  136.2090 C   0  0  0  0  0  1  0  0  0  0  0  0
  195.8620  175.8310  136.3440 C   0  0  2  0  0  3  0  0  0  0  0  0
  195.9100  177.0320  134.9760 S   0  0  0  0  0  1  0  0  0  0  0  0
  196.9490  174.3010  142.1430 C   0  0  0  0  0  0  0  0  0  0  0  0
  197.4860  173.2000  141.8420 O   0  0  0  0  0  0  0  0  0  0  0  0
  196.6350  174.5860  143.4740 O   0  0  0  0  0  0  0  0  0  0  0  0
  196.4330  173.5580  144.4330 C   0  0  0  0  0  3  0  0  0  0  0  0
  196.6660  174.1220  145.8200 C   0  0  0  0  0  2  0  0  0  0  0  0
  195.2550  173.9240  145.3150 C   0  0  0  0  0  2  0  0  0  0  0  0
  1 19  1  1  0  0  0
  2  6  1  0  0  0  0
  2  7  1  1  0  0  0
  3  1  1  6  0  0  0
  3  5  1  0  0  0  0
  4  3  1  0  0  0  0
  4  2  1  0  0  0  0
  5  6  1  0  0  0  0
  7  8  1  1  0  0  0
  9 14  1  0  0  0  0
 10  7  1  1  0  0  0
 10 13  1  0  0  0  0
 11 15  1  1  0  0  0
 11 12  1  0  0  0  0
 11  9  1  0  0  0  0
 12 10  1  0  0  0  0
 14 13  1  0  0  0  0
 16 17  1  0  0  0  0
 17 15  1  0  0  0  0
 18 19  2  0  0  0  0
 20 18  1  0  0  0  0
 20 21  1  1  0  0  0
 21 22  1  0  0  0  0
 23 22  1  0  0  0  0
 24 25  1  6  0  0  0
 24 23  1  0  0  0  0
 26 30  1  0  0  0  0
 27 26  2  0  0  0  0
 28 30  2  0  0  0  0
 29 27  1  0  0  0  0
 29 28  1  0  0  0  0
 30 25  1  0  0  0  0
 31 34  2  0  0  0  0
 31 37  1  0  0  0  0
 32 31  1  0  0  0  0
 34 36  1  0  0  0  0
 35 33  1  0  0  0  0
 35 27  1  0  0  0  0
 36 33  2  0  0  0  0
 37 35  2  0  0  0  0
 39 42  1  0  0  0  0
 39 40  1  0  0  0  0
 40 38  1  0  0  0  0
 41 38  1  0  0  0  0
 42 24  1  6  0  0  0
 42 41  1  0  0  0  0
 43 20  1  0  0  0  0
 44 43  1  0  0  0  0
 45 47  1  0  0  0  0
 46 47  2  0  0  0  0
 47 44  1  0  0  0  0
 48  1  1  0  0  0  0
 49 50  2  0  0  0  0
 50 48  1  0  0  0  0
 51 49  1  1  0  0  0
 51 61  1  0  0  0  0
 52 51  1  0  0  0  0
 53 52  2  0  0  0  0
 54 52  1  0  0  0  0
 56 55  1  6  0  0  0
 56 54  1  0  0  0  0
 57 59  1  0  0  0  0
 57 56  1  0  0  0  0
 59 58  1  6  0  0  0
 60 59  1  0  0  0  0
 61 63  1  0  0  0  0
 62 61  2  0  0  0  0
 63 64  1  0  0  0  0
 64 66  1  0  0  0  0
 64 65  1  0  0  0  0
 66 65  1  0  0  0  0
M  END
>  <MODEL>
3

>  <REMARK>
 VINA RESULT:      -5.4      2.830      9.312
  Name = 
  27 active torsions:
  status: ('A' for Active; 'I' for Inactive)
    1  A    between atoms: C_3  and  C_5
    2  A    between atoms: C_3  and  C_14
    3  A    between atoms: C_6  and  N_10
    4  A    between atoms: C_6  and  N_50
    5  A    between atoms: C_6  and  C_61
    6  A    between atoms: O_7  and  C_37
    7  A    between atoms: O_7  and  C_45
    8  A    between atoms: C_8  and  C_17
    9  A    between atoms: C_9  and  C_42
   10  A    between atoms: N_11  and  C_37
   11  A    between atoms: C_13  and  C_42
   12  A    between atoms: C_13  and  O_53
   13  A    between atoms: C_17  and  C_18
   14  A    between atoms: C_17  and  C_26
   15  A    between atoms: C_18  and  C_48
   16  A    between atoms: C_23  and  C_49
   17  A    between atoms: C_27  and  C_28
   18  A    between atoms: C_27  and  C_37
   19  A    between atoms: C_28  and  N_50
   20  A    between atoms: C_29  and  C_55
   21  A    between atoms: C_31  and  C_42
   22  A    between atoms: C_35  and  O_53
   23  A    between atoms: C_44  and  C_45
   24  A    between atoms: C_46  and  N_59
   25  A    between atoms: C_46  and  N_66
   26  A    between atoms: C_51  and  N_59
   27  A    between atoms: C_55  and  S_60
                            x       y       z     vdW  Elec       q    Type
                         _______ _______ _______ _____ _____    ______ ____

>  <TORSDO>
F 27

$$$$
=
 OpenBabel11042419133D

 66 71  0  0  1  0  0  0  0  0999 V2000
  190.1900  175.0900  141.5350 C   0  0  2  0  0  3  0  0  0  0  0  0
  190.7690  171.6530  139.8360 C   0  0  2  0  0  3  0  0  0  0  0  0
  190.4550  174.0940  140.3990 C   0  0  2  0  0  3  0  0  0  0  0  0
  189.4230  172.5910  140.5540 S   0  0  0  0  0  0  0  0  0  0  0  0
  191.9130  173.6340  140.4160 C   0  0  0  0  0  2  0  0  0  0  0  0
  191.9350  172.2810  139.8010 C   0  0  0  0  0  2  0  0  0  0  0  0
  190.5750  170.3180  139.1840 C   0  0  1  0  0  3  0  0  0  0  0  0
  189.4060  170.3380  138.4170 O   0  0  0  0  0  1  0  0  0  0  0  0
  193.1600  168.5110  136.2310 C   0  0  0  0  0  2  0  0  0  0  0  0
  191.7840  169.9520  138.3190 C   0  0  2  0  0  3  0  0  0  0  0  0
  192.7460  169.9660  135.9920 C   0  0  1  0  0  3  0  0  0  0  0  0
  191.5350  170.3250  136.8530 C   0  0  0  0  0  2  0  0  0  0  0  0
  192.0530  168.5170  138.4140 N   0  0  0  0  0  2  0  0  0  0  0  0
  193.3080  168.2300  137.7250 C   0  0  0  0  0  2  0  0  0  0  0  0
  193.8940  170.9330  136.2590 C   0  0  0  0  0  2  0  0  0  0  0  0
  195.7590  170.5070  134.5170 N   0  0  0  0  0  1  0  0  0  0  0  0
  194.4690  171.6950  134.7120 S   0  0  0  0  0  0  0  0  0  0  0  0
  191.4420  174.5150  143.5370 N   0  0  0  0  0  0  0  0  0  0  0  0
  191.3590  175.2210  142.4670 C   0  0  0  0  0  3  0  0  0  0  0  0
  192.5830  174.6450  144.4040 C   0  0  1  0  0  3  0  0  0  0  0  0
  193.8420  174.8590  143.5790 C   0  0  0  0  0  2  0  0  0  0  0  0
  195.0660  174.8810  144.4740 C   0  0  0  0  0  2  0  0  0  0  0  0
  195.7810  173.6190  144.3660 N   0  0  0  0  0  2  0  0  0  0  0  0
  195.7830  173.2260  142.9590 C   0  0  1  0  0  3  0  0  0  0  0  0
  196.9150  173.8320  142.2640 N   0  0  0  0  0  2  0  0  0  0  0  0
  195.7310  174.2830  140.0360 C   0  0  0  0  0  3  0  0  0  0  0  0
  196.1370  174.8330  138.9030 C   0  0  0  0  0  0  0  0  0  0  0  0
  197.9160  174.8750  140.3740 N   0  0  0  0  0  0  0  0  0  0  0  0
  197.5680  175.2570  139.0160 C   0  0  0  0  0  2  0  0  0  0  0  0
  196.8820  174.3350  140.9240 C   0  0  0  0  0  0  0  0  0  0  0  0
  193.1520  174.8790  136.5850 C   0  0  0  0  0  0  0  0  0  0  0  0
  191.7060  174.5480  136.6010 C   0  0  0  0  0  1  0  0  0  0  0  0
  195.8440  175.5250  136.5260 C   0  0  0  0  0  3  0  0  0  0  0  0
  193.7440  175.3830  135.4290 C   0  0  0  0  0  3  0  0  0  0  0  0
  195.2940  175.0150  137.7080 C   0  0  0  0  0  0  0  0  0  0  0  0
  195.0680  175.6930  135.4250 N   0  0  0  0  0  0  0  0  0  0  0  0
  193.9310  174.6910  137.7260 C   0  0  0  0  0  3  0  0  0  0  0  0
  196.0520  169.6190  144.2450 C   0  0  0  0  0  2  0  0  0  0  0  0
  197.1070  171.1350  142.7210 N   0  0  0  0  0  2  0  0  0  0  0  0
  196.9560  169.7290  143.0420 C   0  0  0  0  0  2  0  0  0  0  0  0
  194.7920  170.9030  144.0700 S   0  0  0  0  0  0  0  0  0  0  0  0
  195.7650  171.7040  142.7560 C   0  0  1  0  0  3  0  0  0  0  0  0
  192.3920  175.7300  145.2580 O   0  0  0  0  0  0  0  0  0  0  0  0
  192.5730  175.2160  146.5440 C   0  0  0  0  0  2  0  0  0  0  0  0
  191.4420  176.8300  148.2070 C   0  0  0  0  0  1  0  0  0  0  0  0
  190.2940  174.8470  147.3600 C   0  0  0  0  0  2  0  0  0  0  0  0
  191.4070  175.5760  147.4020 C   0  0  0  0  0  0  0  0  0  0  0  0
  188.9450  174.7000  142.3190 C   0  0  0  0  0  2  0  0  0  0  0  0
  188.1140  176.7600  141.3000 C   0  0  0  0  0  3  0  0  0  0  0  0
  187.8730  175.6970  142.0600 C   0  0  0  0  0  3  0  0  0  0  0  0
  187.0330  177.7620  141.0340 C   0  0  2  0  0  3  0  0  0  0  0  0
  186.1060  177.8400  142.2070 C   0  0  0  0  0  0  0  0  0  0  0  0
  184.9650  177.3050  142.1530 O   0  0  0  0  0  0  0  0  0  0  0  0
  186.5380  178.5070  143.3960 N   0  0  0  0  0  2  0  0  0  0  0  0
  185.0400  180.0190  144.6120 C   0  0  0  0  0  1  0  0  0  0  0  0
  185.7160  178.6610  144.5930 C   0  0  2  0  0  3  0  0  0  0  0  0
  186.5300  178.4800  145.7860 N   0  0  0  0  0  2  0  0  0  0  0  0
  187.1620  176.4570  146.9560 C   0  0  0  0  0  1  0  0  0  0  0  0
  187.2500  177.2240  145.6530 C   0  0  2  0  0  3  0  0  0  0  0  0
  188.9980  177.5430  145.2610 S   0  0  0  0  0  1  0  0  0  0  0  0
  186.3040  177.4670  139.7520 C   0  0  0  0  0  0  0  0  0  0  0  0
  185.0450  177.5350  139.7170 O   0  0  0  0  0  0  0  0  0  0  0  0
  187.0130  177.0310  138.6300 O   0  0  0  0  0  0  0  0  0  0  0  0
  186.5550  175.9510  137.8280 C   0  0  0  0  0  3  0  0  0  0  0  0
  187.1590  176.0720  136.4440 C   0  0  0  0  0  2  0  0  0  0  0  0
  187.7370  175.0870  137.4340 C   0  0  0  0  0  2  0  0  0  0  0  0
  1 48  1  1  0  0  0
  1 19  1  0  0  0  0
  2  7  1  6  0  0  0
  2  4  1  0  0  0  0
  3  5  1  0  0  0  0
  3  4  1  0  0  0  0
  3  1  1  1  0  0  0
  6  2  1  0  0  0  0
  6  5  1  0  0  0  0
  7  8  1  6  0  0  0
  9 14  1  0  0  0  0
 10 13  1  0  0  0  0
 10  7  1  1  0  0  0
 11  9  1  0  0  0  0
 11 15  1  1  0  0  0
 11 12  1  0  0  0  0
 12 10  1  0  0  0  0
 14 13  1  0  0  0  0
 16 17  1  0  0  0  0
 17 15  1  0  0  0  0
 18 20  1  0  0  0  0
 19 18  2  0  0  0  0
 20 21  1  6  0  0  0
 20 43  1  0  0  0  0
 21 22  1  0  0  0  0
 23 22  1  0  0  0  0
 24 25  1  1  0  0  0
 24 23  1  0  0  0  0
 26 30  1  0  0  0  0
 27 29  1  0  0  0  0
 27 26  2  0  0  0  0
 28 30  2  0  0  0  0
 29 28  1  0  0  0  0
 30 25  1  0  0  0  0
 31 32  1  0  0  0  0
 31 37  1  0  0  0  0
 33 35  1  0  0  0  0
 34 31  2  0  0  0  0
 35 37  2  0  0  0  0
 35 27  1  0  0  0  0
 36 34  1  0  0  0  0
 36 33  2  0  0  0  0
 39 42  1  0  0  0  0
 39 40  1  0  0  0  0
 40 38  1  0  0  0  0
 41 38  1  0  0  0  0
 42 24  1  1  0  0  0
 42 41  1  0  0  0  0
 43 44  1  0  0  0  0
 44 47  1  0  0  0  0
 46 47  2  0  0  0  0
 47 45  1  0  0  0  0
 49 50  2  0  0  0  0
 50 48  1  0  0  0  0
 51 49  1  1  0  0  0
 51 52  1  0  0  0  0
 52 54  1  0  0  0  0
 53 52  2  0  0  0  0
 54 56  1  0  0  0  0
 56 55  1  1  0  0  0
 56 57  1  0  0  0  0
 59 57  1  0  0  0  0
 59 58  1  1  0  0  0
 60 59  1  0  0  0  0
 61 51  1  0  0  0  0
 62 61  2  0  0  0  0
 63 61  1  0  0  0  0
 64 63  1  0  0  0  0
 65 66  1  0  0  0  0
 65 64  1  0  0  0  0
 66 64  1  0  0  0  0
M  END
>  <MODEL>
4

>  <REMARK>
 VINA RESULT:      -5.4      1.832      2.444
  Name = 
  27 active torsions:
  status: ('A' for Active; 'I' for Inactive)
    1  A    between atoms: C_3  and  C_5
    2  A    between atoms: C_3  and  C_14
    3  A    between atoms: C_6  and  N_10
    4  A    between atoms: C_6  and  N_50
    5  A    between atoms: C_6  and  C_61
    6  A    between atoms: O_7  and  C_37
    7  A    between atoms: O_7  and  C_45
    8  A    between atoms: C_8  and  C_17
    9  A    between atoms: C_9  and  C_42
   10  A    between atoms: N_11  and  C_37
   11  A    between atoms: C_13  and  C_42
   12  A    between atoms: C_13  and  O_53
   13  A    between atoms: C_17  and  C_18
   14  A    between atoms: C_17  and  C_26
   15  A    between atoms: C_18  and  C_48
   16  A    between atoms: C_23  and  C_49
   17  A    between atoms: C_27  and  C_28
   18  A    between atoms: C_27  and  C_37
   19  A    between atoms: C_28  and  N_50
   20  A    between atoms: C_29  and  C_55
   21  A    between atoms: C_31  and  C_42
   22  A    between atoms: C_35  and  O_53
   23  A    between atoms: C_44  and  C_45
   24  A    between atoms: C_46  and  N_59
   25  A    between atoms: C_46  and  N_66
   26  A    between atoms: C_51  and  N_59
   27  A    between atoms: C_55  and  S_60
                            x       y       z     vdW  Elec       q    Type
                         _______ _______ _______ _____ _____    ______ ____

>  <TORSDO>
F 27

$$$$
=
 OpenBabel11042419133D

 66 71  0  0  1  0  0  0  0  0999 V2000
  191.9860  175.0950  141.7800 C   0  0  2  0  0  3  0  0  0  0  0  0
  188.5050  176.7330  142.2620 C   0  0  2  0  0  3  0  0  0  0  0  0
  190.7330  175.5750  142.5230 C   0  0  2  0  0  3  0  0  0  0  0  0
  189.2050  175.2350  141.5740 S   0  0  0  0  0  0  0  0  0  0  0  0
  190.7870  177.0860  142.7490 C   0  0  0  0  0  2  0  0  0  0  0  0
  189.3780  177.5500  142.8350 C   0  0  0  0  0  2  0  0  0  0  0  0
  187.0300  176.9890  142.3270 C   0  0  1  0  0  3  0  0  0  0  0  0
  186.3440  175.7710  142.2950 O   0  0  0  0  0  1  0  0  0  0  0  0
  184.8550  178.9890  145.4790 C   0  0  0  0  0  2  0  0  0  0  0  0
  186.6680  177.7810  143.5850 C   0  0  2  0  0  3  0  0  0  0  0  0
  185.5690  177.6850  145.8490 C   0  0  1  0  0  3  0  0  0  0  0  0
  185.9220  176.8950  144.5900 C   0  0  0  0  0  2  0  0  0  0  0  0
  185.8260  178.9260  143.2330 N   0  0  0  0  0  2  0  0  0  0  0  0
  185.6450  179.7560  144.4200 C   0  0  0  0  0  2  0  0  0  0  0  0
  186.8170  177.9420  146.6850 C   0  0  0  0  0  2  0  0  0  0  0  0
  189.3110  177.7740  146.0160 N   0  0  0  0  0  1  0  0  0  0  0  0
  188.0420  176.6220  146.4360 S   0  0  0  0  0  0  0  0  0  0  0  0
  192.3730  173.0000  140.6110 N   0  0  0  0  0  0  0  0  0  0  0  0
  191.6730  174.0690  140.7290 C   0  0  0  0  0  3  0  0  0  0  0  0
  192.0410  172.0230  139.6080 C   0  0  1  0  0  3  0  0  0  0  0  0
  193.1450  170.9820  139.5100 C   0  0  0  0  0  2  0  0  0  0  0  0
  193.9970  170.9910  140.7640 C   0  0  0  0  0  2  0  0  0  0  0  0
  193.6530  169.8560  141.6050 N   0  0  0  0  0  2  0  0  0  0  0  0
  193.5510  170.3340  142.9810 C   0  0  1  0  0  3  0  0  0  0  0  0
  192.1500  170.4770  143.3670 N   0  0  0  0  0  2  0  0  0  0  0  0
  192.4110  172.6030  144.7740 C   0  0  0  0  0  3  0  0  0  0  0  0
  191.5440  173.3400  145.4490 C   0  0  0  0  0  0  0  0  0  0  0  0
  190.3710  171.6110  144.4670 N   0  0  0  0  0  0  0  0  0  0  0  0
  190.1660  172.7720  145.3160 C   0  0  0  0  0  2  0  0  0  0  0  0
  191.6250  171.5340  144.1770 C   0  0  0  0  0  0  0  0  0  0  0  0
  193.3720  176.4080  146.6840 C   0  0  0  0  0  0  0  0  0  0  0  0
  194.6220  177.1620  146.4160 C   0  0  0  0  0  1  0  0  0  0  0  0
  191.0220  175.0380  147.1980 C   0  0  0  0  0  3  0  0  0  0  0  0
  192.4850  176.8470  147.6650 C   0  0  0  0  0  3  0  0  0  0  0  0
  191.8870  174.5550  146.2090 C   0  0  0  0  0  0  0  0  0  0  0  0
  191.3370  176.1580  147.8980 N   0  0  0  0  0  0  0  0  0  0  0  0
  193.0740  175.2570  145.9570 C   0  0  0  0  0  3  0  0  0  0  0  0
  193.9260  168.6080  146.3900 C   0  0  0  0  0  2  0  0  0  0  0  0
  194.9960  170.2400  145.0020 N   0  0  0  0  0  2  0  0  0  0  0  0
  195.2150  169.3460  146.1230 C   0  0  0  0  0  2  0  0  0  0  0  0
  193.1700  168.2780  144.7820 S   0  0  0  0  0  0  0  0  0  0  0  0
  194.3090  169.4530  143.9850 C   0  0  1  0  0  3  0  0  0  0  0  0
  190.8400  171.4010  139.9500 O   0  0  0  0  0  0  0  0  0  0  0  0
  190.2110  171.1350  138.7310 C   0  0  0  0  0  2  0  0  0  0  0  0
  188.2760  172.8140  139.0290 C   0  0  0  0  0  1  0  0  0  0  0  0
  189.9390  173.0730  137.2590 C   0  0  0  0  0  2  0  0  0  0  0  0
  189.4700  172.3450  138.2700 C   0  0  0  0  0  0  0  0  0  0  0  0
  193.0150  174.5390  142.7540 C   0  0  0  0  0  2  0  0  0  0  0  0
  194.9320  175.0200  141.3160 C   0  0  0  0  0  3  0  0  0  0  0  0
  194.3310  175.1790  142.4900 C   0  0  0  0  0  3  0  0  0  0  0  0
  196.2550  175.6690  141.0480 C   0  0  2  0  0  3  0  0  0  0  0  0
  196.8400  175.1340  139.7770 C   0  0  0  0  0  0  0  0  0  0  0  0
  197.9410  174.5200  139.7930 O   0  0  0  0  0  0  0  0  0  0  0  0
  196.1250  175.3070  138.5510 N   0  0  0  0  0  2  0  0  0  0  0  0
  197.9390  175.4800  136.9120 C   0  0  0  0  0  1  0  0  0  0  0  0
  196.6030  174.8450  137.2510 C   0  0  2  0  0  3  0  0  0  0  0  0
  195.6200  175.1430  136.2200 N   0  0  0  0  0  2  0  0  0  0  0  0
  195.6310  173.3450  134.6000 C   0  0  0  0  0  1  0  0  0  0  0  0
  194.9710  173.8980  135.8450 C   0  0  2  0  0  3  0  0  0  0  0  0
  193.2060  174.1910  135.5090 S   0  0  0  0  0  1  0  0  0  0  0  0
  197.1950  175.5210  142.2130 C   0  0  0  0  0  0  0  0  0  0  0  0
  197.5760  176.5450  142.8440 O   0  0  0  0  0  0  0  0  0  0  0  0
  197.7140  174.2650  142.5360 O   0  0  0  0  0  0  0  0  0  0  0  0
  197.0010  173.3470  143.3520 C   0  0  0  0  0  3  0  0  0  0  0  0
  196.9720  171.9950  142.6690 C   0  0  0  0  0  2  0  0  0  0  0  0
  197.9410  172.2460  143.8020 C   0  0  0  0  0  2  0  0  0  0  0  0
  1 19  1  6  0  0  0
  1 48  1  0  0  0  0
  2  7  1  1  0  0  0
  2  6  1  0  0  0  0
  3  1  1  6  0  0  0
  3  5  1  0  0  0  0
  4  2  1  0  0  0  0
  4  3  1  0  0  0  0
  5  6  1  0  0  0  0
  7  8  1  1  0  0  0
  9 11  1  0  0  0  0
 10  7  1  6  0  0  0
 10 12  1  0  0  0  0
 11 15  1  6  0  0  0
 12 11  1  0  0  0  0
 13 10  1  0  0  0  0
 13 14  1  0  0  0  0
 14  9  1  0  0  0  0
 16 17  1  0  0  0  0
 17 15  1  0  0  0  0
 18 19  2  0  0  0  0
 20 21  1  1  0  0  0
 20 43  1  0  0  0  0
 20 18  1  0  0  0  0
 21 22  1  0  0  0  0
 22 23  1  0  0  0  0
 24 23  1  6  0  0  0
 24 25  1  0  0  0  0
 25 30  1  0  0  0  0
 26 27  2  0  0  0  0
 27 35  1  0  0  0  0
 28 29  1  0  0  0  0
 29 27  1  0  0  0  0
 30 28  2  0  0  0  0
 30 26  1  0  0  0  0
 31 34  1  0  0  0  0
 32 31  1  0  0  0  0
 33 36  1  0  0  0  0
 34 36  2  0  0  0  0
 35 33  2  0  0  0  0
 37 35  1  0  0  0  0
 37 31  2  0  0  0  0
 39 40  1  0  0  0  0
 40 38  1  0  0  0  0
 41 38  1  0  0  0  0
 42 24  1  6  0  0  0
 42 41  1  0  0  0  0
 42 39  1  0  0  0  0
 44 43  1  0  0  0  0
 46 47  2  0  0  0  0
 47 44  1  0  0  0  0
 47 45  1  0  0  0  0
 49 50  2  0  0  0  0
 50 48  1  0  0  0  0
 51 49  1  1  0  0  0
 51 61  1  0  0  0  0
 52 53  2  0  0  0  0
 52 51  1  0  0  0  0
 54 52  1  0  0  0  0
 56 55  1  6  0  0  0
 56 54  1  0  0  0  0
 57 56  1  0  0  0  0
 59 58  1  6  0  0  0
 59 57  1  0  0  0  0
 60 59  1  0  0  0  0
 61 63  1  0  0  0  0
 61 62  2  0  0  0  0
 63 64  1  0  0  0  0
 64 66  1  0  0  0  0
 65 64  1  0  0  0  0
 65 66  1  0  0  0  0
M  END
>  <MODEL>
5

>  <REMARK>
 VINA RESULT:      -5.2      2.925     10.174
  Name = 
  27 active torsions:
  status: ('A' for Active; 'I' for Inactive)
    1  A    between atoms: C_3  and  C_5
    2  A    between atoms: C_3  and  C_14
    3  A    between atoms: C_6  and  N_10
    4  A    between atoms: C_6  and  N_50
    5  A    between atoms: C_6  and  C_61
    6  A    between atoms: O_7  and  C_37
    7  A    between atoms: O_7  and  C_45
    8  A    between atoms: C_8  and  C_17
    9  A    between atoms: C_9  and  C_42
   10  A    between atoms: N_11  and  C_37
   11  A    between atoms: C_13  and  C_42
   12  A    between atoms: C_13  and  O_53
   13  A    between atoms: C_17  and  C_18
   14  A    between atoms: C_17  and  C_26
   15  A    between atoms: C_18  and  C_48
   16  A    between atoms: C_23  and  C_49
   17  A    between atoms: C_27  and  C_28
   18  A    between atoms: C_27  and  C_37
   19  A    between atoms: C_28  and  N_50
   20  A    between atoms: C_29  and  C_55
   21  A    between atoms: C_31  and  C_42
   22  A    between atoms: C_35  and  O_53
   23  A    between atoms: C_44  and  C_45
   24  A    between atoms: C_46  and  N_59
   25  A    between atoms: C_46  and  N_66
   26  A    between atoms: C_51  and  N_59
   27  A    between atoms: C_55  and  S_60
                            x       y       z     vdW  Elec       q    Type
                         _______ _______ _______ _____ _____    ______ ____

>  <TORSDO>
F 27

$$$$
=
 OpenBabel11042419133D

 66 71  0  0  1  0  0  0  0  0999 V2000
  191.8160  172.6100  141.2470 C   0  0  2  0  0  3  0  0  0  0  0  0
  190.5480  170.7000  138.1210 C   0  0  2  0  0  3  0  0  0  0  0  0
  190.9550  171.6410  140.4280 C   0  0  2  0  0  3  0  0  0  0  0  0
  191.9550  170.6860  139.2290 S   0  0  0  0  0  0  0  0  0  0  0  0
  189.9050  172.4050  139.6200 C   0  0  0  0  0  2  0  0  0  0  0  0
  189.5960  171.5670  138.4320 C   0  0  0  0  0  2  0  0  0  0  0  0
  190.3760  169.7090  137.0090 C   0  0  1  0  0  3  0  0  0  0  0  0
  189.7100  170.3170  135.9410 O   0  0  0  0  0  1  0  0  0  0  0  0
  194.1300  169.1070  134.9560 C   0  0  0  0  0  2  0  0  0  0  0  0
  191.7290  169.1530  136.5580 C   0  0  2  0  0  3  0  0  0  0  0  0
  194.2030  169.5960  136.4060 C   0  0  1  0  0  3  0  0  0  0  0  0
  192.8530  170.1550  136.8500 C   0  0  0  0  0  2  0  0  0  0  0  0
  191.6990  168.8640  135.1240 N   0  0  0  0  0  2  0  0  0  0  0  0
  192.9350  168.1760  134.7600 C   0  0  0  0  0  2  0  0  0  0  0  0
  194.6600  168.4910  137.3530 C   0  0  0  0  0  2  0  0  0  0  0  0
  197.1440  168.4900  138.0780 N   0  0  0  0  0  1  0  0  0  0  0  0
  195.6480  169.1780  138.7150 S   0  0  0  0  0  0  0  0  0  0  0  0
  193.7290  171.3360  142.0360 N   0  0  0  0  0  0  0  0  0  0  0  0
  193.2690  172.2330  141.2410 C   0  0  0  0  0  3  0  0  0  0  0  0
  195.1220  170.9780  141.9980 C   0  0  1  0  0  3  0  0  0  0  0  0
  195.9830  172.2280  142.0940 C   0  0  0  0  0  2  0  0  0  0  0  0
  197.3560  171.9740  141.5030 C   0  0  0  0  0  2  0  0  0  0  0  0
  197.5820  172.8650  140.3760 N   0  0  0  0  0  2  0  0  0  0  0  0
  196.5950  173.9390  140.4510 C   0  0  1  0  0  3  0  0  0  0  0  0
  197.1870  175.1330  141.0450 N   0  0  0  0  0  2  0  0  0  0  0  0
  195.5650  175.3600  143.0160 C   0  0  0  0  0  3  0  0  0  0  0  0
  195.4830  176.2270  144.0120 C   0  0  0  0  0  0  0  0  0  0  0  0
  197.3040  176.8190  142.7210 N   0  0  0  0  0  0  0  0  0  0  0  0
  196.5830  177.2380  143.9110 C   0  0  0  0  0  2  0  0  0  0  0  0
  196.7220  175.7740  142.2380 C   0  0  0  0  0  0  0  0  0  0  0  0
  192.4920  175.2160  146.0890 C   0  0  0  0  0  0  0  0  0  0  0  0
  191.4140  174.1970  146.0930 C   0  0  0  0  0  1  0  0  0  0  0  0
  194.5030  177.1200  146.1230 C   0  0  0  0  0  3  0  0  0  0  0  0
  192.5670  176.1630  147.1080 C   0  0  0  0  0  3  0  0  0  0  0  0
  194.4640  176.1930  145.0750 C   0  0  0  0  0  0  0  0  0  0  0  0
  193.5640  177.0880  147.1040 N   0  0  0  0  0  0  0  0  0  0  0  0
  193.4410  175.2340  145.0680 C   0  0  0  0  0  3  0  0  0  0  0  0
  196.2930  173.5410  136.6440 C   0  0  0  0  0  2  0  0  0  0  0  0
  196.7510  175.1970  138.3110 N   0  0  0  0  0  2  0  0  0  0  0  0
  196.3390  175.0200  136.9320 C   0  0  0  0  0  2  0  0  0  0  0  0
  195.6800  172.7360  138.1420 S   0  0  0  0  0  0  0  0  0  0  0  0
  195.9500  174.2630  139.0950 C   0  0  1  0  0  3  0  0  0  0  0  0
  195.4100  170.1280  143.0640 O   0  0  0  0  0  0  0  0  0  0  0  0
  194.3290  170.2650  143.9390 C   0  0  0  0  0  2  0  0  0  0  0  0
  195.7650  169.8770  146.0450 C   0  0  0  0  0  1  0  0  0  0  0  0
  194.4920  171.9350  145.7210 C   0  0  0  0  0  2  0  0  0  0  0  0
  194.8130  170.7240  145.2730 C   0  0  0  0  0  0  0  0  0  0  0  0
  191.3120  172.7030  142.6800 C   0  0  0  0  0  2  0  0  0  0  0  0
  190.5850  174.9360  142.0030 C   0  0  0  0  0  3  0  0  0  0  0  0
  190.4300  173.8930  142.8110 C   0  0  0  0  0  3  0  0  0  0  0  0
  189.6930  176.1320  142.1300 C   0  0  2  0  0  3  0  0  0  0  0  0
  189.7190  176.6440  143.5370 C   0  0  0  0  0  0  0  0  0  0  0  0
  190.7540  177.2050  143.9910 O   0  0  0  0  0  0  0  0  0  0  0  0
  188.5500  176.5130  144.3500 N   0  0  0  0  0  2  0  0  0  0  0  0
  188.3870  175.7710  146.6800 C   0  0  0  0  0  1  0  0  0  0  0  0
  188.4630  176.9580  145.7380 C   0  0  2  0  0  3  0  0  0  0  0  0
  187.3080  177.8260  145.9150 N   0  0  0  0  0  2  0  0  0  0  0  0
  185.1680  176.7360  146.2140 C   0  0  0  0  0  1  0  0  0  0  0  0
  186.4320  177.2120  146.8990 C   0  0  2  0  0  3  0  0  0  0  0  0
  185.9970  178.4210  148.1880 S   0  0  0  0  0  1  0  0  0  0  0  0
  188.2960  175.8380  141.6570 C   0  0  0  0  0  0  0  0  0  0  0  0
  188.1190  175.1470  140.6160 O   0  0  0  0  0  0  0  0  0  0  0  0
  187.2020  176.4030  142.3170 O   0  0  0  0  0  0  0  0  0  0  0  0
  186.3310  177.3210  141.6730 C   0  0  0  0  0  3  0  0  0  0  0  0
  185.2010  177.6780  142.6160 C   0  0  0  0  0  2  0  0  0  0  0  0
  186.3520  178.6380  142.4230 C   0  0  0  0  0  2  0  0  0  0  0  0
  1 19  1  1  0  0  0
  1 48  1  0  0  0  0
  2  7  1  1  0  0  0
  2  6  1  0  0  0  0
  2  4  1  0  0  0  0
  3  1  1  6  0  0  0
  4  3  1  0  0  0  0
  5  3  1  0  0  0  0
  6  5  1  0  0  0  0
  7  8  1  6  0  0  0
  9 11  1  0  0  0  0
 10 12  1  0  0  0  0
 10  7  1  6  0  0  0
 11 12  1  0  0  0  0
 11 15  1  1  0  0  0
 13 10  1  0  0  0  0
 14  9  1  0  0  0  0
 14 13  1  0  0  0  0
 15 17  1  0  0  0  0
 16 17  1  0  0  0  0
 19 18  2  0  0  0  0
 20 18  1  0  0  0  0
 20 21  1  1  0  0  0
 20 43  1  0  0  0  0
 22 21  1  0  0  0  0
 23 22  1  0  0  0  0
 24 23  1  6  0  0  0
 24 25  1  0  0  0  0
 25 30  1  0  0  0  0
 26 27  2  0  0  0  0
 27 35  1  0  0  0  0
 28 29  1  0  0  0  0
 29 27  1  0  0  0  0
 30 28  2  0  0  0  0
 30 26  1  0  0  0  0
 31 32  1  0  0  0  0
 31 34  1  0  0  0  0
 33 36  1  0  0  0  0
 35 33  2  0  0  0  0
 36 34  2  0  0  0  0
 37 35  1  0  0  0  0
 37 31  2  0  0  0  0
 38 40  1  0  0  0  0
 38 41  1  0  0  0  0
 39 42  1  0  0  0  0
 40 39  1  0  0  0  0
 41 42  1  0  0  0  0
 42 24  1  1  0  0  0
 43 44  1  0  0  0  0
 44 47  1  0  0  0  0
 47 46  2  0  0  0  0
 47 45  1  0  0  0  0
 48 50  1  0  0  0  0
 49 50  2  0  0  0  0
 51 49  1  1  0  0  0
 51 52  1  0  0  0  0
 52 53  2  0  0  0  0
 52 54  1  0  0  0  0
 54 56  1  0  0  0  0
 56 57  1  0  0  0  0
 56 55  1  1  0  0  0
 57 59  1  0  0  0  0
 59 58  1  6  0  0  0
 59 60  1  0  0  0  0
 61 51  1  0  0  0  0
 61 63  1  0  0  0  0
 62 61  2  0  0  0  0
 64 63  1  0  0  0  0
 64 66  1  0  0  0  0
 64 65  1  0  0  0  0
 66 65  1  0  0  0  0
M  END
>  <MODEL>
6

>  <REMARK>
 VINA RESULT:      -4.8      2.113      4.663
  Name = 
  27 active torsions:
  status: ('A' for Active; 'I' for Inactive)
    1  A    between atoms: C_3  and  C_5
    2  A    between atoms: C_3  and  C_14
    3  A    between atoms: C_6  and  N_10
    4  A    between atoms: C_6  and  N_50
    5  A    between atoms: C_6  and  C_61
    6  A    between atoms: O_7  and  C_37
    7  A    between atoms: O_7  and  C_45
    8  A    between atoms: C_8  and  C_17
    9  A    between atoms: C_9  and  C_42
   10  A    between atoms: N_11  and  C_37
   11  A    between atoms: C_13  and  C_42
   12  A    between atoms: C_13  and  O_53
   13  A    between atoms: C_17  and  C_18
   14  A    between atoms: C_17  and  C_26
   15  A    between atoms: C_18  and  C_48
   16  A    between atoms: C_23  and  C_49
   17  A    between atoms: C_27  and  C_28
   18  A    between atoms: C_27  and  C_37
   19  A    between atoms: C_28  and  N_50
   20  A    between atoms: C_29  and  C_55
   21  A    between atoms: C_31  and  C_42
   22  A    between atoms: C_35  and  O_53
   23  A    between atoms: C_44  and  C_45
   24  A    between atoms: C_46  and  N_59
   25  A    between atoms: C_46  and  N_66
   26  A    between atoms: C_51  and  N_59
   27  A    between atoms: C_55  and  S_60
                            x       y       z     vdW  Elec       q    Type
                         _______ _______ _______ _____ _____    ______ ____

>  <TORSDO>
F 27

$$$$
=
 OpenBabel11042419133D

 66 71  0  0  1  0  0  0  0  0999 V2000
  186.4250  177.7740  140.9660 C   0  0  2  0  0  3  0  0  0  0  0  0
  182.8810  178.4840  142.3680 C   0  0  2  0  0  3  0  0  0  0  0  0
  185.1580  177.5530  141.8020 C   0  0  2  0  0  3  0  0  0  0  0  0
  183.6390  177.9180  140.8480 S   0  0  0  0  0  0  0  0  0  0  0  0
  185.1490  178.4770  143.0200 C   0  0  0  0  0  2  0  0  0  0  0  0
  183.7210  178.6980  143.3700 C   0  0  0  0  0  2  0  0  0  0  0  0
  181.3960  178.5680  142.5570 C   0  0  1  0  0  3  0  0  0  0  0  0
  181.1090  179.4490  143.6050 O   0  0  0  0  0  1  0  0  0  0  0  0
  178.4580  179.3510  139.4870 C   0  0  0  0  0  2  0  0  0  0  0  0
  180.7060  179.0180  141.2670 C   0  0  2  0  0  3  0  0  0  0  0  0
  178.9830  180.5590  140.2680 C   0  0  1  0  0  3  0  0  0  0  0  0
  179.6660  180.1060  141.5580 C   0  0  0  0  0  2  0  0  0  0  0  0
  180.0480  177.8780  140.6270 N   0  0  0  0  0  2  0  0  0  0  0  0
  179.5530  178.2990  139.3190 C   0  0  0  0  0  2  0  0  0  0  0  0
  179.9360  181.4030  139.4300 C   0  0  0  0  0  2  0  0  0  0  0  0
  178.9390  182.3660  137.2450 N   0  0  0  0  0  1  0  0  0  0  0  0
  179.1350  182.9460  138.9000 S   0  0  0  0  0  0  0  0  0  0  0  0
  187.4370  175.6220  141.4680 N   0  0  0  0  0  0  0  0  0  0  0  0
  187.0910  176.4850  140.5820 C   0  0  0  0  0  3  0  0  0  0  0  0
  188.0570  174.3850  141.0730 C   0  0  1  0  0  3  0  0  0  0  0  0
  188.7650  174.5620  139.7390 C   0  0  0  0  0  2  0  0  0  0  0  0
  188.2320  173.5730  138.7190 C   0  0  0  0  0  2  0  0  0  0  0  0
  189.3290  172.8050  138.1550 N   0  0  0  0  0  2  0  0  0  0  0  0
  189.1880  172.8270  136.7010 C   0  0  1  0  0  3  0  0  0  0  0  0
  189.9600  173.9270  136.1320 N   0  0  0  0  0  2  0  0  0  0  0  0
  191.9380  173.8200  137.7580 C   0  0  0  0  0  3  0  0  0  0  0  0
  193.0540  174.5240  137.8570 C   0  0  0  0  0  0  0  0  0  0  0  0
  191.8730  175.3400  136.0480 N   0  0  0  0  0  0  0  0  0  0  0  0
  193.1110  175.5580  136.7770 C   0  0  0  0  0  2  0  0  0  0  0  0
  191.2350  174.3700  136.6090 C   0  0  0  0  0  0  0  0  0  0  0  0
  196.2470  174.8440  139.8520 C   0  0  0  0  0  0  0  0  0  0  0  0
  197.4970  175.6440  139.8600 C   0  0  0  0  0  1  0  0  0  0  0  0
  193.9180  173.3460  139.8770 C   0  0  0  0  0  3  0  0  0  0  0  0
  196.0310  173.8700  140.8240 C   0  0  0  0  0  3  0  0  0  0  0  0
  194.0960  174.3080  138.8760 C   0  0  0  0  0  0  0  0  0  0  0  0
  194.8790  173.1480  140.8160 N   0  0  0  0  0  0  0  0  0  0  0  0
  195.2790  175.0610  138.8730 C   0  0  0  0  0  3  0  0  0  0  0  0
  191.6040  169.9190  136.0310 C   0  0  0  0  0  2  0  0  0  0  0  0
  190.4440  171.6750  134.8900 N   0  0  0  0  0  2  0  0  0  0  0  0
  191.1120  170.4040  134.6900 C   0  0  0  0  0  2  0  0  0  0  0  0
  190.3500  170.3840  137.2470 S   0  0  0  0  0  0  0  0  0  0  0  0
  189.5630  171.4930  136.0370 C   0  0  1  0  0  3  0  0  0  0  0  0
  188.9780  174.0000  142.0450 O   0  0  0  0  0  0  0  0  0  0  0  0
  189.7230  172.9770  141.4530 C   0  0  0  0  0  2  0  0  0  0  0  0
  190.7740  170.7040  142.0690 C   0  0  0  0  0  1  0  0  0  0  0  0
  189.3270  171.9100  143.6220 C   0  0  0  0  0  2  0  0  0  0  0  0
  189.8820  171.8470  142.4140 C   0  0  0  0  0  0  0  0  0  0  0  0
  187.4130  178.6660  141.7050 C   0  0  0  0  0  2  0  0  0  0  0  0
  189.0590  177.9850  143.3800 C   0  0  0  0  0  3  0  0  0  0  0  0
  187.7890  178.0150  142.9890 C   0  0  0  0  0  3  0  0  0  0  0  0
  189.4380  177.3370  144.6750 C   0  0  2  0  0  3  0  0  0  0  0  0
  190.8730  176.9120  144.6350 C   0  0  0  0  0  0  0  0  0  0  0  0
  191.6080  177.0600  145.6490 O   0  0  0  0  0  0  0  0  0  0  0  0
  191.3930  176.3150  143.4440 N   0  0  0  0  0  2  0  0  0  0  0  0
  193.3630  176.4130  141.9900 C   0  0  0  0  0  1  0  0  0  0  0  0
  192.7770  175.8790  143.2830 C   0  0  2  0  0  3  0  0  0  0  0  0
  192.8510  174.4260  143.3160 N   0  0  0  0  0  2  0  0  0  0  0  0
  192.6810  173.7910  145.6460 C   0  0  0  0  0  1  0  0  0  0  0  0
  193.6230  174.0420  144.4870 C   0  0  2  0  0  3  0  0  0  0  0  0
  194.7830  175.3710  144.9340 S   0  0  0  0  0  1  0  0  0  0  0  0
  188.5170  176.1980  145.0180 C   0  0  0  0  0  0  0  0  0  0  0  0
  188.8990  175.0090  144.8420 O   0  0  0  0  0  0  0  0  0  0  0  0
  187.2130  176.4590  145.4440 O   0  0  0  0  0  0  0  0  0  0  0  0
  186.9430  177.0890  146.6880 C   0  0  0  0  0  3  0  0  0  0  0  0
  186.2220  178.3970  146.4350 C   0  0  0  0  0  2  0  0  0  0  0  0
  185.4420  177.1830  146.8840 C   0  0  0  0  0  2  0  0  0  0  0  0
  1 19  1  1  0  0  0
  1 48  1  0  0  0  0
  2  7  1  1  0  0  0
  2  6  1  0  0  0  0
  3  1  1  6  0  0  0
  3  5  1  0  0  0  0
  4  3  1  0  0  0  0
  4  2  1  0  0  0  0
  5  6  1  0  0  0  0
  7  8  1  1  0  0  0
  9 11  1  0  0  0  0
 10 12  1  0  0  0  0
 10  7  1  1  0  0  0
 11 15  1  6  0  0  0
 11 12  1  0  0  0  0
 13 10  1  0  0  0  0
 14  9  1  0  0  0  0
 14 13  1  0  0  0  0
 16 17  1  0  0  0  0
 17 15  1  0  0  0  0
 19 18  2  0  0  0  0
 20 21  1  6  0  0  0
 20 18  1  0  0  0  0
 20 43  1  0  0  0  0
 22 21  1  0  0  0  0
 23 22  1  0  0  0  0
 24 25  1  6  0  0  0
 24 23  1  0  0  0  0
 25 30  1  0  0  0  0
 26 27  2  0  0  0  0
 27 35  1  0  0  0  0
 28 30  2  0  0  0  0
 28 29  1  0  0  0  0
 29 27  1  0  0  0  0
 30 26  1  0  0  0  0
 31 32  1  0  0  0  0
 31 34  1  0  0  0  0
 33 36  1  0  0  0  0
 35 33  2  0  0  0  0
 36 34  2  0  0  0  0
 37 35  1  0  0  0  0
 37 31  2  0  0  0  0
 38 41  1  0  0  0  0
 39 42  1  0  0  0  0
 40 39  1  0  0  0  0
 40 38  1  0  0  0  0
 42 24  1  1  0  0  0
 42 41  1  0  0  0  0
 44 43  1  0  0  0  0
 44 47  1  0  0  0  0
 45 47  1  0  0  0  0
 47 46  2  0  0  0  0
 48 50  1  0  0  0  0
 50 49  2  0  0  0  0
 51 49  1  6  0  0  0
 51 61  1  0  0  0  0
 52 51  1  0  0  0  0
 52 53  2  0  0  0  0
 54 52  1  0  0  0  0
 56 55  1  6  0  0  0
 56 57  1  0  0  0  0
 56 54  1  0  0  0  0
 57 59  1  0  0  0  0
 59 60  1  0  0  0  0
 59 58  1  1  0  0  0
 61 63  1  0  0  0  0
 62 61  2  0  0  0  0
 63 64  1  0  0  0  0
 64 66  1  0  0  0  0
 65 64  1  0  0  0  0
 65 66  1  0  0  0  0
M  END
>  <MODEL>
7

>  <REMARK>
 VINA RESULT:      -4.6      3.408      9.346
  Name = 
  27 active torsions:
  status: ('A' for Active; 'I' for Inactive)
    1  A    between atoms: C_3  and  C_5
    2  A    between atoms: C_3  and  C_14
    3  A    between atoms: C_6  and  N_10
    4  A    between atoms: C_6  and  N_50
    5  A    between atoms: C_6  and  C_61
    6  A    between atoms: O_7  and  C_37
    7  A    between atoms: O_7  and  C_45
    8  A    between atoms: C_8  and  C_17
    9  A    between atoms: C_9  and  C_42
   10  A    between atoms: N_11  and  C_37
   11  A    between atoms: C_13  and  C_42
   12  A    between atoms: C_13  and  O_53
   13  A    between atoms: C_17  and  C_18
   14  A    between atoms: C_17  and  C_26
   15  A    between atoms: C_18  and  C_48
   16  A    between atoms: C_23  and  C_49
   17  A    between atoms: C_27  and  C_28
   18  A    between atoms: C_27  and  C_37
   19  A    between atoms: C_28  and  N_50
   20  A    between atoms: C_29  and  C_55
   21  A    between atoms: C_31  and  C_42
   22  A    between atoms: C_35  and  O_53
   23  A    between atoms: C_44  and  C_45
   24  A    between atoms: C_46  and  N_59
   25  A    between atoms: C_46  and  N_66
   26  A    between atoms: C_51  and  N_59
   27  A    between atoms: C_55  and  S_60
                            x       y       z     vdW  Elec       q    Type
                         _______ _______ _______ _____ _____    ______ ____

>  <TORSDO>
F 27

$$$$
=
 OpenBabel11042419133D

 66 71  0  0  1  0  0  0  0  0999 V2000
  193.4580  175.6640  143.9100 C   0  0  2  0  0  3  0  0  0  0  0  0
  190.5500  177.1460  146.0030 C   0  0  2  0  0  3  0  0  0  0  0  0
  192.7400  176.6360  144.8550 C   0  0  2  0  0  3  0  0  0  0  0  0
  191.6790  175.7570  146.0600 S   0  0  0  0  0  0  0  0  0  0  0  0
  191.8290  177.5780  144.0670 C   0  0  0  0  0  2  0  0  0  0  0  0
  190.7400  177.9840  144.9930 C   0  0  0  0  0  2  0  0  0  0  0  0
  189.5580  177.4360  147.0880 C   0  0  1  0  0  3  0  0  0  0  0  0
  189.8420  178.6800  147.6590 O   0  0  0  0  0  1  0  0  0  0  0  0
  185.3430  176.6450  146.5620 C   0  0  0  0  0  2  0  0  0  0  0  0
  188.1280  177.4040  146.5440 C   0  0  2  0  0  3  0  0  0  0  0  0
  185.7360  178.0700  146.9640 C   0  0  1  0  0  3  0  0  0  0  0  0
  187.1620  178.0960  147.5130 C   0  0  0  0  0  2  0  0  0  0  0  0
  187.6990  176.0190  146.3400 N   0  0  0  0  0  2  0  0  0  0  0  0
  186.4070  176.0250  145.6600 C   0  0  0  0  0  2  0  0  0  0  0  0
  185.5950  179.0450  145.8000 C   0  0  0  0  0  2  0  0  0  0  0  0
  184.3450  179.4210  143.5660 N   0  0  0  0  0  1  0  0  0  0  0  0
  183.8680  179.1360  145.2410 S   0  0  0  0  0  0  0  0  0  0  0  0
  192.5130  173.4550  143.5430 N   0  0  0  0  0  0  0  0  0  0  0  0
  193.2260  174.2270  144.2800 C   0  0  0  0  0  3  0  0  0  0  0  0
  192.3210  172.0770  143.9100 C   0  0  1  0  0  3  0  0  0  0  0  0
  191.0670  171.5320  143.2440 C   0  0  0  0  0  2  0  0  0  0  0  0
  191.4280  170.4780  142.2140 C   0  0  0  0  0  2  0  0  0  0  0  0
  191.4380  171.0690  140.8860 N   0  0  0  0  0  2  0  0  0  0  0  0
  190.8390  170.1060  139.9640 C   0  0  1  0  0  3  0  0  0  0  0  0
  190.1300  170.8000  138.8940 N   0  0  0  0  0  2  0  0  0  0  0  0
  189.4090  172.8510  140.2520 C   0  0  0  0  0  3  0  0  0  0  0  0
  188.7220  173.9370  139.9350 C   0  0  0  0  0  0  0  0  0  0  0  0
  188.8920  172.6410  138.0320 N   0  0  0  0  0  0  0  0  0  0  0  0
  188.3280  173.8990  138.4920 C   0  0  0  0  0  2  0  0  0  0  0  0
  189.4890  172.0740  139.0250 C   0  0  0  0  0  0  0  0  0  0  0  0
  187.2370  177.0850  141.4060 C   0  0  0  0  0  0  0  0  0  0  0  0
  186.3020  178.1740  141.0290 C   0  0  0  0  0  1  0  0  0  0  0  0
  188.9720  175.0580  142.1470 C   0  0  0  0  0  3  0  0  0  0  0  0
  187.8310  177.0740  142.6660 C   0  0  0  0  0  3  0  0  0  0  0  0
  188.4050  175.0320  140.8680 C   0  0  0  0  0  0  0  0  0  0  0  0
  188.6780  176.0680  143.0070 N   0  0  0  0  0  0  0  0  0  0  0  0
  187.5280  176.0640  140.5030 C   0  0  0  0  0  3  0  0  0  0  0  0
  193.8020  169.1820  137.7040 C   0  0  0  0  0  2  0  0  0  0  0  0
  191.4920  168.6570  138.0520 N   0  0  0  0  0  2  0  0  0  0  0  0
  192.7160  168.1680  137.4470 C   0  0  0  0  0  2  0  0  0  0  0  0
  193.5190  169.8410  139.3640 S   0  0  0  0  0  0  0  0  0  0  0  0
  191.8540  169.1060  139.3910 C   0  0  1  0  0  3  0  0  0  0  0  0
  193.4280  171.3330  143.5040 O   0  0  0  0  0  0  0  0  0  0  0  0
  194.1660  171.1170  144.6710 C   0  0  0  0  0  2  0  0  0  0  0  0
  196.0210  172.7820  145.3310 C   0  0  0  0  0  1  0  0  0  0  0  0
  196.4050  171.0190  143.6860 C   0  0  0  0  0  2  0  0  0  0  0  0
  195.5520  171.6400  144.4960 C   0  0  0  0  0  0  0  0  0  0  0  0
  194.9520  175.9520  143.8700 C   0  0  0  0  0  2  0  0  0  0  0  0
  195.5450  176.1990  141.5110 C   0  0  0  0  0  3  0  0  0  0  0  0
  195.5140  175.4310  142.5950 C   0  0  0  0  0  3  0  0  0  0  0  0
  196.1160  175.6780  140.2290 C   0  0  2  0  0  3  0  0  0  0  0  0
  195.0660  174.9330  139.4650 C   0  0  0  0  0  0  0  0  0  0  0  0
  194.3210  174.1020  140.0520 O   0  0  0  0  0  0  0  0  0  0  0  0
  194.9010  175.1940  138.0680 N   0  0  0  0  0  2  0  0  0  0  0  0
  194.5090  174.2340  135.8480 C   0  0  0  0  0  1  0  0  0  0  0  0
  193.9250  174.5180  137.2190 C   0  0  2  0  0  3  0  0  0  0  0  0
  192.7180  175.3240  137.1030 N   0  0  0  0  0  2  0  0  0  0  0  0
  192.8970  177.0770  135.4430 C   0  0  0  0  0  1  0  0  0  0  0  0
  192.5180  175.6330  135.6960 C   0  0  2  0  0  3  0  0  0  0  0  0
  190.7730  175.3830  135.2440 S   0  0  0  0  0  1  0  0  0  0  0  0
  197.3460  174.8450  140.4650 C   0  0  0  0  0  0  0  0  0  0  0  0
  197.9190  174.8790  141.5880 O   0  0  0  0  0  0  0  0  0  0  0  0
  197.9010  174.1080  139.4170 O   0  0  0  0  0  0  0  0  0  0  0  0
  197.9370  172.6880  139.4360 C   0  0  0  0  0  3  0  0  0  0  0  0
  196.6250  172.1520  138.9010 C   0  0  0  0  0  2  0  0  0  0  0  0
  197.8490  172.1690  138.0150 C   0  0  0  0  0  2  0  0  0  0  0  0
  1 48  1  1  0  0  0
  1 19  1  0  0  0  0
  2  4  1  0  0  0  0
  2  7  1  1  0  0  0
  3  1  1  6  0  0  0
  3  4  1  0  0  0  0
  5  3  1  0  0  0  0
  5  6  1  0  0  0  0
  6  2  1  0  0  0  0
  7  8  1  6  0  0  0
  9 11  1  0  0  0  0
 10  7  1  1  0  0  0
 10 12  1  0  0  0  0
 11 15  1  6  0  0  0
 11 12  1  0  0  0  0
 13 10  1  0  0  0  0
 14 13  1  0  0  0  0
 14  9  1  0  0  0  0
 16 17  1  0  0  0  0
 17 15  1  0  0  0  0
 18 20  1  0  0  0  0
 18 19  2  0  0  0  0
 20 21  1  6  0  0  0
 22 21  1  0  0  0  0
 23 22  1  0  0  0  0
 24 25  1  6  0  0  0
 24 23  1  0  0  0  0
 25 30  1  0  0  0  0
 27 26  2  0  0  0  0
 27 35  1  0  0  0  0
 28 29  1  0  0  0  0
 28 30  2  0  0  0  0
 29 27  1  0  0  0  0
 30 26  1  0  0  0  0
 31 34  1  0  0  0  0
 32 31  1  0  0  0  0
 33 36  1  0  0  0  0
 34 36  2  0  0  0  0
 35 33  2  0  0  0  0
 37 35  1  0  0  0  0
 37 31  2  0  0  0  0
 38 41  1  0  0  0  0
 39 42  1  0  0  0  0
 40 38  1  0  0  0  0
 40 39  1  0  0  0  0
 41 42  1  0  0  0  0
 42 24  1  6  0  0  0
 43 20  1  0  0  0  0
 43 44  1  0  0  0  0
 46 47  2  0  0  0  0
 47 44  1  0  0  0  0
 47 45  1  0  0  0  0
 49 50  2  0  0  0  0
 50 48  1  0  0  0  0
 51 61  1  0  0  0  0
 51 49  1  1  0  0  0
 52 53  2  0  0  0  0
 52 51  1  0  0  0  0
 54 52  1  0  0  0  0
 56 55  1  6  0  0  0
 56 54  1  0  0  0  0
 57 56  1  0  0  0  0
 59 58  1  1  0  0  0
 59 57  1  0  0  0  0
 60 59  1  0  0  0  0
 61 62  2  0  0  0  0
 63 64  1  0  0  0  0
 63 61  1  0  0  0  0
 65 64  1  0  0  0  0
 66 65  1  0  0  0  0
 66 64  1  0  0  0  0
M  END
>  <MODEL>
8

>  <REMARK>
 VINA RESULT:      -4.6      2.784      9.723
  Name = 
  27 active torsions:
  status: ('A' for Active; 'I' for Inactive)
    1  A    between atoms: C_3  and  C_5
    2  A    between atoms: C_3  and  C_14
    3  A    between atoms: C_6  and  N_10
    4  A    between atoms: C_6  and  N_50
    5  A    between atoms: C_6  and  C_61
    6  A    between atoms: O_7  and  C_37
    7  A    between atoms: O_7  and  C_45
    8  A    between atoms: C_8  and  C_17
    9  A    between atoms: C_9  and  C_42
   10  A    between atoms: N_11  and  C_37
   11  A    between atoms: C_13  and  C_42
   12  A    between atoms: C_13  and  O_53
   13  A    between atoms: C_17  and  C_18
   14  A    between atoms: C_17  and  C_26
   15  A    between atoms: C_18  and  C_48
   16  A    between atoms: C_23  and  C_49
   17  A    between atoms: C_27  and  C_28
   18  A    between atoms: C_27  and  C_37
   19  A    between atoms: C_28  and  N_50
   20  A    between atoms: C_29  and  C_55
   21  A    between atoms: C_31  and  C_42
   22  A    between atoms: C_35  and  O_53
   23  A    between atoms: C_44  and  C_45
   24  A    between atoms: C_46  and  N_59
   25  A    between atoms: C_46  and  N_66
   26  A    between atoms: C_51  and  N_59
   27  A    between atoms: C_55  and  S_60
                            x       y       z     vdW  Elec       q    Type
                         _______ _______ _______ _____ _____    ______ ____

>  <TORSDO>
F 27

$$$$
=
 OpenBabel11042419133D

 66 71  0  0  1  0  0  0  0  0999 V2000
  191.7810  174.7890  140.7310 C   0  0  2  0  0  3  0  0  0  0  0  0
  188.7460  175.1260  143.1210 C   0  0  2  0  0  3  0  0  0  0  0  0
  190.3280  175.0390  141.1550 C   0  0  2  0  0  3  0  0  0  0  0  0
  190.2250  176.0370  142.6860 S   0  0  0  0  0  0  0  0  0  0  0  0
  189.6170  173.7150  141.4410 C   0  0  0  0  0  2  0  0  0  0  0  0
  188.5430  174.0180  142.4230 C   0  0  0  0  0  2  0  0  0  0  0  0
  187.7280  175.6400  144.0930 C   0  0  1  0  0  3  0  0  0  0  0  0
  188.3760  176.3040  145.1400 O   0  0  0  0  0  1  0  0  0  0  0  0
  185.1980  178.9970  143.0920 C   0  0  0  0  0  2  0  0  0  0  0  0
  186.7300  176.5690  143.3980 C   0  0  2  0  0  3  0  0  0  0  0  0
  186.4290  178.7690  142.2100 C   0  0  1  0  0  3  0  0  0  0  0  0
  187.4250  177.8460  142.9100 C   0  0  0  0  0  2  0  0  0  0  0  0
  185.6520  176.9280  144.3210 N   0  0  0  0  0  2  0  0  0  0  0  0
  184.6310  177.6660  143.5820 C   0  0  0  0  0  2  0  0  0  0  0  0
  186.0500  178.2060  140.8450 C   0  0  0  0  0  2  0  0  0  0  0  0
  186.7560  176.9480  138.6960 N   0  0  0  0  0  1  0  0  0  0  0  0
  187.1000  176.7840  140.4190 S   0  0  0  0  0  0  0  0  0  0  0  0
  190.9240  173.0060  139.3200 N   0  0  0  0  0  0  0  0  0  0  0  0
  191.8880  173.8060  139.6010 C   0  0  0  0  0  3  0  0  0  0  0  0
  191.0440  172.0860  138.2200 C   0  0  1  0  0  3  0  0  0  0  0  0
  191.7730  170.8300  138.6700 C   0  0  0  0  0  2  0  0  0  0  0  0
  192.3460  171.0180  140.0620 C   0  0  0  0  0  2  0  0  0  0  0  0
  191.4990  170.3520  141.0390 N   0  0  0  0  0  2  0  0  0  0  0  0
  191.9410  170.7640  142.3680 C   0  0  1  0  0  3  0  0  0  0  0  0
  190.8030  170.8580  143.2770 N   0  0  0  0  0  2  0  0  0  0  0  0
  191.5610  172.9540  144.5410 C   0  0  0  0  0  3  0  0  0  0  0  0
  191.0160  173.6500  145.5260 C   0  0  0  0  0  0  0  0  0  0  0  0
  189.5800  171.9130  145.0250 N   0  0  0  0  0  0  0  0  0  0  0  0
  189.7060  173.0470  145.9250 C   0  0  0  0  0  2  0  0  0  0  0  0
  190.6210  171.8790  144.2630 C   0  0  0  0  0  0  0  0  0  0  0  0
  193.3240  176.5650  146.2040 C   0  0  0  0  0  0  0  0  0  0  0  0
  194.5610  177.1750  145.6590 C   0  0  0  0  0  1  0  0  0  0  0  0
  191.0030  175.4630  147.2360 C   0  0  0  0  0  3  0  0  0  0  0  0
  192.6890  177.1330  147.3060 C   0  0  0  0  0  3  0  0  0  0  0  0
  191.6100  174.8550  146.1320 C   0  0  0  0  0  0  0  0  0  0  0  0
  191.5500  176.5740  147.7950 N   0  0  0  0  0  0  0  0  0  0  0  0
  192.7850  175.4210  145.6180 C   0  0  0  0  0  3  0  0  0  0  0  0
  193.2210  168.1660  144.8880 C   0  0  0  0  0  2  0  0  0  0  0  0
  193.6280  170.4100  144.1610 N   0  0  0  0  0  2  0  0  0  0  0  0
  194.2240  169.2920  144.8650 C   0  0  0  0  0  2  0  0  0  0  0  0
  192.3610  168.2000  143.2990 S   0  0  0  0  0  0  0  0  0  0  0  0
  193.0340  169.8550  142.9500 C   0  0  1  0  0  3  0  0  0  0  0  0
  189.7710  171.7490  137.7600 O   0  0  0  0  0  0  0  0  0  0  0  0
  189.6320  172.4310  136.5490 C   0  0  0  0  0  2  0  0  0  0  0  0
  188.1220  173.9400  137.9960 C   0  0  0  0  0  1  0  0  0  0  0  0
  189.2180  174.7770  135.9810 C   0  0  0  0  0  2  0  0  0  0  0  0
  188.9670  173.7460  136.7830 C   0  0  0  0  0  0  0  0  0  0  0  0
  192.6160  174.3130  141.9110 C   0  0  0  0  0  2  0  0  0  0  0  0
  194.5030  175.8530  141.7100 C   0  0  0  0  0  3  0  0  0  0  0  0
  194.0490  174.6070  141.6440 C   0  0  0  0  0  3  0  0  0  0  0  0
  195.9470  176.1490  141.4470 C   0  0  2  0  0  3  0  0  0  0  0  0
  196.4040  175.4230  140.2190 C   0  0  0  0  0  0  0  0  0  0  0  0
  197.6270  175.1630  140.0520 O   0  0  0  0  0  0  0  0  0  0  0  0
  195.4360  175.0080  139.2520 N   0  0  0  0  0  2  0  0  0  0  0  0
  194.9480  174.8560  136.8550 C   0  0  0  0  0  1  0  0  0  0  0  0
  195.7650  174.3110  138.0120 C   0  0  2  0  0  3  0  0  0  0  0  0
  195.5410  172.8810  138.1660 N   0  0  0  0  0  2  0  0  0  0  0  0
  196.7710  171.1890  136.9470 C   0  0  0  0  0  1  0  0  0  0  0  0
  196.8270  172.2120  138.0630 C   0  0  2  0  0  3  0  0  0  0  0  0
  197.2200  171.3700  139.6290 S   0  0  0  0  0  1  0  0  0  0  0  0
  196.8060  175.8390  142.6430 C   0  0  0  0  0  0  0  0  0  0  0  0
  197.2310  176.7790  143.3690 O   0  0  0  0  0  0  0  0  0  0  0  0
  197.2060  174.5250  142.8940 O   0  0  0  0  0  0  0  0  0  0  0  0
  196.6980  173.7850  143.9940 C   0  0  0  0  0  3  0  0  0  0  0  0
  196.7600  172.3060  143.6690 C   0  0  0  0  0  2  0  0  0  0  0  0
  197.8050  172.9240  144.5690 C   0  0  0  0  0  2  0  0  0  0  0  0
  1 19  1  6  0  0  0
  1 48  1  0  0  0  0
  2  7  1  6  0  0  0
  3  1  1  1  0  0  0
  3  5  1  0  0  0  0
  3  4  1  0  0  0  0
  4  2  1  0  0  0  0
  5  6  1  0  0  0  0
  6  2  1  0  0  0  0
  7  8  1  1  0  0  0
  9 14  1  0  0  0  0
 10  7  1  1  0  0  0
 10 13  1  0  0  0  0
 11 15  1  6  0  0  0
 11 12  1  0  0  0  0
 11  9  1  0  0  0  0
 12 10  1  0  0  0  0
 14 13  1  0  0  0  0
 16 17  1  0  0  0  0
 17 15  1  0  0  0  0
 18 19  2  0  0  0  0
 20 21  1  1  0  0  0
 20 18  1  0  0  0  0
 21 22  1  0  0  0  0
 22 23  1  0  0  0  0
 24 23  1  6  0  0  0
 24 25  1  0  0  0  0
 25 30  1  0  0  0  0
 26 27  2  0  0  0  0
 27 29  1  0  0  0  0
 27 35  1  0  0  0  0
 28 29  1  0  0  0  0
 30 26  1  0  0  0  0
 30 28  2  0  0  0  0
 31 34  1  0  0  0  0
 32 31  1  0  0  0  0
 33 36  1  0  0  0  0
 34 36  2  0  0  0  0
 35 33  2  0  0  0  0
 37 35  1  0  0  0  0
 37 31  2  0  0  0  0
 39 40  1  0  0  0  0
 40 38  1  0  0  0  0
 41 38  1  0  0  0  0
 42 24  1  1  0  0  0
 42 41  1  0  0  0  0
 42 39  1  0  0  0  0
 43 20  1  0  0  0  0
 44 47  1  0  0  0  0
 44 43  1  0  0  0  0
 46 47  2  0  0  0  0
 47 45  1  0  0  0  0
 50 49  2  0  0  0  0
 50 48  1  0  0  0  0
 51 49  1  1  0  0  0
 51 61  1  0  0  0  0
 52 51  1  0  0  0  0
 53 52  2  0  0  0  0
 54 52  1  0  0  0  0
 56 55  1  6  0  0  0
 56 57  1  0  0  0  0
 56 54  1  0  0  0  0
 59 58  1  6  0  0  0
 59 57  1  0  0  0  0
 59 60  1  0  0  0  0
 61 63  1  0  0  0  0
 61 62  2  0  0  0  0
 63 64  1  0  0  0  0
 64 66  1  0  0  0  0
 65 64  1  0  0  0  0
 65 66  1  0  0  0  0
M  END
>  <MODEL>
9

>  <REMARK>
 VINA RESULT:      -4.1      2.910      9.890
  Name = 
  27 active torsions:
  status: ('A' for Active; 'I' for Inactive)
    1  A    between atoms: C_3  and  C_5
    2  A    between atoms: C_3  and  C_14
    3  A    between atoms: C_6  and  N_10
    4  A    between atoms: C_6  and  N_50
    5  A    between atoms: C_6  and  C_61
    6  A    between atoms: O_7  and  C_37
    7  A    between atoms: O_7  and  C_45
    8  A    between atoms: C_8  and  C_17
    9  A    between atoms: C_9  and  C_42
   10  A    between atoms: N_11  and  C_37
   11  A    between atoms: C_13  and  C_42
   12  A    between atoms: C_13  and  O_53
   13  A    between atoms: C_17  and  C_18
   14  A    between atoms: C_17  and  C_26
   15  A    between atoms: C_18  and  C_48
   16  A    between atoms: C_23  and  C_49
   17  A    between atoms: C_27  and  C_28
   18  A    between atoms: C_27  and  C_37
   19  A    between atoms: C_28  and  N_50
   20  A    between atoms: C_29  and  C_55
   21  A    between atoms: C_31  and  C_42
   22  A    between atoms: C_35  and  O_53
   23  A    between atoms: C_44  and  C_45
   24  A    between atoms: C_46  and  N_59
   25  A    between atoms: C_46  and  N_66
   26  A    between atoms: C_51  and  N_59
   27  A    between atoms: C_55  and  S_60
                            x       y       z     vdW  Elec       q    Type
                         _______ _______ _______ _____ _____    ______ ____

>  <TORSDO>
F 27

$$$$
