=
 OpenBabel11042416053D

 64 69  0  0  1  0  0  0  0  0999 V2000
  195.2120  172.9330  141.0290 C   0  0  1  0  0  3  0  0  0  0  0  0
  195.5890  171.3290  142.7690 N   0  0  0  0  0  0  0  0  0  0  0  0
  196.5170  171.0270  141.6710 C   0  0  1  0  0  3  0  0  0  0  0  0
  196.0580  169.8610  140.7930 C   0  0  0  0  0  1  0  0  0  0  0  0
  196.5640  172.2790  140.8210 C   0  0  0  0  0  2  0  0  0  0  0  0
  194.5720  172.2420  142.2270 C   0  0  2  0  0  3  0  0  0  0  0  0
  195.0300  170.1380  143.4130 C   0  0  0  0  0  1  0  0  0  0  0  0
  195.6060  175.2020  140.1880 N   0  0  0  0  0  0  0  0  0  0  0  0
  195.3010  174.4310  141.1970 C   0  0  0  0  0  0  0  0  0  0  0  0
  193.8900  176.6230  143.9560 C   0  0  0  0  0  3  0  0  0  0  0  0
  195.9730  174.7980  143.6030 C   0  0  0  0  0  3  0  0  0  0  0  0
  194.5690  177.0110  146.3280 C   0  0  0  0  0  1  0  0  0  0  0  0
  195.7940  175.4240  144.8390 C   0  0  0  0  0  3  0  0  0  0  0  0
  195.1140  175.0730  142.5270 C   0  0  0  0  0  0  0  0  0  0  0  0
  194.0710  175.9960  142.7200 C   0  0  0  0  0  3  0  0  0  0  0  0
  194.7530  176.3370  145.0160 C   0  0  0  0  0  0  0  0  0  0  0  0
  195.8400  174.8750  138.8050 C   0  0  0  0  0  0  0  0  0  0  0  0
  197.3090  175.0540  138.0970 S   0  0  0  0  0  0  0  0  0  0  0  0
  194.8490  174.1340  138.0930 N   0  0  0  0  0  2  0  0  0  0  0  0
  195.1590  173.3660  136.8970 C   0  0  1  0  0  3  0  0  0  0  0  0
  195.4700  171.9500  137.2680 C   0  0  0  0  0  3  0  0  0  0  0  0
  196.5380  171.3310  136.7740 C   0  0  0  0  0  2  0  0  0  0  0  0
  193.9730  173.4140  135.9510 C   0  0  0  0  0  2  0  0  0  0  0  0
  192.7460  173.1640  136.6900 N   0  0  0  0  0  2  0  0  0  0  0  0
  191.7570  172.6580  135.7470 C   0  0  2  0  0  3  0  0  0  0  0  0
  190.5790  173.5760  135.6840 C   0  0  0  0  0  0  0  0  0  0  0  0
  189.3180  173.1350  136.0700 O   0  0  0  0  0  1  0  0  0  0  0  0
  190.7280  174.7550  135.2670 O   0  0  0  0  0  0  0  0  0  0  0  0
  191.3410  171.2190  136.0660 C   0  0  0  0  0  2  0  0  0  0  0  0
  192.8520  169.1800  137.0740 S   0  0  0  0  0  1  0  0  0  0  0  0
  191.9000  170.7010  137.3900 C   0  0  2  0  0  3  0  0  0  0  0  0
  189.6440  169.9260  137.6820 O   0  0  0  0  0  1  0  0  0  0  0  0
  190.3610  171.6740  139.1130 C   0  0  0  0  0  1  0  0  0  0  0  0
  190.7610  170.4130  138.3650 C   0  0  2  0  0  3  0  0  0  0  0  0
  193.4320  171.5500  141.7970 O   0  0  0  0  0  0  0  0  0  0  0  0
  192.3540  172.3110  142.2600 C   0  0  0  0  0  2  0  0  0  0  0  0
  192.0820  171.9770  143.7120 C   0  0  2  0  0  3  0  0  0  0  0  0
  190.5870  172.0000  143.9600 C   0  0  0  0  0  1  0  0  0  0  0  0
  192.7630  173.0000  144.6020 C   0  0  0  0  0  2  0  0  0  0  0  0
  188.0410  177.4960  145.8950 C   0  0  1  0  0  3  0  0  0  0  0  0
  188.8740  176.3550  146.2750 N   0  0  0  0  0  2  0  0  0  0  0  0
  189.5590  176.4340  143.3620 N   0  0  0  0  0  0  0  0  0  0  0  0
  187.5340  177.3270  144.4660 C   0  0  0  0  0  2  0  0  0  0  0  0
  191.7830  174.0230  145.0560 C   0  0  0  0  0  0  0  0  0  0  0  0
  188.6570  177.5850  143.4630 C   0  0  2  0  0  3  0  0  0  0  0  0
  190.2000  176.5650  145.7100 C   0  0  0  0  0  2  0  0  0  0  0  0
  191.5550  174.1650  146.2870 O   0  0  0  0  0  0  0  0  0  0  0  0
  191.1130  174.8270  144.0780 N   0  0  0  0  0  2  0  0  0  0  0  0
  190.2700  175.9540  144.3400 C   0  0  0  0  0  0  0  0  0  0  0  0
  186.8530  177.6770  146.8510 C   0  0  1  0  0  0  0  0  0  0  0  0
  183.7700  178.9080  145.6760 C   0  0  0  0  0  1  0  0  0  0  0  0
  185.9380  176.5110  147.1370 C   0  0  0  0  0  2  0  0  0  0  0  0
  186.7860  178.8770  147.7750 C   0  0  0  0  0  2  0  0  0  0  0  0
  184.5550  177.0010  146.7690 C   0  0  0  0  0  2  0  0  0  0  0  0
  184.5850  178.4570  146.7900 N   0  0  0  0  0  0  0  0  0  0  0  0
  185.9590  178.8460  146.4930 C   0  0  2  0  0  3  0  0  0  0  0  0
  184.2570  178.0750  141.5450 Cl  0  0  0  0  0  0  0  0  0  0  0  0
  185.9520  178.2400  141.0330 C   0  0  2  0  0  3  0  0  0  0  0  0
  187.6970  176.6860  141.3250 C   0  0  0  0  0  2  0  0  0  0  0  0
  186.4610  176.9450  140.5890 N   0  0  0  0  0  0  0  0  0  0  0  0
  188.0670  177.9340  142.0960 C   0  0  1  0  0  3  0  0  0  0  0  0
  186.7860  178.7230  142.1970 C   0  0  0  0  0  2  0  0  0  0  0  0
  187.1820  175.7430  138.6020 C   0  0  0  0  0  1  0  0  0  0  0  0
  186.8160  177.0930  139.1850 C   0  0  0  0  0  2  0  0  0  0  0  0
  1  9  1  1  0  0  0
  1  6  1  0  0  0  0
  2  7  1  0  0  0  0
  3  4  1  6  0  0  0
  3  2  1  0  0  0  0
  5  1  1  0  0  0  0
  5  3  1  0  0  0  0
  6 35  1  6  0  0  0
  6  2  1  0  0  0  0
  8  9  2  0  0  0  0
  9 14  1  0  0  0  0
 10 16  1  0  0  0  0
 11 13  1  0  0  0  0
 13 16  2  0  0  0  0
 14 15  1  0  0  0  0
 14 11  2  0  0  0  0
 15 10  2  0  0  0  0
 16 12  1  0  0  0  0
 17  8  1  0  0  0  0
 18 17  2  0  0  0  0
 19 17  1  0  0  0  0
 20 23  1  6  0  0  0
 20 21  1  0  0  0  0
 20 19  1  0  0  0  0
 22 21  2  0  0  0  0
 23 24  1  0  0  0  0
 25 29  1  1  0  0  0
 25 24  1  0  0  0  0
 26 25  1  0  0  0  0
 26 27  1  0  0  0  0
 28 26  2  0  0  0  0
 29 31  1  0  0  0  0
 31 30  1  6  0  0  0
 31 34  1  0  0  0  0
 32 34  1  0  0  0  0
 34 33  1  6  0  0  0
 35 36  1  0  0  0  0
 36 37  1  0  0  0  0
 37 38  1  6  0  0  0
 37 39  1  0  0  0  0
 39 44  1  0  0  0  0
 40 43  1  6  0  0  0
 40 41  1  0  0  0  0
 40 50  1  0  0  0  0
 42 45  1  0  0  0  0
 42 49  2  0  0  0  0
 44 47  2  0  0  0  0
 45 43  1  1  0  0  0
 46 41  1  0  0  0  0
 48 49  1  0  0  0  0
 48 44  1  0  0  0  0
 49 46  1  0  0  0  0
 50 52  1  1  0  0  0
 50 53  1  0  0  0  0
 51 55  1  0  0  0  0
 54 55  1  0  0  0  0
 54 52  1  0  0  0  0
 56 55  1  0  0  0  0
 56 50  1  0  0  0  0
 56 53  1  1  0  0  0
 58 57  1  1  0  0  0
 58 62  1  0  0  0  0
 60 58  1  0  0  0  0
 60 59  1  0  0  0  0
 61 59  1  1  0  0  0
 61 62  1  0  0  0  0
 61 45  1  0  0  0  0
 63 64  1  0  0  0  0
 64 60  1  0  0  0  0
M  END
>  <MODEL>
1

>  <REMARK>
 VINA RESULT:      -5.9      0.000      0.000
  Name = 
  21 active torsions:
  status: ('A' for Active; 'I' for Inactive)
    1  A    between atoms: C_1  and  C_6
    2  A    between atoms: C_2  and  C_29
    3  A    between atoms: C_2  and  C_38
    4  A    between atoms: C_13  and  C_60
    5  A    between atoms: C_14  and  N_17
    6  A    between atoms: C_14  and  N_39
    7  A    between atoms: C_18  and  CA_54
    8  A    between atoms: C_19  and  C_27
    9  A    between atoms: C_19  and  C_31
   10  A    between atoms: C_19  and  N_39
   11  A    between atoms: N_24  and  C_27
   12  A    between atoms: N_24  and  CA_54
   13  A    between atoms: C_26  and  C_38
   14  A    between atoms: C_26  and  O_40
   15  A    between atoms: C_30  and  C_60
   16  A    between atoms: C_33  and  C_48
   17  A    between atoms: O_40  and  C_61
   18  A    between atoms: N_45  and  C_46
   19  A    between atoms: C_49  and  C_58
   20  A    between atoms: C_50  and  CA_54
   21  A    between atoms: C_50  and  C_58
                            x       y       z     vdW  Elec       q    Type
                         _______ _______ _______ _____ _____    ______ ____

>  <TORSDO>
F 21

$$$$
=
 OpenBabel11042416053D

 64 69  0  0  1  0  0  0  0  0999 V2000
  193.7650  170.8480  143.1570 C   0  0  1  0  0  3  0  0  0  0  0  0
  192.9240  172.1070  145.0160 N   0  0  0  0  0  0  0  0  0  0  0  0
  191.8100  171.3240  144.4610 C   0  0  1  0  0  3  0  0  0  0  0  0
  190.8750  172.1470  143.5730 C   0  0  0  0  0  1  0  0  0  0  0  0
  192.4510  170.2450  143.6150 C   0  0  0  0  0  2  0  0  0  0  0  0
  193.9950  172.0900  144.0100 C   0  0  2  0  0  3  0  0  0  0  0  0
  192.5410  173.4520  145.4490 C   0  0  0  0  0  1  0  0  0  0  0  0
  195.4180  169.3580  142.1300 N   0  0  0  0  0  0  0  0  0  0  0  0
  194.9160  169.8740  143.2200 C   0  0  0  0  0  0  0  0  0  0  0  0
  195.2600  169.2230  146.9430 C   0  0  0  0  0  3  0  0  0  0  0  0
  196.7220  168.7830  144.6070 C   0  0  0  0  0  3  0  0  0  0  0  0
  197.0570  168.1710  148.3220 C   0  0  0  0  0  1  0  0  0  0  0  0
  197.2360  168.3750  145.8400 C   0  0  0  0  0  3  0  0  0  0  0  0
  195.4710  169.4140  144.5230 C   0  0  0  0  0  0  0  0  0  0  0  0
  194.7470  169.6300  145.7090 C   0  0  0  0  0  3  0  0  0  0  0  0
  196.5050  168.5960  147.0090 C   0  0  0  0  0  0  0  0  0  0  0  0
  195.0930  169.6050  140.7490 C   0  0  0  0  0  0  0  0  0  0  0  0
  193.7430  168.9970  140.0420 S   0  0  0  0  0  0  0  0  0  0  0  0
  195.8160  170.6100  140.0380 N   0  0  0  0  0  2  0  0  0  0  0  0
  195.8130  172.0060  140.4420 C   0  0  1  0  0  3  0  0  0  0  0  0
  197.1800  172.4060  140.9030 C   0  0  0  0  0  3  0  0  0  0  0  0
  197.9410  171.5660  141.5980 C   0  0  0  0  0  2  0  0  0  0  0  0
  195.3810  172.8660  139.2680 C   0  0  0  0  0  2  0  0  0  0  0  0
  194.8690  172.0190  138.2040 N   0  0  0  0  0  2  0  0  0  0  0  0
  194.9180  172.7870  136.9660 C   0  0  2  0  0  3  0  0  0  0  0  0
  195.5000  171.9610  135.8630 C   0  0  0  0  0  0  0  0  0  0  0  0
  196.5930  171.1340  136.1020 O   0  0  0  0  0  1  0  0  0  0  0  0
  195.0060  172.0250  134.7070 O   0  0  0  0  0  0  0  0  0  0  0  0
  195.6640  174.1130  137.1390 C   0  0  0  0  0  2  0  0  0  0  0  0
  193.0920  175.0290  137.1420 S   0  0  0  0  0  1  0  0  0  0  0  0
  194.8410  175.3330  136.7310 C   0  0  2  0  0  3  0  0  0  0  0  0
  195.3930  176.9070  135.0000 O   0  0  0  0  0  1  0  0  0  0  0  0
  193.6710  175.3530  134.5140 C   0  0  0  0  0  1  0  0  0  0  0  0
  194.9890  175.5900  135.2330 C   0  0  2  0  0  3  0  0  0  0  0  0
  193.9490  173.2230  143.1850 O   0  0  0  0  0  0  0  0  0  0  0  0
  195.1290  173.9180  143.4630 C   0  0  0  0  0  2  0  0  0  0  0  0
  195.0450  175.3150  142.8840 C   0  0  2  0  0  3  0  0  0  0  0  0
  196.3230  175.6240  142.1300 C   0  0  0  0  0  1  0  0  0  0  0  0
  194.8590  176.3180  144.0070 C   0  0  0  0  0  2  0  0  0  0  0  0
  188.2550  176.7220  144.6460 C   0  0  1  0  0  3  0  0  0  0  0  0
  189.6100  176.7920  145.1920 N   0  0  0  0  0  2  0  0  0  0  0  0
  190.2870  175.6310  142.5180 N   0  0  0  0  0  0  0  0  0  0  0  0
  188.1240  175.5230  143.7120 C   0  0  0  0  0  2  0  0  0  0  0  0
  193.4110  176.5570  144.2520 C   0  0  0  0  0  0  0  0  0  0  0  0
  188.8350  175.7930  142.3870 C   0  0  2  0  0  3  0  0  0  0  0  0
  190.4660  177.4010  144.1830 C   0  0  0  0  0  2  0  0  0  0  0  0
  193.0490  177.1830  145.2840 O   0  0  0  0  0  0  0  0  0  0  0  0
  192.4550  176.0620  143.3080 N   0  0  0  0  0  2  0  0  0  0  0  0
  191.0490  176.3350  143.3030 C   0  0  0  0  0  0  0  0  0  0  0  0
  187.1970  176.6360  145.7560 C   0  0  1  0  0  0  0  0  0  0  0  0
  186.3310  179.4800  147.6420 C   0  0  0  0  0  1  0  0  0  0  0  0
  185.7360  176.7900  145.4090 C   0  0  0  0  0  2  0  0  0  0  0  0
  187.5490  176.0550  147.1100 C   0  0  0  0  0  2  0  0  0  0  0  0
  185.2460  177.9290  146.2760 C   0  0  0  0  0  2  0  0  0  0  0  0
  186.1720  178.0590  147.3930 N   0  0  0  0  0  0  0  0  0  0  0  0
  187.4610  177.5660  146.9210 C   0  0  2  0  0  3  0  0  0  0  0  0
  190.0450  171.5690  140.3940 Cl  0  0  0  0  0  0  0  0  0  0  0  0
  188.7480  172.7780  140.2540 C   0  0  2  0  0  3  0  0  0  0  0  0
  188.9800  175.1060  139.9770 C   0  0  0  0  0  2  0  0  0  0  0  0
  189.1430  173.8170  139.3060 N   0  0  0  0  0  0  0  0  0  0  0  0
  188.2820  174.8720  141.2990 C   0  0  1  0  0  3  0  0  0  0  0  0
  188.5010  173.4120  141.6030 C   0  0  0  0  0  2  0  0  0  0  0  0
  188.8110  173.1060  137.0050 C   0  0  0  0  0  1  0  0  0  0  0  0
  188.1850  173.7740  138.2120 C   0  0  0  0  0  2  0  0  0  0  0  0
  1  9  1  1  0  0  0
  1  5  1  0  0  0  0
  1  6  1  0  0  0  0
  2  7  1  0  0  0  0
  3  4  1  6  0  0  0
  3  2  1  0  0  0  0
  5  3  1  0  0  0  0
  6 35  1  6  0  0  0
  6  2  1  0  0  0  0
  8  9  2  0  0  0  0
  9 14  1  0  0  0  0
 10 16  1  0  0  0  0
 11 13  1  0  0  0  0
 13 16  2  0  0  0  0
 14 11  2  0  0  0  0
 14 15  1  0  0  0  0
 15 10  2  0  0  0  0
 16 12  1  0  0  0  0
 17  8  1  0  0  0  0
 18 17  2  0  0  0  0
 19 20  1  0  0  0  0
 19 17  1  0  0  0  0
 20 23  1  6  0  0  0
 20 21  1  0  0  0  0
 21 22  2  0  0  0  0
 24 23  1  0  0  0  0
 25 29  1  1  0  0  0
 25 24  1  0  0  0  0
 26 27  1  0  0  0  0
 26 25  1  0  0  0  0
 28 26  2  0  0  0  0
 31 29  1  0  0  0  0
 31 30  1  6  0  0  0
 32 34  1  0  0  0  0
 34 33  1  6  0  0  0
 34 31  1  0  0  0  0
 35 36  1  0  0  0  0
 37 38  1  1  0  0  0
 37 36  1  0  0  0  0
 37 39  1  0  0  0  0
 39 44  1  0  0  0  0
 40 43  1  6  0  0  0
 40 41  1  0  0  0  0
 40 50  1  0  0  0  0
 42 49  2  0  0  0  0
 44 47  2  0  0  0  0
 45 42  1  0  0  0  0
 45 43  1  1  0  0  0
 46 41  1  0  0  0  0
 48 44  1  0  0  0  0
 49 48  1  0  0  0  0
 49 46  1  0  0  0  0
 50 52  1  6  0  0  0
 50 56  1  0  0  0  0
 50 53  1  0  0  0  0
 52 54  1  0  0  0  0
 54 55  1  0  0  0  0
 55 51  1  0  0  0  0
 56 53  1  1  0  0  0
 56 55  1  0  0  0  0
 58 57  1  1  0  0  0
 58 62  1  0  0  0  0
 60 59  1  0  0  0  0
 60 58  1  0  0  0  0
 61 59  1  6  0  0  0
 61 62  1  0  0  0  0
 61 45  1  0  0  0  0
 63 64  1  0  0  0  0
 64 60  1  0  0  0  0
M  END
>  <MODEL>
2

>  <REMARK>
 VINA RESULT:      -5.0      2.700      4.970
  Name = 
  21 active torsions:
  status: ('A' for Active; 'I' for Inactive)
    1  A    between atoms: C_1  and  C_6
    2  A    between atoms: C_2  and  C_29
    3  A    between atoms: C_2  and  C_38
    4  A    between atoms: C_13  and  C_60
    5  A    between atoms: C_14  and  N_17
    6  A    between atoms: C_14  and  N_39
    7  A    between atoms: C_18  and  CA_54
    8  A    between atoms: C_19  and  C_27
    9  A    between atoms: C_19  and  C_31
   10  A    between atoms: C_19  and  N_39
   11  A    between atoms: N_24  and  C_27
   12  A    between atoms: N_24  and  CA_54
   13  A    between atoms: C_26  and  C_38
   14  A    between atoms: C_26  and  O_40
   15  A    between atoms: C_30  and  C_60
   16  A    between atoms: C_33  and  C_48
   17  A    between atoms: O_40  and  C_61
   18  A    between atoms: N_45  and  C_46
   19  A    between atoms: C_49  and  C_58
   20  A    between atoms: C_50  and  CA_54
   21  A    between atoms: C_50  and  C_58
                            x       y       z     vdW  Elec       q    Type
                         _______ _______ _______ _____ _____    ______ ____

>  <TORSDO>
F 21

$$$$
=
 OpenBabel11042416053D

 64 69  0  0  1  0  0  0  0  0999 V2000
  194.4540  172.3510  145.0680 C   0  0  1  0  0  3  0  0  0  0  0  0
  196.3570  171.3580  144.0010 N   0  0  0  0  0  0  0  0  0  0  0  0
  195.9080  170.4450  145.0610 C   0  0  1  0  0  3  0  0  0  0  0  0
  196.7550  170.5300  146.3320 C   0  0  0  0  0  1  0  0  0  0  0  0
  194.4940  170.8710  145.3950 C   0  0  0  0  0  2  0  0  0  0  0  0
  195.7060  172.6520  144.2520 C   0  0  2  0  0  3  0  0  0  0  0  0
  197.8130  171.4440  143.8740 C   0  0  0  0  0  1  0  0  0  0  0  0
  193.0670  172.6480  143.0690 N   0  0  0  0  0  0  0  0  0  0  0  0
  193.1840  172.7650  144.3640 C   0  0  0  0  0  0  0  0  0  0  0  0
  189.6530  173.6280  145.4550 C   0  0  0  0  0  3  0  0  0  0  0  0
  192.2710  174.3230  146.1280 C   0  0  0  0  0  3  0  0  0  0  0  0
  188.7440  175.1890  147.1780 C   0  0  0  0  0  1  0  0  0  0  0  0
  191.1960  174.9080  146.8040 C   0  0  0  0  0  3  0  0  0  0  0  0
  192.0530  173.3830  145.1090 C   0  0  0  0  0  0  0  0  0  0  0  0
  190.7280  173.0440  144.7800 C   0  0  0  0  0  3  0  0  0  0  0  0
  189.8870  174.5600  146.4670 C   0  0  0  0  0  0  0  0  0  0  0  0
  193.9770  172.0970  142.0990 C   0  0  0  0  0  0  0  0  0  0  0  0
  195.1870  172.9800  141.4280 S   0  0  0  0  0  0  0  0  0  0  0  0
  194.0030  170.6830  141.8990 N   0  0  0  0  0  2  0  0  0  0  0  0
  193.8260  170.0770  140.5900 C   0  0  1  0  0  3  0  0  0  0  0  0
  193.1090  168.7700  140.7260 C   0  0  0  0  0  3  0  0  0  0  0  0
  192.2770  168.5480  141.7390 C   0  0  0  0  0  2  0  0  0  0  0  0
  193.0350  171.0210  139.7040 C   0  0  0  0  0  2  0  0  0  0  0  0
  192.5680  170.3110  138.5250 N   0  0  0  0  0  2  0  0  0  0  0  0
  192.2940  171.3010  137.4910 C   0  0  2  0  0  3  0  0  0  0  0  0
  191.4990  170.6900  136.3820 C   0  0  0  0  0  0  0  0  0  0  0  0
  191.7170  171.0740  135.0630 O   0  0  0  0  0  0  0  0  0  0  0  0
  190.6160  169.8320  136.6450 O   0  0  0  0  0  1  0  0  0  0  0  0
  193.5740  171.9650  136.9760 C   0  0  0  0  0  2  0  0  0  0  0  0
  194.2500  173.9040  135.1760 S   0  0  0  0  0  1  0  0  0  0  0  0
  193.4310  173.4680  136.7440 C   0  0  2  0  0  3  0  0  0  0  0  0
  193.6590  175.5780  137.8730 O   0  0  0  0  0  1  0  0  0  0  0  0
  195.5820  174.1930  137.8070 C   0  0  0  0  0  1  0  0  0  0  0  0
  194.0650  174.2410  137.8980 C   0  0  2  0  0  3  0  0  0  0  0  0
  196.5320  173.5130  144.9880 O   0  0  0  0  0  0  0  0  0  0  0  0
  195.6880  174.5400  145.4180 C   0  0  0  0  0  2  0  0  0  0  0  0
  195.5460  175.5750  144.3230 C   0  0  2  0  0  3  0  0  0  0  0  0
  196.8350  175.6450  143.5290 C   0  0  0  0  0  1  0  0  0  0  0  0
  195.2540  176.9300  144.9420 C   0  0  0  0  0  2  0  0  0  0  0  0
  188.6750  177.5490  144.2270 C   0  0  1  0  0  3  0  0  0  0  0  0
  189.9070  177.6930  145.0020 N   0  0  0  0  0  2  0  0  0  0  0  0
  191.0090  176.0650  142.7450 N   0  0  0  0  0  0  0  0  0  0  0  0
  188.6590  176.2060  143.5030 C   0  0  0  0  0  2  0  0  0  0  0  0
  193.8000  177.2320  144.8610 C   0  0  0  0  0  0  0  0  0  0  0  0
  189.6170  176.2250  142.3140 C   0  0  2  0  0  3  0  0  0  0  0  0
  190.9640  178.0990  144.0860 C   0  0  0  0  0  2  0  0  0  0  0  0
  193.2840  178.0370  145.6820 O   0  0  0  0  0  0  0  0  0  0  0  0
  193.0120  176.5930  143.8500 N   0  0  0  0  0  2  0  0  0  0  0  0
  191.6470  176.8840  143.5290 C   0  0  0  0  0  0  0  0  0  0  0  0
  187.4260  177.6780  145.1120 C   0  0  1  0  0  0  0  0  0  0  0  0
  184.4180  178.9590  143.8040 C   0  0  0  0  0  1  0  0  0  0  0  0
  186.5020  176.4960  145.2780 C   0  0  0  0  0  2  0  0  0  0  0  0
  187.2920  178.8280  146.0890 C   0  0  0  0  0  2  0  0  0  0  0  0
  185.1420  177.0000  144.8470 C   0  0  0  0  0  2  0  0  0  0  0  0
  185.1620  178.4540  144.9440 N   0  0  0  0  0  0  0  0  0  0  0  0
  186.5500  178.8610  144.7570 C   0  0  2  0  0  3  0  0  0  0  0  0
  187.2160  172.0420  142.4140 Cl  0  0  0  0  0  0  0  0  0  0  0  0
  188.0380  173.0700  141.2190 C   0  0  2  0  0  3  0  0  0  0  0  0
  190.2060  173.9800  141.3570 C   0  0  0  0  0  2  0  0  0  0  0  0
  189.4600  172.7360  141.1760 N   0  0  0  0  0  0  0  0  0  0  0  0
  189.2290  175.1350  141.3130 C   0  0  1  0  0  3  0  0  0  0  0  0
  187.8860  174.5210  141.6110 C   0  0  0  0  0  2  0  0  0  0  0  0
  188.6990  172.7940  138.8680 C   0  0  0  0  0  1  0  0  0  0  0  0
  189.7380  172.2560  139.8310 C   0  0  0  0  0  2  0  0  0  0  0  0
  1  9  1  6  0  0  0
  1  5  1  0  0  0  0
  2  6  1  0  0  0  0
  2  3  1  0  0  0  0
  3  5  1  0  0  0  0
  3  4  1  1  0  0  0
  6 35  1  1  0  0  0
  6  1  1  0  0  0  0
  7  2  1  0  0  0  0
  8  9  2  0  0  0  0
  9 14  1  0  0  0  0
 10 16  1  0  0  0  0
 11 13  1  0  0  0  0
 14 11  2  0  0  0  0
 15 14  1  0  0  0  0
 15 10  2  0  0  0  0
 16 13  2  0  0  0  0
 16 12  1  0  0  0  0
 17  8  1  0  0  0  0
 18 17  2  0  0  0  0
 19 17  1  0  0  0  0
 20 23  1  6  0  0  0
 20 21  1  0  0  0  0
 20 19  1  0  0  0  0
 21 22  2  0  0  0  0
 24 23  1  0  0  0  0
 25 29  1  6  0  0  0
 25 24  1  0  0  0  0
 26 28  1  0  0  0  0
 26 25  1  0  0  0  0
 27 26  2  0  0  0  0
 31 30  1  6  0  0  0
 31 29  1  0  0  0  0
 31 34  1  0  0  0  0
 32 34  1  0  0  0  0
 34 33  1  6  0  0  0
 35 36  1  0  0  0  0
 37 38  1  1  0  0  0
 37 39  1  0  0  0  0
 37 36  1  0  0  0  0
 40 43  1  1  0  0  0
 40 41  1  0  0  0  0
 40 50  1  0  0  0  0
 42 49  2  0  0  0  0
 44 39  1  0  0  0  0
 44 47  2  0  0  0  0
 45 42  1  0  0  0  0
 45 43  1  1  0  0  0
 46 41  1  0  0  0  0
 48 44  1  0  0  0  0
 49 48  1  0  0  0  0
 49 46  1  0  0  0  0
 50 52  1  1  0  0  0
 50 53  1  0  0  0  0
 51 55  1  0  0  0  0
 54 55  1  0  0  0  0
 54 52  1  0  0  0  0
 56 55  1  0  0  0  0
 56 50  1  0  0  0  0
 56 53  1  1  0  0  0
 58 62  1  0  0  0  0
 58 57  1  1  0  0  0
 60 58  1  0  0  0  0
 60 59  1  0  0  0  0
 61 59  1  1  0  0  0
 61 62  1  0  0  0  0
 61 45  1  0  0  0  0
 63 64  1  0  0  0  0
 64 60  1  0  0  0  0
M  END
>  <MODEL>
3

>  <REMARK>
 VINA RESULT:      -4.9      2.591      4.278
  Name = 
  21 active torsions:
  status: ('A' for Active; 'I' for Inactive)
    1  A    between atoms: C_1  and  C_6
    2  A    between atoms: C_2  and  C_29
    3  A    between atoms: C_2  and  C_38
    4  A    between atoms: C_13  and  C_60
    5  A    between atoms: C_14  and  N_17
    6  A    between atoms: C_14  and  N_39
    7  A    between atoms: C_18  and  CA_54
    8  A    between atoms: C_19  and  C_27
    9  A    between atoms: C_19  and  C_31
   10  A    between atoms: C_19  and  N_39
   11  A    between atoms: N_24  and  C_27
   12  A    between atoms: N_24  and  CA_54
   13  A    between atoms: C_26  and  C_38
   14  A    between atoms: C_26  and  O_40
   15  A    between atoms: C_30  and  C_60
   16  A    between atoms: C_33  and  C_48
   17  A    between atoms: O_40  and  C_61
   18  A    between atoms: N_45  and  C_46
   19  A    between atoms: C_49  and  C_58
   20  A    between atoms: C_50  and  CA_54
   21  A    between atoms: C_50  and  C_58
                            x       y       z     vdW  Elec       q    Type
                         _______ _______ _______ _____ _____    ______ ____

>  <TORSDO>
F 21

$$$$
=
 OpenBabel11042416053D

 64 69  0  0  1  0  0  0  0  0999 V2000
  189.0790  175.7390  143.6340 C   0  0  1  0  0  3  0  0  0  0  0  0
  187.6970  176.9150  142.0670 N   0  0  0  0  0  0  0  0  0  0  0  0
  187.5690  175.4770  141.7910 C   0  0  1  0  0  3  0  0  0  0  0  0
  188.4050  175.0130  140.5960 C   0  0  0  0  0  1  0  0  0  0  0  0
  188.0740  174.7750  143.0330 C   0  0  0  0  0  2  0  0  0  0  0  0
  188.8750  177.0760  142.9310 C   0  0  2  0  0  3  0  0  0  0  0  0
  187.7300  177.7470  140.8630 C   0  0  0  0  0  1  0  0  0  0  0  0
  189.8520  175.2790  145.9140 N   0  0  0  0  0  0  0  0  0  0  0  0
  188.9690  175.8450  145.1360 C   0  0  0  0  0  0  0  0  0  0  0  0
  185.4270  176.9950  145.8680 C   0  0  0  0  0  3  0  0  0  0  0  0
  188.0000  177.4020  146.8710 C   0  0  0  0  0  3  0  0  0  0  0  0
  184.4680  178.5580  147.5630 C   0  0  0  0  0  1  0  0  0  0  0  0
  186.9110  178.0570  147.4530 C   0  0  0  0  0  3  0  0  0  0  0  0
  187.8190  176.5350  145.7820 C   0  0  0  0  0  0  0  0  0  0  0  0
  186.5170  176.3410  145.2870 C   0  0  0  0  0  3  0  0  0  0  0  0
  185.6250  177.8540  146.9510 C   0  0  0  0  0  0  0  0  0  0  0  0
  191.0520  174.5530  145.5860 C   0  0  0  0  0  0  0  0  0  0  0  0
  192.3680  174.5420  146.5670 S   0  0  0  0  0  0  0  0  0  0  0  0
  191.0190  173.6100  144.5150 N   0  0  0  0  0  2  0  0  0  0  0  0
  190.6780  172.2110  144.7170 C   0  0  1  0  0  3  0  0  0  0  0  0
  189.4250  171.8790  143.9680 C   0  0  0  0  0  3  0  0  0  0  0  0
  189.4590  171.5960  142.6690 C   0  0  0  0  0  2  0  0  0  0  0  0
  191.8250  171.3420  144.2360 C   0  0  0  0  0  2  0  0  0  0  0  0
  192.9320  172.1840  143.8130 N   0  0  0  0  0  2  0  0  0  0  0  0
  194.1500  171.3870  143.8930 C   0  0  2  0  0  3  0  0  0  0  0  0
  194.7070  171.4240  145.2800 C   0  0  0  0  0  0  0  0  0  0  0  0
  194.6630  170.2930  146.0890 O   0  0  0  0  0  1  0  0  0  0  0  0
  195.2070  172.4900  145.7240 O   0  0  0  0  0  0  0  0  0  0  0  0
  195.1880  171.8140  142.8510 C   0  0  0  0  0  2  0  0  0  0  0  0
  195.2180  169.1020  142.5260 S   0  0  0  0  0  1  0  0  0  0  0  0
  195.4560  170.7510  141.7870 C   0  0  2  0  0  3  0  0  0  0  0  0
  197.7930  170.9490  142.3150 O   0  0  0  0  0  1  0  0  0  0  0  0
  197.0260  172.1430  140.4160 C   0  0  0  0  0  1  0  0  0  0  0  0
  196.8820  170.8850  141.2570 C   0  0  2  0  0  3  0  0  0  0  0  0
  190.0250  177.3780  142.1890 O   0  0  0  0  0  0  0  0  0  0  0  0
  190.9840  176.4580  142.6200 C   0  0  0  0  0  2  0  0  0  0  0  0
  191.9660  177.1440  143.5470 C   0  0  2  0  0  3  0  0  0  0  0  0
  192.1570  178.5800  143.1030 C   0  0  0  0  0  1  0  0  0  0  0  0
  193.2970  176.4150  143.5030 C   0  0  0  0  0  2  0  0  0  0  0  0
  194.4140  174.4960  137.2380 C   0  0  1  0  0  3  0  0  0  0  0  0
  194.2440  175.5280  138.2590 N   0  0  0  0  0  2  0  0  0  0  0  0
  193.3780  173.1720  139.8880 N   0  0  0  0  0  0  0  0  0  0  0  0
  193.3760  173.3930  137.4250 C   0  0  0  0  0  2  0  0  0  0  0  0
  193.6750  176.1150  142.0960 C   0  0  0  0  0  0  0  0  0  0  0  0
  193.7310  172.5170  138.6250 C   0  0  2  0  0  3  0  0  0  0  0  0
  194.8740  175.0520  139.4830 C   0  0  0  0  0  2  0  0  0  0  0  0
  194.1970  177.0150  141.3860 O   0  0  0  0  0  0  0  0  0  0  0  0
  193.4310  174.8040  141.5750 N   0  0  0  0  0  2  0  0  0  0  0  0
  193.8720  174.2990  140.3090 C   0  0  0  0  0  0  0  0  0  0  0  0
  194.3090  175.0740  135.8190 C   0  0  1  0  0  0  0  0  0  0  0  0
  191.5670  177.0770  134.8890 C   0  0  0  0  0  1  0  0  0  0  0  0
  194.9920  176.3800  135.4910 C   0  0  0  0  0  2  0  0  0  0  0  0
  193.8470  174.2040  134.6680 C   0  0  0  0  0  2  0  0  0  0  0  0
  193.8920  177.2730  134.9630 C   0  0  0  0  0  2  0  0  0  0  0  0
  192.8030  176.4130  134.5170 N   0  0  0  0  0  0  0  0  0  0  0  0
  192.8860  175.1960  135.3160 C   0  0  2  0  0  3  0  0  0  0  0  0
  190.7780  170.3330  135.4970 Cl  0  0  0  0  0  0  0  0  0  0  0  0
  191.6060  169.9540  137.0240 C   0  0  2  0  0  3  0  0  0  0  0  0
  191.6130  171.2250  139.0070 C   0  0  0  0  0  2  0  0  0  0  0  0
  190.7810  170.3810  138.1510 N   0  0  0  0  0  0  0  0  0  0  0  0
  193.0390  171.1590  138.5040 C   0  0  1  0  0  3  0  0  0  0  0  0
  192.9270  170.6850  137.0770 C   0  0  0  0  0  2  0  0  0  0  0  0
  191.1250  169.2380  140.2690 C   0  0  0  0  0  1  0  0  0  0  0  0
  190.4550  169.1830  138.9110 C   0  0  0  0  0  2  0  0  0  0  0  0
  1  9  1  1  0  0  0
  2  6  1  0  0  0  0
  3  4  1  6  0  0  0
  3  2  1  0  0  0  0
  3  5  1  0  0  0  0
  5  1  1  0  0  0  0
  6 35  1  6  0  0  0
  6  1  1  0  0  0  0
  7  2  1  0  0  0  0
  9 14  1  0  0  0  0
  9  8  2  0  0  0  0
 10 16  1  0  0  0  0
 11 13  1  0  0  0  0
 14 11  2  0  0  0  0
 15 14  1  0  0  0  0
 15 10  2  0  0  0  0
 16 13  2  0  0  0  0
 16 12  1  0  0  0  0
 17  8  1  0  0  0  0
 17 18  2  0  0  0  0
 19 20  1  0  0  0  0
 19 17  1  0  0  0  0
 20 21  1  6  0  0  0
 22 21  2  0  0  0  0
 23 20  1  0  0  0  0
 24 25  1  0  0  0  0
 24 23  1  0  0  0  0
 25 29  1  6  0  0  0
 25 26  1  0  0  0  0
 26 28  2  0  0  0  0
 26 27  1  0  0  0  0
 31 30  1  1  0  0  0
 31 29  1  0  0  0  0
 34 33  1  1  0  0  0
 34 31  1  0  0  0  0
 34 32  1  0  0  0  0
 35 36  1  0  0  0  0
 36 37  1  0  0  0  0
 37 38  1  6  0  0  0
 39 37  1  0  0  0  0
 40 43  1  1  0  0  0
 40 41  1  0  0  0  0
 41 46  1  0  0  0  0
 42 49  2  0  0  0  0
 44 39  1  0  0  0  0
 45 43  1  6  0  0  0
 45 42  1  0  0  0  0
 46 49  1  0  0  0  0
 47 44  2  0  0  0  0
 48 44  1  0  0  0  0
 49 48  1  0  0  0  0
 50 53  1  6  0  0  0
 50 40  1  0  0  0  0
 52 50  1  0  0  0  0
 54 52  1  0  0  0  0
 55 51  1  0  0  0  0
 55 54  1  0  0  0  0
 55 56  1  0  0  0  0
 56 53  1  6  0  0  0
 56 50  1  0  0  0  0
 58 57  1  6  0  0  0
 58 62  1  0  0  0  0
 58 60  1  0  0  0  0
 60 64  1  0  0  0  0
 60 59  1  0  0  0  0
 61 62  1  6  0  0  0
 61 45  1  0  0  0  0
 61 59  1  0  0  0  0
 64 63  1  0  0  0  0
M  END
>  <MODEL>
4

>  <REMARK>
 VINA RESULT:      -4.7      3.250      9.339
  Name = 
  21 active torsions:
  status: ('A' for Active; 'I' for Inactive)
    1  A    between atoms: C_1  and  C_6
    2  A    between atoms: C_2  and  C_29
    3  A    between atoms: C_2  and  C_38
    4  A    between atoms: C_13  and  C_60
    5  A    between atoms: C_14  and  N_17
    6  A    between atoms: C_14  and  N_39
    7  A    between atoms: C_18  and  CA_54
    8  A    between atoms: C_19  and  C_27
    9  A    between atoms: C_19  and  C_31
   10  A    between atoms: C_19  and  N_39
   11  A    between atoms: N_24  and  C_27
   12  A    between atoms: N_24  and  CA_54
   13  A    between atoms: C_26  and  C_38
   14  A    between atoms: C_26  and  O_40
   15  A    between atoms: C_30  and  C_60
   16  A    between atoms: C_33  and  C_48
   17  A    between atoms: O_40  and  C_61
   18  A    between atoms: N_45  and  C_46
   19  A    between atoms: C_49  and  C_58
   20  A    between atoms: C_50  and  CA_54
   21  A    between atoms: C_50  and  C_58
                            x       y       z     vdW  Elec       q    Type
                         _______ _______ _______ _____ _____    ______ ____

>  <TORSDO>
F 21

$$$$
=
 OpenBabel11042416053D

 64 69  0  0  1  0  0  0  0  0999 V2000
  194.1260  171.5530  142.7730 C   0  0  1  0  0  3  0  0  0  0  0  0
  192.1640  171.5870  144.1500 N   0  0  0  0  0  0  0  0  0  0  0  0
  191.8020  170.9700  142.8660 C   0  0  1  0  0  3  0  0  0  0  0  0
  191.0690  171.9240  141.9210 C   0  0  0  0  0  1  0  0  0  0  0  0
  193.1130  170.5680  142.2230 C   0  0  0  0  0  2  0  0  0  0  0  0
  193.4570  172.2550  143.9490 C   0  0  2  0  0  3  0  0  0  0  0  0
  191.1250  172.4620  144.6970 C   0  0  0  0  0  1  0  0  0  0  0  0
  196.4390  170.8860  142.3120 N   0  0  0  0  0  0  0  0  0  0  0  0
  195.4360  170.9030  143.1480 C   0  0  0  0  0  0  0  0  0  0  0  0
  196.8350  169.9240  146.5370 C   0  0  0  0  0  3  0  0  0  0  0  0
  194.7680  169.1450  144.8320 C   0  0  0  0  0  3  0  0  0  0  0  0
  196.1960  168.1660  148.1920 C   0  0  0  0  0  1  0  0  0  0  0  0
  194.9550  168.4850  146.0490 C   0  0  0  0  0  3  0  0  0  0  0  0
  195.6080  170.2020  144.4500 C   0  0  0  0  0  0  0  0  0  0  0  0
  196.6460  170.5820  145.3200 C   0  0  0  0  0  3  0  0  0  0  0  0
  195.9890  168.8740  146.9020 C   0  0  0  0  0  0  0  0  0  0  0  0
  196.5680  171.4700  141.0020 C   0  0  0  0  0  0  0  0  0  0  0  0
  197.6370  172.6710  140.6760 S   0  0  0  0  0  0  0  0  0  0  0  0
  195.9420  170.8240  139.8920 N   0  0  0  0  0  2  0  0  0  0  0  0
  196.5130  170.8440  138.5550 C   0  0  1  0  0  3  0  0  0  0  0  0
  197.4450  169.6850  138.3830 C   0  0  0  0  0  3  0  0  0  0  0  0
  197.4730  168.9910  137.2500 C   0  0  0  0  0  2  0  0  0  0  0  0
  195.3930  170.7750  137.5330 C   0  0  0  0  0  2  0  0  0  0  0  0
  194.3580  169.8680  138.0010 N   0  0  0  0  0  2  0  0  0  0  0  0
  193.1590  170.6570  138.2530 C   0  0  2  0  0  3  0  0  0  0  0  0
  191.9730  169.7640  138.4230 C   0  0  0  0  0  0  0  0  0  0  0  0
  190.6890  170.2970  138.4770 O   0  0  0  0  0  0  0  0  0  0  0  0
  192.1380  168.5210  138.5320 O   0  0  0  0  0  1  0  0  0  0  0  0
  192.9260  171.7130  137.1680 C   0  0  0  0  0  2  0  0  0  0  0  0
  193.0330  174.3470  136.4550 S   0  0  0  0  0  1  0  0  0  0  0  0
  192.6290  173.1040  137.7250 C   0  0  2  0  0  3  0  0  0  0  0  0
  192.9120  174.4050  139.7260 O   0  0  0  0  0  1  0  0  0  0  0  0
  194.8900  173.7080  138.6230 C   0  0  0  0  0  1  0  0  0  0  0  0
  193.4570  173.3540  138.9840 C   0  0  2  0  0  3  0  0  0  0  0  0
  193.2960  173.6120  143.6370 O   0  0  0  0  0  0  0  0  0  0  0  0
  194.5940  174.0930  143.4440 C   0  0  0  0  0  2  0  0  0  0  0  0
  194.5410  175.4290  142.7320 C   0  0  2  0  0  3  0  0  0  0  0  0
  195.7690  175.5790  141.8560 C   0  0  0  0  0  1  0  0  0  0  0  0
  194.5060  176.5470  143.7570 C   0  0  0  0  0  2  0  0  0  0  0  0
  188.0300  177.4550  144.9540 C   0  0  1  0  0  3  0  0  0  0  0  0
  189.3620  176.9970  145.3470 N   0  0  0  0  0  2  0  0  0  0  0  0
  189.9290  177.5270  142.4560 N   0  0  0  0  0  0  0  0  0  0  0  0
  187.7410  177.0590  143.5090 C   0  0  0  0  0  2  0  0  0  0  0  0
  193.1060  176.8050  144.1920 C   0  0  0  0  0  0  0  0  0  0  0  0
  188.5260  177.9430  142.5420 C   0  0  2  0  0  3  0  0  0  0  0  0
  190.3330  177.9480  144.8230 C   0  0  0  0  0  2  0  0  0  0  0  0
  192.8150  176.7580  145.4170 O   0  0  0  0  0  0  0  0  0  0  0  0
  192.1130  177.0970  143.2020 N   0  0  0  0  0  2  0  0  0  0  0  0
  190.7680  177.5230  143.4500 C   0  0  0  0  0  0  0  0  0  0  0  0
  186.9380  176.8930  145.8770 C   0  0  1  0  0  0  0  0  0  0  0  0
  185.3130  178.9670  148.2130 C   0  0  0  0  0  1  0  0  0  0  0  0
  185.5100  176.8270  145.3910 C   0  0  0  0  0  2  0  0  0  0  0  0
  187.3100  176.0880  147.1050 C   0  0  0  0  0  2  0  0  0  0  0  0
  184.7130  177.6010  146.4160 C   0  0  0  0  0  2  0  0  0  0  0  0
  185.4990  177.6440  147.6430 N   0  0  0  0  0  0  0  0  0  0  0  0
  186.8970  177.5510  147.2400 C   0  0  2  0  0  3  0  0  0  0  0  0
  184.0360  177.8010  140.7810 Cl  0  0  0  0  0  0  0  0  0  0  0  0
  185.7010  177.8850  140.1610 C   0  0  2  0  0  3  0  0  0  0  0  0
  187.5200  176.5070  140.7450 C   0  0  0  0  0  2  0  0  0  0  0  0
  186.2460  176.5360  140.0280 N   0  0  0  0  0  0  0  0  0  0  0  0
  187.8670  177.9200  141.1620 C   0  0  1  0  0  3  0  0  0  0  0  0
  186.5590  178.6690  141.1260 C   0  0  0  0  0  2  0  0  0  0  0  0
  187.6550  175.3260  138.4600 C   0  0  0  0  0  1  0  0  0  0  0  0
  186.5380  176.3380  138.6170 C   0  0  0  0  0  2  0  0  0  0  0  0
  1  9  1  1  0  0  0
  1  6  1  0  0  0  0
  2  7  1  0  0  0  0
  3  4  1  6  0  0  0
  3  2  1  0  0  0  0
  5  1  1  0  0  0  0
  5  3  1  0  0  0  0
  6 35  1  6  0  0  0
  6  2  1  0  0  0  0
  8  9  2  0  0  0  0
  9 14  1  0  0  0  0
 10 16  1  0  0  0  0
 11 13  1  0  0  0  0
 13 16  2  0  0  0  0
 14 11  2  0  0  0  0
 14 15  1  0  0  0  0
 15 10  2  0  0  0  0
 16 12  1  0  0  0  0
 17  8  1  0  0  0  0
 18 17  2  0  0  0  0
 19 17  1  0  0  0  0
 20 23  1  6  0  0  0
 20 19  1  0  0  0  0
 21 20  1  0  0  0  0
 22 21  2  0  0  0  0
 23 24  1  0  0  0  0
 24 25  1  0  0  0  0
 25 29  1  6  0  0  0
 25 26  1  0  0  0  0
 26 27  2  0  0  0  0
 26 28  1  0  0  0  0
 29 31  1  0  0  0  0
 31 30  1  6  0  0  0
 31 34  1  0  0  0  0
 34 33  1  6  0  0  0
 34 32  1  0  0  0  0
 36 35  1  0  0  0  0
 37 38  1  6  0  0  0
 37 36  1  0  0  0  0
 37 39  1  0  0  0  0
 39 44  1  0  0  0  0
 40 43  1  6  0  0  0
 40 41  1  0  0  0  0
 40 50  1  0  0  0  0
 42 45  1  0  0  0  0
 42 49  2  0  0  0  0
 44 47  2  0  0  0  0
 45 43  1  1  0  0  0
 46 41  1  0  0  0  0
 48 49  1  0  0  0  0
 48 44  1  0  0  0  0
 49 46  1  0  0  0  0
 50 52  1  6  0  0  0
 50 53  1  0  0  0  0
 50 56  1  0  0  0  0
 52 54  1  0  0  0  0
 54 55  1  0  0  0  0
 55 51  1  0  0  0  0
 56 53  1  1  0  0  0
 56 55  1  0  0  0  0
 58 57  1  1  0  0  0
 58 62  1  0  0  0  0
 60 58  1  0  0  0  0
 60 59  1  0  0  0  0
 61 59  1  1  0  0  0
 61 45  1  0  0  0  0
 62 61  1  0  0  0  0
 63 64  1  0  0  0  0
 64 60  1  0  0  0  0
M  END
>  <MODEL>
5

>  <REMARK>
 VINA RESULT:      -4.6      2.085      3.961
  Name = 
  21 active torsions:
  status: ('A' for Active; 'I' for Inactive)
    1  A    between atoms: C_1  and  C_6
    2  A    between atoms: C_2  and  C_29
    3  A    between atoms: C_2  and  C_38
    4  A    between atoms: C_13  and  C_60
    5  A    between atoms: C_14  and  N_17
    6  A    between atoms: C_14  and  N_39
    7  A    between atoms: C_18  and  CA_54
    8  A    between atoms: C_19  and  C_27
    9  A    between atoms: C_19  and  C_31
   10  A    between atoms: C_19  and  N_39
   11  A    between atoms: N_24  and  C_27
   12  A    between atoms: N_24  and  CA_54
   13  A    between atoms: C_26  and  C_38
   14  A    between atoms: C_26  and  O_40
   15  A    between atoms: C_30  and  C_60
   16  A    between atoms: C_33  and  C_48
   17  A    between atoms: O_40  and  C_61
   18  A    between atoms: N_45  and  C_46
   19  A    between atoms: C_49  and  C_58
   20  A    between atoms: C_50  and  CA_54
   21  A    between atoms: C_50  and  C_58
                            x       y       z     vdW  Elec       q    Type
                         _______ _______ _______ _____ _____    ______ ____

>  <TORSDO>
F 21

$$$$
=
 OpenBabel11042416053D

 64 69  0  0  1  0  0  0  0  0999 V2000
  189.0130  175.5140  143.5740 C   0  0  1  0  0  3  0  0  0  0  0  0
  187.8910  177.2450  142.3540 N   0  0  0  0  0  0  0  0  0  0  0  0
  187.4030  175.9530  141.8530 C   0  0  1  0  0  3  0  0  0  0  0  0
  188.0460  175.5340  140.5290 C   0  0  0  0  0  1  0  0  0  0  0  0
  187.7780  174.9370  142.9120 C   0  0  0  0  0  2  0  0  0  0  0  0
  189.1110  176.9670  143.1250 C   0  0  2  0  0  3  0  0  0  0  0  0
  188.0710  178.2530  141.3070 C   0  0  0  0  0  1  0  0  0  0  0  0
  189.4940  174.3000  145.6490 N   0  0  0  0  0  0  0  0  0  0  0  0
  189.0010  175.3660  145.0760 C   0  0  0  0  0  0  0  0  0  0  0  0
  188.5840  178.1250  147.6490 C   0  0  0  0  0  3  0  0  0  0  0  0
  186.9770  176.5890  145.9610 C   0  0  0  0  0  3  0  0  0  0  0  0
  186.5820  179.3170  148.5480 C   0  0  0  0  0  1  0  0  0  0  0  0
  186.3970  177.5420  146.8020 C   0  0  0  0  0  3  0  0  0  0  0  0
  188.3670  176.3900  145.9510 C   0  0  0  0  0  0  0  0  0  0  0  0
  189.1630  177.1710  146.8070 C   0  0  0  0  0  3  0  0  0  0  0  0
  187.2000  178.3100  147.6460 C   0  0  0  0  0  0  0  0  0  0  0  0
  190.1600  173.1600  145.0740 C   0  0  0  0  0  0  0  0  0  0  0  0
  189.3380  171.8880  144.4430 S   0  0  0  0  0  0  0  0  0  0  0  0
  191.5610  173.2390  144.8060 N   0  0  0  0  0  2  0  0  0  0  0  0
  192.1670  172.6220  143.6380 C   0  0  1  0  0  3  0  0  0  0  0  0
  193.3530  171.8070  144.0520 C   0  0  0  0  0  3  0  0  0  0  0  0
  193.6840  171.6790  145.3330 C   0  0  0  0  0  2  0  0  0  0  0  0
  191.1410  171.7430  142.9480 C   0  0  0  0  0  2  0  0  0  0  0  0
  191.7440  170.4670  142.5980 N   0  0  0  0  0  2  0  0  0  0  0  0
  191.1520  170.0280  141.3410 C   0  0  2  0  0  3  0  0  0  0  0  0
  192.1690  169.3150  140.5070 C   0  0  0  0  0  0  0  0  0  0  0  0
  193.5110  169.6730  140.5710 O   0  0  0  0  0  1  0  0  0  0  0  0
  191.8050  168.3930  139.7320 O   0  0  0  0  0  0  0  0  0  0  0  0
  190.4980  171.1830  140.5770 C   0  0  0  0  0  2  0  0  0  0  0  0
  192.0030  173.1280  139.3910 S   0  0  0  0  0  1  0  0  0  0  0  0
  191.1870  171.5050  139.2530 C   0  0  2  0  0  3  0  0  0  0  0  0
  188.8690  171.6490  138.6330 O   0  0  0  0  0  1  0  0  0  0  0  0
  190.2430  170.2550  137.2960 C   0  0  0  0  0  1  0  0  0  0  0  0
  190.1630  171.5300  138.1200 C   0  0  2  0  0  3  0  0  0  0  0  0
  190.2640  177.1260  142.3450 O   0  0  0  0  0  0  0  0  0  0  0  0
  191.2720  176.4690  143.0560 C   0  0  0  0  0  2  0  0  0  0  0  0
  191.6160  177.2610  144.3000 C   0  0  2  0  0  3  0  0  0  0  0  0
  191.9440  178.6890  143.9120 C   0  0  0  0  0  1  0  0  0  0  0  0
  192.8140  176.6310  144.9870 C   0  0  0  0  0  2  0  0  0  0  0  0
  197.4190  174.2950  140.8000 C   0  0  1  0  0  3  0  0  0  0  0  0
  196.2460  175.1160  141.1000 N   0  0  0  0  0  2  0  0  0  0  0  0
  196.3680  173.5910  143.6720 N   0  0  0  0  0  0  0  0  0  0  0  0
  197.2960  172.9330  141.4760 C   0  0  0  0  0  2  0  0  0  0  0  0
  193.8560  176.2780  143.9850 C   0  0  0  0  0  0  0  0  0  0  0  0
  197.5430  173.0540  142.9790 C   0  0  2  0  0  3  0  0  0  0  0  0
  196.4290  175.6850  142.4280 C   0  0  0  0  0  2  0  0  0  0  0  0
  193.9770  176.9730  142.9400 O   0  0  0  0  0  0  0  0  0  0  0  0
  194.7000  175.1470  144.2280 N   0  0  0  0  0  2  0  0  0  0  0  0
  195.8460  174.7630  143.4590 C   0  0  0  0  0  0  0  0  0  0  0  0
  197.6150  174.1100  139.2880 C   0  0  1  0  0  0  0  0  0  0  0  0
  194.8460  173.9940  137.1150 C   0  0  0  0  0  1  0  0  0  0  0  0
  197.8710  175.3140  138.4140 C   0  0  0  0  0  2  0  0  0  0  0  0
  197.9080  172.7390  138.7140 C   0  0  0  0  0  2  0  0  0  0  0  0
  196.7830  175.2740  137.3640 C   0  0  0  0  0  2  0  0  0  0  0  0
  196.2840  173.9060  137.3030 N   0  0  0  0  0  0  0  0  0  0  0  0
  196.5030  173.3270  138.6230 C   0  0  2  0  0  3  0  0  0  0  0  0
  195.7820  168.5630  142.9420 Cl  0  0  0  0  0  0  0  0  0  0  0  0
  197.1950  169.4270  143.5880 C   0  0  2  0  0  3  0  0  0  0  0  0
  197.2090  171.4150  144.8500 C   0  0  0  0  0  2  0  0  0  0  0  0
  196.8730  169.9930  144.8950 N   0  0  0  0  0  0  0  0  0  0  0  0
  197.9390  171.6940  143.5550 C   0  0  1  0  0  3  0  0  0  0  0  0
  197.5750  170.5470  142.6470 C   0  0  0  0  0  2  0  0  0  0  0  0
  196.9850  168.9300  147.0790 C   0  0  0  0  0  1  0  0  0  0  0  0
  197.7670  169.3670  145.8560 C   0  0  0  0  0  2  0  0  0  0  0  0
  1  9  1  1  0  0  0
  2  6  1  0  0  0  0
  3  4  1  6  0  0  0
  3  2  1  0  0  0  0
  3  5  1  0  0  0  0
  5  1  1  0  0  0  0
  6 35  1  6  0  0  0
  6  1  1  0  0  0  0
  7  2  1  0  0  0  0
  9  8  2  0  0  0  0
  9 14  1  0  0  0  0
 11 13  1  0  0  0  0
 13 16  2  0  0  0  0
 14 11  2  0  0  0  0
 14 15  1  0  0  0  0
 15 10  2  0  0  0  0
 16 10  1  0  0  0  0
 16 12  1  0  0  0  0
 17  8  1  0  0  0  0
 18 17  2  0  0  0  0
 19 17  1  0  0  0  0
 20 23  1  1  0  0  0
 20 21  1  0  0  0  0
 20 19  1  0  0  0  0
 21 22  2  0  0  0  0
 24 23  1  0  0  0  0
 25 29  1  6  0  0  0
 25 24  1  0  0  0  0
 26 27  1  0  0  0  0
 26 25  1  0  0  0  0
 28 26  2  0  0  0  0
 31 30  1  1  0  0  0
 31 29  1  0  0  0  0
 34 33  1  1  0  0  0
 34 32  1  0  0  0  0
 34 31  1  0  0  0  0
 35 36  1  0  0  0  0
 36 37  1  0  0  0  0
 37 38  1  6  0  0  0
 37 39  1  0  0  0  0
 40 41  1  0  0  0  0
 40 43  1  1  0  0  0
 41 46  1  0  0  0  0
 44 48  1  0  0  0  0
 44 39  1  0  0  0  0
 45 43  1  6  0  0  0
 45 61  1  0  0  0  0
 45 42  1  0  0  0  0
 46 49  1  0  0  0  0
 47 44  2  0  0  0  0
 49 42  2  0  0  0  0
 49 48  1  0  0  0  0
 50 52  1  6  0  0  0
 50 40  1  0  0  0  0
 51 55  1  0  0  0  0
 53 50  1  0  0  0  0
 54 52  1  0  0  0  0
 55 54  1  0  0  0  0
 55 56  1  0  0  0  0
 56 53  1  6  0  0  0
 56 50  1  0  0  0  0
 58 57  1  6  0  0  0
 58 60  1  0  0  0  0
 59 60  1  0  0  0  0
 60 64  1  0  0  0  0
 61 62  1  6  0  0  0
 61 59  1  0  0  0  0
 62 58  1  0  0  0  0
 64 63  1  0  0  0  0
M  END
>  <MODEL>
6

>  <REMARK>
 VINA RESULT:      -4.5      3.101      9.540
  Name = 
  21 active torsions:
  status: ('A' for Active; 'I' for Inactive)
    1  A    between atoms: C_1  and  C_6
    2  A    between atoms: C_2  and  C_29
    3  A    between atoms: C_2  and  C_38
    4  A    between atoms: C_13  and  C_60
    5  A    between atoms: C_14  and  N_17
    6  A    between atoms: C_14  and  N_39
    7  A    between atoms: C_18  and  CA_54
    8  A    between atoms: C_19  and  C_27
    9  A    between atoms: C_19  and  C_31
   10  A    between atoms: C_19  and  N_39
   11  A    between atoms: N_24  and  C_27
   12  A    between atoms: N_24  and  CA_54
   13  A    between atoms: C_26  and  C_38
   14  A    between atoms: C_26  and  O_40
   15  A    between atoms: C_30  and  C_60
   16  A    between atoms: C_33  and  C_48
   17  A    between atoms: O_40  and  C_61
   18  A    between atoms: N_45  and  C_46
   19  A    between atoms: C_49  and  C_58
   20  A    between atoms: C_50  and  CA_54
   21  A    between atoms: C_50  and  C_58
                            x       y       z     vdW  Elec       q    Type
                         _______ _______ _______ _____ _____    ______ ____

>  <TORSDO>
F 21

$$$$
=
 OpenBabel11042416053D

 64 69  0  0  1  0  0  0  0  0999 V2000
  194.5300  173.1120  139.6640 C   0  0  1  0  0  3  0  0  0  0  0  0
  195.4330  175.3280  139.5280 N   0  0  0  0  0  0  0  0  0  0  0  0
  196.1310  174.4960  138.5390 C   0  0  1  0  0  3  0  0  0  0  0  0
  197.5150  174.0370  139.0010 C   0  0  0  0  0  1  0  0  0  0  0  0
  195.2590  173.2730  138.3450 C   0  0  0  0  0  2  0  0  0  0  0  0
  194.7360  174.4080  140.4390 C   0  0  2  0  0  3  0  0  0  0  0  0
  196.3030  176.2880  140.2110 C   0  0  0  0  0  1  0  0  0  0  0  0
  192.4470  172.0400  140.3870 N   0  0  0  0  0  0  0  0  0  0  0  0
  193.0720  172.7580  139.4930 C   0  0  0  0  0  0  0  0  0  0  0  0
  190.7410  172.5870  136.5030 C   0  0  0  0  0  3  0  0  0  0  0  0
  192.4680  174.4260  137.6970 C   0  0  0  0  0  3  0  0  0  0  0  0
  190.1630  174.2240  134.7080 C   0  0  0  0  0  1  0  0  0  0  0  0
  191.7660  174.7760  136.5410 C   0  0  0  0  0  3  0  0  0  0  0  0
  192.3170  173.1550  138.2730 C   0  0  0  0  0  0  0  0  0  0  0  0
  191.4450  172.2390  137.6590 C   0  0  0  0  0  3  0  0  0  0  0  0
  190.9030  173.8560  135.9430 C   0  0  0  0  0  0  0  0  0  0  0  0
  192.9070  171.5180  141.6480 C   0  0  0  0  0  0  0  0  0  0  0  0
  191.8810  170.8970  142.7680 S   0  0  0  0  0  0  0  0  0  0  0  0
  194.3050  171.2910  141.8340 N   0  0  0  0  0  2  0  0  0  0  0  0
  194.8860  169.9590  141.8310 C   0  0  1  0  0  3  0  0  0  0  0  0
  194.4370  169.2110  140.6140 C   0  0  0  0  0  3  0  0  0  0  0  0
  195.2910  168.9100  139.6410 C   0  0  0  0  0  2  0  0  0  0  0  0
  196.3990  170.0730  141.8490 C   0  0  0  0  0  2  0  0  0  0  0  0
  196.8140  170.8940  142.9750 N   0  0  0  0  0  2  0  0  0  0  0  0
  196.1810  170.3560  144.1720 C   0  0  2  0  0  3  0  0  0  0  0  0
  195.7710  171.4650  145.0880 C   0  0  0  0  0  0  0  0  0  0  0  0
  196.7290  172.2500  145.7200 O   0  0  0  0  0  1  0  0  0  0  0  0
  194.5490  171.6810  145.2990 O   0  0  0  0  0  0  0  0  0  0  0  0
  197.0690  169.3300  144.8820 C   0  0  0  0  0  2  0  0  0  0  0  0
  194.6010  168.1710  145.0360 S   0  0  0  0  0  1  0  0  0  0  0  0
  196.2850  168.3200  145.7180 C   0  0  2  0  0  3  0  0  0  0  0  0
  197.2290  168.1660  147.9230 O   0  0  0  0  0  1  0  0  0  0  0  0
  194.8770  168.4260  147.7880 C   0  0  0  0  0  1  0  0  0  0  0  0
  196.2210  168.7780  147.1730 C   0  0  2  0  0  3  0  0  0  0  0  0
  195.4970  174.1370  141.5840 O   0  0  0  0  0  0  0  0  0  0  0  0
  194.7430  174.6470  142.6450 C   0  0  0  0  0  2  0  0  0  0  0  0
  195.6370  175.4610  143.5580 C   0  0  2  0  0  3  0  0  0  0  0  0
  197.0830  175.0740  143.3210 C   0  0  0  0  0  1  0  0  0  0  0  0
  195.2660  175.1860  145.0040 C   0  0  0  0  0  2  0  0  0  0  0  0
  189.0920  177.5400  145.7300 C   0  0  1  0  0  3  0  0  0  0  0  0
  190.3070  176.9220  146.2600 N   0  0  0  0  0  2  0  0  0  0  0  0
  190.9760  176.7490  143.3480 N   0  0  0  0  0  0  0  0  0  0  0  0
  188.7350  176.9290  144.3780 C   0  0  0  0  0  2  0  0  0  0  0  0
  193.9430  175.7880  145.3220 C   0  0  0  0  0  0  0  0  0  0  0  0
  189.6810  177.4360  143.2920 C   0  0  2  0  0  3  0  0  0  0  0  0
  191.4470  177.5450  145.6020 C   0  0  0  0  0  2  0  0  0  0  0  0
  193.6450  176.0420  146.5190 O   0  0  0  0  0  0  0  0  0  0  0  0
  193.0300  176.0640  144.2540 N   0  0  0  0  0  2  0  0  0  0  0  0
  191.7940  176.7810  144.3580 C   0  0  0  0  0  0  0  0  0  0  0  0
  187.9080  177.3930  146.6970 C   0  0  1  0  0  0  0  0  0  0  0  0
  184.7170  178.6050  145.8330 C   0  0  0  0  0  1  0  0  0  0  0  0
  187.0970  176.1200  146.6980 C   0  0  0  0  0  2  0  0  0  0  0  0
  187.7590  178.3320  147.8770 C   0  0  0  0  0  2  0  0  0  0  0  0
  185.6720  176.5660  146.4500 C   0  0  0  0  0  2  0  0  0  0  0  0
  185.5840  177.9740  146.8130 N   0  0  0  0  0  0  0  0  0  0  0  0
  186.9160  178.5340  146.6210 C   0  0  2  0  0  3  0  0  0  0  0  0
  185.2740  177.9070  141.3860 Cl  0  0  0  0  0  0  0  0  0  0  0  0
  186.9160  177.4940  140.8420 C   0  0  2  0  0  3  0  0  0  0  0  0
  188.3830  175.9080  141.7810 C   0  0  0  0  0  2  0  0  0  0  0  0
  187.1470  176.0620  141.0150 N   0  0  0  0  0  0  0  0  0  0  0  0
  189.0350  177.2670  141.9160 C   0  0  1  0  0  3  0  0  0  0  0  0
  187.9270  178.2570  141.6650 C   0  0  0  0  0  2  0  0  0  0  0  0
  188.4770  174.4590  139.7600 C   0  0  0  0  0  1  0  0  0  0  0  0
  187.3890  175.5130  139.6900 C   0  0  0  0  0  2  0  0  0  0  0  0
  1  9  1  6  0  0  0
  1  6  1  0  0  0  0
  2  7  1  0  0  0  0
  2  6  1  0  0  0  0
  3  4  1  1  0  0  0
  3  2  1  0  0  0  0
  5  3  1  0  0  0  0
  5  1  1  0  0  0  0
  6 35  1  1  0  0  0
  8 17  1  0  0  0  0
  9  8  2  0  0  0  0
 10 15  1  0  0  0  0
 11 14  1  0  0  0  0
 12 16  1  0  0  0  0
 13 11  2  0  0  0  0
 14  9  1  0  0  0  0
 15 14  2  0  0  0  0
 16 10  2  0  0  0  0
 16 13  1  0  0  0  0
 17 19  1  0  0  0  0
 17 18  2  0  0  0  0
 20 21  1  6  0  0  0
 20 19  1  0  0  0  0
 20 23  1  0  0  0  0
 22 21  2  0  0  0  0
 23 24  1  0  0  0  0
 24 25  1  0  0  0  0
 25 29  1  1  0  0  0
 25 26  1  0  0  0  0
 26 28  2  0  0  0  0
 26 27  1  0  0  0  0
 29 31  1  0  0  0  0
 31 30  1  6  0  0  0
 31 34  1  0  0  0  0
 34 33  1  1  0  0  0
 34 32  1  0  0  0  0
 35 36  1  0  0  0  0
 36 37  1  0  0  0  0
 37 38  1  1  0  0  0
 37 39  1  0  0  0  0
 39 44  1  0  0  0  0
 40 43  1  6  0  0  0
 40 41  1  0  0  0  0
 40 50  1  0  0  0  0
 42 49  2  0  0  0  0
 44 47  2  0  0  0  0
 45 42  1  0  0  0  0
 45 43  1  1  0  0  0
 46 41  1  0  0  0  0
 48 49  1  0  0  0  0
 48 44  1  0  0  0  0
 49 46  1  0  0  0  0
 50 52  1  1  0  0  0
 50 53  1  0  0  0  0
 51 55  1  0  0  0  0
 54 52  1  0  0  0  0
 54 55  1  0  0  0  0
 56 50  1  0  0  0  0
 56 55  1  0  0  0  0
 56 53  1  1  0  0  0
 58 60  1  0  0  0  0
 58 57  1  1  0  0  0
 58 62  1  0  0  0  0
 59 61  1  0  0  0  0
 60 59  1  0  0  0  0
 61 62  1  1  0  0  0
 61 45  1  0  0  0  0
 64 63  1  0  0  0  0
 64 60  1  0  0  0  0
M  END
>  <MODEL>
7

>  <REMARK>
 VINA RESULT:      -4.5      2.731      6.057
  Name = 
  21 active torsions:
  status: ('A' for Active; 'I' for Inactive)
    1  A    between atoms: C_1  and  C_6
    2  A    between atoms: C_2  and  C_29
    3  A    between atoms: C_2  and  C_38
    4  A    between atoms: C_13  and  C_60
    5  A    between atoms: C_14  and  N_17
    6  A    between atoms: C_14  and  N_39
    7  A    between atoms: C_18  and  CA_54
    8  A    between atoms: C_19  and  C_27
    9  A    between atoms: C_19  and  C_31
   10  A    between atoms: C_19  and  N_39
   11  A    between atoms: N_24  and  C_27
   12  A    between atoms: N_24  and  CA_54
   13  A    between atoms: C_26  and  C_38
   14  A    between atoms: C_26  and  O_40
   15  A    between atoms: C_30  and  C_60
   16  A    between atoms: C_33  and  C_48
   17  A    between atoms: O_40  and  C_61
   18  A    between atoms: N_45  and  C_46
   19  A    between atoms: C_49  and  C_58
   20  A    between atoms: C_50  and  CA_54
   21  A    between atoms: C_50  and  C_58
                            x       y       z     vdW  Elec       q    Type
                         _______ _______ _______ _____ _____    ______ ____

>  <TORSDO>
F 21

$$$$
=
 OpenBabel11042416053D

 64 69  0  0  1  0  0  0  0  0999 V2000
  192.8870  170.9510  143.0350 C   0  0  1  0  0  3  0  0  0  0  0  0
  192.5980  172.3230  144.9790 N   0  0  0  0  0  0  0  0  0  0  0  0
  191.2740  171.8320  144.5750 C   0  0  1  0  0  3  0  0  0  0  0  0
  190.4510  172.8690  143.8080 C   0  0  0  0  0  1  0  0  0  0  0  0
  191.5370  170.6550  143.6590 C   0  0  0  0  0  2  0  0  0  0  0  0
  193.5030  172.0860  143.8450 C   0  0  2  0  0  3  0  0  0  0  0  0
  192.5940  173.7090  145.4510 C   0  0  0  0  0  1  0  0  0  0  0  0
  193.6980  168.9080  141.9500 N   0  0  0  0  0  0  0  0  0  0  0  0
  193.7800  169.7370  142.9560 C   0  0  0  0  0  0  0  0  0  0  0  0
  195.1290  168.5710  146.3060 C   0  0  0  0  0  3  0  0  0  0  0  0
  196.1120  169.6270  143.9170 C   0  0  0  0  0  3  0  0  0  0  0  0
  197.4310  168.4870  147.2710 C   0  0  0  0  0  1  0  0  0  0  0  0
  196.9900  169.3260  144.9610 C   0  0  0  0  0  3  0  0  0  0  0  0
  194.7330  169.4030  144.0510 C   0  0  0  0  0  0  0  0  0  0  0  0
  194.2520  168.8720  145.2600 C   0  0  0  0  0  3  0  0  0  0  0  0
  196.4980  168.7980  146.1560 C   0  0  0  0  0  0  0  0  0  0  0  0
  192.8840  168.9650  140.7630 C   0  0  0  0  0  0  0  0  0  0  0  0
  191.3790  168.3140  140.6980 S   0  0  0  0  0  0  0  0  0  0  0  0
  193.2770  169.8280  139.6950 N   0  0  0  0  0  2  0  0  0  0  0  0
  194.4450  169.5660  138.8700 C   0  0  1  0  0  3  0  0  0  0  0  0
  194.1100  168.5510  137.8220 C   0  0  0  0  0  3  0  0  0  0  0  0
  192.9570  168.6010  137.1630 C   0  0  0  0  0  2  0  0  0  0  0  0
  194.9000  170.8600  138.2230 C   0  0  0  0  0  2  0  0  0  0  0  0
  193.8500  171.8590  138.3340 N   0  0  0  0  0  2  0  0  0  0  0  0
  194.2910  173.0470  137.6140 C   0  0  2  0  0  3  0  0  0  0  0  0
  193.1180  173.8920  137.2330 C   0  0  0  0  0  0  0  0  0  0  0  0
  191.8450  173.3360  137.1510 O   0  0  0  0  0  1  0  0  0  0  0  0
  193.2850  175.1120  136.9720 O   0  0  0  0  0  0  0  0  0  0  0  0
  195.1590  172.6970  136.4020 C   0  0  0  0  0  2  0  0  0  0  0  0
  197.8130  172.3970  135.8330 S   0  0  0  0  0  1  0  0  0  0  0  0
  196.4520  173.5050  136.3240 C   0  0  2  0  0  3  0  0  0  0  0  0
  197.2060  175.4540  137.5130 O   0  0  0  0  0  1  0  0  0  0  0  0
  197.8300  173.3520  138.4120 C   0  0  0  0  0  1  0  0  0  0  0  0
  196.7580  174.1410  137.6780 C   0  0  2  0  0  3  0  0  0  0  0  0
  193.6170  173.2180  143.0280 O   0  0  0  0  0  0  0  0  0  0  0  0
  194.8970  173.7180  143.2820 C   0  0  0  0  0  2  0  0  0  0  0  0
  195.0250  175.1110  142.7020 C   0  0  2  0  0  3  0  0  0  0  0  0
  196.3800  175.2560  142.0380 C   0  0  0  0  0  1  0  0  0  0  0  0
  194.8880  176.1360  143.8130 C   0  0  0  0  0  2  0  0  0  0  0  0
  188.3290  177.1370  144.2150 C   0  0  1  0  0  3  0  0  0  0  0  0
  189.6700  177.1290  144.7970 N   0  0  0  0  0  2  0  0  0  0  0  0
  190.3140  175.7380  142.2260 N   0  0  0  0  0  0  0  0  0  0  0  0
  188.1190  175.8930  143.3550 C   0  0  0  0  0  2  0  0  0  0  0  0
  193.4600  176.5110  143.9960 C   0  0  0  0  0  0  0  0  0  0  0  0
  188.8860  176.0130  142.0400 C   0  0  2  0  0  3  0  0  0  0  0  0
  190.6010  177.5950  143.7790 C   0  0  0  0  0  2  0  0  0  0  0  0
  193.1260  177.2340  144.9730 O   0  0  0  0  0  0  0  0  0  0  0  0
  192.4900  176.0360  143.0560 N   0  0  0  0  0  2  0  0  0  0  0  0
  191.1130  176.4260  142.9880 C   0  0  0  0  0  0  0  0  0  0  0  0
  187.2380  177.2140  145.2930 C   0  0  1  0  0  0  0  0  0  0  0  0
  184.8110  179.7640  145.2180 C   0  0  0  0  0  1  0  0  0  0  0  0
  185.9690  176.4130  145.1320 C   0  0  0  0  0  2  0  0  0  0  0  0
  187.5500  177.7850  146.6610 C   0  0  0  0  0  2  0  0  0  0  0  0
  184.8520  177.4300  145.2110 C   0  0  0  0  0  2  0  0  0  0  0  0
  185.3780  178.6080  145.8880 N   0  0  0  0  0  0  0  0  0  0  0  0
  186.8130  178.6290  145.6260 C   0  0  2  0  0  3  0  0  0  0  0  0
  188.9370  171.2770  141.1190 Cl  0  0  0  0  0  0  0  0  0  0  0  0
  188.1990  172.7500  140.4490 C   0  0  2  0  0  3  0  0  0  0  0  0
  189.2760  174.7700  139.8940 C   0  0  0  0  0  2  0  0  0  0  0  0
  189.1160  173.3720  139.4970 N   0  0  0  0  0  0  0  0  0  0  0  0
  188.2840  175.0710  140.9960 C   0  0  1  0  0  3  0  0  0  0  0  0
  187.9160  173.7260  141.5670 C   0  0  0  0  0  2  0  0  0  0  0  0
  188.2560  174.7830  137.7140 C   0  0  0  0  0  1  0  0  0  0  0  0
  188.4500  173.3620  138.2040 C   0  0  0  0  0  2  0  0  0  0  0  0
  1  9  1  1  0  0  0
  1  5  1  0  0  0  0
  1  6  1  0  0  0  0
  2  7  1  0  0  0  0
  3  4  1  6  0  0  0
  3  2  1  0  0  0  0
  5  3  1  0  0  0  0
  6 35  1  6  0  0  0
  6  2  1  0  0  0  0
  8  9  2  0  0  0  0
  9 14  1  0  0  0  0
 11 14  2  0  0  0  0
 11 13  1  0  0  0  0
 13 16  2  0  0  0  0
 14 15  1  0  0  0  0
 15 10  2  0  0  0  0
 16 10  1  0  0  0  0
 16 12  1  0  0  0  0
 17  8  1  0  0  0  0
 18 17  2  0  0  0  0
 19 17  1  0  0  0  0
 20 21  1  6  0  0  0
 20 19  1  0  0  0  0
 22 21  2  0  0  0  0
 23 24  1  0  0  0  0
 23 20  1  0  0  0  0
 25 29  1  6  0  0  0
 25 24  1  0  0  0  0
 26 25  1  0  0  0  0
 27 26  1  0  0  0  0
 28 26  2  0  0  0  0
 31 30  1  1  0  0  0
 31 29  1  0  0  0  0
 31 34  1  0  0  0  0
 32 34  1  0  0  0  0
 34 33  1  6  0  0  0
 35 36  1  0  0  0  0
 37 38  1  1  0  0  0
 37 36  1  0  0  0  0
 37 39  1  0  0  0  0
 39 44  1  0  0  0  0
 40 43  1  1  0  0  0
 40 41  1  0  0  0  0
 40 50  1  0  0  0  0
 42 49  2  0  0  0  0
 44 47  2  0  0  0  0
 45 42  1  0  0  0  0
 45 43  1  1  0  0  0
 46 41  1  0  0  0  0
 48 44  1  0  0  0  0
 49 48  1  0  0  0  0
 49 46  1  0  0  0  0
 50 52  1  6  0  0  0
 50 56  1  0  0  0  0
 50 53  1  0  0  0  0
 51 55  1  0  0  0  0
 52 54  1  0  0  0  0
 54 55  1  0  0  0  0
 56 55  1  0  0  0  0
 56 53  1  1  0  0  0
 58 57  1  1  0  0  0
 58 62  1  0  0  0  0
 60 59  1  0  0  0  0
 60 58  1  0  0  0  0
 61 59  1  6  0  0  0
 61 62  1  0  0  0  0
 61 45  1  0  0  0  0
 63 64  1  0  0  0  0
 64 60  1  0  0  0  0
M  END
>  <MODEL>
8

>  <REMARK>
 VINA RESULT:      -4.2      2.624      4.881
  Name = 
  21 active torsions:
  status: ('A' for Active; 'I' for Inactive)
    1  A    between atoms: C_1  and  C_6
    2  A    between atoms: C_2  and  C_29
    3  A    between atoms: C_2  and  C_38
    4  A    between atoms: C_13  and  C_60
    5  A    between atoms: C_14  and  N_17
    6  A    between atoms: C_14  and  N_39
    7  A    between atoms: C_18  and  CA_54
    8  A    between atoms: C_19  and  C_27
    9  A    between atoms: C_19  and  C_31
   10  A    between atoms: C_19  and  N_39
   11  A    between atoms: N_24  and  C_27
   12  A    between atoms: N_24  and  CA_54
   13  A    between atoms: C_26  and  C_38
   14  A    between atoms: C_26  and  O_40
   15  A    between atoms: C_30  and  C_60
   16  A    between atoms: C_33  and  C_48
   17  A    between atoms: O_40  and  C_61
   18  A    between atoms: N_45  and  C_46
   19  A    between atoms: C_49  and  C_58
   20  A    between atoms: C_50  and  CA_54
   21  A    between atoms: C_50  and  C_58
                            x       y       z     vdW  Elec       q    Type
                         _______ _______ _______ _____ _____    ______ ____

>  <TORSDO>
F 21

$$$$
=
 OpenBabel11042416053D

 64 69  0  0  1  0  0  0  0  0999 V2000
  189.4530  176.2680  143.2530 C   0  0  1  0  0  3  0  0  0  0  0  0
  190.7090  178.2120  143.8770 N   0  0  0  0  0  0  0  0  0  0  0  0
  191.0540  177.8810  142.4880 C   0  0  1  0  0  3  0  0  0  0  0  0
  192.3900  177.1480  142.3530 C   0  0  0  0  0  1  0  0  0  0  0  0
  189.9510  176.9640  142.0010 C   0  0  0  0  0  2  0  0  0  0  0  0
  190.0300  177.0350  144.4370 C   0  0  2  0  0  3  0  0  0  0  0  0
  191.8490  178.6700  144.6740 C   0  0  0  0  0  1  0  0  0  0  0  0
  187.2990  175.4420  142.4260 N   0  0  0  0  0  0  0  0  0  0  0  0
  187.9480  176.1560  143.3050 C   0  0  0  0  0  0  0  0  0  0  0  0
  186.1110  177.0040  146.5160 C   0  0  0  0  0  3  0  0  0  0  0  0
  186.6410  178.1850  144.0440 C   0  0  0  0  0  3  0  0  0  0  0  0
  184.7930  178.9980  147.2390 C   0  0  0  0  0  1  0  0  0  0  0  0
  185.8780  178.8680  144.9950 C   0  0  0  0  0  3  0  0  0  0  0  0
  187.1500  176.9060  144.3140 C   0  0  0  0  0  0  0  0  0  0  0  0
  186.8740  176.3230  145.5630 C   0  0  0  0  0  3  0  0  0  0  0  0
  185.6130  178.2770  146.2310 C   0  0  0  0  0  0  0  0  0  0  0  0
  187.7890  174.6200  141.3500 C   0  0  0  0  0  0  0  0  0  0  0  0
  187.7730  175.1190  139.7860 S   0  0  0  0  0  0  0  0  0  0  0  0
  188.5450  173.4500  141.6620 N   0  0  0  0  0  2  0  0  0  0  0  0
  189.8620  173.1990  141.0990 C   0  0  1  0  0  3  0  0  0  0  0  0
  190.6950  172.4290  142.0750 C   0  0  0  0  0  3  0  0  0  0  0  0
  190.4740  171.1370  142.2950 C   0  0  0  0  0  2  0  0  0  0  0  0
  189.7120  172.4190  139.8050 C   0  0  0  0  0  2  0  0  0  0  0  0
  190.1500  173.2370  138.6870 N   0  0  0  0  0  2  0  0  0  0  0  0
  191.3820  172.6550  138.1690 C   0  0  2  0  0  3  0  0  0  0  0  0
  191.6380  173.1330  136.7750 C   0  0  0  0  0  0  0  0  0  0  0  0
  190.7440  172.8360  135.7510 O   0  0  0  0  0  0  0  0  0  0  0  0
  192.6770  173.7970  136.5240 O   0  0  0  0  0  1  0  0  0  0  0  0
  191.3770  171.1260  138.2550 C   0  0  0  0  0  2  0  0  0  0  0  0
  192.2870  169.0070  136.7920 S   0  0  0  0  0  1  0  0  0  0  0  0
  192.6810  170.4860  137.7820 C   0  0  2  0  0  3  0  0  0  0  0  0
  193.4280  171.0520  139.9960 O   0  0  0  0  0  1  0  0  0  0  0  0
  195.0030  169.9840  138.5820 C   0  0  0  0  0  1  0  0  0  0  0  0
  193.5410  170.0960  138.9820 C   0  0  2  0  0  3  0  0  0  0  0  0
  190.9200  176.2020  145.1280 O   0  0  0  0  0  0  0  0  0  0  0  0
  190.6840  176.4660  146.4800 C   0  0  0  0  0  2  0  0  0  0  0  0
  191.8090  175.8920  147.3140 C   0  0  2  0  0  3  0  0  0  0  0  0
  191.3430  175.7380  148.7480 C   0  0  0  0  0  1  0  0  0  0  0  0
  193.0040  176.8260  147.2640 C   0  0  0  0  0  2  0  0  0  0  0  0
  197.1120  173.8650  142.9570 C   0  0  1  0  0  3  0  0  0  0  0  0
  196.3150  175.0080  143.4010 N   0  0  0  0  0  2  0  0  0  0  0  0
  195.2900  172.9870  145.3570 N   0  0  0  0  0  0  0  0  0  0  0  0
  196.3310  172.5690  143.1530 C   0  0  0  0  0  2  0  0  0  0  0  0
  194.0130  176.3220  146.2930 C   0  0  0  0  0  0  0  0  0  0  0  0
  196.2820  172.1880  144.6320 C   0  0  2  0  0  3  0  0  0  0  0  0
  196.4200  175.0870  144.8520 C   0  0  0  0  0  2  0  0  0  0  0  0
  194.6110  177.1340  145.5380 O   0  0  0  0  0  0  0  0  0  0  0  0
  194.2810  174.9160  146.2350 N   0  0  0  0  0  2  0  0  0  0  0  0
  195.3220  174.2810  145.4840 C   0  0  0  0  0  0  0  0  0  0  0  0
  197.5340  174.0010  141.4870 C   0  0  1  0  0  0  0  0  0  0  0  0
  195.1290  174.4880  138.9610 C   0  0  0  0  0  1  0  0  0  0  0  0
  197.9380  175.3510  140.9460 C   0  0  0  0  0  2  0  0  0  0  0  0
  197.8910  172.7740  140.6740 C   0  0  0  0  0  2  0  0  0  0  0  0
  197.0230  175.5900  139.7660 C   0  0  0  0  0  2  0  0  0  0  0  0
  196.5190  174.2930  139.3320 N   0  0  0  0  0  0  0  0  0  0  0  0
  196.5250  173.4330  140.5100 C   0  0  2  0  0  3  0  0  0  0  0  0
  195.2070  168.5060  141.7060 Cl  0  0  0  0  0  0  0  0  0  0  0  0
  195.4850  168.7830  143.4400 C   0  0  2  0  0  3  0  0  0  0  0  0
  194.5000  170.4300  144.8060 C   0  0  0  0  0  2  0  0  0  0  0  0
  194.2360  169.1880  144.0810 N   0  0  0  0  0  0  0  0  0  0  0  0
  195.9890  170.6950  144.7780 C   0  0  1  0  0  3  0  0  0  0  0  0
  196.5070  169.8820  143.6180 C   0  0  0  0  0  2  0  0  0  0  0  0
  192.4360  168.1800  145.3670 C   0  0  0  0  0  1  0  0  0  0  0  0
  193.9220  168.1680  145.0700 C   0  0  0  0  0  2  0  0  0  0  0  0
  1  9  1  1  0  0  0
  1  6  1  0  0  0  0
  2  6  1  0  0  0  0
  2  7  1  0  0  0  0
  3  4  1  1  0  0  0
  3  2  1  0  0  0  0
  5  3  1  0  0  0  0
  5  1  1  0  0  0  0
  6 35  1  6  0  0  0
  8  9  2  0  0  0  0
  9 14  1  0  0  0  0
 11 14  2  0  0  0  0
 11 13  1  0  0  0  0
 13 16  2  0  0  0  0
 14 15  1  0  0  0  0
 15 10  2  0  0  0  0
 16 10  1  0  0  0  0
 16 12  1  0  0  0  0
 17 19  1  0  0  0  0
 17  8  1  0  0  0  0
 18 17  2  0  0  0  0
 20 23  1  6  0  0  0
 20 19  1  0  0  0  0
 20 21  1  0  0  0  0
 21 22  2  0  0  0  0
 24 23  1  0  0  0  0
 25 29  1  6  0  0  0
 25 24  1  0  0  0  0
 26 25  1  0  0  0  0
 27 26  2  0  0  0  0
 28 26  1  0  0  0  0
 31 30  1  1  0  0  0
 31 29  1  0  0  0  0
 31 34  1  0  0  0  0
 34 33  1  6  0  0  0
 34 32  1  0  0  0  0
 35 36  1  0  0  0  0
 36 37  1  0  0  0  0
 37 38  1  1  0  0  0
 39 37  1  0  0  0  0
 40 43  1  6  0  0  0
 40 41  1  0  0  0  0
 41 46  1  0  0  0  0
 42 49  2  0  0  0  0
 44 39  1  0  0  0  0
 45 43  1  6  0  0  0
 45 61  1  0  0  0  0
 45 42  1  0  0  0  0
 46 49  1  0  0  0  0
 47 44  2  0  0  0  0
 48 44  1  0  0  0  0
 49 48  1  0  0  0  0
 50 53  1  6  0  0  0
 50 40  1  0  0  0  0
 51 55  1  0  0  0  0
 52 50  1  0  0  0  0
 54 52  1  0  0  0  0
 55 54  1  0  0  0  0
 55 56  1  0  0  0  0
 56 53  1  6  0  0  0
 56 50  1  0  0  0  0
 58 57  1  6  0  0  0
 58 62  1  0  0  0  0
 58 60  1  0  0  0  0
 60 59  1  0  0  0  0
 60 64  1  0  0  0  0
 61 62  1  6  0  0  0
 61 59  1  0  0  0  0
 64 63  1  0  0  0  0
M  END
>  <MODEL>
9

>  <REMARK>
 VINA RESULT:      -4.2      2.992      8.796
  Name = 
  21 active torsions:
  status: ('A' for Active; 'I' for Inactive)
    1  A    between atoms: C_1  and  C_6
    2  A    between atoms: C_2  and  C_29
    3  A    between atoms: C_2  and  C_38
    4  A    between atoms: C_13  and  C_60
    5  A    between atoms: C_14  and  N_17
    6  A    between atoms: C_14  and  N_39
    7  A    between atoms: C_18  and  CA_54
    8  A    between atoms: C_19  and  C_27
    9  A    between atoms: C_19  and  C_31
   10  A    between atoms: C_19  and  N_39
   11  A    between atoms: N_24  and  C_27
   12  A    between atoms: N_24  and  CA_54
   13  A    between atoms: C_26  and  C_38
   14  A    between atoms: C_26  and  O_40
   15  A    between atoms: C_30  and  C_60
   16  A    between atoms: C_33  and  C_48
   17  A    between atoms: O_40  and  C_61
   18  A    between atoms: N_45  and  C_46
   19  A    between atoms: C_49  and  C_58
   20  A    between atoms: C_50  and  CA_54
   21  A    between atoms: C_50  and  C_58
                            x       y       z     vdW  Elec       q    Type
                         _______ _______ _______ _____ _____    ______ ____

>  <TORSDO>
F 21

$$$$
