=
 OpenBabel11042416463D

 37 43  0  0  1  0  0  0  0  0999 V2000
  193.1170  175.7060  145.7630 N   0  0  2  0  0  0  0  0  0  0  0  0
  192.9750  174.7270  144.6860 C   0  0  1  0  0  3  0  0  0  0  0  0
  188.6420  177.4640  144.5850 N   0  0  0  0  0  0  0  0  0  0  0  0
  191.8610  175.7550  146.5160 C   0  0  2  0  0  3  0  0  0  0  0  0
  190.9360  176.4810  143.3760 C   0  0  0  0  0  0  0  0  0  0  0  0
  190.9400  176.8070  144.7470 C   0  0  0  0  0  0  0  0  0  0  0  0
  192.0570  175.8820  142.7100 N   0  0  0  0  0  2  0  0  0  0  0  0
  189.7470  177.2840  145.3560 C   0  0  0  0  0  0  0  0  0  0  0  0
  192.1760  176.8350  145.5810 C   0  0  2  0  0  3  0  0  0  0  0  0
  188.6250  177.1920  143.2530 C   0  0  0  0  0  0  0  0  0  0  0  0
  189.7720  176.6820  142.6370 C   0  0  0  0  0  3  0  0  0  0  0  0
  191.7940  176.5580  147.7860 C   0  0  0  0  0  2  0  0  0  0  0  0
  193.2890  175.3980  143.3290 C   0  0  2  0  0  3  0  0  0  0  0  0
  189.6160  177.5730  146.8240 C   0  0  0  0  0  3  0  0  0  0  0  0
  190.4510  177.2680  147.8500 C   0  0  0  0  0  3  0  0  0  0  0  0
  185.6450  176.7980  144.0230 O   0  0  0  0  0  0  0  0  0  0  0  0
  185.1750  177.5400  141.8250 N   0  0  0  0  0  0  0  0  0  0  0  0
  186.0340  177.2050  142.8980 C   0  0  0  0  0  0  0  0  0  0  0  0
  187.3770  177.8330  141.2510 N   0  0  0  0  0  0  0  0  0  0  0  0
  187.3970  177.4100  142.4710 C   0  0  0  0  0  0  0  0  0  0  0  0
  185.9900  177.9030  140.8810 C   0  0  0  0  0  3  0  0  0  0  0  0
  193.8140  173.5190  144.9990 C   0  0  0  0  0  0  0  0  0  0  0  0
  195.1220  173.6960  145.4590 C   0  0  0  0  0  3  0  0  0  0  0  0
  194.0930  171.1150  145.1610 C   0  0  0  0  0  3  0  0  0  0  0  0
  193.3000  172.2240  144.8520 C   0  0  0  0  0  3  0  0  0  0  0  0
  195.9130  172.5880  145.7670 C   0  0  0  0  0  3  0  0  0  0  0  0
  195.4080  171.2840  145.6220 C   0  0  0  0  0  0  0  0  0  0  0  0
  195.7680  169.1240  146.8760 C   0  0  0  0  0  1  0  0  0  0  0  0
  197.5390  169.9640  145.3420 C   0  0  0  0  0  1  0  0  0  0  0  0
  196.2250  170.1430  145.9420 N   0  0  0  0  0  0  0  0  0  0  0  0
  194.0090  174.4890  142.3320 C   0  0  0  0  0  2  0  0  0  0  0  0
  197.9410  175.5660  143.1140 C   0  0  0  0  0  2  0  0  0  0  0  0
  195.3390  175.0870  141.9070 C   0  0  1  0  0  3  0  0  0  0  0  0
  195.6290  176.3460  142.6890 C   0  0  0  0  0  3  0  0  0  0  0  0
  196.8400  176.5910  143.2070 C   0  0  0  0  0  3  0  0  0  0  0  0
  197.7530  174.6970  141.9520 N   0  0  0  0  0  2  0  0  0  0  0  0
  196.4500  174.0500  142.0830 C   0  0  0  0  0  2  0  0  0  0  0  0
  1  4  1  0  0  0  0
  2 22  1  0  0  0  0
  2  1  1  0  0  0  0
  3  8  1  0  0  0  0
  4 12  1  0  0  0  0
  5  6  1  0  0  0  0
  6  8  2  0  0  0  0
  6  9  1  0  0  0  0
  7 13  1  0  0  0  0
  7  5  1  0  0  0  0
  8 14  1  0  0  0  0
  9  1  1  0  0  0  0
  9  4  1  0  0  0  0
 10  3  2  0  0  0  0
 11 10  1  0  0  0  0
 11  5  2  0  0  0  0
 12 15  1  0  0  0  0
 13  2  1  0  0  0  0
 14 15  2  0  0  0  0
 17 18  1  0  0  0  0
 18 16  2  0  0  0  0
 19 20  2  0  0  0  0
 20 18  1  0  0  0  0
 20 10  1  0  0  0  0
 21 19  1  0  0  0  0
 21 17  2  0  0  0  0
 22 23  1  0  0  0  0
 23 26  2  0  0  0  0
 24 27  2  0  0  0  0
 25 22  2  0  0  0  0
 25 24  1  0  0  0  0
 27 26  1  0  0  0  0
 27 30  1  0  0  0  0
 29 30  1  0  0  0  0
 30 28  1  0  0  0  0
 31 13  1  0  0  0  0
 32 35  1  0  0  0  0
 33 37  1  0  0  0  0
 33 31  1  0  0  0  0
 33 34  1  0  0  0  0
 34 35  2  0  0  0  0
 36 37  1  0  0  0  0
 36 32  1  0  0  0  0
M  END
>  <MODEL>
1

>  <REMARK>
 VINA RESULT:      -7.9      0.000      0.000
  Name = 
  5 active torsions:
  status: ('A' for Active; 'I' for Inactive)
    1  A    between atoms: C_4  and  C_13
    2  A    between atoms: C_14  and  C_24
    3  A    between atoms: C_16  and  C_22
    4  A    between atoms: C_16  and  C_29
    5  A    between atoms: N_26  and  C_37
                            x       y       z     vdW  Elec       q    Type
                         _______ _______ _______ _____ _____    ______ ____

>  <TORSDO>
F 5

$$$$
=
 OpenBabel11042416463D

 37 43  0  0  1  0  0  0  0  0999 V2000
  191.3130  174.7770  145.6530 N   0  0  2  0  0  0  0  0  0  0  0  0
  191.4690  174.1670  144.3330 C   0  0  1  0  0  3  0  0  0  0  0  0
  187.0950  176.8290  144.0710 N   0  0  0  0  0  0  0  0  0  0  0  0
  189.9240  174.6040  146.0850 C   0  0  2  0  0  3  0  0  0  0  0  0
  189.6530  176.2430  143.1740 C   0  0  0  0  0  0  0  0  0  0  0  0
  189.3410  176.1420  144.5440 C   0  0  0  0  0  0  0  0  0  0  0  0
  190.9270  175.8660  142.6300 N   0  0  0  0  0  2  0  0  0  0  0  0
  188.0180  176.4200  144.9830 C   0  0  0  0  0  0  0  0  0  0  0  0
  190.3640  175.9130  145.6040 C   0  0  2  0  0  3  0  0  0  0  0  0
  187.3830  176.9690  142.7500 C   0  0  0  0  0  0  0  0  0  0  0  0
  188.6650  176.6620  142.2840 C   0  0  0  0  0  3  0  0  0  0  0  0
  189.5350  174.9880  147.4860 C   0  0  0  0  0  2  0  0  0  0  0  0
  192.0240  175.2130  143.3390 C   0  0  2  0  0  3  0  0  0  0  0  0
  187.5550  176.2550  146.4020 C   0  0  0  0  0  3  0  0  0  0  0  0
  188.1680  175.6530  147.4530 C   0  0  0  0  0  3  0  0  0  0  0  0
  184.4800  177.9380  143.2700 O   0  0  0  0  0  0  0  0  0  0  0  0
  184.3470  178.1960  140.9210 N   0  0  0  0  0  0  0  0  0  0  0  0
  185.0030  177.8580  142.1280 C   0  0  0  0  0  0  0  0  0  0  0  0
  186.4920  177.4800  140.5310 N   0  0  0  0  0  0  0  0  0  0  0  0
  186.3400  177.4180  141.8120 C   0  0  0  0  0  0  0  0  0  0  0  0
  185.2430  177.9650  140.0090 C   0  0  0  0  0  3  0  0  0  0  0  0
  192.2950  172.9170  144.4570 C   0  0  0  0  0  0  0  0  0  0  0  0
  193.4030  172.9130  145.3080 C   0  0  0  0  0  3  0  0  0  0  0  0
  192.7350  170.6010  143.8870 C   0  0  0  0  0  3  0  0  0  0  0  0
  191.9610  171.7560  143.7470 C   0  0  0  0  0  3  0  0  0  0  0  0
  194.1760  171.7580  145.4470 C   0  0  0  0  0  3  0  0  0  0  0  0
  193.8510  170.5890  144.7390 C   0  0  0  0  0  0  0  0  0  0  0  0
  194.5480  168.5620  146.0720 C   0  0  0  0  0  1  0  0  0  0  0  0
  195.5860  168.9880  143.8500 C   0  0  0  0  0  1  0  0  0  0  0  0
  194.6490  169.3990  144.8840 N   0  0  0  0  0  0  0  0  0  0  0  0
  192.9970  174.6420  142.3070 C   0  0  0  0  0  2  0  0  0  0  0  0
  196.5920  174.9530  144.3620 C   0  0  0  0  0  2  0  0  0  0  0  0
  194.3880  175.2270  142.4840 C   0  0  1  0  0  3  0  0  0  0  0  0
  194.4610  176.0540  143.7450 C   0  0  0  0  0  3  0  0  0  0  0  0
  195.4970  175.9640  144.5890 C   0  0  0  0  0  3  0  0  0  0  0  0
  196.7130  174.6210  142.9420 N   0  0  0  0  0  2  0  0  0  0  0  0
  195.4240  174.1010  142.4920 C   0  0  0  0  0  2  0  0  0  0  0  0
  1  4  1  0  0  0  0
  2 22  1  0  0  0  0
  2  1  1  0  0  0  0
  3  8  1  0  0  0  0
  4 12  1  0  0  0  0
  5  6  1  0  0  0  0
  6  8  2  0  0  0  0
  6  9  1  0  0  0  0
  7  5  1  0  0  0  0
  7 13  1  0  0  0  0
  8 14  1  0  0  0  0
  9  1  1  0  0  0  0
  9  4  1  0  0  0  0
 10  3  2  0  0  0  0
 11 10  1  0  0  0  0
 11  5  2  0  0  0  0
 13  2  1  0  0  0  0
 14 15  2  0  0  0  0
 15 12  1  0  0  0  0
 17 18  1  0  0  0  0
 18 16  2  0  0  0  0
 19 20  2  0  0  0  0
 20 18  1  0  0  0  0
 20 10  1  0  0  0  0
 21 19  1  0  0  0  0
 21 17  2  0  0  0  0
 22 23  1  0  0  0  0
 23 26  2  0  0  0  0
 24 27  2  0  0  0  0
 25 24  1  0  0  0  0
 25 22  2  0  0  0  0
 27 30  1  0  0  0  0
 27 26  1  0  0  0  0
 29 30  1  0  0  0  0
 30 28  1  0  0  0  0
 31 33  1  0  0  0  0
 31 13  1  0  0  0  0
 32 35  1  0  0  0  0
 33 37  1  0  0  0  0
 33 34  1  0  0  0  0
 34 35  2  0  0  0  0
 36 32  1  0  0  0  0
 37 36  1  0  0  0  0
M  END
>  <MODEL>
2

>  <REMARK>
 VINA RESULT:      -7.7      1.611      1.786
  Name = 
  5 active torsions:
  status: ('A' for Active; 'I' for Inactive)
    1  A    between atoms: C_4  and  C_13
    2  A    between atoms: C_14  and  C_24
    3  A    between atoms: C_16  and  C_22
    4  A    between atoms: C_16  and  C_29
    5  A    between atoms: N_26  and  C_37
                            x       y       z     vdW  Elec       q    Type
                         _______ _______ _______ _____ _____    ______ ____

>  <TORSDO>
F 5

$$$$
=
 OpenBabel11042416463D

 37 43  0  0  1  0  0  0  0  0999 V2000
  190.7060  175.5650  145.6200 N   0  0  2  0  0  0  0  0  0  0  0  0
  190.1340  175.7400  144.2860 C   0  0  1  0  0  3  0  0  0  0  0  0
  195.2100  175.6950  143.5700 N   0  0  0  0  0  0  0  0  0  0  0  0
  191.8200  176.5040  145.7750 C   0  0  2  0  0  3  0  0  0  0  0  0
  192.6670  174.7040  143.0770 C   0  0  0  0  0  0  0  0  0  0  0  0
  192.9960  175.2150  144.3490 C   0  0  0  0  0  0  0  0  0  0  0  0
  191.3470  174.2630  142.7280 N   0  0  0  0  0  2  0  0  0  0  0  0
  194.2960  175.7430  144.5760 C   0  0  0  0  0  0  0  0  0  0  0  0
  192.1060  175.0890  145.5390 C   0  0  2  0  0  3  0  0  0  0  0  0
  194.9260  175.1740  142.3460 C   0  0  0  0  0  0  0  0  0  0  0  0
  193.6440  174.6850  142.0830 C   0  0  0  0  0  3  0  0  0  0  0  0
  192.4750  176.6540  147.1200 C   0  0  0  0  0  2  0  0  0  0  0  0
  190.1370  174.3870  143.5370 C   0  0  2  0  0  3  0  0  0  0  0  0
  194.7210  176.3930  145.8610 C   0  0  0  0  0  3  0  0  0  0  0  0
  193.9770  176.7890  146.9250 C   0  0  0  0  0  3  0  0  0  0  0  0
  197.8200  174.0520  142.3920 O   0  0  0  0  0  0  0  0  0  0  0  0
  197.9410  174.7960  140.1490 N   0  0  0  0  0  0  0  0  0  0  0  0
  197.2940  174.6050  141.3920 C   0  0  0  0  0  0  0  0  0  0  0  0
  195.8040  175.6280  140.1100 N   0  0  0  0  0  0  0  0  0  0  0  0
  195.9600  175.1490  141.2990 C   0  0  0  0  0  0  0  0  0  0  0  0
  197.0450  175.3940  139.4230 C   0  0  0  0  0  3  0  0  0  0  0  0
  188.7820  176.3880  144.4050 C   0  0  0  0  0  0  0  0  0  0  0  0
  187.9910  176.1170  145.5250 C   0  0  0  0  0  3  0  0  0  0  0  0
  187.0600  177.8720  143.5590 C   0  0  0  0  0  3  0  0  0  0  0  0
  188.3130  177.2700  143.4210 C   0  0  0  0  0  3  0  0  0  0  0  0
  186.7390  176.7190  145.6610 C   0  0  0  0  0  3  0  0  0  0  0  0
  186.2580  177.6040  144.6800 C   0  0  0  0  0  0  0  0  0  0  0  0
  184.3830  178.4600  146.1350 C   0  0  0  0  0  1  0  0  0  0  0  0
  184.1970  178.6390  143.6600 C   0  0  0  0  0  1  0  0  0  0  0  0
  184.9670  178.2240  144.8230 N   0  0  0  0  0  0  0  0  0  0  0  0
  188.9230  174.1670  142.6340 C   0  0  0  0  0  2  0  0  0  0  0  0
  188.2210  172.9810  138.7170 C   0  0  0  0  0  2  0  0  0  0  0  0
  189.3390  174.0580  141.1760 C   0  0  1  0  0  3  0  0  0  0  0  0
  189.5330  172.6120  140.7850 C   0  0  0  0  0  3  0  0  0  0  0  0
  189.0590  172.1240  139.6310 C   0  0  0  0  0  3  0  0  0  0  0  0
  188.5360  174.3990  138.8910 N   0  0  0  0  0  2  0  0  0  0  0  0
  188.2960  174.7420  140.2910 C   0  0  0  0  0  2  0  0  0  0  0  0
  1  4  1  0  0  0  0
  2 22  1  0  0  0  0
  2  1  1  0  0  0  0
  3  8  1  0  0  0  0
  4 12  1  0  0  0  0
  5  6  1  0  0  0  0
  6  8  2  0  0  0  0
  6  9  1  0  0  0  0
  7  5  1  0  0  0  0
  7 13  1  0  0  0  0
  8 14  1  0  0  0  0
  9  1  1  0  0  0  0
  9  4  1  0  0  0  0
 10  3  2  0  0  0  0
 11 10  1  0  0  0  0
 11  5  2  0  0  0  0
 13  2  1  0  0  0  0
 14 15  2  0  0  0  0
 15 12  1  0  0  0  0
 17 18  1  0  0  0  0
 18 16  2  0  0  0  0
 19 20  2  0  0  0  0
 20 18  1  0  0  0  0
 20 10  1  0  0  0  0
 21 19  1  0  0  0  0
 21 17  2  0  0  0  0
 22 23  1  0  0  0  0
 23 26  2  0  0  0  0
 24 27  2  0  0  0  0
 25 24  1  0  0  0  0
 25 22  2  0  0  0  0
 27 30  1  0  0  0  0
 27 26  1  0  0  0  0
 29 30  1  0  0  0  0
 30 28  1  0  0  0  0
 31 13  1  0  0  0  0
 32 36  1  0  0  0  0
 32 35  1  0  0  0  0
 33 31  1  0  0  0  0
 34 33  1  0  0  0  0
 35 34  2  0  0  0  0
 36 37  1  0  0  0  0
 37 33  1  0  0  0  0
M  END
>  <MODEL>
3

>  <REMARK>
 VINA RESULT:      -7.6      3.520      8.398
  Name = 
  5 active torsions:
  status: ('A' for Active; 'I' for Inactive)
    1  A    between atoms: C_4  and  C_13
    2  A    between atoms: C_14  and  C_24
    3  A    between atoms: C_16  and  C_22
    4  A    between atoms: C_16  and  C_29
    5  A    between atoms: N_26  and  C_37
                            x       y       z     vdW  Elec       q    Type
                         _______ _______ _______ _____ _____    ______ ____

>  <TORSDO>
F 5

$$$$
=
 OpenBabel11042416463D

 37 43  0  0  1  0  0  0  0  0999 V2000
  191.4920  173.5970  142.7320 N   0  0  2  0  0  0  0  0  0  0  0  0
  192.1970  174.8670  142.8990 C   0  0  1  0  0  3  0  0  0  0  0  0
  187.2220  176.0410  143.2790 N   0  0  0  0  0  0  0  0  0  0  0  0
  190.3660  173.8070  141.8180 C   0  0  2  0  0  3  0  0  0  0  0  0
  189.8040  176.0000  144.2900 C   0  0  0  0  0  0  0  0  0  0  0  0
  189.3450  174.9480  143.4720 C   0  0  0  0  0  0  0  0  0  0  0  0
  191.1540  176.0880  144.7700 N   0  0  0  0  0  2  0  0  0  0  0  0
  188.0270  174.9990  142.9400 C   0  0  0  0  0  0  0  0  0  0  0  0
  190.1080  173.6860  143.2530 C   0  0  2  0  0  3  0  0  0  0  0  0
  187.6300  177.0480  144.0960 C   0  0  0  0  0  0  0  0  0  0  0  0
  188.9340  177.0450  144.6000 C   0  0  0  0  0  3  0  0  0  0  0  0
  189.5750  172.6210  141.3380 C   0  0  0  0  0  2  0  0  0  0  0  0
  192.2740  175.2250  144.4020 C   0  0  2  0  0  3  0  0  0  0  0  0
  187.4710  173.9810  141.9860 C   0  0  0  0  0  3  0  0  0  0  0  0
  188.1020  172.9930  141.3030 C   0  0  0  0  0  3  0  0  0  0  0  0
  186.1200  179.0410  142.2570 O   0  0  0  0  0  0  0  0  0  0  0  0
  185.2510  179.9420  144.2660 N   0  0  0  0  0  0  0  0  0  0  0  0
  186.0380  179.0390  143.5130 C   0  0  0  0  0  0  0  0  0  0  0  0
  186.3650  178.4710  145.6300 N   0  0  0  0  0  0  0  0  0  0  0  0
  186.7090  178.1470  144.4280 C   0  0  0  0  0  0  0  0  0  0  0  0
  185.4640  179.5830  145.4960 C   0  0  0  0  0  3  0  0  0  0  0  0
  193.5280  174.7920  142.2040 C   0  0  0  0  0  0  0  0  0  0  0  0
  194.1670  173.5550  142.0840 C   0  0  0  0  0  3  0  0  0  0  0  0
  195.3570  175.8420  141.0060 C   0  0  0  0  0  3  0  0  0  0  0  0
  194.1260  175.9370  141.6600 C   0  0  0  0  0  3  0  0  0  0  0  0
  195.3980  173.4610  141.4290 C   0  0  0  0  0  3  0  0  0  0  0  0
  196.0070  174.6040  140.8830 C   0  0  0  0  0  0  0  0  0  0  0  0
  197.9410  173.2220  140.0350 C   0  0  0  0  0  1  0  0  0  0  0  0
  197.9390  175.6840  139.6730 C   0  0  0  0  0  1  0  0  0  0  0  0
  197.2750  174.5050  140.2080 N   0  0  0  0  0  0  0  0  0  0  0  0
  193.5740  175.9140  144.8170 C   0  0  0  0  0  2  0  0  0  0  0  0
  196.0240  172.5980  145.3090 C   0  0  0  0  0  2  0  0  0  0  0  0
  194.4260  174.9990  145.6800 C   0  0  1  0  0  3  0  0  0  0  0  0
  193.8140  173.6210  145.7600 C   0  0  0  0  0  3  0  0  0  0  0  0
  194.5550  172.5120  145.6350 C   0  0  0  0  0  3  0  0  0  0  0  0
  196.5910  173.8650  145.7700 N   0  0  0  0  0  2  0  0  0  0  0  0
  195.8510  174.9480  145.1260 C   0  0  0  0  0  2  0  0  0  0  0  0
  1  2  1  0  0  0  0
  1  9  1  0  0  0  0
  2 13  1  0  0  0  0
  3 10  1  0  0  0  0
  4  1  1  0  0  0  0
  4  9  1  0  0  0  0
  5 11  1  0  0  0  0
  5  7  1  0  0  0  0
  6  5  2  0  0  0  0
  8  3  2  0  0  0  0
  8  6  1  0  0  0  0
  9  6  1  0  0  0  0
 10 20  1  0  0  0  0
 10 11  2  0  0  0  0
 12  4  1  0  0  0  0
 13  7  1  0  0  0  0
 13 31  1  0  0  0  0
 14  8  1  0  0  0  0
 15 12  1  0  0  0  0
 15 14  2  0  0  0  0
 16 18  2  0  0  0  0
 17 21  2  0  0  0  0
 18 17  1  0  0  0  0
 18 20  1  0  0  0  0
 20 19  2  0  0  0  0
 21 19  1  0  0  0  0
 22  2  1  0  0  0  0
 23 22  1  0  0  0  0
 24 25  1  0  0  0  0
 25 22  2  0  0  0  0
 26 23  2  0  0  0  0
 27 24  2  0  0  0  0
 27 26  1  0  0  0  0
 28 30  1  0  0  0  0
 29 30  1  0  0  0  0
 30 27  1  0  0  0  0
 31 33  1  0  0  0  0
 32 35  1  0  0  0  0
 32 36  1  0  0  0  0
 33 34  1  0  0  0  0
 35 34  2  0  0  0  0
 37 33  1  0  0  0  0
 37 36  1  0  0  0  0
M  END
>  <MODEL>
4

>  <REMARK>
 VINA RESULT:      -7.6      2.321      4.644
  Name = 
  5 active torsions:
  status: ('A' for Active; 'I' for Inactive)
    1  A    between atoms: C_4  and  C_13
    2  A    between atoms: C_14  and  C_24
    3  A    between atoms: C_16  and  C_22
    4  A    between atoms: C_16  and  C_29
    5  A    between atoms: N_26  and  C_37
                            x       y       z     vdW  Elec       q    Type
                         _______ _______ _______ _____ _____    ______ ____

>  <TORSDO>
F 5

$$$$
=
 OpenBabel11042416463D

 37 43  0  0  1  0  0  0  0  0999 V2000
  189.1360  173.5800  142.4540 N   0  0  2  0  0  0  0  0  0  0  0  0
  189.1310  175.0350  142.5990 C   0  0  1  0  0  3  0  0  0  0  0  0
  188.2590  174.1840  137.6200 N   0  0  0  0  0  0  0  0  0  0  0  0
  189.9260  173.2330  141.2700 C   0  0  2  0  0  3  0  0  0  0  0  0
  187.5490  175.2700  140.0710 C   0  0  0  0  0  0  0  0  0  0  0  0
  188.2410  174.0440  140.0110 C   0  0  0  0  0  0  0  0  0  0  0  0
  187.2340  175.9330  141.3040 N   0  0  0  0  0  2  0  0  0  0  0  0
  188.6210  173.5150  138.7470 C   0  0  0  0  0  0  0  0  0  0  0  0
  188.4660  173.1700  141.1990 C   0  0  2  0  0  3  0  0  0  0  0  0
  187.5590  175.3490  137.6510 C   0  0  0  0  0  0  0  0  0  0  0  0
  187.2090  175.9130  138.8820 C   0  0  0  0  0  3  0  0  0  0  0  0
  190.2370  171.7890  140.9890 C   0  0  0  0  0  2  0  0  0  0  0  0
  187.6730  175.5490  142.6440 C   0  0  2  0  0  3  0  0  0  0  0  0
  189.4380  172.2670  138.5750 C   0  0  0  0  0  3  0  0  0  0  0  0
  190.1260  171.5430  139.4930 C   0  0  0  0  0  3  0  0  0  0  0  0
  184.7930  175.7450  136.3010 O   0  0  0  0  0  0  0  0  0  0  0  0
  185.9930  176.8880  134.6110 N   0  0  0  0  0  0  0  0  0  0  0  0
  185.8770  176.1710  135.8250 C   0  0  0  0  0  0  0  0  0  0  0  0
  188.0400  176.5980  135.6050 N   0  0  0  0  0  0  0  0  0  0  0  0
  187.1950  176.0240  136.3950 C   0  0  0  0  0  0  0  0  0  0  0  0
  187.2670  177.1220  134.5130 C   0  0  0  0  0  3  0  0  0  0  0  0
  189.9680  175.4200  143.7870 C   0  0  0  0  0  0  0  0  0  0  0  0
  190.8690  176.4820  143.6730 C   0  0  0  0  0  3  0  0  0  0  0  0
  190.6250  175.1250  146.1040 C   0  0  0  0  0  3  0  0  0  0  0  0
  189.8460  174.7420  145.0080 C   0  0  0  0  0  3  0  0  0  0  0  0
  191.6470  176.8640  144.7690 C   0  0  0  0  0  3  0  0  0  0  0  0
  191.5340  176.1900  145.9970 C   0  0  0  0  0  0  0  0  0  0  0  0
  193.7850  176.6800  147.0260 C   0  0  0  0  0  1  0  0  0  0  0  0
  191.7270  176.9050  148.4080 C   0  0  0  0  0  1  0  0  0  0  0  0
  192.3350  176.5850  147.1250 N   0  0  0  0  0  0  0  0  0  0  0  0
  187.4540  176.7340  143.5850 C   0  0  0  0  0  2  0  0  0  0  0  0
  184.3200  178.7950  145.3640 C   0  0  0  0  0  2  0  0  0  0  0  0
  185.9880  176.8720  143.9580 C   0  0  1  0  0  3  0  0  0  0  0  0
  185.8130  176.8210  145.4570 C   0  0  0  0  0  3  0  0  0  0  0  0
  185.0090  177.6760  146.1030 C   0  0  0  0  0  3  0  0  0  0  0  0
  184.1180  178.4500  143.9570 N   0  0  0  0  0  2  0  0  0  0  0  0
  185.4280  178.1710  143.3730 C   0  0  0  0  0  2  0  0  0  0  0  0
  1  2  1  0  0  0  0
  2 13  1  0  0  0  0
  2 22  1  0  0  0  0
  3 10  2  0  0  0  0
  3  8  1  0  0  0  0
  4  1  1  0  0  0  0
  5  7  1  0  0  0  0
  6  5  1  0  0  0  0
  6  9  1  0  0  0  0
  7 13  1  0  0  0  0
  8  6  2  0  0  0  0
  9  4  1  0  0  0  0
  9  1  1  0  0  0  0
 10 11  1  0  0  0  0
 11  5  2  0  0  0  0
 12  4  1  0  0  0  0
 13 31  1  0  0  0  0
 14  8  1  0  0  0  0
 14 15  2  0  0  0  0
 15 12  1  0  0  0  0
 17 18  1  0  0  0  0
 18 16  2  0  0  0  0
 18 20  1  0  0  0  0
 19 20  2  0  0  0  0
 20 10  1  0  0  0  0
 21 17  2  0  0  0  0
 21 19  1  0  0  0  0
 22 25  1  0  0  0  0
 23 22  2  0  0  0  0
 23 26  1  0  0  0  0
 25 24  2  0  0  0  0
 26 27  2  0  0  0  0
 27 24  1  0  0  0  0
 27 30  1  0  0  0  0
 28 30  1  0  0  0  0
 30 29  1  0  0  0  0
 31 33  1  0  0  0  0
 32 35  1  0  0  0  0
 33 34  1  0  0  0  0
 34 35  2  0  0  0  0
 36 32  1  0  0  0  0
 37 36  1  0  0  0  0
 37 33  1  0  0  0  0
M  END
>  <MODEL>
5

>  <REMARK>
 VINA RESULT:      -7.2      4.263      7.896
  Name = 
  5 active torsions:
  status: ('A' for Active; 'I' for Inactive)
    1  A    between atoms: C_4  and  C_13
    2  A    between atoms: C_14  and  C_24
    3  A    between atoms: C_16  and  C_22
    4  A    between atoms: C_16  and  C_29
    5  A    between atoms: N_26  and  C_37
                            x       y       z     vdW  Elec       q    Type
                         _______ _______ _______ _____ _____    ______ ____

>  <TORSDO>
F 5

$$$$
=
 OpenBabel11042416463D

 37 43  0  0  1  0  0  0  0  0999 V2000
  191.0370  174.9380  141.8110 N   0  0  2  0  0  0  0  0  0  0  0  0
  190.0670  173.8570  141.9760 C   0  0  1  0  0  3  0  0  0  0  0  0
  188.1750  177.7750  144.6860 N   0  0  0  0  0  0  0  0  0  0  0  0
  191.2760  175.5530  143.1190 C   0  0  2  0  0  3  0  0  0  0  0  0
  187.9670  175.8650  142.6870 C   0  0  0  0  0  0  0  0  0  0  0  0
  189.2130  176.4520  142.9810 C   0  0  0  0  0  0  0  0  0  0  0  0
  187.8040  174.8060  141.7320 N   0  0  0  0  0  2  0  0  0  0  0  0
  189.3070  177.4100  144.0270 C   0  0  0  0  0  0  0  0  0  0  0  0
  190.4330  176.2480  142.1470 C   0  0  2  0  0  3  0  0  0  0  0  0
  186.9550  177.2500  144.3950 C   0  0  0  0  0  0  0  0  0  0  0  0
  186.8410  176.2760  143.3990 C   0  0  0  0  0  3  0  0  0  0  0  0
  192.3640  176.5810  143.2630 C   0  0  0  0  0  2  0  0  0  0  0  0
  188.8650  174.0870  141.0300 C   0  0  2  0  0  3  0  0  0  0  0  0
  190.5980  178.0270  144.4820 C   0  0  0  0  0  3  0  0  0  0  0  0
  191.8780  177.6880  144.1840 C   0  0  0  0  0  3  0  0  0  0  0  0
  185.1650  179.7610  144.0480 O   0  0  0  0  0  0  0  0  0  0  0  0
  183.9300  178.9000  145.8750 N   0  0  0  0  0  0  0  0  0  0  0  0
  184.9780  178.8770  144.9250 C   0  0  0  0  0  0  0  0  0  0  0  0
  185.2510  177.0420  146.1360 N   0  0  0  0  0  0  0  0  0  0  0  0
  185.7670  177.6890  145.1440 C   0  0  0  0  0  0  0  0  0  0  0  0
  184.1180  177.8150  146.5650 C   0  0  0  0  0  3  0  0  0  0  0  0
  190.7610  172.5350  141.7990 C   0  0  0  0  0  0  0  0  0  0  0  0
  191.8170  172.4340  140.8890 C   0  0  0  0  0  3  0  0  0  0  0  0
  191.0450  170.1950  142.3720 C   0  0  0  0  0  3  0  0  0  0  0  0
  190.3770  171.4100  142.5420 C   0  0  0  0  0  3  0  0  0  0  0  0
  192.4840  171.2190  140.7190 C   0  0  0  0  0  3  0  0  0  0  0  0
  192.1060  170.0850  141.4580 C   0  0  0  0  0  0  0  0  0  0  0  0
  193.4610  168.1750  142.3970 C   0  0  0  0  0  1  0  0  0  0  0  0
  192.8520  168.1790  139.9840 C   0  0  0  0  0  1  0  0  0  0  0  0
  192.7950  168.8340  141.2820 N   0  0  0  0  0  0  0  0  0  0  0  0
  188.2760  172.8040  140.4420 C   0  0  0  0  0  2  0  0  0  0  0  0
  190.8230  172.4110  137.1870 C   0  0  0  0  0  2  0  0  0  0  0  0
  188.5280  172.7220  138.9460 C   0  0  1  0  0  3  0  0  0  0  0  0
  189.3330  173.9110  138.4770 C   0  0  0  0  0  3  0  0  0  0  0  0
  190.3630  173.7760  137.6300 C   0  0  0  0  0  3  0  0  0  0  0  0
  189.7270  171.4430  137.2400 N   0  0  0  0  0  2  0  0  0  0  0  0
  189.2310  171.4040  138.6140 C   0  0  0  0  0  2  0  0  0  0  0  0
  1  2  1  0  0  0  0
  1  9  1  0  0  0  0
  1  4  1  0  0  0  0
  4 12  1  0  0  0  0
  5  6  2  0  0  0  0
  5 11  1  0  0  0  0
  6  8  1  0  0  0  0
  7  5  1  0  0  0  0
  8 14  1  0  0  0  0
  8  3  2  0  0  0  0
  9  6  1  0  0  0  0
  9  4  1  0  0  0  0
 10  3  1  0  0  0  0
 10 20  1  0  0  0  0
 11 10  2  0  0  0  0
 12 15  1  0  0  0  0
 13  7  1  0  0  0  0
 13  2  1  0  0  0  0
 15 14  2  0  0  0  0
 16 18  2  0  0  0  0
 17 21  2  0  0  0  0
 18 20  1  0  0  0  0
 18 17  1  0  0  0  0
 19 21  1  0  0  0  0
 20 19  2  0  0  0  0
 22  2  1  0  0  0  0
 22 25  1  0  0  0  0
 23 22  2  0  0  0  0
 24 25  2  0  0  0  0
 26 23  1  0  0  0  0
 26 27  2  0  0  0  0
 27 24  1  0  0  0  0
 29 30  1  0  0  0  0
 30 27  1  0  0  0  0
 30 28  1  0  0  0  0
 31 13  1  0  0  0  0
 32 36  1  0  0  0  0
 32 35  1  0  0  0  0
 33 31  1  0  0  0  0
 34 33  1  0  0  0  0
 35 34  2  0  0  0  0
 36 37  1  0  0  0  0
 37 33  1  0  0  0  0
M  END
>  <MODEL>
6

>  <REMARK>
 VINA RESULT:      -7.0      3.861      5.393
  Name = 
  5 active torsions:
  status: ('A' for Active; 'I' for Inactive)
    1  A    between atoms: C_4  and  C_13
    2  A    between atoms: C_14  and  C_24
    3  A    between atoms: C_16  and  C_22
    4  A    between atoms: C_16  and  C_29
    5  A    between atoms: N_26  and  C_37
                            x       y       z     vdW  Elec       q    Type
                         _______ _______ _______ _____ _____    ______ ____

>  <TORSDO>
F 5

$$$$
=
 OpenBabel11042416463D

 37 43  0  0  1  0  0  0  0  0999 V2000
  193.3040  175.7760  145.8940 N   0  0  2  0  0  0  0  0  0  0  0  0
  193.2500  174.8830  144.7370 C   0  0  1  0  0  3  0  0  0  0  0  0
  188.8730  177.5470  144.5760 N   0  0  0  0  0  0  0  0  0  0  0  0
  192.0020  175.7440  146.5670 C   0  0  2  0  0  3  0  0  0  0  0  0
  191.2590  176.7010  143.4420 C   0  0  0  0  0  0  0  0  0  0  0  0
  191.1700  176.9170  144.8310 C   0  0  0  0  0  0  0  0  0  0  0  0
  192.4310  176.1760  142.8030 N   0  0  0  0  0  2  0  0  0  0  0  0
  189.9320  177.3250  145.3990 C   0  0  0  0  0  0  0  0  0  0  0  0
  192.3520  176.9000  145.7420 C   0  0  2  0  0  3  0  0  0  0  0  0
  188.9450  177.3810  143.2280 C   0  0  0  0  0  0  0  0  0  0  0  0
  190.1380  176.9410  142.6480 C   0  0  0  0  0  3  0  0  0  0  0  0
  191.8390  176.4410  147.8890 C   0  0  0  0  0  2  0  0  0  0  0  0
  193.6330  175.6650  143.4590 C   0  0  2  0  0  3  0  0  0  0  0  0
  189.7040  177.4930  146.8740 C   0  0  0  0  0  3  0  0  0  0  0  0
  190.4800  177.1220  147.9230 C   0  0  0  0  0  3  0  0  0  0  0  0
  187.8050  175.8130  140.8040 O   0  0  0  0  0  0  0  0  0  0  0  0
  186.1220  177.4770  140.7610 N   0  0  0  0  0  0  0  0  0  0  0  0
  187.2900  176.8620  141.2710 C   0  0  0  0  0  0  0  0  0  0  0  0
  186.9610  178.6390  142.5520 N   0  0  0  0  0  0  0  0  0  0  0  0
  187.7630  177.6400  142.3900 C   0  0  0  0  0  0  0  0  0  0  0  0
  185.9580  178.5100  141.5310 C   0  0  0  0  0  3  0  0  0  0  0  0
  194.0940  173.6690  145.0060 C   0  0  0  0  0  0  0  0  0  0  0  0
  195.4020  173.8350  145.4710 C   0  0  0  0  0  3  0  0  0  0  0  0
  194.3820  171.2610  145.0860 C   0  0  0  0  0  3  0  0  0  0  0  0
  193.5850  172.3770  144.8160 C   0  0  0  0  0  3  0  0  0  0  0  0
  196.1980  172.7190  145.7400 C   0  0  0  0  0  3  0  0  0  0  0  0
  195.6980  171.4200  145.5510 C   0  0  0  0  0  0  0  0  0  0  0  0
  197.6300  169.9080  144.9610 C   0  0  0  0  0  1  0  0  0  0  0  0
  196.2710  169.4290  146.9900 C   0  0  0  0  0  1  0  0  0  0  0  0
  196.5190  170.2710  145.8290 N   0  0  0  0  0  0  0  0  0  0  0  0
  194.4320  174.8500  142.4410 C   0  0  0  0  0  2  0  0  0  0  0  0
  193.9610  173.2640  138.6340 C   0  0  0  0  0  2  0  0  0  0  0  0
  193.6930  174.7510  141.1180 C   0  0  1  0  0  3  0  0  0  0  0  0
  194.5580  175.2510  139.9860 C   0  0  0  0  0  3  0  0  0  0  0  0
  194.6480  174.5920  138.8230 C   0  0  0  0  0  3  0  0  0  0  0  0
  192.7920  173.1470  139.5050 N   0  0  0  0  0  2  0  0  0  0  0  0
  193.2450  173.3070  140.8850 C   0  0  0  0  0  2  0  0  0  0  0  0
  1  4  1  0  0  0  0
  2 22  1  0  0  0  0
  2  1  1  0  0  0  0
  3  8  1  0  0  0  0
  4 12  1  0  0  0  0
  5  6  1  0  0  0  0
  6  8  2  0  0  0  0
  6  9  1  0  0  0  0
  7  5  1  0  0  0  0
  7 13  1  0  0  0  0
  8 14  1  0  0  0  0
  9  1  1  0  0  0  0
  9  4  1  0  0  0  0
 10  3  2  0  0  0  0
 11 10  1  0  0  0  0
 11  5  2  0  0  0  0
 12 15  1  0  0  0  0
 13  2  1  0  0  0  0
 14 15  2  0  0  0  0
 16 18  2  0  0  0  0
 17 18  1  0  0  0  0
 17 21  2  0  0  0  0
 18 20  1  0  0  0  0
 20 19  2  0  0  0  0
 20 10  1  0  0  0  0
 21 19  1  0  0  0  0
 22 23  1  0  0  0  0
 23 26  2  0  0  0  0
 24 27  2  0  0  0  0
 25 22  2  0  0  0  0
 25 24  1  0  0  0  0
 27 26  1  0  0  0  0
 27 30  1  0  0  0  0
 28 30  1  0  0  0  0
 30 29  1  0  0  0  0
 31 13  1  0  0  0  0
 32 35  1  0  0  0  0
 32 36  1  0  0  0  0
 33 31  1  0  0  0  0
 34 33  1  0  0  0  0
 35 34  2  0  0  0  0
 36 37  1  0  0  0  0
 37 33  1  0  0  0  0
M  END
>  <MODEL>
7

>  <REMARK>
 VINA RESULT:      -7.0      1.569      2.133
  Name = 
  5 active torsions:
  status: ('A' for Active; 'I' for Inactive)
    1  A    between atoms: C_4  and  C_13
    2  A    between atoms: C_14  and  C_24
    3  A    between atoms: C_16  and  C_22
    4  A    between atoms: C_16  and  C_29
    5  A    between atoms: N_26  and  C_37
                            x       y       z     vdW  Elec       q    Type
                         _______ _______ _______ _____ _____    ______ ____

>  <TORSDO>
F 5

$$$$
=
 OpenBabel11042416463D

 37 43  0  0  1  0  0  0  0  0999 V2000
  192.3790  175.1970  145.3300 N   0  0  2  0  0  0  0  0  0  0  0  0
  191.9450  174.2370  144.3150 C   0  0  1  0  0  3  0  0  0  0  0  0
  188.0740  177.5690  144.7450 N   0  0  0  0  0  0  0  0  0  0  0  0
  191.2650  175.4350  146.2510 C   0  0  2  0  0  3  0  0  0  0  0  0
  190.0060  176.2520  143.2540 C   0  0  0  0  0  0  0  0  0  0  0  0
  190.2540  176.5890  144.6000 C   0  0  0  0  0  0  0  0  0  0  0  0
  190.9220  175.4900  142.4550 N   0  0  0  0  0  2  0  0  0  0  0  0
  189.2430  177.2400  145.3570 C   0  0  0  0  0  0  0  0  0  0  0  0
  191.5910  176.4480  145.2480 C   0  0  2  0  0  3  0  0  0  0  0  0
  187.8250  177.2880  143.4390 C   0  0  0  0  0  0  0  0  0  0  0  0
  188.7870  176.6110  142.6820 C   0  0  0  0  0  3  0  0  0  0  0  0
  191.4970  176.2520  147.4920 C   0  0  0  0  0  2  0  0  0  0  0  0
  192.1500  174.8400  142.9060 C   0  0  2  0  0  3  0  0  0  0  0  0
  189.3680  177.5600  146.8190 C   0  0  0  0  0  3  0  0  0  0  0  0
  190.2920  177.1490  147.7240 C   0  0  0  0  0  3  0  0  0  0  0  0
  184.9980  177.5400  144.6930 O   0  0  0  0  0  0  0  0  0  0  0  0
  184.2990  178.1740  142.5220 N   0  0  0  0  0  0  0  0  0  0  0  0
  185.2550  177.7700  143.4820 C   0  0  0  0  0  0  0  0  0  0  0  0
  186.3870  177.9880  141.5900 N   0  0  0  0  0  0  0  0  0  0  0  0
  186.5400  177.6730  142.8330 C   0  0  0  0  0  0  0  0  0  0  0  0
  184.9910  178.2930  141.4290 C   0  0  0  0  0  3  0  0  0  0  0  0
  192.6420  172.9240  144.5430 C   0  0  0  0  0  0  0  0  0  0  0  0
  193.9030  172.9150  145.1450 C   0  0  0  0  0  3  0  0  0  0  0  0
  192.6980  170.5020  144.4110 C   0  0  0  0  0  3  0  0  0  0  0  0
  192.0390  171.7120  144.1780 C   0  0  0  0  0  3  0  0  0  0  0  0
  194.5610  171.7050  145.3770 C   0  0  0  0  0  3  0  0  0  0  0  0
  193.9670  170.4850  145.0130 C   0  0  0  0  0  0  0  0  0  0  0  0
  195.3640  168.9980  146.4980 C   0  0  0  0  0  1  0  0  0  0  0  0
  194.6410  168.1720  144.2640 C   0  0  0  0  0  1  0  0  0  0  0  0
  194.6460  169.2390  145.2550 N   0  0  0  0  0  0  0  0  0  0  0  0
  192.5810  173.8260  141.8460 C   0  0  0  0  0  2  0  0  0  0  0  0
  190.8870  171.7670  138.6640 C   0  0  0  0  0  2  0  0  0  0  0  0
  191.5120  173.6610  140.7810 C   0  0  1  0  0  3  0  0  0  0  0  0
  192.1110  173.7910  139.4000 C   0  0  0  0  0  3  0  0  0  0  0  0
  191.7900  172.9470  138.4100 C   0  0  0  0  0  3  0  0  0  0  0  0
  189.9870  172.0260  139.7870 N   0  0  0  0  0  2  0  0  0  0  0  0
  190.8080  172.3150  140.9610 C   0  0  0  0  0  2  0  0  0  0  0  0
  1  4  1  0  0  0  0
  2 22  1  0  0  0  0
  2  1  1  0  0  0  0
  3  8  1  0  0  0  0
  4 12  1  0  0  0  0
  5  6  1  0  0  0  0
  6  9  1  0  0  0  0
  6  8  2  0  0  0  0
  7 13  1  0  0  0  0
  7  5  1  0  0  0  0
  8 14  1  0  0  0  0
  9  1  1  0  0  0  0
  9  4  1  0  0  0  0
 10  3  2  0  0  0  0
 11  5  2  0  0  0  0
 11 10  1  0  0  0  0
 12 15  1  0  0  0  0
 13  2  1  0  0  0  0
 14 15  2  0  0  0  0
 17 18  1  0  0  0  0
 18 16  2  0  0  0  0
 19 20  2  0  0  0  0
 20 10  1  0  0  0  0
 20 18  1  0  0  0  0
 21 19  1  0  0  0  0
 21 17  2  0  0  0  0
 22 23  1  0  0  0  0
 23 26  2  0  0  0  0
 24 27  2  0  0  0  0
 25 24  1  0  0  0  0
 25 22  2  0  0  0  0
 27 30  1  0  0  0  0
 27 26  1  0  0  0  0
 29 30  1  0  0  0  0
 30 28  1  0  0  0  0
 31 13  1  0  0  0  0
 32 36  1  0  0  0  0
 33 37  1  0  0  0  0
 33 31  1  0  0  0  0
 34 33  1  0  0  0  0
 35 32  1  0  0  0  0
 35 34  2  0  0  0  0
 36 37  1  0  0  0  0
M  END
>  <MODEL>
8

>  <REMARK>
 VINA RESULT:      -7.0      2.150      3.099
  Name = 
  5 active torsions:
  status: ('A' for Active; 'I' for Inactive)
    1  A    between atoms: C_4  and  C_13
    2  A    between atoms: C_14  and  C_24
    3  A    between atoms: C_16  and  C_22
    4  A    between atoms: C_16  and  C_29
    5  A    between atoms: N_26  and  C_37
                            x       y       z     vdW  Elec       q    Type
                         _______ _______ _______ _____ _____    ______ ____

>  <TORSDO>
F 5

$$$$
=
 OpenBabel11042416463D

 37 43  0  0  1  0  0  0  0  0999 V2000
  189.0870  173.2290  143.4070 N   0  0  2  0  0  0  0  0  0  0  0  0
  189.2390  174.6440  143.0700 C   0  0  1  0  0  3  0  0  0  0  0  0
  190.3950  172.1130  138.7650 N   0  0  0  0  0  0  0  0  0  0  0  0
  190.2350  172.4960  142.8680 C   0  0  2  0  0  3  0  0  0  0  0  0
  188.9030  173.9790  140.1730 C   0  0  0  0  0  0  0  0  0  0  0  0
  189.3660  172.8120  140.8120 C   0  0  0  0  0  0  0  0  0  0  0  0
  188.2080  175.0280  140.8640 N   0  0  0  0  0  2  0  0  0  0  0  0
  190.1520  171.8790  140.0820 C   0  0  0  0  0  0  0  0  0  0  0  0
  188.9460  172.4050  142.1840 C   0  0  2  0  0  3  0  0  0  0  0  0
  189.9280  173.2140  138.1170 C   0  0  0  0  0  0  0  0  0  0  0  0
  189.1870  174.1680  138.8210 C   0  0  0  0  0  3  0  0  0  0  0  0
  190.4150  171.0460  143.2210 C   0  0  0  0  0  2  0  0  0  0  0  0
  187.9890  175.1340  142.3040 C   0  0  2  0  0  3  0  0  0  0  0  0
  190.7720  170.6520  140.6880 C   0  0  0  0  0  3  0  0  0  0  0  0
  190.9000  170.2950  141.9910 C   0  0  0  0  0  3  0  0  0  0  0  0
  191.9430  175.1100  136.7120 O   0  0  0  0  0  0  0  0  0  0  0  0
  191.1300  174.1710  134.6970 N   0  0  0  0  0  0  0  0  0  0  0  0
  191.1800  174.3150  136.1030 C   0  0  0  0  0  0  0  0  0  0  0  0
  189.6390  172.7680  135.7310 N   0  0  0  0  0  0  0  0  0  0  0  0
  190.2220  173.4090  136.6880 C   0  0  0  0  0  0  0  0  0  0  0  0
  190.2220  173.2600  134.5130 C   0  0  0  0  0  3  0  0  0  0  0  0
  189.5550  175.4210  144.3180 C   0  0  0  0  0  0  0  0  0  0  0  0
  188.9460  175.0570  145.5220 C   0  0  0  0  0  3  0  0  0  0  0  0
  190.7530  177.1880  145.4700 C   0  0  0  0  0  3  0  0  0  0  0  0
  190.4630  176.4890  144.2960 C   0  0  0  0  0  3  0  0  0  0  0  0
  189.2360  175.7570  146.6950 C   0  0  0  0  0  3  0  0  0  0  0  0
  190.1430  176.8310  146.6830 C   0  0  0  0  0  0  0  0  0  0  0  0
  191.5920  177.2030  148.7150 C   0  0  0  0  0  1  0  0  0  0  0  0
  189.6040  178.6530  148.3420 C   0  0  0  0  0  1  0  0  0  0  0  0
  190.4410  177.5500  147.8930 N   0  0  0  0  0  0  0  0  0  0  0  0
  187.5790  176.5720  142.6280 C   0  0  0  0  0  2  0  0  0  0  0  0
  184.2820  178.6710  144.0280 C   0  0  0  0  0  2  0  0  0  0  0  0
  186.1200  176.6430  143.0440 C   0  0  1  0  0  3  0  0  0  0  0  0
  186.0020  176.9570  144.5170 C   0  0  0  0  0  3  0  0  0  0  0  0
  185.1230  177.8580  144.9780 C   0  0  0  0  0  3  0  0  0  0  0  0
  184.0760  177.9590  142.7660 N   0  0  0  0  0  2  0  0  0  0  0  0
  185.3900  177.6820  142.1900 C   0  0  0  0  0  2  0  0  0  0  0  0
  2  1  1  0  0  0  0
  2 22  1  0  0  0  0
  3  8  1  0  0  0  0
  4 12  1  0  0  0  0
  4  1  1  0  0  0  0
  5  6  1  0  0  0  0
  5  7  1  0  0  0  0
  6  9  1  0  0  0  0
  7 13  1  0  0  0  0
  8 14  1  0  0  0  0
  8  6  2  0  0  0  0
  9  4  1  0  0  0  0
  9  1  1  0  0  0  0
 10  3  2  0  0  0  0
 10 11  1  0  0  0  0
 11  5  2  0  0  0  0
 13 31  1  0  0  0  0
 13  2  1  0  0  0  0
 14 15  2  0  0  0  0
 15 12  1  0  0  0  0
 17 18  1  0  0  0  0
 18 20  1  0  0  0  0
 18 16  2  0  0  0  0
 19 20  2  0  0  0  0
 20 10  1  0  0  0  0
 21 17  2  0  0  0  0
 21 19  1  0  0  0  0
 22 23  1  0  0  0  0
 23 26  2  0  0  0  0
 24 27  2  0  0  0  0
 25 22  2  0  0  0  0
 25 24  1  0  0  0  0
 27 26  1  0  0  0  0
 27 30  1  0  0  0  0
 30 29  1  0  0  0  0
 30 28  1  0  0  0  0
 31 33  1  0  0  0  0
 32 35  1  0  0  0  0
 33 34  1  0  0  0  0
 34 35  2  0  0  0  0
 36 32  1  0  0  0  0
 37 36  1  0  0  0  0
 37 33  1  0  0  0  0
M  END
>  <MODEL>
9

>  <REMARK>
 VINA RESULT:      -6.7      4.656      8.353
  Name = 
  5 active torsions:
  status: ('A' for Active; 'I' for Inactive)
    1  A    between atoms: C_4  and  C_13
    2  A    between atoms: C_14  and  C_24
    3  A    between atoms: C_16  and  C_22
    4  A    between atoms: C_16  and  C_29
    5  A    between atoms: N_26  and  C_37
                            x       y       z     vdW  Elec       q    Type
                         _______ _______ _______ _____ _____    ______ ____

>  <TORSDO>
F 5

$$$$
