=
 OpenBabel11042419293D

 40 43  0  0  1  0  0  0  0  0999 V2000
  190.1620  177.0570  146.7490 C   0  0  0  0  0  2  0  0  0  0  0  0
  189.2920  175.6210  145.0250 C   0  0  0  0  0  0  0  0  0  0  0  0
  189.0920  176.1750  146.1860 C   0  0  0  0  0  0  0  0  0  0  0  0
  189.4930  175.0770  143.8450 C   0  0  0  0  0  0  0  0  0  0  0  0
  190.0760  173.6930  143.7500 C   0  0  0  0  0  3  0  0  0  0  0  0
  189.7790  172.8800  144.9970 C   0  0  0  0  0  1  0  0  0  0  0  0
  191.5720  173.7270  143.4850 C   0  0  0  0  0  1  0  0  0  0  0  0
  189.0990  175.7910  142.6030 C   0  0  0  0  0  0  0  0  0  0  0  0
  188.6440  175.1370  141.5360 C   0  0  0  0  0  2  0  0  0  0  0  0
  189.2170  177.2820  142.5220 C   0  0  0  0  0  2  0  0  0  0  0  0
  188.0430  177.8930  141.7660 C   0  0  0  0  0  2  0  0  0  0  0  0
  185.7740  177.5030  142.1790 C   0  0  0  0  0  1  0  0  0  0  0  0
  186.9500  178.1940  142.6780 N   0  0  0  0  0  2  0  0  0  0  0  0
  187.8070  176.0320  146.8090 N   0  0  0  0  0  2  0  0  0  0  0  0
  186.7140  178.0750  147.5770 C   0  0  0  0  0  3  0  0  0  0  0  0
  185.6910  178.9710  147.5300 N   0  0  0  0  0  0  0  0  0  0  0  0
  185.6330  176.7740  145.8650 C   0  0  0  0  0  3  0  0  0  0  0  0
  184.5930  177.7030  145.8300 C   0  0  0  0  0  3  0  0  0  0  0  0
  184.6410  178.8080  146.6820 C   0  0  0  0  0  3  0  0  0  0  0  0
  186.7050  176.9480  146.7490 C   0  0  0  0  0  0  0  0  0  0  0  0
  190.9510  176.3200  147.8180 C   0  0  2  0  0  3  0  0  0  0  0  0
  191.5070  177.2420  148.7070 O   0  0  0  0  0  1  0  0  0  0  0  0
  192.0480  175.4960  147.1610 C   0  0  0  0  0  2  0  0  0  0  0  0
  192.7430  176.2950  146.0700 C   0  0  0  0  0  2  0  0  0  0  0  0
  194.1980  176.5110  146.4350 C   0  0  0  0  0  2  0  0  0  0  0  0
  195.0290  176.6310  145.1750 C   0  0  0  0  0  2  0  0  0  0  0  0
  197.6140  171.3040  142.8020 N   0  0  0  0  0  0  0  0  0  0  0  0
  196.5260  173.3180  145.8370 C   0  0  0  0  0  3  0  0  0  0  0  0
  196.4600  174.6330  141.3190 C   0  0  0  0  0  2  0  0  0  0  0  0
  195.7510  175.3900  144.9450 N   0  0  0  0  0  0  0  0  0  0  0  0
  195.9150  175.6470  142.3710 C   0  0  1  0  0  3  0  0  0  0  0  0
  197.6430  170.5540  145.1610 C   0  0  0  0  0  1  0  0  0  0  0  0
  196.9320  173.4850  142.1570 C   0  0  0  0  0  0  0  0  0  0  0  0
  197.3700  172.2090  141.8020 C   0  0  0  0  0  3  0  0  0  0  0  0
  195.9700  174.4910  146.0170 N   0  0  0  0  0  0  0  0  0  0  0  0
  196.2260  175.0460  143.6660 N   0  0  0  0  0  0  0  0  0  0  0  0
  197.4070  171.6010  144.1270 C   0  0  0  0  0  0  0  0  0  0  0  0
  196.5880  176.8610  142.2430 O   0  0  0  0  0  1  0  0  0  0  0  0
  196.7700  173.7850  143.4620 C   0  0  0  0  0  0  0  0  0  0  0  0
  196.9410  172.8800  144.4820 C   0  0  0  0  0  0  0  0  0  0  0  0
  1 21  1  0  0  0  0
  2  3  2  0  0  0  0
  3  1  1  0  0  0  0
  3 14  1  0  0  0  0
  4  2  2  0  0  0  0
  5  4  1  0  0  0  0
  5  6  1  0  0  0  0
  7  5  1  0  0  0  0
  8  4  1  0  0  0  0
  9  8  2  0  0  0  0
 10  8  1  0  0  0  0
 11 10  1  0  0  0  0
 11 13  1  0  0  0  0
 12 13  1  0  0  0  0
 16 15  1  0  0  0  0
 17 20  1  0  0  0  0
 18 17  2  0  0  0  0
 18 19  1  0  0  0  0
 19 16  2  0  0  0  0
 20 14  1  0  0  0  0
 20 15  2  0  0  0  0
 21 22  1  1  0  0  0
 23 21  1  0  0  0  0
 24 25  1  0  0  0  0
 24 23  1  0  0  0  0
 26 25  1  0  0  0  0
 27 37  1  0  0  0  0
 28 35  2  0  0  0  0
 29 33  1  0  0  0  0
 29 31  1  0  0  0  0
 30 26  1  0  0  0  0
 30 35  1  0  0  0  0
 31 38  1  1  0  0  0
 31 36  1  0  0  0  0
 33 39  2  0  0  0  0
 34 33  1  0  0  0  0
 34 27  2  0  0  0  0
 36 30  1  0  0  0  0
 37 40  2  0  0  0  0
 37 32  1  0  0  0  0
 39 36  1  0  0  0  0
 39 40  1  0  0  0  0
 40 28  1  0  0  0  0
M  END
>  <MODEL>
1

>  <REMARK>
 VINA RESULT:      -7.1      0.000      0.000
  Name = 
  14 active torsions:
  status: ('A' for Active; 'I' for Inactive)
    1  A    between atoms: C_2  and  C_39
    2  A    between atoms: C_7  and  C_8
    3  A    between atoms: C_7  and  C_31
    4  A    between atoms: C_8  and  C_40
    5  A    between atoms: C_9  and  N_11
    6  A    between atoms: C_9  and  C_37
    7  A    between atoms: C_13  and  C_37
    8  A    between atoms: C_13  and  C_39
    9  A    between atoms: C_14  and  C_30
   10  A    between atoms: C_14  and  C_38
   11  A    between atoms: N_16  and  C_30
   12  A    between atoms: N_20  and  C_31
   13  A    between atoms: N_20  and  C_34
   14  A    between atoms: C_38  and  C_40
                            x       y       z     vdW  Elec       q    Type
                         _______ _______ _______ _____ _____    ______ ____

>  <TORSDO>
F 14

$$$$
=
 OpenBabel11042419293D

 40 43  0  0  1  0  0  0  0  0999 V2000
  187.7720  174.4840  141.8490 C   0  0  0  0  0  2  0  0  0  0  0  0
  188.7030  176.1640  143.2990 C   0  0  0  0  0  0  0  0  0  0  0  0
  187.9040  175.9030  142.3040 C   0  0  0  0  0  0  0  0  0  0  0  0
  189.5000  176.4190  144.3130 C   0  0  0  0  0  0  0  0  0  0  0  0
  190.9260  176.8270  144.0590 C   0  0  0  0  0  3  0  0  0  0  0  0
  191.0710  178.3370  144.0140 C   0  0  0  0  0  1  0  0  0  0  0  0
  191.4730  176.2050  142.7850 C   0  0  0  0  0  1  0  0  0  0  0  0
  188.9940  176.3630  145.7090 C   0  0  0  0  0  0  0  0  0  0  0  0
  189.2800  175.3410  146.5140 C   0  0  0  0  0  2  0  0  0  0  0  0
  188.1300  177.4640  146.2420 C   0  0  0  0  0  2  0  0  0  0  0  0
  186.9120  176.9130  146.9720 C   0  0  0  0  0  2  0  0  0  0  0  0
  184.6040  177.1960  146.7110 C   0  0  0  0  0  1  0  0  0  0  0  0
  185.8050  176.7200  146.0470 N   0  0  0  0  0  2  0  0  0  0  0  0
  187.0810  176.9570  141.7840 N   0  0  0  0  0  2  0  0  0  0  0  0
  184.8280  177.5110  142.5420 C   0  0  0  0  0  3  0  0  0  0  0  0
  183.9640  178.2920  143.2460 N   0  0  0  0  0  0  0  0  0  0  0  0
  186.6490  178.9190  143.2450 C   0  0  0  0  0  3  0  0  0  0  0  0
  185.7490  179.7090  143.9600 C   0  0  0  0  0  3  0  0  0  0  0  0
  184.3930  179.3750  143.9470 C   0  0  0  0  0  3  0  0  0  0  0  0
  186.1930  177.8110  142.5190 C   0  0  0  0  0  0  0  0  0  0  0  0
  189.1400  173.8260  141.7570 C   0  0  2  0  0  3  0  0  0  0  0  0
  189.7010  174.0880  140.5050 O   0  0  0  0  0  1  0  0  0  0  0  0
  188.9960  172.3260  141.9650 C   0  0  0  0  0  2  0  0  0  0  0  0
  189.3310  171.9460  143.3990 C   0  0  0  0  0  2  0  0  0  0  0  0
  190.4400  172.8350  143.9230 C   0  0  0  0  0  2  0  0  0  0  0  0
  191.7460  172.0660  143.9430 C   0  0  0  0  0  2  0  0  0  0  0  0
  196.0880  176.1760  141.7210 N   0  0  0  0  0  0  0  0  0  0  0  0
  193.5740  173.4120  141.0260 C   0  0  0  0  0  3  0  0  0  0  0  0
  194.8650  175.1640  145.1990 C   0  0  0  0  0  2  0  0  0  0  0  0
  192.7490  172.7860  143.1750 N   0  0  0  0  0  0  0  0  0  0  0  0
  193.7740  174.0500  145.1930 C   0  0  1  0  0  3  0  0  0  0  0  0
  195.4230  175.3090  139.5000 C   0  0  0  0  0  1  0  0  0  0  0  0
  195.2360  175.2920  143.7540 C   0  0  0  0  0  0  0  0  0  0  0  0
  196.0350  176.2230  143.0900 C   0  0  0  0  0  3  0  0  0  0  0  0
  192.7530  172.7030  141.7620 N   0  0  0  0  0  0  0  0  0  0  0  0
  193.7160  173.5890  143.8080 N   0  0  0  0  0  0  0  0  0  0  0  0
  195.3580  175.2720  140.9890 C   0  0  0  0  0  0  0  0  0  0  0  0
  194.1710  173.0020  146.0220 O   0  0  0  0  0  1  0  0  0  0  0  0
  194.5530  174.3800  143.0320 C   0  0  0  0  0  0  0  0  0  0  0  0
  194.5330  174.3490  141.6580 C   0  0  0  0  0  0  0  0  0  0  0  0
  1  3  1  0  0  0  0
  2  4  2  0  0  0  0
  3  2  2  0  0  0  0
  4  8  1  0  0  0  0
  5  4  1  0  0  0  0
  6  5  1  0  0  0  0
  7  5  1  0  0  0  0
  8 10  1  0  0  0  0
  8  9  2  0  0  0  0
 10 11  1  0  0  0  0
 13 12  1  0  0  0  0
 13 11  1  0  0  0  0
 14  3  1  0  0  0  0
 14 20  1  0  0  0  0
 15 16  1  0  0  0  0
 16 19  2  0  0  0  0
 17 18  2  0  0  0  0
 19 18  1  0  0  0  0
 20 15  2  0  0  0  0
 20 17  1  0  0  0  0
 21 22  1  6  0  0  0
 21  1  1  0  0  0  0
 21 23  1  0  0  0  0
 23 24  1  0  0  0  0
 24 25  1  0  0  0  0
 25 26  1  0  0  0  0
 27 34  1  0  0  0  0
 28 40  1  0  0  0  0
 28 35  2  0  0  0  0
 30 36  1  0  0  0  0
 30 26  1  0  0  0  0
 31 29  1  0  0  0  0
 31 38  1  1  0  0  0
 32 37  1  0  0  0  0
 33 29  1  0  0  0  0
 34 33  2  0  0  0  0
 35 30  1  0  0  0  0
 36 31  1  0  0  0  0
 37 40  1  0  0  0  0
 37 27  2  0  0  0  0
 39 33  1  0  0  0  0
 39 36  1  0  0  0  0
 40 39  2  0  0  0  0
M  END
>  <MODEL>
2

>  <REMARK>
 VINA RESULT:      -6.9      2.588      4.876
  Name = 
  14 active torsions:
  status: ('A' for Active; 'I' for Inactive)
    1  A    between atoms: C_2  and  C_39
    2  A    between atoms: C_7  and  C_8
    3  A    between atoms: C_7  and  C_31
    4  A    between atoms: C_8  and  C_40
    5  A    between atoms: C_9  and  N_11
    6  A    between atoms: C_9  and  C_37
    7  A    between atoms: C_13  and  C_37
    8  A    between atoms: C_13  and  C_39
    9  A    between atoms: C_14  and  C_30
   10  A    between atoms: C_14  and  C_38
   11  A    between atoms: N_16  and  C_30
   12  A    between atoms: N_20  and  C_31
   13  A    between atoms: N_20  and  C_34
   14  A    between atoms: C_38  and  C_40
                            x       y       z     vdW  Elec       q    Type
                         _______ _______ _______ _____ _____    ______ ____

>  <TORSDO>
F 14

$$$$
=
 OpenBabel11042419293D

 40 43  0  0  1  0  0  0  0  0999 V2000
  192.8390  174.6870  146.3360 C   0  0  0  0  0  2  0  0  0  0  0  0
  194.0410  173.2370  144.8370 C   0  0  0  0  0  0  0  0  0  0  0  0
  192.8840  173.5860  145.3240 C   0  0  0  0  0  0  0  0  0  0  0  0
  195.2100  172.9010  144.3390 C   0  0  0  0  0  0  0  0  0  0  0  0
  195.9890  171.7720  144.9580 C   0  0  0  0  0  3  0  0  0  0  0  0
  195.0700  170.6760  145.4630 C   0  0  0  0  0  1  0  0  0  0  0  0
  196.8960  172.2590  146.0760 C   0  0  0  0  0  1  0  0  0  0  0  0
  195.7470  173.5860  143.1350 C   0  0  0  0  0  0  0  0  0  0  0  0
  195.9220  172.9390  141.9840 C   0  0  0  0  0  2  0  0  0  0  0  0
  196.1170  175.0360  143.1950 C   0  0  0  0  0  2  0  0  0  0  0  0
  196.8120  175.4870  141.9160 C   0  0  0  0  0  2  0  0  0  0  0  0
  194.8680  176.5240  141.1310 C   0  0  0  0  0  1  0  0  0  0  0  0
  196.2650  176.7540  141.4570 N   0  0  0  0  0  2  0  0  0  0  0  0
  191.6970  173.0030  144.7680 N   0  0  0  0  0  2  0  0  0  0  0  0
  191.6520  173.6560  142.4170 C   0  0  0  0  0  3  0  0  0  0  0  0
  190.9820  174.0590  141.3030 N   0  0  0  0  0  0  0  0  0  0  0  0
  189.5790  173.6450  143.6400 C   0  0  0  0  0  3  0  0  0  0  0  0
  188.9090  174.0590  142.4890 C   0  0  0  0  0  3  0  0  0  0  0  0
  189.6380  174.2640  141.3160 C   0  0  0  0  0  3  0  0  0  0  0  0
  190.9650  173.4470  143.6170 C   0  0  0  0  0  0  0  0  0  0  0  0
  193.3080  175.9950  145.7210 C   0  0  2  0  0  3  0  0  0  0  0  0
  194.1310  176.6680  146.6260 O   0  0  0  0  0  1  0  0  0  0  0  0
  192.1000  176.8520  145.3700 C   0  0  0  0  0  2  0  0  0  0  0  0
  192.0290  177.0970  143.8720 C   0  0  0  0  0  2  0  0  0  0  0  0
  190.9800  178.1480  143.5700 C   0  0  0  0  0  2  0  0  0  0  0  0
  189.8430  177.5260  142.7860 C   0  0  0  0  0  2  0  0  0  0  0  0
  183.9700  178.7020  144.9800 N   0  0  0  0  0  0  0  0  0  0  0  0
  187.5880  177.7880  145.7020 C   0  0  0  0  0  3  0  0  0  0  0  0
  185.5340  178.3640  141.5080 C   0  0  0  0  0  2  0  0  0  0  0  0
  188.6120  177.6160  143.5550 N   0  0  0  0  0  0  0  0  0  0  0  0
  187.0560  178.0260  141.5220 C   0  0  1  0  0  3  0  0  0  0  0  0
  185.0090  178.4370  147.2110 C   0  0  0  0  0  1  0  0  0  0  0  0
  185.1580  178.3340  142.9570 C   0  0  0  0  0  0  0  0  0  0  0  0
  183.9840  178.7080  143.6090 C   0  0  0  0  0  3  0  0  0  0  0  0
  188.6600  177.6080  144.9700 N   0  0  0  0  0  0  0  0  0  0  0  0
  187.3620  177.7340  142.9210 N   0  0  0  0  0  0  0  0  0  0  0  0
  185.0780  178.3750  145.7230 C   0  0  0  0  0  0  0  0  0  0  0  0
  187.2920  176.8940  140.7430 O   0  0  0  0  0  1  0  0  0  0  0  0
  186.2310  177.9740  143.6910 C   0  0  0  0  0  0  0  0  0  0  0  0
  186.2700  178.0210  145.0650 C   0  0  0  0  0  0  0  0  0  0  0  0
  2  3  2  0  0  0  0
  3  1  1  0  0  0  0
  4  2  2  0  0  0  0
  4  5  1  0  0  0  0
  5  6  1  0  0  0  0
  5  7  1  0  0  0  0
  8 10  1  0  0  0  0
  8  4  1  0  0  0  0
  9  8  2  0  0  0  0
 11 10  1  0  0  0  0
 12 13  1  0  0  0  0
 13 11  1  0  0  0  0
 14  3  1  0  0  0  0
 15 20  1  0  0  0  0
 16 19  1  0  0  0  0
 16 15  2  0  0  0  0
 18 17  1  0  0  0  0
 19 18  2  0  0  0  0
 20 17  2  0  0  0  0
 20 14  1  0  0  0  0
 21  1  1  0  0  0  0
 21 22  1  1  0  0  0
 23 21  1  0  0  0  0
 24 23  1  0  0  0  0
 25 24  1  0  0  0  0
 26 30  1  0  0  0  0
 26 25  1  0  0  0  0
 27 37  1  0  0  0  0
 29 31  1  0  0  0  0
 29 33  1  0  0  0  0
 30 35  1  0  0  0  0
 31 38  1  6  0  0  0
 31 36  1  0  0  0  0
 33 34  1  0  0  0  0
 33 39  2  0  0  0  0
 34 27  2  0  0  0  0
 35 28  2  0  0  0  0
 36 30  1  0  0  0  0
 36 39  1  0  0  0  0
 37 32  1  0  0  0  0
 39 40  1  0  0  0  0
 40 28  1  0  0  0  0
 40 37  2  0  0  0  0
M  END
>  <MODEL>
3

>  <REMARK>
 VINA RESULT:      -6.9      2.507      8.716
  Name = 
  14 active torsions:
  status: ('A' for Active; 'I' for Inactive)
    1  A    between atoms: C_2  and  C_39
    2  A    between atoms: C_7  and  C_8
    3  A    between atoms: C_7  and  C_31
    4  A    between atoms: C_8  and  C_40
    5  A    between atoms: C_9  and  N_11
    6  A    between atoms: C_9  and  C_37
    7  A    between atoms: C_13  and  C_37
    8  A    between atoms: C_13  and  C_39
    9  A    between atoms: C_14  and  C_30
   10  A    between atoms: C_14  and  C_38
   11  A    between atoms: N_16  and  C_30
   12  A    between atoms: N_20  and  C_31
   13  A    between atoms: N_20  and  C_34
   14  A    between atoms: C_38  and  C_40
                            x       y       z     vdW  Elec       q    Type
                         _______ _______ _______ _____ _____    ______ ____

>  <TORSDO>
F 14

$$$$
=
 OpenBabel11042419293D

 40 43  0  0  1  0  0  0  0  0999 V2000
  192.7190  174.6330  146.5690 C   0  0  0  0  0  2  0  0  0  0  0  0
  194.2880  173.8240  144.9340 C   0  0  0  0  0  0  0  0  0  0  0  0
  193.0860  173.7380  145.4280 C   0  0  0  0  0  0  0  0  0  0  0  0
  195.4980  173.9270  144.4300 C   0  0  0  0  0  0  0  0  0  0  0  0
  196.5930  173.0200  144.9230 C   0  0  0  0  0  3  0  0  0  0  0  0
  196.1480  171.5690  144.9340 C   0  0  0  0  0  1  0  0  0  0  0  0
  197.0890  173.4310  146.2990 C   0  0  0  0  0  1  0  0  0  0  0  0
  195.7860  174.8920  143.3370 C   0  0  0  0  0  0  0  0  0  0  0  0
  195.3640  176.1540  143.3920 C   0  0  0  0  0  2  0  0  0  0  0  0
  196.5570  174.4550  142.1300 C   0  0  0  0  0  2  0  0  0  0  0  0
  195.6580  173.7530  141.1190 C   0  0  0  0  0  2  0  0  0  0  0  0
  193.9340  174.8210  139.9530 C   0  0  0  0  0  1  0  0  0  0  0  0
  195.3740  174.6300  139.9930 N   0  0  0  0  0  2  0  0  0  0  0  0
  192.1280  172.8970  144.7710 N   0  0  0  0  0  2  0  0  0  0  0  0
  191.5380  174.2450  142.8230 C   0  0  0  0  0  3  0  0  0  0  0  0
  190.6630  174.6150  141.8490 N   0  0  0  0  0  0  0  0  0  0  0  0
  189.9050  172.6980  143.6800 C   0  0  0  0  0  3  0  0  0  0  0  0
  189.0210  173.0910  142.6750 C   0  0  0  0  0  3  0  0  0  0  0  0
  189.4230  174.0640  141.7590 C   0  0  0  0  0  3  0  0  0  0  0  0
  191.1760  173.2810  143.7680 C   0  0  0  0  0  0  0  0  0  0  0  0
  192.3220  176.0090  146.0600 C   0  0  2  0  0  3  0  0  0  0  0  0
  193.3610  176.9120  146.2960 O   0  0  0  0  0  1  0  0  0  0  0  0
  191.0560  176.4660  146.7690 C   0  0  0  0  0  2  0  0  0  0  0  0
  190.3400  175.2880  147.4090 C   0  0  0  0  0  2  0  0  0  0  0  0
  189.0870  174.9570  146.6240 C   0  0  0  0  0  2  0  0  0  0  0  0
  187.9950  175.9530  146.9590 C   0  0  0  0  0  2  0  0  0  0  0  0
  184.4050  178.4790  142.3310 N   0  0  0  0  0  0  0  0  0  0  0  0
  187.5760  176.6500  143.3540 C   0  0  0  0  0  3  0  0  0  0  0  0
  184.2170  178.3980  146.1480 C   0  0  0  0  0  2  0  0  0  0  0  0
  187.4710  176.5350  145.7340 N   0  0  0  0  0  0  0  0  0  0  0  0
  185.4040  177.6520  146.8310 C   0  0  1  0  0  3  0  0  0  0  0  0
  186.1310  177.5530  140.8170 C   0  0  0  0  0  1  0  0  0  0  0  0
  184.5840  178.3760  144.6970 C   0  0  0  0  0  0  0  0  0  0  0  0
  183.8590  178.7370  143.5620 C   0  0  0  0  0  3  0  0  0  0  0  0
  188.0750  176.2290  144.4910 N   0  0  0  0  0  0  0  0  0  0  0  0
  186.3530  177.3890  145.7520 N   0  0  0  0  0  0  0  0  0  0  0  0
  185.6170  177.8500  142.1840 C   0  0  0  0  0  0  0  0  0  0  0  0
  185.9940  178.4810  147.7840 O   0  0  0  0  0  1  0  0  0  0  0  0
  185.7920  177.7960  144.5480 C   0  0  0  0  0  0  0  0  0  0  0  0
  186.3370  177.4630  143.3300 C   0  0  0  0  0  0  0  0  0  0  0  0
  2  3  2  0  0  0  0
  3  1  1  0  0  0  0
  4  5  1  0  0  0  0
  4  2  2  0  0  0  0
  5  6  1  0  0  0  0
  5  7  1  0  0  0  0
  8  9  2  0  0  0  0
  8  4  1  0  0  0  0
 10  8  1  0  0  0  0
 11 10  1  0  0  0  0
 12 13  1  0  0  0  0
 13 11  1  0  0  0  0
 14  3  1  0  0  0  0
 15 20  1  0  0  0  0
 16 15  2  0  0  0  0
 17 20  2  0  0  0  0
 18 17  1  0  0  0  0
 19 16  1  0  0  0  0
 19 18  2  0  0  0  0
 20 14  1  0  0  0  0
 21 22  1  1  0  0  0
 21  1  1  0  0  0  0
 21 23  1  0  0  0  0
 23 24  1  0  0  0  0
 25 26  1  0  0  0  0
 25 24  1  0  0  0  0
 27 34  1  0  0  0  0
 28 35  2  0  0  0  0
 29 31  1  0  0  0  0
 30 36  1  0  0  0  0
 30 26  1  0  0  0  0
 31 38  1  1  0  0  0
 32 37  1  0  0  0  0
 33 29  1  0  0  0  0
 34 33  2  0  0  0  0
 35 30  1  0  0  0  0
 36 31  1  0  0  0  0
 37 27  2  0  0  0  0
 37 40  1  0  0  0  0
 39 33  1  0  0  0  0
 39 36  1  0  0  0  0
 40 28  1  0  0  0  0
 40 39  2  0  0  0  0
M  END
>  <MODEL>
4

>  <REMARK>
 VINA RESULT:      -6.9      2.186      8.957
  Name = 
  14 active torsions:
  status: ('A' for Active; 'I' for Inactive)
    1  A    between atoms: C_2  and  C_39
    2  A    between atoms: C_7  and  C_8
    3  A    between atoms: C_7  and  C_31
    4  A    between atoms: C_8  and  C_40
    5  A    between atoms: C_9  and  N_11
    6  A    between atoms: C_9  and  C_37
    7  A    between atoms: C_13  and  C_37
    8  A    between atoms: C_13  and  C_39
    9  A    between atoms: C_14  and  C_30
   10  A    between atoms: C_14  and  C_38
   11  A    between atoms: N_16  and  C_30
   12  A    between atoms: N_20  and  C_31
   13  A    between atoms: N_20  and  C_34
   14  A    between atoms: C_38  and  C_40
                            x       y       z     vdW  Elec       q    Type
                         _______ _______ _______ _____ _____    ______ ____

>  <TORSDO>
F 14

$$$$
=
 OpenBabel11042419293D

 40 43  0  0  1  0  0  0  0  0999 V2000
  187.4610  174.3800  141.9930 C   0  0  0  0  0  2  0  0  0  0  0  0
  188.4290  175.9320  143.5570 C   0  0  0  0  0  0  0  0  0  0  0  0
  187.5270  175.7280  142.6400 C   0  0  0  0  0  0  0  0  0  0  0  0
  189.3320  176.1280  144.4930 C   0  0  0  0  0  0  0  0  0  0  0  0
  190.6680  176.7180  144.1310 C   0  0  0  0  0  3  0  0  0  0  0  0
  190.5660  178.2130  143.8890 C   0  0  0  0  0  1  0  0  0  0  0  0
  191.2820  176.0270  142.9250 C   0  0  0  0  0  1  0  0  0  0  0  0
  189.0280  175.8240  145.9150 C   0  0  0  0  0  0  0  0  0  0  0  0
  188.0870  176.4870  146.5850 C   0  0  0  0  0  2  0  0  0  0  0  0
  189.7920  174.7560  146.6370 C   0  0  0  0  0  2  0  0  0  0  0  0
  190.8040  175.3550  147.6060 C   0  0  0  0  0  2  0  0  0  0  0  0
  192.7950  176.3230  146.8500 C   0  0  0  0  0  1  0  0  0  0  0  0
  192.1610  175.0570  147.1760 N   0  0  0  0  0  2  0  0  0  0  0  0
  186.5510  176.7500  142.3910 N   0  0  0  0  0  2  0  0  0  0  0  0
  186.0090  179.0120  143.1290 C   0  0  0  0  0  3  0  0  0  0  0  0
  185.4340  179.8740  144.0100 N   0  0  0  0  0  0  0  0  0  0  0  0
  185.2780  177.1620  144.4830 C   0  0  0  0  0  3  0  0  0  0  0  0
  184.6950  178.0610  145.3770 C   0  0  0  0  0  3  0  0  0  0  0  0
  184.7850  179.4300  145.1200 C   0  0  0  0  0  3  0  0  0  0  0  0
  185.9520  177.6330  143.3490 C   0  0  0  0  0  0  0  0  0  0  0  0
  188.7920  174.0350  141.3470 C   0  0  2  0  0  3  0  0  0  0  0  0
  188.7080  174.2370  139.9680 O   0  0  0  0  0  1  0  0  0  0  0  0
  189.1390  172.5830  141.6450 C   0  0  0  0  0  2  0  0  0  0  0  0
  188.9350  172.2720  143.1190 C   0  0  0  0  0  2  0  0  0  0  0  0
  190.2500  172.4030  143.8610 C   0  0  0  0  0  2  0  0  0  0  0  0
  191.2110  171.3290  143.3920 C   0  0  0  0  0  2  0  0  0  0  0  0
  196.9060  171.3160  146.2640 N   0  0  0  0  0  0  0  0  0  0  0  0
  194.1230  173.2750  144.5730 C   0  0  0  0  0  3  0  0  0  0  0  0
  194.4600  168.6130  145.1150 C   0  0  0  0  0  2  0  0  0  0  0  0
  192.5480  171.6210  143.8830 N   0  0  0  0  0  0  0  0  0  0  0  0
  193.1820  169.1640  144.4110 C   0  0  1  0  0  3  0  0  0  0  0  0
  196.7630  173.7760  146.0300 C   0  0  0  0  0  1  0  0  0  0  0  0
  195.2780  169.8420  145.3610 C   0  0  0  0  0  0  0  0  0  0  0  0
  196.4470  170.0350  146.0950 C   0  0  0  0  0  3  0  0  0  0  0  0
  192.9660  172.9650  144.0400 N   0  0  0  0  0  0  0  0  0  0  0  0
  193.4400  170.5900  144.2290 N   0  0  0  0  0  0  0  0  0  0  0  0
  196.2360  172.4070  145.7670 C   0  0  0  0  0  0  0  0  0  0  0  0
  193.0300  168.5510  143.1680 O   0  0  0  0  0  1  0  0  0  0  0  0
  194.6450  170.9140  144.8390 C   0  0  0  0  0  0  0  0  0  0  0  0
  195.0430  172.2130  145.0460 C   0  0  0  0  0  0  0  0  0  0  0  0
  1  3  1  0  0  0  0
  2  4  2  0  0  0  0
  3  2  2  0  0  0  0
  4  8  1  0  0  0  0
  5  4  1  0  0  0  0
  6  5  1  0  0  0  0
  7  5  1  0  0  0  0
  8  9  2  0  0  0  0
  8 10  1  0  0  0  0
 10 11  1  0  0  0  0
 12 13  1  0  0  0  0
 13 11  1  0  0  0  0
 14  3  1  0  0  0  0
 14 20  1  0  0  0  0
 15 20  2  0  0  0  0
 15 16  1  0  0  0  0
 16 19  2  0  0  0  0
 17 18  2  0  0  0  0
 19 18  1  0  0  0  0
 20 17  1  0  0  0  0
 21 22  1  6  0  0  0
 21 23  1  0  0  0  0
 21  1  1  0  0  0  0
 23 24  1  0  0  0  0
 24 25  1  0  0  0  0
 26 25  1  0  0  0  0
 26 30  1  0  0  0  0
 28 40  1  0  0  0  0
 29 33  1  0  0  0  0
 30 35  1  0  0  0  0
 30 36  1  0  0  0  0
 31 38  1  6  0  0  0
 31 29  1  0  0  0  0
 33 34  2  0  0  0  0
 34 27  1  0  0  0  0
 35 28  2  0  0  0  0
 36 31  1  0  0  0  0
 36 39  1  0  0  0  0
 37 32  1  0  0  0  0
 37 27  2  0  0  0  0
 39 40  2  0  0  0  0
 39 33  1  0  0  0  0
 40 37  1  0  0  0  0
M  END
>  <MODEL>
5

>  <REMARK>
 VINA RESULT:      -6.9      3.104      5.241
  Name = 
  14 active torsions:
  status: ('A' for Active; 'I' for Inactive)
    1  A    between atoms: C_2  and  C_39
    2  A    between atoms: C_7  and  C_8
    3  A    between atoms: C_7  and  C_31
    4  A    between atoms: C_8  and  C_40
    5  A    between atoms: C_9  and  N_11
    6  A    between atoms: C_9  and  C_37
    7  A    between atoms: C_13  and  C_37
    8  A    between atoms: C_13  and  C_39
    9  A    between atoms: C_14  and  C_30
   10  A    between atoms: C_14  and  C_38
   11  A    between atoms: N_16  and  C_30
   12  A    between atoms: N_20  and  C_31
   13  A    between atoms: N_20  and  C_34
   14  A    between atoms: C_38  and  C_40
                            x       y       z     vdW  Elec       q    Type
                         _______ _______ _______ _____ _____    ______ ____

>  <TORSDO>
F 14

$$$$
=
 OpenBabel11042419293D

 40 43  0  0  1  0  0  0  0  0999 V2000
  193.4960  174.9060  146.6690 C   0  0  0  0  0  2  0  0  0  0  0  0
  192.8170  174.6530  144.3740 C   0  0  0  0  0  0  0  0  0  0  0  0
  193.6990  174.3660  145.2880 C   0  0  0  0  0  0  0  0  0  0  0  0
  191.9150  174.9330  143.4600 C   0  0  0  0  0  0  0  0  0  0  0  0
  192.1120  176.1180  142.5540 C   0  0  0  0  0  3  0  0  0  0  0  0
  193.5320  176.1800  142.0240 C   0  0  0  0  0  1  0  0  0  0  0  0
  191.7470  177.4220  143.2440 C   0  0  0  0  0  1  0  0  0  0  0  0
  190.7280  174.0590  143.2720 C   0  0  0  0  0  0  0  0  0  0  0  0
  190.5990  172.9060  143.9270 C   0  0  0  0  0  2  0  0  0  0  0  0
  189.6420  174.4570  142.3210 C   0  0  0  0  0  2  0  0  0  0  0  0
  189.7490  173.6990  141.0040 C   0  0  0  0  0  2  0  0  0  0  0  0
  188.5880  172.6700  139.2520 C   0  0  0  0  0  1  0  0  0  0  0  0
  188.4440  173.5870  140.3700 N   0  0  0  0  0  2  0  0  0  0  0  0
  194.7450  173.4360  144.9720 N   0  0  0  0  0  2  0  0  0  0  0  0
  196.9720  174.1340  144.2600 C   0  0  0  0  0  3  0  0  0  0  0  0
  197.9410  174.2470  143.3110 N   0  0  0  0  0  0  0  0  0  0  0  0
  195.5280  173.0920  142.6410 C   0  0  0  0  0  3  0  0  0  0  0  0
  196.5320  173.2170  141.6800 C   0  0  0  0  0  3  0  0  0  0  0  0
  197.7460  173.8060  142.0390 C   0  0  0  0  0  3  0  0  0  0  0  0
  195.7380  173.5590  143.9440 C   0  0  0  0  0  0  0  0  0  0  0  0
  192.9290  176.3150  146.6110 C   0  0  2  0  0  3  0  0  0  0  0  0
  193.8740  177.2190  147.1010 O   0  0  0  0  0  1  0  0  0  0  0  0
  191.6550  176.3840  147.4400 C   0  0  0  0  0  2  0  0  0  0  0  0
  190.8620  175.0930  147.3190 C   0  0  0  0  0  2  0  0  0  0  0  0
  189.5180  175.3710  146.6770 C   0  0  0  0  0  2  0  0  0  0  0  0
  189.0500  176.7630  147.0510 C   0  0  0  0  0  2  0  0  0  0  0  0
  184.2250  178.8570  143.4430 N   0  0  0  0  0  0  0  0  0  0  0  0
  187.7570  177.4700  143.6620 C   0  0  0  0  0  3  0  0  0  0  0  0
  184.8970  178.6700  147.2020 C   0  0  0  0  0  2  0  0  0  0  0  0
  188.1960  177.2920  146.0000 N   0  0  0  0  0  0  0  0  0  0  0  0
  186.2940  178.0840  147.5730 C   0  0  1  0  0  3  0  0  0  0  0  0
  185.6800  178.2150  141.5460 C   0  0  0  0  0  1  0  0  0  0  0  0
  184.9340  178.7310  145.7060 C   0  0  0  0  0  0  0  0  0  0  0  0
  183.9350  179.0110  144.7740 C   0  0  0  0  0  3  0  0  0  0  0  0
  188.5460  177.0990  144.6420 N   0  0  0  0  0  0  0  0  0  0  0  0
  187.0070  177.9800  146.3020 N   0  0  0  0  0  0  0  0  0  0  0  0
  185.4470  178.4070  143.0060 C   0  0  0  0  0  0  0  0  0  0  0  0
  186.9650  178.9680  148.4170 O   0  0  0  0  0  1  0  0  0  0  0  0
  186.1450  178.3290  145.2700 C   0  0  0  0  0  0  0  0  0  0  0  0
  186.4470  178.1020  143.9480 C   0  0  0  0  0  0  0  0  0  0  0  0
  2  3  2  0  0  0  0
  3  1  1  0  0  0  0
  4  2  2  0  0  0  0
  5  7  1  0  0  0  0
  5  4  1  0  0  0  0
  6  5  1  0  0  0  0
  8  4  1  0  0  0  0
  8  9  2  0  0  0  0
 10  8  1  0  0  0  0
 11 10  1  0  0  0  0
 12 13  1  0  0  0  0
 13 11  1  0  0  0  0
 14  3  1  0  0  0  0
 16 15  2  0  0  0  0
 17 20  2  0  0  0  0
 18 19  2  0  0  0  0
 18 17  1  0  0  0  0
 19 16  1  0  0  0  0
 20 15  1  0  0  0  0
 20 14  1  0  0  0  0
 21  1  1  0  0  0  0
 21 22  1  1  0  0  0
 21 23  1  0  0  0  0
 24 23  1  0  0  0  0
 25 26  1  0  0  0  0
 25 24  1  0  0  0  0
 27 34  1  0  0  0  0
 28 40  1  0  0  0  0
 28 35  2  0  0  0  0
 29 31  1  0  0  0  0
 30 36  1  0  0  0  0
 30 26  1  0  0  0  0
 31 38  1  1  0  0  0
 32 37  1  0  0  0  0
 33 29  1  0  0  0  0
 34 33  2  0  0  0  0
 35 30  1  0  0  0  0
 36 31  1  0  0  0  0
 37 27  2  0  0  0  0
 37 40  1  0  0  0  0
 39 33  1  0  0  0  0
 39 36  1  0  0  0  0
 40 39  2  0  0  0  0
M  END
>  <MODEL>
6

>  <REMARK>
 VINA RESULT:      -6.8      2.056      9.260
  Name = 
  14 active torsions:
  status: ('A' for Active; 'I' for Inactive)
    1  A    between atoms: C_2  and  C_39
    2  A    between atoms: C_7  and  C_8
    3  A    between atoms: C_7  and  C_31
    4  A    between atoms: C_8  and  C_40
    5  A    between atoms: C_9  and  N_11
    6  A    between atoms: C_9  and  C_37
    7  A    between atoms: C_13  and  C_37
    8  A    between atoms: C_13  and  C_39
    9  A    between atoms: C_14  and  C_30
   10  A    between atoms: C_14  and  C_38
   11  A    between atoms: N_16  and  C_30
   12  A    between atoms: N_20  and  C_31
   13  A    between atoms: N_20  and  C_34
   14  A    between atoms: C_38  and  C_40
                            x       y       z     vdW  Elec       q    Type
                         _______ _______ _______ _____ _____    ______ ____

>  <TORSDO>
F 14

$$$$
=
 OpenBabel11042419293D

 40 43  0  0  1  0  0  0  0  0999 V2000
  194.8000  175.1530  146.1190 C   0  0  0  0  0  2  0  0  0  0  0  0
  193.7330  174.3300  144.1250 C   0  0  0  0  0  0  0  0  0  0  0  0
  194.7500  174.2410  144.9340 C   0  0  0  0  0  0  0  0  0  0  0  0
  192.6960  174.4130  143.3210 C   0  0  0  0  0  0  0  0  0  0  0  0
  192.7680  175.2860  142.0970 C   0  0  0  0  0  3  0  0  0  0  0  0
  193.6790  174.6860  141.0420 C   0  0  0  0  0  1  0  0  0  0  0  0
  193.2110  176.6990  142.4370 C   0  0  0  0  0  1  0  0  0  0  0  0
  191.4710  173.6120  143.5760 C   0  0  0  0  0  0  0  0  0  0  0  0
  191.5240  172.4360  144.2010 C   0  0  0  0  0  2  0  0  0  0  0  0
  190.1350  174.1120  143.1210 C   0  0  0  0  0  2  0  0  0  0  0  0
  189.1320  172.9730  142.9790 C   0  0  0  0  0  2  0  0  0  0  0  0
  189.4680  172.2590  140.7770 C   0  0  0  0  0  1  0  0  0  0  0  0
  188.5470  172.9700  141.6470 N   0  0  0  0  0  2  0  0  0  0  0  0
  195.7010  173.1850  144.7360 N   0  0  0  0  0  2  0  0  0  0  0  0
  196.9220  171.3580  145.7990 C   0  0  0  0  0  3  0  0  0  0  0  0
  196.9580  170.1430  146.4090 N   0  0  0  0  0  0  0  0  0  0  0  0
  194.5350  171.1580  145.5720 C   0  0  0  0  0  3  0  0  0  0  0  0
  194.5900  169.9120  146.1980 C   0  0  0  0  0  3  0  0  0  0  0  0
  195.8270  169.4160  146.6140 C   0  0  0  0  0  3  0  0  0  0  0  0
  195.7080  171.8920  145.3580 C   0  0  0  0  0  0  0  0  0  0  0  0
  193.8300  176.3100  145.9400 C   0  0  2  0  0  3  0  0  0  0  0  0
  194.5410  177.5090  145.8710 O   0  0  0  0  0  1  0  0  0  0  0  0
  192.8580  176.3420  147.1110 C   0  0  0  0  0  2  0  0  0  0  0  0
  191.5580  175.6420  146.7520 C   0  0  0  0  0  2  0  0  0  0  0  0
  190.7340  176.5210  145.8330 C   0  0  0  0  0  2  0  0  0  0  0  0
  189.4860  176.9880  146.5530 C   0  0  0  0  0  2  0  0  0  0  0  0
  184.2320  178.6330  143.3340 N   0  0  0  0  0  0  0  0  0  0  0  0
  187.9290  177.7530  143.2900 C   0  0  0  0  0  3  0  0  0  0  0  0
  185.1220  178.2640  147.0330 C   0  0  0  0  0  2  0  0  0  0  0  0
  188.5120  177.4660  145.5850 N   0  0  0  0  0  0  0  0  0  0  0  0
  186.6040  177.8580  147.2960 C   0  0  1  0  0  3  0  0  0  0  0  0
  185.6590  178.3480  141.3310 C   0  0  0  0  0  1  0  0  0  0  0  0
  185.0700  178.4410  145.5470 C   0  0  0  0  0  0  0  0  0  0  0  0
  183.9940  178.6430  144.6830 C   0  0  0  0  0  3  0  0  0  0  0  0
  188.8130  177.4270  144.2030 N   0  0  0  0  0  0  0  0  0  0  0  0
  187.2560  177.9520  145.9920 N   0  0  0  0  0  0  0  0  0  0  0  0
  185.4790  178.3960  142.8100 C   0  0  0  0  0  0  0  0  0  0  0  0
  187.1890  178.7640  148.1800 O   0  0  0  0  0  1  0  0  0  0  0  0
  186.3010  178.2500  145.0290 C   0  0  0  0  0  0  0  0  0  0  0  0
  186.5610  178.1670  143.6810 C   0  0  0  0  0  0  0  0  0  0  0  0
  2  3  2  0  0  0  0
  3  1  1  0  0  0  0
  4  8  1  0  0  0  0
  4  2  2  0  0  0  0
  5  7  1  0  0  0  0
  5  4  1  0  0  0  0
  6  5  1  0  0  0  0
  8  9  2  0  0  0  0
 10  8  1  0  0  0  0
 11 10  1  0  0  0  0
 12 13  1  0  0  0  0
 13 11  1  0  0  0  0
 14  3  1  0  0  0  0
 14 20  1  0  0  0  0
 15 16  1  0  0  0  0
 16 19  2  0  0  0  0
 17 18  2  0  0  0  0
 18 19  1  0  0  0  0
 20 17  1  0  0  0  0
 20 15  2  0  0  0  0
 21 22  1  1  0  0  0
 21  1  1  0  0  0  0
 21 23  1  0  0  0  0
 24 23  1  0  0  0  0
 25 26  1  0  0  0  0
 25 24  1  0  0  0  0
 27 34  1  0  0  0  0
 28 40  1  0  0  0  0
 28 35  2  0  0  0  0
 29 31  1  0  0  0  0
 30 36  1  0  0  0  0
 30 26  1  0  0  0  0
 31 38  1  1  0  0  0
 32 37  1  0  0  0  0
 33 29  1  0  0  0  0
 34 33  2  0  0  0  0
 35 30  1  0  0  0  0
 36 31  1  0  0  0  0
 37 27  2  0  0  0  0
 37 40  1  0  0  0  0
 39 33  1  0  0  0  0
 39 36  1  0  0  0  0
 40 39  2  0  0  0  0
M  END
>  <MODEL>
7

>  <REMARK>
 VINA RESULT:      -6.7      2.302      9.293
  Name = 
  14 active torsions:
  status: ('A' for Active; 'I' for Inactive)
    1  A    between atoms: C_2  and  C_39
    2  A    between atoms: C_7  and  C_8
    3  A    between atoms: C_7  and  C_31
    4  A    between atoms: C_8  and  C_40
    5  A    between atoms: C_9  and  N_11
    6  A    between atoms: C_9  and  C_37
    7  A    between atoms: C_13  and  C_37
    8  A    between atoms: C_13  and  C_39
    9  A    between atoms: C_14  and  C_30
   10  A    between atoms: C_14  and  C_38
   11  A    between atoms: N_16  and  C_30
   12  A    between atoms: N_20  and  C_31
   13  A    between atoms: N_20  and  C_34
   14  A    between atoms: C_38  and  C_40
                            x       y       z     vdW  Elec       q    Type
                         _______ _______ _______ _____ _____    ______ ____

>  <TORSDO>
F 14

$$$$
=
 OpenBabel11042419293D

 40 43  0  0  1  0  0  0  0  0999 V2000
  187.4110  174.2360  142.0460 C   0  0  0  0  0  2  0  0  0  0  0  0
  188.4060  176.0410  143.2900 C   0  0  0  0  0  0  0  0  0  0  0  0
  187.3120  175.5150  142.8170 C   0  0  0  0  0  0  0  0  0  0  0  0
  189.5110  176.5580  143.7780 C   0  0  0  0  0  0  0  0  0  0  0  0
  190.2600  177.5990  142.9910 C   0  0  0  0  0  3  0  0  0  0  0  0
  190.9570  178.5900  143.9050 C   0  0  0  0  0  1  0  0  0  0  0  0
  189.3530  178.3290  142.0140 C   0  0  0  0  0  1  0  0  0  0  0  0
  190.0020  176.1670  145.1250 C   0  0  0  0  0  0  0  0  0  0  0  0
  189.2460  176.3100  146.2120 C   0  0  0  0  0  2  0  0  0  0  0  0
  191.3810  175.6070  145.2900 C   0  0  0  0  0  2  0  0  0  0  0  0
  192.0270  176.0920  146.5830 C   0  0  0  0  0  2  0  0  0  0  0  0
  193.9240  177.0450  145.6000 C   0  0  0  0  0  1  0  0  0  0  0  0
  193.4760  175.9940  146.4970 N   0  0  0  0  0  2  0  0  0  0  0  0
  186.0530  176.1030  143.1720 N   0  0  0  0  0  2  0  0  0  0  0  0
  185.7190  178.4430  143.7810 C   0  0  0  0  0  3  0  0  0  0  0  0
  185.4710  179.4120  144.7030 N   0  0  0  0  0  0  0  0  0  0  0  0
  185.6270  176.7840  145.5220 C   0  0  0  0  0  3  0  0  0  0  0  0
  185.3750  177.7910  146.4540 C   0  0  0  0  0  3  0  0  0  0  0  0
  185.3010  179.1160  146.0190 C   0  0  0  0  0  3  0  0  0  0  0  0
  185.8100  177.1030  144.1710 C   0  0  0  0  0  0  0  0  0  0  0  0
  188.7310  174.1690  141.2950 C   0  0  2  0  0  3  0  0  0  0  0  0
  188.4920  174.2600  139.9220 O   0  0  0  0  0  1  0  0  0  0  0  0
  189.4340  172.8600  141.6220 C   0  0  0  0  0  2  0  0  0  0  0  0
  189.0890  172.3980  143.0280 C   0  0  0  0  0  2  0  0  0  0  0  0
  190.3420  172.3500  143.8780 C   0  0  0  0  0  2  0  0  0  0  0  0
  191.5440  172.0620  143.0020 C   0  0  0  0  0  2  0  0  0  0  0  0
  197.1340  174.8610  144.2680 N   0  0  0  0  0  0  0  0  0  0  0  0
  194.3770  172.4740  145.3390 C   0  0  0  0  0  3  0  0  0  0  0  0
  194.5120  175.2030  141.5080 C   0  0  0  0  0  2  0  0  0  0  0  0
  192.7390  172.6230  143.6120 N   0  0  0  0  0  0  0  0  0  0  0  0
  193.2680  174.2800  141.6900 C   0  0  1  0  0  3  0  0  0  0  0  0
  197.1250  173.4240  146.2830 C   0  0  0  0  0  1  0  0  0  0  0  0
  195.3110  174.9560  142.7500 C   0  0  0  0  0  0  0  0  0  0  0  0
  196.5980  175.3570  143.1080 C   0  0  0  0  0  3  0  0  0  0  0  0
  193.2500  172.0660  144.8090 N   0  0  0  0  0  0  0  0  0  0  0  0
  193.4200  173.7040  143.0240 N   0  0  0  0  0  0  0  0  0  0  0  0
  196.4640  173.9630  145.0610 C   0  0  0  0  0  0  0  0  0  0  0  0
  192.1040  175.0450  141.6380 O   0  0  0  0  0  1  0  0  0  0  0  0
  194.6400  174.1050  143.5530 C   0  0  0  0  0  0  0  0  0  0  0  0
  195.1750  173.5390  144.6860 C   0  0  0  0  0  0  0  0  0  0  0  0
  1  3  1  0  0  0  0
  2  4  2  0  0  0  0
  3 14  1  0  0  0  0
  3  2  2  0  0  0  0
  4  8  1  0  0  0  0
  5  4  1  0  0  0  0
  5  6  1  0  0  0  0
  7  5  1  0  0  0  0
  8 10  1  0  0  0  0
  8  9  2  0  0  0  0
 10 11  1  0  0  0  0
 12 13  1  0  0  0  0
 13 11  1  0  0  0  0
 14 20  1  0  0  0  0
 15 20  2  0  0  0  0
 15 16  1  0  0  0  0
 16 19  2  0  0  0  0
 17 18  2  0  0  0  0
 19 18  1  0  0  0  0
 20 17  1  0  0  0  0
 21 22  1  6  0  0  0
 21 23  1  0  0  0  0
 21  1  1  0  0  0  0
 23 24  1  0  0  0  0
 24 25  1  0  0  0  0
 26 30  1  0  0  0  0
 26 25  1  0  0  0  0
 27 37  1  0  0  0  0
 29 31  1  0  0  0  0
 29 33  1  0  0  0  0
 30 35  1  0  0  0  0
 31 38  1  1  0  0  0
 31 36  1  0  0  0  0
 33 34  1  0  0  0  0
 33 39  2  0  0  0  0
 34 27  2  0  0  0  0
 35 28  2  0  0  0  0
 36 39  1  0  0  0  0
 36 30  1  0  0  0  0
 37 32  1  0  0  0  0
 39 40  1  0  0  0  0
 40 37  2  0  0  0  0
 40 28  1  0  0  0  0
M  END
>  <MODEL>
8

>  <REMARK>
 VINA RESULT:      -6.7      2.451      4.654
  Name = 
  14 active torsions:
  status: ('A' for Active; 'I' for Inactive)
    1  A    between atoms: C_2  and  C_39
    2  A    between atoms: C_7  and  C_8
    3  A    between atoms: C_7  and  C_31
    4  A    between atoms: C_8  and  C_40
    5  A    between atoms: C_9  and  N_11
    6  A    between atoms: C_9  and  C_37
    7  A    between atoms: C_13  and  C_37
    8  A    between atoms: C_13  and  C_39
    9  A    between atoms: C_14  and  C_30
   10  A    between atoms: C_14  and  C_38
   11  A    between atoms: N_16  and  C_30
   12  A    between atoms: N_20  and  C_31
   13  A    between atoms: N_20  and  C_34
   14  A    between atoms: C_38  and  C_40
                            x       y       z     vdW  Elec       q    Type
                         _______ _______ _______ _____ _____    ______ ____

>  <TORSDO>
F 14

$$$$
=
 OpenBabel11042419293D

 40 43  0  0  1  0  0  0  0  0999 V2000
  190.2030  176.6290  147.2380 C   0  0  0  0  0  2  0  0  0  0  0  0
  189.2630  175.9930  145.1170 C   0  0  0  0  0  0  0  0  0  0  0  0
  189.0600  176.1650  146.3910 C   0  0  0  0  0  0  0  0  0  0  0  0
  189.4690  175.8360  143.8280 C   0  0  0  0  0  0  0  0  0  0  0  0
  189.8480  174.4820  143.2910 C   0  0  0  0  0  3  0  0  0  0  0  0
  189.8360  173.4290  144.3850 C   0  0  0  0  0  1  0  0  0  0  0  0
  191.1990  174.5070  142.5960 C   0  0  0  0  0  1  0  0  0  0  0  0
  189.2800  176.9680  142.8850 C   0  0  0  0  0  0  0  0  0  0  0  0
  190.0660  178.0420  142.9170 C   0  0  0  0  0  2  0  0  0  0  0  0
  188.1770  176.9290  141.8720 C   0  0  0  0  0  2  0  0  0  0  0  0
  186.8200  177.1840  142.5160 C   0  0  0  0  0  2  0  0  0  0  0  0
  185.5290  179.0410  143.1150 C   0  0  0  0  0  1  0  0  0  0  0  0
  186.2380  178.4180  142.0110 N   0  0  0  0  0  2  0  0  0  0  0  0
  187.7250  176.0410  146.9020 N   0  0  0  0  0  2  0  0  0  0  0  0
  185.5000  176.7270  146.1710 C   0  0  0  0  0  3  0  0  0  0  0  0
  184.4840  177.6310  146.1260 N   0  0  0  0  0  0  0  0  0  0  0  0
  186.7870  178.2590  147.5060 C   0  0  0  0  0  3  0  0  0  0  0  0
  185.7360  179.1750  147.4490 C   0  0  0  0  0  3  0  0  0  0  0  0
  184.5790  178.8380  146.7450 C   0  0  0  0  0  3  0  0  0  0  0  0
  186.6810  177.0230  146.8570 C   0  0  0  0  0  0  0  0  0  0  0  0
  191.3450  175.6270  147.1860 C   0  0  2  0  0  3  0  0  0  0  0  0
  191.5660  175.1040  148.4610 O   0  0  0  0  0  1  0  0  0  0  0  0
  192.6010  176.3170  146.6750 C   0  0  0  0  0  2  0  0  0  0  0  0
  193.4780  175.3420  145.9070 C   0  0  0  0  0  2  0  0  0  0  0  0
  194.8880  175.8880  145.8000 C   0  0  0  0  0  2  0  0  0  0  0  0
  195.8370  174.7790  145.3930 C   0  0  0  0  0  2  0  0  0  0  0  0
  194.2030  174.1010  139.2650 N   0  0  0  0  0  0  0  0  0  0  0  0
  194.3790  172.6290  142.7640 C   0  0  0  0  0  3  0  0  0  0  0  0
  196.0450  176.7730  141.2830 C   0  0  0  0  0  2  0  0  0  0  0  0
  195.4820  174.2940  144.0690 N   0  0  0  0  0  0  0  0  0  0  0  0
  196.2180  176.4270  142.7940 C   0  0  1  0  0  3  0  0  0  0  0  0
  193.2840  171.9230  139.9990 C   0  0  0  0  0  1  0  0  0  0  0  0
  195.4050  175.5440  140.7180 C   0  0  0  0  0  0  0  0  0  0  0  0
  194.8540  175.2910  139.4620 C   0  0  0  0  0  3  0  0  0  0  0  0
  194.8060  173.0580  143.9280 N   0  0  0  0  0  0  0  0  0  0  0  0
  195.7790  175.0390  142.9140 N   0  0  0  0  0  0  0  0  0  0  0  0
  194.0470  173.1750  140.2670 C   0  0  0  0  0  0  0  0  0  0  0  0
  197.5630  176.5270  143.1470 O   0  0  0  0  0  1  0  0  0  0  0  0
  195.2850  174.6140  141.6870 C   0  0  0  0  0  0  0  0  0  0  0  0
  194.5820  173.4410  141.5410 C   0  0  0  0  0  0  0  0  0  0  0  0
  2  3  2  0  0  0  0
  3 14  1  0  0  0  0
  3  1  1  0  0  0  0
  4  2  2  0  0  0  0
  5  4  1  0  0  0  0
  5  6  1  0  0  0  0
  7  5  1  0  0  0  0
  8  9  2  0  0  0  0
  8  4  1  0  0  0  0
 10 11  1  0  0  0  0
 10  8  1  0  0  0  0
 13 11  1  0  0  0  0
 13 12  1  0  0  0  0
 15 20  1  0  0  0  0
 16 15  2  0  0  0  0
 16 19  1  0  0  0  0
 18 17  1  0  0  0  0
 19 18  2  0  0  0  0
 20 14  1  0  0  0  0
 20 17  2  0  0  0  0
 21  1  1  0  0  0  0
 21 22  1  1  0  0  0
 23 21  1  0  0  0  0
 24 23  1  0  0  0  0
 25 24  1  0  0  0  0
 26 25  1  0  0  0  0
 27 34  2  0  0  0  0
 27 37  1  0  0  0  0
 28 35  2  0  0  0  0
 29 31  1  0  0  0  0
 30 26  1  0  0  0  0
 31 36  1  0  0  0  0
 31 38  1  6  0  0  0
 32 37  1  0  0  0  0
 33 29  1  0  0  0  0
 33 39  2  0  0  0  0
 34 33  1  0  0  0  0
 35 30  1  0  0  0  0
 36 30  1  0  0  0  0
 37 40  2  0  0  0  0
 39 36  1  0  0  0  0
 40 39  1  0  0  0  0
 40 28  1  0  0  0  0
M  END
>  <MODEL>
9

>  <REMARK>
 VINA RESULT:      -6.6      1.720      2.523
  Name = 
  14 active torsions:
  status: ('A' for Active; 'I' for Inactive)
    1  A    between atoms: C_2  and  C_39
    2  A    between atoms: C_7  and  C_8
    3  A    between atoms: C_7  and  C_31
    4  A    between atoms: C_8  and  C_40
    5  A    between atoms: C_9  and  N_11
    6  A    between atoms: C_9  and  C_37
    7  A    between atoms: C_13  and  C_37
    8  A    between atoms: C_13  and  C_39
    9  A    between atoms: C_14  and  C_30
   10  A    between atoms: C_14  and  C_38
   11  A    between atoms: N_16  and  C_30
   12  A    between atoms: N_20  and  C_31
   13  A    between atoms: N_20  and  C_34
   14  A    between atoms: C_38  and  C_40
                            x       y       z     vdW  Elec       q    Type
                         _______ _______ _______ _____ _____    ______ ____

>  <TORSDO>
F 14

$$$$
