=
 OpenBabel11042415503D

 34 38  0  0  1  0  0  0  0  0999 V2000
  190.4450  175.6780  144.9660 C   0  0  1  0  0  3  0  0  0  0  0  0
  190.4920  174.7020  143.8330 C   0  0  0  0  0  0  0  0  0  0  0  0
  190.0150  173.4590  142.1550 C   0  0  0  0  0  0  0  0  0  0  0  0
  192.2750  176.8580  145.8060 C   0  0  0  0  0  2  0  0  0  0  0  0
  192.3160  175.7120  142.6630 C   0  0  0  0  0  2  0  0  0  0  0  0
  192.3970  176.7850  143.7760 C   0  0  2  0  0  3  0  0  0  0  0  0
  193.4580  176.6660  144.8630 C   0  0  2  0  0  3  0  0  0  0  0  0
  191.2980  173.5790  142.0360 N   0  0  0  0  0  0  0  0  0  0  0  0
  191.7550  174.3930  143.1520 C   0  0  2  0  0  3  0  0  0  0  0  0
  191.2760  176.8810  144.7380 N   0  0  1  0  0  0  0  0  0  0  0  0
  189.4670  174.1610  143.2620 N   0  0  0  0  0  0  0  0  0  0  0  0
  189.0480  176.0740  145.3380 C   0  0  0  0  0  0  0  0  0  0  0  0
  187.3030  176.2410  147.0100 C   0  0  0  0  0  3  0  0  0  0  0  0
  186.8530  176.9300  144.7240 C   0  0  0  0  0  0  0  0  0  0  0  0
  186.4280  176.7530  146.0480 C   0  0  0  0  0  3  0  0  0  0  0  0
  188.6110  175.8990  146.6540 C   0  0  0  0  0  3  0  0  0  0  0  0
  188.1670  176.5880  144.3760 C   0  0  0  0  0  3  0  0  0  0  0  0
  184.0670  178.2260  142.6530 C   0  0  0  0  0  0  0  0  0  0  0  0
  185.9490  177.4510  143.7380 N   0  0  0  0  0  0  0  0  0  0  0  0
  184.7160  179.3010  144.7680 C   0  0  0  0  0  1  0  0  0  0  0  0
  184.6080  177.9810  144.0220 C   0  0  1  0  0  3  0  0  0  0  0  0
  186.2230  177.3990  142.3630 N   0  0  0  0  0  2  0  0  0  0  0  0
  182.9340  178.7090  142.3860 O   0  0  0  0  0  0  0  0  0  0  0  0
  185.0620  177.8280  141.6800 C   0  0  0  0  0  0  0  0  0  0  0  0
  185.0780  178.2190  140.4490 N   0  0  0  0  0  2  0  0  0  0  0  0
  189.7930  171.7950  140.3360 O   0  0  0  0  0  0  0  0  0  0  0  0
  189.1970  172.7030  141.2030 C   0  0  0  0  0  0  0  0  0  0  0  0
  187.9510  172.8740  141.1650 O   0  0  0  0  0  1  0  0  0  0  0  0
  193.9950  175.3100  144.9810 N   0  0  0  0  0  0  0  0  0  0  0  0
  193.6110  174.8270  146.1900 O   0  0  0  0  0  1  0  0  0  0  0  0
  195.4450  175.4280  145.0330 C   0  0  0  0  0  2  0  0  0  0  0  0
  195.7760  174.9320  142.7250 O   0  0  0  0  0  0  0  0  0  0  0  0
  195.9840  175.7280  143.6770 C   0  0  0  0  0  0  0  0  0  0  0  0
  196.6890  176.9030  143.4550 O   0  0  0  0  0  1  0  0  0  0  0  0
  1 12  1  6  0  0  0
  2  1  1  0  0  0  0
  3 11  1  0  0  0  0
  6  5  1  6  0  0  0
  6 10  1  0  0  0  0
  6  7  1  0  0  0  0
  7 29  1  1  0  0  0
  7  4  1  0  0  0  0
  8  3  2  0  0  0  0
  8  9  1  0  0  0  0
  9  5  1  6  0  0  0
  9  2  1  0  0  0  0
 10  1  1  0  0  0  0
 10  4  1  1  0  0  0
 11  2  2  0  0  0  0
 12 16  1  0  0  0  0
 14 15  2  0  0  0  0
 15 13  1  0  0  0  0
 16 13  2  0  0  0  0
 17 14  1  0  0  0  0
 17 12  2  0  0  0  0
 18 21  1  0  0  0  0
 19 21  1  0  0  0  0
 19 14  1  0  0  0  0
 21 20  1  1  0  0  0
 22 19  1  0  0  0  0
 23 18  2  0  0  0  0
 24 22  1  0  0  0  0
 24 18  1  0  0  0  0
 25 24  2  0  0  0  0
 26 27  2  0  0  0  0
 27  3  1  0  0  0  0
 28 27  1  0  0  0  0
 29 31  1  0  0  0  0
 29 30  1  0  0  0  0
 32 33  2  0  0  0  0
 33 31  1  0  0  0  0
 34 33  1  0  0  0  0
M  END
>  <MODEL>
1

>  <REMARK>
 VINA RESULT:      -7.8      0.000      0.000
  Name = 
  6 active torsions:
  status: ('A' for Active; 'I' for Inactive)
    1  A    between atoms: N_3  and  C_5
    2  A    between atoms: N_3  and  C_24
    3  A    between atoms: C_5  and  C_27
    4  A    between atoms: C_6  and  C_7
    5  A    between atoms: N_8  and  C_17
    6  A    between atoms: C_12  and  C_14
                            x       y       z     vdW  Elec       q    Type
                         _______ _______ _______ _____ _____    ______ ____

>  <TORSDO>
F 6

$$$$
=
 OpenBabel11042415503D

 34 38  0  0  1  0  0  0  0  0999 V2000
  191.8640  175.1160  145.0010 C   0  0  1  0  0  3  0  0  0  0  0  0
  191.8290  174.0110  143.9930 C   0  0  0  0  0  0  0  0  0  0  0  0
  191.2210  172.5330  142.5660 C   0  0  0  0  0  0  0  0  0  0  0  0
  193.6800  176.5270  145.3930 C   0  0  0  0  0  2  0  0  0  0  0  0
  193.3490  174.9990  142.4350 C   0  0  0  0  0  2  0  0  0  0  0  0
  193.4980  176.2070  143.3920 C   0  0  2  0  0  3  0  0  0  0  0  0
  194.7190  176.3070  144.2980 C   0  0  2  0  0  3  0  0  0  0  0  0
  192.4530  172.7330  142.2270 N   0  0  0  0  0  0  0  0  0  0  0  0
  192.9970  173.7140  143.1550 C   0  0  2  0  0  3  0  0  0  0  0  0
  192.5330  176.3390  144.5060 N   0  0  1  0  0  0  0  0  0  0  0  0
  190.7850  173.3260  143.6610 N   0  0  0  0  0  0  0  0  0  0  0  0
  190.5090  175.4500  145.5480 C   0  0  0  0  0  0  0  0  0  0  0  0
  188.8550  175.2220  147.3040 C   0  0  0  0  0  3  0  0  0  0  0  0
  188.3360  176.5240  145.3190 C   0  0  0  0  0  0  0  0  0  0  0  0
  187.9640  176.0100  146.5700 C   0  0  0  0  0  3  0  0  0  0  0  0
  190.1250  174.9400  146.7920 C   0  0  0  0  0  3  0  0  0  0  0  0
  189.6130  176.2390  144.8140 C   0  0  0  0  0  3  0  0  0  0  0  0
  186.3120  178.4100  142.8540 C   0  0  0  0  0  0  0  0  0  0  0  0
  187.4160  177.3290  144.5660 N   0  0  0  0  0  0  0  0  0  0  0  0
  186.6080  175.9730  142.6920 C   0  0  0  0  0  1  0  0  0  0  0  0
  187.2580  177.2840  143.1060 C   0  0  1  0  0  3  0  0  0  0  0  0
  186.6420  178.3390  145.1560 N   0  0  0  0  0  2  0  0  0  0  0  0
  185.8580  178.7500  141.7290 O   0  0  0  0  0  0  0  0  0  0  0  0
  185.9930  179.0430  144.1160 C   0  0  0  0  0  0  0  0  0  0  0  0
  184.9630  179.7960  144.3150 N   0  0  0  0  0  2  0  0  0  0  0  0
  189.4380  172.0810  140.9100 O   0  0  0  0  0  0  0  0  0  0  0  0
  190.3420  171.6040  141.8510 C   0  0  0  0  0  0  0  0  0  0  0  0
  190.4020  170.3690  142.0870 O   0  0  0  0  0  1  0  0  0  0  0  0
  195.3930  175.0210  144.4790 N   0  0  0  0  0  0  0  0  0  0  0  0
  195.3390  174.7190  145.8010 O   0  0  0  0  0  1  0  0  0  0  0  0
  196.7990  175.2290  144.1670 C   0  0  0  0  0  2  0  0  0  0  0  0
  196.5850  173.7350  142.3220 O   0  0  0  0  0  1  0  0  0  0  0  0
  197.0830  174.8000  142.7690 C   0  0  0  0  0  0  0  0  0  0  0  0
  197.8710  175.5940  141.9470 O   0  0  0  0  0  0  0  0  0  0  0  0
  1 12  1  6  0  0  0
  2  1  1  0  0  0  0
  3 11  1  0  0  0  0
  6  5  1  1  0  0  0
  6  7  1  0  0  0  0
  6 10  1  0  0  0  0
  7 29  1  1  0  0  0
  7  4  1  0  0  0  0
  8  3  2  0  0  0  0
  8  9  1  0  0  0  0
  9  5  1  6  0  0  0
  9  2  1  0  0  0  0
 10  1  1  0  0  0  0
 10  4  1  1  0  0  0
 11  2  2  0  0  0  0
 12 16  1  0  0  0  0
 14 15  2  0  0  0  0
 15 13  1  0  0  0  0
 16 13  2  0  0  0  0
 17 14  1  0  0  0  0
 17 12  2  0  0  0  0
 18 21  1  0  0  0  0
 18 24  1  0  0  0  0
 19 22  1  0  0  0  0
 19 14  1  0  0  0  0
 21 20  1  1  0  0  0
 21 19  1  0  0  0  0
 23 18  2  0  0  0  0
 24 25  2  0  0  0  0
 24 22  1  0  0  0  0
 26 27  2  0  0  0  0
 27 28  1  0  0  0  0
 27  3  1  0  0  0  0
 29 30  1  0  0  0  0
 31 29  1  0  0  0  0
 32 33  1  0  0  0  0
 33 31  1  0  0  0  0
 34 33  2  0  0  0  0
M  END
>  <MODEL>
2

>  <REMARK>
 VINA RESULT:      -7.6      1.704      2.135
  Name = 
  6 active torsions:
  status: ('A' for Active; 'I' for Inactive)
    1  A    between atoms: N_3  and  C_5
    2  A    between atoms: N_3  and  C_24
    3  A    between atoms: C_5  and  C_27
    4  A    between atoms: C_6  and  C_7
    5  A    between atoms: N_8  and  C_17
    6  A    between atoms: C_12  and  C_14
                            x       y       z     vdW  Elec       q    Type
                         _______ _______ _______ _____ _____    ______ ____

>  <TORSDO>
F 6

$$$$
=
 OpenBabel11042415503D

 34 38  0  0  1  0  0  0  0  0999 V2000
  188.6650  177.0770  144.5300 C   0  0  1  0  0  3  0  0  0  0  0  0
  188.7680  176.2960  143.2580 C   0  0  0  0  0  0  0  0  0  0  0  0
  189.3070  174.8920  141.7320 C   0  0  0  0  0  0  0  0  0  0  0  0
  186.7730  178.2330  145.2540 C   0  0  0  0  0  2  0  0  0  0  0  0
  186.4630  175.6750  143.1210 C   0  0  0  0  0  2  0  0  0  0  0  0
  186.2040  176.4630  144.4280 C   0  0  2  0  0  3  0  0  0  0  0  0
  185.5960  177.8580  144.3590 C   0  0  2  0  0  3  0  0  0  0  0  0
  188.1110  175.2260  141.3700 N   0  0  0  0  0  0  0  0  0  0  0  0
  187.6350  176.2140  142.3270 C   0  0  2  0  0  3  0  0  0  0  0  0
  187.3720  176.9000  145.2250 N   0  0  1  0  0  0  0  0  0  0  0  0
  189.7520  175.5300  142.9210 N   0  0  0  0  0  0  0  0  0  0  0  0
  189.8020  176.8120  145.4700 C   0  0  0  0  0  0  0  0  0  0  0  0
  190.6430  176.6720  147.7380 C   0  0  0  0  0  3  0  0  0  0  0  0
  192.1480  176.2940  145.8680 C   0  0  0  0  0  0  0  0  0  0  0  0
  191.9180  176.3750  147.2490 C   0  0  0  0  0  3  0  0  0  0  0  0
  189.5870  176.8930  146.8490 C   0  0  0  0  0  3  0  0  0  0  0  0
  191.0820  176.5140  144.9830 C   0  0  0  0  0  3  0  0  0  0  0  0
  195.6080  175.1850  145.1420 C   0  0  0  0  0  0  0  0  0  0  0  0
  193.4600  175.9940  145.3700 N   0  0  0  0  0  0  0  0  0  0  0  0
  193.8000  173.5770  145.5850 C   0  0  0  0  0  1  0  0  0  0  0  0
  194.3490  174.9570  145.9110 C   0  0  1  0  0  3  0  0  0  0  0  0
  194.0770  176.7570  144.3670 N   0  0  0  0  0  2  0  0  0  0  0  0
  196.6660  174.5100  145.2490 O   0  0  0  0  0  0  0  0  0  0  0  0
  195.4110  176.3040  144.2460 C   0  0  0  0  0  0  0  0  0  0  0  0
  196.1430  176.5470  143.2100 N   0  0  0  0  0  2  0  0  0  0  0  0
  189.9630  173.7630  139.6290 O   0  0  0  0  0  0  0  0  0  0  0  0
  190.1110  173.9070  141.0040 C   0  0  0  0  0  0  0  0  0  0  0  0
  190.9380  173.1870  141.6190 O   0  0  0  0  0  1  0  0  0  0  0  0
  185.7390  178.4720  143.0380 N   0  0  0  0  0  0  0  0  0  0  0  0
  186.0640  179.7750  143.2300 O   0  0  0  0  0  1  0  0  0  0  0  0
  184.4200  178.4690  142.4220 C   0  0  0  0  0  2  0  0  0  0  0  0
  185.6770  178.2550  140.4080 O   0  0  0  0  0  1  0  0  0  0  0  0
  184.5420  178.2720  140.9510 C   0  0  0  0  0  0  0  0  0  0  0  0
  183.4040  178.0730  140.1810 O   0  0  0  0  0  0  0  0  0  0  0  0
  1 10  1  0  0  0  0
  1 12  1  1  0  0  0
  2  1  1  0  0  0  0
  3 11  1  0  0  0  0
  6  5  1  6  0  0  0
  6 10  1  0  0  0  0
  7 29  1  6  0  0  0
  7  6  1  0  0  0  0
  7  4  1  0  0  0  0
  8  3  2  0  0  0  0
  8  9  1  0  0  0  0
  9  5  1  1  0  0  0
  9  2  1  0  0  0  0
 10  4  1  6  0  0  0
 11  2  2  0  0  0  0
 12 16  1  0  0  0  0
 14 15  2  0  0  0  0
 15 13  1  0  0  0  0
 16 13  2  0  0  0  0
 17 12  2  0  0  0  0
 17 14  1  0  0  0  0
 18 23  2  0  0  0  0
 18 21  1  0  0  0  0
 19 14  1  0  0  0  0
 19 21  1  0  0  0  0
 21 20  1  6  0  0  0
 22 19  1  0  0  0  0
 24 22  1  0  0  0  0
 24 18  1  0  0  0  0
 25 24  2  0  0  0  0
 26 27  2  0  0  0  0
 27 28  1  0  0  0  0
 27  3  1  0  0  0  0
 29 30  1  0  0  0  0
 31 29  1  0  0  0  0
 32 33  1  0  0  0  0
 33 31  1  0  0  0  0
 34 33  2  0  0  0  0
M  END
>  <MODEL>
3

>  <REMARK>
 VINA RESULT:      -7.4      1.886      7.785
  Name = 
  6 active torsions:
  status: ('A' for Active; 'I' for Inactive)
    1  A    between atoms: N_3  and  C_5
    2  A    between atoms: N_3  and  C_24
    3  A    between atoms: C_5  and  C_27
    4  A    between atoms: C_6  and  C_7
    5  A    between atoms: N_8  and  C_17
    6  A    between atoms: C_12  and  C_14
                            x       y       z     vdW  Elec       q    Type
                         _______ _______ _______ _____ _____    ______ ____

>  <TORSDO>
F 6

$$$$
=
 OpenBabel11042415503D

 34 38  0  0  1  0  0  0  0  0999 V2000
  190.2730  174.2190  143.6880 C   0  0  1  0  0  3  0  0  0  0  0  0
  191.6840  174.7070  143.5780 C   0  0  0  0  0  0  0  0  0  0  0  0
  193.6020  175.5840  143.9500 C   0  0  0  0  0  0  0  0  0  0  0  0
  189.3700  172.4250  142.5020 C   0  0  0  0  0  2  0  0  0  0  0  0
  192.6700  172.6000  143.0270 C   0  0  0  0  0  2  0  0  0  0  0  0
  191.2620  171.9590  143.0880 C   0  0  2  0  0  3  0  0  0  0  0  0
  190.5020  171.6820  141.7970 C   0  0  2  0  0  3  0  0  0  0  0  0
  193.8820  174.7240  143.0260 N   0  0  0  0  0  0  0  0  0  0  0  0
  192.6350  174.0690  142.6600 C   0  0  2  0  0  3  0  0  0  0  0  0
  190.1620  172.7440  143.6900 N   0  0  1  0  0  0  0  0  0  0  0  0
  192.2350  175.5960  144.3360 N   0  0  0  0  0  0  0  0  0  0  0  0
  189.5470  174.7970  144.8650 C   0  0  0  0  0  0  0  0  0  0  0  0
  189.1500  174.8420  147.2540 C   0  0  0  0  0  3  0  0  0  0  0  0
  187.8640  176.2940  145.7920 C   0  0  0  0  0  0  0  0  0  0  0  0
  188.1670  175.8190  147.0750 C   0  0  0  0  0  3  0  0  0  0  0  0
  189.8370  174.3290  146.1500 C   0  0  0  0  0  3  0  0  0  0  0  0
  188.5600  175.7780  144.6890 C   0  0  0  0  0  3  0  0  0  0  0  0
  184.8690  178.4730  145.6800 C   0  0  0  0  0  0  0  0  0  0  0  0
  186.8510  177.2940  145.6110 N   0  0  0  0  0  0  0  0  0  0  0  0
  185.8810  177.7720  147.8100 C   0  0  0  0  0  1  0  0  0  0  0  0
  185.5960  177.3680  146.3730 C   0  0  1  0  0  3  0  0  0  0  0  0
  186.9130  178.2530  144.5880 N   0  0  0  0  0  2  0  0  0  0  0  0
  183.7350  178.9190  146.0000 O   0  0  0  0  0  0  0  0  0  0  0  0
  185.6860  178.9550  144.5870 C   0  0  0  0  0  0  0  0  0  0  0  0
  185.5360  180.1040  144.0160 N   0  0  0  0  0  2  0  0  0  0  0  0
  194.3440  177.0860  145.7720 O   0  0  0  0  0  1  0  0  0  0  0  0
  194.6170  176.4370  144.5740 C   0  0  0  0  0  0  0  0  0  0  0  0
  195.7400  176.5870  144.0280 O   0  0  0  0  0  0  0  0  0  0  0  0
  191.0040  172.4650  140.6680 N   0  0  0  0  0  0  0  0  0  0  0  0
  190.0220  173.3260  140.3030 O   0  0  0  0  0  1  0  0  0  0  0  0
  191.1720  171.5440  139.5530 C   0  0  0  0  0  2  0  0  0  0  0  0
  192.4500  169.5360  139.6710 O   0  0  0  0  0  0  0  0  0  0  0  0
  192.4500  170.7930  139.6950 C   0  0  0  0  0  0  0  0  0  0  0  0
  193.6490  171.4830  139.8210 O   0  0  0  0  0  1  0  0  0  0  0  0
  1 10  1  0  0  0  0
  1 12  1  1  0  0  0
  2  1  1  0  0  0  0
  2 11  2  0  0  0  0
  3 11  1  0  0  0  0
  3 27  1  0  0  0  0
  6  5  1  6  0  0  0
  6 10  1  0  0  0  0
  7 29  1  6  0  0  0
  7  4  1  0  0  0  0
  7  6  1  0  0  0  0
  8  3  2  0  0  0  0
  9  8  1  0  0  0  0
  9  5  1  1  0  0  0
  9  2  1  0  0  0  0
 10  4  1  6  0  0  0
 12 16  1  0  0  0  0
 14 15  2  0  0  0  0
 15 13  1  0  0  0  0
 16 13  2  0  0  0  0
 17 12  2  0  0  0  0
 17 14  1  0  0  0  0
 18 23  2  0  0  0  0
 18 21  1  0  0  0  0
 19 14  1  0  0  0  0
 19 21  1  0  0  0  0
 21 20  1  1  0  0  0
 22 19  1  0  0  0  0
 24 22  1  0  0  0  0
 24 18  1  0  0  0  0
 25 24  2  0  0  0  0
 27 26  1  0  0  0  0
 28 27  2  0  0  0  0
 30 29  1  0  0  0  0
 31 33  1  0  0  0  0
 31 29  1  0  0  0  0
 32 33  2  0  0  0  0
 33 34  1  0  0  0  0
M  END
>  <MODEL>
4

>  <REMARK>
 VINA RESULT:      -7.3      2.020      4.858
  Name = 
  6 active torsions:
  status: ('A' for Active; 'I' for Inactive)
    1  A    between atoms: N_3  and  C_5
    2  A    between atoms: N_3  and  C_24
    3  A    between atoms: C_5  and  C_27
    4  A    between atoms: C_6  and  C_7
    5  A    between atoms: N_8  and  C_17
    6  A    between atoms: C_12  and  C_14
                            x       y       z     vdW  Elec       q    Type
                         _______ _______ _______ _____ _____    ______ ____

>  <TORSDO>
F 6

$$$$
=
 OpenBabel11042415503D

 34 38  0  0  1  0  0  0  0  0999 V2000
  189.8170  175.3540  143.3390 C   0  0  1  0  0  3  0  0  0  0  0  0
  189.8300  175.8200  144.7610 C   0  0  0  0  0  0  0  0  0  0  0  0
  190.3920  176.3250  146.7650 C   0  0  0  0  0  0  0  0  0  0  0  0
  188.3720  176.1280  141.6790 C   0  0  0  0  0  2  0  0  0  0  0  0
  189.0540  178.0410  144.3380 C   0  0  0  0  0  2  0  0  0  0  0  0
  188.9730  177.6940  142.8320 C   0  0  2  0  0  3  0  0  0  0  0  0
  187.6260  177.3500  142.2080 C   0  0  2  0  0  3  0  0  0  0  0  0
  189.3770  177.1040  146.5730 N   0  0  0  0  0  0  0  0  0  0  0  0
  188.8780  176.8330  145.2340 C   0  0  2  0  0  3  0  0  0  0  0  0
  189.6230  176.4500  142.3650 N   0  0  1  0  0  0  0  0  0  0  0  0
  190.7190  175.5130  145.6460 N   0  0  0  0  0  0  0  0  0  0  0  0
  191.0270  174.5450  142.9790 C   0  0  0  0  0  0  0  0  0  0  0  0
  192.0290  172.3930  142.5000 C   0  0  0  0  0  3  0  0  0  0  0  0
  193.4150  174.3880  142.5310 C   0  0  0  0  0  0  0  0  0  0  0  0
  193.2780  173.0030  142.3610 C   0  0  0  0  0  3  0  0  0  0  0  0
  190.9050  173.1620  142.8110 C   0  0  0  0  0  3  0  0  0  0  0  0
  192.2820  175.1540  142.8400 C   0  0  0  0  0  3  0  0  0  0  0  0
  196.5370  176.3780  142.6690 C   0  0  0  0  0  0  0  0  0  0  0  0
  194.7010  175.0100  142.3920 N   0  0  0  0  0  0  0  0  0  0  0  0
  195.7070  175.1350  144.6230 C   0  0  0  0  0  1  0  0  0  0  0  0
  195.3100  175.9130  143.3790 C   0  0  1  0  0  3  0  0  0  0  0  0
  195.4680  174.9010  141.2230 N   0  0  0  0  0  2  0  0  0  0  0  0
  197.4040  177.1630  143.1380 O   0  0  0  0  0  0  0  0  0  0  0  0
  196.5760  175.7690  141.3560 C   0  0  0  0  0  0  0  0  0  0  0  0
  197.6390  175.6660  140.6310 N   0  0  0  0  0  2  0  0  0  0  0  0
  191.4550  177.5120  148.6600 O   0  0  0  0  0  1  0  0  0  0  0  0
  191.1630  176.3180  148.0120 C   0  0  0  0  0  0  0  0  0  0  0  0
  191.5660  175.2310  148.5000 O   0  0  0  0  0  0  0  0  0  0  0  0
  186.6290  176.9520  143.2020 N   0  0  0  0  0  0  0  0  0  0  0  0
  186.3140  175.6540  142.9620 O   0  0  0  0  0  1  0  0  0  0  0  0
  185.4240  177.7200  142.9280 C   0  0  0  0  0  2  0  0  0  0  0  0
  185.5920  179.8950  143.8890 O   0  0  0  0  0  0  0  0  0  0  0  0
  185.1880  178.7100  144.0150 C   0  0  0  0  0  0  0  0  0  0  0  0
  184.4920  178.3350  145.1560 O   0  0  0  0  0  1  0  0  0  0  0  0
  1 12  1  6  0  0  0
  1  2  1  0  0  0  0
  2  9  1  0  0  0  0
  2 11  2  0  0  0  0
  3 27  1  0  0  0  0
  4  7  1  0  0  0  0
  6  5  1  1  0  0  0
  7  6  1  0  0  0  0
  7 29  1  1  0  0  0
  8  3  2  0  0  0  0
  9  5  1  6  0  0  0
  9  8  1  0  0  0  0
 10  4  1  6  0  0  0
 10  6  1  0  0  0  0
 10  1  1  0  0  0  0
 11  3  1  0  0  0  0
 13 16  1  0  0  0  0
 14 17  2  0  0  0  0
 15 13  2  0  0  0  0
 15 14  1  0  0  0  0
 16 12  2  0  0  0  0
 17 12  1  0  0  0  0
 18 23  2  0  0  0  0
 18 21  1  0  0  0  0
 19 14  1  0  0  0  0
 19 21  1  0  0  0  0
 21 20  1  1  0  0  0
 22 24  1  0  0  0  0
 22 19  1  0  0  0  0
 24 18  1  0  0  0  0
 25 24  2  0  0  0  0
 27 28  2  0  0  0  0
 27 26  1  0  0  0  0
 30 29  1  0  0  0  0
 31 29  1  0  0  0  0
 31 33  1  0  0  0  0
 32 33  2  0  0  0  0
 33 34  1  0  0  0  0
M  END
>  <MODEL>
5

>  <REMARK>
 VINA RESULT:      -7.1      2.388      8.494
  Name = 
  6 active torsions:
  status: ('A' for Active; 'I' for Inactive)
    1  A    between atoms: N_3  and  C_5
    2  A    between atoms: N_3  and  C_24
    3  A    between atoms: C_5  and  C_27
    4  A    between atoms: C_6  and  C_7
    5  A    between atoms: N_8  and  C_17
    6  A    between atoms: C_12  and  C_14
                            x       y       z     vdW  Elec       q    Type
                         _______ _______ _______ _____ _____    ______ ____

>  <TORSDO>
F 6

$$$$
=
 OpenBabel11042415503D

 34 38  0  0  1  0  0  0  0  0999 V2000
  190.3120  174.2180  144.0140 C   0  0  1  0  0  3  0  0  0  0  0  0
  191.7150  174.6990  144.2080 C   0  0  0  0  0  0  0  0  0  0  0  0
  193.4850  175.6830  144.9060 C   0  0  0  0  0  0  0  0  0  0  0  0
  189.7040  172.1730  143.0680 C   0  0  0  0  0  2  0  0  0  0  0  0
  192.7180  172.5440  144.4730 C   0  0  0  0  0  2  0  0  0  0  0  0
  191.3240  171.9030  144.2700 C   0  0  2  0  0  3  0  0  0  0  0  0
  190.9550  171.3120  142.9150 C   0  0  2  0  0  3  0  0  0  0  0  0
  193.9780  174.6350  144.3300 N   0  0  0  0  0  0  0  0  0  0  0  0
  192.8600  173.8840  143.7800 C   0  0  2  0  0  3  0  0  0  0  0  0
  190.1350  172.7830  144.3260 N   0  0  1  0  0  0  0  0  0  0  0  0
  192.0660  175.7530  144.8650 N   0  0  0  0  0  0  0  0  0  0  0  0
  189.3050  175.0400  144.7610 C   0  0  0  0  0  0  0  0  0  0  0  0
  188.4010  175.8200  146.8690 C   0  0  0  0  0  3  0  0  0  0  0  0
  187.3500  176.4910  144.7840 C   0  0  0  0  0  0  0  0  0  0  0  0
  187.4060  176.5230  146.1840 C   0  0  0  0  0  3  0  0  0  0  0  0
  189.3480  175.0770  146.1580 C   0  0  0  0  0  3  0  0  0  0  0  0
  188.3060  175.7460  144.0780 C   0  0  0  0  0  3  0  0  0  0  0  0
  184.3920  178.3560  143.5590 C   0  0  0  0  0  0  0  0  0  0  0  0
  186.3230  177.2100  144.0840 N   0  0  0  0  0  0  0  0  0  0  0  0
  185.7780  179.1990  145.4080 C   0  0  0  0  0  1  0  0  0  0  0  0
  185.2310  177.9550  144.7260 C   0  0  1  0  0  3  0  0  0  0  0  0
  186.1970  177.1750  142.6880 N   0  0  0  0  0  2  0  0  0  0  0  0
  183.3370  179.0440  143.6140 O   0  0  0  0  0  0  0  0  0  0  0  0
  184.9930  177.8340  142.3500 C   0  0  0  0  0  0  0  0  0  0  0  0
  184.7440  178.2740  141.1620 N   0  0  0  0  0  2  0  0  0  0  0  0
  194.0340  177.0580  146.8900 O   0  0  0  0  0  1  0  0  0  0  0  0
  194.3160  176.6830  145.5820 C   0  0  0  0  0  0  0  0  0  0  0  0
  195.2890  177.2070  144.9800 O   0  0  0  0  0  0  0  0  0  0  0  0
  191.7970  171.8170  141.8310 N   0  0  0  0  0  0  0  0  0  0  0  0
  190.9860  172.4670  140.9580 O   0  0  0  0  0  1  0  0  0  0  0  0
  192.3150  170.6580  141.1180 C   0  0  0  0  0  2  0  0  0  0  0  0
  194.5670  171.0700  141.7810 O   0  0  0  0  0  0  0  0  0  0  0  0
  193.6230  170.2430  141.6970 C   0  0  0  0  0  0  0  0  0  0  0  0
  193.7910  168.9500  142.1750 O   0  0  0  0  0  1  0  0  0  0  0  0
  1  2  1  0  0  0  0
  1 10  1  0  0  0  0
  1 12  1  1  0  0  0
  2 11  2  0  0  0  0
  3 27  1  0  0  0  0
  6 10  1  0  0  0  0
  6  5  1  6  0  0  0
  7 29  1  6  0  0  0
  7  4  1  0  0  0  0
  7  6  1  0  0  0  0
  8  3  2  0  0  0  0
  9  2  1  0  0  0  0
  9  8  1  0  0  0  0
  9  5  1  1  0  0  0
 10  4  1  6  0  0  0
 11  3  1  0  0  0  0
 12 16  1  0  0  0  0
 14 15  2  0  0  0  0
 15 13  1  0  0  0  0
 16 13  2  0  0  0  0
 17 12  2  0  0  0  0
 17 14  1  0  0  0  0
 18 23  2  0  0  0  0
 18 21  1  0  0  0  0
 19 21  1  0  0  0  0
 19 14  1  0  0  0  0
 21 20  1  6  0  0  0
 22 19  1  0  0  0  0
 24 22  1  0  0  0  0
 24 18  1  0  0  0  0
 25 24  2  0  0  0  0
 27 26  1  0  0  0  0
 28 27  2  0  0  0  0
 30 29  1  0  0  0  0
 31 33  1  0  0  0  0
 31 29  1  0  0  0  0
 33 32  2  0  0  0  0
 33 34  1  0  0  0  0
M  END
>  <MODEL>
6

>  <REMARK>
 VINA RESULT:      -7.0      2.048      4.483
  Name = 
  6 active torsions:
  status: ('A' for Active; 'I' for Inactive)
    1  A    between atoms: N_3  and  C_5
    2  A    between atoms: N_3  and  C_24
    3  A    between atoms: C_5  and  C_27
    4  A    between atoms: C_6  and  C_7
    5  A    between atoms: N_8  and  C_17
    6  A    between atoms: C_12  and  C_14
                            x       y       z     vdW  Elec       q    Type
                         _______ _______ _______ _____ _____    ______ ____

>  <TORSDO>
F 6

$$$$
=
 OpenBabel11042415503D

 34 38  0  0  1  0  0  0  0  0999 V2000
  188.6960  175.1130  143.5040 C   0  0  1  0  0  3  0  0  0  0  0  0
  189.7480  175.5380  144.4790 C   0  0  0  0  0  0  0  0  0  0  0  0
  191.5860  175.8340  145.5390 C   0  0  0  0  0  0  0  0  0  0  0  0
  186.7440  176.2970  143.0230 C   0  0  0  0  0  2  0  0  0  0  0  0
  189.4200  177.8950  144.2380 C   0  0  0  0  0  2  0  0  0  0  0  0
  188.2920  177.6030  143.2200 C   0  0  2  0  0  3  0  0  0  0  0  0
  186.8360  177.6780  143.6650 C   0  0  2  0  0  3  0  0  0  0  0  0
  190.9100  176.8790  145.8910 N   0  0  0  0  0  0  0  0  0  0  0  0
  189.6080  176.7820  145.2490 C   0  0  2  0  0  3  0  0  0  0  0  0
  188.1660  176.2280  142.6890 N   0  0  1  0  0  0  0  0  0  0  0  0
  190.8980  174.9740  144.6420 N   0  0  0  0  0  0  0  0  0  0  0  0
  189.1420  173.9880  142.6200 C   0  0  0  0  0  0  0  0  0  0  0  0
  189.6970  171.6460  142.3450 C   0  0  0  0  0  3  0  0  0  0  0  0
  189.9160  173.1660  140.4620 C   0  0  0  0  0  0  0  0  0  0  0  0
  190.0250  171.8790  141.0060 C   0  0  0  0  0  3  0  0  0  0  0  0
  189.2590  172.7000  143.1510 C   0  0  0  0  0  3  0  0  0  0  0  0
  189.4720  174.2180  141.2770 C   0  0  0  0  0  3  0  0  0  0  0  0
  190.2750  173.4040  136.7820 C   0  0  0  0  0  0  0  0  0  0  0  0
  190.2580  173.4020  139.0880 N   0  0  0  0  0  0  0  0  0  0  0  0
  188.2240  174.1280  137.9310 C   0  0  0  0  0  1  0  0  0  0  0  0
  189.3770  173.1360  137.9430 C   0  0  1  0  0  3  0  0  0  0  0  0
  191.5400  173.8130  138.6920 N   0  0  0  0  0  2  0  0  0  0  0  0
  189.9490  173.3280  135.5680 O   0  0  0  0  0  0  0  0  0  0  0  0
  191.5830  173.7760  137.2800 C   0  0  0  0  0  0  0  0  0  0  0  0
  192.4760  174.4020  136.5880 N   0  0  0  0  0  2  0  0  0  0  0  0
  193.5390  174.3380  145.8070 O   0  0  0  0  0  0  0  0  0  0  0  0
  192.9580  175.5860  145.9920 C   0  0  0  0  0  0  0  0  0  0  0  0
  193.6140  176.5030  146.5500 O   0  0  0  0  0  1  0  0  0  0  0  0
  186.6850  177.5800  145.1170 N   0  0  0  0  0  0  0  0  0  0  0  0
  185.8880  176.5110  145.3700 O   0  0  0  0  0  1  0  0  0  0  0  0
  185.9380  178.7530  145.5470 C   0  0  0  0  0  2  0  0  0  0  0  0
  184.4460  178.6770  147.4050 O   0  0  0  0  0  0  0  0  0  0  0  0
  185.6380  178.6650  147.0040 C   0  0  0  0  0  0  0  0  0  0  0  0
  186.6750  178.5350  147.9180 O   0  0  0  0  0  1  0  0  0  0  0  0
  1 12  1  6  0  0  0
  1  2  1  0  0  0  0
  2 11  2  0  0  0  0
  2  9  1  0  0  0  0
  3  8  2  0  0  0  0
  3 27  1  0  0  0  0
  4  7  1  0  0  0  0
  6  7  1  0  0  0  0
  6  5  1  1  0  0  0
  7 29  1  1  0  0  0
  9  5  1  6  0  0  0
  9  8  1  0  0  0  0
 10  4  1  1  0  0  0
 10  6  1  0  0  0  0
 10  1  1  0  0  0  0
 11  3  1  0  0  0  0
 12 16  1  0  0  0  0
 13 16  2  0  0  0  0
 14 15  2  0  0  0  0
 14 17  1  0  0  0  0
 15 13  1  0  0  0  0
 17 12  2  0  0  0  0
 18 24  1  0  0  0  0
 18 21  1  0  0  0  0
 19 14  1  0  0  0  0
 21 20  1  6  0  0  0
 21 19  1  0  0  0  0
 22 19  1  0  0  0  0
 23 18  2  0  0  0  0
 24 22  1  0  0  0  0
 25 24  2  0  0  0  0
 26 27  2  0  0  0  0
 27 28  1  0  0  0  0
 29 30  1  0  0  0  0
 29 31  1  0  0  0  0
 31 33  1  0  0  0  0
 33 32  2  0  0  0  0
 33 34  1  0  0  0  0
M  END
>  <MODEL>
7

>  <REMARK>
 VINA RESULT:      -6.9      2.940      7.435
  Name = 
  6 active torsions:
  status: ('A' for Active; 'I' for Inactive)
    1  A    between atoms: N_3  and  C_5
    2  A    between atoms: N_3  and  C_24
    3  A    between atoms: C_5  and  C_27
    4  A    between atoms: C_6  and  C_7
    5  A    between atoms: N_8  and  C_17
    6  A    between atoms: C_12  and  C_14
                            x       y       z     vdW  Elec       q    Type
                         _______ _______ _______ _____ _____    ______ ____

>  <TORSDO>
F 6

$$$$
=
 OpenBabel11042415503D

 34 38  0  0  1  0  0  0  0  0999 V2000
  188.7490  175.1700  143.2080 C   0  0  1  0  0  3  0  0  0  0  0  0
  189.8530  175.8550  143.9500 C   0  0  0  0  0  0  0  0  0  0  0  0
  191.7550  176.4660  144.7240 C   0  0  0  0  0  0  0  0  0  0  0  0
  186.6900  176.1270  142.6680 C   0  0  0  0  0  2  0  0  0  0  0  0
  189.3560  178.0740  143.2120 C   0  0  0  0  0  2  0  0  0  0  0  0
  188.1620  177.5070  142.4060 C   0  0  2  0  0  3  0  0  0  0  0  0
  186.7500  177.6220  142.9660 C   0  0  2  0  0  3  0  0  0  0  0  0
  191.0470  177.5350  144.8940 N   0  0  0  0  0  0  0  0  0  0  0  0
  189.7020  177.2360  144.4250 C   0  0  2  0  0  3  0  0  0  0  0  0
  188.0790  176.0410  142.2180 N   0  0  1  0  0  0  0  0  0  0  0  0
  191.0470  175.3920  144.1200 N   0  0  0  0  0  0  0  0  0  0  0  0
  189.1860  173.8900  142.5630 C   0  0  0  0  0  0  0  0  0  0  0  0
  189.8260  171.5630  142.7710 C   0  0  0  0  0  3  0  0  0  0  0  0
  189.8530  172.6300  140.5880 C   0  0  0  0  0  0  0  0  0  0  0  0
  190.0550  171.5010  141.3930 C   0  0  0  0  0  3  0  0  0  0  0  0
  189.3940  172.7570  143.3550 C   0  0  0  0  0  3  0  0  0  0  0  0
  189.4170  173.8240  141.1820 C   0  0  0  0  0  3  0  0  0  0  0  0
  190.6780  173.0810  137.0040 C   0  0  0  0  0  0  0  0  0  0  0  0
  190.0950  172.5640  139.1750 N   0  0  0  0  0  0  0  0  0  0  0  0
  192.3590  173.4080  138.7700 C   0  0  0  0  0  1  0  0  0  0  0  0
  190.8880  173.5360  138.4100 C   0  0  1  0  0  3  0  0  0  0  0  0
  189.4880  171.6040  138.3520 N   0  0  0  0  0  2  0  0  0  0  0  0
  191.1890  173.6050  135.9790 O   0  0  0  0  0  0  0  0  0  0  0  0
  189.7980  171.9320  137.0120 C   0  0  0  0  0  0  0  0  0  0  0  0
  189.6900  171.0890  136.0400 N   0  0  0  0  0  2  0  0  0  0  0  0
  193.5610  176.4010  146.4150 O   0  0  0  0  0  1  0  0  0  0  0  0
  193.1740  176.3880  145.0810 C   0  0  0  0  0  0  0  0  0  0  0  0
  194.0490  176.3100  144.1800 O   0  0  0  0  0  0  0  0  0  0  0  0
  186.7340  177.8590  144.4100 N   0  0  0  0  0  0  0  0  0  0  0  0
  186.1060  176.8030  144.9860 O   0  0  0  0  0  1  0  0  0  0  0  0
  185.8800  179.0150  144.6420 C   0  0  0  0  0  2  0  0  0  0  0  0
  185.9410  179.1170  147.0230 O   0  0  0  0  0  1  0  0  0  0  0  0
  185.2510  178.9250  145.9890 C   0  0  0  0  0  0  0  0  0  0  0  0
  183.8920  178.6630  146.1040 O   0  0  0  0  0  0  0  0  0  0  0  0
  1 12  1  6  0  0  0
  1  2  1  0  0  0  0
  2 11  2  0  0  0  0
  2  9  1  0  0  0  0
  3  8  2  0  0  0  0
  3 27  1  0  0  0  0
  4  7  1  0  0  0  0
  6  7  1  0  0  0  0
  6  5  1  1  0  0  0
  7 29  1  1  0  0  0
  9  5  1  6  0  0  0
  9  8  1  0  0  0  0
 10  6  1  0  0  0  0
 10  4  1  1  0  0  0
 10  1  1  0  0  0  0
 11  3  1  0  0  0  0
 12 16  1  0  0  0  0
 13 16  2  0  0  0  0
 14 17  1  0  0  0  0
 14 15  2  0  0  0  0
 15 13  1  0  0  0  0
 17 12  2  0  0  0  0
 18 24  1  0  0  0  0
 18 21  1  0  0  0  0
 19 14  1  0  0  0  0
 21 20  1  1  0  0  0
 21 19  1  0  0  0  0
 22 19  1  0  0  0  0
 23 18  2  0  0  0  0
 24 22  1  0  0  0  0
 25 24  2  0  0  0  0
 27 26  1  0  0  0  0
 28 27  2  0  0  0  0
 29 31  1  0  0  0  0
 29 30  1  0  0  0  0
 31 33  1  0  0  0  0
 33 34  2  0  0  0  0
 33 32  1  0  0  0  0
M  END
>  <MODEL>
8

>  <REMARK>
 VINA RESULT:      -6.9      2.939      7.683
  Name = 
  6 active torsions:
  status: ('A' for Active; 'I' for Inactive)
    1  A    between atoms: N_3  and  C_5
    2  A    between atoms: N_3  and  C_24
    3  A    between atoms: C_5  and  C_27
    4  A    between atoms: C_6  and  C_7
    5  A    between atoms: N_8  and  C_17
    6  A    between atoms: C_12  and  C_14
                            x       y       z     vdW  Elec       q    Type
                         _______ _______ _______ _____ _____    ______ ____

>  <TORSDO>
F 6

$$$$
=
 OpenBabel11042415503D

 34 38  0  0  1  0  0  0  0  0999 V2000
  190.2340  174.6420  142.0230 C   0  0  1  0  0  3  0  0  0  0  0  0
  191.1940  173.6540  142.6080 C   0  0  0  0  0  0  0  0  0  0  0  0
  192.5300  172.5830  143.8940 C   0  0  0  0  0  0  0  0  0  0  0  0
  188.6850  174.1850  140.3390 C   0  0  0  0  0  2  0  0  0  0  0  0
  189.8370  171.7130  142.2770 C   0  0  0  0  0  2  0  0  0  0  0  0
  188.7570  172.6140  141.6300 C   0  0  2  0  0  3  0  0  0  0  0  0
  188.6360  172.6770  140.1130 C   0  0  2  0  0  3  0  0  0  0  0  0
  192.1450  171.6520  143.0830 N   0  0  0  0  0  0  0  0  0  0  0  0
  191.2390  172.2670  142.1260 C   0  0  2  0  0  3  0  0  0  0  0  0
  188.8870  174.0810  141.7840 N   0  0  1  0  0  0  0  0  0  0  0  0
  191.9450  173.8530  143.6390 N   0  0  0  0  0  0  0  0  0  0  0  0
  190.1360  175.9050  142.8250 C   0  0  0  0  0  0  0  0  0  0  0  0
  191.1460  177.9660  143.6000 C   0  0  0  0  0  3  0  0  0  0  0  0
  188.9190  177.3550  144.3570 C   0  0  0  0  0  0  0  0  0  0  0  0
  190.0040  178.2430  144.3570 C   0  0  0  0  0  3  0  0  0  0  0  0
  191.2130  176.7970  142.8370 C   0  0  0  0  0  3  0  0  0  0  0  0
  188.9930  176.1850  143.5860 C   0  0  0  0  0  3  0  0  0  0  0  0
  185.7470  178.5030  145.8900 C   0  0  0  0  0  0  0  0  0  0  0  0
  187.7500  177.6400  145.1400 N   0  0  0  0  0  0  0  0  0  0  0  0
  185.8060  177.4720  143.6580 C   0  0  0  0  0  1  0  0  0  0  0  0
  186.5590  178.3460  144.6480 C   0  0  1  0  0  3  0  0  0  0  0  0
  187.6790  177.3650  146.5130 N   0  0  0  0  0  2  0  0  0  0  0  0
  184.6100  179.0410  145.9610 O   0  0  0  0  0  0  0  0  0  0  0  0
  186.4770  177.9280  147.0000 C   0  0  0  0  0  0  0  0  0  0  0  0
  185.9410  177.5760  148.1210 N   0  0  0  0  0  2  0  0  0  0  0  0
  193.9340  173.3980  145.7630 O   0  0  0  0  0  1  0  0  0  0  0  0
  193.4540  172.3370  145.0050 C   0  0  0  0  0  0  0  0  0  0  0  0
  193.8160  171.1640  145.2770 O   0  0  0  0  0  0  0  0  0  0  0  0
  189.8470  172.2200  139.4310 N   0  0  0  0  0  0  0  0  0  0  0  0
  190.3760  173.2900  138.7840 O   0  0  0  0  0  1  0  0  0  0  0  0
  189.4270  171.2870  138.3960 C   0  0  0  0  0  2  0  0  0  0  0  0
  190.7830  169.7450  139.6070 O   0  0  0  0  0  1  0  0  0  0  0  0
  190.1470  169.9920  138.5500 C   0  0  0  0  0  0  0  0  0  0  0  0
  190.0880  169.0410  137.5400 O   0  0  0  0  0  0  0  0  0  0  0  0
  1  2  1  0  0  0  0
  1 12  1  1  0  0  0
  2 11  2  0  0  0  0
  3 27  1  0  0  0  0
  6 10  1  0  0  0  0
  6  5  1  6  0  0  0
  7 29  1  6  0  0  0
  7  4  1  0  0  0  0
  7  6  1  0  0  0  0
  8  3  2  0  0  0  0
  9  5  1  1  0  0  0
  9  2  1  0  0  0  0
  9  8  1  0  0  0  0
 10  4  1  6  0  0  0
 10  1  1  0  0  0  0
 11  3  1  0  0  0  0
 12 16  2  0  0  0  0
 12 17  1  0  0  0  0
 13 15  2  0  0  0  0
 14 15  1  0  0  0  0
 14 19  1  0  0  0  0
 16 13  1  0  0  0  0
 17 14  2  0  0  0  0
 18 23  2  0  0  0  0
 18 24  1  0  0  0  0
 19 22  1  0  0  0  0
 21 20  1  6  0  0  0
 21 19  1  0  0  0  0
 21 18  1  0  0  0  0
 22 24  1  0  0  0  0
 24 25  2  0  0  0  0
 27 28  2  0  0  0  0
 27 26  1  0  0  0  0
 30 29  1  0  0  0  0
 31 33  1  0  0  0  0
 31 29  1  0  0  0  0
 33 32  1  0  0  0  0
 34 33  2  0  0  0  0
M  END
>  <MODEL>
9

>  <REMARK>
 VINA RESULT:      -6.9      2.663      5.748
  Name = 
  6 active torsions:
  status: ('A' for Active; 'I' for Inactive)
    1  A    between atoms: N_3  and  C_5
    2  A    between atoms: N_3  and  C_24
    3  A    between atoms: C_5  and  C_27
    4  A    between atoms: C_6  and  C_7
    5  A    between atoms: N_8  and  C_17
    6  A    between atoms: C_12  and  C_14
                            x       y       z     vdW  Elec       q    Type
                         _______ _______ _______ _____ _____    ______ ____

>  <TORSDO>
F 6

$$$$
