=
 OpenBabel11042419283D

 40 43  0  0  1  0  0  0  0  0999 V2000
  191.3000  176.8370  145.2010 C   0  0  0  0  0  0  0  0  0  0  0  0
  192.9350  175.2370  145.7400 C   0  0  0  0  0  0  0  0  0  0  0  0
  191.9380  175.3330  147.1020 S   0  0  0  0  0  0  0  0  0  0  0  0
  192.4420  176.1330  144.7770 C   0  0  0  0  0  0  0  0  0  0  0  0
  193.0630  176.3620  143.4390 C   0  0  0  0  0  1  0  0  0  0  0  0
  190.8920  176.4890  146.4800 C   0  0  0  0  0  0  0  0  0  0  0  0
  196.3510  173.7900  145.5530 C   0  0  0  0  0  0  0  0  0  0  0  0
  195.3440  174.8250  145.6330 C   0  0  0  0  0  3  0  0  0  0  0  0
  194.0060  172.5480  145.5600 S   0  0  0  0  0  0  0  0  0  0  0  0
  194.1120  174.3430  145.6420 C   0  0  0  0  0  0  0  0  0  0  0  0
  197.5830  174.0520  145.5620 O   0  0  0  0  0  0  0  0  0  0  0  0
  195.8260  172.4010  145.4950 C   0  0  1  0  0  3  0  0  0  0  0  0
  195.6190  170.4670  144.0930 O   0  0  0  0  0  0  0  0  0  0  0  0
  196.2350  171.7320  144.1830 C   0  0  2  0  0  3  0  0  0  0  0  0
  197.0090  170.4590  144.3100 C   0  0  1  0  0  3  0  0  0  0  0  0
  197.3030  170.0000  145.7350 C   0  0  0  0  0  2  0  0  0  0  0  0
  195.9120  168.8260  147.2040 C   0  0  0  0  0  1  0  0  0  0  0  0
  196.6850  168.7090  145.9790 N   0  0  0  0  0  2  0  0  0  0  0  0
  189.7550  177.0260  147.1560 N   0  0  0  0  0  2  0  0  0  0  0  0
  187.5140  178.6100  147.6340 O   0  0  0  0  0  0  0  0  0  0  0  0
  186.0360  177.0890  146.6690 N   0  0  0  0  0  2  0  0  0  0  0  0
  187.3430  177.5010  147.0600 C   0  0  0  0  0  0  0  0  0  0  0  0
  188.4550  176.6490  146.7940 N   0  0  0  0  0  2  0  0  0  0  0  0
  184.9190  177.9030  146.9090 N   0  0  0  0  0  2  0  0  0  0  0  0
  183.7360  178.7620  143.6120 O   0  0  0  0  0  0  0  0  0  0  0  0
  184.1560  177.9100  145.7330 N   0  0  0  0  0  2  0  0  0  0  0  0
  184.4380  178.8050  144.6540 C   0  0  0  0  0  0  0  0  0  0  0  0
  185.5470  179.7990  144.7500 C   0  0  0  0  0  1  0  0  0  0  0  0
  190.5690  177.8290  144.3550 C   0  0  0  0  0  2  0  0  0  0  0  0
  189.6720  177.1080  143.3700 C   0  0  0  0  0  2  0  0  0  0  0  0
  188.2670  177.6630  143.4650 C   0  0  0  0  0  2  0  0  0  0  0  0
  187.0980  176.4540  142.7930 S   0  0  0  0  0  0  0  0  0  0  0  0
  188.2200  175.9850  141.5160 N   0  0  0  0  0  2  0  0  0  0  0  0
  188.1560  174.5380  141.4150 C   0  0  0  0  0  2  0  0  0  0  0  0
  190.9900  172.9780  143.3600 C   0  0  0  0  0  3  0  0  0  0  0  0
  191.9750  172.9050  142.3730 C   0  0  0  0  0  3  0  0  0  0  0  0
  189.7350  173.5060  143.0530 C   0  0  0  0  0  3  0  0  0  0  0  0
  191.6860  173.3690  141.0870 C   0  0  0  0  0  3  0  0  0  0  0  0
  189.4810  173.9520  141.7530 C   0  0  0  0  0  0  0  0  0  0  0  0
  190.4570  173.8810  140.8050 N   0  0  0  0  0  0  0  0  0  0  0  0
  1  6  2  0  0  0  0
  2  3  1  0  0  0  0
  4  1  1  0  0  0  0
  4  2  2  0  0  0  0
  5  4  1  0  0  0  0
  6  3  1  0  0  0  0
  6 19  1  0  0  0  0
  7 11  2  0  0  0  0
  7  8  1  0  0  0  0
  8 10  2  0  0  0  0
  9 10  1  0  0  0  0
 10  2  1  0  0  0  0
 12  7  1  6  0  0  0
 12  9  1  0  0  0  0
 13 15  1  0  0  0  0
 14 13  1  6  0  0  0
 14 15  1  0  0  0  0
 14 12  1  0  0  0  0
 15 16  1  1  0  0  0
 16 18  1  0  0  0  0
 18 17  1  0  0  0  0
 21 24  1  0  0  0  0
 21 22  1  0  0  0  0
 22 20  2  0  0  0  0
 23 22  1  0  0  0  0
 23 19  1  0  0  0  0
 25 27  2  0  0  0  0
 26 24  1  0  0  0  0
 27 28  1  0  0  0  0
 27 26  1  0  0  0  0
 29  1  1  0  0  0  0
 30 31  1  0  0  0  0
 30 29  1  0  0  0  0
 32 31  1  0  0  0  0
 33 32  1  0  0  0  0
 34 33  1  0  0  0  0
 34 39  1  0  0  0  0
 36 35  2  0  0  0  0
 37 35  1  0  0  0  0
 38 36  1  0  0  0  0
 39 37  2  0  0  0  0
 40 38  2  0  0  0  0
 40 39  1  0  0  0  0
M  END
>  <MODEL>
1

>  <REMARK>
 VINA RESULT:      -6.0      0.000      0.000
  Name = 
  15 active torsions:
  status: ('A' for Active; 'I' for Inactive)
    1  A    between atoms: C_1  and  C_12
    2  A    between atoms: C_1  and  C_24
    3  A    between atoms: N_3  and  N_17
    4  A    between atoms: N_3  and  N_34
    5  A    between atoms: N_5  and  S_33
    6  A    between atoms: N_5  and  C_40
    7  A    between atoms: C_6  and  C_24
    8  A    between atoms: C_7  and  C_30
    9  A    between atoms: N_10  and  C_15
   10  A    between atoms: C_12  and  S_33
   11  A    between atoms: N_14  and  C_31
   12  A    between atoms: N_14  and  N_37
   13  A    between atoms: C_15  and  C_32
   14  A    between atoms: C_20  and  C_39
   15  A    between atoms: C_21  and  C_40
                            x       y       z     vdW  Elec       q    Type
                         _______ _______ _______ _____ _____    ______ ____

>  <TORSDO>
F 15

$$$$
=
 OpenBabel11042419283D

 40 43  0  0  1  0  0  0  0  0999 V2000
  188.8400  176.1180  143.2680 C   0  0  0  0  0  0  0  0  0  0  0  0
  191.0990  175.6570  143.7270 C   0  0  0  0  0  0  0  0  0  0  0  0
  190.6750  174.6080  142.4690 S   0  0  0  0  0  0  0  0  0  0  0  0
  189.9700  176.4270  144.0500 C   0  0  0  0  0  0  0  0  0  0  0  0
  189.9300  177.4560  145.1300 C   0  0  0  0  0  1  0  0  0  0  0  0
  189.0830  175.1250  142.3320 C   0  0  0  0  0  0  0  0  0  0  0  0
  194.2420  176.6520  145.4370 C   0  0  0  0  0  0  0  0  0  0  0  0
  192.9200  176.8180  144.8750 C   0  0  0  0  0  3  0  0  0  0  0  0
  193.5520  174.2890  144.4490 S   0  0  0  0  0  0  0  0  0  0  0  0
  192.4470  175.7050  144.3380 C   0  0  0  0  0  0  0  0  0  0  0  0
  194.8460  177.5930  146.0170 O   0  0  0  0  0  0  0  0  0  0  0  0
  194.8180  175.2880  145.3080 C   0  0  1  0  0  3  0  0  0  0  0  0
  196.2510  174.0900  143.8060 O   0  0  0  0  0  0  0  0  0  0  0  0
  196.0930  175.3250  144.4670 C   0  0  2  0  0  3  0  0  0  0  0  0
  197.1590  174.3480  144.8490 C   0  0  1  0  0  3  0  0  0  0  0  0
  196.8380  173.4490  146.0410 C   0  0  0  0  0  2  0  0  0  0  0  0
  195.8980  171.3150  145.8640 C   0  0  0  0  0  1  0  0  0  0  0  0
  197.1330  172.0650  145.7130 N   0  0  0  0  0  2  0  0  0  0  0  0
  188.1290  174.6280  141.3940 N   0  0  0  0  0  2  0  0  0  0  0  0
  188.7860  172.5980  139.6020 O   0  0  0  0  0  0  0  0  0  0  0  0
  188.7710  174.0120  137.7490 N   0  0  0  0  0  2  0  0  0  0  0  0
  188.6240  173.7620  139.1450 C   0  0  0  0  0  0  0  0  0  0  0  0
  188.2910  174.8380  140.0180 N   0  0  0  0  0  2  0  0  0  0  0  0
  189.0930  172.9770  136.8590 N   0  0  0  0  0  2  0  0  0  0  0  0
  192.4570  171.9380  136.0730 O   0  0  0  0  0  0  0  0  0  0  0  0
  190.4840  173.0050  136.6820 N   0  0  0  0  0  2  0  0  0  0  0  0
  191.2120  171.8590  136.2350 C   0  0  0  0  0  0  0  0  0  0  0  0
  190.5200  170.5640  135.9680 C   0  0  0  0  0  1  0  0  0  0  0  0
  187.5220  176.8110  143.3970 C   0  0  0  0  0  2  0  0  0  0  0  0
  187.5270  178.0870  142.5800 C   0  0  0  0  0  2  0  0  0  0  0  0
  186.4770  177.9960  141.4940 C   0  0  0  0  0  2  0  0  0  0  0  0
  184.8450  177.7880  142.2530 S   0  0  0  0  0  0  0  0  0  0  0  0
  185.0980  179.1680  143.3220 N   0  0  0  0  0  2  0  0  0  0  0  0
  184.1920  179.0000  144.4430 C   0  0  0  0  0  2  0  0  0  0  0  0
  185.7560  176.7400  147.0290 C   0  0  0  0  0  3  0  0  0  0  0  0
  186.3280  177.6810  147.8870 C   0  0  0  0  0  3  0  0  0  0  0  0
  185.0600  177.1630  145.8960 C   0  0  0  0  0  3  0  0  0  0  0  0
  186.1880  179.0410  147.5970 C   0  0  0  0  0  3  0  0  0  0  0  0
  184.9490  178.5310  145.6350 C   0  0  0  0  0  0  0  0  0  0  0  0
  185.5060  179.4360  146.4870 N   0  0  0  0  0  0  0  0  0  0  0  0
  1 29  1  0  0  0  0
  1  4  1  0  0  0  0
  2  4  2  0  0  0  0
  2 10  1  0  0  0  0
  3  2  1  0  0  0  0
  4  5  1  0  0  0  0
  6  3  1  0  0  0  0
  6  1  2  0  0  0  0
  7 11  2  0  0  0  0
  8  7  1  0  0  0  0
 10  9  1  0  0  0  0
 10  8  2  0  0  0  0
 12  9  1  6  0  0  0
 12  7  1  0  0  0  0
 13 15  1  0  0  0  0
 14 13  1  6  0  0  0
 14 15  1  0  0  0  0
 14 12  1  0  0  0  0
 15 16  1  1  0  0  0
 18 17  1  0  0  0  0
 18 16  1  0  0  0  0
 19  6  1  0  0  0  0
 21 22  1  0  0  0  0
 22 20  2  0  0  0  0
 22 23  1  0  0  0  0
 23 19  1  0  0  0  0
 24 21  1  0  0  0  0
 25 27  2  0  0  0  0
 26 24  1  0  0  0  0
 27 26  1  0  0  0  0
 28 27  1  0  0  0  0
 30 29  1  0  0  0  0
 31 32  1  0  0  0  0
 31 30  1  0  0  0  0
 32 33  1  0  0  0  0
 33 34  1  0  0  0  0
 34 39  1  0  0  0  0
 35 36  1  0  0  0  0
 37 35  2  0  0  0  0
 38 36  2  0  0  0  0
 39 37  1  0  0  0  0
 39 40  2  0  0  0  0
 40 38  1  0  0  0  0
M  END
>  <MODEL>
2

>  <REMARK>
 VINA RESULT:      -5.8      3.120      6.968
  Name = 
  15 active torsions:
  status: ('A' for Active; 'I' for Inactive)
    1  A    between atoms: C_1  and  C_12
    2  A    between atoms: C_1  and  C_24
    3  A    between atoms: N_3  and  N_17
    4  A    between atoms: N_3  and  N_34
    5  A    between atoms: N_5  and  S_33
    6  A    between atoms: N_5  and  C_40
    7  A    between atoms: C_6  and  C_24
    8  A    between atoms: C_7  and  C_30
    9  A    between atoms: N_10  and  C_15
   10  A    between atoms: C_12  and  S_33
   11  A    between atoms: N_14  and  C_31
   12  A    between atoms: N_14  and  N_37
   13  A    between atoms: C_15  and  C_32
   14  A    between atoms: C_20  and  C_39
   15  A    between atoms: C_21  and  C_40
                            x       y       z     vdW  Elec       q    Type
                         _______ _______ _______ _____ _____    ______ ____

>  <TORSDO>
F 15

$$$$
=
 OpenBabel11042419283D

 40 43  0  0  1  0  0  0  0  0999 V2000
  189.1850  176.1890  142.4390 C   0  0  0  0  0  0  0  0  0  0  0  0
  191.3420  175.6060  143.1700 C   0  0  0  0  0  0  0  0  0  0  0  0
  190.7950  174.2740  142.2820 S   0  0  0  0  0  0  0  0  0  0  0  0
  190.3310  176.5810  143.1570 C   0  0  0  0  0  0  0  0  0  0  0  0
  190.4180  177.8980  143.8520 C   0  0  0  0  0  1  0  0  0  0  0  0
  189.3000  174.9240  141.8820 C   0  0  0  0  0  0  0  0  0  0  0  0
  194.3780  176.6070  145.0600 C   0  0  0  0  0  0  0  0  0  0  0  0
  193.0630  176.7520  144.4760 C   0  0  0  0  0  3  0  0  0  0  0  0
  193.8510  174.3130  143.8350 S   0  0  0  0  0  0  0  0  0  0  0  0
  192.6690  175.6700  143.8240 C   0  0  0  0  0  0  0  0  0  0  0  0
  194.9110  177.5200  145.7440 O   0  0  0  0  0  0  0  0  0  0  0  0
  195.0340  175.2950  144.8220 C   0  0  1  0  0  3  0  0  0  0  0  0
  196.6220  174.2920  143.3330 O   0  0  0  0  0  0  0  0  0  0  0  0
  196.3260  175.4820  144.0270 C   0  0  2  0  0  3  0  0  0  0  0  0
  197.4680  174.5970  144.4150 C   0  0  1  0  0  3  0  0  0  0  0  0
  197.1980  173.6310  145.5650 C   0  0  0  0  0  2  0  0  0  0  0  0
  196.6420  171.3960  145.9750 C   0  0  0  0  0  1  0  0  0  0  0  0
  197.4500  172.2660  145.1370 N   0  0  0  0  0  2  0  0  0  0  0  0
  188.3040  174.2810  141.0870 N   0  0  0  0  0  2  0  0  0  0  0  0
  189.1800  172.1890  139.4700 O   0  0  0  0  0  0  0  0  0  0  0  0
  188.8070  173.3540  137.4870 N   0  0  0  0  0  2  0  0  0  0  0  0
  188.7940  173.2500  138.9080 C   0  0  0  0  0  0  0  0  0  0  0  0
  188.3390  174.3520  139.6880 N   0  0  0  0  0  2  0  0  0  0  0  0
  189.2430  172.2880  136.6870 N   0  0  0  0  0  2  0  0  0  0  0  0
  192.7750  171.6040  136.4320 O   0  0  0  0  0  0  0  0  0  0  0  0
  190.6180  172.4670  136.4770 N   0  0  0  0  0  2  0  0  0  0  0  0
  191.5540  171.3990  136.6490 C   0  0  0  0  0  0  0  0  0  0  0  0
  191.1050  170.0480  137.0930 C   0  0  0  0  0  1  0  0  0  0  0  0
  187.9800  177.0530  142.2540 C   0  0  0  0  0  2  0  0  0  0  0  0
  186.8790  176.6150  143.1990 C   0  0  0  0  0  2  0  0  0  0  0  0
  185.7880  177.6630  143.2230 C   0  0  0  0  0  2  0  0  0  0  0  0
  185.5010  178.1910  144.9320 S   0  0  0  0  0  0  0  0  0  0  0  0
  186.5470  176.9200  145.5660 N   0  0  0  0  0  2  0  0  0  0  0  0
  187.3570  177.5270  146.6060 C   0  0  0  0  0  2  0  0  0  0  0  0
  189.8770  174.7170  146.5220 C   0  0  0  0  0  3  0  0  0  0  0  0
  190.9780  175.3370  147.1160 C   0  0  0  0  0  3  0  0  0  0  0  0
  188.6890  175.4290  146.3460 C   0  0  0  0  0  3  0  0  0  0  0  0
  190.8700  176.6670  147.5320 C   0  0  0  0  0  3  0  0  0  0  0  0
  188.6230  176.7600  146.7660 C   0  0  0  0  0  0  0  0  0  0  0  0
  189.7040  177.3450  147.3520 N   0  0  0  0  0  0  0  0  0  0  0  0
  1  4  1  0  0  0  0
  2 10  1  0  0  0  0
  3  2  1  0  0  0  0
  4  2  2  0  0  0  0
  4  5  1  0  0  0  0
  6  3  1  0  0  0  0
  6  1  2  0  0  0  0
  7 11  2  0  0  0  0
  8  7  1  0  0  0  0
 10  9  1  0  0  0  0
 10  8  2  0  0  0  0
 12  9  1  6  0  0  0
 12  7  1  0  0  0  0
 13 15  1  0  0  0  0
 14 13  1  6  0  0  0
 14 15  1  0  0  0  0
 14 12  1  0  0  0  0
 15 16  1  1  0  0  0
 18 16  1  0  0  0  0
 18 17  1  0  0  0  0
 19  6  1  0  0  0  0
 21 22  1  0  0  0  0
 22 20  2  0  0  0  0
 22 23  1  0  0  0  0
 23 19  1  0  0  0  0
 24 21  1  0  0  0  0
 25 27  2  0  0  0  0
 26 27  1  0  0  0  0
 26 24  1  0  0  0  0
 27 28  1  0  0  0  0
 29  1  1  0  0  0  0
 29 30  1  0  0  0  0
 30 31  1  0  0  0  0
 31 32  1  0  0  0  0
 32 33  1  0  0  0  0
 33 34  1  0  0  0  0
 34 39  1  0  0  0  0
 35 36  1  0  0  0  0
 36 38  2  0  0  0  0
 37 35  2  0  0  0  0
 37 39  1  0  0  0  0
 39 40  2  0  0  0  0
 40 38  1  0  0  0  0
M  END
>  <MODEL>
3

>  <REMARK>
 VINA RESULT:      -5.8      3.096      6.686
  Name = 
  15 active torsions:
  status: ('A' for Active; 'I' for Inactive)
    1  A    between atoms: C_1  and  C_12
    2  A    between atoms: C_1  and  C_24
    3  A    between atoms: N_3  and  N_17
    4  A    between atoms: N_3  and  N_34
    5  A    between atoms: N_5  and  S_33
    6  A    between atoms: N_5  and  C_40
    7  A    between atoms: C_6  and  C_24
    8  A    between atoms: C_7  and  C_30
    9  A    between atoms: N_10  and  C_15
   10  A    between atoms: C_12  and  S_33
   11  A    between atoms: N_14  and  C_31
   12  A    between atoms: N_14  and  N_37
   13  A    between atoms: C_15  and  C_32
   14  A    between atoms: C_20  and  C_39
   15  A    between atoms: C_21  and  C_40
                            x       y       z     vdW  Elec       q    Type
                         _______ _______ _______ _____ _____    ______ ____

>  <TORSDO>
F 15

$$$$
=
 OpenBabel11042419283D

 40 43  0  0  1  0  0  0  0  0999 V2000
  190.7490  174.0120  142.1820 C   0  0  0  0  0  0  0  0  0  0  0  0
  188.6580  175.0660  141.9670 C   0  0  0  0  0  0  0  0  0  0  0  0
  188.4200  173.4830  141.4210 S   0  0  0  0  0  0  0  0  0  0  0  0
  190.0020  175.1930  142.3550 C   0  0  0  0  0  0  0  0  0  0  0  0
  190.6170  176.4510  142.8730 C   0  0  0  0  0  1  0  0  0  0  0  0
  189.9950  172.9630  141.6760 C   0  0  0  0  0  0  0  0  0  0  0  0
  186.1020  177.6310  141.1440 C   0  0  0  0  0  0  0  0  0  0  0  0
  187.1580  176.6750  140.8980 C   0  0  0  0  0  3  0  0  0  0  0  0
  186.7650  176.6300  143.5090 S   0  0  0  0  0  0  0  0  0  0  0  0
  187.5920  176.0930  142.0040 C   0  0  0  0  0  0  0  0  0  0  0  0
  185.5410  178.2650  140.2110 O   0  0  0  0  0  0  0  0  0  0  0  0
  185.7080  177.7850  142.5680 C   0  0  1  0  0  3  0  0  0  0  0  0
  186.3840  179.1890  144.3890 O   0  0  0  0  0  0  0  0  0  0  0  0
  185.9690  179.2140  143.0430 C   0  0  2  0  0  3  0  0  0  0  0  0
  185.0960  179.7060  144.1530 C   0  0  1  0  0  3  0  0  0  0  0  0
  184.0470  178.7190  144.6590 C   0  0  0  0  0  2  0  0  0  0  0  0
  184.5900  177.4470  146.5450 C   0  0  0  0  0  1  0  0  0  0  0  0
  184.0290  178.7150  146.1120 N   0  0  0  0  0  2  0  0  0  0  0  0
  190.4850  171.6470  141.4210 N   0  0  0  0  0  2  0  0  0  0  0  0
  192.5360  171.8900  139.5520 O   0  0  0  0  0  0  0  0  0  0  0  0
  191.4150  170.6540  137.9260 N   0  0  0  0  0  2  0  0  0  0  0  0
  191.5070  171.2420  139.2210 C   0  0  0  0  0  0  0  0  0  0  0  0
  190.4260  171.0900  140.1370 N   0  0  0  0  0  2  0  0  0  0  0  0
  192.4610  170.7770  137.0000 N   0  0  0  0  0  2  0  0  0  0  0  0
  191.3040  173.1220  134.5140 O   0  0  0  0  0  0  0  0  0  0  0  0
  192.2510  171.9740  136.3000 N   0  0  0  0  0  2  0  0  0  0  0  0
  191.4800  172.0210  135.0960 C   0  0  0  0  0  0  0  0  0  0  0  0
  190.8900  170.7820  134.5130 C   0  0  0  0  0  1  0  0  0  0  0  0
  192.1930  173.8780  142.5430 C   0  0  0  0  0  2  0  0  0  0  0  0
  192.3280  173.4990  144.0040 C   0  0  0  0  0  2  0  0  0  0  0  0
  193.7850  173.5610  144.4090 C   0  0  0  0  0  2  0  0  0  0  0  0
  194.1490  175.1980  145.0930 S   0  0  0  0  0  0  0  0  0  0  0  0
  192.9860  174.9790  146.4000 N   0  0  0  0  0  2  0  0  0  0  0  0
  192.3910  176.2780  146.6520 C   0  0  0  0  0  2  0  0  0  0  0  0
  188.7080  177.1040  146.5650 C   0  0  0  0  0  3  0  0  0  0  0  0
  188.1570  175.8810  146.9520 C   0  0  0  0  0  3  0  0  0  0  0  0
  190.0930  177.2410  146.4580 C   0  0  0  0  0  3  0  0  0  0  0  0
  189.0080  174.8090  147.2330 C   0  0  0  0  0  3  0  0  0  0  0  0
  190.9110  176.1430  146.7390 C   0  0  0  0  0  0  0  0  0  0  0  0
  190.3560  174.9600  147.1230 N   0  0  0  0  0  0  0  0  0  0  0  0
  1  4  1  0  0  0  0
  1 29  1  0  0  0  0
  2 10  1  0  0  0  0
  2  4  2  0  0  0  0
  3  6  1  0  0  0  0
  3  2  1  0  0  0  0
  4  5  1  0  0  0  0
  6  1  2  0  0  0  0
  8  7  1  0  0  0  0
  8 10  2  0  0  0  0
 10  9  1  0  0  0  0
 11  7  2  0  0  0  0
 12  7  1  6  0  0  0
 12 14  1  0  0  0  0
 12  9  1  0  0  0  0
 14 15  1  0  0  0  0
 14 13  1  1  0  0  0
 15 13  1  0  0  0  0
 15 16  1  1  0  0  0
 16 18  1  0  0  0  0
 18 17  1  0  0  0  0
 19  6  1  0  0  0  0
 21 22  1  0  0  0  0
 22 20  2  0  0  0  0
 22 23  1  0  0  0  0
 23 19  1  0  0  0  0
 24 21  1  0  0  0  0
 25 27  2  0  0  0  0
 26 24  1  0  0  0  0
 27 26  1  0  0  0  0
 28 27  1  0  0  0  0
 29 30  1  0  0  0  0
 30 31  1  0  0  0  0
 31 32  1  0  0  0  0
 32 33  1  0  0  0  0
 33 34  1  0  0  0  0
 34 39  1  0  0  0  0
 35 36  1  0  0  0  0
 36 38  2  0  0  0  0
 37 35  2  0  0  0  0
 37 39  1  0  0  0  0
 39 40  2  0  0  0  0
 40 38  1  0  0  0  0
M  END
>  <MODEL>
4

>  <REMARK>
 VINA RESULT:      -5.7      3.404     10.115
  Name = 
  15 active torsions:
  status: ('A' for Active; 'I' for Inactive)
    1  A    between atoms: C_1  and  C_12
    2  A    between atoms: C_1  and  C_24
    3  A    between atoms: N_3  and  N_17
    4  A    between atoms: N_3  and  N_34
    5  A    between atoms: N_5  and  S_33
    6  A    between atoms: N_5  and  C_40
    7  A    between atoms: C_6  and  C_24
    8  A    between atoms: C_7  and  C_30
    9  A    between atoms: N_10  and  C_15
   10  A    between atoms: C_12  and  S_33
   11  A    between atoms: N_14  and  C_31
   12  A    between atoms: N_14  and  N_37
   13  A    between atoms: C_15  and  C_32
   14  A    between atoms: C_20  and  C_39
   15  A    between atoms: C_21  and  C_40
                            x       y       z     vdW  Elec       q    Type
                         _______ _______ _______ _____ _____    ______ ____

>  <TORSDO>
F 15

$$$$
=
 OpenBabel11042419283D

 40 43  0  0  1  0  0  0  0  0999 V2000
  189.8670  175.1950  144.8880 C   0  0  0  0  0  0  0  0  0  0  0  0
  192.0890  175.0940  144.1270 C   0  0  0  0  0  0  0  0  0  0  0  0
  191.1360  174.7580  142.7700 S   0  0  0  0  0  0  0  0  0  0  0  0
  191.2310  175.3150  145.2170 C   0  0  0  0  0  0  0  0  0  0  0  0
  191.6880  175.6180  146.6050 C   0  0  0  0  0  1  0  0  0  0  0  0
  189.6560  174.8950  143.5500 C   0  0  0  0  0  0  0  0  0  0  0  0
  195.6610  176.0980  143.9620 C   0  0  0  0  0  0  0  0  0  0  0  0
  194.2250  176.2690  143.9330 C   0  0  0  0  0  3  0  0  0  0  0  0
  194.6170  173.6870  144.3300 S   0  0  0  0  0  0  0  0  0  0  0  0
  193.5700  175.1330  144.1040 C   0  0  0  0  0  0  0  0  0  0  0  0
  196.4540  177.0690  143.8470 O   0  0  0  0  0  0  0  0  0  0  0  0
  196.1270  174.7020  144.1710 C   0  0  1  0  0  3  0  0  0  0  0  0
  196.6060  172.8830  142.6860 O   0  0  0  0  0  0  0  0  0  0  0  0
  196.9360  174.2240  142.9660 C   0  0  2  0  0  3  0  0  0  0  0  0
  197.8900  173.1000  143.2200 C   0  0  1  0  0  3  0  0  0  0  0  0
  197.9410  172.5860  144.6570 C   0  0  0  0  0  2  0  0  0  0  0  0
  196.8690  170.8950  145.8660 C   0  0  0  0  0  1  0  0  0  0  0  0
  197.6700  171.1590  144.6830 N   0  0  0  0  0  2  0  0  0  0  0  0
  188.3780  174.7360  142.9350 N   0  0  0  0  0  2  0  0  0  0  0  0
  188.7550  174.8090  140.1760 O   0  0  0  0  0  0  0  0  0  0  0  0
  188.0530  172.6090  139.8620 N   0  0  0  0  0  2  0  0  0  0  0  0
  188.3260  173.7390  140.6870 C   0  0  0  0  0  0  0  0  0  0  0  0
  188.1110  173.6490  142.0930 N   0  0  0  0  0  2  0  0  0  0  0  0
  188.2570  172.6590  138.4760 N   0  0  0  0  0  2  0  0  0  0  0  0
  191.5290  171.4670  137.5380 O   0  0  0  0  0  0  0  0  0  0  0  0
  189.3210  171.7940  138.1850 N   0  0  0  0  0  2  0  0  0  0  0  0
  190.6000  172.2810  137.7690 C   0  0  0  0  0  0  0  0  0  0  0  0
  190.8460  173.7420  137.5940 C   0  0  0  0  0  1  0  0  0  0  0  0
  188.7530  175.4070  145.8610 C   0  0  0  0  0  2  0  0  0  0  0  0
  188.1680  176.7930  145.6830 C   0  0  0  0  0  2  0  0  0  0  0  0
  186.6660  176.7340  145.8530 C   0  0  0  0  0  2  0  0  0  0  0  0
  186.0380  178.3930  146.2230 S   0  0  0  0  0  0  0  0  0  0  0  0
  184.9330  178.3480  144.8490 N   0  0  0  0  0  2  0  0  0  0  0  0
  185.3800  179.3700  143.9210 C   0  0  0  0  0  2  0  0  0  0  0  0
  187.5190  177.8200  141.2240 C   0  0  0  0  0  3  0  0  0  0  0  0
  186.5640  177.5980  140.2300 C   0  0  0  0  0  3  0  0  0  0  0  0
  187.1390  178.3950  142.4380 C   0  0  0  0  0  3  0  0  0  0  0  0
  185.2360  177.9620  140.4660 C   0  0  0  0  0  3  0  0  0  0  0  0
  185.7990  178.7370  142.6410 C   0  0  0  0  0  0  0  0  0  0  0  0
  184.8830  178.5210  141.6560 N   0  0  0  0  0  0  0  0  0  0  0  0
  1  4  1  0  0  0  0
  1 29  1  0  0  0  0
  2  4  2  0  0  0  0
  3  6  1  0  0  0  0
  3  2  1  0  0  0  0
  4  5  1  0  0  0  0
  6  1  2  0  0  0  0
  8  7  1  0  0  0  0
  8 10  2  0  0  0  0
 10  2  1  0  0  0  0
 10  9  1  0  0  0  0
 11  7  2  0  0  0  0
 12  7  1  6  0  0  0
 12  9  1  0  0  0  0
 13 15  1  0  0  0  0
 14 13  1  6  0  0  0
 14 15  1  0  0  0  0
 14 12  1  0  0  0  0
 15 16  1  1  0  0  0
 16 18  1  0  0  0  0
 18 17  1  0  0  0  0
 19  6  1  0  0  0  0
 20 22  2  0  0  0  0
 21 22  1  0  0  0  0
 22 23  1  0  0  0  0
 23 19  1  0  0  0  0
 24 21  1  0  0  0  0
 25 27  2  0  0  0  0
 26 24  1  0  0  0  0
 27 26  1  0  0  0  0
 28 27  1  0  0  0  0
 30 31  1  0  0  0  0
 30 29  1  0  0  0  0
 31 32  1  0  0  0  0
 33 32  1  0  0  0  0
 34 33  1  0  0  0  0
 35 37  1  0  0  0  0
 36 38  1  0  0  0  0
 36 35  2  0  0  0  0
 37 39  2  0  0  0  0
 38 40  2  0  0  0  0
 39 34  1  0  0  0  0
 40 39  1  0  0  0  0
M  END
>  <MODEL>
5

>  <REMARK>
 VINA RESULT:      -5.6      3.046      5.951
  Name = 
  15 active torsions:
  status: ('A' for Active; 'I' for Inactive)
    1  A    between atoms: C_1  and  C_12
    2  A    between atoms: C_1  and  C_24
    3  A    between atoms: N_3  and  N_17
    4  A    between atoms: N_3  and  N_34
    5  A    between atoms: N_5  and  S_33
    6  A    between atoms: N_5  and  C_40
    7  A    between atoms: C_6  and  C_24
    8  A    between atoms: C_7  and  C_30
    9  A    between atoms: N_10  and  C_15
   10  A    between atoms: C_12  and  S_33
   11  A    between atoms: N_14  and  C_31
   12  A    between atoms: N_14  and  N_37
   13  A    between atoms: C_15  and  C_32
   14  A    between atoms: C_20  and  C_39
   15  A    between atoms: C_21  and  C_40
                            x       y       z     vdW  Elec       q    Type
                         _______ _______ _______ _____ _____    ______ ____

>  <TORSDO>
F 15

$$$$
=
 OpenBabel11042419283D

 40 43  0  0  1  0  0  0  0  0999 V2000
  188.3990  176.8350  143.0360 C   0  0  0  0  0  0  0  0  0  0  0  0
  188.7920  174.9960  141.6270 C   0  0  0  0  0  0  0  0  0  0  0  0
  187.6270  175.9280  140.8310 S   0  0  0  0  0  0  0  0  0  0  0  0
  189.1150  175.6400  142.8320 C   0  0  0  0  0  0  0  0  0  0  0  0
  190.0900  175.1190  143.8350 C   0  0  0  0  0  1  0  0  0  0  0  0
  187.5340  177.1340  141.9950 C   0  0  0  0  0  0  0  0  0  0  0  0
  190.1330  171.5620  141.1690 C   0  0  0  0  0  0  0  0  0  0  0  0
  189.6340  172.7140  141.8870 C   0  0  0  0  0  3  0  0  0  0  0  0
  189.6250  173.4170  139.3410 S   0  0  0  0  0  0  0  0  0  0  0  0
  189.3390  173.7280  141.0900 C   0  0  0  0  0  0  0  0  0  0  0  0
  190.4400  170.4900  141.7540 O   0  0  0  0  0  0  0  0  0  0  0  0
  190.2240  171.7280  139.6950 C   0  0  1  0  0  3  0  0  0  0  0  0
  191.8280  172.2420  137.9900 O   0  0  0  0  0  0  0  0  0  0  0  0
  191.6750  171.5960  139.2330 C   0  0  2  0  0  3  0  0  0  0  0  0
  191.8920  170.8370  137.9630 C   0  0  1  0  0  3  0  0  0  0  0  0
  190.6350  170.2790  137.3000 C   0  0  0  0  0  2  0  0  0  0  0  0
  191.6390  169.3150  135.4210 C   0  0  0  0  0  1  0  0  0  0  0  0
  190.7490  170.3780  135.8560 N   0  0  0  0  0  2  0  0  0  0  0  0
  186.7010  178.2920  141.9240 N   0  0  0  0  0  2  0  0  0  0  0  0
  184.0790  177.9150  142.7840 O   0  0  0  0  0  0  0  0  0  0  0  0
  183.1720  178.1980  140.6570 N   0  0  0  0  0  2  0  0  0  0  0  0
  184.2730  178.1380  141.5590 C   0  0  0  0  0  0  0  0  0  0  0  0
  185.5960  178.3340  141.0640 N   0  0  0  0  0  2  0  0  0  0  0  0
  181.8570  178.0150  141.1080 N   0  0  0  0  0  2  0  0  0  0  0  0
  179.1740  180.4050  140.7920 O   0  0  0  0  0  0  0  0  0  0  0  0
  181.1290  179.1510  140.7250 N   0  0  0  0  0  2  0  0  0  0  0  0
  179.7790  179.3620  141.1470 C   0  0  0  0  0  0  0  0  0  0  0  0
  179.0720  178.3560  141.9910 C   0  0  0  0  0  1  0  0  0  0  0  0
  188.5760  177.7200  144.2280 C   0  0  0  0  0  2  0  0  0  0  0  0
  187.3920  177.5720  145.1620 C   0  0  0  0  0  2  0  0  0  0  0  0
  187.8840  177.4760  146.5900 C   0  0  0  0  0  2  0  0  0  0  0  0
  188.5360  175.8120  146.8890 S   0  0  0  0  0  0  0  0  0  0  0  0
  190.1400  176.4400  147.2650 N   0  0  0  0  0  2  0  0  0  0  0  0
  190.9900  175.2910  147.5170 C   0  0  0  0  0  2  0  0  0  0  0  0
  194.1750  174.6840  145.5850 C   0  0  0  0  0  3  0  0  0  0  0  0
  194.8240  175.9080  145.7610 C   0  0  0  0  0  3  0  0  0  0  0  0
  192.9170  174.4760  146.1510 C   0  0  0  0  0  3  0  0  0  0  0  0
  194.2010  176.9080  146.5120 C   0  0  0  0  0  3  0  0  0  0  0  0
  192.3210  175.5040  146.8880 C   0  0  0  0  0  0  0  0  0  0  0  0
  192.9730  176.6870  147.0570 N   0  0  0  0  0  0  0  0  0  0  0  0
  1 29  1  0  0  0  0
  2  4  2  0  0  0  0
  3  2  1  0  0  0  0
  3  6  1  0  0  0  0
  4  1  1  0  0  0  0
  4  5  1  0  0  0  0
  6  1  2  0  0  0  0
  7 11  2  0  0  0  0
  7  8  1  0  0  0  0
  9 10  1  0  0  0  0
 10  2  1  0  0  0  0
 10  8  2  0  0  0  0
 12  9  1  1  0  0  0
 12  7  1  0  0  0  0
 14 13  1  6  0  0  0
 14 12  1  0  0  0  0
 15 16  1  6  0  0  0
 15 13  1  0  0  0  0
 15 14  1  0  0  0  0
 17 18  1  0  0  0  0
 18 16  1  0  0  0  0
 19  6  1  0  0  0  0
 21 24  1  0  0  0  0
 21 22  1  0  0  0  0
 22 20  2  0  0  0  0
 23 22  1  0  0  0  0
 23 19  1  0  0  0  0
 25 27  2  0  0  0  0
 26 24  1  0  0  0  0
 26 27  1  0  0  0  0
 27 28  1  0  0  0  0
 29 30  1  0  0  0  0
 30 31  1  0  0  0  0
 31 32  1  0  0  0  0
 32 33  1  0  0  0  0
 33 34  1  0  0  0  0
 35 36  2  0  0  0  0
 35 37  1  0  0  0  0
 36 38  1  0  0  0  0
 37 39  2  0  0  0  0
 38 40  2  0  0  0  0
 39 40  1  0  0  0  0
 39 34  1  0  0  0  0
M  END
>  <MODEL>
6

>  <REMARK>
 VINA RESULT:      -5.6      3.852      6.770
  Name = 
  15 active torsions:
  status: ('A' for Active; 'I' for Inactive)
    1  A    between atoms: C_1  and  C_12
    2  A    between atoms: C_1  and  C_24
    3  A    between atoms: N_3  and  N_17
    4  A    between atoms: N_3  and  N_34
    5  A    between atoms: N_5  and  S_33
    6  A    between atoms: N_5  and  C_40
    7  A    between atoms: C_6  and  C_24
    8  A    between atoms: C_7  and  C_30
    9  A    between atoms: N_10  and  C_15
   10  A    between atoms: C_12  and  S_33
   11  A    between atoms: N_14  and  C_31
   12  A    between atoms: N_14  and  N_37
   13  A    between atoms: C_15  and  C_32
   14  A    between atoms: C_20  and  C_39
   15  A    between atoms: C_21  and  C_40
                            x       y       z     vdW  Elec       q    Type
                         _______ _______ _______ _____ _____    ______ ____

>  <TORSDO>
F 15

$$$$
=
 OpenBabel11042419283D

 40 43  0  0  1  0  0  0  0  0999 V2000
  192.1190  173.7910  145.0100 C   0  0  0  0  0  0  0  0  0  0  0  0
  191.1250  172.6030  143.2420 C   0  0  0  0  0  0  0  0  0  0  0  0
  189.8420  173.0850  144.2340 S   0  0  0  0  0  0  0  0  0  0  0  0
  192.3170  173.0780  143.8130 C   0  0  0  0  0  0  0  0  0  0  0  0
  193.6790  172.8400  143.2490 C   0  0  0  0  0  1  0  0  0  0  0  0
  190.7830  173.8880  145.3690 C   0  0  0  0  0  0  0  0  0  0  0  0
  190.8230  169.9180  140.6940 C   0  0  0  0  0  0  0  0  0  0  0  0
  191.0420  170.4970  142.0010 C   0  0  0  0  0  3  0  0  0  0  0  0
  190.5850  172.5430  140.3930 S   0  0  0  0  0  0  0  0  0  0  0  0
  190.9540  171.8170  141.9980 C   0  0  0  0  0  0  0  0  0  0  0  0
  190.8380  168.6730  140.5020 O   0  0  0  0  0  0  0  0  0  0  0  0
  190.5490  170.8940  139.6080 C   0  0  1  0  0  3  0  0  0  0  0  0
  191.7540  172.0720  137.9030 O   0  0  0  0  0  0  0  0  0  0  0  0
  191.6350  170.8180  138.5360 C   0  0  2  0  0  3  0  0  0  0  0  0
  191.1840  171.0450  137.1280 C   0  0  1  0  0  3  0  0  0  0  0  0
  189.6920  171.3100  136.9440 C   0  0  0  0  0  2  0  0  0  0  0  0
  189.9650  172.8270  135.1850 C   0  0  0  0  0  1  0  0  0  0  0  0
  189.3980  171.5370  135.5400 N   0  0  0  0  0  2  0  0  0  0  0  0
  190.2870  174.5710  146.5210 N   0  0  0  0  0  2  0  0  0  0  0  0
  189.5680  177.2010  147.0880 O   0  0  0  0  0  0  0  0  0  0  0  0
  187.2820  176.7800  146.9240 N   0  0  0  0  0  2  0  0  0  0  0  0
  188.6460  176.3680  146.8760 C   0  0  0  0  0  0  0  0  0  0  0  0
  188.9580  175.0080  146.5850 N   0  0  0  0  0  2  0  0  0  0  0  0
  186.9380  178.1100  147.2020 N   0  0  0  0  0  2  0  0  0  0  0  0
  183.7020  178.8500  145.7910 O   0  0  0  0  0  0  0  0  0  0  0  0
  185.5470  178.2150  147.0520 N   0  0  0  0  0  2  0  0  0  0  0  0
  184.9540  178.7950  145.8870 C   0  0  0  0  0  0  0  0  0  0  0  0
  185.7980  179.3470  144.7890 C   0  0  0  0  0  1  0  0  0  0  0  0
  193.2210  174.4200  145.8000 C   0  0  0  0  0  2  0  0  0  0  0  0
  193.7970  175.5970  145.0370 C   0  0  0  0  0  2  0  0  0  0  0  0
  192.6850  176.5590  144.6780 C   0  0  0  0  0  2  0  0  0  0  0  0
  192.6600  176.8030  142.8830 S   0  0  0  0  0  0  0  0  0  0  0  0
  190.9770  176.2870  142.7740 N   0  0  0  0  0  2  0  0  0  0  0  0
  190.1810  177.3240  143.4030 C   0  0  0  0  0  2  0  0  0  0  0  0
  186.6440  176.1570  142.7870 C   0  0  0  0  0  3  0  0  0  0  0  0
  186.1960  177.1380  141.9000 C   0  0  0  0  0  3  0  0  0  0  0  0
  187.9460  176.2130  143.2880 C   0  0  0  0  0  3  0  0  0  0  0  0
  187.0670  178.1650  141.5240 C   0  0  0  0  0  3  0  0  0  0  0  0
  188.7830  177.2610  142.8950 C   0  0  0  0  0  0  0  0  0  0  0  0
  188.3320  178.2040  142.0230 N   0  0  0  0  0  0  0  0  0  0  0  0
  1  6  2  0  0  0  0
  1 29  1  0  0  0  0
  2  4  2  0  0  0  0
  2  3  1  0  0  0  0
  3  6  1  0  0  0  0
  4  1  1  0  0  0  0
  5  4  1  0  0  0  0
  6 19  1  0  0  0  0
  7  8  1  0  0  0  0
  9 10  1  0  0  0  0
 10  8  2  0  0  0  0
 10  2  1  0  0  0  0
 11  7  2  0  0  0  0
 12  9  1  1  0  0  0
 12  7  1  0  0  0  0
 14 13  1  1  0  0  0
 14 12  1  0  0  0  0
 15 16  1  1  0  0  0
 15 13  1  0  0  0  0
 15 14  1  0  0  0  0
 17 18  1  0  0  0  0
 18 16  1  0  0  0  0
 19 23  1  0  0  0  0
 21 24  1  0  0  0  0
 22 21  1  0  0  0  0
 22 20  2  0  0  0  0
 23 22  1  0  0  0  0
 25 27  2  0  0  0  0
 26 24  1  0  0  0  0
 27 26  1  0  0  0  0
 28 27  1  0  0  0  0
 30 29  1  0  0  0  0
 31 30  1  0  0  0  0
 32 31  1  0  0  0  0
 33 32  1  0  0  0  0
 33 34  1  0  0  0  0
 35 37  1  0  0  0  0
 36 35  2  0  0  0  0
 38 36  1  0  0  0  0
 38 40  2  0  0  0  0
 39 37  2  0  0  0  0
 39 34  1  0  0  0  0
 40 39  1  0  0  0  0
M  END
>  <MODEL>
7

>  <REMARK>
 VINA RESULT:      -5.5      3.323      6.034
  Name = 
  15 active torsions:
  status: ('A' for Active; 'I' for Inactive)
    1  A    between atoms: C_1  and  C_12
    2  A    between atoms: C_1  and  C_24
    3  A    between atoms: N_3  and  N_17
    4  A    between atoms: N_3  and  N_34
    5  A    between atoms: N_5  and  S_33
    6  A    between atoms: N_5  and  C_40
    7  A    between atoms: C_6  and  C_24
    8  A    between atoms: C_7  and  C_30
    9  A    between atoms: N_10  and  C_15
   10  A    between atoms: C_12  and  S_33
   11  A    between atoms: N_14  and  C_31
   12  A    between atoms: N_14  and  N_37
   13  A    between atoms: C_15  and  C_32
   14  A    between atoms: C_20  and  C_39
   15  A    between atoms: C_21  and  C_40
                            x       y       z     vdW  Elec       q    Type
                         _______ _______ _______ _____ _____    ______ ____

>  <TORSDO>
F 15

$$$$
=
 OpenBabel11042419283D

 40 43  0  0  1  0  0  0  0  0999 V2000
  193.9110  175.6110  145.1430 C   0  0  0  0  0  0  0  0  0  0  0  0
  191.7110  176.3500  144.7700 C   0  0  0  0  0  0  0  0  0  0  0  0
  192.5430  176.6790  143.3340 S   0  0  0  0  0  0  0  0  0  0  0  0
  192.6120  175.7560  145.6680 C   0  0  0  0  0  0  0  0  0  0  0  0
  192.2680  175.3380  147.0590 C   0  0  0  0  0  1  0  0  0  0  0  0
  194.0240  176.0730  143.8410 C   0  0  0  0  0  0  0  0  0  0  0  0
  188.2210  176.5660  146.0230 C   0  0  0  0  0  0  0  0  0  0  0  0
  189.5970  176.1210  145.9780 C   0  0  0  0  0  3  0  0  0  0  0  0
  189.3330  177.7940  143.9510 S   0  0  0  0  0  0  0  0  0  0  0  0
  190.2770  176.6590  144.9800 C   0  0  0  0  0  0  0  0  0  0  0  0
  187.4230  176.1860  146.9200 O   0  0  0  0  0  0  0  0  0  0  0  0
  187.8320  177.5250  144.9570 C   0  0  1  0  0  3  0  0  0  0  0  0
  186.4680  177.8030  143.0060 O   0  0  0  0  0  0  0  0  0  0  0  0
  186.7320  176.9290  144.0790 C   0  0  2  0  0  3  0  0  0  0  0  0
  185.4650  177.7180  143.9890 C   0  0  1  0  0  3  0  0  0  0  0  0
  185.4300  179.0110  144.7990 C   0  0  0  0  0  2  0  0  0  0  0  0
  184.7130  178.4360  146.9500 C   0  0  0  0  0  1  0  0  0  0  0  0
  184.2810  179.0100  145.6870 N   0  0  0  0  0  2  0  0  0  0  0  0
  195.2150  176.0330  143.0540 N   0  0  0  0  0  2  0  0  0  0  0  0
  194.8350  174.1180  141.0670 O   0  0  0  0  0  0  0  0  0  0  0  0
  194.9560  175.6660  139.3300 N   0  0  0  0  0  2  0  0  0  0  0  0
  194.9860  175.3180  140.7120 C   0  0  0  0  0  0  0  0  0  0  0  0
  195.1880  176.3370  141.6870 N   0  0  0  0  0  2  0  0  0  0  0  0
  194.7550  174.6910  138.3430 N   0  0  0  0  0  2  0  0  0  0  0  0
  191.3320  173.9670  137.4620 O   0  0  0  0  0  0  0  0  0  0  0  0
  193.4430  174.8490  137.8710 N   0  0  0  0  0  2  0  0  0  0  0  0
  192.5020  173.7720  137.8790 C   0  0  0  0  0  0  0  0  0  0  0  0
  192.8900  172.4160  138.3650 C   0  0  0  0  0  1  0  0  0  0  0  0
  195.0460  174.9860  145.8870 C   0  0  0  0  0  2  0  0  0  0  0  0
  195.4990  173.7260  145.1780 C   0  0  0  0  0  2  0  0  0  0  0  0
  194.5730  172.5830  145.5380 C   0  0  0  0  0  2  0  0  0  0  0  0
  193.7820  171.9560  144.0340 S   0  0  0  0  0  0  0  0  0  0  0  0
  192.1740  172.3590  144.6370 N   0  0  0  0  0  2  0  0  0  0  0  0
  191.2270  171.6050  143.8370 C   0  0  0  0  0  2  0  0  0  0  0  0
  188.8720  174.2510  142.5320 C   0  0  0  0  0  3  0  0  0  0  0  0
  189.1490  174.1950  141.1640 C   0  0  0  0  0  3  0  0  0  0  0  0
  189.5520  173.4110  143.4150 C   0  0  0  0  0  3  0  0  0  0  0  0
  190.1050  173.2880  140.6990 C   0  0  0  0  0  3  0  0  0  0  0  0
  190.5080  172.5230  142.9120 C   0  0  0  0  0  0  0  0  0  0  0  0
  190.7590  172.4770  141.5750 N   0  0  0  0  0  0  0  0  0  0  0  0
  1  4  1  0  0  0  0
  1 29  1  0  0  0  0
  2 10  1  0  0  0  0
  2  4  2  0  0  0  0
  3  6  1  0  0  0  0
  3  2  1  0  0  0  0
  4  5  1  0  0  0  0
  6  1  2  0  0  0  0
  7 11  2  0  0  0  0
  8  7  1  0  0  0  0
  9 10  1  0  0  0  0
 10  8  2  0  0  0  0
 12  9  1  6  0  0  0
 12  7  1  0  0  0  0
 13 15  1  0  0  0  0
 14 13  1  6  0  0  0
 14 12  1  0  0  0  0
 15 14  1  0  0  0  0
 15 16  1  1  0  0  0
 16 18  1  0  0  0  0
 18 17  1  0  0  0  0
 19  6  1  0  0  0  0
 21 22  1  0  0  0  0
 22 20  2  0  0  0  0
 22 23  1  0  0  0  0
 23 19  1  0  0  0  0
 24 21  1  0  0  0  0
 25 27  2  0  0  0  0
 26 27  1  0  0  0  0
 26 24  1  0  0  0  0
 27 28  1  0  0  0  0
 30 31  1  0  0  0  0
 30 29  1  0  0  0  0
 32 33  1  0  0  0  0
 32 31  1  0  0  0  0
 34 33  1  0  0  0  0
 35 37  1  0  0  0  0
 36 35  2  0  0  0  0
 38 36  1  0  0  0  0
 38 40  2  0  0  0  0
 39 37  2  0  0  0  0
 39 34  1  0  0  0  0
 40 39  1  0  0  0  0
M  END
>  <MODEL>
8

>  <REMARK>
 VINA RESULT:      -5.4      3.013      8.815
  Name = 
  15 active torsions:
  status: ('A' for Active; 'I' for Inactive)
    1  A    between atoms: C_1  and  C_12
    2  A    between atoms: C_1  and  C_24
    3  A    between atoms: N_3  and  N_17
    4  A    between atoms: N_3  and  N_34
    5  A    between atoms: N_5  and  S_33
    6  A    between atoms: N_5  and  C_40
    7  A    between atoms: C_6  and  C_24
    8  A    between atoms: C_7  and  C_30
    9  A    between atoms: N_10  and  C_15
   10  A    between atoms: C_12  and  S_33
   11  A    between atoms: N_14  and  C_31
   12  A    between atoms: N_14  and  N_37
   13  A    between atoms: C_15  and  C_32
   14  A    between atoms: C_20  and  C_39
   15  A    between atoms: C_21  and  C_40
                            x       y       z     vdW  Elec       q    Type
                         _______ _______ _______ _____ _____    ______ ____

>  <TORSDO>
F 15

$$$$
=
 OpenBabel11042419283D

 40 43  0  0  1  0  0  0  0  0999 V2000
  193.7520  175.8390  145.2450 C   0  0  0  0  0  0  0  0  0  0  0  0
  191.6020  176.5870  144.6590 C   0  0  0  0  0  0  0  0  0  0  0  0
  192.5390  176.7840  143.2650 S   0  0  0  0  0  0  0  0  0  0  0  0
  192.4240  176.0510  145.6630 C   0  0  0  0  0  0  0  0  0  0  0  0
  191.9740  175.7520  147.0550 C   0  0  0  0  0  1  0  0  0  0  0  0
  193.9670  176.1940  143.9220 C   0  0  0  0  0  0  0  0  0  0  0  0
  188.1130  177.2410  145.7530 C   0  0  0  0  0  0  0  0  0  0  0  0
  189.4940  176.8290  145.8760 C   0  0  0  0  0  3  0  0  0  0  0  0
  189.2030  177.5690  143.3570 S   0  0  0  0  0  0  0  0  0  0  0  0
  190.1650  176.9390  144.7420 C   0  0  0  0  0  0  0  0  0  0  0  0
  187.3230  177.2360  146.7340 O   0  0  0  0  0  0  0  0  0  0  0  0
  187.7090  177.7010  144.3990 C   0  0  1  0  0  3  0  0  0  0  0  0
  186.4000  177.1160  142.4790 O   0  0  0  0  0  0  0  0  0  0  0  0
  186.6140  176.7960  143.8340 C   0  0  2  0  0  3  0  0  0  0  0  0
  185.3720  177.4840  143.3660 C   0  0  1  0  0  3  0  0  0  0  0  0
  185.3530  179.0020  143.5270 C   0  0  0  0  0  2  0  0  0  0  0  0
  184.3420  178.9730  145.6360 C   0  0  0  0  0  1  0  0  0  0  0  0
  184.1680  179.4090  144.2610 N   0  0  0  0  0  2  0  0  0  0  0  0
  195.2070  176.0680  143.2280 N   0  0  0  0  0  2  0  0  0  0  0  0
  196.8810  176.4110  141.0280 O   0  0  0  0  0  0  0  0  0  0  0  0
  196.4220  174.3030  140.1490 N   0  0  0  0  0  2  0  0  0  0  0  0
  196.2580  175.3200  141.1330 C   0  0  0  0  0  0  0  0  0  0  0  0
  195.3860  175.0940  142.2370 N   0  0  0  0  0  2  0  0  0  0  0  0
  197.2760  174.4880  139.0520 N   0  0  0  0  0  2  0  0  0  0  0  0
  195.3580  175.5000  136.1700 O   0  0  0  0  0  0  0  0  0  0  0  0
  196.5910  175.2910  138.1290 N   0  0  0  0  0  2  0  0  0  0  0  0
  195.9770  174.7420  136.9590 C   0  0  0  0  0  0  0  0  0  0  0  0
  196.0690  173.2850  136.6540 C   0  0  0  0  0  1  0  0  0  0  0  0
  194.8170  175.2550  146.1150 C   0  0  0  0  0  2  0  0  0  0  0  0
  195.2410  173.9040  145.5770 C   0  0  0  0  0  2  0  0  0  0  0  0
  194.0470  172.9730  145.5510 C   0  0  0  0  0  2  0  0  0  0  0  0
  194.1030  171.9680  144.0450 S   0  0  0  0  0  0  0  0  0  0  0  0
  192.3900  171.5720  144.1720 N   0  0  0  0  0  2  0  0  0  0  0  0
  191.7030  172.7980  144.5360 C   0  0  0  0  0  2  0  0  0  0  0  0
  188.7710  173.9830  142.4750 C   0  0  0  0  0  3  0  0  0  0  0  0
  189.3720  174.1210  141.2220 C   0  0  0  0  0  3  0  0  0  0  0  0
  189.5290  173.5550  143.5670 C   0  0  0  0  0  3  0  0  0  0  0  0
  190.7300  173.8220  141.0800 C   0  0  0  0  0  3  0  0  0  0  0  0
  190.8860  173.2750  143.3870 C   0  0  0  0  0  0  0  0  0  0  0  0
  191.4530  173.4080  142.1560 N   0  0  0  0  0  0  0  0  0  0  0  0
  1  4  1  0  0  0  0
  1 29  1  0  0  0  0
  2 10  1  0  0  0  0
  2  4  2  0  0  0  0
  3  6  1  0  0  0  0
  3  2  1  0  0  0  0
  4  5  1  0  0  0  0
  6  1  2  0  0  0  0
  7  8  1  0  0  0  0
  7 11  2  0  0  0  0
  9 10  1  0  0  0  0
 10  8  2  0  0  0  0
 12  9  1  6  0  0  0
 12  7  1  0  0  0  0
 13 15  1  0  0  0  0
 14 13  1  6  0  0  0
 14 12  1  0  0  0  0
 15 16  1  1  0  0  0
 15 14  1  0  0  0  0
 16 18  1  0  0  0  0
 18 17  1  0  0  0  0
 19  6  1  0  0  0  0
 20 22  2  0  0  0  0
 21 22  1  0  0  0  0
 22 23  1  0  0  0  0
 23 19  1  0  0  0  0
 24 21  1  0  0  0  0
 25 27  2  0  0  0  0
 26 24  1  0  0  0  0
 27 26  1  0  0  0  0
 28 27  1  0  0  0  0
 30 29  1  0  0  0  0
 31 30  1  0  0  0  0
 32 33  1  0  0  0  0
 32 31  1  0  0  0  0
 33 34  1  0  0  0  0
 35 37  1  0  0  0  0
 36 35  2  0  0  0  0
 38 36  1  0  0  0  0
 38 40  2  0  0  0  0
 39 37  2  0  0  0  0
 39 34  1  0  0  0  0
 40 39  1  0  0  0  0
M  END
>  <MODEL>
9

>  <REMARK>
 VINA RESULT:      -5.3      3.539      9.420
  Name = 
  15 active torsions:
  status: ('A' for Active; 'I' for Inactive)
    1  A    between atoms: C_1  and  C_12
    2  A    between atoms: C_1  and  C_24
    3  A    between atoms: N_3  and  N_17
    4  A    between atoms: N_3  and  N_34
    5  A    between atoms: N_5  and  S_33
    6  A    between atoms: N_5  and  C_40
    7  A    between atoms: C_6  and  C_24
    8  A    between atoms: C_7  and  C_30
    9  A    between atoms: N_10  and  C_15
   10  A    between atoms: C_12  and  S_33
   11  A    between atoms: N_14  and  C_31
   12  A    between atoms: N_14  and  N_37
   13  A    between atoms: C_15  and  C_32
   14  A    between atoms: C_20  and  C_39
   15  A    between atoms: C_21  and  C_40
                            x       y       z     vdW  Elec       q    Type
                         _______ _______ _______ _____ _____    ______ ____

>  <TORSDO>
F 15

$$$$
