=
 OpenBabel11042415033D

 33 36  0  0  1  0  0  0  0  0999 V2000
  188.3190  176.3400  146.4120 C   0  0  0  0  0  0  0  0  0  0  0  0
  191.5980  175.2770  147.1040 C   0  0  0  0  0  3  0  0  0  0  0  0
  188.0430  176.7020  144.0500 N   0  0  0  0  0  0  0  0  0  0  0  0
  192.8340  174.9360  146.5480 C   0  0  0  0  0  3  0  0  0  0  0  0
  191.1260  176.7190  145.2000 C   0  0  0  0  0  0  0  0  0  0  0  0
  190.7250  176.1360  146.4270 C   0  0  0  0  0  0  0  0  0  0  0  0
  189.4570  176.4300  147.0320 N   0  0  0  0  0  0  0  0  0  0  0  0
  191.0290  178.8140  143.7980 C   0  0  0  0  0  1  0  0  0  0  0  0
  188.2530  175.8440  145.1070 O   0  0  0  0  0  0  0  0  0  0  0  0
  193.2100  175.4600  145.3110 C   0  0  0  0  0  0  0  0  0  0  0  0
  189.3470  177.0050  143.4690 C   0  0  0  0  0  2  0  0  0  0  0  0
  192.3640  176.3500  144.6420 C   0  0  0  0  0  3  0  0  0  0  0  0
  190.2400  177.7090  144.4810 C   0  0  1  0  0  3  0  0  0  0  0  0
  195.4970  174.8100  144.2680 N   0  0  0  0  0  0  0  0  0  0  0  0
  194.4770  175.0990  144.7350 C   0  0  0  0  0  0  0  0  0  0  0  0
  187.3180  175.9440  143.0440 C   0  0  0  0  0  2  0  0  0  0  0  0
  185.9830  176.6000  142.7480 C   0  0  0  0  0  2  0  0  0  0  0  0
  185.4240  178.9920  143.0570 C   0  0  0  0  0  2  0  0  0  0  0  0
  186.1920  178.0070  142.2040 C   0  0  2  0  0  3  0  0  0  0  0  0
  184.9180  178.6640  141.6670 C   0  0  1  0  0  3  0  0  0  0  0  0
  183.7880  177.8000  141.7610 O   0  0  0  0  0  0  0  0  0  0  0  0
  182.6390  177.5040  139.8020 O   0  0  0  0  0  0  0  0  0  0  0  0
  182.6570  177.9850  140.9650 C   0  0  0  0  0  0  0  0  0  0  0  0
  181.5250  178.7090  141.4650 N   0  0  0  0  0  2  0  0  0  0  0  0
  180.0930  180.4480  140.5360 C   0  0  0  0  0  1  0  0  0  0  0  0
  180.3220  178.9520  140.6840 C   0  0  2  0  0  3  0  0  0  0  0  0
  178.9250  178.9730  142.6170 O   0  0  0  0  0  1  0  0  0  0  0  0
  179.1340  178.3290  141.3960 C   0  0  0  0  0  2  0  0  0  0  0  0
  187.0730  176.7630  147.1070 C   0  0  0  0  0  2  0  0  0  0  0  0
  186.6970  178.1780  146.7190 C   0  0  2  0  0  3  0  0  0  0  0  0
  186.3050  178.8920  147.8510 N   0  0  0  0  0  2  0  0  0  0  0  0
  185.3230  178.3110  146.8310 C   0  0  0  0  0  0  0  0  0  0  0  0
  184.1230  178.0780  146.4190 N   0  0  0  0  0  2  0  0  0  0  0  0
  1  7  2  0  0  0  0
  1 29  1  0  0  0  0
  3  9  1  0  0  0  0
  4  2  1  0  0  0  0
  5  6  1  0  0  0  0
  6  7  1  0  0  0  0
  6  2  2  0  0  0  0
  9  1  1  0  0  0  0
 10  4  2  0  0  0  0
 11  3  1  0  0  0  0
 11 13  1  0  0  0  0
 12  5  2  0  0  0  0
 12 10  1  0  0  0  0
 13  8  1  6  0  0  0
 13  5  1  0  0  0  0
 14 15  3  0  0  0  0
 15 10  1  0  0  0  0
 16  3  1  0  0  0  0
 17 16  1  0  0  0  0
 19 17  1  1  0  0  0
 19 18  1  0  0  0  0
 20 21  1  1  0  0  0
 20 19  1  0  0  0  0
 20 18  1  0  0  0  0
 22 23  2  0  0  0  0
 23 24  1  0  0  0  0
 23 21  1  0  0  0  0
 26 25  1  1  0  0  0
 26 28  1  0  0  0  0
 26 24  1  0  0  0  0
 28 27  1  0  0  0  0
 30 32  1  0  0  0  0
 30 29  1  1  0  0  0
 30 31  1  0  0  0  0
 32 31  1  0  0  0  0
 33 32  2  0  0  0  0
M  END
>  <MODEL>
1

>  <REMARK>
 VINA RESULT:      -7.2      0.000      0.000
  Name = 
  10 active torsions:
  status: ('A' for Active; 'I' for Inactive)
    1  A    between atoms: C_3  and  C_23
    2  A    between atoms: C_5  and  C_23
    3  A    between atoms: O_6  and  C_12
    4  A    between atoms: O_6  and  C_30
    5  A    between atoms: C_10  and  C_22
    6  A    between atoms: C_13  and  C_29
    7  A    between atoms: N_14  and  C_20
    8  A    between atoms: CA_16  and  C_26
    9  A    between atoms: CA_16  and  N_27
   10  A    between atoms: C_20  and  C_22
                            x       y       z     vdW  Elec       q    Type
                         _______ _______ _______ _____ _____    ______ ____

>  <TORSDO>
F 10

$$$$
=
 OpenBabel11042415033D

 33 36  0  0  1  0  0  0  0  0999 V2000
  187.6110  176.4010  145.9260 C   0  0  0  0  0  0  0  0  0  0  0  0
  190.6100  175.5660  147.5580 C   0  0  0  0  0  3  0  0  0  0  0  0
  187.9570  176.4980  143.5470 N   0  0  0  0  0  0  0  0  0  0  0  0
  191.9540  175.2240  147.3830 C   0  0  0  0  0  3  0  0  0  0  0  0
  190.6310  176.7750  145.4450 C   0  0  0  0  0  0  0  0  0  0  0  0
  189.9310  176.3080  146.5850 C   0  0  0  0  0  0  0  0  0  0  0  0
  188.5440  176.6070  146.8040 N   0  0  0  0  0  0  0  0  0  0  0  0
  190.8710  178.7030  143.8360 C   0  0  0  0  0  1  0  0  0  0  0  0
  187.8960  175.7670  144.7130 O   0  0  0  0  0  0  0  0  0  0  0  0
  192.6320  175.6310  146.2340 C   0  0  0  0  0  0  0  0  0  0  0  0
  189.3620  176.7950  143.2920 C   0  0  0  0  0  2  0  0  0  0  0  0
  191.9770  176.4060  145.2720 C   0  0  0  0  0  3  0  0  0  0  0  0
  189.9480  177.6430  144.4130 C   0  0  1  0  0  3  0  0  0  0  0  0
  195.1210  174.9710  145.9040 N   0  0  0  0  0  0  0  0  0  0  0  0
  194.0110  175.2680  146.0500 C   0  0  0  0  0  0  0  0  0  0  0  0
  187.5330  175.6050  142.4810 C   0  0  0  0  0  2  0  0  0  0  0  0
  188.6930  175.3030  141.5530 C   0  0  0  0  0  2  0  0  0  0  0  0
  188.2020  172.9350  142.0820 C   0  0  0  0  0  2  0  0  0  0  0  0
  188.5580  173.9010  140.9740 C   0  0  2  0  0  3  0  0  0  0  0  0
  189.5990  172.9070  141.4960 C   0  0  1  0  0  3  0  0  0  0  0  0
  190.5110  173.5140  142.4070 O   0  0  0  0  0  0  0  0  0  0  0  0
  190.6590  173.0930  144.6540 O   0  0  0  0  0  0  0  0  0  0  0  0
  191.0420  172.8100  143.4890 C   0  0  0  0  0  0  0  0  0  0  0  0
  192.0070  171.7710  143.2780 N   0  0  0  0  0  2  0  0  0  0  0  0
  193.8670  171.7120  144.8510 C   0  0  0  0  0  1  0  0  0  0  0  0
  192.6110  171.0090  144.3600 C   0  0  2  0  0  3  0  0  0  0  0  0
  192.9870  168.7190  144.9090 O   0  0  0  0  0  1  0  0  0  0  0  0
  192.9770  169.6270  143.8490 C   0  0  0  0  0  2  0  0  0  0  0  0
  186.2200  176.8390  146.2220 C   0  0  0  0  0  2  0  0  0  0  0  0
  186.2000  178.2770  146.7000 C   0  0  2  0  0  3  0  0  0  0  0  0
  184.8930  178.6580  147.0030 N   0  0  0  0  0  2  0  0  0  0  0  0
  185.6170  179.0560  145.7140 C   0  0  0  0  0  0  0  0  0  0  0  0
  185.6420  179.6350  144.5610 N   0  0  0  0  0  2  0  0  0  0  0  0
  1 29  1  0  0  0  0
  1  7  2  0  0  0  0
  3  9  1  0  0  0  0
  4  2  1  0  0  0  0
  5  6  1  0  0  0  0
  6  7  1  0  0  0  0
  6  2  2  0  0  0  0
  9  1  1  0  0  0  0
 10  4  2  0  0  0  0
 11  3  1  0  0  0  0
 11 13  1  0  0  0  0
 12  5  2  0  0  0  0
 12 10  1  0  0  0  0
 13  8  1  6  0  0  0
 13  5  1  0  0  0  0
 14 15  3  0  0  0  0
 15 10  1  0  0  0  0
 16  3  1  0  0  0  0
 17 16  1  0  0  0  0
 19 20  1  0  0  0  0
 19 17  1  1  0  0  0
 19 18  1  0  0  0  0
 20 18  1  0  0  0  0
 20 21  1  1  0  0  0
 21 23  1  0  0  0  0
 23 22  2  0  0  0  0
 24 23  1  0  0  0  0
 24 26  1  0  0  0  0
 26 25  1  6  0  0  0
 28 26  1  0  0  0  0
 28 27  1  0  0  0  0
 30 29  1  6  0  0  0
 30 31  1  0  0  0  0
 32 30  1  0  0  0  0
 32 31  1  0  0  0  0
 33 32  2  0  0  0  0
M  END
>  <MODEL>
2

>  <REMARK>
 VINA RESULT:      -7.0      3.756      7.162
  Name = 
  10 active torsions:
  status: ('A' for Active; 'I' for Inactive)
    1  A    between atoms: C_3  and  C_23
    2  A    between atoms: C_5  and  C_23
    3  A    between atoms: O_6  and  C_12
    4  A    between atoms: O_6  and  C_30
    5  A    between atoms: C_10  and  C_22
    6  A    between atoms: C_13  and  C_29
    7  A    between atoms: N_14  and  C_20
    8  A    between atoms: CA_16  and  C_26
    9  A    between atoms: CA_16  and  N_27
   10  A    between atoms: C_20  and  C_22
                            x       y       z     vdW  Elec       q    Type
                         _______ _______ _______ _____ _____    ______ ____

>  <TORSDO>
F 10

$$$$
=
 OpenBabel11042415033D

 33 36  0  0  1  0  0  0  0  0999 V2000
  191.5760  176.1980  143.9170 C   0  0  0  0  0  0  0  0  0  0  0  0
  188.7930  178.2330  144.6060 C   0  0  0  0  0  3  0  0  0  0  0  0
  191.0470  173.8910  144.3480 N   0  0  0  0  0  0  0  0  0  0  0  0
  187.4540  178.2470  145.0080 C   0  0  0  0  0  3  0  0  0  0  0  0
  189.1430  176.1440  145.8070 C   0  0  0  0  0  0  0  0  0  0  0  0
  189.6350  177.1750  144.9680 C   0  0  0  0  0  0  0  0  0  0  0  0
  190.9930  177.1980  144.5050 N   0  0  0  0  0  0  0  0  0  0  0  0
  189.7350  174.5860  147.7000 C   0  0  0  0  0  1  0  0  0  0  0  0
  190.8630  175.0370  143.6050 O   0  0  0  0  0  0  0  0  0  0  0  0
  186.9490  177.2040  145.7840 C   0  0  0  0  0  0  0  0  0  0  0  0
  189.9750  173.8350  145.3350 C   0  0  0  0  0  2  0  0  0  0  0  0
  187.7890  176.1610  146.1860 C   0  0  0  0  0  3  0  0  0  0  0  0
  190.0450  175.0280  146.2800 C   0  0  1  0  0  3  0  0  0  0  0  0
  184.4560  177.2240  146.5060 N   0  0  0  0  0  0  0  0  0  0  0  0
  185.5690  177.2140  146.1860 C   0  0  0  0  0  0  0  0  0  0  0  0
  190.8220  172.7760  143.4430 C   0  0  0  0  0  2  0  0  0  0  0  0
  189.3440  172.4510  143.3640 C   0  0  0  0  0  2  0  0  0  0  0  0
  189.6010  173.3920  141.0890 C   0  0  0  0  0  2  0  0  0  0  0  0
  188.9030  172.3320  141.9110 C   0  0  2  0  0  3  0  0  0  0  0  0
  188.1250  173.5440  141.3940 C   0  0  1  0  0  3  0  0  0  0  0  0
  187.9450  174.5370  142.4010 O   0  0  0  0  0  0  0  0  0  0  0  0
  188.4930  176.6270  141.6420 O   0  0  0  0  0  0  0  0  0  0  0  0
  187.6040  175.8510  142.0810 C   0  0  0  0  0  0  0  0  0  0  0  0
  186.2560  176.3140  142.2430 N   0  0  0  0  0  2  0  0  0  0  0  0
  184.5800  178.0140  142.7290 C   0  0  0  0  0  1  0  0  0  0  0  0
  185.8370  177.6740  141.9430 C   0  0  2  0  0  3  0  0  0  0  0  0
  184.3800  178.5280  140.2580 O   0  0  0  0  0  1  0  0  0  0  0  0
  185.5460  177.7870  140.4570 C   0  0  0  0  0  2  0  0  0  0  0  0
  193.0180  176.2980  143.5650 C   0  0  0  0  0  2  0  0  0  0  0  0
  193.8630  176.4790  144.8100 C   0  0  2  0  0  3  0  0  0  0  0  0
  195.2160  176.4030  144.4800 N   0  0  0  0  0  2  0  0  0  0  0  0
  194.4350  175.2590  145.1300 C   0  0  0  0  0  0  0  0  0  0  0  0
  194.3580  174.0530  145.5830 N   0  0  0  0  0  2  0  0  0  0  0  0
  1  7  2  0  0  0  0
  2  6  2  0  0  0  0
  2  4  1  0  0  0  0
  3 11  1  0  0  0  0
  4 10  2  0  0  0  0
  5 12  2  0  0  0  0
  5 13  1  0  0  0  0
  6  5  1  0  0  0  0
  7  6  1  0  0  0  0
  9  1  1  0  0  0  0
  9  3  1  0  0  0  0
 10 15  1  0  0  0  0
 10 12  1  0  0  0  0
 11 13  1  0  0  0  0
 13  8  1  1  0  0  0
 15 14  3  0  0  0  0
 16  3  1  0  0  0  0
 17 16  1  0  0  0  0
 18 20  1  0  0  0  0
 18 19  1  0  0  0  0
 19 17  1  1  0  0  0
 20 19  1  0  0  0  0
 20 21  1  1  0  0  0
 22 23  2  0  0  0  0
 23 24  1  0  0  0  0
 23 21  1  0  0  0  0
 26 24  1  0  0  0  0
 26 25  1  1  0  0  0
 27 28  1  0  0  0  0
 28 26  1  0  0  0  0
 29  1  1  0  0  0  0
 30 29  1  6  0  0  0
 30 32  1  0  0  0  0
 31 30  1  0  0  0  0
 31 32  1  0  0  0  0
 32 33  2  0  0  0  0
M  END
>  <MODEL>
3

>  <REMARK>
 VINA RESULT:      -6.9      2.678      6.370
  Name = 
  10 active torsions:
  status: ('A' for Active; 'I' for Inactive)
    1  A    between atoms: C_3  and  C_23
    2  A    between atoms: C_5  and  C_23
    3  A    between atoms: O_6  and  C_12
    4  A    between atoms: O_6  and  C_30
    5  A    between atoms: C_10  and  C_22
    6  A    between atoms: C_13  and  C_29
    7  A    between atoms: N_14  and  C_20
    8  A    between atoms: CA_16  and  C_26
    9  A    between atoms: CA_16  and  N_27
   10  A    between atoms: C_20  and  C_22
                            x       y       z     vdW  Elec       q    Type
                         _______ _______ _______ _____ _____    ______ ____

>  <TORSDO>
F 10

$$$$
=
 OpenBabel11042415033D

 33 36  0  0  1  0  0  0  0  0999 V2000
  187.7170  176.5870  145.5550 C   0  0  0  0  0  0  0  0  0  0  0  0
  190.5640  175.7550  147.4420 C   0  0  0  0  0  3  0  0  0  0  0  0
  188.2670  176.6800  143.2150 N   0  0  0  0  0  0  0  0  0  0  0  0
  191.9180  175.4130  147.3850 C   0  0  0  0  0  3  0  0  0  0  0  0
  190.7680  176.9600  145.3370 C   0  0  0  0  0  0  0  0  0  0  0  0
  189.9720  176.4960  146.4130 C   0  0  0  0  0  0  0  0  0  0  0  0
  188.5720  176.7950  146.5110 N   0  0  0  0  0  0  0  0  0  0  0  0
  191.1460  178.8860  143.7520 C   0  0  0  0  0  1  0  0  0  0  0  0
  188.1060  175.9500  144.3730 O   0  0  0  0  0  0  0  0  0  0  0  0
  192.6940  175.8180  146.2980 C   0  0  0  0  0  0  0  0  0  0  0  0
  189.6900  176.9770  143.0820 C   0  0  0  0  0  2  0  0  0  0  0  0
  192.1230  176.5910  145.2820 C   0  0  0  0  0  3  0  0  0  0  0  0
  190.1770  177.8260  144.2480 C   0  0  1  0  0  3  0  0  0  0  0  0
  195.2020  175.1610  146.1800 N   0  0  0  0  0  0  0  0  0  0  0  0
  194.0830  175.4550  146.2350 C   0  0  0  0  0  0  0  0  0  0  0  0
  187.9370  175.7850  142.1180 C   0  0  0  0  0  2  0  0  0  0  0  0
  188.4040  174.3760  142.4280 C   0  0  0  0  0  2  0  0  0  0  0  0
  189.3060  172.2860  141.4550 C   0  0  0  0  0  2  0  0  0  0  0  0
  189.0790  173.7610  141.2090 C   0  0  2  0  0  3  0  0  0  0  0  0
  190.4900  173.2300  141.4780 C   0  0  1  0  0  3  0  0  0  0  0  0
  190.8990  173.4510  142.8250 O   0  0  0  0  0  0  0  0  0  0  0  0
  192.6810  172.9640  144.1790 O   0  0  0  0  0  0  0  0  0  0  0  0
  192.2450  173.5770  143.1700 C   0  0  0  0  0  0  0  0  0  0  0  0
  193.1260  174.3900  142.3810 N   0  0  0  0  0  2  0  0  0  0  0  0
  194.9040  176.0460  142.5600 C   0  0  0  0  0  1  0  0  0  0  0  0
  194.5340  174.5760  142.6920 C   0  0  2  0  0  3  0  0  0  0  0  0
  196.2510  174.5960  141.0370 O   0  0  0  0  0  1  0  0  0  0  0  0
  195.3690  173.7590  141.7220 C   0  0  0  0  0  2  0  0  0  0  0  0
  186.3060  177.0250  145.7290 C   0  0  0  0  0  2  0  0  0  0  0  0
  186.2180  178.5360  145.7950 C   0  0  2  0  0  3  0  0  0  0  0  0
  184.8830  178.9290  145.8950 N   0  0  0  0  0  2  0  0  0  0  0  0
  185.6930  178.9940  144.5980 C   0  0  0  0  0  0  0  0  0  0  0  0
  185.7920  179.2410  143.3360 N   0  0  0  0  0  2  0  0  0  0  0  0
  1 29  1  0  0  0  0
  1  7  2  0  0  0  0
  3  9  1  0  0  0  0
  4  2  1  0  0  0  0
  5  6  1  0  0  0  0
  6  7  1  0  0  0  0
  6  2  2  0  0  0  0
  9  1  1  0  0  0  0
 10  4  2  0  0  0  0
 11  3  1  0  0  0  0
 11 13  1  0  0  0  0
 12  5  2  0  0  0  0
 12 10  1  0  0  0  0
 13  8  1  6  0  0  0
 13  5  1  0  0  0  0
 14 15  3  0  0  0  0
 15 10  1  0  0  0  0
 16 17  1  0  0  0  0
 16  3  1  0  0  0  0
 18 20  1  0  0  0  0
 19 18  1  0  0  0  0
 19 20  1  0  0  0  0
 19 17  1  1  0  0  0
 20 21  1  1  0  0  0
 21 23  1  0  0  0  0
 23 22  2  0  0  0  0
 24 26  1  0  0  0  0
 24 23  1  0  0  0  0
 26 25  1  6  0  0  0
 27 28  1  0  0  0  0
 28 26  1  0  0  0  0
 30 29  1  6  0  0  0
 30 31  1  0  0  0  0
 32 30  1  0  0  0  0
 32 31  1  0  0  0  0
 33 32  2  0  0  0  0
M  END
>  <MODEL>
4

>  <REMARK>
 VINA RESULT:      -6.9      3.585      7.311
  Name = 
  10 active torsions:
  status: ('A' for Active; 'I' for Inactive)
    1  A    between atoms: C_3  and  C_23
    2  A    between atoms: C_5  and  C_23
    3  A    between atoms: O_6  and  C_12
    4  A    between atoms: O_6  and  C_30
    5  A    between atoms: C_10  and  C_22
    6  A    between atoms: C_13  and  C_29
    7  A    between atoms: N_14  and  C_20
    8  A    between atoms: CA_16  and  C_26
    9  A    between atoms: CA_16  and  N_27
   10  A    between atoms: C_20  and  C_22
                            x       y       z     vdW  Elec       q    Type
                         _______ _______ _______ _____ _____    ______ ____

>  <TORSDO>
F 10

$$$$
=
 OpenBabel11042415033D

 33 36  0  0  1  0  0  0  0  0999 V2000
  188.2740  177.3410  145.6860 C   0  0  0  0  0  0  0  0  0  0  0  0
  184.9470  178.1300  144.8680 C   0  0  0  0  0  3  0  0  0  0  0  0
  189.6040  177.1720  143.6880 N   0  0  0  0  0  0  0  0  0  0  0  0
  184.0610  178.4280  143.8290 C   0  0  0  0  0  3  0  0  0  0  0  0
  186.3470  176.8660  143.3290 C   0  0  0  0  0  0  0  0  0  0  0  0
  186.1050  177.3820  144.6260 C   0  0  0  0  0  0  0  0  0  0  0  0
  186.9930  177.1300  145.7250 N   0  0  0  0  0  0  0  0  0  0  0  0
  187.2500  174.8910  142.0460 C   0  0  0  0  0  1  0  0  0  0  0  0
  188.8670  177.9350  144.5690 O   0  0  0  0  0  0  0  0  0  0  0  0
  184.3250  177.9720  142.5370 C   0  0  0  0  0  0  0  0  0  0  0  0
  188.7290  176.8270  142.5730 C   0  0  0  0  0  2  0  0  0  0  0  0
  185.4580  177.1920  142.2890 C   0  0  0  0  0  3  0  0  0  0  0  0
  187.5480  175.9920  143.0490 C   0  0  1  0  0  3  0  0  0  0  0  0
  182.6900  178.5430  140.6030 N   0  0  0  0  0  0  0  0  0  0  0  0
  183.4190  178.2900  141.4670 C   0  0  0  0  0  0  0  0  0  0  0  0
  190.6270  178.0490  143.1430 C   0  0  0  0  0  2  0  0  0  0  0  0
  191.9670  177.3400  143.1110 C   0  0  0  0  0  2  0  0  0  0  0  0
  193.5660  175.9360  144.3750 C   0  0  0  0  0  2  0  0  0  0  0  0
  192.2360  176.6520  144.4430 C   0  0  2  0  0  3  0  0  0  0  0  0
  192.2870  175.1240  144.3560 C   0  0  1  0  0  3  0  0  0  0  0  0
  192.0400  174.6520  143.0340 O   0  0  0  0  0  0  0  0  0  0  0  0
  190.1210  173.5390  143.6050 O   0  0  0  0  0  0  0  0  0  0  0  0
  191.0450  173.7110  142.7670 C   0  0  0  0  0  0  0  0  0  0  0  0
  191.0680  172.9530  141.5500 N   0  0  0  0  0  2  0  0  0  0  0  0
  190.5950  170.5630  141.5690 C   0  0  0  0  0  1  0  0  0  0  0  0
  190.0720  171.9460  141.2160 C   0  0  2  0  0  3  0  0  0  0  0  0
  188.4830  172.4670  139.5160 O   0  0  0  0  0  1  0  0  0  0  0  0
  189.7840  172.0100  139.7270 C   0  0  0  0  0  2  0  0  0  0  0  0
  189.1140  176.9510  146.8510 C   0  0  0  0  0  2  0  0  0  0  0  0
  189.6360  175.5380  146.6870 C   0  0  2  0  0  3  0  0  0  0  0  0
  189.0490  174.7030  147.6370 N   0  0  0  0  0  2  0  0  0  0  0  0
  190.4710  175.2560  147.7540 C   0  0  0  0  0  0  0  0  0  0  0  0
  191.5840  175.3940  148.3920 N   0  0  0  0  0  2  0  0  0  0  0  0
  1  7  2  0  0  0  0
  1 29  1  0  0  0  0
  3  9  1  0  0  0  0
  4  2  2  0  0  0  0
  5  6  2  0  0  0  0
  6  2  1  0  0  0  0
  6  7  1  0  0  0  0
  9  1  1  0  0  0  0
 10  4  1  0  0  0  0
 11 13  1  0  0  0  0
 11  3  1  0  0  0  0
 12 10  2  0  0  0  0
 12  5  1  0  0  0  0
 13  8  1  6  0  0  0
 13  5  1  0  0  0  0
 14 15  3  0  0  0  0
 15 10  1  0  0  0  0
 16  3  1  0  0  0  0
 17 16  1  0  0  0  0
 18 19  1  0  0  0  0
 19 17  1  6  0  0  0
 20 21  1  6  0  0  0
 20 18  1  0  0  0  0
 20 19  1  0  0  0  0
 23 21  1  0  0  0  0
 23 22  2  0  0  0  0
 24 23  1  0  0  0  0
 26 24  1  0  0  0  0
 26 25  1  6  0  0  0
 27 28  1  0  0  0  0
 28 26  1  0  0  0  0
 30 29  1  1  0  0  0
 30 31  1  0  0  0  0
 30 32  1  0  0  0  0
 31 32  1  0  0  0  0
 32 33  2  0  0  0  0
M  END
>  <MODEL>
5

>  <REMARK>
 VINA RESULT:      -6.7      3.220      8.131
  Name = 
  10 active torsions:
  status: ('A' for Active; 'I' for Inactive)
    1  A    between atoms: C_3  and  C_23
    2  A    between atoms: C_5  and  C_23
    3  A    between atoms: O_6  and  C_12
    4  A    between atoms: O_6  and  C_30
    5  A    between atoms: C_10  and  C_22
    6  A    between atoms: C_13  and  C_29
    7  A    between atoms: N_14  and  C_20
    8  A    between atoms: CA_16  and  C_26
    9  A    between atoms: CA_16  and  N_27
   10  A    between atoms: C_20  and  C_22
                            x       y       z     vdW  Elec       q    Type
                         _______ _______ _______ _____ _____    ______ ____

>  <TORSDO>
F 10

$$$$
=
 OpenBabel11042415033D

 33 36  0  0  1  0  0  0  0  0999 V2000
  192.7520  176.0860  143.7400 C   0  0  0  0  0  0  0  0  0  0  0  0
  189.8180  177.9370  144.3090 C   0  0  0  0  0  3  0  0  0  0  0  0
  192.5820  173.9180  144.7700 N   0  0  0  0  0  0  0  0  0  0  0  0
  188.5420  177.9160  144.8770 C   0  0  0  0  0  3  0  0  0  0  0  0
  190.5690  176.2610  145.9070 C   0  0  0  0  0  0  0  0  0  0  0  0
  190.8270  177.0940  144.7900 C   0  0  0  0  0  0  0  0  0  0  0  0
  192.1110  177.1370  144.1510 N   0  0  0  0  0  0  0  0  0  0  0  0
  191.5650  175.2930  148.0130 C   0  0  0  0  0  1  0  0  0  0  0  0
  192.1690  174.8180  143.8110 O   0  0  0  0  0  0  0  0  0  0  0  0
  188.2660  177.0540  145.9390 C   0  0  0  0  0  0  0  0  0  0  0  0
  191.6400  174.0030  145.8810 C   0  0  0  0  0  2  0  0  0  0  0  0
  189.2740  176.2350  146.4550 C   0  0  0  0  0  3  0  0  0  0  0  0
  191.6560  175.3940  146.5000 C   0  0  1  0  0  3  0  0  0  0  0  0
  185.8860  177.0010  146.9740 N   0  0  0  0  0  0  0  0  0  0  0  0
  186.9490  177.0260  146.5140 C   0  0  0  0  0  0  0  0  0  0  0  0
  192.4080  172.5960  144.1930 C   0  0  0  0  0  2  0  0  0  0  0  0
  191.6310  172.6850  142.8940 C   0  0  0  0  0  2  0  0  0  0  0  0
  189.7930  171.6470  141.6010 C   0  0  0  0  0  2  0  0  0  0  0  0
  190.3410  171.8810  142.9910 C   0  0  2  0  0  3  0  0  0  0  0  0
  189.0970  172.6360  142.5140 C   0  0  1  0  0  3  0  0  0  0  0  0
  189.4020  173.9650  142.0990 O   0  0  0  0  0  0  0  0  0  0  0  0
  188.2010  174.7230  140.3020 O   0  0  0  0  0  0  0  0  0  0  0  0
  188.4330  174.7960  141.5370 C   0  0  0  0  0  0  0  0  0  0  0  0
  187.7030  175.7210  142.3560 N   0  0  0  0  0  2  0  0  0  0  0  0
  187.3440  177.9180  141.3680 C   0  0  0  0  0  1  0  0  0  0  0  0
  186.6910  176.6260  141.8330 C   0  0  2  0  0  3  0  0  0  0  0  0
  185.1650  178.2150  142.7440 O   0  0  0  0  0  1  0  0  0  0  0  0
  185.6880  176.9350  142.9300 C   0  0  0  0  0  2  0  0  0  0  0  0
  194.1220  176.2380  143.1780 C   0  0  0  0  0  2  0  0  0  0  0  0
  195.1400  176.4140  144.2880 C   0  0  2  0  0  3  0  0  0  0  0  0
  196.4010  176.6480  143.7410 N   0  0  0  0  0  2  0  0  0  0  0  0
  195.9590  175.2980  144.3080 C   0  0  0  0  0  0  0  0  0  0  0  0
  196.1730  174.0510  144.5630 N   0  0  0  0  0  2  0  0  0  0  0  0
  1  9  1  0  0  0  0
  1  7  2  0  0  0  0
  2  6  2  0  0  0  0
  2  4  1  0  0  0  0
  3 11  1  0  0  0  0
  4 10  2  0  0  0  0
  5 12  2  0  0  0  0
  5 13  1  0  0  0  0
  6  5  1  0  0  0  0
  7  6  1  0  0  0  0
  9  3  1  0  0  0  0
 10 12  1  0  0  0  0
 10 15  1  0  0  0  0
 11 13  1  0  0  0  0
 13  8  1  1  0  0  0
 15 14  3  0  0  0  0
 16  3  1  0  0  0  0
 17 16  1  0  0  0  0
 18 20  1  0  0  0  0
 18 19  1  0  0  0  0
 19 17  1  6  0  0  0
 20 21  1  6  0  0  0
 20 19  1  0  0  0  0
 22 23  2  0  0  0  0
 23 21  1  0  0  0  0
 23 24  1  0  0  0  0
 26 25  1  1  0  0  0
 26 24  1  0  0  0  0
 26 28  1  0  0  0  0
 27 28  1  0  0  0  0
 29  1  1  0  0  0  0
 30 29  1  6  0  0  0
 30 32  1  0  0  0  0
 31 30  1  0  0  0  0
 31 32  1  0  0  0  0
 32 33  2  0  0  0  0
M  END
>  <MODEL>
6

>  <REMARK>
 VINA RESULT:      -6.7      3.165      7.000
  Name = 
  10 active torsions:
  status: ('A' for Active; 'I' for Inactive)
    1  A    between atoms: C_3  and  C_23
    2  A    between atoms: C_5  and  C_23
    3  A    between atoms: O_6  and  C_12
    4  A    between atoms: O_6  and  C_30
    5  A    between atoms: C_10  and  C_22
    6  A    between atoms: C_13  and  C_29
    7  A    between atoms: N_14  and  C_20
    8  A    between atoms: CA_16  and  C_26
    9  A    between atoms: CA_16  and  N_27
   10  A    between atoms: C_20  and  C_22
                            x       y       z     vdW  Elec       q    Type
                         _______ _______ _______ _____ _____    ______ ____

>  <TORSDO>
F 10

$$$$
=
 OpenBabel11042415033D

 33 36  0  0  1  0  0  0  0  0999 V2000
  188.3880  177.3180  145.7150 C   0  0  0  0  0  0  0  0  0  0  0  0
  185.0770  178.1160  144.8420 C   0  0  0  0  0  3  0  0  0  0  0  0
  189.7490  177.1360  143.7400 N   0  0  0  0  0  0  0  0  0  0  0  0
  184.2090  178.4130  143.7870 C   0  0  0  0  0  3  0  0  0  0  0  0
  186.4970  176.8410  143.3300 C   0  0  0  0  0  0  0  0  0  0  0  0
  186.2360  177.3640  144.6210 C   0  0  0  0  0  0  0  0  0  0  0  0
  187.1060  177.1130  145.7350 N   0  0  0  0  0  0  0  0  0  0  0  0
  187.4130  174.8570  142.0700 C   0  0  0  0  0  1  0  0  0  0  0  0
  189.0010  177.9050  144.6050 O   0  0  0  0  0  0  0  0  0  0  0  0
  184.4920  177.9510  142.5010 C   0  0  0  0  0  0  0  0  0  0  0  0
  188.8900  176.7900  142.6120 C   0  0  0  0  0  2  0  0  0  0  0  0
  185.6260  177.1650  142.2740 C   0  0  0  0  0  3  0  0  0  0  0  0
  187.6990  175.9610  143.0730 C   0  0  1  0  0  3  0  0  0  0  0  0
  182.8900  178.5190  140.5390 N   0  0  0  0  0  0  0  0  0  0  0  0
  183.6050  178.2670  141.4160 C   0  0  0  0  0  0  0  0  0  0  0  0
  190.7840  178.0070  143.2080 C   0  0  0  0  0  2  0  0  0  0  0  0
  192.1520  177.3840  143.4070 C   0  0  0  0  0  2  0  0  0  0  0  0
  193.7580  176.9920  145.2500 C   0  0  0  0  0  2  0  0  0  0  0  0
  192.3060  176.8890  144.8400 C   0  0  2  0  0  3  0  0  0  0  0  0
  193.1620  175.6270  144.9750 C   0  0  1  0  0  3  0  0  0  0  0  0
  193.6210  175.1510  143.7120 O   0  0  0  0  0  0  0  0  0  0  0  0
  194.5630  173.4700  142.4750 O   0  0  0  0  0  0  0  0  0  0  0  0
  194.4040  174.0020  143.6040 C   0  0  0  0  0  0  0  0  0  0  0  0
  195.0280  173.4340  144.7640 N   0  0  0  0  0  2  0  0  0  0  0  0
  195.1680  171.1200  145.5140 C   0  0  0  0  0  1  0  0  0  0  0  0
  195.8440  172.2300  144.7250 C   0  0  2  0  0  3  0  0  0  0  0  0
  197.3150  173.8990  145.5850 O   0  0  0  0  0  1  0  0  0  0  0  0
  197.1990  172.5300  145.3410 C   0  0  0  0  0  2  0  0  0  0  0  0
  189.2080  176.9310  146.8950 C   0  0  0  0  0  2  0  0  0  0  0  0
  188.9970  175.4700  147.2380 C   0  0  2  0  0  3  0  0  0  0  0  0
  190.1840  174.9210  147.7230 N   0  0  0  0  0  2  0  0  0  0  0  0
  189.6660  174.7020  146.3000 C   0  0  0  0  0  0  0  0  0  0  0  0
  189.7890  174.2130  145.1120 N   0  0  0  0  0  2  0  0  0  0  0  0
  1  7  2  0  0  0  0
  1 29  1  0  0  0  0
  3  9  1  0  0  0  0
  4  2  2  0  0  0  0
  5  6  2  0  0  0  0
  6  2  1  0  0  0  0
  6  7  1  0  0  0  0
  9  1  1  0  0  0  0
 10  4  1  0  0  0  0
 11 13  1  0  0  0  0
 11  3  1  0  0  0  0
 12 10  2  0  0  0  0
 12  5  1  0  0  0  0
 13  8  1  6  0  0  0
 13  5  1  0  0  0  0
 14 15  3  0  0  0  0
 15 10  1  0  0  0  0
 16 17  1  0  0  0  0
 16  3  1  0  0  0  0
 19 17  1  6  0  0  0
 19 20  1  0  0  0  0
 19 18  1  0  0  0  0
 20 21  1  6  0  0  0
 20 18  1  0  0  0  0
 22 23  2  0  0  0  0
 23 21  1  0  0  0  0
 23 24  1  0  0  0  0
 26 24  1  0  0  0  0
 26 28  1  0  0  0  0
 26 25  1  1  0  0  0
 28 27  1  0  0  0  0
 30 29  1  6  0  0  0
 30 31  1  0  0  0  0
 32 30  1  0  0  0  0
 32 31  1  0  0  0  0
 33 32  2  0  0  0  0
M  END
>  <MODEL>
7

>  <REMARK>
 VINA RESULT:      -6.7      3.163      9.801
  Name = 
  10 active torsions:
  status: ('A' for Active; 'I' for Inactive)
    1  A    between atoms: C_3  and  C_23
    2  A    between atoms: C_5  and  C_23
    3  A    between atoms: O_6  and  C_12
    4  A    between atoms: O_6  and  C_30
    5  A    between atoms: C_10  and  C_22
    6  A    between atoms: C_13  and  C_29
    7  A    between atoms: N_14  and  C_20
    8  A    between atoms: CA_16  and  C_26
    9  A    between atoms: CA_16  and  N_27
   10  A    between atoms: C_20  and  C_22
                            x       y       z     vdW  Elec       q    Type
                         _______ _______ _______ _____ _____    ______ ____

>  <TORSDO>
F 10

$$$$
=
 OpenBabel11042415033D

 33 36  0  0  1  0  0  0  0  0999 V2000
  187.5450  176.6860  145.9380 C   0  0  0  0  0  0  0  0  0  0  0  0
  190.5590  176.0680  147.6400 C   0  0  0  0  0  3  0  0  0  0  0  0
  187.8680  176.4590  143.5650 N   0  0  0  0  0  0  0  0  0  0  0  0
  191.9000  175.7010  147.5010 C   0  0  0  0  0  3  0  0  0  0  0  0
  190.5620  176.9810  145.3830 C   0  0  0  0  0  0  0  0  0  0  0  0
  189.8710  176.6750  146.5830 C   0  0  0  0  0  0  0  0  0  0  0  0
  188.4880  177.0050  146.7720 N   0  0  0  0  0  0  0  0  0  0  0  0
  190.7910  178.6730  143.5260 C   0  0  0  0  0  1  0  0  0  0  0  0
  187.8170  175.8930  144.8200 O   0  0  0  0  0  0  0  0  0  0  0  0
  192.5680  175.9460  146.3010 C   0  0  0  0  0  0  0  0  0  0  0  0
  189.2720  176.7140  143.2590 C   0  0  0  0  0  2  0  0  0  0  0  0
  191.9050  176.5860  145.2500 C   0  0  0  0  0  3  0  0  0  0  0  0
  189.8710  177.7030  144.2500 C   0  0  1  0  0  3  0  0  0  0  0  0
  195.0540  175.2450  146.0400 N   0  0  0  0  0  0  0  0  0  0  0  0
  193.9440  175.5560  146.1550 C   0  0  0  0  0  0  0  0  0  0  0  0
  187.4320  175.4320  142.6340 C   0  0  0  0  0  2  0  0  0  0  0  0
  188.6180  174.6210  142.1490 C   0  0  0  0  0  2  0  0  0  0  0  0
  189.3520  172.4580  141.1950 C   0  0  0  0  0  2  0  0  0  0  0  0
  188.1860  173.2000  141.8100 C   0  0  2  0  0  3  0  0  0  0  0  0
  188.1980  172.8860  140.3120 C   0  0  1  0  0  3  0  0  0  0  0  0
  188.5870  174.0110  139.5290 O   0  0  0  0  0  0  0  0  0  0  0  0
  187.8180  174.6460  137.4670 O   0  0  0  0  0  0  0  0  0  0  0  0
  188.6290  173.9550  138.1360 C   0  0  0  0  0  0  0  0  0  0  0  0
  189.5900  173.1230  137.4700 N   0  0  0  0  0  2  0  0  0  0  0  0
  189.4760  171.5570  135.6070 C   0  0  0  0  0  1  0  0  0  0  0  0
  189.6780  173.0050  136.0220 C   0  0  2  0  0  3  0  0  0  0  0  0
  191.0770  174.8640  135.4950 O   0  0  0  0  0  1  0  0  0  0  0  0
  191.0510  173.4710  135.5700 C   0  0  0  0  0  2  0  0  0  0  0  0
  186.1580  177.1650  146.1850 C   0  0  0  0  0  2  0  0  0  0  0  0
  185.9600  178.5530  145.6100 C   0  0  2  0  0  3  0  0  0  0  0  0
  184.7020  179.0380  145.9680 N   0  0  0  0  0  2  0  0  0  0  0  0
  185.0320  178.4710  144.5850 C   0  0  0  0  0  0  0  0  0  0  0  0
  184.6890  178.1290  143.3890 N   0  0  0  0  0  2  0  0  0  0  0  0
  1 29  1  0  0  0  0
  1  7  2  0  0  0  0
  3  9  1  0  0  0  0
  4  2  1  0  0  0  0
  5  6  1  0  0  0  0
  6  7  1  0  0  0  0
  6  2  2  0  0  0  0
  9  1  1  0  0  0  0
 10  4  2  0  0  0  0
 11  3  1  0  0  0  0
 11 13  1  0  0  0  0
 12  5  2  0  0  0  0
 12 10  1  0  0  0  0
 13  8  1  6  0  0  0
 13  5  1  0  0  0  0
 14 15  3  0  0  0  0
 15 10  1  0  0  0  0
 16  3  1  0  0  0  0
 17 16  1  0  0  0  0
 18 19  1  0  0  0  0
 19 17  1  6  0  0  0
 20 21  1  6  0  0  0
 20 18  1  0  0  0  0
 20 19  1  0  0  0  0
 22 23  2  0  0  0  0
 23 21  1  0  0  0  0
 24 23  1  0  0  0  0
 26 25  1  1  0  0  0
 26 24  1  0  0  0  0
 27 28  1  0  0  0  0
 28 26  1  0  0  0  0
 30 31  1  0  0  0  0
 30 29  1  1  0  0  0
 32 30  1  0  0  0  0
 32 31  1  0  0  0  0
 33 32  2  0  0  0  0
M  END
>  <MODEL>
8

>  <REMARK>
 VINA RESULT:      -6.7      4.123      6.016
  Name = 
  10 active torsions:
  status: ('A' for Active; 'I' for Inactive)
    1  A    between atoms: C_3  and  C_23
    2  A    between atoms: C_5  and  C_23
    3  A    between atoms: O_6  and  C_12
    4  A    between atoms: O_6  and  C_30
    5  A    between atoms: C_10  and  C_22
    6  A    between atoms: C_13  and  C_29
    7  A    between atoms: N_14  and  C_20
    8  A    between atoms: CA_16  and  C_26
    9  A    between atoms: CA_16  and  N_27
   10  A    between atoms: C_20  and  C_22
                            x       y       z     vdW  Elec       q    Type
                         _______ _______ _______ _____ _____    ______ ____

>  <TORSDO>
F 10

$$$$
=
 OpenBabel11042415033D

 33 36  0  0  1  0  0  0  0  0999 V2000
  190.8090  176.9020  144.2650 C   0  0  0  0  0  0  0  0  0  0  0  0
  188.4080  178.2630  142.0880 C   0  0  0  0  0  3  0  0  0  0  0  0
  189.7550  175.4350  145.8550 N   0  0  0  0  0  0  0  0  0  0  0  0
  187.0560  178.2760  141.7360 C   0  0  0  0  0  3  0  0  0  0  0  0
  187.8200  177.6440  144.3680 C   0  0  0  0  0  0  0  0  0  0  0  0
  188.8040  177.9180  143.3850 C   0  0  0  0  0  0  0  0  0  0  0  0
  190.2070  177.8940  143.6830 N   0  0  0  0  0  0  0  0  0  0  0  0
  187.2290  177.9170  146.8050 C   0  0  0  0  0  1  0  0  0  0  0  0
  190.1210  175.7200  144.5570 O   0  0  0  0  0  0  0  0  0  0  0  0
  186.0850  177.9490  142.6840 C   0  0  0  0  0  0  0  0  0  0  0  0
  188.3630  175.8430  146.0130 C   0  0  0  0  0  2  0  0  0  0  0  0
  186.4650  177.6400  143.9940 C   0  0  0  0  0  3  0  0  0  0  0  0
  188.2100  177.3420  145.7970 C   0  0  1  0  0  3  0  0  0  0  0  0
  183.5750  177.9510  142.0240 N   0  0  0  0  0  0  0  0  0  0  0  0
  184.6960  177.9510  142.3170 C   0  0  0  0  0  0  0  0  0  0  0  0
  189.7680  173.9870  145.9750 C   0  0  0  0  0  2  0  0  0  0  0  0
  190.3500  173.3590  144.7240 C   0  0  0  0  0  2  0  0  0  0  0  0
  190.0810  171.5840  143.0190 C   0  0  0  0  0  2  0  0  0  0  0  0
  189.4250  172.2700  144.1960 C   0  0  2  0  0  3  0  0  0  0  0  0
  188.9150  172.5200  142.7740 C   0  0  1  0  0  3  0  0  0  0  0  0
  189.3960  173.7510  142.2400 O   0  0  0  0  0  0  0  0  0  0  0  0
  188.3160  174.9900  140.6440 O   0  0  0  0  0  0  0  0  0  0  0  0
  189.1730  174.1080  140.9090 C   0  0  0  0  0  0  0  0  0  0  0  0
  189.9170  173.4820  139.8540 N   0  0  0  0  0  2  0  0  0  0  0  0
  188.5700  172.9800  137.8870 C   0  0  0  0  0  1  0  0  0  0  0  0
  189.7250  173.7950  138.4470 C   0  0  2  0  0  3  0  0  0  0  0  0
  192.0700  174.1680  138.2200 O   0  0  0  0  0  1  0  0  0  0  0  0
  190.9950  173.4570  137.6860 C   0  0  0  0  0  2  0  0  0  0  0  0
  192.2500  177.0240  144.6150 C   0  0  0  0  0  2  0  0  0  0  0  0
  193.0430  175.8730  144.0300 C   0  0  2  0  0  3  0  0  0  0  0  0
  193.4560  175.0150  145.0490 N   0  0  0  0  0  2  0  0  0  0  0  0
  194.3740  176.0400  144.3770 C   0  0  0  0  0  0  0  0  0  0  0  0
  195.5110  176.6380  144.2620 N   0  0  0  0  0  2  0  0  0  0  0  0
  1  9  1  0  0  0  0
  1 29  1  0  0  0  0
  2  6  1  0  0  0  0
  3 16  1  0  0  0  0
  3 11  1  0  0  0  0
  4  2  2  0  0  0  0
  4 10  1  0  0  0  0
  5 13  1  0  0  0  0
  6  7  1  0  0  0  0
  6  5  2  0  0  0  0
  7  1  2  0  0  0  0
  9  3  1  0  0  0  0
 10 12  2  0  0  0  0
 12  5  1  0  0  0  0
 13 11  1  0  0  0  0
 13  8  1  1  0  0  0
 14 15  3  0  0  0  0
 15 10  1  0  0  0  0
 17 16  1  0  0  0  0
 18 19  1  0  0  0  0
 19 17  1  6  0  0  0
 20 21  1  6  0  0  0
 20 18  1  0  0  0  0
 20 19  1  0  0  0  0
 22 23  2  0  0  0  0
 23 21  1  0  0  0  0
 24 23  1  0  0  0  0
 26 25  1  6  0  0  0
 26 24  1  0  0  0  0
 28 27  1  0  0  0  0
 28 26  1  0  0  0  0
 30 32  1  0  0  0  0
 30 29  1  1  0  0  0
 30 31  1  0  0  0  0
 32 31  1  0  0  0  0
 33 32  2  0  0  0  0
M  END
>  <MODEL>
9

>  <REMARK>
 VINA RESULT:      -6.6      3.400      7.972
  Name = 
  10 active torsions:
  status: ('A' for Active; 'I' for Inactive)
    1  A    between atoms: C_3  and  C_23
    2  A    between atoms: C_5  and  C_23
    3  A    between atoms: O_6  and  C_12
    4  A    between atoms: O_6  and  C_30
    5  A    between atoms: C_10  and  C_22
    6  A    between atoms: C_13  and  C_29
    7  A    between atoms: N_14  and  C_20
    8  A    between atoms: CA_16  and  C_26
    9  A    between atoms: CA_16  and  N_27
   10  A    between atoms: C_20  and  C_22
                            x       y       z     vdW  Elec       q    Type
                         _______ _______ _______ _____ _____    ______ ____

>  <TORSDO>
F 10

$$$$
