=
 OpenBabel11042417193D

 26 28  0  0  1  0  0  0  0  0999 V2000
  186.3590  177.6110  141.1030 C   0  0  0  0  0  3  0  0  0  0  0  0
  184.9020  177.9530  147.5370 C   0  0  0  0  0  3  0  0  0  0  0  0
  187.7420  177.5000  141.0170 C   0  0  0  0  0  3  0  0  0  0  0  0
  183.5400  178.6110  143.0830 C   0  0  0  0  0  3  0  0  0  0  0  0
  185.7180  177.7770  142.3350 C   0  0  0  0  0  0  0  0  0  0  0  0
  186.4480  177.0390  145.9270 C   0  0  0  0  0  3  0  0  0  0  0  0
  184.2950  177.9300  142.2810 N   0  0  0  0  0  0  0  0  0  0  0  0
  185.9760  177.1180  147.2370 C   0  0  0  0  0  3  0  0  0  0  0  0
  184.0170  179.2560  144.2190 O   0  0  0  0  0  0  0  0  0  0  0  0
  184.2860  178.6800  146.5180 C   0  0  0  0  0  3  0  0  0  0  0  0
  187.9030  177.7010  143.4260 C   0  0  0  0  0  0  0  0  0  0  0  0
  185.8580  177.7840  144.8890 C   0  0  0  0  0  0  0  0  0  0  0  0
  184.7350  178.5790  145.1960 C   0  0  0  0  0  0  0  0  0  0  0  0
  188.5090  177.5570  142.1720 C   0  0  0  0  0  3  0  0  0  0  0  0
  186.4860  177.7720  143.5350 C   0  0  0  0  0  0  0  0  0  0  0  0
  188.7050  177.7900  144.5680 O   0  0  0  0  0  0  0  0  0  0  0  0
  190.0790  177.8520  144.4920 N   0  0  0  0  0  2  0  0  0  0  0  0
  190.5900  176.6100  145.0490 C   0  0  1  0  0  3  0  0  0  0  0  0
  194.1960  176.4940  146.4800 C   0  0  0  0  0  1  0  0  0  0  0  0
  192.0810  176.6620  145.1210 C   0  0  0  0  0  0  0  0  0  0  0  0
  192.7420  176.8850  144.0710 O   0  0  0  0  0  0  0  0  0  0  0  0
  192.7480  176.4580  146.3670 N   0  0  0  0  0  2  0  0  0  0  0  0
  189.9880  176.3720  146.4280 C   0  0  0  0  0  2  0  0  0  0  0  0
  189.6290  174.0920  145.4860 O   0  0  0  0  0  0  0  0  0  0  0  0
  189.4580  174.9840  146.5370 C   0  0  0  0  0  0  0  0  0  0  0  0
  188.8820  174.6110  147.5900 O   0  0  0  0  0  1  0  0  0  0  0  0
  1  5  1  0  0  0  0
  3  1  2  0  0  0  0
  3 14  1  0  0  0  0
  4  9  1  0  0  0  0
  5 15  2  0  0  0  0
  6  8  2  0  0  0  0
  7  5  1  0  0  0  0
  7  4  2  0  0  0  0
  8  2  1  0  0  0  0
  9 13  1  0  0  0  0
 10  2  2  0  0  0  0
 11 15  1  0  0  0  0
 11 16  1  0  0  0  0
 12 13  2  0  0  0  0
 12  6  1  0  0  0  0
 13 10  1  0  0  0  0
 14 11  2  0  0  0  0
 15 12  1  0  0  0  0
 17 16  1  0  0  0  0
 17 18  1  0  0  0  0
 18 20  1  0  0  0  0
 18 23  1  1  0  0  0
 20 22  1  0  0  0  0
 21 20  2  0  0  0  0
 22 19  1  0  0  0  0
 23 25  1  0  0  0  0
 24 25  2  0  0  0  0
 25 26  1  0  0  0  0
M  END
>  <MODEL>
1

>  <REMARK>
 VINA RESULT:      -7.4      0.000      0.000
  Name = 
  6 active torsions:
  status: ('A' for Active; 'I' for Inactive)
    1  A    between atoms: C_8  and  C_20
    2  A    between atoms: C_14  and  O_16
    3  A    between atoms: C_15  and  C_24
    4  A    between atoms: O_16  and  N_18
    5  A    between atoms: N_18  and  C_24
    6  A    between atoms: C_20  and  C_24
                            x       y       z     vdW  Elec       q    Type
                         _______ _______ _______ _____ _____    ______ ____

>  <TORSDO>
F 6

$$$$
=
 OpenBabel11042417193D

 26 28  0  0  1  0  0  0  0  0999 V2000
  184.1920  178.6870  146.4030 C   0  0  0  0  0  3  0  0  0  0  0  0
  188.4470  177.3600  141.5280 C   0  0  0  0  0  3  0  0  0  0  0  0
  184.8220  178.3240  147.5870 C   0  0  0  0  0  3  0  0  0  0  0  0
  184.0290  178.2980  142.8400 C   0  0  0  0  0  3  0  0  0  0  0  0
  184.7960  178.4690  145.1600 C   0  0  0  0  0  0  0  0  0  0  0  0
  188.2660  178.0290  143.8380 C   0  0  0  0  0  3  0  0  0  0  0  0
  184.0190  178.8410  144.0160 N   0  0  0  0  0  0  0  0  0  0  0  0
  189.0450  177.8110  142.7020 C   0  0  0  0  0  3  0  0  0  0  0  0
  184.9000  177.2770  142.4770 O   0  0  0  0  0  0  0  0  0  0  0  0
  187.0680  177.1590  141.4880 C   0  0  0  0  0  3  0  0  0  0  0  0
  186.7220  177.5130  146.3200 C   0  0  0  0  0  0  0  0  0  0  0  0
  186.8760  177.8070  143.8260 C   0  0  0  0  0  0  0  0  0  0  0  0
  186.2760  177.4080  142.6150 C   0  0  0  0  0  0  0  0  0  0  0  0
  186.0750  177.7290  147.5440 C   0  0  0  0  0  3  0  0  0  0  0  0
  186.1080  177.9190  145.1020 C   0  0  0  0  0  0  0  0  0  0  0  0
  187.9690  176.8810  146.3070 O   0  0  0  0  0  0  0  0  0  0  0  0
  188.1570  175.6270  146.8480 N   0  0  0  0  0  2  0  0  0  0  0  0
  189.5680  175.3090  146.6950 C   0  0  1  0  0  3  0  0  0  0  0  0
  190.3410  174.0490  143.1060 C   0  0  0  0  0  1  0  0  0  0  0  0
  189.7570  174.3890  145.5340 C   0  0  0  0  0  0  0  0  0  0  0  0
  189.5780  173.1520  145.6910 O   0  0  0  0  0  0  0  0  0  0  0  0
  190.1410  174.9090  144.2600 N   0  0  0  0  0  2  0  0  0  0  0  0
  190.3730  176.5890  146.5100 C   0  0  0  0  0  2  0  0  0  0  0  0
  191.4830  177.1620  148.6680 O   0  0  0  0  0  1  0  0  0  0  0  0
  191.5660  176.5930  147.4040 C   0  0  0  0  0  0  0  0  0  0  0  0
  192.6370  176.0560  147.0250 O   0  0  0  0  0  0  0  0  0  0  0  0
  1  3  1  0  0  0  0
  2  8  1  0  0  0  0
  4  7  2  0  0  0  0
  5  1  2  0  0  0  0
  7  5  1  0  0  0  0
  8  6  2  0  0  0  0
  9 13  1  0  0  0  0
  9  4  1  0  0  0  0
 10  2  2  0  0  0  0
 10 13  1  0  0  0  0
 11 14  1  0  0  0  0
 12  6  1  0  0  0  0
 12 15  1  0  0  0  0
 13 12  2  0  0  0  0
 14  3  2  0  0  0  0
 15  5  1  0  0  0  0
 15 11  2  0  0  0  0
 16 11  1  0  0  0  0
 16 17  1  0  0  0  0
 18 23  1  6  0  0  0
 18 17  1  0  0  0  0
 19 22  1  0  0  0  0
 20 21  2  0  0  0  0
 20 18  1  0  0  0  0
 22 20  1  0  0  0  0
 23 25  1  0  0  0  0
 25 24  1  0  0  0  0
 26 25  2  0  0  0  0
M  END
>  <MODEL>
2

>  <REMARK>
 VINA RESULT:      -7.1      1.799      4.140
  Name = 
  6 active torsions:
  status: ('A' for Active; 'I' for Inactive)
    1  A    between atoms: C_8  and  C_20
    2  A    between atoms: C_14  and  O_16
    3  A    between atoms: C_15  and  C_24
    4  A    between atoms: O_16  and  N_18
    5  A    between atoms: N_18  and  C_24
    6  A    between atoms: C_20  and  C_24
                            x       y       z     vdW  Elec       q    Type
                         _______ _______ _______ _____ _____    ______ ____

>  <TORSDO>
F 6

$$$$
=
 OpenBabel11042417193D

 26 28  0  0  1  0  0  0  0  0999 V2000
  184.4000  178.7420  146.5930 C   0  0  0  0  0  3  0  0  0  0  0  0
  187.9270  177.3110  141.1940 C   0  0  0  0  0  3  0  0  0  0  0  0
  185.1210  178.2520  147.6760 C   0  0  0  0  0  3  0  0  0  0  0  0
  183.8010  178.5810  143.0600 C   0  0  0  0  0  3  0  0  0  0  0  0
  184.8370  178.5410  145.2790 C   0  0  0  0  0  0  0  0  0  0  0  0
  188.0740  177.8560  143.5380 C   0  0  0  0  0  3  0  0  0  0  0  0
  183.9770  179.0520  144.2530 N   0  0  0  0  0  0  0  0  0  0  0  0
  188.6950  177.6340  142.3090 C   0  0  0  0  0  3  0  0  0  0  0  0
  184.5190  177.5050  142.5480 O   0  0  0  0  0  0  0  0  0  0  0  0
  186.5390  177.2430  141.3060 C   0  0  0  0  0  3  0  0  0  0  0  0
  186.7750  177.3420  146.1570 C   0  0  0  0  0  0  0  0  0  0  0  0
  186.6760  177.7670  143.6790 C   0  0  0  0  0  0  0  0  0  0  0  0
  185.9070  177.4980  142.5290 C   0  0  0  0  0  0  0  0  0  0  0  0
  186.2950  177.5450  147.4570 C   0  0  0  0  0  3  0  0  0  0  0  0
  186.0720  177.8750  145.0400 C   0  0  0  0  0  0  0  0  0  0  0  0
  187.9440  176.5980  145.9670 O   0  0  0  0  0  0  0  0  0  0  0  0
  189.0940  176.8490  146.6840 N   0  0  0  0  0  2  0  0  0  0  0  0
  190.1320  175.9980  146.1260 C   0  0  1  0  0  3  0  0  0  0  0  0
  193.9160  176.6620  146.6870 C   0  0  0  0  0  1  0  0  0  0  0  0
  191.4300  176.2650  146.8160 C   0  0  0  0  0  0  0  0  0  0  0  0
  191.4510  176.3770  148.0710 O   0  0  0  0  0  0  0  0  0  0  0  0
  192.6340  176.3970  146.0570 N   0  0  0  0  0  2  0  0  0  0  0  0
  189.7350  174.5340  146.2640 C   0  0  0  0  0  2  0  0  0  0  0  0
  189.8440  174.5710  143.7730 O   0  0  0  0  0  0  0  0  0  0  0  0
  189.8410  173.8360  144.9520 C   0  0  0  0  0  0  0  0  0  0  0  0
  189.9570  172.5850  144.9120 O   0  0  0  0  0  1  0  0  0  0  0  0
  1  3  1  0  0  0  0
  2 10  2  0  0  0  0
  2  8  1  0  0  0  0
  4  7  2  0  0  0  0
  5  1  2  0  0  0  0
  6 12  1  0  0  0  0
  7  5  1  0  0  0  0
  8  6  2  0  0  0  0
  9  4  1  0  0  0  0
 10 13  1  0  0  0  0
 11 14  1  0  0  0  0
 12 15  1  0  0  0  0
 13  9  1  0  0  0  0
 13 12  2  0  0  0  0
 14  3  2  0  0  0  0
 15  5  1  0  0  0  0
 15 11  2  0  0  0  0
 16 11  1  0  0  0  0
 16 17  1  0  0  0  0
 18 23  1  1  0  0  0
 18 17  1  0  0  0  0
 18 20  1  0  0  0  0
 20 21  2  0  0  0  0
 22 19  1  0  0  0  0
 22 20  1  0  0  0  0
 24 25  2  0  0  0  0
 25 23  1  0  0  0  0
 26 25  1  0  0  0  0
M  END
>  <MODEL>
3

>  <REMARK>
 VINA RESULT:      -7.1      1.438      3.652
  Name = 
  6 active torsions:
  status: ('A' for Active; 'I' for Inactive)
    1  A    between atoms: C_8  and  C_20
    2  A    between atoms: C_14  and  O_16
    3  A    between atoms: C_15  and  C_24
    4  A    between atoms: O_16  and  N_18
    5  A    between atoms: N_18  and  C_24
    6  A    between atoms: C_20  and  C_24
                            x       y       z     vdW  Elec       q    Type
                         _______ _______ _______ _____ _____    ______ ____

>  <TORSDO>
F 6

$$$$
=
 OpenBabel11042417193D

 26 28  0  0  1  0  0  0  0  0999 V2000
  185.9190  177.7390  141.1870 C   0  0  0  0  0  3  0  0  0  0  0  0
  185.7720  177.8170  147.7910 C   0  0  0  0  0  3  0  0  0  0  0  0
  187.2260  177.4310  140.8260 C   0  0  0  0  0  3  0  0  0  0  0  0
  183.7190  178.9950  143.7270 C   0  0  0  0  0  3  0  0  0  0  0  0
  185.5570  177.9060  142.5280 C   0  0  0  0  0  0  0  0  0  0  0  0
  186.8230  176.8060  145.8700 C   0  0  0  0  0  3  0  0  0  0  0  0
  184.1910  178.2710  142.7620 N   0  0  0  0  0  0  0  0  0  0  0  0
  186.6240  176.8570  147.2490 C   0  0  0  0  0  3  0  0  0  0  0  0
  184.4970  179.4770  144.7730 O   0  0  0  0  0  0  0  0  0  0  0  0
  185.0990  178.6990  146.9470 C   0  0  0  0  0  3  0  0  0  0  0  0
  187.8670  177.4290  143.1620 C   0  0  0  0  0  0  0  0  0  0  0  0
  186.1730  177.7040  145.0020 C   0  0  0  0  0  0  0  0  0  0  0  0
  185.2690  178.6310  145.5590 C   0  0  0  0  0  0  0  0  0  0  0  0
  188.1960  177.2900  141.8080 C   0  0  0  0  0  3  0  0  0  0  0  0
  186.5250  177.7000  143.5510 C   0  0  0  0  0  0  0  0  0  0  0  0
  188.8730  177.3140  144.1260 O   0  0  0  0  0  0  0  0  0  0  0  0
  189.9960  176.5420  143.9200 N   0  0  0  0  0  2  0  0  0  0  0  0
  189.6840  175.2060  144.4040 C   0  0  1  0  0  3  0  0  0  0  0  0
  190.6590  173.6500  140.9840 C   0  0  0  0  0  1  0  0  0  0  0  0
  189.8160  174.2200  143.2900 C   0  0  0  0  0  0  0  0  0  0  0  0
  189.3190  173.0700  143.4220 O   0  0  0  0  0  0  0  0  0  0  0  0
  190.5030  174.5800  142.0890 N   0  0  0  0  0  2  0  0  0  0  0  0
  190.6050  174.8440  145.5620 C   0  0  0  0  0  2  0  0  0  0  0  0
  190.2750  176.3990  147.4830 O   0  0  0  0  0  1  0  0  0  0  0  0
  189.9720  175.1920  146.8650 C   0  0  0  0  0  0  0  0  0  0  0  0
  189.1420  174.4080  147.3920 O   0  0  0  0  0  0  0  0  0  0  0  0
  1  5  1  0  0  0  0
  3  1  2  0  0  0  0
  3 14  1  0  0  0  0
  4  9  1  0  0  0  0
  5  7  1  0  0  0  0
  5 15  2  0  0  0  0
  6  8  2  0  0  0  0
  7  4  2  0  0  0  0
  8  2  1  0  0  0  0
  9 13  1  0  0  0  0
 10  2  2  0  0  0  0
 11 15  1  0  0  0  0
 11 16  1  0  0  0  0
 12 13  2  0  0  0  0
 12  6  1  0  0  0  0
 13 10  1  0  0  0  0
 14 11  2  0  0  0  0
 15 12  1  0  0  0  0
 17 16  1  0  0  0  0
 17 18  1  0  0  0  0
 18 23  1  1  0  0  0
 19 22  1  0  0  0  0
 20 21  2  0  0  0  0
 20 18  1  0  0  0  0
 22 20  1  0  0  0  0
 23 25  1  0  0  0  0
 25 26  2  0  0  0  0
 25 24  1  0  0  0  0
M  END
>  <MODEL>
4

>  <REMARK>
 VINA RESULT:      -7.0      1.664      2.352
  Name = 
  6 active torsions:
  status: ('A' for Active; 'I' for Inactive)
    1  A    between atoms: C_8  and  C_20
    2  A    between atoms: C_14  and  O_16
    3  A    between atoms: C_15  and  C_24
    4  A    between atoms: O_16  and  N_18
    5  A    between atoms: N_18  and  C_24
    6  A    between atoms: C_20  and  C_24
                            x       y       z     vdW  Elec       q    Type
                         _______ _______ _______ _____ _____    ______ ____

>  <TORSDO>
F 6

$$$$
=
 OpenBabel11042417193D

 26 28  0  0  1  0  0  0  0  0999 V2000
  185.0450  178.3110  146.9230 C   0  0  0  0  0  3  0  0  0  0  0  0
  187.1700  177.8440  140.6850 C   0  0  0  0  0  3  0  0  0  0  0  0
  185.9350  177.5780  147.6980 C   0  0  0  0  0  3  0  0  0  0  0  0
  183.6810  178.9010  143.6580 C   0  0  0  0  0  3  0  0  0  0  0  0
  185.1660  178.3620  145.5300 C   0  0  0  0  0  0  0  0  0  0  0  0
  187.8720  177.8930  142.9920 C   0  0  0  0  0  3  0  0  0  0  0  0
  184.1550  179.1110  144.8440 N   0  0  0  0  0  0  0  0  0  0  0  0
  188.1880  177.8960  141.6340 C   0  0  0  0  0  3  0  0  0  0  0  0
  184.1690  177.9200  142.8010 O   0  0  0  0  0  0  0  0  0  0  0  0
  185.8390  177.8210  141.1010 C   0  0  0  0  0  3  0  0  0  0  0  0
  187.1300  176.9190  145.6960 C   0  0  0  0  0  0  0  0  0  0  0  0
  186.5360  177.8430  143.4330 C   0  0  0  0  0  0  0  0  0  0  0  0
  185.5140  177.8510  142.4610 C   0  0  0  0  0  0  0  0  0  0  0  0
  186.9640  176.8750  147.0860 C   0  0  0  0  0  3  0  0  0  0  0  0
  186.2540  177.7010  144.8920 C   0  0  0  0  0  0  0  0  0  0  0  0
  188.1550  176.1740  145.1050 O   0  0  0  0  0  0  0  0  0  0  0  0
  188.9400  175.3070  145.8340 N   0  0  0  0  0  2  0  0  0  0  0  0
  190.2400  175.2660  145.1840 C   0  0  1  0  0  3  0  0  0  0  0  0
  189.3480  172.9030  142.2360 C   0  0  0  0  0  1  0  0  0  0  0  0
  190.0940  174.7380  143.7940 C   0  0  0  0  0  0  0  0  0  0  0  0
  190.4860  175.4400  142.8230 O   0  0  0  0  0  0  0  0  0  0  0  0
  189.5130  173.4520  143.5710 N   0  0  0  0  0  2  0  0  0  0  0  0
  190.8620  176.6570  145.1750 C   0  0  0  0  0  2  0  0  0  0  0  0
  193.3060  176.7790  144.6950 O   0  0  0  0  0  0  0  0  0  0  0  0
  192.2830  176.5990  145.6180 C   0  0  0  0  0  0  0  0  0  0  0  0
  192.5560  176.4160  146.8320 O   0  0  0  0  0  1  0  0  0  0  0  0
  1  3  1  0  0  0  0
  2 10  2  0  0  0  0
  2  8  1  0  0  0  0
  4  7  2  0  0  0  0
  5  1  2  0  0  0  0
  6 12  1  0  0  0  0
  7  5  1  0  0  0  0
  8  6  2  0  0  0  0
  9  4  1  0  0  0  0
 10 13  1  0  0  0  0
 11 14  1  0  0  0  0
 12 15  1  0  0  0  0
 13  9  1  0  0  0  0
 13 12  2  0  0  0  0
 14  3  2  0  0  0  0
 15  5  1  0  0  0  0
 15 11  2  0  0  0  0
 16 11  1  0  0  0  0
 16 17  1  0  0  0  0
 18 23  1  6  0  0  0
 18 17  1  0  0  0  0
 19 22  1  0  0  0  0
 20 18  1  0  0  0  0
 21 20  2  0  0  0  0
 22 20  1  0  0  0  0
 23 25  1  0  0  0  0
 24 25  2  0  0  0  0
 25 26  1  0  0  0  0
M  END
>  <MODEL>
5

>  <REMARK>
 VINA RESULT:      -6.9      1.938      4.177
  Name = 
  6 active torsions:
  status: ('A' for Active; 'I' for Inactive)
    1  A    between atoms: C_8  and  C_20
    2  A    between atoms: C_14  and  O_16
    3  A    between atoms: C_15  and  C_24
    4  A    between atoms: O_16  and  N_18
    5  A    between atoms: N_18  and  C_24
    6  A    between atoms: C_20  and  C_24
                            x       y       z     vdW  Elec       q    Type
                         _______ _______ _______ _____ _____    ______ ____

>  <TORSDO>
F 6

$$$$
=
 OpenBabel11042417193D

 26 28  0  0  1  0  0  0  0  0999 V2000
  185.8190  177.5990  141.0380 C   0  0  0  0  0  3  0  0  0  0  0  0
  185.5630  177.8130  147.6350 C   0  0  0  0  0  3  0  0  0  0  0  0
  187.1090  177.2030  140.7060 C   0  0  0  0  0  3  0  0  0  0  0  0
  183.6590  179.0410  143.5140 C   0  0  0  0  0  3  0  0  0  0  0  0
  185.4440  177.8150  142.3690 C   0  0  0  0  0  0  0  0  0  0  0  0
  186.5800  176.7010  145.7520 C   0  0  0  0  0  3  0  0  0  0  0  0
  184.1010  178.2700  142.5720 N   0  0  0  0  0  0  0  0  0  0  0  0
  186.3620  176.7910  147.1270 C   0  0  0  0  0  3  0  0  0  0  0  0
  184.4490  179.4930  144.5660 O   0  0  0  0  0  0  0  0  0  0  0  0
  184.9620  178.7200  146.7630 C   0  0  0  0  0  3  0  0  0  0  0  0
  187.7090  177.2050  143.0540 C   0  0  0  0  0  0  0  0  0  0  0  0
  186.0040  177.6220  144.8570 C   0  0  0  0  0  0  0  0  0  0  0  0
  185.1510  178.6150  145.3810 C   0  0  0  0  0  0  0  0  0  0  0  0
  188.0510  177.0200  141.7080 C   0  0  0  0  0  3  0  0  0  0  0  0
  186.3800  177.5680  143.4130 C   0  0  0  0  0  0  0  0  0  0  0  0
  188.6890  177.0450  144.0380 O   0  0  0  0  0  0  0  0  0  0  0  0
  189.7480  177.9170  144.1620 N   0  0  0  0  0  2  0  0  0  0  0  0
  190.7790  177.2240  144.9190 C   0  0  1  0  0  3  0  0  0  0  0  0
  189.3160  174.5410  147.3120 C   0  0  0  0  0  1  0  0  0  0  0  0
  190.1780  176.5950  146.1330 C   0  0  0  0  0  0  0  0  0  0  0  0
  189.9280  177.3100  147.1390 O   0  0  0  0  0  0  0  0  0  0  0  0
  189.8950  175.1940  146.1510 N   0  0  0  0  0  2  0  0  0  0  0  0
  191.4550  176.1780  144.0420 C   0  0  0  0  0  2  0  0  0  0  0  0
  193.5280  177.1660  145.0130 O   0  0  0  0  0  1  0  0  0  0  0  0
  192.9180  176.1310  144.3150 C   0  0  0  0  0  0  0  0  0  0  0  0
  193.5970  175.1410  143.9390 O   0  0  0  0  0  0  0  0  0  0  0  0
  1  5  1  0  0  0  0
  3  1  2  0  0  0  0
  3 14  1  0  0  0  0
  4  9  1  0  0  0  0
  5  7  1  0  0  0  0
  5 15  2  0  0  0  0
  6  8  2  0  0  0  0
  7  4  2  0  0  0  0
  8  2  1  0  0  0  0
  9 13  1  0  0  0  0
 10  2  2  0  0  0  0
 11 15  1  0  0  0  0
 11 16  1  0  0  0  0
 12 13  2  0  0  0  0
 12  6  1  0  0  0  0
 13 10  1  0  0  0  0
 14 11  2  0  0  0  0
 15 12  1  0  0  0  0
 16 17  1  0  0  0  0
 17 18  1  0  0  0  0
 18 23  1  6  0  0  0
 18 20  1  0  0  0  0
 20 22  1  0  0  0  0
 20 21  2  0  0  0  0
 22 19  1  0  0  0  0
 23 25  1  0  0  0  0
 25 24  1  0  0  0  0
 26 25  2  0  0  0  0
M  END
>  <MODEL>
6

>  <REMARK>
 VINA RESULT:      -6.9      1.345      2.429
  Name = 
  6 active torsions:
  status: ('A' for Active; 'I' for Inactive)
    1  A    between atoms: C_8  and  C_20
    2  A    between atoms: C_14  and  O_16
    3  A    between atoms: C_15  and  C_24
    4  A    between atoms: O_16  and  N_18
    5  A    between atoms: N_18  and  C_24
    6  A    between atoms: C_20  and  C_24
                            x       y       z     vdW  Elec       q    Type
                         _______ _______ _______ _____ _____    ______ ____

>  <TORSDO>
F 6

$$$$
=
 OpenBabel11042417193D

 26 28  0  0  1  0  0  0  0  0999 V2000
  185.7960  178.2700  147.4890 C   0  0  0  0  0  3  0  0  0  0  0  0
  188.9610  175.3210  142.4970 C   0  0  0  0  0  3  0  0  0  0  0  0
  184.5270  178.5860  147.0200 C   0  0  0  0  0  3  0  0  0  0  0  0
  189.1990  177.4880  146.6640 C   0  0  0  0  0  3  0  0  0  0  0  0
  186.7580  177.6930  146.6530 C   0  0  0  0  0  0  0  0  0  0  0  0
  186.8000  175.6690  143.5100 C   0  0  0  0  0  3  0  0  0  0  0  0
  188.0420  177.4650  147.2460 N   0  0  0  0  0  0  0  0  0  0  0  0
  187.6010  175.0290  142.5640 C   0  0  0  0  0  3  0  0  0  0  0  0
  189.3630  177.6650  145.2950 O   0  0  0  0  0  0  0  0  0  0  0  0
  189.5190  176.2270  143.3990 C   0  0  0  0  0  3  0  0  0  0  0  0
  185.1290  177.7350  144.8330 C   0  0  0  0  0  0  0  0  0  0  0  0
  187.3380  176.6060  144.4110 C   0  0  0  0  0  0  0  0  0  0  0  0
  188.7260  176.8470  144.3710 C   0  0  0  0  0  0  0  0  0  0  0  0
  184.2000  178.3310  145.6950 C   0  0  0  0  0  3  0  0  0  0  0  0
  186.4180  177.3650  145.3100 C   0  0  0  0  0  0  0  0  0  0  0  0
  184.7820  177.5210  143.4950 O   0  0  0  0  0  0  0  0  0  0  0  0
  183.9770  178.3980  142.8010 N   0  0  0  0  0  2  0  0  0  0  0  0
  183.9210  177.9220  141.4280 C   0  0  1  0  0  3  0  0  0  0  0  0
  180.1610  178.8630  141.2070 C   0  0  0  0  0  1  0  0  0  0  0  0
  182.5290  178.0560  140.9020 C   0  0  0  0  0  0  0  0  0  0  0  0
  182.2530  177.5920  139.7630 O   0  0  0  0  0  0  0  0  0  0  0  0
  181.5250  178.7060  141.6830 N   0  0  0  0  0  2  0  0  0  0  0  0
  184.9050  178.7030  140.5650 C   0  0  0  0  0  2  0  0  0  0  0  0
  187.2500  178.1110  141.1740 O   0  0  0  0  0  1  0  0  0  0  0  0
  186.1510  177.9150  140.3470 C   0  0  0  0  0  0  0  0  0  0  0  0
  186.1990  177.0540  139.4320 O   0  0  0  0  0  0  0  0  0  0  0  0
  2  8  2  0  0  0  0
  2 10  1  0  0  0  0
  3  1  1  0  0  0  0
  4  7  2  0  0  0  0
  5  7  1  0  0  0  0
  5  1  2  0  0  0  0
  6 12  2  0  0  0  0
  8  6  1  0  0  0  0
  9  4  1  0  0  0  0
 10 13  2  0  0  0  0
 11 15  2  0  0  0  0
 11 14  1  0  0  0  0
 12 15  1  0  0  0  0
 13 12  1  0  0  0  0
 13  9  1  0  0  0  0
 14  3  2  0  0  0  0
 15  5  1  0  0  0  0
 16 11  1  0  0  0  0
 17 16  1  0  0  0  0
 18 23  1  6  0  0  0
 18 17  1  0  0  0  0
 19 22  1  0  0  0  0
 20 18  1  0  0  0  0
 20 22  1  0  0  0  0
 21 20  2  0  0  0  0
 25 23  1  0  0  0  0
 25 24  1  0  0  0  0
 26 25  2  0  0  0  0
M  END
>  <MODEL>
7

>  <REMARK>
 VINA RESULT:      -6.8      2.471      7.354
  Name = 
  6 active torsions:
  status: ('A' for Active; 'I' for Inactive)
    1  A    between atoms: C_8  and  C_20
    2  A    between atoms: C_14  and  O_16
    3  A    between atoms: C_15  and  C_24
    4  A    between atoms: O_16  and  N_18
    5  A    between atoms: N_18  and  C_24
    6  A    between atoms: C_20  and  C_24
                            x       y       z     vdW  Elec       q    Type
                         _______ _______ _______ _____ _____    ______ ____

>  <TORSDO>
F 6

$$$$
=
 OpenBabel11042417193D

 26 28  0  0  1  0  0  0  0  0999 V2000
  187.9420  175.4970  141.6190 C   0  0  0  0  0  3  0  0  0  0  0  0
  184.9160  178.8960  146.4070 C   0  0  0  0  0  3  0  0  0  0  0  0
  188.8680  174.6720  142.2460 C   0  0  0  0  0  3  0  0  0  0  0  0
  185.9140  178.4480  141.8330 C   0  0  0  0  0  3  0  0  0  0  0  0
  187.1720  176.4100  142.3470 C   0  0  0  0  0  0  0  0  0  0  0  0
  185.9800  176.7990  145.8700 C   0  0  0  0  0  3  0  0  0  0  0  0
  186.2920  177.2370  141.5760 N   0  0  0  0  0  0  0  0  0  0  0  0
  185.2480  177.5880  146.7560 C   0  0  0  0  0  3  0  0  0  0  0  0
  186.2590  179.1260  142.9970 O   0  0  0  0  0  0  0  0  0  0  0  0
  185.2930  179.3960  145.1610 C   0  0  0  0  0  3  0  0  0  0  0  0
  188.2750  175.6410  144.3860 C   0  0  0  0  0  0  0  0  0  0  0  0
  186.3920  177.2930  144.6180 C   0  0  0  0  0  0  0  0  0  0  0  0
  185.9990  178.5970  144.2550 C   0  0  0  0  0  0  0  0  0  0  0  0
  189.0420  174.7530  143.6210 C   0  0  0  0  0  3  0  0  0  0  0  0
  187.2920  176.4600  143.7650 C   0  0  0  0  0  0  0  0  0  0  0  0
  188.4970  175.7230  145.7650 O   0  0  0  0  0  0  0  0  0  0  0  0
  189.6880  175.3320  146.3370 N   0  0  0  0  0  2  0  0  0  0  0  0
  190.5990  176.4600  146.2260 C   0  0  1  0  0  3  0  0  0  0  0  0
  191.5610  177.9240  149.6900 C   0  0  0  0  0  1  0  0  0  0  0  0
  190.5480  177.2780  147.4750 C   0  0  0  0  0  0  0  0  0  0  0  0
  189.5970  178.0880  147.6430 O   0  0  0  0  0  0  0  0  0  0  0  0
  191.5700  177.1440  148.4640 N   0  0  0  0  0  2  0  0  0  0  0  0
  192.0140  175.9620  145.9600 C   0  0  0  0  0  2  0  0  0  0  0  0
  191.7380  177.1670  143.7950 O   0  0  0  0  0  0  0  0  0  0  0  0
  192.5840  176.6190  144.7510 C   0  0  0  0  0  0  0  0  0  0  0  0
  193.8300  176.7030  144.6080 O   0  0  0  0  0  1  0  0  0  0  0  0
  1  3  2  0  0  0  0
  1  5  1  0  0  0  0
  2  8  1  0  0  0  0
  3 14  1  0  0  0  0
  4  9  1  0  0  0  0
  5 15  2  0  0  0  0
  6  8  2  0  0  0  0
  7  4  2  0  0  0  0
  7  5  1  0  0  0  0
  9 13  1  0  0  0  0
 10  2  2  0  0  0  0
 11 16  1  0  0  0  0
 12  6  1  0  0  0  0
 13 12  2  0  0  0  0
 13 10  1  0  0  0  0
 14 11  2  0  0  0  0
 15 11  1  0  0  0  0
 15 12  1  0  0  0  0
 16 17  1  0  0  0  0
 18 23  1  1  0  0  0
 18 17  1  0  0  0  0
 18 20  1  0  0  0  0
 20 21  2  0  0  0  0
 20 22  1  0  0  0  0
 22 19  1  0  0  0  0
 24 25  2  0  0  0  0
 25 23  1  0  0  0  0
 26 25  1  0  0  0  0
M  END
>  <MODEL>
8

>  <REMARK>
 VINA RESULT:      -6.7      1.968      2.897
  Name = 
  6 active torsions:
  status: ('A' for Active; 'I' for Inactive)
    1  A    between atoms: C_8  and  C_20
    2  A    between atoms: C_14  and  O_16
    3  A    between atoms: C_15  and  C_24
    4  A    between atoms: O_16  and  N_18
    5  A    between atoms: N_18  and  C_24
    6  A    between atoms: C_20  and  C_24
                            x       y       z     vdW  Elec       q    Type
                         _______ _______ _______ _____ _____    ______ ____

>  <TORSDO>
F 6

$$$$
=
 OpenBabel11042417193D

 26 28  0  0  1  0  0  0  0  0999 V2000
  186.7280  176.9500  141.4570 C   0  0  0  0  0  3  0  0  0  0  0  0
  185.9420  178.0780  147.9180 C   0  0  0  0  0  3  0  0  0  0  0  0
  187.8740  176.1740  141.3290 C   0  0  0  0  0  3  0  0  0  0  0  0
  184.8600  179.2400  143.4910 C   0  0  0  0  0  3  0  0  0  0  0  0
  186.3120  177.4310  142.7030 C   0  0  0  0  0  0  0  0  0  0  0  0
  186.7620  176.4940  146.2940 C   0  0  0  0  0  3  0  0  0  0  0  0
  185.1450  178.2620  142.6910 N   0  0  0  0  0  0  0  0  0  0  0  0
  186.4540  176.8180  147.6150 C   0  0  0  0  0  3  0  0  0  0  0  0
  185.6460  179.5880  144.5830 O   0  0  0  0  0  0  0  0  0  0  0  0
  185.7110  178.9950  146.8930 C   0  0  0  0  0  3  0  0  0  0  0  0
  188.2310  176.3130  143.7210 C   0  0  0  0  0  0  0  0  0  0  0  0
  186.5610  177.4150  145.2480 C   0  0  0  0  0  0  0  0  0  0  0  0
  185.9870  178.6630  145.5620 C   0  0  0  0  0  0  0  0  0  0  0  0
  188.6270  175.8680  142.4530 C   0  0  0  0  0  3  0  0  0  0  0  0
  187.0360  177.0720  143.8750 C   0  0  0  0  0  0  0  0  0  0  0  0
  189.0280  176.0170  144.8310 O   0  0  0  0  0  0  0  0  0  0  0  0
  190.2580  176.6070  145.0230 N   0  0  0  0  0  2  0  0  0  0  0  0
  191.0680  175.6600  145.7730 C   0  0  1  0  0  3  0  0  0  0  0  0
  194.9320  175.4950  146.1040 C   0  0  0  0  0  1  0  0  0  0  0  0
  192.5080  176.0470  145.6880 C   0  0  0  0  0  0  0  0  0  0  0  0
  192.8200  177.1580  145.1840 O   0  0  0  0  0  0  0  0  0  0  0  0
  193.5200  175.1610  146.1720 N   0  0  0  0  0  2  0  0  0  0  0  0
  190.6030  175.6100  147.2230 C   0  0  0  0  0  2  0  0  0  0  0  0
  191.8060  177.2430  148.6720 O   0  0  0  0  0  1  0  0  0  0  0  0
  190.7190  176.9530  147.8580 C   0  0  0  0  0  0  0  0  0  0  0  0
  189.8480  177.8320  147.6340 O   0  0  0  0  0  0  0  0  0  0  0  0
  1  5  1  0  0  0  0
  3  1  2  0  0  0  0
  3 14  1  0  0  0  0
  4  9  1  0  0  0  0
  5 15  2  0  0  0  0
  6  8  2  0  0  0  0
  7  5  1  0  0  0  0
  7  4  2  0  0  0  0
  8  2  1  0  0  0  0
  9 13  1  0  0  0  0
 10  2  2  0  0  0  0
 11 15  1  0  0  0  0
 11 16  1  0  0  0  0
 12 13  2  0  0  0  0
 12  6  1  0  0  0  0
 13 10  1  0  0  0  0
 14 11  2  0  0  0  0
 15 12  1  0  0  0  0
 16 17  1  0  0  0  0
 17 18  1  0  0  0  0
 18 23  1  1  0  0  0
 19 22  1  0  0  0  0
 20 18  1  0  0  0  0
 20 22  1  0  0  0  0
 21 20  2  0  0  0  0
 23 25  1  0  0  0  0
 25 24  1  0  0  0  0
 26 25  2  0  0  0  0
M  END
>  <MODEL>
9

>  <REMARK>
 VINA RESULT:      -6.6      1.599      1.757
  Name = 
  6 active torsions:
  status: ('A' for Active; 'I' for Inactive)
    1  A    between atoms: C_8  and  C_20
    2  A    between atoms: C_14  and  O_16
    3  A    between atoms: C_15  and  C_24
    4  A    between atoms: O_16  and  N_18
    5  A    between atoms: N_18  and  C_24
    6  A    between atoms: C_20  and  C_24
                            x       y       z     vdW  Elec       q    Type
                         _______ _______ _______ _____ _____    ______ ____

>  <TORSDO>
F 6

$$$$
