=
 OpenBabel11042417213D

 26 29  0  0  1  0  0  0  0  0999 V2000
  185.9910  177.8320  143.7420 O   0  0  0  0  0  0  0  0  0  0  0  0
  187.6540  176.3740  144.4660 C   0  0  0  0  0  0  0  0  0  0  0  0
  189.5990  175.0830  145.0730 C   0  0  2  0  0  3  0  0  0  0  0  0
  188.7160  176.0330  145.4410 C   0  0  0  0  0  0  0  0  0  0  0  0
  186.6100  177.9010  146.0980 C   0  0  0  0  0  0  0  0  0  0  0  0
  188.6030  176.5940  146.8080 C   0  0  0  0  0  3  0  0  0  0  0  0
  186.6910  177.4010  144.8540 C   0  0  0  0  0  0  0  0  0  0  0  0
  186.5350  177.2870  142.5360 C   0  0  2  0  0  3  0  0  0  0  0  0
  188.4990  173.0560  141.4240 C   0  0  0  0  0  3  0  0  0  0  0  0
  188.9010  175.2330  142.5110 C   0  0  1  0  0  3  0  0  0  0  0  0
  187.8890  174.4000  141.7330 C   0  0  0  0  0  2  0  0  0  0  0  0
  189.7130  173.1500  143.5480 C   0  0  0  0  0  3  0  0  0  0  0  0
  188.3580  176.9900  142.8870 P   0  0  2  0  0  0  0  0  0  0  0  0
  189.4700  174.4590  143.7110 C   0  0  0  0  0  0  0  0  0  0  0  0
  189.3290  172.4660  142.2930 C   0  0  0  0  0  3  0  0  0  0  0  0
  187.6130  177.4520  147.1110 C   0  0  0  0  0  3  0  0  0  0  0  0
  184.1630  178.3340  146.5820 C   0  0  0  0  0  1  0  0  0  0  0  0
  185.9000  179.5900  147.6290 O   0  0  0  0  0  1  0  0  0  0  0  0
  185.5610  178.9300  146.4410 C   0  0  1  0  0  3  0  0  0  0  0  0
  191.8610  175.1160  145.8080 O   0  0  0  0  0  1  0  0  0  0  0  0
  190.6040  174.5520  146.0500 C   0  0  0  0  0  2  0  0  0  0  0  0
  186.3870  178.2790  141.4010 C   0  0  0  0  0  2  0  0  0  0  0  0
  185.1490  177.9890  140.6300 C   0  0  0  0  0  0  0  0  0  0  0  0
  185.2380  177.4390  139.5000 O   0  0  0  0  0  0  0  0  0  0  0  0
  182.6290  178.0580  140.4740 C   0  0  0  0  0  1  0  0  0  0  0  0
  183.8720  178.3100  141.1900 N   0  0  0  0  0  2  0  0  0  0  0  0
  1  7  1  0  0  0  0
  2  7  2  0  0  0  0
  2  4  1  0  0  0  0
  3  4  1  0  0  0  0
  3 21  1  1  0  0  0
  4  6  2  0  0  0  0
  5 19  1  0  0  0  0
  5 16  2  0  0  0  0
  6 16  1  0  0  0  0
  7  5  1  0  0  0  0
  8 22  1  6  0  0  0
  8 13  1  0  0  0  0
  8  1  1  0  0  0  0
  9 11  1  0  0  0  0
  9 15  2  0  0  0  0
 10 11  1  1  0  0  0
 10 13  1  0  0  0  0
 10 14  1  0  0  0  0
 12 14  2  0  0  0  0
 13  2  1  1  0  0  0
 14  3  1  0  0  0  0
 15 12  1  0  0  0  0
 19 17  1  1  0  0  0
 19 18  1  0  0  0  0
 20 21  1  0  0  0  0
 23 26  1  0  0  0  0
 23 22  1  0  0  0  0
 24 23  2  0  0  0  0
 25 26  1  0  0  0  0
M  END
>  <MODEL>
1

>  <REMARK>
 VINA RESULT:      -7.2      0.000      0.000
  Name = 
  4 active torsions:
  status: ('A' for Active; 'I' for Inactive)
    1  A    between atoms: C_3  and  C_7
    2  A    between atoms: C_3  and  C_14
    3  A    between atoms: C_5  and  C_19
    4  A    between atoms: C_10  and  C_25
                            x       y       z     vdW  Elec       q    Type
                         _______ _______ _______ _____ _____    ______ ____

>  <TORSDO>
F 4

$$$$
=
 OpenBabel11042417213D

 26 29  0  0  1  0  0  0  0  0999 V2000
  189.4250  174.3270  143.7420 O   0  0  0  0  0  0  0  0  0  0  0  0
  187.8510  176.0280  143.5190 C   0  0  0  0  0  0  0  0  0  0  0  0
  186.4870  178.0050  143.3100 C   0  0  2  0  0  3  0  0  0  0  0  0
  187.1750  177.0370  142.6720 C   0  0  0  0  0  0  0  0  0  0  0  0
  188.5430  174.7690  141.5140 C   0  0  0  0  0  0  0  0  0  0  0  0
  187.1230  176.7880  141.2120 C   0  0  0  0  0  3  0  0  0  0  0  0
  188.5990  174.9730  142.8400 C   0  0  0  0  0  0  0  0  0  0  0  0
  189.4380  174.9920  145.0090 C   0  0  2  0  0  3  0  0  0  0  0  0
  186.0980  177.3090  147.5520 C   0  0  0  0  0  3  0  0  0  0  0  0
  187.6510  177.4860  145.6440 C   0  0  1  0  0  3  0  0  0  0  0  0
  187.1770  176.5900  146.7840 C   0  0  0  0  0  2  0  0  0  0  0  0
  185.3530  178.3580  145.4690 C   0  0  0  0  0  3  0  0  0  0  0  0
  189.0820  176.8010  144.6410 P   0  0  2  0  0  0  0  0  0  0  0  0
  186.4720  178.0170  144.8130 C   0  0  0  0  0  0  0  0  0  0  0  0
  185.2300  178.1120  146.9230 C   0  0  0  0  0  3  0  0  0  0  0  0
  187.7500  175.7250  140.6810 C   0  0  0  0  0  3  0  0  0  0  0  0
  188.6840  173.1440  139.5780 C   0  0  0  0  0  1  0  0  0  0  0  0
  190.6340  174.0150  140.6410 O   0  0  0  0  0  1  0  0  0  0  0  0
  189.3080  173.6320  140.8830 C   0  0  1  0  0  3  0  0  0  0  0  0
  184.3910  178.3990  142.2550 O   0  0  0  0  0  1  0  0  0  0  0  0
  185.6350  178.9710  142.5420 C   0  0  0  0  0  2  0  0  0  0  0  0
  190.8030  174.8610  145.6540 C   0  0  0  0  0  2  0  0  0  0  0  0
  190.7780  175.4430  147.0220 C   0  0  0  0  0  0  0  0  0  0  0  0
  190.0330  174.9300  147.8990 O   0  0  0  0  0  0  0  0  0  0  0  0
  191.6230  177.1750  148.6540 C   0  0  0  0  0  1  0  0  0  0  0  0
  191.6170  176.5590  147.3350 N   0  0  0  0  0  2  0  0  0  0  0  0
  1  8  1  0  0  0  0
  3 21  1  6  0  0  0
  3 14  1  0  0  0  0
  4  3  1  0  0  0  0
  4  2  2  0  0  0  0
  5  7  2  0  0  0  0
  6  4  1  0  0  0  0
  7  2  1  0  0  0  0
  7  1  1  0  0  0  0
  8 22  1  6  0  0  0
 10 11  1  1  0  0  0
 11  9  1  0  0  0  0
 12 15  1  0  0  0  0
 13  2  1  6  0  0  0
 13  8  1  0  0  0  0
 13 10  1  0  0  0  0
 14 12  2  0  0  0  0
 14 10  1  0  0  0  0
 15  9  2  0  0  0  0
 16  6  2  0  0  0  0
 16  5  1  0  0  0  0
 18 19  1  0  0  0  0
 19 17  1  6  0  0  0
 19  5  1  0  0  0  0
 20 21  1  0  0  0  0
 22 23  1  0  0  0  0
 23 26  1  0  0  0  0
 23 24  2  0  0  0  0
 26 25  1  0  0  0  0
M  END
>  <MODEL>
2

>  <REMARK>
 VINA RESULT:      -7.1      2.800      7.188
  Name = 
  4 active torsions:
  status: ('A' for Active; 'I' for Inactive)
    1  A    between atoms: C_3  and  C_7
    2  A    between atoms: C_3  and  C_14
    3  A    between atoms: C_5  and  C_19
    4  A    between atoms: C_10  and  C_25
                            x       y       z     vdW  Elec       q    Type
                         _______ _______ _______ _____ _____    ______ ____

>  <TORSDO>
F 4

$$$$
=
 OpenBabel11042417213D

 26 29  0  0  1  0  0  0  0  0999 V2000
  189.2620  175.0050  144.7850 O   0  0  0  0  0  0  0  0  0  0  0  0
  187.6050  176.3380  143.8390 C   0  0  0  0  0  0  0  0  0  0  0  0
  186.1160  177.9750  142.8800 C   0  0  2  0  0  3  0  0  0  0  0  0
  187.0380  177.0170  142.6510 C   0  0  0  0  0  0  0  0  0  0  0  0
  188.8820  174.8080  142.3870 C   0  0  0  0  0  0  0  0  0  0  0  0
  187.3570  176.4560  141.3170 C   0  0  0  0  0  3  0  0  0  0  0  0
  188.6030  175.2980  143.6050 C   0  0  0  0  0  0  0  0  0  0  0  0
  188.9040  175.9200  145.8260 C   0  0  2  0  0  3  0  0  0  0  0  0
  184.8250  178.1530  146.9950 C   0  0  0  0  0  3  0  0  0  0  0  0
  186.7510  178.1660  145.4550 C   0  0  1  0  0  3  0  0  0  0  0  0
  186.1270  177.4710  146.6600 C   0  0  0  0  0  2  0  0  0  0  0  0
  184.4750  178.5930  144.6120 C   0  0  0  0  0  3  0  0  0  0  0  0
  188.4450  177.5240  144.9600 P   0  0  2  0  0  0  0  0  0  0  0  0
  185.7480  178.3070  144.2990 C   0  0  0  0  0  0  0  0  0  0  0  0
  184.0440  178.6490  146.0260 C   0  0  0  0  0  3  0  0  0  0  0  0
  188.2050  175.4190  141.2020 C   0  0  0  0  0  3  0  0  0  0  0  0
  189.3200  172.3170  142.5040 C   0  0  0  0  0  1  0  0  0  0  0  0
  190.4270  173.7210  140.9260 O   0  0  0  0  0  1  0  0  0  0  0  0
  189.8960  173.7020  142.2220 C   0  0  1  0  0  3  0  0  0  0  0  0
  184.2260  177.8470  141.4400 O   0  0  0  0  0  1  0  0  0  0  0  0
  185.3650  178.6010  141.7430 C   0  0  0  0  0  2  0  0  0  0  0  0
  190.0860  176.1550  146.7450 C   0  0  0  0  0  2  0  0  0  0  0  0
  191.3520  175.8130  146.0420 C   0  0  0  0  0  0  0  0  0  0  0  0
  191.8480  174.6640  146.1860 O   0  0  0  0  0  0  0  0  0  0  0  0
  193.2200  176.5020  144.4880 C   0  0  0  0  0  1  0  0  0  0  0  0
  191.9750  176.7800  145.1900 N   0  0  0  0  0  2  0  0  0  0  0  0
  1  8  1  0  0  0  0
  3 21  1  6  0  0  0
  3 14  1  0  0  0  0
  4  3  1  0  0  0  0
  4  2  2  0  0  0  0
  5  7  2  0  0  0  0
  6  4  1  0  0  0  0
  7  2  1  0  0  0  0
  7  1  1  0  0  0  0
  8 22  1  1  0  0  0
 10 11  1  1  0  0  0
 11  9  1  0  0  0  0
 12 15  1  0  0  0  0
 13  2  1  6  0  0  0
 13 10  1  0  0  0  0
 13  8  1  0  0  0  0
 14 12  2  0  0  0  0
 14 10  1  0  0  0  0
 15  9  2  0  0  0  0
 16  6  2  0  0  0  0
 16  5  1  0  0  0  0
 18 19  1  0  0  0  0
 19  5  1  0  0  0  0
 19 17  1  6  0  0  0
 20 21  1  0  0  0  0
 23 24  2  0  0  0  0
 23 22  1  0  0  0  0
 25 26  1  0  0  0  0
 26 23  1  0  0  0  0
M  END
>  <MODEL>
3

>  <REMARK>
 VINA RESULT:      -7.1      2.591      7.088
  Name = 
  4 active torsions:
  status: ('A' for Active; 'I' for Inactive)
    1  A    between atoms: C_3  and  C_7
    2  A    between atoms: C_3  and  C_14
    3  A    between atoms: C_5  and  C_19
    4  A    between atoms: C_10  and  C_25
                            x       y       z     vdW  Elec       q    Type
                         _______ _______ _______ _____ _____    ______ ____

>  <TORSDO>
F 4

$$$$
=
 OpenBabel11042417213D

 26 29  0  0  1  0  0  0  0  0999 V2000
  189.9940  174.9660  145.3050 O   0  0  0  0  0  0  0  0  0  0  0  0
  188.0630  175.9320  144.4350 C   0  0  0  0  0  0  0  0  0  0  0  0
  186.2570  177.2100  143.4740 C   0  0  2  0  0  3  0  0  0  0  0  0
  187.2510  176.3230  143.2600 C   0  0  0  0  0  0  0  0  0  0  0  0
  189.3040  174.3000  143.0650 C   0  0  0  0  0  0  0  0  0  0  0  0
  187.4460  175.5640  142.0020 C   0  0  0  0  0  3  0  0  0  0  0  0
  189.1420  174.9720  144.2150 C   0  0  0  0  0  0  0  0  0  0  0  0
  189.6750  176.0140  146.2260 C   0  0  2  0  0  3  0  0  0  0  0  0
  185.5530  178.0020  147.6590 C   0  0  0  0  0  3  0  0  0  0  0  0
  187.2230  177.9280  145.8450 C   0  0  1  0  0  3  0  0  0  0  0  0
  186.8710  177.4050  147.2340 C   0  0  0  0  0  2  0  0  0  0  0  0
  184.8150  177.9650  145.3250 C   0  0  0  0  0  3  0  0  0  0  0  0
  188.8970  177.3810  145.1950 P   0  0  2  0  0  0  0  0  0  0  0  0
  186.0560  177.7560  144.8600 C   0  0  0  0  0  0  0  0  0  0  0  0
  184.5860  178.2340  146.7620 C   0  0  0  0  0  3  0  0  0  0  0  0
  188.3940  174.6150  141.9220 C   0  0  0  0  0  3  0  0  0  0  0  0
  190.1480  172.2570  141.8290 C   0  0  0  0  0  1  0  0  0  0  0  0
  191.6290  173.9380  142.6510 O   0  0  0  0  0  1  0  0  0  0  0  0
  190.4170  173.2890  142.9210 C   0  0  1  0  0  3  0  0  0  0  0  0
  185.7100  178.6610  141.6710 O   0  0  0  0  0  1  0  0  0  0  0  0
  185.2790  177.5400  142.3870 C   0  0  0  0  0  2  0  0  0  0  0  0
  190.9360  176.5290  146.8890 C   0  0  0  0  0  2  0  0  0  0  0  0
  192.1280  176.1230  146.0980 C   0  0  0  0  0  0  0  0  0  0  0  0
  192.4650  176.8040  145.0930 O   0  0  0  0  0  0  0  0  0  0  0  0
  194.0640  174.5370  145.7590 C   0  0  0  0  0  1  0  0  0  0  0  0
  192.8950  174.9840  146.5030 N   0  0  0  0  0  2  0  0  0  0  0  0
  1  8  1  0  0  0  0
  3 21  1  1  0  0  0
  3 14  1  0  0  0  0
  4  3  1  0  0  0  0
  4  2  2  0  0  0  0
  5  7  2  0  0  0  0
  6  4  1  0  0  0  0
  7  2  1  0  0  0  0
  7  1  1  0  0  0  0
  8 22  1  6  0  0  0
 10 11  1  1  0  0  0
 11  9  1  0  0  0  0
 12 15  1  0  0  0  0
 13  2  1  6  0  0  0
 13 10  1  0  0  0  0
 13  8  1  0  0  0  0
 14 12  2  0  0  0  0
 14 10  1  0  0  0  0
 15  9  2  0  0  0  0
 16  6  2  0  0  0  0
 16  5  1  0  0  0  0
 18 19  1  0  0  0  0
 19 17  1  6  0  0  0
 19  5  1  0  0  0  0
 20 21  1  0  0  0  0
 23 26  1  0  0  0  0
 23 22  1  0  0  0  0
 24 23  2  0  0  0  0
 25 26  1  0  0  0  0
M  END
>  <MODEL>
4

>  <REMARK>
 VINA RESULT:      -6.9      2.864      7.211
  Name = 
  4 active torsions:
  status: ('A' for Active; 'I' for Inactive)
    1  A    between atoms: C_3  and  C_7
    2  A    between atoms: C_3  and  C_14
    3  A    between atoms: C_5  and  C_19
    4  A    between atoms: C_10  and  C_25
                            x       y       z     vdW  Elec       q    Type
                         _______ _______ _______ _____ _____    ______ ____

>  <TORSDO>
F 4

$$$$
=
 OpenBabel11042417213D

 26 29  0  0  1  0  0  0  0  0999 V2000
  186.1930  177.3130  142.8990 O   0  0  0  0  0  0  0  0  0  0  0  0
  187.5570  176.1670  144.3970 C   0  0  0  0  0  0  0  0  0  0  0  0
  189.2060  175.2190  145.8800 C   0  0  2  0  0  3  0  0  0  0  0  0
  188.1550  176.0540  145.7480 C   0  0  0  0  0  0  0  0  0  0  0  0
  185.7830  177.6360  145.2790 C   0  0  0  0  0  0  0  0  0  0  0  0
  187.4350  176.6870  146.8780 C   0  0  0  0  0  3  0  0  0  0  0  0
  186.4180  177.0670  144.2420 C   0  0  0  0  0  0  0  0  0  0  0  0
  187.2370  176.7690  142.0860 C   0  0  2  0  0  3  0  0  0  0  0  0
  189.9150  172.8020  142.3740 C   0  0  0  0  0  3  0  0  0  0  0  0
  189.6070  175.0850  143.2540 C   0  0  1  0  0  3  0  0  0  0  0  0
  189.0950  174.0610  142.2470 C   0  0  0  0  0  2  0  0  0  0  0  0
  190.1360  173.2210  144.7760 C   0  0  0  0  0  3  0  0  0  0  0  0
  188.7770  176.7670  143.1640 P   0  0  2  0  0  0  0  0  0  0  0  0
  189.7120  174.4890  144.6670 C   0  0  0  0  0  0  0  0  0  0  0  0
  190.3740  172.4020  143.5670 C   0  0  0  0  0  3  0  0  0  0  0  0
  186.3240  177.4100  146.6540 C   0  0  0  0  0  3  0  0  0  0  0  0
  183.7130  178.6850  146.2910 C   0  0  0  0  0  1  0  0  0  0  0  0
  184.9950  179.7890  144.6100 O   0  0  0  0  0  1  0  0  0  0  0  0
  184.5840  178.5240  145.0480 C   0  0  1  0  0  3  0  0  0  0  0  0
  190.8030  175.8040  147.5430 O   0  0  0  0  0  1  0  0  0  0  0  0
  189.7730  174.9100  147.2330 C   0  0  0  0  0  2  0  0  0  0  0  0
  187.4640  177.6470  140.8720 C   0  0  0  0  0  2  0  0  0  0  0  0
  186.5550  177.2350  139.7690 C   0  0  0  0  0  0  0  0  0  0  0  0
  185.3450  177.5850  139.8020 O   0  0  0  0  0  0  0  0  0  0  0  0
  186.2200  176.0340  137.5730 C   0  0  0  0  0  1  0  0  0  0  0  0
  187.0680  176.4730  138.6720 N   0  0  0  0  0  2  0  0  0  0  0  0
  1  7  1  0  0  0  0
  2  4  1  0  0  0  0
  3 21  1  1  0  0  0
  4  3  1  0  0  0  0
  4  6  2  0  0  0  0
  5 16  2  0  0  0  0
  7  2  2  0  0  0  0
  7  5  1  0  0  0  0
  8 22  1  6  0  0  0
  8  1  1  0  0  0  0
  8 13  1  0  0  0  0
  9 15  2  0  0  0  0
 10 11  1  6  0  0  0
 10 14  1  0  0  0  0
 11  9  1  0  0  0  0
 13 10  1  0  0  0  0
 13  2  1  1  0  0  0
 14 12  2  0  0  0  0
 14  3  1  0  0  0  0
 15 12  1  0  0  0  0
 16  6  1  0  0  0  0
 18 19  1  0  0  0  0
 19  5  1  0  0  0  0
 19 17  1  1  0  0  0
 21 20  1  0  0  0  0
 23 24  2  0  0  0  0
 23 22  1  0  0  0  0
 25 26  1  0  0  0  0
 26 23  1  0  0  0  0
M  END
>  <MODEL>
5

>  <REMARK>
 VINA RESULT:      -6.9      1.704      1.870
  Name = 
  4 active torsions:
  status: ('A' for Active; 'I' for Inactive)
    1  A    between atoms: C_3  and  C_7
    2  A    between atoms: C_3  and  C_14
    3  A    between atoms: C_5  and  C_19
    4  A    between atoms: C_10  and  C_25
                            x       y       z     vdW  Elec       q    Type
                         _______ _______ _______ _____ _____    ______ ____

>  <TORSDO>
F 4

$$$$
=
 OpenBabel11042417213D

 26 29  0  0  1  0  0  0  0  0999 V2000
  186.3960  177.2110  143.2610 O   0  0  0  0  0  0  0  0  0  0  0  0
  188.0190  176.2540  144.6260 C   0  0  0  0  0  0  0  0  0  0  0  0
  189.8950  175.5350  145.9610 C   0  0  2  0  0  3  0  0  0  0  0  0
  188.7280  176.2090  145.9270 C   0  0  0  0  0  0  0  0  0  0  0  0
  186.1230  177.4340  145.6710 C   0  0  0  0  0  0  0  0  0  0  0  0
  188.0100  176.7120  147.1210 C   0  0  0  0  0  3  0  0  0  0  0  0
  186.7540  176.9810  144.5770 C   0  0  0  0  0  0  0  0  0  0  0  0
  187.4430  176.8380  142.3600 C   0  0  2  0  0  3  0  0  0  0  0  0
  190.6810  173.3020  142.3520 C   0  0  0  0  0  3  0  0  0  0  0  0
  190.1130  175.5010  143.3110 C   0  0  1  0  0  3  0  0  0  0  0  0
  189.6800  174.4280  142.3170 C   0  0  0  0  0  2  0  0  0  0  0  0
  191.0190  173.7110  144.7420 C   0  0  0  0  0  3  0  0  0  0  0  0
  189.0440  177.0450  143.3240 P   0  0  2  0  0  0  0  0  0  0  0  0
  190.4090  174.9050  144.6960 C   0  0  0  0  0  0  0  0  0  0  0  0
  191.2810  172.9540  143.4970 C   0  0  0  0  0  3  0  0  0  0  0  0
  186.7930  177.2690  146.9980 C   0  0  0  0  0  3  0  0  0  0  0  0
  184.0740  178.2910  146.8880 C   0  0  0  0  0  1  0  0  0  0  0  0
  184.9690  179.4080  144.9800 O   0  0  0  0  0  1  0  0  0  0  0  0
  184.7940  178.1410  145.5510 C   0  0  1  0  0  3  0  0  0  0  0  0
  191.6840  176.1650  147.3960 O   0  0  0  0  0  1  0  0  0  0  0  0
  190.6010  175.2920  147.2620 C   0  0  0  0  0  2  0  0  0  0  0  0
  187.4500  177.7580  141.1560 C   0  0  0  0  0  2  0  0  0  0  0  0
  186.1250  177.7210  140.4810 C   0  0  0  0  0  0  0  0  0  0  0  0
  186.0200  177.1660  139.3550 O   0  0  0  0  0  0  0  0  0  0  0  0
  183.6640  178.2910  140.5070 C   0  0  0  0  0  1  0  0  0  0  0  0
  184.9810  178.2900  141.1280 N   0  0  0  0  0  2  0  0  0  0  0  0
  1  7  1  0  0  0  0
  2  4  1  0  0  0  0
  3 21  1  1  0  0  0
  4  3  1  0  0  0  0
  4  6  2  0  0  0  0
  5 16  2  0  0  0  0
  7  2  2  0  0  0  0
  7  5  1  0  0  0  0
  8 22  1  6  0  0  0
  8  1  1  0  0  0  0
  8 13  1  0  0  0  0
  9 15  2  0  0  0  0
 10 11  1  6  0  0  0
 10 13  1  0  0  0  0
 10 14  1  0  0  0  0
 11  9  1  0  0  0  0
 13  2  1  1  0  0  0
 14 12  2  0  0  0  0
 14  3  1  0  0  0  0
 15 12  1  0  0  0  0
 16  6  1  0  0  0  0
 18 19  1  0  0  0  0
 19  5  1  0  0  0  0
 19 17  1  1  0  0  0
 21 20  1  0  0  0  0
 23 26  1  0  0  0  0
 23 22  1  0  0  0  0
 24 23  2  0  0  0  0
 25 26  1  0  0  0  0
M  END
>  <MODEL>
6

>  <REMARK>
 VINA RESULT:      -6.8      1.269      1.384
  Name = 
  4 active torsions:
  status: ('A' for Active; 'I' for Inactive)
    1  A    between atoms: C_3  and  C_7
    2  A    between atoms: C_3  and  C_14
    3  A    between atoms: C_5  and  C_19
    4  A    between atoms: C_10  and  C_25
                            x       y       z     vdW  Elec       q    Type
                         _______ _______ _______ _____ _____    ______ ____

>  <TORSDO>
F 4

$$$$
=
 OpenBabel11042417213D

 26 29  0  0  1  0  0  0  0  0999 V2000
  191.2980  175.6980  143.4380 O   0  0  0  0  0  0  0  0  0  0  0  0
  189.6180  176.7120  144.6890 C   0  0  0  0  0  0  0  0  0  0  0  0
  187.7300  177.4530  145.9960 C   0  0  2  0  0  3  0  0  0  0  0  0
  188.9960  176.9860  146.0060 C   0  0  0  0  0  0  0  0  0  0  0  0
  191.7570  176.1630  145.7860 C   0  0  0  0  0  0  0  0  0  0  0  0
  189.8660  176.9340  147.2040 C   0  0  0  0  0  3  0  0  0  0  0  0
  190.9880  176.2070  144.6870 C   0  0  0  0  0  0  0  0  0  0  0  0
  190.1460  175.6510  142.5910 C   0  0  2  0  0  3  0  0  0  0  0  0
  186.3310  178.5040  142.0510 C   0  0  0  0  0  3  0  0  0  0  0  0
  187.3440  176.7530  143.4600 C   0  0  1  0  0  3  0  0  0  0  0  0
  187.5140  177.5800  142.1900 C   0  0  0  0  0  2  0  0  0  0  0  0
  186.2230  178.6900  144.4890 C   0  0  0  0  0  3  0  0  0  0  0  0
  188.6720  175.4560  143.7420 P   0  0  2  0  0  0  0  0  0  0  0  0
  187.0330  177.6380  144.6770 C   0  0  0  0  0  0  0  0  0  0  0  0
  185.7510  179.0420  143.1320 C   0  0  0  0  0  3  0  0  0  0  0  0
  191.1530  176.5630  147.0930 C   0  0  0  0  0  3  0  0  0  0  0  0
  194.1550  176.5160  146.5150 C   0  0  0  0  0  1  0  0  0  0  0  0
  193.2580  174.3390  146.1370 O   0  0  0  0  0  1  0  0  0  0  0  0
  193.1810  175.6680  145.7030 C   0  0  1  0  0  3  0  0  0  0  0  0
  186.0900  177.0060  147.6600 O   0  0  0  0  0  1  0  0  0  0  0  0
  187.0760  177.9150  147.2630 C   0  0  0  0  0  2  0  0  0  0  0  0
  190.2300  174.4570  141.6610 C   0  0  0  0  0  2  0  0  0  0  0  0
  191.2090  173.4700  142.1890 C   0  0  0  0  0  0  0  0  0  0  0  0
  192.3790  173.4490  141.7220 O   0  0  0  0  0  0  0  0  0  0  0  0
  191.7360  171.5820  143.7820 C   0  0  0  0  0  1  0  0  0  0  0  0
  190.8210  172.5760  143.2370 N   0  0  0  0  0  2  0  0  0  0  0  0
  1  7  1  0  0  0  0
  2  4  1  0  0  0  0
  3  4  1  0  0  0  0
  3 21  1  6  0  0  0
  4  6  2  0  0  0  0
  5 16  2  0  0  0  0
  7  2  2  0  0  0  0
  7  5  1  0  0  0  0
  8 22  1  6  0  0  0
  8  1  1  0  0  0  0
  8 13  1  0  0  0  0
  9 11  1  0  0  0  0
  9 15  2  0  0  0  0
 10 11  1  6  0  0  0
 10 13  1  0  0  0  0
 10 14  1  0  0  0  0
 12 14  2  0  0  0  0
 13  2  1  1  0  0  0
 14  3  1  0  0  0  0
 15 12  1  0  0  0  0
 16  6  1  0  0  0  0
 19  5  1  0  0  0  0
 19 18  1  0  0  0  0
 19 17  1  1  0  0  0
 21 20  1  0  0  0  0
 22 23  1  0  0  0  0
 23 26  1  0  0  0  0
 24 23  2  0  0  0  0
 26 25  1  0  0  0  0
M  END
>  <MODEL>
7

>  <REMARK>
 VINA RESULT:      -6.8      3.040      6.214
  Name = 
  4 active torsions:
  status: ('A' for Active; 'I' for Inactive)
    1  A    between atoms: C_3  and  C_7
    2  A    between atoms: C_3  and  C_14
    3  A    between atoms: C_5  and  C_19
    4  A    between atoms: C_10  and  C_25
                            x       y       z     vdW  Elec       q    Type
                         _______ _______ _______ _____ _____    ______ ____

>  <TORSDO>
F 4

$$$$
=
 OpenBabel11042417213D

 26 29  0  0  1  0  0  0  0  0999 V2000
  187.7390  177.8670  144.6440 O   0  0  0  0  0  0  0  0  0  0  0  0
  189.0970  176.0600  144.0880 C   0  0  0  0  0  0  0  0  0  0  0  0
  190.2970  174.0020  143.7150 C   0  0  2  0  0  3  0  0  0  0  0  0
  189.3230  174.8330  143.2900 C   0  0  0  0  0  0  0  0  0  0  0  0
  187.4210  176.8420  142.4560 C   0  0  0  0  0  0  0  0  0  0  0  0
  188.6260  174.7170  141.9880 C   0  0  0  0  0  3  0  0  0  0  0  0
  188.0450  176.9680  143.6380 C   0  0  0  0  0  0  0  0  0  0  0  0
  188.4010  177.5300  145.8670 C   0  0  2  0  0  3  0  0  0  0  0  0
  192.7020  175.6720  146.8870 C   0  0  0  0  0  3  0  0  0  0  0  0
  190.4200  175.1470  146.1120 C   0  0  1  0  0  3  0  0  0  0  0  0
  191.3400  176.2570  146.6090 C   0  0  0  0  0  2  0  0  0  0  0  0
  192.3760  174.1040  145.0350 C   0  0  0  0  0  3  0  0  0  0  0  0
  188.6390  175.6660  145.8220 P   0  0  2  0  0  0  0  0  0  0  0  0
  191.0600  174.3520  144.9620 C   0  0  0  0  0  0  0  0  0  0  0  0
  193.1900  174.6840  146.1260 C   0  0  0  0  0  3  0  0  0  0  0  0
  187.7520  175.6620  141.6000 C   0  0  0  0  0  3  0  0  0  0  0  0
  186.1880  177.9120  140.5220 C   0  0  0  0  0  1  0  0  0  0  0  0
  185.1430  177.5380  142.6330 O   0  0  0  0  0  1  0  0  0  0  0  0
  186.3730  177.8430  142.0350 C   0  0  1  0  0  3  0  0  0  0  0  0
  189.9610  171.6960  143.2330 O   0  0  0  0  0  1  0  0  0  0  0  0
  190.7130  172.8240  142.8860 C   0  0  0  0  0  2  0  0  0  0  0  0
  187.5320  177.9060  147.0510 C   0  0  0  0  0  2  0  0  0  0  0  0
  186.0970  177.8600  146.6640 C   0  0  0  0  0  0  0  0  0  0  0  0
  185.4490  176.7910  146.8200 O   0  0  0  0  0  0  0  0  0  0  0  0
  184.0640  179.0410  145.7430 C   0  0  0  0  0  1  0  0  0  0  0  0
  185.4620  179.0340  146.1470 N   0  0  0  0  0  2  0  0  0  0  0  0
  1  8  1  0  0  0  0
  3 21  1  6  0  0  0
  3 14  1  0  0  0  0
  4  3  1  0  0  0  0
  4  2  2  0  0  0  0
  5  7  2  0  0  0  0
  6  4  1  0  0  0  0
  7  2  1  0  0  0  0
  7  1  1  0  0  0  0
  8 22  1  1  0  0  0
 10 11  1  6  0  0  0
 11  9  1  0  0  0  0
 12 15  1  0  0  0  0
 13  2  1  6  0  0  0
 13  8  1  0  0  0  0
 13 10  1  0  0  0  0
 14 12  2  0  0  0  0
 14 10  1  0  0  0  0
 15  9  2  0  0  0  0
 16  6  2  0  0  0  0
 16  5  1  0  0  0  0
 19 17  1  6  0  0  0
 19  5  1  0  0  0  0
 19 18  1  0  0  0  0
 21 20  1  0  0  0  0
 23 24  2  0  0  0  0
 23 22  1  0  0  0  0
 25 26  1  0  0  0  0
 26 23  1  0  0  0  0
M  END
>  <MODEL>
8

>  <REMARK>
 VINA RESULT:      -6.7      2.130      4.755
  Name = 
  4 active torsions:
  status: ('A' for Active; 'I' for Inactive)
    1  A    between atoms: C_3  and  C_7
    2  A    between atoms: C_3  and  C_14
    3  A    between atoms: C_5  and  C_19
    4  A    between atoms: C_10  and  C_25
                            x       y       z     vdW  Elec       q    Type
                         _______ _______ _______ _____ _____    ______ ____

>  <TORSDO>
F 4

$$$$
=
 OpenBabel11042417213D

 26 29  0  0  1  0  0  0  0  0999 V2000
  191.2220  175.2170  143.1790 O   0  0  0  0  0  0  0  0  0  0  0  0
  189.4360  176.4130  144.0730 C   0  0  0  0  0  0  0  0  0  0  0  0
  187.4420  177.3450  145.0600 C   0  0  2  0  0  3  0  0  0  0  0  0
  188.7070  176.9220  145.2580 C   0  0  0  0  0  0  0  0  0  0  0  0
  191.4860  176.1440  145.4170 C   0  0  0  0  0  0  0  0  0  0  0  0
  189.4780  177.1290  146.5070 C   0  0  0  0  0  3  0  0  0  0  0  0
  190.8070  175.9530  144.2750 C   0  0  0  0  0  0  0  0  0  0  0  0
  190.1420  174.9760  142.2720 C   0  0  2  0  0  3  0  0  0  0  0  0
  186.3530  177.5680  140.8890 C   0  0  0  0  0  3  0  0  0  0  0  0
  187.2680  176.1520  142.6890 C   0  0  1  0  0  3  0  0  0  0  0  0
  187.5310  176.7200  141.2980 C   0  0  0  0  0  2  0  0  0  0  0  0
  186.0480  178.2240  143.2270 C   0  0  0  0  0  3  0  0  0  0  0  0
  188.5830  174.9710  143.3220 P   0  0  2  0  0  0  0  0  0  0  0  0
  186.8510  177.2500  143.6810 C   0  0  0  0  0  0  0  0  0  0  0  0
  185.6830  178.2910  141.7950 C   0  0  0  0  0  3  0  0  0  0  0  0
  190.7740  176.7770  146.5700 C   0  0  0  0  0  3  0  0  0  0  0  0
  193.7360  176.5280  146.5130 C   0  0  0  0  0  1  0  0  0  0  0  0
  192.9580  174.3420  145.9560 O   0  0  0  0  0  1  0  0  0  0  0  0
  192.9170  175.6800  145.5430 C   0  0  1  0  0  3  0  0  0  0  0  0
  185.8240  177.1240  146.7900 O   0  0  0  0  0  1  0  0  0  0  0  0
  186.6830  178.0290  146.1570 C   0  0  0  0  0  2  0  0  0  0  0  0
  190.3130  173.6260  141.6050 C   0  0  0  0  0  2  0  0  0  0  0  0
  189.9690  173.7250  140.1610 C   0  0  0  0  0  0  0  0  0  0  0  0
  190.8940  173.7910  139.3080 O   0  0  0  0  0  0  0  0  0  0  0  0
  188.2040  173.8210  138.3570 C   0  0  0  0  0  1  0  0  0  0  0  0
  188.5970  173.7150  139.7550 N   0  0  0  0  0  2  0  0  0  0  0  0
  1  7  1  0  0  0  0
  2  7  2  0  0  0  0
  2  4  1  0  0  0  0
  3  4  1  0  0  0  0
  3 21  1  6  0  0  0
  4  6  2  0  0  0  0
  5 19  1  0  0  0  0
  5 16  2  0  0  0  0
  6 16  1  0  0  0  0
  7  5  1  0  0  0  0
  8 22  1  1  0  0  0
  8  1  1  0  0  0  0
  8 13  1  0  0  0  0
  9 11  1  0  0  0  0
  9 15  2  0  0  0  0
 10 11  1  6  0  0  0
 10 13  1  0  0  0  0
 10 14  1  0  0  0  0
 12 14  2  0  0  0  0
 13  2  1  1  0  0  0
 14  3  1  0  0  0  0
 15 12  1  0  0  0  0
 19 18  1  0  0  0  0
 19 17  1  1  0  0  0
 21 20  1  0  0  0  0
 23 22  1  0  0  0  0
 24 23  2  0  0  0  0
 25 26  1  0  0  0  0
 26 23  1  0  0  0  0
M  END
>  <MODEL>
9

>  <REMARK>
 VINA RESULT:      -6.7      2.601      5.541
  Name = 
  4 active torsions:
  status: ('A' for Active; 'I' for Inactive)
    1  A    between atoms: C_3  and  C_7
    2  A    between atoms: C_3  and  C_14
    3  A    between atoms: C_5  and  C_19
    4  A    between atoms: C_10  and  C_25
                            x       y       z     vdW  Elec       q    Type
                         _______ _______ _______ _____ _____    ______ ____

>  <TORSDO>
F 4

$$$$
