=
 OpenBabel11042413533D

 51 54  0  0  1  0  0  0  0  0999 V2000
  191.9410  175.2430  144.2960 C   0  0  0  0  0  0  0  0  0  0  0  0
  189.9370  175.8230  142.9460 C   0  0  0  0  0  0  0  0  0  0  0  0
  191.2130  176.6330  143.6950 S   0  0  0  0  0  0  0  0  0  0  0  0
  191.2110  174.1210  143.9340 C   0  0  0  0  0  3  0  0  0  0  0  0
  193.0180  175.2250  145.0280 C   0  0  0  0  0  0  0  0  0  0  0  0
  190.0830  174.4530  143.1660 C   0  0  0  0  0  0  0  0  0  0  0  0
  194.0950  175.2120  145.7640 C   0  0  0  0  0  3  0  0  0  0  0  0
  188.9460  176.3900  142.2570 C   0  0  0  0  0  3  0  0  0  0  0  0
  195.2160  176.1520  145.4830 C   0  0  2  0  0  3  0  0  0  0  0  0
  194.7100  177.4030  145.1770 F   0  0  0  0  0  0  0  0  0  0  0  0
  196.0360  175.6470  144.3130 C   0  0  0  0  0  2  0  0  0  0  0  0
  196.2360  176.6820  143.3830 O   0  0  0  0  0  0  0  0  0  0  0  0
  195.9000  174.8290  141.8560 C   0  0  0  0  0  1  0  0  0  0  0  0
  194.2980  176.5080  142.2270 F   0  0  0  0  0  0  0  0  0  0  0  0
  195.6630  176.3070  142.1490 C   0  0  0  0  0  0  0  0  0  0  0  0
  196.1500  177.0810  141.1040 F   0  0  0  0  0  0  0  0  0  0  0  0
  188.8480  177.8650  142.0560 C   0  0  0  0  0  2  0  0  0  0  0  0
  186.4260  177.3940  141.9330 C   0  0  1  0  0  3  0  0  0  0  0  0
  187.0570  176.9560  140.6240 C   0  0  0  0  0  2  0  0  0  0  0  0
  187.5650  178.1950  141.3230 C   0  0  2  0  0  3  0  0  0  0  0  0
  185.1050  178.0550  141.6650 C   0  0  0  0  0  0  0  0  0  0  0  0
  184.5030  178.9160  142.6330 N   0  0  0  0  0  2  0  0  0  0  0  0
  184.5350  177.8910  140.5520 O   0  0  0  0  0  0  0  0  0  0  0  0
  185.1070  179.1860  143.9300 C   0  0  0  0  0  2  0  0  0  0  0  0
  184.5060  178.2790  144.9910 C   0  0  0  0  0  2  0  0  0  0  0  0
  187.6280  177.5520  146.5560 C   0  0  2  0  0  3  0  0  0  0  0  0
  186.6270  176.7260  147.3400 C   0  0  0  0  0  2  0  0  0  0  0  0
  185.3450  177.0170  146.8540 O   0  0  0  0  0  0  0  0  0  0  0  0
  185.5150  177.2520  145.4780 C   0  0  2  0  0  3  0  0  0  0  0  0
  186.9140  177.7770  145.2470 C   0  0  0  0  0  2  0  0  0  0  0  0
  190.7780  176.2110  147.6960 C   0  0  0  0  0  2  0  0  0  0  0  0
  188.6850  175.4380  146.8030 C   0  0  0  0  0  2  0  0  0  0  0  0
  188.8810  176.8140  146.3560 N   0  0  0  0  0  0  0  0  0  0  0  0
  189.8850  177.3530  147.2680 C   0  0  0  0  0  2  0  0  0  0  0  0
  189.9820  174.9610  147.4190 C   0  0  0  0  0  2  0  0  0  0  0  0
  189.1120  173.4200  142.6870 C   0  0  0  0  0  2  0  0  0  0  0  0
  189.3770  172.0840  143.3590 C   0  0  0  0  0  2  0  0  0  0  0  0
  189.8730  171.1290  142.3800 N   0  0  0  0  0  2  0  0  0  0  0  0
  191.2480  171.0200  141.9990 C   0  0  0  0  0  0  0  0  0  0  0  0
  192.3230  170.2220  142.9440 S   0  0  0  0  0  0  0  0  0  0  0  0
  191.7130  171.6070  140.7790 N   0  0  0  0  0  2  0  0  0  0  0  0
  191.3400  171.1930  139.4620 C   0  0  0  0  0  0  0  0  0  0  0  0
  190.5320  170.2410  139.2830 O   0  0  0  0  0  0  0  0  0  0  0  0
  191.9260  171.9070  138.2850 C   0  0  2  0  0  3  0  0  0  0  0  0
  193.4440  171.8640  138.3750 C   0  0  0  0  0  1  0  0  0  0  0  0
  191.4140  173.3490  138.1930 C   0  0  2  0  0  3  0  0  0  0  0  0
  190.0990  173.4310  138.6620 O   0  0  0  0  0  1  0  0  0  0  0  0
  191.7020  175.0550  136.6000 O   0  0  0  0  0  0  0  0  0  0  0  0
  191.4720  173.8730  136.7880 C   0  0  0  0  0  0  0  0  0  0  0  0
  191.2320  172.9680  135.6240 C   0  0  0  0  0  2  0  0  0  0  0  0
  189.8610  172.7860  135.4410 O   0  0  0  0  0  1  0  0  0  0  0  0
  1  5  2  0  0  0  0
  2  6  1  0  0  0  0
  2  3  1  0  0  0  0
  3  1  1  0  0  0  0
  4  1  1  0  0  0  0
  5  7  2  0  0  0  0
  6  4  2  0  0  0  0
  8  2  2  0  0  0  0
  9 10  1  6  0  0  0
  9  7  1  0  0  0  0
 11  9  1  0  0  0  0
 12 11  1  0  0  0  0
 13 15  1  0  0  0  0
 15 14  1  0  0  0  0
 15 12  1  0  0  0  0
 16 15  1  0  0  0  0
 17  8  1  0  0  0  0
 18 21  1  6  0  0  0
 19 20  1  0  0  0  0
 19 18  1  0  0  0  0
 20 18  1  0  0  0  0
 20 17  1  1  0  0  0
 21 22  1  0  0  0  0
 22 24  1  0  0  0  0
 23 21  2  0  0  0  0
 24 25  1  0  0  0  0
 26 30  1  6  0  0  0
 26 27  1  0  0  0  0
 28 27  1  0  0  0  0
 29 25  1  1  0  0  0
 29 28  1  0  0  0  0
 30 29  1  0  0  0  0
 32 35  1  0  0  0  0
 33 26  1  0  0  0  0
 33 32  1  0  0  0  0
 33 34  1  0  0  0  0
 34 31  1  0  0  0  0
 35 31  1  0  0  0  0
 36  6  1  0  0  0  0
 36 37  1  0  0  0  0
 38 37  1  0  0  0  0
 39 38  1  0  0  0  0
 39 40  2  0  0  0  0
 41 39  1  0  0  0  0
 42 41  1  0  0  0  0
 43 42  2  0  0  0  0
 44 45  1  1  0  0  0
 44 42  1  0  0  0  0
 46 44  1  0  0  0  0
 46 47  1  6  0  0  0
 48 49  2  0  0  0  0
 49 46  1  0  0  0  0
 50 49  1  0  0  0  0
 51 50  1  0  0  0  0
M  END
>  <MODEL>
1

>  <REMARK>
 VINA RESULT:      -6.6      0.000      0.000
  Name = 
  20 active torsions:
  status: ('A' for Active; 'I' for Inactive)
    1  A    between atoms: C_1  and  N_30
    2  A    between atoms: C_1  and  C_40
    3  A    between atoms: C_4  and  N_8
    4  A    between atoms: C_4  and  N_30
    5  A    between atoms: C_5  and  C_23
    6  A    between atoms: C_5  and  C_44
    7  A    between atoms: C_6  and  C_9
    8  A    between atoms: N_12  and  C_38
    9  A    between atoms: C_13  and  N_18
   10  A    between atoms: C_14  and  C_15
   11  A    between atoms: C_14  and  C_24
   12  A    between atoms: C_15  and  C_17
   13  A    between atoms: C_17  and  C_25
   14  A    between atoms: C_19  and  C_46
   15  A    between atoms: C_19  and  C_49
   16  A    between atoms: C_23  and  O_35
   17  A    between atoms: C_32  and  C_36
   18  A    between atoms: C_32  and  C_38
   19  A    between atoms: C_33  and  O_35
   20  A    between atoms: C_39  and  C_40
                            x       y       z     vdW  Elec       q    Type
                         _______ _______ _______ _____ _____    ______ ____

>  <TORSDO>
F 20

$$$$
=
 OpenBabel11042413533D

 51 54  0  0  1  0  0  0  0  0999 V2000
  192.6480  173.6320  145.3530 C   0  0  0  0  0  0  0  0  0  0  0  0
  190.2620  174.3140  145.4490 C   0  0  0  0  0  0  0  0  0  0  0  0
  191.7360  174.8460  146.0710 S   0  0  0  0  0  0  0  0  0  0  0  0
  191.8310  172.7850  144.6190 C   0  0  0  0  0  2  0  0  0  0  0  0
  193.9350  173.4850  145.4950 C   0  0  0  0  0  0  0  0  0  0  0  0
  190.4850  173.1790  144.6710 C   0  0  0  0  0  0  0  0  0  0  0  0
  195.2230  173.3400  145.6430 C   0  0  0  0  0  3  0  0  0  0  0  0
  189.0730  174.8790  145.6630 C   0  0  0  0  0  2  0  0  0  0  0  0
  196.1190  174.5300  145.6880 C   0  0  2  0  0  3  0  0  0  0  0  0
  195.3630  175.6770  145.8500 F   0  0  0  0  0  0  0  0  0  0  0  0
  196.9100  174.6340  144.3990 C   0  0  0  0  0  2  0  0  0  0  0  0
  196.0540  174.4760  143.2960 O   0  0  0  0  0  0  0  0  0  0  0  0
  196.9400  176.7190  143.0510 C   0  0  0  0  0  1  0  0  0  0  0  0
  197.1990  175.0410  141.4260 F   0  0  0  0  0  0  0  0  0  0  0  0
  196.3060  175.5110  142.3690 C   0  0  0  0  0  0  0  0  0  0  0  0
  195.1470  175.8950  141.7070 F   0  0  0  0  0  0  0  0  0  0  0  0
  188.9010  176.0970  146.5070 C   0  0  0  0  0  2  0  0  0  0  0  0
  186.9070  177.4730  146.0250 C   0  0  1  0  0  3  0  0  0  0  0  0
  187.2450  177.6350  147.4960 C   0  0  0  0  0  2  0  0  0  0  0  0
  187.4340  176.2940  146.8260 C   0  0  2  0  0  3  0  0  0  0  0  0
  185.4190  177.3800  145.8520 C   0  0  0  0  0  0  0  0  0  0  0  0
  184.7620  178.0350  144.7660 N   0  0  0  0  0  2  0  0  0  0  0  0
  184.7370  176.6750  146.6450 O   0  0  0  0  0  0  0  0  0  0  0  0
  185.4740  178.8420  143.7860 C   0  0  0  0  0  2  0  0  0  0  0  0
  185.3030  178.2560  142.3950 C   0  0  0  0  0  2  0  0  0  0  0  0
  188.6270  176.9810  142.6310 C   0  0  2  0  0  3  0  0  0  0  0  0
  188.0550  176.2820  141.4120 C   0  0  0  0  0  2  0  0  0  0  0  0
  186.7090  176.6520  141.2890 O   0  0  0  0  0  0  0  0  0  0  0  0
  186.6470  177.9820  141.7390 C   0  0  2  0  0  3  0  0  0  0  0  0
  187.7500  178.2020  142.7500 C   0  0  0  0  0  2  0  0  0  0  0  0
  191.9600  177.7320  143.7910 C   0  0  0  0  0  2  0  0  0  0  0  0
  190.8350  176.1370  142.3890 C   0  0  0  0  0  2  0  0  0  0  0  0
  190.0290  177.3550  142.4160 N   0  0  0  0  0  0  0  0  0  0  0  0
  190.5010  178.0750  143.5950 C   0  0  0  0  0  2  0  0  0  0  0  0
  192.1700  176.4490  143.0270 C   0  0  0  0  0  2  0  0  0  0  0  0
  189.4010  172.4030  143.9920 C   0  0  0  0  0  2  0  0  0  0  0  0
  189.0550  173.0260  142.6510 C   0  0  0  0  0  2  0  0  0  0  0  0
  189.8980  172.4550  141.6100 N   0  0  0  0  0  2  0  0  0  0  0  0
  189.8730  172.8780  140.2440 C   0  0  0  0  0  0  0  0  0  0  0  0
  188.5380  172.6590  139.3180 S   0  0  0  0  0  0  0  0  0  0  0  0
  191.0180  173.5040  139.6550 N   0  0  0  0  0  2  0  0  0  0  0  0
  191.9850  172.8550  138.8230 C   0  0  0  0  0  0  0  0  0  0  0  0
  191.8790  171.6320  138.5360 O   0  0  0  0  0  0  0  0  0  0  0  0
  193.1340  173.6520  138.2930 C   0  0  2  0  0  3  0  0  0  0  0  0
  193.1260  173.5970  136.7730 C   0  0  0  0  0  1  0  0  0  0  0  0
  194.4690  173.1570  138.8620 C   0  0  2  0  0  3  0  0  0  0  0  0
  194.3650  172.9480  140.2400 O   0  0  0  0  0  1  0  0  0  0  0  0
  195.3880  175.3190  138.7380 O   0  0  0  0  0  0  0  0  0  0  0  0
  195.5830  174.1240  138.5900 C   0  0  0  0  0  0  0  0  0  0  0  0
  196.9180  173.6420  138.1240 C   0  0  0  0  0  2  0  0  0  0  0  0
  196.7630  172.4900  137.3530 O   0  0  0  0  0  1  0  0  0  0  0  0
  1  5  2  0  0  0  0
  1  3  1  0  0  0  0
  2  8  1  0  0  0  0
  2  3  1  0  0  0  0
  4  6  1  0  0  0  0
  4  1  1  0  0  0  0
  5  7  2  0  0  0  0
  6  2  2  0  0  0  0
  7  9  1  0  0  0  0
  8 17  1  0  0  0  0
  9 10  1  6  0  0  0
 11  9  1  0  0  0  0
 12 11  1  0  0  0  0
 14 15  1  0  0  0  0
 15 13  1  0  0  0  0
 15 12  1  0  0  0  0
 16 15  1  0  0  0  0
 18 21  1  1  0  0  0
 18 20  1  0  0  0  0
 18 19  1  0  0  0  0
 20 17  1  6  0  0  0
 20 19  1  0  0  0  0
 21 23  2  0  0  0  0
 22 21  1  0  0  0  0
 24 22  1  0  0  0  0
 25 24  1  0  0  0  0
 26 27  1  6  0  0  0
 26 30  1  0  0  0  0
 28 27  1  0  0  0  0
 28 29  1  0  0  0  0
 29 25  1  1  0  0  0
 29 30  1  0  0  0  0
 32 33  1  0  0  0  0
 32 35  1  0  0  0  0
 33 26  1  0  0  0  0
 33 34  1  0  0  0  0
 34 31  1  0  0  0  0
 35 31  1  0  0  0  0
 36  6  1  0  0  0  0
 37 36  1  0  0  0  0
 38 37  1  0  0  0  0
 39 38  1  0  0  0  0
 40 39  2  0  0  0  0
 41 39  1  0  0  0  0
 42 41  1  0  0  0  0
 43 42  2  0  0  0  0
 44 45  1  6  0  0  0
 44 42  1  0  0  0  0
 44 46  1  0  0  0  0
 46 47  1  1  0  0  0
 49 48  2  0  0  0  0
 49 46  1  0  0  0  0
 50 49  1  0  0  0  0
 51 50  1  0  0  0  0
M  END
>  <MODEL>
2

>  <REMARK>
 VINA RESULT:      -6.2      2.285      3.759
  Name = 
  20 active torsions:
  status: ('A' for Active; 'I' for Inactive)
    1  A    between atoms: C_1  and  N_30
    2  A    between atoms: C_1  and  C_40
    3  A    between atoms: C_4  and  N_8
    4  A    between atoms: C_4  and  N_30
    5  A    between atoms: C_5  and  C_23
    6  A    between atoms: C_5  and  C_44
    7  A    between atoms: C_6  and  C_9
    8  A    between atoms: N_12  and  C_38
    9  A    between atoms: C_13  and  N_18
   10  A    between atoms: C_14  and  C_15
   11  A    between atoms: C_14  and  C_24
   12  A    between atoms: C_15  and  C_17
   13  A    between atoms: C_17  and  C_25
   14  A    between atoms: C_19  and  C_46
   15  A    between atoms: C_19  and  C_49
   16  A    between atoms: C_23  and  O_35
   17  A    between atoms: C_32  and  C_36
   18  A    between atoms: C_32  and  C_38
   19  A    between atoms: C_33  and  O_35
   20  A    between atoms: C_39  and  C_40
                            x       y       z     vdW  Elec       q    Type
                         _______ _______ _______ _____ _____    ______ ____

>  <TORSDO>
F 20

$$$$
=
 OpenBabel11042413533D

 51 54  0  0  1  0  0  0  0  0999 V2000
  195.5560  174.9660  142.4530 C   0  0  0  0  0  0  0  0  0  0  0  0
  195.1390  175.1840  144.8920 C   0  0  0  0  0  0  0  0  0  0  0  0
  194.3950  175.6530  143.4530 S   0  0  0  0  0  0  0  0  0  0  0  0
  196.5480  174.3610  143.2100 C   0  0  0  0  0  2  0  0  0  0  0  0
  195.5450  175.0240  141.1510 C   0  0  0  0  0  0  0  0  0  0  0  0
  196.3040  174.4810  144.5870 C   0  0  0  0  0  0  0  0  0  0  0  0
  195.5320  175.0870  139.8480 C   0  0  0  0  0  3  0  0  0  0  0  0
  194.6950  175.4410  146.1230 C   0  0  0  0  0  2  0  0  0  0  0  0
  194.2500  174.9740  139.0980 C   0  0  2  0  0  3  0  0  0  0  0  0
  193.1990  174.8340  139.9870 F   0  0  0  0  0  0  0  0  0  0  0  0
  194.2890  173.7680  138.1810 C   0  0  0  0  0  2  0  0  0  0  0  0
  193.0150  173.5350  137.6370 O   0  0  0  0  0  0  0  0  0  0  0  0
  191.0980  172.2890  138.4430 C   0  0  0  0  0  1  0  0  0  0  0  0
  192.6960  171.3960  136.9690 F   0  0  0  0  0  0  0  0  0  0  0  0
  192.5690  172.2580  138.0410 C   0  0  0  0  0  0  0  0  0  0  0  0
  193.3360  171.7580  139.0850 F   0  0  0  0  0  0  0  0  0  0  0  0
  193.4360  176.1980  146.3820 C   0  0  0  0  0  2  0  0  0  0  0  0
  190.9830  175.9470  146.5150 C   0  0  1  0  0  3  0  0  0  0  0  0
  191.5540  175.7120  147.9010 C   0  0  0  0  0  2  0  0  0  0  0  0
  192.3120  175.2310  146.6860 C   0  0  2  0  0  3  0  0  0  0  0  0
  189.8780  174.9670  146.2480 C   0  0  0  0  0  0  0  0  0  0  0  0
  189.4930  174.6380  144.9120 N   0  0  0  0  0  2  0  0  0  0  0  0
  189.3070  174.3840  147.2100 O   0  0  0  0  0  0  0  0  0  0  0  0
  190.1190  175.2380  143.7420 C   0  0  0  0  0  2  0  0  0  0  0  0
  189.0590  175.7060  142.7590 C   0  0  0  0  0  2  0  0  0  0  0  0
  186.5760  178.1830  143.4170 C   0  0  2  0  0  3  0  0  0  0  0  0
  185.7740  176.9660  142.9990 C   0  0  0  0  0  2  0  0  0  0  0  0
  186.6730  175.9570  142.6290 O   0  0  0  0  0  0  0  0  0  0  0  0
  187.7830  176.1200  143.4760 C   0  0  2  0  0  3  0  0  0  0  0  0
  187.8800  177.5770  143.8700 C   0  0  0  0  0  2  0  0  0  0  0  0
  184.1150  178.4670  146.0400 C   0  0  0  0  0  2  0  0  0  0  0  0
  186.5040  178.4570  145.7760 C   0  0  0  0  0  2  0  0  0  0  0  0
  185.9160  178.8990  144.5140 N   0  0  0  0  0  0  0  0  0  0  0  0
  184.5270  178.4560  144.5860 C   0  0  0  0  0  2  0  0  0  0  0  0
  185.4060  178.4370  146.8170 C   0  0  0  0  0  2  0  0  0  0  0  0
  197.2520  173.9460  145.6140 C   0  0  0  0  0  2  0  0  0  0  0  0
  196.6740  172.7130  146.2850 C   0  0  0  0  0  2  0  0  0  0  0  0
  196.7870  171.5680  145.3940 N   0  0  0  0  0  2  0  0  0  0  0  0
  196.1170  170.3220  145.6090 C   0  0  0  0  0  0  0  0  0  0  0  0
  196.5320  169.3460  146.8590 S   0  0  0  0  0  0  0  0  0  0  0  0
  195.0660  169.9010  144.7330 N   0  0  0  0  0  2  0  0  0  0  0  0
  193.8260  170.5860  144.5330 C   0  0  0  0  0  0  0  0  0  0  0  0
  193.5710  171.6610  145.1420 O   0  0  0  0  0  0  0  0  0  0  0  0
  192.8240  170.0070  143.5860 C   0  0  2  0  0  3  0  0  0  0  0  0
  193.0730  168.5140  143.4390 C   0  0  0  0  0  1  0  0  0  0  0  0
  192.8630  170.7150  142.2270 C   0  0  2  0  0  3  0  0  0  0  0  0
  194.1000  171.3380  142.0360 O   0  0  0  0  0  1  0  0  0  0  0  0
  192.0550  172.9200  142.0960 O   0  0  0  0  0  0  0  0  0  0  0  0
  191.7700  171.7340  142.0970 C   0  0  0  0  0  0  0  0  0  0  0  0
  190.3400  171.3140  141.9900 C   0  0  0  0  0  2  0  0  0  0  0  0
  189.6620  171.6410  143.1640 O   0  0  0  0  0  1  0  0  0  0  0  0
  1  4  1  0  0  0  0
  1  3  1  0  0  0  0
  2  8  1  0  0  0  0
  3  2  1  0  0  0  0
  4  6  1  0  0  0  0
  5  1  2  0  0  0  0
  6  2  2  0  0  0  0
  6 36  1  0  0  0  0
  7  5  2  0  0  0  0
  8 17  1  0  0  0  0
  9  7  1  0  0  0  0
  9 10  1  1  0  0  0
 11  9  1  0  0  0  0
 12 15  1  0  0  0  0
 12 11  1  0  0  0  0
 14 15  1  0  0  0  0
 15 13  1  0  0  0  0
 15 16  1  0  0  0  0
 18 21  1  1  0  0  0
 18 20  1  0  0  0  0
 18 19  1  0  0  0  0
 20 17  1  6  0  0  0
 20 19  1  0  0  0  0
 21 23  2  0  0  0  0
 22 21  1  0  0  0  0
 24 22  1  0  0  0  0
 25 24  1  0  0  0  0
 26 27  1  1  0  0  0
 26 30  1  0  0  0  0
 26 33  1  0  0  0  0
 28 27  1  0  0  0  0
 28 29  1  0  0  0  0
 29 25  1  6  0  0  0
 29 30  1  0  0  0  0
 31 35  1  0  0  0  0
 32 35  1  0  0  0  0
 33 34  1  0  0  0  0
 33 32  1  0  0  0  0
 34 31  1  0  0  0  0
 36 37  1  0  0  0  0
 38 39  1  0  0  0  0
 38 37  1  0  0  0  0
 39 40  2  0  0  0  0
 41 39  1  0  0  0  0
 42 41  1  0  0  0  0
 42 43  2  0  0  0  0
 44 45  1  6  0  0  0
 44 42  1  0  0  0  0
 46 47  1  1  0  0  0
 46 44  1  0  0  0  0
 48 49  2  0  0  0  0
 49 46  1  0  0  0  0
 50 49  1  0  0  0  0
 50 51  1  0  0  0  0
M  END
>  <MODEL>
3

>  <REMARK>
 VINA RESULT:      -6.2      3.133      6.200
  Name = 
  20 active torsions:
  status: ('A' for Active; 'I' for Inactive)
    1  A    between atoms: C_1  and  N_30
    2  A    between atoms: C_1  and  C_40
    3  A    between atoms: C_4  and  N_8
    4  A    between atoms: C_4  and  N_30
    5  A    between atoms: C_5  and  C_23
    6  A    between atoms: C_5  and  C_44
    7  A    between atoms: C_6  and  C_9
    8  A    between atoms: N_12  and  C_38
    9  A    between atoms: C_13  and  N_18
   10  A    between atoms: C_14  and  C_15
   11  A    between atoms: C_14  and  C_24
   12  A    between atoms: C_15  and  C_17
   13  A    between atoms: C_17  and  C_25
   14  A    between atoms: C_19  and  C_46
   15  A    between atoms: C_19  and  C_49
   16  A    between atoms: C_23  and  O_35
   17  A    between atoms: C_32  and  C_36
   18  A    between atoms: C_32  and  C_38
   19  A    between atoms: C_33  and  O_35
   20  A    between atoms: C_39  and  C_40
                            x       y       z     vdW  Elec       q    Type
                         _______ _______ _______ _____ _____    ______ ____

>  <TORSDO>
F 20

$$$$
=
 OpenBabel11042413533D

 51 54  0  0  1  0  0  0  0  0999 V2000
  188.2220  174.8100  141.5210 C   0  0  0  0  0  0  0  0  0  0  0  0
  189.8380  172.9230  141.5640 C   0  0  0  0  0  0  0  0  0  0  0  0
  189.0270  173.8960  142.6780 S   0  0  0  0  0  0  0  0  0  0  0  0
  188.5660  174.3850  140.2460 C   0  0  0  0  0  2  0  0  0  0  0  0
  187.4180  175.8000  141.7840 C   0  0  0  0  0  0  0  0  0  0  0  0
  189.4740  173.3150  140.2760 C   0  0  0  0  0  0  0  0  0  0  0  0
  186.6150  176.7930  142.0510 C   0  0  0  0  0  3  0  0  0  0  0  0
  190.6910  171.9410  141.8570 C   0  0  0  0  0  2  0  0  0  0  0  0
  185.6860  176.7240  143.2140 C   0  0  2  0  0  3  0  0  0  0  0  0
  184.5750  177.5120  142.9720 F   0  0  0  0  0  0  0  0  0  0  0  0
  186.3830  177.2170  144.4660 C   0  0  0  0  0  2  0  0  0  0  0  0
  185.9030  176.5230  145.5890 O   0  0  0  0  0  0  0  0  0  0  0  0
  185.8940  178.8730  146.1800 C   0  0  0  0  0  1  0  0  0  0  0  0
  184.0920  177.4250  146.6050 F   0  0  0  0  0  0  0  0  0  0  0  0
  185.4720  177.4560  146.5560 C   0  0  0  0  0  0  0  0  0  0  0  0
  185.9510  177.1390  147.8200 F   0  0  0  0  0  0  0  0  0  0  0  0
  191.0380  171.5690  143.2590 C   0  0  0  0  0  2  0  0  0  0  0  0
  193.4860  171.3620  143.0030 C   0  0  1  0  0  3  0  0  0  0  0  0
  192.8300  170.5770  141.8830 C   0  0  0  0  0  2  0  0  0  0  0  0
  192.1980  170.5960  143.2560 C   0  0  2  0  0  3  0  0  0  0  0  0
  194.6700  170.6040  143.5290 C   0  0  0  0  0  0  0  0  0  0  0  0
  195.2110  170.8880  144.8210 N   0  0  0  0  0  2  0  0  0  0  0  0
  195.1720  169.6690  142.8480 O   0  0  0  0  0  0  0  0  0  0  0  0
  194.6760  171.9280  145.6880 C   0  0  0  0  0  2  0  0  0  0  0  0
  195.4400  173.2270  145.4870 C   0  0  0  0  0  2  0  0  0  0  0  0
  192.4960  174.9810  146.4810 C   0  0  2  0  0  3  0  0  0  0  0  0
  193.5780  176.0430  146.5070 C   0  0  0  0  0  2  0  0  0  0  0  0
  194.8030  175.4250  146.2160 O   0  0  0  0  0  0  0  0  0  0  0  0
  194.4940  174.4030  145.3020 C   0  0  2  0  0  3  0  0  0  0  0  0
  193.0740  173.9460  145.5480 C   0  0  0  0  0  2  0  0  0  0  0  0
  188.9190  175.4440  146.5720 C   0  0  0  0  0  2  0  0  0  0  0  0
  190.9300  176.7570  146.6730 C   0  0  0  0  0  2  0  0  0  0  0  0
  191.2370  175.5220  145.9560 N   0  0  0  0  0  0  0  0  0  0  0  0
  190.1560  174.6120  146.3210 C   0  0  0  0  0  2  0  0  0  0  0  0
  189.4270  176.8390  146.8320 C   0  0  0  0  0  2  0  0  0  0  0  0
  190.0280  172.7060  139.0270 C   0  0  0  0  0  2  0  0  0  0  0  0
  190.7260  173.7570  138.1820 C   0  0  0  0  0  2  0  0  0  0  0  0
  192.1650  173.6740  138.3810 N   0  0  0  0  0  2  0  0  0  0  0  0
  193.0920  174.6590  137.9160 C   0  0  0  0  0  0  0  0  0  0  0  0
  192.9870  175.2620  136.3950 S   0  0  0  0  0  0  0  0  0  0  0  0
  194.1330  175.1410  138.7720 N   0  0  0  0  0  2  0  0  0  0  0  0
  195.4720  174.6390  138.8160 C   0  0  0  0  0  0  0  0  0  0  0  0
  195.8390  173.6990  138.0610 O   0  0  0  0  0  0  0  0  0  0  0  0
  196.4410  175.2480  139.7790 C   0  0  2  0  0  3  0  0  0  0  0  0
  197.7590  175.5130  139.0670 C   0  0  0  0  0  1  0  0  0  0  0  0
  196.6420  174.3580  141.0110 C   0  0  2  0  0  3  0  0  0  0  0  0
  195.5330  173.5280  141.1990 O   0  0  0  0  0  1  0  0  0  0  0  0
  197.6340  174.7500  143.1070 O   0  0  0  0  0  0  0  0  0  0  0  0
  196.8710  175.1680  142.2530 C   0  0  0  0  0  0  0  0  0  0  0  0
  196.1620  176.4660  142.4610 C   0  0  0  0  0  2  0  0  0  0  0  0
  196.4730  176.9790  143.7210 O   0  0  0  0  0  1  0  0  0  0  0  0
  1  5  2  0  0  0  0
  1  3  1  0  0  0  0
  2  8  1  0  0  0  0
  2  3  1  0  0  0  0
  4  6  1  0  0  0  0
  4  1  1  0  0  0  0
  5  7  2  0  0  0  0
  6  2  2  0  0  0  0
  7  9  1  0  0  0  0
  8 17  1  0  0  0  0
  9 10  1  6  0  0  0
  9 11  1  0  0  0  0
 11 12  1  0  0  0  0
 12 15  1  0  0  0  0
 13 15  1  0  0  0  0
 15 14  1  0  0  0  0
 15 16  1  0  0  0  0
 18 20  1  0  0  0  0
 18 21  1  1  0  0  0
 19 18  1  0  0  0  0
 19 20  1  0  0  0  0
 20 17  1  6  0  0  0
 21 22  1  0  0  0  0
 22 24  1  0  0  0  0
 23 21  2  0  0  0  0
 25 24  1  0  0  0  0
 26 30  1  6  0  0  0
 26 27  1  0  0  0  0
 28 27  1  0  0  0  0
 29 25  1  1  0  0  0
 29 30  1  0  0  0  0
 29 28  1  0  0  0  0
 31 35  1  0  0  0  0
 32 35  1  0  0  0  0
 33 34  1  0  0  0  0
 33 26  1  0  0  0  0
 33 32  1  0  0  0  0
 34 31  1  0  0  0  0
 36  6  1  0  0  0  0
 37 38  1  0  0  0  0
 37 36  1  0  0  0  0
 39 38  1  0  0  0  0
 39 41  1  0  0  0  0
 40 39  2  0  0  0  0
 41 42  1  0  0  0  0
 42 44  1  0  0  0  0
 43 42  2  0  0  0  0
 44 45  1  6  0  0  0
 44 46  1  0  0  0  0
 46 47  1  1  0  0  0
 46 49  1  0  0  0  0
 49 50  1  0  0  0  0
 49 48  2  0  0  0  0
 50 51  1  0  0  0  0
M  END
>  <MODEL>
4

>  <REMARK>
 VINA RESULT:      -6.1      3.812      8.126
  Name = 
  20 active torsions:
  status: ('A' for Active; 'I' for Inactive)
    1  A    between atoms: C_1  and  N_30
    2  A    between atoms: C_1  and  C_40
    3  A    between atoms: C_4  and  N_8
    4  A    between atoms: C_4  and  N_30
    5  A    between atoms: C_5  and  C_23
    6  A    between atoms: C_5  and  C_44
    7  A    between atoms: C_6  and  C_9
    8  A    between atoms: N_12  and  C_38
    9  A    between atoms: C_13  and  N_18
   10  A    between atoms: C_14  and  C_15
   11  A    between atoms: C_14  and  C_24
   12  A    between atoms: C_15  and  C_17
   13  A    between atoms: C_17  and  C_25
   14  A    between atoms: C_19  and  C_46
   15  A    between atoms: C_19  and  C_49
   16  A    between atoms: C_23  and  O_35
   17  A    between atoms: C_32  and  C_36
   18  A    between atoms: C_32  and  C_38
   19  A    between atoms: C_33  and  O_35
   20  A    between atoms: C_39  and  C_40
                            x       y       z     vdW  Elec       q    Type
                         _______ _______ _______ _____ _____    ______ ____

>  <TORSDO>
F 20

$$$$
=
 OpenBabel11042413533D

 51 54  0  0  1  0  0  0  0  0999 V2000
  191.8320  174.5500  143.9490 C   0  0  0  0  0  0  0  0  0  0  0  0
  189.8020  174.7650  142.5330 C   0  0  0  0  0  0  0  0  0  0  0  0
  190.8220  175.7800  143.4130 S   0  0  0  0  0  0  0  0  0  0  0  0
  191.4010  173.3250  143.4620 C   0  0  0  0  0  3  0  0  0  0  0  0
  192.8540  174.7180  144.7390 C   0  0  0  0  0  0  0  0  0  0  0  0
  190.2580  173.4530  142.6570 C   0  0  0  0  0  0  0  0  0  0  0  0
  193.8750  174.8900  145.5330 C   0  0  0  0  0  3  0  0  0  0  0  0
  188.7330  175.1460  141.8330 C   0  0  0  0  0  3  0  0  0  0  0  0
  194.7530  176.0850  145.3880 C   0  0  2  0  0  3  0  0  0  0  0  0
  194.0900  177.0680  144.6750 F   0  0  0  0  0  0  0  0  0  0  0  0
  196.0240  175.7100  144.6530 C   0  0  0  0  0  2  0  0  0  0  0  0
  196.3130  176.6700  143.6690 O   0  0  0  0  0  0  0  0  0  0  0  0
  197.9100  175.7290  142.1070 C   0  0  0  0  0  1  0  0  0  0  0  0
  195.7780  174.8150  142.4860 F   0  0  0  0  0  0  0  0  0  0  0  0
  196.4460  176.0220  142.4210 C   0  0  0  0  0  0  0  0  0  0  0  0
  195.8820  176.7690  141.3960 F   0  0  0  0  0  0  0  0  0  0  0  0
  188.2980  176.5690  141.7380 C   0  0  0  0  0  2  0  0  0  0  0  0
  186.3570  177.6760  142.7910 C   0  0  1  0  0  3  0  0  0  0  0  0
  186.2840  176.1950  143.1140 C   0  0  0  0  0  2  0  0  0  0  0  0
  186.7860  176.6440  141.7610 C   0  0  2  0  0  3  0  0  0  0  0  0
  184.9820  178.1960  142.4840 C   0  0  0  0  0  0  0  0  0  0  0  0
  184.2520  178.9570  143.4480 N   0  0  0  0  0  2  0  0  0  0  0  0
  184.4770  178.0050  141.3450 O   0  0  0  0  0  0  0  0  0  0  0  0
  184.7710  179.2520  144.7760 C   0  0  0  0  0  2  0  0  0  0  0  0
  184.1090  178.3590  145.8110 C   0  0  0  0  0  2  0  0  0  0  0  0
  187.4640  177.9090  146.9390 C   0  0  2  0  0  3  0  0  0  0  0  0
  186.8570  178.8450  147.9670 C   0  0  0  0  0  2  0  0  0  0  0  0
  185.5530  179.1570  147.5570 O   0  0  0  0  0  0  0  0  0  0  0  0
  185.0740  177.9950  146.9280 C   0  0  2  0  0  3  0  0  0  0  0  0
  186.2490  177.2400  146.3470 C   0  0  0  0  0  2  0  0  0  0  0  0
  189.5470  174.9640  146.8920 C   0  0  0  0  0  2  0  0  0  0  0  0
  189.7340  177.3220  147.3210 C   0  0  0  0  0  2  0  0  0  0  0  0
  188.3510  176.9290  147.5750 N   0  0  0  0  0  0  0  0  0  0  0  0
  188.2020  175.6530  146.8820 C   0  0  0  0  0  2  0  0  0  0  0  0
  190.5510  176.0600  147.1490 C   0  0  0  0  0  2  0  0  0  0  0  0
  189.5760  172.2690  142.0470 C   0  0  0  0  0  2  0  0  0  0  0  0
  190.5430  171.1060  141.9100 C   0  0  0  0  0  2  0  0  0  0  0  0
  190.4820  170.5720  140.5570 N   0  0  0  0  0  2  0  0  0  0  0  0
  191.1010  171.1920  139.4270 C   0  0  0  0  0  0  0  0  0  0  0  0
  190.7150  170.7380  137.9000 S   0  0  0  0  0  0  0  0  0  0  0  0
  192.0730  172.2280  139.6060 N   0  0  0  0  0  2  0  0  0  0  0  0
  193.4630  172.0250  139.8780 C   0  0  0  0  0  0  0  0  0  0  0  0
  193.9450  170.8640  139.9730 O   0  0  0  0  0  0  0  0  0  0  0  0
  194.3480  173.2190  140.0490 C   0  0  2  0  0  3  0  0  0  0  0  0
  193.5000  174.4810  140.0360 C   0  0  0  0  0  1  0  0  0  0  0  0
  195.4380  173.2680  138.9720 C   0  0  2  0  0  3  0  0  0  0  0  0
  196.5330  174.0120  139.4190 O   0  0  0  0  0  1  0  0  0  0  0  0
  194.1120  173.2380  137.0290 O   0  0  0  0  0  0  0  0  0  0  0  0
  194.9280  173.8580  137.6900 C   0  0  0  0  0  0  0  0  0  0  0  0
  195.4220  175.1830  137.2070 C   0  0  0  0  0  2  0  0  0  0  0  0
  195.7380  175.1040  135.8510 O   0  0  0  0  0  1  0  0  0  0  0  0
  1  5  2  0  0  0  0
  2  6  1  0  0  0  0
  2  3  1  0  0  0  0
  3  1  1  0  0  0  0
  4  1  1  0  0  0  0
  5  7  2  0  0  0  0
  6  4  2  0  0  0  0
  8  2  2  0  0  0  0
  9 10  1  6  0  0  0
  9  7  1  0  0  0  0
 11  9  1  0  0  0  0
 12 11  1  0  0  0  0
 13 15  1  0  0  0  0
 15 14  1  0  0  0  0
 15 12  1  0  0  0  0
 16 15  1  0  0  0  0
 17  8  1  0  0  0  0
 18 21  1  6  0  0  0
 18 19  1  0  0  0  0
 20 17  1  1  0  0  0
 20 18  1  0  0  0  0
 20 19  1  0  0  0  0
 21 22  1  0  0  0  0
 22 24  1  0  0  0  0
 23 21  2  0  0  0  0
 24 25  1  0  0  0  0
 26 30  1  1  0  0  0
 26 33  1  0  0  0  0
 26 27  1  0  0  0  0
 28 27  1  0  0  0  0
 29 25  1  6  0  0  0
 29 28  1  0  0  0  0
 30 29  1  0  0  0  0
 31 35  1  0  0  0  0
 32 33  1  0  0  0  0
 34 31  1  0  0  0  0
 34 33  1  0  0  0  0
 35 32  1  0  0  0  0
 36  6  1  0  0  0  0
 37 36  1  0  0  0  0
 38 37  1  0  0  0  0
 39 41  1  0  0  0  0
 39 38  1  0  0  0  0
 40 39  2  0  0  0  0
 41 42  1  0  0  0  0
 42 43  2  0  0  0  0
 42 44  1  0  0  0  0
 44 45  1  6  0  0  0
 46 47  1  1  0  0  0
 46 44  1  0  0  0  0
 48 49  2  0  0  0  0
 49 46  1  0  0  0  0
 50 49  1  0  0  0  0
 51 50  1  0  0  0  0
M  END
>  <MODEL>
5

>  <REMARK>
 VINA RESULT:      -6.0      1.916      2.432
  Name = 
  20 active torsions:
  status: ('A' for Active; 'I' for Inactive)
    1  A    between atoms: C_1  and  N_30
    2  A    between atoms: C_1  and  C_40
    3  A    between atoms: C_4  and  N_8
    4  A    between atoms: C_4  and  N_30
    5  A    between atoms: C_5  and  C_23
    6  A    between atoms: C_5  and  C_44
    7  A    between atoms: C_6  and  C_9
    8  A    between atoms: N_12  and  C_38
    9  A    between atoms: C_13  and  N_18
   10  A    between atoms: C_14  and  C_15
   11  A    between atoms: C_14  and  C_24
   12  A    between atoms: C_15  and  C_17
   13  A    between atoms: C_17  and  C_25
   14  A    between atoms: C_19  and  C_46
   15  A    between atoms: C_19  and  C_49
   16  A    between atoms: C_23  and  O_35
   17  A    between atoms: C_32  and  C_36
   18  A    between atoms: C_32  and  C_38
   19  A    between atoms: C_33  and  O_35
   20  A    between atoms: C_39  and  C_40
                            x       y       z     vdW  Elec       q    Type
                         _______ _______ _______ _____ _____    ______ ____

>  <TORSDO>
F 20

$$$$
=
 OpenBabel11042413533D

 51 54  0  0  1  0  0  0  0  0999 V2000
  187.7720  175.8490  141.2640 C   0  0  0  0  0  0  0  0  0  0  0  0
  188.7920  173.5880  141.1380 C   0  0  0  0  0  0  0  0  0  0  0  0
  188.3220  174.6780  142.3350 S   0  0  0  0  0  0  0  0  0  0  0  0
  187.9440  175.4240  139.9550 C   0  0  0  0  0  2  0  0  0  0  0  0
  187.2880  177.0070  141.6120 C   0  0  0  0  0  0  0  0  0  0  0  0
  188.5140  174.1430  139.8890 C   0  0  0  0  0  0  0  0  0  0  0  0
  186.8050  178.1670  141.9650 C   0  0  0  0  0  3  0  0  0  0  0  0
  189.3420  172.3900  141.3420 C   0  0  0  0  0  2  0  0  0  0  0  0
  185.9290  178.2890  143.1650 C   0  0  2  0  0  3  0  0  0  0  0  0
  185.8930  179.6060  143.5840 F   0  0  0  0  0  0  0  0  0  0  0  0
  186.4640  177.4240  144.2880 C   0  0  0  0  0  2  0  0  0  0  0  0
  186.8710  178.2310  145.3650 O   0  0  0  0  0  0  0  0  0  0  0  0
  184.9430  178.5310  146.8030 C   0  0  0  0  0  1  0  0  0  0  0  0
  185.9270  176.4390  146.3780 F   0  0  0  0  0  0  0  0  0  0  0  0
  186.2420  177.7750  146.5430 C   0  0  0  0  0  0  0  0  0  0  0  0
  187.0810  177.8830  147.6440 F   0  0  0  0  0  0  0  0  0  0  0  0
  189.6120  171.8510  142.7060 C   0  0  0  0  0  2  0  0  0  0  0  0
  191.7870  171.6830  143.8650 C   0  0  1  0  0  3  0  0  0  0  0  0
  192.0480  172.1410  142.4420 C   0  0  0  0  0  2  0  0  0  0  0  0
  190.9490  171.1410  142.7190 C   0  0  2  0  0  3  0  0  0  0  0  0
  192.8330  170.6880  144.2790 C   0  0  0  0  0  0  0  0  0  0  0  0
  193.9120  171.0680  145.1340 N   0  0  0  0  0  2  0  0  0  0  0  0
  192.7390  169.4860  143.9100 O   0  0  0  0  0  0  0  0  0  0  0  0
  194.0810  172.4260  145.6330 C   0  0  0  0  0  2  0  0  0  0  0  0
  195.1050  173.1720  144.7950 C   0  0  0  0  0  2  0  0  0  0  0  0
  192.8990  175.8960  145.4610 C   0  0  2  0  0  3  0  0  0  0  0  0
  194.1630  176.2600  146.2140 C   0  0  0  0  0  2  0  0  0  0  0  0
  195.0680  175.1970  146.0870 O   0  0  0  0  0  0  0  0  0  0  0  0
  194.8440  174.6700  144.8040 C   0  0  2  0  0  3  0  0  0  0  0  0
  193.4030  174.9280  144.4200 C   0  0  0  0  0  2  0  0  0  0  0  0
  190.9460  177.5280  142.9040 C   0  0  0  0  0  2  0  0  0  0  0  0
  190.9100  177.1840  145.2820 C   0  0  0  0  0  2  0  0  0  0  0  0
  192.2970  177.0790  144.8360 N   0  0  0  0  0  0  0  0  0  0  0  0
  192.1980  176.8420  143.3980 C   0  0  0  0  0  2  0  0  0  0  0  0
  190.0920  177.7240  144.1300 C   0  0  0  0  0  2  0  0  0  0  0  0
  188.8370  173.4800  138.5880 C   0  0  0  0  0  2  0  0  0  0  0  0
  190.2760  173.7550  138.1890 C   0  0  0  0  0  2  0  0  0  0  0  0
  190.3710  173.8840  136.7420 N   0  0  0  0  0  2  0  0  0  0  0  0
  191.2660  174.7820  136.0790 C   0  0  0  0  0  0  0  0  0  0  0  0
  190.9790  175.2770  134.5430 S   0  0  0  0  0  0  0  0  0  0  0  0
  192.4350  175.2680  136.7470 N   0  0  0  0  0  2  0  0  0  0  0  0
  193.6900  174.5870  136.8290 C   0  0  0  0  0  0  0  0  0  0  0  0
  193.8560  173.4610  136.2850 O   0  0  0  0  0  0  0  0  0  0  0  0
  194.8160  175.2290  137.5750 C   0  0  2  0  0  3  0  0  0  0  0  0
  196.0500  175.2740  136.6860 C   0  0  0  0  0  1  0  0  0  0  0  0
  195.1040  174.5000  138.8920 C   0  0  2  0  0  3  0  0  0  0  0  0
  193.9260  173.9690  139.4240 O   0  0  0  0  0  1  0  0  0  0  0  0
  196.9510  175.5500  139.9010 O   0  0  0  0  0  0  0  0  0  0  0  0
  195.7400  175.4070  139.9040 C   0  0  0  0  0  0  0  0  0  0  0  0
  194.9100  176.1170  140.9230 C   0  0  0  0  0  2  0  0  0  0  0  0
  195.7280  176.6040  141.9440 O   0  0  0  0  0  1  0  0  0  0  0  0
  1  5  2  0  0  0  0
  1  3  1  0  0  0  0
  2  8  1  0  0  0  0
  2  3  1  0  0  0  0
  4  1  1  0  0  0  0
  5  7  2  0  0  0  0
  6  4  1  0  0  0  0
  6  2  2  0  0  0  0
  7  9  1  0  0  0  0
  8 17  1  0  0  0  0
  9 10  1  1  0  0  0
  9 11  1  0  0  0  0
 11 12  1  0  0  0  0
 12 15  1  0  0  0  0
 14 15  1  0  0  0  0
 15 13  1  0  0  0  0
 15 16  1  0  0  0  0
 18 21  1  6  0  0  0
 19 20  1  0  0  0  0
 19 18  1  0  0  0  0
 20 17  1  1  0  0  0
 20 18  1  0  0  0  0
 21 22  1  0  0  0  0
 22 24  1  0  0  0  0
 23 21  2  0  0  0  0
 25 24  1  0  0  0  0
 26 30  1  6  0  0  0
 26 27  1  0  0  0  0
 28 27  1  0  0  0  0
 29 25  1  1  0  0  0
 29 28  1  0  0  0  0
 30 29  1  0  0  0  0
 31 34  1  0  0  0  0
 31 35  1  0  0  0  0
 33 32  1  0  0  0  0
 33 26  1  0  0  0  0
 34 33  1  0  0  0  0
 35 32  1  0  0  0  0
 36  6  1  0  0  0  0
 37 36  1  0  0  0  0
 38 37  1  0  0  0  0
 39 38  1  0  0  0  0
 39 41  1  0  0  0  0
 40 39  2  0  0  0  0
 41 42  1  0  0  0  0
 42 44  1  0  0  0  0
 43 42  2  0  0  0  0
 44 45  1  6  0  0  0
 44 46  1  0  0  0  0
 46 47  1  1  0  0  0
 46 49  1  0  0  0  0
 48 49  2  0  0  0  0
 49 50  1  0  0  0  0
 50 51  1  0  0  0  0
M  END
>  <MODEL>
6

>  <REMARK>
 VINA RESULT:      -6.0      3.623      7.694
  Name = 
  20 active torsions:
  status: ('A' for Active; 'I' for Inactive)
    1  A    between atoms: C_1  and  N_30
    2  A    between atoms: C_1  and  C_40
    3  A    between atoms: C_4  and  N_8
    4  A    between atoms: C_4  and  N_30
    5  A    between atoms: C_5  and  C_23
    6  A    between atoms: C_5  and  C_44
    7  A    between atoms: C_6  and  C_9
    8  A    between atoms: N_12  and  C_38
    9  A    between atoms: C_13  and  N_18
   10  A    between atoms: C_14  and  C_15
   11  A    between atoms: C_14  and  C_24
   12  A    between atoms: C_15  and  C_17
   13  A    between atoms: C_17  and  C_25
   14  A    between atoms: C_19  and  C_46
   15  A    between atoms: C_19  and  C_49
   16  A    between atoms: C_23  and  O_35
   17  A    between atoms: C_32  and  C_36
   18  A    between atoms: C_32  and  C_38
   19  A    between atoms: C_33  and  O_35
   20  A    between atoms: C_39  and  C_40
                            x       y       z     vdW  Elec       q    Type
                         _______ _______ _______ _____ _____    ______ ____

>  <TORSDO>
F 20

$$$$
=
 OpenBabel11042413533D

 51 54  0  0  1  0  0  0  0  0999 V2000
  192.8920  174.3050  145.4540 C   0  0  0  0  0  0  0  0  0  0  0  0
  190.7120  173.3940  144.6870 C   0  0  0  0  0  0  0  0  0  0  0  0
  192.3320  173.3070  144.2250 S   0  0  0  0  0  0  0  0  0  0  0  0
  191.8380  174.7320  146.2480 C   0  0  0  0  0  3  0  0  0  0  0  0
  194.1360  174.6580  145.6160 C   0  0  0  0  0  0  0  0  0  0  0  0
  190.6100  174.2090  145.8150 C   0  0  0  0  0  0  0  0  0  0  0  0
  195.3820  175.0120  145.7740 C   0  0  0  0  0  3  0  0  0  0  0  0
  189.6910  172.7890  144.0800 C   0  0  0  0  0  3  0  0  0  0  0  0
  196.4820  174.0380  145.5260 C   0  0  2  0  0  3  0  0  0  0  0  0
  197.1310  173.7540  146.7140 F   0  0  0  0  0  0  0  0  0  0  0  0
  197.4770  174.6180  144.5410 C   0  0  0  0  0  2  0  0  0  0  0  0
  196.8560  175.6010  143.7520 O   0  0  0  0  0  0  0  0  0  0  0  0
  197.9410  174.1530  142.1390 C   0  0  0  0  0  1  0  0  0  0  0  0
  195.6230  174.5350  142.1810 F   0  0  0  0  0  0  0  0  0  0  0  0
  196.8320  175.1640  142.4100 C   0  0  0  0  0  0  0  0  0  0  0  0
  196.9340  176.2280  141.5250 F   0  0  0  0  0  0  0  0  0  0  0  0
  189.8680  171.9270  142.8760 C   0  0  0  0  0  2  0  0  0  0  0  0
  190.0520  172.1420  140.4220 C   0  0  1  0  0  3  0  0  0  0  0  0
  190.3970  173.4860  141.0380 C   0  0  0  0  0  2  0  0  0  0  0  0
  189.3140  172.6330  141.6570 C   0  0  2  0  0  3  0  0  0  0  0  0
  189.2230  172.3470  139.1870 C   0  0  0  0  0  0  0  0  0  0  0  0
  189.8380  172.5510  137.9140 N   0  0  0  0  0  2  0  0  0  0  0  0
  187.9650  172.2930  139.2580 O   0  0  0  0  0  0  0  0  0  0  0  0
  191.2830  172.5960  137.7350 C   0  0  0  0  0  2  0  0  0  0  0  0
  191.7430  174.0290  137.5250 C   0  0  0  0  0  2  0  0  0  0  0  0
  195.1970  173.4080  138.1710 C   0  0  2  0  0  3  0  0  0  0  0  0
  195.1250  174.9120  137.9920 C   0  0  0  0  0  2  0  0  0  0  0  0
  193.8100  175.2470  137.6410 O   0  0  0  0  0  0  0  0  0  0  0  0
  192.9970  174.3310  138.3300 C   0  0  2  0  0  3  0  0  0  0  0  0
  193.7780  173.0530  138.5390 C   0  0  0  0  0  2  0  0  0  0  0  0
  196.6530  171.0710  140.5040 C   0  0  0  0  0  2  0  0  0  0  0  0
  197.3170  172.4460  138.6480 C   0  0  0  0  0  2  0  0  0  0  0  0
  196.1280  173.0470  139.2460 N   0  0  0  0  0  0  0  0  0  0  0  0
  195.5330  171.9690  140.0310 C   0  0  0  0  0  2  0  0  0  0  0  0
  197.8090  171.3620  139.5810 C   0  0  0  0  0  2  0  0  0  0  0  0
  189.3160  174.5540  146.4830 C   0  0  0  0  0  2  0  0  0  0  0  0
  189.0050  176.0310  146.3170 C   0  0  0  0  0  2  0  0  0  0  0  0
  187.6540  176.3060  146.7820 N   0  0  0  0  0  2  0  0  0  0  0  0
  186.8620  177.4060  146.3250 C   0  0  0  0  0  0  0  0  0  0  0  0
  185.6490  178.0110  147.2470 S   0  0  0  0  0  0  0  0  0  0  0  0
  187.1150  178.0040  145.0500 N   0  0  0  0  0  2  0  0  0  0  0  0
  186.4620  177.6580  143.8250 C   0  0  0  0  0  0  0  0  0  0  0  0
  185.5730  176.7640  143.7920 O   0  0  0  0  0  0  0  0  0  0  0  0
  186.8490  178.3750  142.5700 C   0  0  2  0  0  3  0  0  0  0  0  0
  185.6010  178.6660  141.7510 C   0  0  0  0  0  1  0  0  0  0  0  0
  187.8740  177.5720  141.7600 C   0  0  2  0  0  3  0  0  0  0  0  0
  187.2490  176.5110  141.0980 O   0  0  0  0  0  1  0  0  0  0  0  0
  188.9420  175.8680  142.9810 O   0  0  0  0  0  0  0  0  0  0  0  0
  188.9740  177.0350  142.6280 C   0  0  0  0  0  0  0  0  0  0  0  0
  190.0930  177.9170  143.0770 C   0  0  0  0  0  2  0  0  0  0  0  0
  191.2440  177.1550  143.2770 O   0  0  0  0  0  1  0  0  0  0  0  0
  1  5  2  0  0  0  0
  1  4  1  0  0  0  0
  2  6  1  0  0  0  0
  3  2  1  0  0  0  0
  3  1  1  0  0  0  0
  5  7  2  0  0  0  0
  6  4  2  0  0  0  0
  6 36  1  0  0  0  0
  8  2  2  0  0  0  0
  9  7  1  0  0  0  0
  9 10  1  1  0  0  0
 11  9  1  0  0  0  0
 12 11  1  0  0  0  0
 13 15  1  0  0  0  0
 14 15  1  0  0  0  0
 15 12  1  0  0  0  0
 16 15  1  0  0  0  0
 17  8  1  0  0  0  0
 18 21  1  6  0  0  0
 18 19  1  0  0  0  0
 18 20  1  0  0  0  0
 19 20  1  0  0  0  0
 20 17  1  1  0  0  0
 21 23  2  0  0  0  0
 22 21  1  0  0  0  0
 24 22  1  0  0  0  0
 25 24  1  0  0  0  0
 26 27  1  1  0  0  0
 26 30  1  0  0  0  0
 26 33  1  0  0  0  0
 28 27  1  0  0  0  0
 28 29  1  0  0  0  0
 29 25  1  6  0  0  0
 29 30  1  0  0  0  0
 32 33  1  0  0  0  0
 32 35  1  0  0  0  0
 33 34  1  0  0  0  0
 34 31  1  0  0  0  0
 35 31  1  0  0  0  0
 37 36  1  0  0  0  0
 37 38  1  0  0  0  0
 39 38  1  0  0  0  0
 39 40  2  0  0  0  0
 41 39  1  0  0  0  0
 42 41  1  0  0  0  0
 43 42  2  0  0  0  0
 44 45  1  6  0  0  0
 44 42  1  0  0  0  0
 46 47  1  1  0  0  0
 46 44  1  0  0  0  0
 46 49  1  0  0  0  0
 49 48  2  0  0  0  0
 49 50  1  0  0  0  0
 50 51  1  0  0  0  0
M  END
>  <MODEL>
7

>  <REMARK>
 VINA RESULT:      -5.9      2.615      7.782
  Name = 
  20 active torsions:
  status: ('A' for Active; 'I' for Inactive)
    1  A    between atoms: C_1  and  N_30
    2  A    between atoms: C_1  and  C_40
    3  A    between atoms: C_4  and  N_8
    4  A    between atoms: C_4  and  N_30
    5  A    between atoms: C_5  and  C_23
    6  A    between atoms: C_5  and  C_44
    7  A    between atoms: C_6  and  C_9
    8  A    between atoms: N_12  and  C_38
    9  A    between atoms: C_13  and  N_18
   10  A    between atoms: C_14  and  C_15
   11  A    between atoms: C_14  and  C_24
   12  A    between atoms: C_15  and  C_17
   13  A    between atoms: C_17  and  C_25
   14  A    between atoms: C_19  and  C_46
   15  A    between atoms: C_19  and  C_49
   16  A    between atoms: C_23  and  O_35
   17  A    between atoms: C_32  and  C_36
   18  A    between atoms: C_32  and  C_38
   19  A    between atoms: C_33  and  O_35
   20  A    between atoms: C_39  and  C_40
                            x       y       z     vdW  Elec       q    Type
                         _______ _______ _______ _____ _____    ______ ____

>  <TORSDO>
F 20

$$$$
=
 OpenBabel11042413533D

 51 54  0  0  1  0  0  0  0  0999 V2000
  191.3780  174.7530  142.7910 C   0  0  0  0  0  0  0  0  0  0  0  0
  193.1480  173.0270  142.5450 C   0  0  0  0  0  0  0  0  0  0  0  0
  191.5890  173.1330  143.1780 S   0  0  0  0  0  0  0  0  0  0  0  0
  192.5120  175.2510  142.1650 C   0  0  0  0  0  2  0  0  0  0  0  0
  190.3160  175.4530  143.0700 C   0  0  0  0  0  0  0  0  0  0  0  0
  193.5060  174.2700  142.0220 C   0  0  0  0  0  0  0  0  0  0  0  0
  189.2510  176.1510  143.3550 C   0  0  0  0  0  3  0  0  0  0  0  0
  193.9200  171.9400  142.5410 C   0  0  0  0  0  2  0  0  0  0  0  0
  187.8950  175.5420  143.2470 C   0  0  2  0  0  3  0  0  0  0  0  0
  187.9280  174.4860  142.3550 F   0  0  0  0  0  0  0  0  0  0  0  0
  186.8990  176.5740  142.7600 C   0  0  0  0  0  2  0  0  0  0  0  0
  186.0600  176.9690  143.8150 O   0  0  0  0  0  0  0  0  0  0  0  0
  184.3120  178.6470  143.7540 C   0  0  0  0  0  1  0  0  0  0  0  0
  186.3950  178.9860  144.7870 F   0  0  0  0  0  0  0  0  0  0  0  0
  185.8080  178.3540  143.7080 C   0  0  0  0  0  0  0  0  0  0  0  0
  186.3590  178.8840  142.5500 F   0  0  0  0  0  0  0  0  0  0  0  0
  193.4760  170.6370  143.1150 C   0  0  0  0  0  2  0  0  0  0  0  0
  195.1610  169.6040  144.5970 C   0  0  1  0  0  3  0  0  0  0  0  0
  193.7930  169.0940  145.0140 C   0  0  0  0  0  2  0  0  0  0  0  0
  193.9510  170.5230  144.5480 C   0  0  2  0  0  3  0  0  0  0  0  0
  195.9930  169.8810  145.8160 C   0  0  0  0  0  0  0  0  0  0  0  0
  197.0420  170.8500  145.7850 N   0  0  0  0  0  2  0  0  0  0  0  0
  195.7370  169.2890  146.9000 O   0  0  0  0  0  0  0  0  0  0  0  0
  197.3850  171.6020  144.5860 C   0  0  0  0  0  2  0  0  0  0  0  0
  197.5790  173.0710  144.9230 C   0  0  0  0  0  2  0  0  0  0  0  0
  194.8720  175.2710  145.6720 C   0  0  2  0  0  3  0  0  0  0  0  0
  195.6470  176.0020  144.5930 C   0  0  0  0  0  2  0  0  0  0  0  0
  196.7920  175.2510  144.2940 O   0  0  0  0  0  0  0  0  0  0  0  0
  196.4050  173.9090  144.4420 C   0  0  2  0  0  3  0  0  0  0  0  0
  195.2900  173.8370  145.4620 C   0  0  0  0  0  2  0  0  0  0  0  0
  191.4660  175.2670  146.8620 C   0  0  0  0  0  2  0  0  0  0  0  0
  193.0560  176.7870  145.8940 C   0  0  0  0  0  2  0  0  0  0  0  0
  193.4260  175.4340  145.4870 N   0  0  0  0  0  0  0  0  0  0  0  0
  192.7380  174.5680  146.4400 C   0  0  0  0  0  2  0  0  0  0  0  0
  191.6860  176.7210  146.5320 C   0  0  0  0  0  2  0  0  0  0  0  0
  194.8400  174.5700  141.4140 C   0  0  0  0  0  2  0  0  0  0  0  0
  194.6890  175.4990  140.2220 C   0  0  0  0  0  2  0  0  0  0  0  0
  194.6240  174.7200  138.9950 N   0  0  0  0  0  2  0  0  0  0  0  0
  193.4250  174.5180  138.2410 C   0  0  0  0  0  0  0  0  0  0  0  0
  193.2950  175.0670  136.7020 S   0  0  0  0  0  0  0  0  0  0  0  0
  192.3110  173.8280  138.8170 N   0  0  0  0  0  2  0  0  0  0  0  0
  192.2060  172.4110  138.9830 C   0  0  0  0  0  0  0  0  0  0  0  0
  193.1380  171.6420  138.6200 O   0  0  0  0  0  0  0  0  0  0  0  0
  190.9660  171.8440  139.5970 C   0  0  2  0  0  3  0  0  0  0  0  0
  191.2740  170.4760  140.1850 C   0  0  0  0  0  1  0  0  0  0  0  0
  189.8210  171.7680  138.5790 C   0  0  2  0  0  3  0  0  0  0  0  0
  190.3230  171.8160  137.2750 O   0  0  0  0  0  1  0  0  0  0  0  0
  188.0220  172.8100  139.6800 O   0  0  0  0  0  0  0  0  0  0  0  0
  188.8310  172.8790  138.7700 C   0  0  0  0  0  0  0  0  0  0  0  0
  188.8130  174.0550  137.8480 C   0  0  0  0  0  2  0  0  0  0  0  0
  187.5250  174.5850  137.7810 O   0  0  0  0  0  1  0  0  0  0  0  0
  1  5  2  0  0  0  0
  1  3  1  0  0  0  0
  2  3  1  0  0  0  0
  4  1  1  0  0  0  0
  5  7  2  0  0  0  0
  6  4  1  0  0  0  0
  6  2  2  0  0  0  0
  8  2  1  0  0  0  0
  8 17  1  0  0  0  0
  9 10  1  6  0  0  0
  9  7  1  0  0  0  0
 11  9  1  0  0  0  0
 11 12  1  0  0  0  0
 15 13  1  0  0  0  0
 15 12  1  0  0  0  0
 15 14  1  0  0  0  0
 16 15  1  0  0  0  0
 18 19  1  0  0  0  0
 18 21  1  1  0  0  0
 20 17  1  6  0  0  0
 20 18  1  0  0  0  0
 20 19  1  0  0  0  0
 21 23  2  0  0  0  0
 22 21  1  0  0  0  0
 24 25  1  0  0  0  0
 24 22  1  0  0  0  0
 26 27  1  6  0  0  0
 28 29  1  0  0  0  0
 28 27  1  0  0  0  0
 29 25  1  1  0  0  0
 29 30  1  0  0  0  0
 30 26  1  0  0  0  0
 32 35  1  0  0  0  0
 33 26  1  0  0  0  0
 33 32  1  0  0  0  0
 33 34  1  0  0  0  0
 34 31  1  0  0  0  0
 35 31  1  0  0  0  0
 36  6  1  0  0  0  0
 37 36  1  0  0  0  0
 38 37  1  0  0  0  0
 39 41  1  0  0  0  0
 39 38  1  0  0  0  0
 40 39  2  0  0  0  0
 41 42  1  0  0  0  0
 42 44  1  0  0  0  0
 43 42  2  0  0  0  0
 44 45  1  6  0  0  0
 46 47  1  6  0  0  0
 46 49  1  0  0  0  0
 46 44  1  0  0  0  0
 49 48  2  0  0  0  0
 50 49  1  0  0  0  0
 51 50  1  0  0  0  0
M  END
>  <MODEL>
8

>  <REMARK>
 VINA RESULT:      -5.8      3.637      8.083
  Name = 
  20 active torsions:
  status: ('A' for Active; 'I' for Inactive)
    1  A    between atoms: C_1  and  N_30
    2  A    between atoms: C_1  and  C_40
    3  A    between atoms: C_4  and  N_8
    4  A    between atoms: C_4  and  N_30
    5  A    between atoms: C_5  and  C_23
    6  A    between atoms: C_5  and  C_44
    7  A    between atoms: C_6  and  C_9
    8  A    between atoms: N_12  and  C_38
    9  A    between atoms: C_13  and  N_18
   10  A    between atoms: C_14  and  C_15
   11  A    between atoms: C_14  and  C_24
   12  A    between atoms: C_15  and  C_17
   13  A    between atoms: C_17  and  C_25
   14  A    between atoms: C_19  and  C_46
   15  A    between atoms: C_19  and  C_49
   16  A    between atoms: C_23  and  O_35
   17  A    between atoms: C_32  and  C_36
   18  A    between atoms: C_32  and  C_38
   19  A    between atoms: C_33  and  O_35
   20  A    between atoms: C_39  and  C_40
                            x       y       z     vdW  Elec       q    Type
                         _______ _______ _______ _____ _____    ______ ____

>  <TORSDO>
F 20

$$$$
=
 OpenBabel11042413533D

 51 54  0  0  1  0  0  0  0  0999 V2000
  194.3140  171.6790  144.5410 C   0  0  0  0  0  0  0  0  0  0  0  0
  192.0430  171.2860  143.6130 C   0  0  0  0  0  0  0  0  0  0  0  0
  192.8140  172.4340  144.5800 S   0  0  0  0  0  0  0  0  0  0  0  0
  194.2520  170.5200  143.7820 C   0  0  0  0  0  3  0  0  0  0  0  0
  195.3760  172.1030  145.1650 C   0  0  0  0  0  0  0  0  0  0  0  0
  192.9680  170.3060  143.2550 C   0  0  0  0  0  0  0  0  0  0  0  0
  196.4370  172.5290  145.7930 C   0  0  0  0  0  3  0  0  0  0  0  0
  190.7610  171.3040  143.2490 C   0  0  0  0  0  3  0  0  0  0  0  0
  196.7330  173.9870  145.8770 C   0  0  2  0  0  3  0  0  0  0  0  0
  195.6850  174.6410  146.4990 F   0  0  0  0  0  0  0  0  0  0  0  0
  196.9210  174.5590  144.4860 C   0  0  0  0  0  2  0  0  0  0  0  0
  196.1530  175.7270  144.3380 O   0  0  0  0  0  0  0  0  0  0  0  0
  196.0130  176.4720  142.0360 C   0  0  0  0  0  1  0  0  0  0  0  0
  195.4040  174.3130  142.7360 F   0  0  0  0  0  0  0  0  0  0  0  0
  195.3970  175.6310  143.1490 C   0  0  0  0  0  0  0  0  0  0  0  0
  194.0770  176.0090  143.3530 F   0  0  0  0  0  0  0  0  0  0  0  0
  189.8220  172.3860  143.6650 C   0  0  0  0  0  2  0  0  0  0  0  0
  188.6880  174.4680  142.9720 C   0  0  1  0  0  3  0  0  0  0  0  0
  188.1780  173.3410  142.0930 C   0  0  0  0  0  2  0  0  0  0  0  0
  189.6270  173.3600  142.5230 C   0  0  2  0  0  3  0  0  0  0  0  0
  188.8890  175.7060  142.1470 C   0  0  0  0  0  0  0  0  0  0  0  0
  189.9020  176.6560  142.4810 N   0  0  0  0  0  2  0  0  0  0  0  0
  188.1900  175.8940  141.1140 O   0  0  0  0  0  0  0  0  0  0  0  0
  190.7750  176.5030  143.6360 C   0  0  0  0  0  2  0  0  0  0  0  0
  190.6410  177.7020  144.5600 C   0  0  0  0  0  2  0  0  0  0  0  0
  187.5650  176.4400  145.8540 C   0  0  2  0  0  3  0  0  0  0  0  0
  188.6240  175.6620  146.6110 C   0  0  0  0  0  2  0  0  0  0  0  0
  189.8790  176.0260  146.1020 O   0  0  0  0  0  0  0  0  0  0  0  0
  189.7600  177.3830  145.7570 C   0  0  2  0  0  3  0  0  0  0  0  0
  188.3170  177.6680  145.4060 C   0  0  0  0  0  2  0  0  0  0  0  0
  185.3800  178.8210  147.4580 C   0  0  0  0  0  2  0  0  0  0  0  0
  185.2550  176.9910  145.9050 C   0  0  0  0  0  2  0  0  0  0  0  0
  186.4440  176.7960  146.7300 N   0  0  0  0  0  0  0  0  0  0  0  0
  186.7060  178.1130  147.3040 C   0  0  0  0  0  2  0  0  0  0  0  0
  184.4390  178.1060  146.5220 C   0  0  0  0  0  2  0  0  0  0  0  0
  192.6340  169.1000  142.4340 C   0  0  0  0  0  2  0  0  0  0  0  0
  193.6000  168.9610  141.2700 C   0  0  0  0  0  2  0  0  0  0  0  0
  193.1010  169.7060  140.1240 N   0  0  0  0  0  2  0  0  0  0  0  0
  193.7880  170.8110  139.5310 C   0  0  0  0  0  0  0  0  0  0  0  0
  195.1220  171.4500  140.2380 S   0  0  0  0  0  0  0  0  0  0  0  0
  193.3240  171.3840  138.3040 N   0  0  0  0  0  2  0  0  0  0  0  0
  192.4350  172.4990  138.1900 C   0  0  0  0  0  0  0  0  0  0  0  0
  191.9880  173.0810  139.2160 O   0  0  0  0  0  0  0  0  0  0  0  0
  192.0370  172.9710  136.8280 C   0  0  2  0  0  3  0  0  0  0  0  0
  191.9110  174.4870  136.8380 C   0  0  0  0  0  1  0  0  0  0  0  0
  190.7360  172.3070  136.3630 C   0  0  2  0  0  3  0  0  0  0  0  0
  190.8120  171.9830  135.0050 O   0  0  0  0  0  1  0  0  0  0  0  0
  189.2620  174.0410  135.7700 O   0  0  0  0  0  0  0  0  0  0  0  0
  189.5450  173.1890  136.5950 C   0  0  0  0  0  0  0  0  0  0  0  0
  188.7180  173.0490  137.8310 C   0  0  0  0  0  2  0  0  0  0  0  0
  188.9240  174.1480  138.6660 O   0  0  0  0  0  1  0  0  0  0  0  0
  1  3  1  0  0  0  0
  1  5  2  0  0  0  0
  2  3  1  0  0  0  0
  4  1  1  0  0  0  0
  5  7  2  0  0  0  0
  6  2  1  0  0  0  0
  6  4  2  0  0  0  0
  7  9  1  0  0  0  0
  8  2  2  0  0  0  0
  8 17  1  0  0  0  0
  9 10  1  6  0  0  0
 11  9  1  0  0  0  0
 12 11  1  0  0  0  0
 13 15  1  0  0  0  0
 14 15  1  0  0  0  0
 15 16  1  0  0  0  0
 15 12  1  0  0  0  0
 18 21  1  6  0  0  0
 19 20  1  0  0  0  0
 19 18  1  0  0  0  0
 20 18  1  0  0  0  0
 20 17  1  1  0  0  0
 21 22  1  0  0  0  0
 22 24  1  0  0  0  0
 23 21  2  0  0  0  0
 24 25  1  0  0  0  0
 26 30  1  1  0  0  0
 26 27  1  0  0  0  0
 26 33  1  0  0  0  0
 28 27  1  0  0  0  0
 29 25  1  6  0  0  0
 29 28  1  0  0  0  0
 30 29  1  0  0  0  0
 32 35  1  0  0  0  0
 32 33  1  0  0  0  0
 33 34  1  0  0  0  0
 34 31  1  0  0  0  0
 35 31  1  0  0  0  0
 36  6  1  0  0  0  0
 37 36  1  0  0  0  0
 38 37  1  0  0  0  0
 39 38  1  0  0  0  0
 39 40  2  0  0  0  0
 41 39  1  0  0  0  0
 42 41  1  0  0  0  0
 42 43  2  0  0  0  0
 44 45  1  1  0  0  0
 44 42  1  0  0  0  0
 46 47  1  6  0  0  0
 46 49  1  0  0  0  0
 46 44  1  0  0  0  0
 48 49  2  0  0  0  0
 49 50  1  0  0  0  0
 50 51  1  0  0  0  0
M  END
>  <MODEL>
9

>  <REMARK>
 VINA RESULT:      -5.8      2.399      4.011
  Name = 
  20 active torsions:
  status: ('A' for Active; 'I' for Inactive)
    1  A    between atoms: C_1  and  N_30
    2  A    between atoms: C_1  and  C_40
    3  A    between atoms: C_4  and  N_8
    4  A    between atoms: C_4  and  N_30
    5  A    between atoms: C_5  and  C_23
    6  A    between atoms: C_5  and  C_44
    7  A    between atoms: C_6  and  C_9
    8  A    between atoms: N_12  and  C_38
    9  A    between atoms: C_13  and  N_18
   10  A    between atoms: C_14  and  C_15
   11  A    between atoms: C_14  and  C_24
   12  A    between atoms: C_15  and  C_17
   13  A    between atoms: C_17  and  C_25
   14  A    between atoms: C_19  and  C_46
   15  A    between atoms: C_19  and  C_49
   16  A    between atoms: C_23  and  O_35
   17  A    between atoms: C_32  and  C_36
   18  A    between atoms: C_32  and  C_38
   19  A    between atoms: C_33  and  O_35
   20  A    between atoms: C_39  and  C_40
                            x       y       z     vdW  Elec       q    Type
                         _______ _______ _______ _____ _____    ______ ____

>  <TORSDO>
F 20

$$$$
