=
 OpenBabel11042418283D

 30 35  0  0  1  0  0  0  0  0999 V2000
  193.1040  175.2990  146.4740 C   0  0  2  0  0  3  0  0  0  0  0  0
  188.6840  174.2720  142.0620 C   0  0  1  0  0  0  0  0  0  0  0  0
  188.2780  174.2310  138.4800 C   0  0  0  0  0  1  0  0  0  0  0  0
  190.4500  176.9820  145.7420 C   0  0  0  0  0  0  0  0  0  0  0  0
  194.3110  174.7120  145.7350 C   0  0  0  0  0  3  0  0  0  0  0  0
  188.6470  176.4710  143.1940 C   0  0  1  0  0  3  0  0  0  0  0  0
  188.0890  177.9720  141.4310 O   0  0  0  0  0  1  0  0  0  0  0  0
  188.2970  177.2020  144.4930 C   0  0  1  0  0  0  0  0  0  0  0  0
  189.5330  177.9280  145.0190 C   0  0  0  0  0  2  0  0  0  0  0  0
  193.7750  173.8480  144.7030 N   0  0  0  0  0  0  0  0  0  0  0  0
  188.6660  174.9340  140.7770 N   0  0  0  0  0  0  0  0  0  0  0  0
  186.0230  178.0600  144.1180 O   0  0  0  0  0  1  0  0  0  0  0  0
  189.8130  174.5360  142.9080 C   0  0  2  0  0  3  0  0  0  0  0  0
  190.1700  173.2710  143.6550 C   0  0  1  0  0  3  0  0  0  0  0  0
  189.6340  171.8540  142.6380 S   0  0  0  0  0  0  0  0  0  0  0  0
  188.4640  175.0290  143.3020 N   0  0  2  0  0  0  0  0  0  0  0  0
  188.1780  172.6930  140.5210 N   0  0  0  0  0  2  0  0  0  0  0  0
  191.2380  176.0680  145.0330 O   0  0  0  0  0  0  0  0  0  0  0  0
  190.4550  176.9880  146.9980 O   0  0  0  0  0  0  0  0  0  0  0  0
  187.5390  177.2200  142.4690 C   0  0  2  0  0  3  0  0  0  0  0  0
  191.6560  173.2240  143.7990 C   0  0  0  0  0  3  0  0  0  0  0  0
  187.3520  178.1070  143.6930 C   0  0  2  0  0  3  0  0  0  0  0  0
  188.2710  172.8410  141.9640 C   0  0  2  0  0  3  0  0  0  0  0  0
  191.8410  174.9300  145.6600 C   0  0  1  0  0  3  0  0  0  0  0  0
  188.3900  173.9860  139.9420 C   0  0  0  0  0  0  0  0  0  0  0  0
  192.3700  173.9730  144.6460 C   0  0  0  0  0  0  0  0  0  0  0  0
  187.5960  176.3760  145.6060 C   0  0  0  0  0  2  0  0  0  0  0  0
  187.2260  177.1610  146.7010 O   0  0  0  0  0  1  0  0  0  0  0  0
  193.2630  176.6810  146.6240 O   0  0  0  0  0  0  0  0  0  0  0  0
  194.5290  176.9590  146.1100 C   0  0  0  0  0  1  0  0  0  0  0  0
  1 29  1  6  0  0  0
  2 11  1  6  0  0  0
  2 13  1  0  0  0  0
  2 16  1  0  0  0  0
  3 25  1  0  0  0  0
  4 19  2  0  0  0  0
  5  1  1  0  0  0  0
  6 16  1  0  0  0  0
  6  8  1  0  0  0  0
  7 20  1  0  0  0  0
  8  9  1  0  0  0  0
  8 27  1  0  0  0  0
  9  4  1  0  0  0  0
 10  5  2  0  0  0  0
 13 16  1  0  0  0  0
 13 14  1  0  0  0  0
 14 21  1  0  0  0  0
 15 14  1  0  0  0  0
 17 23  1  0  0  0  0
 18 24  1  0  0  0  0
 18  4  1  0  0  0  0
 20  6  1  0  0  0  0
 20 22  1  0  0  0  0
 21 26  2  0  0  0  0
 22 12  1  0  0  0  0
 22  8  1  0  0  0  0
 23  2  1  0  0  0  0
 23 15  1  0  0  0  0
 24  1  1  0  0  0  0
 25 17  1  0  0  0  0
 25 11  2  0  0  0  0
 26 10  1  0  0  0  0
 26 24  1  0  0  0  0
 27 28  1  0  0  0  0
 30 29  1  0  0  0  0
M  END
>  <MODEL>
1

>  <REMARK>
 VINA RESULT:      -7.6      0.000      0.000
  Name = 
  2 active torsions:
  status: ('A' for Active; 'I' for Inactive)
    1  A    between atoms: C_1  and  O_16
    2  A    between atoms: C_8  and  C_13
                            x       y       z     vdW  Elec       q    Type
                         _______ _______ _______ _____ _____    ______ ____

>  <TORSDO>
F 2

$$$$
=
 OpenBabel11042418283D

 30 35  0  0  1  0  0  0  0  0999 V2000
  185.8430  176.9960  143.4200 C   0  0  2  0  0  3  0  0  0  0  0  0
  191.8050  175.9180  145.2510 C   0  0  1  0  0  0  0  0  0  0  0  0
  194.9860  177.5940  145.5140 C   0  0  0  0  0  1  0  0  0  0  0  0
  188.1040  175.0720  142.1540 C   0  0  0  0  0  0  0  0  0  0  0  0
  185.7220  178.4550  143.8690 C   0  0  0  0  0  2  0  0  0  0  0  0
  191.1440  175.0590  143.0270 C   0  0  1  0  0  3  0  0  0  0  0  0
  193.0820  175.4560  141.7010 O   0  0  0  0  0  1  0  0  0  0  0  0
  190.3470  173.9790  142.2910 C   0  0  1  0  0  0  0  0  0  0  0  0
  189.3150  174.6390  141.3780 C   0  0  0  0  0  2  0  0  0  0  0  0
  186.7710  178.6690  144.8460 N   0  0  0  0  0  0  0  0  0  0  0  0
  192.9540  176.5650  144.6580 N   0  0  0  0  0  0  0  0  0  0  0  0
  192.0070  172.2410  141.7730 O   0  0  0  0  0  1  0  0  0  0  0  0
  190.5150  176.3510  144.7940 C   0  0  2  0  0  3  0  0  0  0  0  0
  189.5540  176.3380  145.9620 C   0  0  1  0  0  3  0  0  0  0  0  0
  190.5260  176.5910  147.4850 S   0  0  0  0  0  0  0  0  0  0  0  0
  190.9890  174.9750  144.4730 N   0  0  2  0  0  0  0  0  0  0  0  0
  193.1750  176.5050  146.9540 N   0  0  0  0  0  2  0  0  0  0  0  0
  188.1500  176.1990  142.9830 O   0  0  0  0  0  0  0  0  0  0  0  0
  187.0630  174.3710  142.0880 O   0  0  0  0  0  0  0  0  0  0  0  0
  192.4390  174.4870  142.4720 C   0  0  2  0  0  3  0  0  0  0  0  0
  188.6120  177.4850  145.7970 C   0  0  0  0  0  2  0  0  0  0  0  0
  191.6330  173.5690  141.5630 C   0  0  2  0  0  3  0  0  0  0  0  0
  191.9480  175.7590  146.7280 C   0  0  2  0  0  3  0  0  0  0  0  0
  187.1690  176.4440  143.9970 C   0  0  1  0  0  3  0  0  0  0  0  0
  193.6870  176.8900  145.6730 C   0  0  0  0  0  0  0  0  0  0  0  0
  187.6060  177.5320  144.9180 C   0  0  0  0  0  0  0  0  0  0  0  0
  189.7160  172.8520  143.1530 C   0  0  0  0  0  2  0  0  0  0  0  0
  189.1120  171.8600  142.3760 O   0  0  0  0  0  1  0  0  0  0  0  0
  185.7910  176.9210  142.0230 O   0  0  0  0  0  0  0  0  0  0  0  0
  185.4060  178.1940  141.6050 C   0  0  0  0  0  1  0  0  0  0  0  0
  1 29  1  6  0  0  0
  1  5  1  0  0  0  0
  1 24  1  0  0  0  0
  2 11  1  6  0  0  0
  2 23  1  0  0  0  0
  3 25  1  0  0  0  0
  4 18  1  0  0  0  0
  5 10  1  0  0  0  0
  6 16  1  0  0  0  0
  7 20  1  0  0  0  0
  8  6  1  0  0  0  0
  8 27  1  0  0  0  0
  9  4  1  0  0  0  0
  9  8  1  0  0  0  0
 10 26  2  0  0  0  0
 11 25  2  0  0  0  0
 13  2  1  0  0  0  0
 13 14  1  0  0  0  0
 14 15  1  0  0  0  0
 16 13  1  0  0  0  0
 16  2  1  0  0  0  0
 18 24  1  0  0  0  0
 19  4  2  0  0  0  0
 20  6  1  0  0  0  0
 21 14  1  0  0  0  0
 22 12  1  0  0  0  0
 22  8  1  0  0  0  0
 22 20  1  0  0  0  0
 23 17  1  0  0  0  0
 23 15  1  0  0  0  0
 24 26  1  0  0  0  0
 25 17  1  0  0  0  0
 26 21  1  0  0  0  0
 28 27  1  0  0  0  0
 30 29  1  0  0  0  0
M  END
>  <MODEL>
2

>  <REMARK>
 VINA RESULT:      -7.1      2.878      6.647
  Name = 
  2 active torsions:
  status: ('A' for Active; 'I' for Inactive)
    1  A    between atoms: C_1  and  O_16
    2  A    between atoms: C_8  and  C_13
                            x       y       z     vdW  Elec       q    Type
                         _______ _______ _______ _____ _____    ______ ____

>  <TORSDO>
F 2

$$$$
=
 OpenBabel11042418283D

 30 35  0  0  1  0  0  0  0  0999 V2000
  187.2220  176.2700  143.6390 C   0  0  2  0  0  3  0  0  0  0  0  0
  193.4460  175.1640  143.9500 C   0  0  1  0  0  0  0  0  0  0  0  0
  196.6010  176.8080  143.3690 C   0  0  0  0  0  1  0  0  0  0  0  0
  189.0840  174.2900  141.8970 C   0  0  0  0  0  0  0  0  0  0  0  0
  187.2250  177.7410  144.0670 C   0  0  0  0  0  2  0  0  0  0  0  0
  192.2450  174.2620  141.9840 C   0  0  1  0  0  3  0  0  0  0  0  0
  193.7930  174.6050  140.2070 O   0  0  0  0  0  1  0  0  0  0  0  0
  191.2830  173.1750  141.4980 C   0  0  1  0  0  0  0  0  0  0  0  0
  190.0600  173.8250  140.8550 C   0  0  0  0  0  2  0  0  0  0  0  0
  188.4860  177.9640  144.7450 N   0  0  0  0  0  0  0  0  0  0  0  0
  194.4140  175.7840  143.0730 N   0  0  0  0  0  0  0  0  0  0  0  0
  192.7510  171.4060  140.6260 O   0  0  0  0  0  1  0  0  0  0  0  0
  192.0850  175.6010  143.8190 C   0  0  2  0  0  3  0  0  0  0  0  0
  191.4460  175.6270  145.1900 C   0  0  1  0  0  3  0  0  0  0  0  0
  192.7690  175.9030  146.4150 S   0  0  0  0  0  0  0  0  0  0  0  0
  192.4560  174.2130  143.4250 N   0  0  2  0  0  0  0  0  0  0  0  0
  195.2020  175.7730  145.2420 N   0  0  0  0  0  2  0  0  0  0  0  0
  189.3420  175.4360  142.6600 O   0  0  0  0  0  0  0  0  0  0  0  0
  188.0550  173.6010  142.1120 O   0  0  0  0  0  0  0  0  0  0  0  0
  193.3570  173.6620  141.1380 C   0  0  2  0  0  3  0  0  0  0  0  0
  190.5000  176.7810  145.2370 C   0  0  0  0  0  2  0  0  0  0  0  0
  192.3440  172.7330  140.4830 C   0  0  2  0  0  3  0  0  0  0  0  0
  193.9520  175.0370  145.3480 C   0  0  2  0  0  3  0  0  0  0  0  0
  188.6460  175.7160  143.8800 C   0  0  1  0  0  3  0  0  0  0  0  0
  195.3790  176.1220  143.8640 C   0  0  0  0  0  0  0  0  0  0  0  0
  189.3060  176.8190  144.6350 C   0  0  0  0  0  0  0  0  0  0  0  0
  190.8820  172.0750  142.5180 C   0  0  0  0  0  2  0  0  0  0  0  0
  190.1050  171.0670  141.9390 O   0  0  0  0  0  1  0  0  0  0  0  0
  186.8220  176.1630  142.3020 O   0  0  0  0  0  0  0  0  0  0  0  0
  186.0610  177.3060  142.0580 C   0  0  0  0  0  1  0  0  0  0  0  0
  1 29  1  6  0  0  0
  1 24  1  0  0  0  0
  1  5  1  0  0  0  0
  2 11  1  6  0  0  0
  2 23  1  0  0  0  0
  3 25  1  0  0  0  0
  4 19  2  0  0  0  0
  4 18  1  0  0  0  0
  5 10  1  0  0  0  0
  6 16  1  0  0  0  0
  7 20  1  0  0  0  0
  8  6  1  0  0  0  0
  8 27  1  0  0  0  0
  9  8  1  0  0  0  0
  9  4  1  0  0  0  0
 11 25  2  0  0  0  0
 13  2  1  0  0  0  0
 13 14  1  0  0  0  0
 14 21  1  0  0  0  0
 14 15  1  0  0  0  0
 16 13  1  0  0  0  0
 16  2  1  0  0  0  0
 17 23  1  0  0  0  0
 18 24  1  0  0  0  0
 20  6  1  0  0  0  0
 22 12  1  0  0  0  0
 22 20  1  0  0  0  0
 22  8  1  0  0  0  0
 23 15  1  0  0  0  0
 24 26  1  0  0  0  0
 25 17  1  0  0  0  0
 26 10  2  0  0  0  0
 26 21  1  0  0  0  0
 28 27  1  0  0  0  0
 30 29  1  0  0  0  0
M  END
>  <MODEL>
3

>  <REMARK>
 VINA RESULT:      -6.5      3.087      6.618
  Name = 
  2 active torsions:
  status: ('A' for Active; 'I' for Inactive)
    1  A    between atoms: C_1  and  O_16
    2  A    between atoms: C_8  and  C_13
                            x       y       z     vdW  Elec       q    Type
                         _______ _______ _______ _____ _____    ______ ____

>  <TORSDO>
F 2

$$$$
=
 OpenBabel11042418283D

 30 35  0  0  1  0  0  0  0  0999 V2000
  189.8760  173.1140  139.8350 C   0  0  2  0  0  3  0  0  0  0  0  0
  191.0370  176.1600  145.2610 C   0  0  1  0  0  0  0  0  0  0  0  0
  191.5440  175.5080  148.7690 C   0  0  0  0  0  1  0  0  0  0  0  0
  188.0360  175.1650  141.5180 C   0  0  0  0  0  0  0  0  0  0  0  0
  190.6890  171.8440  140.1030 C   0  0  0  0  0  2  0  0  0  0  0  0
  188.7070  176.2030  144.4280 C   0  0  1  0  0  3  0  0  0  0  0  0
  187.4220  175.9980  146.4230 O   0  0  0  0  0  1  0  0  0  0  0  0
  187.7660  176.8050  143.3830 C   0  0  1  0  0  0  0  0  0  0  0  0
  187.1100  175.6830  142.5810 C   0  0  0  0  0  2  0  0  0  0  0  0
  191.6280  172.1770  141.1550 N   0  0  0  0  0  0  0  0  0  0  0  0
  190.5670  175.7060  146.5500 N   0  0  0  0  0  0  0  0  0  0  0  0
  186.7290  178.7200  144.5250 O   0  0  0  0  0  1  0  0  0  0  0  0
  190.7780  175.3000  144.1410 C   0  0  2  0  0  3  0  0  0  0  0  0
  191.9550  175.3640  143.1940 C   0  0  1  0  0  3  0  0  0  0  0  0
  193.4360  175.7830  144.1740 S   0  0  0  0  0  0  0  0  0  0  0  0
  190.0910  176.6180  144.2340 N   0  0  2  0  0  0  0  0  0  0  0  0
  192.7550  176.4210  146.7110 N   0  0  0  0  0  2  0  0  0  0  0  0
  189.1230  174.3470  141.8510 O   0  0  0  0  0  0  0  0  0  0  0  0
  187.8520  175.5250  140.3280 O   0  0  0  0  0  0  0  0  0  0  0  0
  187.9550  176.9300  145.5320 C   0  0  2  0  0  3  0  0  0  0  0  0
  192.1420  174.0080  142.5960 C   0  0  0  0  0  2  0  0  0  0  0  0
  186.8870  177.3330  144.5230 C   0  0  2  0  0  3  0  0  0  0  0  0
  192.4140  176.7310  145.3320 C   0  0  2  0  0  3  0  0  0  0  0  0
  190.2180  174.1260  140.9550 C   0  0  1  0  0  3  0  0  0  0  0  0
  191.5890  175.8630  147.3270 C   0  0  0  0  0  0  0  0  0  0  0  0
  191.3610  173.4710  141.6540 C   0  0  0  0  0  0  0  0  0  0  0  0
  188.3440  177.9120  142.4600 C   0  0  0  0  0  2  0  0  0  0  0  0
  187.3740  178.4690  141.6220 O   0  0  0  0  0  1  0  0  0  0  0  0
  188.5110  172.8050  139.7880 O   0  0  0  0  0  0  0  0  0  0  0  0
  188.2170  172.6720  138.4310 C   0  0  0  0  0  1  0  0  0  0  0  0
  1 29  1  1  0  0  0
  1  5  1  0  0  0  0
  1 24  1  0  0  0  0
  2 23  1  0  0  0  0
  2 11  1  1  0  0  0
  4 18  1  0  0  0  0
  4  9  1  0  0  0  0
  5 10  1  0  0  0  0
  6 20  1  0  0  0  0
  8  6  1  0  0  0  0
  8 22  1  0  0  0  0
  9  8  1  0  0  0  0
 10 26  2  0  0  0  0
 11 25  2  0  0  0  0
 13 16  1  0  0  0  0
 13  2  1  0  0  0  0
 14 13  1  0  0  0  0
 14 15  1  0  0  0  0
 15 23  1  0  0  0  0
 16  6  1  0  0  0  0
 16  2  1  0  0  0  0
 17 25  1  0  0  0  0
 19  4  2  0  0  0  0
 20  7  1  0  0  0  0
 21 14  1  0  0  0  0
 22 12  1  0  0  0  0
 22 20  1  0  0  0  0
 23 17  1  0  0  0  0
 24 26  1  0  0  0  0
 24 18  1  0  0  0  0
 25  3  1  0  0  0  0
 26 21  1  0  0  0  0
 27  8  1  0  0  0  0
 28 27  1  0  0  0  0
 30 29  1  0  0  0  0
M  END
>  <MODEL>
4

>  <REMARK>
 VINA RESULT:      -6.5      2.580      5.718
  Name = 
  2 active torsions:
  status: ('A' for Active; 'I' for Inactive)
    1  A    between atoms: C_1  and  O_16
    2  A    between atoms: C_8  and  C_13
                            x       y       z     vdW  Elec       q    Type
                         _______ _______ _______ _____ _____    ______ ____

>  <TORSDO>
F 2

$$$$
=
 OpenBabel11042418283D

 30 35  0  0  1  0  0  0  0  0999 V2000
  187.6350  177.3360  144.4700 C   0  0  2  0  0  3  0  0  0  0  0  0
  190.8990  172.7820  141.5250 C   0  0  1  0  0  0  0  0  0  0  0  0
  190.8160  169.2260  140.9430 C   0  0  0  0  0  1  0  0  0  0  0  0
  190.5750  176.1480  145.0710 C   0  0  0  0  0  0  0  0  0  0  0  0
  186.2210  176.7930  144.2420 C   0  0  0  0  0  3  0  0  0  0  0  0
  191.7830  173.5680  143.6980 C   0  0  1  0  0  3  0  0  0  0  0  0
  192.5670  171.5610  144.7140 O   0  0  0  0  0  1  0  0  0  0  0  0
  192.5100  174.7100  144.4120 C   0  0  1  0  0  0  0  0  0  0  0  0
  191.6480  175.2200  145.5650 C   0  0  0  0  0  2  0  0  0  0  0  0
  186.3160  175.8610  143.1370 N   0  0  0  0  0  0  0  0  0  0  0  0
  190.9660  171.4160  141.9920 N   0  0  0  0  0  0  0  0  0  0  0  0
  194.8720  174.0280  144.4090 O   0  0  0  0  0  1  0  0  0  0  0  0
  190.0300  173.6680  142.2470 C   0  0  2  0  0  3  0  0  0  0  0  0
  189.3820  174.6220  141.2690 C   0  0  1  0  0  3  0  0  0  0  0  0
  189.3030  173.7880  139.6480 S   0  0  0  0  0  0  0  0  0  0  0  0
  191.5050  173.8740  142.3010 N   0  0  2  0  0  0  0  0  0  0  0  0
  190.6720  171.4580  139.7030 N   0  0  0  0  0  2  0  0  0  0  0  0
  189.4520  175.6500  144.3990 O   0  0  0  0  0  0  0  0  0  0  0  0
  190.7300  177.3860  145.2210 O   0  0  0  0  0  0  0  0  0  0  0  0
  192.9720  172.6520  143.9440 C   0  0  2  0  0  3  0  0  0  0  0  0
  187.9910  174.8910  141.7390 C   0  0  0  0  0  3  0  0  0  0  0  0
  193.5870  173.7110  144.8510 C   0  0  2  0  0  3  0  0  0  0  0  0
  190.8140  172.8660  140.0370 C   0  0  2  0  0  3  0  0  0  0  0  0
  188.6000  176.4860  143.6090 C   0  0  1  0  0  3  0  0  0  0  0  0
  190.8160  170.7120  140.9180 C   0  0  0  0  0  0  0  0  0  0  0  0
  187.6680  175.6720  142.7760 C   0  0  0  0  0  0  0  0  0  0  0  0
  193.0410  175.8730  143.5310 C   0  0  0  0  0  2  0  0  0  0  0  0
  193.8020  176.7910  144.2610 O   0  0  0  0  0  1  0  0  0  0  0  0
  187.9490  177.2910  145.8330 O   0  0  0  0  0  0  0  0  0  0  0  0
  186.7710  176.8920  146.4640 C   0  0  0  0  0  1  0  0  0  0  0  0
  1 29  1  1  0  0  0
  2 11  1  1  0  0  0
  2 13  1  0  0  0  0
  2 16  1  0  0  0  0
  4 19  2  0  0  0  0
  4  9  1  0  0  0  0
  5  1  1  0  0  0  0
  6 20  1  0  0  0  0
  6  8  1  0  0  0  0
  8 22  1  0  0  0  0
  8  9  1  0  0  0  0
 10  5  2  0  0  0  0
 12 22  1  0  0  0  0
 13 16  1  0  0  0  0
 14 21  1  0  0  0  0
 14 13  1  0  0  0  0
 15 23  1  0  0  0  0
 15 14  1  0  0  0  0
 16  6  1  0  0  0  0
 17 23  1  0  0  0  0
 17 25  1  0  0  0  0
 18  4  1  0  0  0  0
 20  7  1  0  0  0  0
 20 22  1  0  0  0  0
 21 26  2  0  0  0  0
 23  2  1  0  0  0  0
 24 18  1  0  0  0  0
 24  1  1  0  0  0  0
 25  3  1  0  0  0  0
 25 11  2  0  0  0  0
 26 10  1  0  0  0  0
 26 24  1  0  0  0  0
 27 28  1  0  0  0  0
 27  8  1  0  0  0  0
 29 30  1  0  0  0  0
M  END
>  <MODEL>
5

>  <REMARK>
 VINA RESULT:      -6.2      2.350      5.438
  Name = 
  2 active torsions:
  status: ('A' for Active; 'I' for Inactive)
    1  A    between atoms: C_1  and  O_16
    2  A    between atoms: C_8  and  C_13
                            x       y       z     vdW  Elec       q    Type
                         _______ _______ _______ _____ _____    ______ ____

>  <TORSDO>
F 2

$$$$
=
 OpenBabel11042418283D

 30 35  0  0  1  0  0  0  0  0999 V2000
  195.9010  175.1680  144.4930 C   0  0  2  0  0  3  0  0  0  0  0  0
  190.0940  173.6290  142.4990 C   0  0  1  0  0  0  0  0  0  0  0  0
  188.1910  173.2900  139.4560 C   0  0  0  0  0  1  0  0  0  0  0  0
  193.0820  176.6870  144.8940 C   0  0  0  0  0  0  0  0  0  0  0  0
  196.7100  174.5700  143.3370 C   0  0  0  0  0  2  0  0  0  0  0  0
  190.3980  175.9080  143.4130 C   0  0  1  0  0  3  0  0  0  0  0  0
  189.0350  177.2430  141.9870 O   0  0  0  0  0  1  0  0  0  0  0  0
  190.5910  176.7250  144.6920 C   0  0  1  0  0  0  0  0  0  0  0  0
  191.8810  177.5370  144.5890 C   0  0  0  0  0  2  0  0  0  0  0  0
  195.8420  173.6080  142.6890 N   0  0  0  0  0  0  0  0  0  0  0  0
  189.4810  174.1870  141.3150 N   0  0  0  0  0  0  0  0  0  0  0  0
  188.3250  177.4650  145.2940 O   0  0  0  0  0  1  0  0  0  0  0  0
  191.4570  174.0020  142.7550 C   0  0  2  0  0  3  0  0  0  0  0  0
  192.1860  172.8140  143.3420 C   0  0  1  0  0  3  0  0  0  0  0  0
  191.3630  171.3020  142.7380 S   0  0  0  0  0  0  0  0  0  0  0  0
  190.3780  174.4740  143.6680 N   0  0  2  0  0  0  0  0  0  0  0  0
  189.0840  171.9160  141.4190 N   0  0  0  0  0  2  0  0  0  0  0  0
  193.5490  175.7490  143.9640 O   0  0  0  0  0  0  0  0  0  0  0  0
  193.6260  176.7920  146.0210 O   0  0  0  0  0  0  0  0  0  0  0  0
  189.0380  176.5550  143.2000 C   0  0  2  0  0  3  0  0  0  0  0  0
  193.5890  172.8340  142.8290 C   0  0  0  0  0  2  0  0  0  0  0  0
  189.3350  177.5290  144.3330 C   0  0  2  0  0  3  0  0  0  0  0  0
  189.7780  172.1810  142.6690 C   0  0  2  0  0  3  0  0  0  0  0  0
  194.4390  174.6880  144.3290 C   0  0  1  0  0  3  0  0  0  0  0  0
  188.9380  173.1660  140.7350 C   0  0  0  0  0  0  0  0  0  0  0  0
  194.5440  173.6750  143.2400 C   0  0  0  0  0  0  0  0  0  0  0  0
  190.4960  175.9640  146.0420 C   0  0  0  0  0  2  0  0  0  0  0  0
  190.5600  176.8210  147.1450 O   0  0  0  0  0  1  0  0  0  0  0  0
  196.0150  176.5630  144.4830 O   0  0  0  0  0  0  0  0  0  0  0  0
  196.8170  176.8540  143.3810 C   0  0  0  0  0  1  0  0  0  0  0  0
  1 29  1  6  0  0  0
  2 11  1  6  0  0  0
  2 23  1  0  0  0  0
  2 13  1  0  0  0  0
  2 16  1  0  0  0  0
  3 25  1  0  0  0  0
  4 19  2  0  0  0  0
  5  1  1  0  0  0  0
  6 16  1  0  0  0  0
  6  8  1  0  0  0  0
  7 20  1  0  0  0  0
  8 27  1  0  0  0  0
  9  8  1  0  0  0  0
  9  4  1  0  0  0  0
 10 26  2  0  0  0  0
 10  5  1  0  0  0  0
 13 14  1  0  0  0  0
 13 16  1  0  0  0  0
 15 14  1  0  0  0  0
 17 23  1  0  0  0  0
 18 24  1  0  0  0  0
 18  4  1  0  0  0  0
 20  6  1  0  0  0  0
 20 22  1  0  0  0  0
 21 26  1  0  0  0  0
 21 14  1  0  0  0  0
 22  8  1  0  0  0  0
 22 12  1  0  0  0  0
 23 15  1  0  0  0  0
 24  1  1  0  0  0  0
 25 11  2  0  0  0  0
 25 17  1  0  0  0  0
 26 24  1  0  0  0  0
 27 28  1  0  0  0  0
 30 29  1  0  0  0  0
M  END
>  <MODEL>
6

>  <REMARK>
 VINA RESULT:      -6.2      1.889      2.460
  Name = 
  2 active torsions:
  status: ('A' for Active; 'I' for Inactive)
    1  A    between atoms: C_1  and  O_16
    2  A    between atoms: C_8  and  C_13
                            x       y       z     vdW  Elec       q    Type
                         _______ _______ _______ _____ _____    ______ ____

>  <TORSDO>
F 2

$$$$
=
 OpenBabel11042418283D

 30 35  0  0  1  0  0  0  0  0999 V2000
  195.6200  174.0180  144.3610 C   0  0  2  0  0  3  0  0  0  0  0  0
  189.7900  176.0880  143.0220 C   0  0  1  0  0  0  0  0  0  0  0  0
  186.5950  176.6320  144.6000 C   0  0  0  0  0  1  0  0  0  0  0  0
  193.3330  172.7490  142.4700 C   0  0  0  0  0  0  0  0  0  0  0  0
  195.7350  174.5570  145.7900 C   0  0  0  0  0  3  0  0  0  0  0  0
  190.3470  173.7790  142.3270 C   0  0  1  0  0  3  0  0  0  0  0  0
  188.3310  172.5890  142.7620 O   0  0  0  0  0  1  0  0  0  0  0  0
  191.1240  172.9320  141.3170 C   0  0  1  0  0  0  0  0  0  0  0  0
  192.0900  172.0120  142.0600 C   0  0  0  0  0  2  0  0  0  0  0  0
  194.7380  175.6000  145.9140 N   0  0  0  0  0  0  0  0  0  0  0  0
  188.5980  175.6020  143.6790 N   0  0  0  0  0  0  0  0  0  0  0  0
  189.4740  172.3880  139.5770 O   0  0  0  0  0  1  0  0  0  0  0  0
  191.0450  175.5930  143.5150 C   0  0  2  0  0  3  0  0  0  0  0  0
  192.0680  176.7050  143.4480 C   0  0  1  0  0  3  0  0  0  0  0  0
  191.1760  178.2910  143.5770 S   0  0  0  0  0  0  0  0  0  0  0  0
  190.5820  175.2070  142.1520 N   0  0  2  0  0  0  0  0  0  0  0  0
  188.5040  177.8970  143.4620 N   0  0  0  0  0  2  0  0  0  0  0  0
  193.3090  173.6530  143.5390 O   0  0  0  0  0  0  0  0  0  0  0  0
  194.3840  172.5820  141.8000 O   0  0  0  0  0  0  0  0  0  0  0  0
  189.0350  173.2580  141.7620 C   0  0  2  0  0  3  0  0  0  0  0  0
  192.9760  176.5670  144.6260 C   0  0  0  0  0  3  0  0  0  0  0  0
  189.8090  172.2480  140.9250 C   0  0  2  0  0  3  0  0  0  0  0  0
  189.7320  177.5560  142.7630 C   0  0  2  0  0  3  0  0  0  0  0  0
  194.3400  174.6270  143.7410 C   0  0  1  0  0  3  0  0  0  0  0  0
  187.9150  176.6730  143.9180 C   0  0  0  0  0  0  0  0  0  0  0  0
  193.9310  175.6410  144.7550 C   0  0  0  0  0  0  0  0  0  0  0  0
  191.8240  173.6820  140.1510 C   0  0  0  0  0  2  0  0  0  0  0  0
  192.3890  172.8090  139.2170 O   0  0  0  0  0  1  0  0  0  0  0  0
  195.5970  172.6190  144.3790 O   0  0  0  0  0  0  0  0  0  0  0  0
  196.2420  172.2610  145.5620 C   0  0  0  0  0  1  0  0  0  0  0  0
  1 29  1  1  0  0  0
  1  5  1  0  0  0  0
  2 13  1  0  0  0  0
  2 11  1  1  0  0  0
  4 18  1  0  0  0  0
  5 10  2  0  0  0  0
  8  9  1  0  0  0  0
  8  6  1  0  0  0  0
  9  4  1  0  0  0  0
 11 25  2  0  0  0  0
 12 22  1  0  0  0  0
 14 13  1  0  0  0  0
 14 15  1  0  0  0  0
 14 21  1  0  0  0  0
 16  6  1  0  0  0  0
 16  2  1  0  0  0  0
 16 13  1  0  0  0  0
 17 25  1  0  0  0  0
 18 24  1  0  0  0  0
 19  4  2  0  0  0  0
 20  6  1  0  0  0  0
 20  7  1  0  0  0  0
 21 26  2  0  0  0  0
 22  8  1  0  0  0  0
 22 20  1  0  0  0  0
 23  2  1  0  0  0  0
 23 17  1  0  0  0  0
 23 15  1  0  0  0  0
 24  1  1  0  0  0  0
 24 26  1  0  0  0  0
 25  3  1  0  0  0  0
 26 10  1  0  0  0  0
 27  8  1  0  0  0  0
 28 27  1  0  0  0  0
 29 30  1  0  0  0  0
M  END
>  <MODEL>
7

>  <REMARK>
 VINA RESULT:      -6.0      3.279      5.297
  Name = 
  2 active torsions:
  status: ('A' for Active; 'I' for Inactive)
    1  A    between atoms: C_1  and  O_16
    2  A    between atoms: C_8  and  C_13
                            x       y       z     vdW  Elec       q    Type
                         _______ _______ _______ _____ _____    ______ ____

>  <TORSDO>
F 2

$$$$
=
 OpenBabel11042418283D

 30 35  0  0  1  0  0  0  0  0999 V2000
  185.8850  178.4940  146.5770 C   0  0  2  0  0  3  0  0  0  0  0  0
  188.5020  175.1280  141.8990 C   0  0  1  0  0  0  0  0  0  0  0  0
  187.8160  172.2860  139.7900 C   0  0  0  0  0  1  0  0  0  0  0  0
  188.4900  176.5890  146.5760 C   0  0  0  0  0  0  0  0  0  0  0  0
  184.4220  178.4090  146.1330 C   0  0  0  0  0  3  0  0  0  0  0  0
  189.3180  174.6830  144.1920 C   0  0  1  0  0  3  0  0  0  0  0  0
  189.6240  172.3210  144.2020 O   0  0  0  0  0  1  0  0  0  0  0  0
  190.1770  175.2210  145.3380 C   0  0  1  0  0  0  0  0  0  0  0  0
  189.3250  175.3400  146.6010 C   0  0  0  0  0  2  0  0  0  0  0  0
  184.4410  178.0570  144.7280 N   0  0  0  0  0  0  0  0  0  0  0  0
  188.2740  173.7140  141.7060 N   0  0  0  0  0  0  0  0  0  0  0  0
  192.3630  174.1410  145.0250 O   0  0  0  0  0  1  0  0  0  0  0  0
  187.7510  175.7650  142.9430 C   0  0  2  0  0  3  0  0  0  0  0  0
  187.3800  177.1610  142.4950 C   0  0  1  0  0  3  0  0  0  0  0  0
  187.2930  177.1570  140.6730 S   0  0  0  0  0  0  0  0  0  0  0  0
  189.2280  175.6190  143.0790 N   0  0  2  0  0  0  0  0  0  0  0  0
  188.1980  174.8120  139.6780 N   0  0  0  0  0  2  0  0  0  0  0  0
  187.3590  176.6770  145.7550 O   0  0  0  0  0  0  0  0  0  0  0  0
  188.8570  177.5750  147.2630 O   0  0  0  0  0  0  0  0  0  0  0  0
  190.2910  173.5290  144.0000 C   0  0  2  0  0  3  0  0  0  0  0  0
  186.0260  177.4770  143.0400 C   0  0  0  0  0  3  0  0  0  0  0  0
  191.0070  173.9330  145.2820 C   0  0  2  0  0  3  0  0  0  0  0  0
  188.5680  175.8690  140.6050 C   0  0  2  0  0  3  0  0  0  0  0  0
  186.7500  177.9300  145.4240 C   0  0  1  0  0  3  0  0  0  0  0  0
  188.0930  173.5980  140.4310 C   0  0  0  0  0  0  0  0  0  0  0  0
  185.7620  177.7730  144.3170 C   0  0  0  0  0  0  0  0  0  0  0  0
  190.9900  176.5160  145.0690 C   0  0  0  0  0  2  0  0  0  0  0  0
  191.9040  176.7950  146.0890 O   0  0  0  0  0  1  0  0  0  0  0  0
  186.0620  177.7940  147.7750 O   0  0  0  0  0  0  0  0  0  0  0  0
  186.3090  178.7740  148.7360 C   0  0  0  0  0  1  0  0  0  0  0  0
  1 29  1  1  0  0  0
  2 11  1  6  0  0  0
  2 13  1  0  0  0  0
  2 16  1  0  0  0  0
  3 25  1  0  0  0  0
  4  9  1  0  0  0  0
  4 19  2  0  0  0  0
  5  1  1  0  0  0  0
  6  8  1  0  0  0  0
  8  9  1  0  0  0  0
 10  5  2  0  0  0  0
 12 22  1  0  0  0  0
 13 16  1  0  0  0  0
 14 13  1  0  0  0  0
 14 21  1  0  0  0  0
 15 14  1  0  0  0  0
 16  6  1  0  0  0  0
 17 25  1  0  0  0  0
 17 23  1  0  0  0  0
 18  4  1  0  0  0  0
 20  6  1  0  0  0  0
 20  7  1  0  0  0  0
 20 22  1  0  0  0  0
 21 26  2  0  0  0  0
 22  8  1  0  0  0  0
 23 15  1  0  0  0  0
 23  2  1  0  0  0  0
 24 18  1  0  0  0  0
 24  1  1  0  0  0  0
 25 11  2  0  0  0  0
 26 10  1  0  0  0  0
 26 24  1  0  0  0  0
 27  8  1  0  0  0  0
 27 28  1  0  0  0  0
 29 30  1  0  0  0  0
M  END
>  <MODEL>
8

>  <REMARK>
 VINA RESULT:      -6.0      2.410      5.428
  Name = 
  2 active torsions:
  status: ('A' for Active; 'I' for Inactive)
    1  A    between atoms: C_1  and  O_16
    2  A    between atoms: C_8  and  C_13
                            x       y       z     vdW  Elec       q    Type
                         _______ _______ _______ _____ _____    ______ ____

>  <TORSDO>
F 2

$$$$
=
 OpenBabel11042418283D

 30 35  0  0  1  0  0  0  0  0999 V2000
  190.3640  172.9260  139.3350 C   0  0  2  0  0  3  0  0  0  0  0  0
  194.4560  175.1290  143.6330 C   0  0  1  0  0  0  0  0  0  0  0  0
  196.8120  173.9550  146.0950 C   0  0  0  0  0  1  0  0  0  0  0  0
  189.8460  174.5470  142.0780 C   0  0  0  0  0  0  0  0  0  0  0  0
  191.1460  171.6890  138.8830 C   0  0  0  0  0  2  0  0  0  0  0  0
  192.0610  175.1450  144.2550 C   0  0  1  0  0  3  0  0  0  0  0  0
  192.1010  174.5320  146.5560 O   0  0  0  0  0  1  0  0  0  0  0  0
  190.7170  175.8410  144.0300 C   0  0  1  0  0  0  0  0  0  0  0  0
  189.6880  174.8210  143.5470 C   0  0  0  0  0  2  0  0  0  0  0  0
  192.5220  171.9110  139.2760 N   0  0  0  0  0  0  0  0  0  0  0  0
  194.7700  174.4410  144.8650 N   0  0  0  0  0  0  0  0  0  0  0  0
  190.5580  177.4710  145.8640 O   0  0  0  0  0  1  0  0  0  0  0  0
  193.5880  174.4450  142.7160 C   0  0  2  0  0  3  0  0  0  0  0  0
  194.0370  174.7430  141.3040 C   0  0  1  0  0  3  0  0  0  0  0  0
  195.8260  175.0990  141.3520 S   0  0  0  0  0  0  0  0  0  0  0  0
  193.1130  175.6810  143.4000 N   0  0  2  0  0  0  0  0  0  0  0  0
  196.6980  175.2700  143.9050 N   0  0  0  0  0  2  0  0  0  0  0  0
  190.9060  173.7630  141.6060 O   0  0  0  0  0  0  0  0  0  0  0  0
  189.0410  175.0810  141.2740 O   0  0  0  0  0  0  0  0  0  0  0  0
  192.0760  175.6300  145.6960 C   0  0  2  0  0  3  0  0  0  0  0  0
  193.8140  173.5170  140.4800 C   0  0  0  0  0  2  0  0  0  0  0  0
  190.6410  176.1170  145.5360 C   0  0  2  0  0  3  0  0  0  0  0  0
  195.6560  175.7750  143.0260 C   0  0  2  0  0  3  0  0  0  0  0  0
  191.3060  173.7650  140.2320 C   0  0  1  0  0  3  0  0  0  0  0  0
  196.0560  174.5400  144.9580 C   0  0  0  0  0  0  0  0  0  0  0  0
  192.6220  173.0860  140.0530 C   0  0  0  0  0  0  0  0  0  0  0  0
  190.7180  177.1200  143.1480 C   0  0  0  0  0  2  0  0  0  0  0  0
  189.4650  177.7380  143.1010 O   0  0  0  0  0  1  0  0  0  0  0  0
  189.1950  172.5360  140.0000 O   0  0  0  0  0  0  0  0  0  0  0  0
  188.1850  172.6310  139.0430 C   0  0  0  0  0  1  0  0  0  0  0  0
  1 29  1  1  0  0  0
  1 24  1  0  0  0  0
  2 11  1  1  0  0  0
  4  9  1  0  0  0  0
  5 10  1  0  0  0  0
  5  1  1  0  0  0  0
  6 20  1  0  0  0  0
  8  6  1  0  0  0  0
  8 22  1  0  0  0  0
  9  8  1  0  0  0  0
 10 26  2  0  0  0  0
 11 25  2  0  0  0  0
 13 16  1  0  0  0  0
 13  2  1  0  0  0  0
 14 15  1  0  0  0  0
 14 13  1  0  0  0  0
 15 23  1  0  0  0  0
 16  2  1  0  0  0  0
 16  6  1  0  0  0  0
 17 25  1  0  0  0  0
 18  4  1  0  0  0  0
 19  4  2  0  0  0  0
 20  7  1  0  0  0  0
 21 14  1  0  0  0  0
 22 20  1  0  0  0  0
 22 12  1  0  0  0  0
 23  2  1  0  0  0  0
 23 17  1  0  0  0  0
 24 18  1  0  0  0  0
 25  3  1  0  0  0  0
 26 24  1  0  0  0  0
 26 21  1  0  0  0  0
 27  8  1  0  0  0  0
 28 27  1  0  0  0  0
 30 29  1  0  0  0  0
M  END
>  <MODEL>
9

>  <REMARK>
 VINA RESULT:      -5.7      3.054      6.493
  Name = 
  2 active torsions:
  status: ('A' for Active; 'I' for Inactive)
    1  A    between atoms: C_1  and  O_16
    2  A    between atoms: C_8  and  C_13
                            x       y       z     vdW  Elec       q    Type
                         _______ _______ _______ _____ _____    ______ ____

>  <TORSDO>
F 2

$$$$
