=
 OpenBabel11042415513D

 34 36  0  0  1  0  0  0  0  0999 V2000
  186.1940  177.7070  142.5330 C   0  0  1  0  0  3  0  0  0  0  0  0
  188.5920  177.6970  142.9700 C   0  0  0  0  0  0  0  0  0  0  0  0
  190.0560  176.6660  147.2600 O   0  0  0  0  0  0  0  0  0  0  0  0
  192.3960  174.9570  143.5280 C   0  0  0  0  0  3  0  0  0  0  0  0
  190.2750  176.7020  146.0210 C   0  0  0  0  0  0  0  0  0  0  0  0
  187.6050  178.1030  142.2190 C   0  0  0  0  0  3  0  0  0  0  0  0
  189.5610  177.2930  143.7400 C   0  0  0  0  0  0  0  0  0  0  0  0
  191.4980  175.7950  144.0360 C   0  0  0  0  0  0  0  0  0  0  0  0
  189.5630  177.7120  145.1770 C   0  0  0  0  0  2  0  0  0  0  0  0
  193.0980  174.0330  144.3530 N   0  0  0  0  0  1  0  0  0  0  0  0
  190.8140  176.7630  143.1190 C   0  0  0  0  0  2  0  0  0  0  0  0
  191.2310  175.8090  145.4450 N   0  0  0  0  0  2  0  0  0  0  0  0
  185.5810  178.5430  147.2180 C   0  0  0  0  0  2  0  0  0  0  0  0
  186.0200  177.0630  147.1460 C   0  0  0  0  0  3  0  0  0  0  0  0
  185.6680  178.4140  143.7470 C   0  0  0  0  0  0  0  0  0  0  0  0
  186.0540  176.6660  145.6500 C   0  0  0  0  0  3  0  0  0  0  0  0
  185.4820  179.7890  143.9200 C   0  0  0  0  0  3  0  0  0  0  0  0
  185.5410  177.8900  145.0100 C   0  0  0  0  0  0  0  0  0  0  0  0
  185.2690  180.0340  145.2390 N   0  0  0  0  0  0  0  0  0  0  0  0
  185.2770  178.8630  145.8480 N   0  0  0  0  0  0  0  0  0  0  0  0
  185.2900  177.8910  141.3440 C   0  0  0  0  0  0  0  0  0  0  0  0
  185.7950  178.1320  140.1780 N   0  0  0  0  0  2  0  0  0  0  0  0
  183.0620  178.2450  140.5460 C   0  0  0  0  0  3  0  0  0  0  0  0
  183.8670  177.8880  141.4950 N   0  0  0  0  0  0  0  0  0  0  0  0
  181.5850  178.2260  140.7550 C   0  0  0  0  0  2  0  0  0  0  0  0
  181.2060  178.9460  142.0400 C   0  0  0  0  0  2  0  0  0  0  0  0
  179.7690  178.8610  142.2560 N   0  0  0  0  0  2  0  0  0  0  0  0
  178.2540  177.7440  140.3620 S   0  0  0  0  0  0  0  0  0  0  0  0
  178.7960  179.0400  141.2220 C   0  0  0  0  0  0  0  0  0  0  0  0
  178.9370  181.4360  140.2720 C   0  0  0  0  0  0  0  0  0  0  0  0
  178.3010  180.3650  140.9840 N   0  0  0  0  0  2  0  0  0  0  0  0
  180.1040  181.3180  139.8140 O   0  0  0  0  0  0  0  0  0  0  0  0
  178.7890  183.4870  138.9270 C   0  0  0  0  0  1  0  0  0  0  0  0
  178.2200  182.7280  140.1090 C   0  0  0  0  0  2  0  0  0  0  0  0
  1  6  1  6  0  0  0
  1 15  1  0  0  0  0
  2  7  2  0  0  0  0
  4  8  2  0  0  0  0
  4 10  1  0  0  0  0
  5  3  2  0  0  0  0
  6  2  2  0  0  0  0
  7  9  1  0  0  0  0
  8 12  1  0  0  0  0
  9  5  1  0  0  0  0
 11  7  1  0  0  0  0
 11  8  1  0  0  0  0
 12  5  1  0  0  0  0
 14 13  1  0  0  0  0
 15 17  1  0  0  0  0
 15 18  2  0  0  0  0
 16 14  2  0  0  0  0
 17 19  2  0  0  0  0
 18 16  1  0  0  0  0
 18 20  1  0  0  0  0
 19 20  1  0  0  0  0
 20 13  1  0  0  0  0
 21 24  1  0  0  0  0
 21  1  1  0  0  0  0
 22 21  2  0  0  0  0
 23 25  1  0  0  0  0
 23 24  2  0  0  0  0
 25 26  1  0  0  0  0
 26 27  1  0  0  0  0
 28 29  2  0  0  0  0
 29 27  1  0  0  0  0
 30 31  1  0  0  0  0
 31 29  1  0  0  0  0
 32 30  2  0  0  0  0
 33 34  1  0  0  0  0
 34 30  1  0  0  0  0
M  END
>  <MODEL>
1

>  <REMARK>
 VINA RESULT:      -7.5      0.000      0.000
  Name = 
  10 active torsions:
  status: ('A' for Active; 'I' for Inactive)
    1  A    between atoms: C_4  and  C_11
    2  A    between atoms: C_4  and  C_18
    3  A    between atoms: C_6  and  C_23
    4  A    between atoms: C_13  and  C_23
    5  A    between atoms: C_13  and  N_27
    6  A    between atoms: C_14  and  C_23
    7  A    between atoms: C_17  and  C_30
    8  A    between atoms: C_18  and  N_28
    9  A    between atoms: N_20  and  C_25
   10  A    between atoms: C_25  and  N_28
                            x       y       z     vdW  Elec       q    Type
                         _______ _______ _______ _____ _____    ______ ____

>  <TORSDO>
F 10

$$$$
=
 OpenBabel11042415513D

 34 36  0  0  1  0  0  0  0  0999 V2000
  188.1190  176.9810  143.3440 C   0  0  1  0  0  3  0  0  0  0  0  0
  190.3030  177.3640  144.3550 C   0  0  0  0  0  0  0  0  0  0  0  0
  191.2900  175.2370  148.3690 O   0  0  0  0  0  0  0  0  0  0  0  0
  194.6120  175.5530  145.0240 C   0  0  0  0  0  3  0  0  0  0  0  0
  191.6870  175.7610  147.2960 C   0  0  0  0  0  0  0  0  0  0  0  0
  189.3760  177.7740  143.5330 C   0  0  0  0  0  3  0  0  0  0  0  0
  191.2100  176.9460  145.1900 C   0  0  0  0  0  0  0  0  0  0  0  0
  193.4330  175.9250  145.5120 C   0  0  0  0  0  0  0  0  0  0  0  0
  190.8510  176.8140  146.6370 C   0  0  0  0  0  2  0  0  0  0  0  0
  195.4150  174.5820  145.6870 N   0  0  0  0  0  1  0  0  0  0  0  0
  192.6480  176.9730  144.7810 C   0  0  0  0  0  2  0  0  0  0  0  0
  192.9480  175.3760  146.7440 N   0  0  0  0  0  2  0  0  0  0  0  0
  185.3700  178.3540  147.0280 C   0  0  0  0  0  2  0  0  0  0  0  0
  186.2280  177.2030  147.5980 C   0  0  0  0  0  3  0  0  0  0  0  0
  186.9420  177.6220  144.0180 C   0  0  0  0  0  0  0  0  0  0  0  0
  187.0080  176.5820  146.4140 C   0  0  0  0  0  3  0  0  0  0  0  0
  186.2890  178.8040  143.6540 C   0  0  0  0  0  3  0  0  0  0  0  0
  186.4640  177.3410  145.2740 C   0  0  0  0  0  0  0  0  0  0  0  0
  185.4780  179.1820  144.6740 N   0  0  0  0  0  0  0  0  0  0  0  0
  185.5870  178.2560  145.6090 N   0  0  0  0  0  0  0  0  0  0  0  0
  187.8490  176.7100  141.8880 C   0  0  0  0  0  0  0  0  0  0  0  0
  187.7130  177.6950  141.0610 N   0  0  0  0  0  2  0  0  0  0  0  0
  188.6000  174.6840  140.8610 C   0  0  0  0  0  3  0  0  0  0  0  0
  187.6540  175.3750  141.4120 N   0  0  0  0  0  0  0  0  0  0  0  0
  188.3450  173.2950  140.3790 C   0  0  0  0  0  2  0  0  0  0  0  0
  189.3160  172.9150  139.2710 C   0  0  0  0  0  2  0  0  0  0  0  0
  190.6510  172.7230  139.8200 N   0  0  0  0  0  2  0  0  0  0  0  0
  191.0120  170.2160  140.6640 S   0  0  0  0  0  0  0  0  0  0  0  0
  190.9450  171.8430  140.9080 C   0  0  0  0  0  0  0  0  0  0  0  0
  190.3720  172.3890  143.3650 C   0  0  0  0  0  0  0  0  0  0  0  0
  191.2010  172.4250  142.1960 N   0  0  0  0  0  2  0  0  0  0  0  0
  189.2310  171.8590  143.3470 O   0  0  0  0  0  0  0  0  0  0  0  0
  189.6760  173.5450  145.4200 C   0  0  0  0  0  1  0  0  0  0  0  0
  190.8550  173.0310  144.6180 C   0  0  0  0  0  2  0  0  0  0  0  0
  1  6  1  6  0  0  0
  1 15  1  0  0  0  0
  2  7  2  0  0  0  0
  4  8  2  0  0  0  0
  4 10  1  0  0  0  0
  5  3  2  0  0  0  0
  6  2  2  0  0  0  0
  7  9  1  0  0  0  0
  8 12  1  0  0  0  0
  9  5  1  0  0  0  0
 11  7  1  0  0  0  0
 11  8  1  0  0  0  0
 12  5  1  0  0  0  0
 13 14  1  0  0  0  0
 15 18  2  0  0  0  0
 16 14  2  0  0  0  0
 17 15  1  0  0  0  0
 17 19  2  0  0  0  0
 18 20  1  0  0  0  0
 18 16  1  0  0  0  0
 19 20  1  0  0  0  0
 20 13  1  0  0  0  0
 21  1  1  0  0  0  0
 22 21  2  0  0  0  0
 23 24  2  0  0  0  0
 24 21  1  0  0  0  0
 25 23  1  0  0  0  0
 26 27  1  0  0  0  0
 26 25  1  0  0  0  0
 27 29  1  0  0  0  0
 28 29  2  0  0  0  0
 29 31  1  0  0  0  0
 30 34  1  0  0  0  0
 31 30  1  0  0  0  0
 32 30  2  0  0  0  0
 34 33  1  0  0  0  0
M  END
>  <MODEL>
2

>  <REMARK>
 VINA RESULT:      -7.3      5.384      7.829
  Name = 
  10 active torsions:
  status: ('A' for Active; 'I' for Inactive)
    1  A    between atoms: C_4  and  C_11
    2  A    between atoms: C_4  and  C_18
    3  A    between atoms: C_6  and  C_23
    4  A    between atoms: C_13  and  C_23
    5  A    between atoms: C_13  and  N_27
    6  A    between atoms: C_14  and  C_23
    7  A    between atoms: C_17  and  C_30
    8  A    between atoms: C_18  and  N_28
    9  A    between atoms: N_20  and  C_25
   10  A    between atoms: C_25  and  N_28
                            x       y       z     vdW  Elec       q    Type
                         _______ _______ _______ _____ _____    ______ ____

>  <TORSDO>
F 10

$$$$
=
 OpenBabel11042415513D

 34 36  0  0  1  0  0  0  0  0999 V2000
  186.6970  177.6140  143.0730 C   0  0  1  0  0  3  0  0  0  0  0  0
  189.1080  177.7200  143.4130 C   0  0  0  0  0  0  0  0  0  0  0  0
  190.8290  176.3470  147.5080 O   0  0  0  0  0  0  0  0  0  0  0  0
  193.0980  175.1990  143.5250 C   0  0  0  0  0  3  0  0  0  0  0  0
  190.9880  176.5270  146.2720 C   0  0  0  0  0  0  0  0  0  0  0  0
  188.0640  178.1350  142.7490 C   0  0  0  0  0  3  0  0  0  0  0  0
  190.1350  177.3040  144.0970 C   0  0  0  0  0  0  0  0  0  0  0  0
  192.1740  175.9160  144.1550 C   0  0  0  0  0  0  0  0  0  0  0  0
  190.1760  177.5700  145.5690 C   0  0  0  0  0  2  0  0  0  0  0  0
  193.8940  174.2420  144.2190 N   0  0  0  0  0  1  0  0  0  0  0  0
  191.3890  176.9270  143.3750 C   0  0  0  0  0  2  0  0  0  0  0  0
  191.9710  175.7650  145.5670 N   0  0  0  0  0  2  0  0  0  0  0  0
  185.9650  178.4650  147.7380 C   0  0  0  0  0  2  0  0  0  0  0  0
  186.5130  177.0200  147.6920 C   0  0  0  0  0  3  0  0  0  0  0  0
  186.1050  178.2970  144.2710 C   0  0  0  0  0  0  0  0  0  0  0  0
  186.5950  176.6080  146.2030 C   0  0  0  0  0  3  0  0  0  0  0  0
  185.8150  179.6560  144.4220 C   0  0  0  0  0  3  0  0  0  0  0  0
  186.0010  177.7820  145.5390 C   0  0  0  0  0  0  0  0  0  0  0  0
  185.5680  179.9020  145.7340 N   0  0  0  0  0  0  0  0  0  0  0  0
  185.6550  178.7430  146.3600 N   0  0  0  0  0  0  0  0  0  0  0  0
  185.7810  177.6840  141.8810 C   0  0  0  0  0  0  0  0  0  0  0  0
  186.2640  177.9370  140.7080 N   0  0  0  0  0  2  0  0  0  0  0  0
  183.5260  178.3830  141.4900 C   0  0  0  0  0  3  0  0  0  0  0  0
  184.3640  177.5590  142.0340 N   0  0  0  0  0  0  0  0  0  0  0  0
  182.0570  178.2100  141.6820 C   0  0  0  0  0  2  0  0  0  0  0  0
  181.3050  178.4380  140.3800 C   0  0  0  0  0  2  0  0  0  0  0  0
  180.4100  179.5790  140.5110 N   0  0  0  0  0  2  0  0  0  0  0  0
  177.9580  179.4660  139.4610 S   0  0  0  0  0  0  0  0  0  0  0  0
  179.0020  179.4630  140.7350 C   0  0  0  0  0  0  0  0  0  0  0  0
  178.4770  178.1290  142.8810 C   0  0  0  0  0  0  0  0  0  0  0  0
  178.5430  179.3210  142.0870 N   0  0  0  0  0  2  0  0  0  0  0  0
  178.7790  177.0030  142.4040 O   0  0  0  0  0  0  0  0  0  0  0  0
  178.7200  179.3420  145.0050 C   0  0  0  0  0  1  0  0  0  0  0  0
  178.0000  178.2170  144.2870 C   0  0  0  0  0  2  0  0  0  0  0  0
  1  6  1  6  0  0  0
  1 15  1  0  0  0  0
  2  7  2  0  0  0  0
  4  8  2  0  0  0  0
  4 10  1  0  0  0  0
  5  3  2  0  0  0  0
  6  2  2  0  0  0  0
  7  9  1  0  0  0  0
  8 12  1  0  0  0  0
  9  5  1  0  0  0  0
 11  7  1  0  0  0  0
 11  8  1  0  0  0  0
 12  5  1  0  0  0  0
 14 13  1  0  0  0  0
 15 17  1  0  0  0  0
 15 18  2  0  0  0  0
 16 14  2  0  0  0  0
 17 19  2  0  0  0  0
 18 16  1  0  0  0  0
 18 20  1  0  0  0  0
 19 20  1  0  0  0  0
 20 13  1  0  0  0  0
 21 24  1  0  0  0  0
 21  1  1  0  0  0  0
 22 21  2  0  0  0  0
 23 25  1  0  0  0  0
 23 24  2  0  0  0  0
 26 27  1  0  0  0  0
 26 25  1  0  0  0  0
 27 29  1  0  0  0  0
 28 29  2  0  0  0  0
 29 31  1  0  0  0  0
 30 34  1  0  0  0  0
 31 30  1  0  0  0  0
 32 30  2  0  0  0  0
 34 33  1  0  0  0  0
M  END
>  <MODEL>
3

>  <REMARK>
 VINA RESULT:      -7.3      1.587      2.203
  Name = 
  10 active torsions:
  status: ('A' for Active; 'I' for Inactive)
    1  A    between atoms: C_4  and  C_11
    2  A    between atoms: C_4  and  C_18
    3  A    between atoms: C_6  and  C_23
    4  A    between atoms: C_13  and  C_23
    5  A    between atoms: C_13  and  N_27
    6  A    between atoms: C_14  and  C_23
    7  A    between atoms: C_17  and  C_30
    8  A    between atoms: C_18  and  N_28
    9  A    between atoms: N_20  and  C_25
   10  A    between atoms: C_25  and  N_28
                            x       y       z     vdW  Elec       q    Type
                         _______ _______ _______ _____ _____    ______ ____

>  <TORSDO>
F 10

$$$$
=
 OpenBabel11042415513D

 34 36  0  0  1  0  0  0  0  0999 V2000
  189.9950  174.7800  143.0610 C   0  0  1  0  0  3  0  0  0  0  0  0
  192.4190  174.9800  143.2080 C   0  0  0  0  0  0  0  0  0  0  0  0
  194.2410  177.2110  146.8570 O   0  0  0  0  0  0  0  0  0  0  0  0
  196.3090  173.2710  145.2680 C   0  0  0  0  0  3  0  0  0  0  0  0
  194.3600  176.3540  145.9430 C   0  0  0  0  0  0  0  0  0  0  0  0
  191.3680  174.7800  142.4610 C   0  0  0  0  0  3  0  0  0  0  0  0
  193.4550  175.1960  143.9670 C   0  0  0  0  0  0  0  0  0  0  0  0
  195.4380  174.2610  145.0980 C   0  0  0  0  0  0  0  0  0  0  0  0
  193.5630  176.5050  144.6850 C   0  0  0  0  0  2  0  0  0  0  0  0
  197.0920  173.1690  146.4530 N   0  0  0  0  0  1  0  0  0  0  0  0
  194.6650  174.3290  143.8160 C   0  0  0  0  0  2  0  0  0  0  0  0
  195.2840  175.2750  146.1000 N   0  0  0  0  0  2  0  0  0  0  0  0
  190.5210  176.9270  147.3200 C   0  0  0  0  0  2  0  0  0  0  0  0
  190.7670  175.4290  147.6110 C   0  0  0  0  0  3  0  0  0  0  0  0
  189.8290  175.8640  144.0860 C   0  0  0  0  0  0  0  0  0  0  0  0
  190.4290  174.6480  146.3190 C   0  0  0  0  0  3  0  0  0  0  0  0
  189.8380  177.2460  143.8750 C   0  0  0  0  0  3  0  0  0  0  0  0
  189.9260  175.7250  145.4480 C   0  0  0  0  0  0  0  0  0  0  0  0
  189.9480  177.8660  145.0780 N   0  0  0  0  0  0  0  0  0  0  0  0
  189.9600  176.9160  145.9940 N   0  0  0  0  0  0  0  0  0  0  0  0
  188.9280  174.8460  142.0020 C   0  0  0  0  0  0  0  0  0  0  0  0
  189.1670  174.3950  140.8130 N   0  0  0  0  0  2  0  0  0  0  0  0
  187.1880  176.4120  141.5050 C   0  0  0  0  0  3  0  0  0  0  0  0
  187.6710  175.4790  142.2620 N   0  0  0  0  0  0  0  0  0  0  0  0
  185.8740  177.0420  141.8210 C   0  0  0  0  0  2  0  0  0  0  0  0
  185.9440  178.5540  141.6760 C   0  0  0  0  0  2  0  0  0  0  0  0
  186.1910  179.1710  142.9720 N   0  0  0  0  0  2  0  0  0  0  0  0
  183.6690  179.0680  143.8420 S   0  0  0  0  0  0  0  0  0  0  0  0
  185.2980  179.0690  144.0840 C   0  0  0  0  0  0  0  0  0  0  0  0
  186.3970  177.7710  146.0250 C   0  0  0  0  0  0  0  0  0  0  0  0
  185.8660  178.9450  145.3970 N   0  0  0  0  0  2  0  0  0  0  0  0
  186.3510  176.6450  145.4630 O   0  0  0  0  0  0  0  0  0  0  0  0
  186.3710  179.0600  148.1180 C   0  0  0  0  0  1  0  0  0  0  0  0
  186.9780  177.8770  147.3900 C   0  0  0  0  0  2  0  0  0  0  0  0
  1  6  1  6  0  0  0
  1 15  1  0  0  0  0
  2  7  2  0  0  0  0
  4 10  1  0  0  0  0
  5 12  1  0  0  0  0
  5  3  2  0  0  0  0
  6  2  2  0  0  0  0
  7  9  1  0  0  0  0
  8  4  2  0  0  0  0
  8 12  1  0  0  0  0
  9  5  1  0  0  0  0
 11  7  1  0  0  0  0
 11  8  1  0  0  0  0
 13 14  1  0  0  0  0
 15 18  2  0  0  0  0
 16 14  2  0  0  0  0
 17 15  1  0  0  0  0
 17 19  2  0  0  0  0
 18 20  1  0  0  0  0
 18 16  1  0  0  0  0
 19 20  1  0  0  0  0
 20 13  1  0  0  0  0
 21 24  1  0  0  0  0
 21  1  1  0  0  0  0
 22 21  2  0  0  0  0
 23 25  1  0  0  0  0
 23 24  2  0  0  0  0
 26 25  1  0  0  0  0
 26 27  1  0  0  0  0
 27 29  1  0  0  0  0
 28 29  2  0  0  0  0
 29 31  1  0  0  0  0
 30 34  1  0  0  0  0
 31 30  1  0  0  0  0
 32 30  2  0  0  0  0
 34 33  1  0  0  0  0
M  END
>  <MODEL>
4

>  <REMARK>
 VINA RESULT:      -7.2      4.343      6.190
  Name = 
  10 active torsions:
  status: ('A' for Active; 'I' for Inactive)
    1  A    between atoms: C_4  and  C_11
    2  A    between atoms: C_4  and  C_18
    3  A    between atoms: C_6  and  C_23
    4  A    between atoms: C_13  and  C_23
    5  A    between atoms: C_13  and  N_27
    6  A    between atoms: C_14  and  C_23
    7  A    between atoms: C_17  and  C_30
    8  A    between atoms: C_18  and  N_28
    9  A    between atoms: N_20  and  C_25
   10  A    between atoms: C_25  and  N_28
                            x       y       z     vdW  Elec       q    Type
                         _______ _______ _______ _____ _____    ______ ____

>  <TORSDO>
F 10

$$$$
=
 OpenBabel11042415513D

 34 36  0  0  1  0  0  0  0  0999 V2000
  187.7020  177.0140  143.2640 C   0  0  1  0  0  3  0  0  0  0  0  0
  189.8750  177.5090  144.2480 C   0  0  0  0  0  0  0  0  0  0  0  0
  191.0860  175.3130  148.1630 O   0  0  0  0  0  0  0  0  0  0  0  0
  194.3090  175.9730  144.7710 C   0  0  0  0  0  3  0  0  0  0  0  0
  191.4240  175.9010  147.1020 C   0  0  0  0  0  0  0  0  0  0  0  0
  188.9060  177.8830  143.4590 C   0  0  0  0  0  3  0  0  0  0  0  0
  190.8250  177.1240  145.0510 C   0  0  0  0  0  0  0  0  0  0  0  0
  193.1180  176.2460  145.2930 C   0  0  0  0  0  0  0  0  0  0  0  0
  190.5060  176.9170  146.4980 C   0  0  0  0  0  2  0  0  0  0  0  0
  195.1890  175.0350  145.3830 N   0  0  0  0  0  1  0  0  0  0  0  0
  192.2500  177.2640  144.6170 C   0  0  0  0  0  2  0  0  0  0  0  0
  192.6970  175.6220  146.5130 N   0  0  0  0  0  2  0  0  0  0  0  0
  184.0720  178.6020  145.9710 C   0  0  0  0  0  2  0  0  0  0  0  0
  184.6300  177.3900  146.7490 C   0  0  0  0  0  3  0  0  0  0  0  0
  186.4250  177.7450  143.5640 C   0  0  0  0  0  0  0  0  0  0  0  0
  185.6850  176.7090  145.8440 C   0  0  0  0  0  3  0  0  0  0  0  0
  186.0020  178.9720  143.0420 C   0  0  0  0  0  3  0  0  0  0  0  0
  185.5700  177.5040  144.6090 C   0  0  0  0  0  0  0  0  0  0  0  0
  184.9490  179.4130  143.7770 N   0  0  0  0  0  0  0  0  0  0  0  0
  184.7020  178.4840  144.6820 N   0  0  0  0  0  0  0  0  0  0  0  0
  187.6810  176.3950  141.8920 C   0  0  0  0  0  0  0  0  0  0  0  0
  187.5520  177.1450  140.8460 N   0  0  0  0  0  2  0  0  0  0  0  0
  188.5490  174.3850  140.9270 C   0  0  0  0  0  3  0  0  0  0  0  0
  187.7170  174.9740  141.7250 N   0  0  0  0  0  0  0  0  0  0  0  0
  188.5450  172.8990  140.7880 C   0  0  0  0  0  2  0  0  0  0  0  0
  189.8190  172.2940  141.3570 C   0  0  0  0  0  2  0  0  0  0  0  0
  189.5730  171.7770  142.6960 N   0  0  0  0  0  2  0  0  0  0  0  0
  189.8610  173.5150  144.7020 S   0  0  0  0  0  0  0  0  0  0  0  0
  190.3130  172.1790  143.8520 C   0  0  0  0  0  0  0  0  0  0  0  0
  192.8270  171.6940  144.1820 C   0  0  0  0  0  0  0  0  0  0  0  0
  191.4310  171.3720  144.2520 N   0  0  0  0  0  2  0  0  0  0  0  0
  193.2290  172.7690  143.6660 O   0  0  0  0  0  0  0  0  0  0  0  0
  194.8630  171.4310  145.5340 C   0  0  0  0  0  1  0  0  0  0  0  0
  193.8240  170.7160  144.6930 C   0  0  0  0  0  2  0  0  0  0  0  0
  1  6  1  6  0  0  0
  1 15  1  0  0  0  0
  2  7  2  0  0  0  0
  4  8  2  0  0  0  0
  4 10  1  0  0  0  0
  5  3  2  0  0  0  0
  6  2  2  0  0  0  0
  7  9  1  0  0  0  0
  8 12  1  0  0  0  0
  9  5  1  0  0  0  0
 11  7  1  0  0  0  0
 11  8  1  0  0  0  0
 12  5  1  0  0  0  0
 13 14  1  0  0  0  0
 15 18  2  0  0  0  0
 16 14  2  0  0  0  0
 17 15  1  0  0  0  0
 17 19  2  0  0  0  0
 18 20  1  0  0  0  0
 18 16  1  0  0  0  0
 19 20  1  0  0  0  0
 20 13  1  0  0  0  0
 21  1  1  0  0  0  0
 22 21  2  0  0  0  0
 23 24  2  0  0  0  0
 24 21  1  0  0  0  0
 25 23  1  0  0  0  0
 25 26  1  0  0  0  0
 26 27  1  0  0  0  0
 27 29  1  0  0  0  0
 29 31  1  0  0  0  0
 29 28  2  0  0  0  0
 30 31  1  0  0  0  0
 30 34  1  0  0  0  0
 32 30  2  0  0  0  0
 34 33  1  0  0  0  0
M  END
>  <MODEL>
5

>  <REMARK>
 VINA RESULT:      -7.1      5.120      8.621
  Name = 
  10 active torsions:
  status: ('A' for Active; 'I' for Inactive)
    1  A    between atoms: C_4  and  C_11
    2  A    between atoms: C_4  and  C_18
    3  A    between atoms: C_6  and  C_23
    4  A    between atoms: C_13  and  C_23
    5  A    between atoms: C_13  and  N_27
    6  A    between atoms: C_14  and  C_23
    7  A    between atoms: C_17  and  C_30
    8  A    between atoms: C_18  and  N_28
    9  A    between atoms: N_20  and  C_25
   10  A    between atoms: C_25  and  N_28
                            x       y       z     vdW  Elec       q    Type
                         _______ _______ _______ _____ _____    ______ ____

>  <TORSDO>
F 10

$$$$
=
 OpenBabel11042415513D

 34 36  0  0  1  0  0  0  0  0999 V2000
  188.5500  176.2250  141.5250 C   0  0  1  0  0  3  0  0  0  0  0  0
  190.1450  176.0970  143.3630 C   0  0  0  0  0  0  0  0  0  0  0  0
  192.5330  172.1520  143.9520 O   0  0  0  0  0  0  0  0  0  0  0  0
  194.7190  176.3030  144.5160 C   0  0  0  0  0  3  0  0  0  0  0  0
  192.4480  173.3990  144.1030 C   0  0  0  0  0  0  0  0  0  0  0  0
  189.0940  176.6730  142.8470 C   0  0  0  0  0  3  0  0  0  0  0  0
  191.1870  175.5000  143.8670 C   0  0  0  0  0  0  0  0  0  0  0  0
  193.5970  175.6030  144.3880 C   0  0  0  0  0  0  0  0  0  0  0  0
  191.0980  174.0400  144.1840 C   0  0  0  0  0  2  0  0  0  0  0  0
  195.9940  175.6700  144.4810 N   0  0  0  0  0  1  0  0  0  0  0  0
  192.2840  176.3250  144.4610 C   0  0  0  0  0  2  0  0  0  0  0  0
  193.6390  174.1780  144.2380 N   0  0  0  0  0  2  0  0  0  0  0  0
  190.0660  171.6880  141.1510 C   0  0  0  0  0  2  0  0  0  0  0  0
  191.2280  172.5300  140.5780 C   0  0  0  0  0  3  0  0  0  0  0  0
  188.4180  174.7320  141.4480 C   0  0  0  0  0  0  0  0  0  0  0  0
  190.7350  173.9940  140.4920 C   0  0  0  0  0  3  0  0  0  0  0  0
  187.5190  173.9170  142.1430 C   0  0  0  0  0  3  0  0  0  0  0  0
  189.3290  173.8560  140.9110 C   0  0  0  0  0  0  0  0  0  0  0  0
  187.9170  172.6250  142.0120 N   0  0  0  0  0  0  0  0  0  0  0  0
  188.9840  172.6340  141.2350 N   0  0  0  0  0  0  0  0  0  0  0  0
  187.2540  176.9170  141.1960 C   0  0  0  0  0  0  0  0  0  0  0  0
  186.9570  177.1820  139.9660 N   0  0  0  0  0  2  0  0  0  0  0  0
  186.0550  178.6100  142.3880 C   0  0  0  0  0  3  0  0  0  0  0  0
  186.3760  177.3650  142.2330 N   0  0  0  0  0  0  0  0  0  0  0  0
  185.1360  179.0270  143.4870 C   0  0  0  0  0  2  0  0  0  0  0  0
  185.1170  177.9940  144.6030 C   0  0  0  0  0  2  0  0  0  0  0  0
  186.4280  177.9090  145.2300 N   0  0  0  0  0  2  0  0  0  0  0  0
  185.9090  178.3650  147.8080 S   0  0  0  0  0  0  0  0  0  0  0  0
  186.6360  177.5260  146.5920 C   0  0  0  0  0  0  0  0  0  0  0  0
  188.8990  176.3290  146.9220 C   0  0  0  0  0  0  0  0  0  0  0  0
  187.4670  176.3850  146.8540 N   0  0  0  0  0  2  0  0  0  0  0  0
  189.6100  177.3390  146.6780 O   0  0  0  0  0  0  0  0  0  0  0  0
  190.9770  175.2900  147.7250 C   0  0  0  0  0  1  0  0  0  0  0  0
  189.5600  175.0370  147.2490 C   0  0  0  0  0  2  0  0  0  0  0  0
  1  6  1  1  0  0  0
  2  7  2  0  0  0  0
  3  5  2  0  0  0  0
  5  9  1  0  0  0  0
  5 12  1  0  0  0  0
  6  2  2  0  0  0  0
  7  9  1  0  0  0  0
  7 11  1  0  0  0  0
  8 11  1  0  0  0  0
  8  4  2  0  0  0  0
 10  4  1  0  0  0  0
 12  8  1  0  0  0  0
 13 20  1  0  0  0  0
 14 13  1  0  0  0  0
 15  1  1  0  0  0  0
 15 17  1  0  0  0  0
 16 14  2  0  0  0  0
 16 18  1  0  0  0  0
 18 20  1  0  0  0  0
 18 15  2  0  0  0  0
 19 17  2  0  0  0  0
 20 19  1  0  0  0  0
 21  1  1  0  0  0  0
 21 24  1  0  0  0  0
 22 21  2  0  0  0  0
 23 25  1  0  0  0  0
 24 23  2  0  0  0  0
 25 26  1  0  0  0  0
 26 27  1  0  0  0  0
 27 29  1  0  0  0  0
 29 31  1  0  0  0  0
 29 28  2  0  0  0  0
 30 34  1  0  0  0  0
 31 30  1  0  0  0  0
 32 30  2  0  0  0  0
 34 33  1  0  0  0  0
M  END
>  <MODEL>
6

>  <REMARK>
 VINA RESULT:      -7.1      4.697      7.609
  Name = 
  10 active torsions:
  status: ('A' for Active; 'I' for Inactive)
    1  A    between atoms: C_4  and  C_11
    2  A    between atoms: C_4  and  C_18
    3  A    between atoms: C_6  and  C_23
    4  A    between atoms: C_13  and  C_23
    5  A    between atoms: C_13  and  N_27
    6  A    between atoms: C_14  and  C_23
    7  A    between atoms: C_17  and  C_30
    8  A    between atoms: C_18  and  N_28
    9  A    between atoms: N_20  and  C_25
   10  A    between atoms: C_25  and  N_28
                            x       y       z     vdW  Elec       q    Type
                         _______ _______ _______ _____ _____    ______ ____

>  <TORSDO>
F 10

$$$$
=
 OpenBabel11042415513D

 34 36  0  0  1  0  0  0  0  0999 V2000
  188.9630  177.3890  145.7320 C   0  0  1  0  0  3  0  0  0  0  0  0
  190.9650  177.2730  144.3470 C   0  0  0  0  0  0  0  0  0  0  0  0
  194.7970  175.3520  146.1460 O   0  0  0  0  0  0  0  0  0  0  0  0
  193.6310  174.4550  141.6560 C   0  0  0  0  0  3  0  0  0  0  0  0
  194.1060  175.6480  145.1360 C   0  0  0  0  0  0  0  0  0  0  0  0
  189.8090  177.8340  144.5790 C   0  0  0  0  0  3  0  0  0  0  0  0
  192.1200  176.7110  144.1400 C   0  0  0  0  0  0  0  0  0  0  0  0
  193.4710  175.1710  142.7630 C   0  0  0  0  0  0  0  0  0  0  0  0
  193.1730  176.8170  145.1980 C   0  0  0  0  0  2  0  0  0  0  0  0
  194.5560  173.3730  141.6010 N   0  0  0  0  0  1  0  0  0  0  0  0
  192.5020  176.3160  142.7490 C   0  0  0  0  0  2  0  0  0  0  0  0
  194.2520  174.8900  143.9320 N   0  0  0  0  0  2  0  0  0  0  0  0
  184.2970  178.3920  146.2220 C   0  0  0  0  0  2  0  0  0  0  0  0
  184.8880  178.6170  147.6310 C   0  0  0  0  0  3  0  0  0  0  0  0
  187.5040  177.3570  145.3810 C   0  0  0  0  0  0  0  0  0  0  0  0
  186.3570  178.1310  147.5970 C   0  0  0  0  0  3  0  0  0  0  0  0
  186.9330  177.3900  144.1050 C   0  0  0  0  0  3  0  0  0  0  0  0
  186.4520  177.5810  146.2330 C   0  0  0  0  0  0  0  0  0  0  0  0
  185.6040  177.6350  144.2330 N   0  0  0  0  0  0  0  0  0  0  0  0
  185.3540  177.7060  145.5270 N   0  0  0  0  0  0  0  0  0  0  0  0
  189.4320  176.0700  146.2870 C   0  0  0  0  0  0  0  0  0  0  0  0
  190.0790  176.0330  147.4060 N   0  0  0  0  0  2  0  0  0  0  0  0
  190.0860  173.8710  145.6070 C   0  0  0  0  0  3  0  0  0  0  0  0
  189.2470  174.8560  145.5530 N   0  0  0  0  0  0  0  0  0  0  0  0
  189.8480  172.6260  144.8200 C   0  0  0  0  0  2  0  0  0  0  0  0
  190.9830  172.3740  143.8410 C   0  0  0  0  0  2  0  0  0  0  0  0
  190.4720  171.7380  142.6350 N   0  0  0  0  0  2  0  0  0  0  0  0
  190.6630  171.5460  139.9780 S   0  0  0  0  0  0  0  0  0  0  0  0
  190.3900  172.3920  141.3650 C   0  0  0  0  0  0  0  0  0  0  0  0
  188.7980  174.3930  141.7170 C   0  0  0  0  0  0  0  0  0  0  0  0
  190.0420  173.7840  141.3440 N   0  0  0  0  0  2  0  0  0  0  0  0
  187.8040  173.7010  142.0620 O   0  0  0  0  0  0  0  0  0  0  0  0
  187.5410  176.2500  140.7110 C   0  0  0  0  0  1  0  0  0  0  0  0
  188.6650  175.8730  141.6550 C   0  0  0  0  0  2  0  0  0  0  0  0
  1  6  1  6  0  0  0
  1 21  1  0  0  0  0
  2  6  2  0  0  0  0
  4  8  2  0  0  0  0
  5  9  1  0  0  0  0
  5  3  2  0  0  0  0
  7  2  2  0  0  0  0
  7  9  1  0  0  0  0
  8 12  1  0  0  0  0
 10  4  1  0  0  0  0
 11  8  1  0  0  0  0
 11  7  1  0  0  0  0
 12  5  1  0  0  0  0
 13 14  1  0  0  0  0
 15  1  1  0  0  0  0
 15 18  2  0  0  0  0
 16 14  2  0  0  0  0
 17 19  2  0  0  0  0
 17 15  1  0  0  0  0
 18 16  1  0  0  0  0
 19 20  1  0  0  0  0
 20 13  1  0  0  0  0
 20 18  1  0  0  0  0
 21 22  2  0  0  0  0
 24 23  2  0  0  0  0
 24 21  1  0  0  0  0
 25 23  1  0  0  0  0
 26 25  1  0  0  0  0
 27 26  1  0  0  0  0
 28 29  2  0  0  0  0
 29 27  1  0  0  0  0
 30 32  2  0  0  0  0
 31 29  1  0  0  0  0
 31 30  1  0  0  0  0
 33 34  1  0  0  0  0
 34 30  1  0  0  0  0
M  END
>  <MODEL>
7

>  <REMARK>
 VINA RESULT:      -7.0      5.304      7.633
  Name = 
  10 active torsions:
  status: ('A' for Active; 'I' for Inactive)
    1  A    between atoms: C_4  and  C_11
    2  A    between atoms: C_4  and  C_18
    3  A    between atoms: C_6  and  C_23
    4  A    between atoms: C_13  and  C_23
    5  A    between atoms: C_13  and  N_27
    6  A    between atoms: C_14  and  C_23
    7  A    between atoms: C_17  and  C_30
    8  A    between atoms: C_18  and  N_28
    9  A    between atoms: N_20  and  C_25
   10  A    between atoms: C_25  and  N_28
                            x       y       z     vdW  Elec       q    Type
                         _______ _______ _______ _____ _____    ______ ____

>  <TORSDO>
F 10

$$$$
=
 OpenBabel11042415513D

 34 36  0  0  1  0  0  0  0  0999 V2000
  190.0870  175.5070  145.1410 C   0  0  1  0  0  3  0  0  0  0  0  0
  189.5160  173.6210  143.7070 C   0  0  0  0  0  0  0  0  0  0  0  0
  188.2190  174.4810  139.3270 O   0  0  0  0  0  0  0  0  0  0  0  0
  191.0540  170.8120  140.2380 C   0  0  0  0  0  3  0  0  0  0  0  0
  188.7210  173.6950  140.1730 C   0  0  0  0  0  0  0  0  0  0  0  0
  189.6620  174.0890  144.9170 C   0  0  0  0  0  3  0  0  0  0  0  0
  189.3620  173.1780  142.4930 C   0  0  0  0  0  0  0  0  0  0  0  0
  190.2310  171.7630  140.6680 C   0  0  0  0  0  0  0  0  0  0  0  0
  188.3370  173.8230  141.6140 C   0  0  0  0  0  2  0  0  0  0  0  0
  191.3730  170.6770  138.8560 N   0  0  0  0  0  1  0  0  0  0  0  0
  189.9120  171.8350  142.1310 C   0  0  0  0  0  2  0  0  0  0  0  0
  189.6140  172.6660  139.7410 N   0  0  0  0  0  2  0  0  0  0  0  0
  187.0080  178.2480  142.6850 C   0  0  0  0  0  2  0  0  0  0  0  0
  188.1840  178.0220  141.7090 C   0  0  0  0  0  3  0  0  0  0  0  0
  188.9530  176.4720  144.9500 C   0  0  0  0  0  0  0  0  0  0  0  0
  189.3040  177.3020  142.4970 C   0  0  0  0  0  3  0  0  0  0  0  0
  187.7620  176.5440  145.6790 C   0  0  0  0  0  3  0  0  0  0  0  0
  188.7330  177.2720  143.8560 C   0  0  0  0  0  0  0  0  0  0  0  0
  186.8960  177.3490  145.0120 N   0  0  0  0  0  0  0  0  0  0  0  0
  187.5330  177.7910  143.9440 N   0  0  0  0  0  0  0  0  0  0  0  0
  190.7490  175.6830  146.4810 C   0  0  0  0  0  0  0  0  0  0  0  0
  190.2670  175.0870  147.5230 N   0  0  0  0  0  2  0  0  0  0  0  0
  193.0870  176.1590  146.6550 C   0  0  0  0  0  3  0  0  0  0  0  0
  191.8600  176.5700  146.6430 N   0  0  0  0  0  0  0  0  0  0  0  0
  194.2110  177.1250  146.8290 C   0  0  0  0  0  2  0  0  0  0  0  0
  194.9260  177.3730  145.5100 C   0  0  0  0  0  2  0  0  0  0  0  0
  195.2490  176.1050  144.8700 N   0  0  0  0  0  2  0  0  0  0  0  0
  196.8410  176.5670  142.7760 S   0  0  0  0  0  0  0  0  0  0  0  0
  195.4740  175.9580  143.4650 C   0  0  0  0  0  0  0  0  0  0  0  0
  193.1420  175.6360  142.4060 C   0  0  0  0  0  0  0  0  0  0  0  0
  194.4920  175.2480  142.6950 N   0  0  0  0  0  2  0  0  0  0  0  0
  192.6400  176.6830  142.8930 O   0  0  0  0  0  0  0  0  0  0  0  0
  193.1490  174.1610  140.4390 C   0  0  0  0  0  1  0  0  0  0  0  0
  192.3030  174.7600  141.5460 C   0  0  0  0  0  2  0  0  0  0  0  0
  1  6  1  1  0  0  0
  1 21  1  0  0  0  0
  2  6  2  0  0  0  0
  3  5  2  0  0  0  0
  4  8  2  0  0  0  0
  5  9  1  0  0  0  0
  7  2  2  0  0  0  0
  8 11  1  0  0  0  0
  9  7  1  0  0  0  0
 10  4  1  0  0  0  0
 11  7  1  0  0  0  0
 12  5  1  0  0  0  0
 12  8  1  0  0  0  0
 13 20  1  0  0  0  0
 14 16  2  0  0  0  0
 14 13  1  0  0  0  0
 15  1  1  0  0  0  0
 15 17  1  0  0  0  0
 16 18  1  0  0  0  0
 18 20  1  0  0  0  0
 18 15  2  0  0  0  0
 19 17  2  0  0  0  0
 20 19  1  0  0  0  0
 21 24  1  0  0  0  0
 21 22  2  0  0  0  0
 23 25  1  0  0  0  0
 24 23  2  0  0  0  0
 26 25  1  0  0  0  0
 27 26  1  0  0  0  0
 28 29  2  0  0  0  0
 29 27  1  0  0  0  0
 30 31  1  0  0  0  0
 30 32  2  0  0  0  0
 31 29  1  0  0  0  0
 33 34  1  0  0  0  0
 34 30  1  0  0  0  0
M  END
>  <MODEL>
8

>  <REMARK>
 VINA RESULT:      -7.0      5.990     10.166
  Name = 
  10 active torsions:
  status: ('A' for Active; 'I' for Inactive)
    1  A    between atoms: C_4  and  C_11
    2  A    between atoms: C_4  and  C_18
    3  A    between atoms: C_6  and  C_23
    4  A    between atoms: C_13  and  C_23
    5  A    between atoms: C_13  and  N_27
    6  A    between atoms: C_14  and  C_23
    7  A    between atoms: C_17  and  C_30
    8  A    between atoms: C_18  and  N_28
    9  A    between atoms: N_20  and  C_25
   10  A    between atoms: C_25  and  N_28
                            x       y       z     vdW  Elec       q    Type
                         _______ _______ _______ _____ _____    ______ ____

>  <TORSDO>
F 10

$$$$
=
 OpenBabel11042415513D

 34 36  0  0  1  0  0  0  0  0999 V2000
  186.4150  176.6990  142.1890 C   0  0  1  0  0  3  0  0  0  0  0  0
  187.8070  174.7110  142.4060 C   0  0  0  0  0  0  0  0  0  0  0  0
  190.3000  173.3400  138.7290 O   0  0  0  0  0  0  0  0  0  0  0  0
  192.2150  173.1440  143.0440 C   0  0  0  0  0  3  0  0  0  0  0  0
  190.1410  173.3740  139.9770 C   0  0  0  0  0  0  0  0  0  0  0  0
  186.7920  175.4050  142.8420 C   0  0  0  0  0  3  0  0  0  0  0  0
  188.8150  174.0270  141.9470 C   0  0  0  0  0  0  0  0  0  0  0  0
  191.1470  173.2860  142.2660 C   0  0  0  0  0  0  0  0  0  0  0  0
  188.7610  173.5190  140.5400 C   0  0  0  0  0  2  0  0  0  0  0  0
  193.5150  172.9620  142.4910 N   0  0  0  0  0  1  0  0  0  0  0  0
  189.8020  173.4460  142.9090 C   0  0  0  0  0  2  0  0  0  0  0  0
  191.2720  173.2300  140.8390 N   0  0  0  0  0  2  0  0  0  0  0  0
  184.3100  179.0260  145.8190 C   0  0  0  0  0  2  0  0  0  0  0  0
  185.5130  178.3080  146.4700 C   0  0  0  0  0  3  0  0  0  0  0  0
  185.3010  177.3940  142.9180 C   0  0  0  0  0  0  0  0  0  0  0  0
  186.1320  177.3830  145.3940 C   0  0  0  0  0  3  0  0  0  0  0  0
  184.3310  178.2450  142.3800 C   0  0  0  0  0  3  0  0  0  0  0  0
  185.1910  177.5630  144.2750 C   0  0  0  0  0  0  0  0  0  0  0  0
  183.7020  178.8820  143.4010 N   0  0  0  0  0  0  0  0  0  0  0  0
  184.2240  178.4140  144.5200 N   0  0  0  0  0  0  0  0  0  0  0  0
  187.6090  177.5980  142.0090 C   0  0  0  0  0  0  0  0  0  0  0  0
  187.7820  178.2290  140.8940 N   0  0  0  0  0  2  0  0  0  0  0  0
  189.8620  177.8970  142.7580 C   0  0  0  0  0  3  0  0  0  0  0  0
  188.6100  177.7020  143.0270 N   0  0  0  0  0  0  0  0  0  0  0  0
  190.8680  177.9970  143.8560 C   0  0  0  0  0  2  0  0  0  0  0  0
  192.0970  177.1570  143.5480 C   0  0  0  0  0  2  0  0  0  0  0  0
  192.9660  177.0950  144.7150 N   0  0  0  0  0  2  0  0  0  0  0  0
  194.6420  175.4010  145.9180 S   0  0  0  0  0  0  0  0  0  0  0  0
  193.1330  175.9250  145.5210 C   0  0  0  0  0  0  0  0  0  0  0  0
  190.9960  175.7030  146.9520 C   0  0  0  0  0  0  0  0  0  0  0  0
  191.9530  175.2510  145.9840 N   0  0  0  0  0  2  0  0  0  0  0  0
  191.1510  176.7860  147.5760 O   0  0  0  0  0  0  0  0  0  0  0  0
  188.5400  175.6000  146.9130 C   0  0  0  0  0  1  0  0  0  0  0  0
  189.8140  174.8530  147.2560 C   0  0  0  0  0  2  0  0  0  0  0  0
  1  6  1  1  0  0  0
  1 15  1  0  0  0  0
  2  6  2  0  0  0  0
  3  5  2  0  0  0  0
  5  9  1  0  0  0  0
  5 12  1  0  0  0  0
  7  2  2  0  0  0  0
  7 11  1  0  0  0  0
  8 11  1  0  0  0  0
  8  4  2  0  0  0  0
  9  7  1  0  0  0  0
 10  4  1  0  0  0  0
 12  8  1  0  0  0  0
 13 14  1  0  0  0  0
 15 18  2  0  0  0  0
 16 14  2  0  0  0  0
 17 15  1  0  0  0  0
 17 19  2  0  0  0  0
 18 20  1  0  0  0  0
 18 16  1  0  0  0  0
 19 20  1  0  0  0  0
 20 13  1  0  0  0  0
 21  1  1  0  0  0  0
 21 24  1  0  0  0  0
 22 21  2  0  0  0  0
 23 24  2  0  0  0  0
 23 25  1  0  0  0  0
 26 25  1  0  0  0  0
 26 27  1  0  0  0  0
 27 29  1  0  0  0  0
 29 28  2  0  0  0  0
 29 31  1  0  0  0  0
 30 34  1  0  0  0  0
 30 32  2  0  0  0  0
 31 30  1  0  0  0  0
 33 34  1  0  0  0  0
M  END
>  <MODEL>
9

>  <REMARK>
 VINA RESULT:      -7.0      4.902      8.487
  Name = 
  10 active torsions:
  status: ('A' for Active; 'I' for Inactive)
    1  A    between atoms: C_4  and  C_11
    2  A    between atoms: C_4  and  C_18
    3  A    between atoms: C_6  and  C_23
    4  A    between atoms: C_13  and  C_23
    5  A    between atoms: C_13  and  N_27
    6  A    between atoms: C_14  and  C_23
    7  A    between atoms: C_17  and  C_30
    8  A    between atoms: C_18  and  N_28
    9  A    between atoms: N_20  and  C_25
   10  A    between atoms: C_25  and  N_28
                            x       y       z     vdW  Elec       q    Type
                         _______ _______ _______ _____ _____    ______ ____

>  <TORSDO>
F 10

$$$$
