=
 OpenBabel11042414053D

 31 35  0  0  1  0  0  0  0  0999 V2000
  188.8920  176.7430  143.8670 C   0  0  0  0  0  0  0  0  0  0  0  0
  189.7900  177.6780  144.5910 C   0  0  0  0  0  3  0  0  0  0  0  0
  188.8030  174.5670  142.7180 N   0  0  0  0  0  0  0  0  0  0  0  0
  191.0460  177.3510  144.9230 C   0  0  0  0  0  3  0  0  0  0  0  0
  191.0790  173.9850  143.1890 N   0  0  0  0  0  0  0  0  0  0  0  0
  189.8360  173.5480  142.5120 C   0  0  0  0  0  3  0  0  0  0  0  0
  191.6290  175.9880  144.6330 C   0  0  0  0  0  0  0  0  0  0  0  0
  189.4330  175.5820  143.4560 C   0  0  0  0  0  0  0  0  0  0  0  0
  190.7690  175.2490  143.7090 N   0  0  0  0  0  0  0  0  0  0  0  0
  185.2880  177.8720  140.7050 C   0  0  0  0  0  3  0  0  0  0  0  0
  187.4790  177.1400  143.6090 C   0  0  0  0  0  0  0  0  0  0  0  0
  186.5660  177.3540  144.6570 C   0  0  0  0  0  3  0  0  0  0  0  0
  185.7220  177.6960  142.0190 C   0  0  0  0  0  0  0  0  0  0  0  0
  183.0900  178.4490  141.5330 C   0  0  0  0  0  0  0  0  0  0  0  0
  187.0390  177.3190  142.2870 C   0  0  0  0  0  3  0  0  0  0  0  0
  183.9680  178.2500  140.4570 C   0  0  0  0  0  3  0  0  0  0  0  0
  184.3700  177.9330  145.4600 O   0  0  0  0  0  1  0  0  0  0  0  0
  185.2450  177.7320  144.4000 C   0  0  0  0  0  0  0  0  0  0  0  0
  184.8150  177.9050  143.0790 C   0  0  0  0  0  0  0  0  0  0  0  0
  183.5320  178.2730  142.8080 N   0  0  0  0  0  0  0  0  0  0  0  0
  180.9630  178.2680  140.4140 N   0  0  0  0  0  2  0  0  0  0  0  0
  181.6960  178.8460  141.3090 C   0  0  0  0  0  3  0  0  0  0  0  0
  191.7770  175.1990  145.9340 C   0  0  0  0  0  2  0  0  0  0  0  0
  194.1810  177.1660  146.8230 Cl  0  0  0  0  0  0  0  0  0  0  0  0
  195.6170  175.1470  145.8800 N   0  0  0  0  0  0  0  0  0  0  0  0
  197.1910  173.3970  145.8610 N   0  0  0  0  0  1  0  0  0  0  0  0
  193.4570  173.3870  145.4430 C   0  0  0  0  0  2  0  0  0  0  0  0
  195.8530  173.8720  145.7810 C   0  0  0  0  0  0  0  0  0  0  0  0
  194.2730  175.7180  145.7880 C   0  0  1  0  0  3  0  0  0  0  0  0
  194.8020  172.9590  145.6460 O   0  0  0  0  0  0  0  0  0  0  0  0
  193.2010  174.6940  146.1850 C   0  0  1  0  0  3  0  0  0  0  0  0
  1  2  2  0  0  0  0
  2  4  1  0  0  0  0
  3  8  2  0  0  0  0
  5  9  1  0  0  0  0
  6  3  1  0  0  0  0
  6  5  2  0  0  0  0
  7  4  2  0  0  0  0
  7 23  1  0  0  0  0
  8  9  1  0  0  0  0
  8  1  1  0  0  0  0
  9  7  1  0  0  0  0
 10 13  1  0  0  0  0
 11  1  1  0  0  0  0
 11 12  1  0  0  0  0
 13 15  1  0  0  0  0
 13 19  2  0  0  0  0
 14 20  2  0  0  0  0
 15 11  2  0  0  0  0
 16 10  2  0  0  0  0
 16 14  1  0  0  0  0
 18 12  2  0  0  0  0
 18 17  1  0  0  0  0
 19 18  1  0  0  0  0
 20 19  1  0  0  0  0
 21 22  2  0  0  0  0
 22 14  1  0  0  0  0
 27 30  1  0  0  0  0
 27 31  1  0  0  0  0
 28 26  1  0  0  0  0
 28 25  2  0  0  0  0
 29 25  1  0  0  0  0
 29 31  1  0  0  0  0
 29 24  1  1  0  0  0
 30 28  1  0  0  0  0
 31 23  1  6  0  0  0
M  END
>  <MODEL>
1

>  <REMARK>
 VINA RESULT:      -8.2      0.000      0.000
  Name = 
  4 active torsions:
  status: ('A' for Active; 'I' for Inactive)
    1  A    between atoms: C_3  and  C_5
    2  A    between atoms: C_9  and  C_24
    3  A    between atoms: C_16  and  C_23
    4  A    between atoms: C_16  and  C_30
                            x       y       z     vdW  Elec       q    Type
                         _______ _______ _______ _____ _____    ______ ____

>  <TORSDO>
F 4

$$$$
=
 OpenBabel11042414053D

 31 35  0  0  1  0  0  0  0  0999 V2000
  188.5330  177.4050  145.0730 C   0  0  0  0  0  0  0  0  0  0  0  0
  188.6390  177.0390  146.5080 C   0  0  0  0  0  3  0  0  0  0  0  0
  189.8440  177.8700  143.0410 N   0  0  0  0  0  0  0  0  0  0  0  0
  189.8060  176.7070  147.0770 C   0  0  0  0  0  3  0  0  0  0  0  0
  191.9660  177.3950  144.0450 N   0  0  0  0  0  0  0  0  0  0  0  0
  191.2890  177.8380  142.8040 C   0  0  0  0  0  3  0  0  0  0  0  0
  191.0940  176.6270  146.2920 C   0  0  0  0  0  0  0  0  0  0  0  0
  189.6850  177.4970  144.3860 C   0  0  0  0  0  0  0  0  0  0  0  0
  190.9290  177.2430  144.9750 N   0  0  0  0  0  0  0  0  0  0  0  0
  185.5820  177.7410  141.1440 C   0  0  0  0  0  3  0  0  0  0  0  0
  187.1900  177.6780  144.4870 C   0  0  0  0  0  0  0  0  0  0  0  0
  186.0910  178.0410  145.2870 C   0  0  0  0  0  3  0  0  0  0  0  0
  185.7600  177.8380  142.5230 C   0  0  0  0  0  0  0  0  0  0  0  0
  183.2600  178.3570  141.4240 C   0  0  0  0  0  0  0  0  0  0  0  0
  187.0060  177.5820  143.0980 C   0  0  0  0  0  3  0  0  0  0  0  0
  184.3290  178.0010  140.5880 C   0  0  0  0  0  3  0  0  0  0  0  0
  183.7760  178.6540  145.5440 O   0  0  0  0  0  1  0  0  0  0  0  0
  184.8390  178.2990  144.7220 C   0  0  0  0  0  0  0  0  0  0  0  0
  184.6660  178.1980  143.3370 C   0  0  0  0  0  0  0  0  0  0  0  0
  183.4540  178.4470  142.7670 N   0  0  0  0  0  0  0  0  0  0  0  0
  180.9510  179.0150  141.6310 N   0  0  0  0  0  2  0  0  0  0  0  0
  181.9300  178.6370  140.8740 C   0  0  0  0  0  3  0  0  0  0  0  0
  191.5090  175.1660  146.1230 C   0  0  0  0  0  2  0  0  0  0  0  0
  192.5240  172.5700  144.4870 Cl  0  0  0  0  0  0  0  0  0  0  0  0
  194.8540  173.4090  145.4320 N   0  0  0  0  0  0  0  0  0  0  0  0
  197.0830  174.1660  145.4140 N   0  0  0  0  0  1  0  0  0  0  0  0
  193.9050  175.8180  146.5500 C   0  0  0  0  0  2  0  0  0  0  0  0
  195.7000  174.3650  145.6800 C   0  0  0  0  0  0  0  0  0  0  0  0
  193.4200  173.5260  145.6960 C   0  0  1  0  0  3  0  0  0  0  0  0
  195.2590  175.6030  146.1570 O   0  0  0  0  0  0  0  0  0  0  0  0
  192.9650  174.9910  145.6790 C   0  0  1  0  0  3  0  0  0  0  0  0
  1  2  2  0  0  0  0
  2  4  1  0  0  0  0
  3  8  2  0  0  0  0
  5  9  1  0  0  0  0
  6  3  1  0  0  0  0
  6  5  2  0  0  0  0
  7  4  2  0  0  0  0
  8  9  1  0  0  0  0
  8  1  1  0  0  0  0
  9  7  1  0  0  0  0
 10 13  1  0  0  0  0
 11  1  1  0  0  0  0
 11 12  1  0  0  0  0
 13 15  1  0  0  0  0
 13 19  2  0  0  0  0
 14 20  2  0  0  0  0
 15 11  2  0  0  0  0
 16 10  2  0  0  0  0
 16 14  1  0  0  0  0
 18 12  2  0  0  0  0
 18 17  1  0  0  0  0
 19 18  1  0  0  0  0
 20 19  1  0  0  0  0
 22 14  1  0  0  0  0
 22 21  2  0  0  0  0
 23  7  1  0  0  0  0
 25 28  2  0  0  0  0
 25 29  1  0  0  0  0
 26 28  1  0  0  0  0
 28 30  1  0  0  0  0
 29 24  1  6  0  0  0
 30 27  1  0  0  0  0
 31 29  1  0  0  0  0
 31 23  1  1  0  0  0
 31 27  1  0  0  0  0
M  END
>  <MODEL>
2

>  <REMARK>
 VINA RESULT:      -8.0      1.882      2.097
  Name = 
  4 active torsions:
  status: ('A' for Active; 'I' for Inactive)
    1  A    between atoms: C_3  and  C_5
    2  A    between atoms: C_9  and  C_24
    3  A    between atoms: C_16  and  C_23
    4  A    between atoms: C_16  and  C_30
                            x       y       z     vdW  Elec       q    Type
                         _______ _______ _______ _____ _____    ______ ____

>  <TORSDO>
F 4

$$$$
=
 OpenBabel11042414053D

 31 35  0  0  1  0  0  0  0  0999 V2000
  189.4640  176.2840  146.1980 C   0  0  0  0  0  0  0  0  0  0  0  0
  190.1930  175.0700  145.7520 C   0  0  0  0  0  3  0  0  0  0  0  0
  189.4970  178.1340  147.8230 N   0  0  0  0  0  0  0  0  0  0  0  0
  191.3960  174.7380  146.2400 C   0  0  0  0  0  3  0  0  0  0  0  0
  191.5920  177.5160  148.8060 N   0  0  0  0  0  0  0  0  0  0  0  0
  190.4680  178.4780  148.8650 C   0  0  0  0  0  3  0  0  0  0  0  0
  192.1270  175.6010  147.2410 C   0  0  0  0  0  0  0  0  0  0  0  0
  190.0170  176.9870  147.2030 C   0  0  0  0  0  0  0  0  0  0  0  0
  191.2300  176.6150  147.7950 N   0  0  0  0  0  0  0  0  0  0  0  0
  186.9180  177.5670  142.1810 C   0  0  0  0  0  3  0  0  0  0  0  0
  188.1700  176.6390  145.5480 C   0  0  0  0  0  0  0  0  0  0  0  0
  186.9670  176.6980  146.2750 C   0  0  0  0  0  3  0  0  0  0  0  0
  186.9430  177.2750  143.5440 C   0  0  0  0  0  0  0  0  0  0  0  0
  184.5350  177.9490  142.3300 C   0  0  0  0  0  0  0  0  0  0  0  0
  188.1410  176.9350  144.1750 C   0  0  0  0  0  3  0  0  0  0  0  0
  185.7110  177.9060  141.5680 C   0  0  0  0  0  3  0  0  0  0  0  0
  184.5930  177.0850  146.4020 O   0  0  0  0  0  1  0  0  0  0  0  0
  185.7620  177.0380  145.6530 C   0  0  0  0  0  0  0  0  0  0  0  0
  185.7440  177.3280  144.2840 C   0  0  0  0  0  0  0  0  0  0  0  0
  184.5800  177.6620  143.6590 N   0  0  0  0  0  0  0  0  0  0  0  0
  183.0950  178.3290  140.4360 N   0  0  0  0  0  2  0  0  0  0  0  0
  183.2490  178.3010  141.7190 C   0  0  0  0  0  3  0  0  0  0  0  0
  193.3160  176.2850  146.5670 C   0  0  0  0  0  2  0  0  0  0  0  0
  195.6700  174.2440  145.7110 Cl  0  0  0  0  0  0  0  0  0  0  0  0
  195.2040  175.3600  143.3520 N   0  0  0  0  0  0  0  0  0  0  0  0
  194.6430  175.5120  141.0710 N   0  0  0  0  0  1  0  0  0  0  0  0
  192.9490  176.8610  144.1410 C   0  0  0  0  0  2  0  0  0  0  0  0
  194.3780  175.7840  142.4410 C   0  0  0  0  0  0  0  0  0  0  0  0
  195.0130  175.6150  144.7800 C   0  0  1  0  0  3  0  0  0  0  0  0
  193.2060  176.4600  142.7980 O   0  0  0  0  0  0  0  0  0  0  0  0
  193.5340  175.8440  145.1160 C   0  0  1  0  0  3  0  0  0  0  0  0
  1  8  1  0  0  0  0
  2  1  2  0  0  0  0
  2  4  1  0  0  0  0
  3  6  1  0  0  0  0
  4  7  2  0  0  0  0
  5  6  2  0  0  0  0
  7  9  1  0  0  0  0
  8  9  1  0  0  0  0
  8  3  2  0  0  0  0
  9  5  1  0  0  0  0
 10 13  1  0  0  0  0
 11  1  1  0  0  0  0
 11 12  1  0  0  0  0
 13 15  1  0  0  0  0
 13 19  2  0  0  0  0
 14 20  2  0  0  0  0
 15 11  2  0  0  0  0
 16 10  2  0  0  0  0
 16 14  1  0  0  0  0
 18 12  2  0  0  0  0
 18 17  1  0  0  0  0
 19 18  1  0  0  0  0
 20 19  1  0  0  0  0
 21 22  2  0  0  0  0
 22 14  1  0  0  0  0
 23  7  1  0  0  0  0
 25 29  1  0  0  0  0
 26 28  1  0  0  0  0
 27 31  1  0  0  0  0
 28 30  1  0  0  0  0
 28 25  2  0  0  0  0
 29 31  1  0  0  0  0
 29 24  1  1  0  0  0
 30 27  1  0  0  0  0
 31 23  1  1  0  0  0
M  END
>  <MODEL>
3

>  <REMARK>
 VINA RESULT:      -7.9      2.589      3.471
  Name = 
  4 active torsions:
  status: ('A' for Active; 'I' for Inactive)
    1  A    between atoms: C_3  and  C_5
    2  A    between atoms: C_9  and  C_24
    3  A    between atoms: C_16  and  C_23
    4  A    between atoms: C_16  and  C_30
                            x       y       z     vdW  Elec       q    Type
                         _______ _______ _______ _____ _____    ______ ____

>  <TORSDO>
F 4

$$$$
=
 OpenBabel11042414053D

 31 35  0  0  1  0  0  0  0  0999 V2000
  189.8270  176.2310  144.2490 C   0  0  0  0  0  0  0  0  0  0  0  0
  189.0650  177.1210  145.1600 C   0  0  0  0  0  3  0  0  0  0  0  0
  189.6660  174.8910  142.1890 N   0  0  0  0  0  0  0  0  0  0  0  0
  187.8270  177.5470  144.8740 C   0  0  0  0  0  3  0  0  0  0  0  0
  187.4120  175.5350  141.6930 N   0  0  0  0  0  0  0  0  0  0  0  0
  188.5540  174.7010  141.2540 C   0  0  0  0  0  3  0  0  0  0  0  0
  187.1330  177.1990  143.5780 C   0  0  0  0  0  0  0  0  0  0  0  0
  189.1760  175.7750  143.1640 C   0  0  0  0  0  0  0  0  0  0  0  0
  187.8510  176.1310  142.8840 N   0  0  0  0  0  0  0  0  0  0  0  0
  193.2690  172.8020  145.0640 C   0  0  0  0  0  3  0  0  0  0  0  0
  191.2320  175.8670  144.5900 C   0  0  0  0  0  0  0  0  0  0  0  0
  192.2090  176.8450  144.8490 C   0  0  0  0  0  3  0  0  0  0  0  0
  192.9080  174.1470  144.9890 C   0  0  0  0  0  0  0  0  0  0  0  0
  195.5240  173.4640  145.6360 C   0  0  0  0  0  0  0  0  0  0  0  0
  191.6000  174.5140  144.6670 C   0  0  0  0  0  3  0  0  0  0  0  0
  194.5810  172.4550  145.3880 C   0  0  0  0  0  3  0  0  0  0  0  0
  194.4600  177.4830  145.4210 O   0  0  0  0  0  1  0  0  0  0  0  0
  193.5210  176.4890  145.1730 C   0  0  0  0  0  0  0  0  0  0  0  0
  193.8780  175.1380  145.2440 C   0  0  0  0  0  0  0  0  0  0  0  0
  195.1520  174.7710  145.5590 N   0  0  0  0  0  0  0  0  0  0  0  0
  197.5670  172.2200  145.3440 N   0  0  0  0  0  2  0  0  0  0  0  0
  196.9110  173.1360  145.9790 C   0  0  0  0  0  3  0  0  0  0  0  0
  187.0590  178.4340  142.6800 C   0  0  0  0  0  2  0  0  0  0  0  0
  184.5120  179.0990  144.5540 Cl  0  0  0  0  0  0  0  0  0  0  0  0
  183.2330  178.2910  142.3780 N   0  0  0  0  0  0  0  0  0  0  0  0
  181.7720  178.3770  140.5340 N   0  0  0  0  0  1  0  0  0  0  0  0
  185.5100  178.0530  140.7300 C   0  0  0  0  0  2  0  0  0  0  0  0
  183.0790  178.2910  141.0870 C   0  0  0  0  0  0  0  0  0  0  0  0
  184.5410  178.1850  143.0240 C   0  0  1  0  0  3  0  0  0  0  0  0
  184.1890  178.2570  140.2350 O   0  0  0  0  0  0  0  0  0  0  0  0
  185.6620  178.6910  142.1070 C   0  0  1  0  0  3  0  0  0  0  0  0
  1 11  1  0  0  0  0
  1  2  2  0  0  0  0
  3  8  2  0  0  0  0
  4  2  1  0  0  0  0
  5  9  1  0  0  0  0
  6  5  2  0  0  0  0
  6  3  1  0  0  0  0
  7  4  2  0  0  0  0
  8  1  1  0  0  0  0
  9  8  1  0  0  0  0
  9  7  1  0  0  0  0
 10 16  1  0  0  0  0
 11 15  2  0  0  0  0
 11 12  1  0  0  0  0
 12 18  2  0  0  0  0
 13 10  2  0  0  0  0
 13 19  1  0  0  0  0
 14 22  1  0  0  0  0
 15 13  1  0  0  0  0
 16 14  2  0  0  0  0
 18 19  1  0  0  0  0
 18 17  1  0  0  0  0
 19 20  2  0  0  0  0
 20 14  1  0  0  0  0
 21 22  2  0  0  0  0
 23  7  1  0  0  0  0
 25 29  1  0  0  0  0
 26 28  1  0  0  0  0
 27 31  1  0  0  0  0
 28 25  2  0  0  0  0
 29 24  1  1  0  0  0
 30 27  1  0  0  0  0
 30 28  1  0  0  0  0
 31 23  1  1  0  0  0
 31 29  1  0  0  0  0
M  END
>  <MODEL>
4

>  <REMARK>
 VINA RESULT:      -7.9      2.456      9.898
  Name = 
  4 active torsions:
  status: ('A' for Active; 'I' for Inactive)
    1  A    between atoms: C_3  and  C_5
    2  A    between atoms: C_9  and  C_24
    3  A    between atoms: C_16  and  C_23
    4  A    between atoms: C_16  and  C_30
                            x       y       z     vdW  Elec       q    Type
                         _______ _______ _______ _____ _____    ______ ____

>  <TORSDO>
F 4

$$$$
=
 OpenBabel11042414053D

 31 35  0  0  1  0  0  0  0  0999 V2000
  192.7650  175.2660  145.0080 C   0  0  0  0  0  0  0  0  0  0  0  0
  192.4270  175.7170  143.6350 C   0  0  0  0  0  3  0  0  0  0  0  0
  192.2270  175.5830  147.3910 N   0  0  0  0  0  0  0  0  0  0  0  0
  191.4020  176.5440  143.3860 C   0  0  0  0  0  3  0  0  0  0  0  0
  190.4580  177.1510  147.0020 N   0  0  0  0  0  0  0  0  0  0  0  0
  191.2360  176.4410  148.0440 C   0  0  0  0  0  3  0  0  0  0  0  0
  190.4780  177.0370  144.4750 C   0  0  0  0  0  0  0  0  0  0  0  0
  192.0600  175.8130  146.0150 C   0  0  0  0  0  0  0  0  0  0  0  0
  191.0420  176.7470  145.7930 N   0  0  0  0  0  0  0  0  0  0  0  0
  194.2590  170.6080  145.5880 C   0  0  0  0  0  3  0  0  0  0  0  0
  193.8630  174.2780  145.2020 C   0  0  0  0  0  0  0  0  0  0  0  0
  195.2090  174.6740  145.2990 C   0  0  0  0  0  3  0  0  0  0  0  0
  194.5670  171.9650  145.4900 C   0  0  0  0  0  0  0  0  0  0  0  0
  196.6110  170.1180  145.8640 C   0  0  0  0  0  0  0  0  0  0  0  0
  193.5570  172.9100  145.3030 C   0  0  0  0  0  3  0  0  0  0  0  0
  195.2820  169.6780  145.7750 C   0  0  0  0  0  3  0  0  0  0  0  0
  197.5470  174.1640  145.5770 O   0  0  0  0  0  1  0  0  0  0  0  0
  196.2290  173.7360  145.4870 C   0  0  0  0  0  0  0  0  0  0  0  0
  195.9130  172.3760  145.5830 C   0  0  0  0  0  0  0  0  0  0  0  0
  196.8920  171.4460  145.7660 N   0  0  0  0  0  0  0  0  0  0  0  0
  197.7690  168.4050  147.1020 N   0  0  0  0  0  2  0  0  0  0  0  0
  197.7120  169.1690  146.0600 C   0  0  0  0  0  3  0  0  0  0  0  0
  189.1130  176.3610  144.3440 C   0  0  0  0  0  2  0  0  0  0  0  0
  187.1040  176.4430  146.8730 Cl  0  0  0  0  0  0  0  0  0  0  0  0
  185.5650  177.6360  145.0740 N   0  0  0  0  0  0  0  0  0  0  0  0
  184.2360  179.3130  144.0920 N   0  0  0  0  0  1  0  0  0  0  0  0
  187.5090  177.8000  143.0380 C   0  0  0  0  0  2  0  0  0  0  0  0
  185.4010  178.4980  144.1140 C   0  0  0  0  0  0  0  0  0  0  0  0
  186.7240  176.7470  145.1580 C   0  0  1  0  0  3  0  0  0  0  0  0
  186.3810  178.6670  143.1310 O   0  0  0  0  0  0  0  0  0  0  0  0
  187.9370  177.3390  144.4270 C   0  0  1  0  0  3  0  0  0  0  0  0
  1 11  1  0  0  0  0
  1  8  1  0  0  0  0
  2  1  2  0  0  0  0
  3  6  1  0  0  0  0
  4  2  1  0  0  0  0
  4  7  2  0  0  0  0
  5  6  2  0  0  0  0
  7  9  1  0  0  0  0
  8  3  2  0  0  0  0
  9  8  1  0  0  0  0
  9  5  1  0  0  0  0
 10 16  1  0  0  0  0
 11 12  1  0  0  0  0
 11 15  2  0  0  0  0
 12 18  2  0  0  0  0
 13 19  1  0  0  0  0
 13 10  2  0  0  0  0
 14 22  1  0  0  0  0
 15 13  1  0  0  0  0
 16 14  2  0  0  0  0
 18 17  1  0  0  0  0
 18 19  1  0  0  0  0
 19 20  2  0  0  0  0
 20 14  1  0  0  0  0
 22 21  2  0  0  0  0
 23  7  1  0  0  0  0
 25 29  1  0  0  0  0
 26 28  1  0  0  0  0
 27 30  1  0  0  0  0
 27 31  1  0  0  0  0
 28 25  2  0  0  0  0
 29 24  1  1  0  0  0
 30 28  1  0  0  0  0
 31 23  1  6  0  0  0
 31 29  1  0  0  0  0
M  END
>  <MODEL>
5

>  <REMARK>
 VINA RESULT:      -7.8      2.821     10.526
  Name = 
  4 active torsions:
  status: ('A' for Active; 'I' for Inactive)
    1  A    between atoms: C_3  and  C_5
    2  A    between atoms: C_9  and  C_24
    3  A    between atoms: C_16  and  C_23
    4  A    between atoms: C_16  and  C_30
                            x       y       z     vdW  Elec       q    Type
                         _______ _______ _______ _____ _____    ______ ____

>  <TORSDO>
F 4

$$$$
=
 OpenBabel11042414053D

 31 35  0  0  1  0  0  0  0  0999 V2000
  189.0890  176.7820  142.7940 C   0  0  0  0  0  0  0  0  0  0  0  0
  190.1150  177.7760  143.1990 C   0  0  0  0  0  3  0  0  0  0  0  0
  188.7710  174.4960  141.9340 N   0  0  0  0  0  0  0  0  0  0  0  0
  191.4160  177.4680  143.2820 C   0  0  0  0  0  3  0  0  0  0  0  0
  191.1000  173.9350  141.9580 N   0  0  0  0  0  0  0  0  0  0  0  0
  189.7430  173.4470  141.6200 C   0  0  0  0  0  3  0  0  0  0  0  0
  191.9340  176.0730  143.0220 C   0  0  0  0  0  0  0  0  0  0  0  0
  189.5370  175.5760  142.4030 C   0  0  0  0  0  0  0  0  0  0  0  0
  190.9000  175.2520  142.3930 N   0  0  0  0  0  0  0  0  0  0  0  0
  184.9510  177.9120  140.3720 C   0  0  0  0  0  3  0  0  0  0  0  0
  187.6500  177.1700  142.8080 C   0  0  0  0  0  0  0  0  0  0  0  0
  186.9470  177.3660  144.0100 C   0  0  0  0  0  3  0  0  0  0  0  0
  185.6230  177.7270  141.5800 C   0  0  0  0  0  0  0  0  0  0  0  0
  182.9430  178.4630  141.6020 C   0  0  0  0  0  0  0  0  0  0  0  0
  186.9700  177.3580  141.5940 C   0  0  0  0  0  3  0  0  0  0  0  0
  183.6050  178.2810  140.3790 C   0  0  0  0  0  3  0  0  0  0  0  0
  184.9360  177.9190  145.2150 O   0  0  0  0  0  1  0  0  0  0  0  0
  185.5990  177.7360  144.0080 C   0  0  0  0  0  0  0  0  0  0  0  0
  184.9290  177.9180  142.7930 C   0  0  0  0  0  0  0  0  0  0  0  0
  183.6160  178.2790  142.7700 N   0  0  0  0  0  0  0  0  0  0  0  0
  181.0140  179.4110  142.6920 N   0  0  0  0  0  2  0  0  0  0  0  0
  181.5290  178.8510  141.6470 C   0  0  0  0  0  3  0  0  0  0  0  0
  192.3690  175.4270  144.3370 C   0  0  0  0  0  2  0  0  0  0  0  0
  194.5760  177.4330  145.5810 Cl  0  0  0  0  0  0  0  0  0  0  0  0
  192.9940  177.1860  147.6940 N   0  0  0  0  0  0  0  0  0  0  0  0
  191.5650  177.8290  149.4500 N   0  0  0  0  0  1  0  0  0  0  0  0
  190.9660  175.7020  146.4120 C   0  0  0  0  0  2  0  0  0  0  0  0
  191.8070  177.1510  148.2250 C   0  0  0  0  0  0  0  0  0  0  0  0
  193.3300  176.4980  146.4470 C   0  0  1  0  0  3  0  0  0  0  0  0
  190.7550  176.4950  147.5780 O   0  0  0  0  0  0  0  0  0  0  0  0
  192.0890  176.2960  145.5670 C   0  0  1  0  0  3  0  0  0  0  0  0
  1 11  1  0  0  0  0
  1  2  2  0  0  0  0
  2  4  1  0  0  0  0
  3  8  2  0  0  0  0
  5  9  1  0  0  0  0
  6  3  1  0  0  0  0
  6  5  2  0  0  0  0
  7  4  2  0  0  0  0
  7 23  1  0  0  0  0
  8  1  1  0  0  0  0
  9  8  1  0  0  0  0
  9  7  1  0  0  0  0
 10 16  2  0  0  0  0
 10 13  1  0  0  0  0
 11 12  1  0  0  0  0
 13 15  1  0  0  0  0
 13 19  2  0  0  0  0
 14 22  1  0  0  0  0
 14 20  2  0  0  0  0
 15 11  2  0  0  0  0
 16 14  1  0  0  0  0
 18 12  2  0  0  0  0
 18 17  1  0  0  0  0
 19 18  1  0  0  0  0
 20 19  1  0  0  0  0
 22 21  2  0  0  0  0
 25 28  2  0  0  0  0
 27 30  1  0  0  0  0
 28 26  1  0  0  0  0
 29 24  1  6  0  0  0
 29 25  1  0  0  0  0
 30 28  1  0  0  0  0
 31 23  1  6  0  0  0
 31 27  1  0  0  0  0
 31 29  1  0  0  0  0
M  END
>  <MODEL>
6

>  <REMARK>
 VINA RESULT:      -7.8      2.071      2.488
  Name = 
  4 active torsions:
  status: ('A' for Active; 'I' for Inactive)
    1  A    between atoms: C_3  and  C_5
    2  A    between atoms: C_9  and  C_24
    3  A    between atoms: C_16  and  C_23
    4  A    between atoms: C_16  and  C_30
                            x       y       z     vdW  Elec       q    Type
                         _______ _______ _______ _____ _____    ______ ____

>  <TORSDO>
F 4

$$$$
=
 OpenBabel11042414053D

 31 35  0  0  1  0  0  0  0  0999 V2000
  188.6700  176.6200  144.8820 C   0  0  0  0  0  0  0  0  0  0  0  0
  188.7140  175.5790  145.9390 C   0  0  0  0  0  3  0  0  0  0  0  0
  190.0590  178.1530  143.5460 N   0  0  0  0  0  0  0  0  0  0  0  0
  189.8680  175.0850  146.4090 C   0  0  0  0  0  3  0  0  0  0  0  0
  192.1440  177.3810  144.4380 N   0  0  0  0  0  0  0  0  0  0  0  0
  191.5110  178.3490  143.5130 C   0  0  0  0  0  3  0  0  0  0  0  0
  191.2110  175.5100  145.8620 C   0  0  0  0  0  0  0  0  0  0  0  0
  189.8490  177.1330  144.4880 C   0  0  0  0  0  0  0  0  0  0  0  0
  191.0680  176.7010  145.0250 N   0  0  0  0  0  0  0  0  0  0  0  0
  185.7030  177.5000  141.0500 C   0  0  0  0  0  3  0  0  0  0  0  0
  187.3510  177.0600  144.3450 C   0  0  0  0  0  0  0  0  0  0  0  0
  186.3060  177.4730  145.1910 C   0  0  0  0  0  3  0  0  0  0  0  0
  185.9120  177.4870  142.4280 C   0  0  0  0  0  0  0  0  0  0  0  0
  183.4570  178.3170  141.4210 C   0  0  0  0  0  0  0  0  0  0  0  0
  187.1360  177.0750  142.9570 C   0  0  0  0  0  3  0  0  0  0  0  0
  184.4720  177.9160  140.5400 C   0  0  0  0  0  3  0  0  0  0  0  0
  184.0660  178.2890  145.5390 O   0  0  0  0  0  1  0  0  0  0  0  0
  185.0760  177.8880  144.6720 C   0  0  0  0  0  0  0  0  0  0  0  0
  184.8720  177.8970  143.2880 C   0  0  0  0  0  0  0  0  0  0  0  0
  183.6810  178.2990  142.7630 N   0  0  0  0  0  0  0  0  0  0  0  0
  181.1510  178.9490  141.7180 N   0  0  0  0  0  2  0  0  0  0  0  0
  182.1520  178.7600  140.9210 C   0  0  0  0  0  3  0  0  0  0  0  0
  191.8180  174.3760  145.0370 C   0  0  0  0  0  2  0  0  0  0  0  0
  189.6780  171.9550  145.0130 Cl  0  0  0  0  0  0  0  0  0  0  0  0
  190.0880  172.1800  142.4030 N   0  0  0  0  0  0  0  0  0  0  0  0
  189.5890  172.5100  140.1270 N   0  0  0  0  0  1  0  0  0  0  0  0
  191.6920  174.4970  142.5240 C   0  0  0  0  0  2  0  0  0  0  0  0
  190.2230  172.9090  141.3350 C   0  0  0  0  0  0  0  0  0  0  0  0
  190.7220  172.5110  143.6790 C   0  0  1  0  0  3  0  0  0  0  0  0
  190.9420  174.1080  141.3750 O   0  0  0  0  0  0  0  0  0  0  0  0
  190.9990  174.0160  143.7940 C   0  0  1  0  0  3  0  0  0  0  0  0
  1  2  2  0  0  0  0
  2  4  1  0  0  0  0
  3  8  2  0  0  0  0
  5  9  1  0  0  0  0
  6  3  1  0  0  0  0
  6  5  2  0  0  0  0
  7  4  2  0  0  0  0
  8  1  1  0  0  0  0
  8  9  1  0  0  0  0
  9  7  1  0  0  0  0
 10 13  1  0  0  0  0
 11  1  1  0  0  0  0
 11 12  1  0  0  0  0
 13 15  1  0  0  0  0
 13 19  2  0  0  0  0
 14 20  2  0  0  0  0
 15 11  2  0  0  0  0
 16 10  2  0  0  0  0
 16 14  1  0  0  0  0
 18 12  2  0  0  0  0
 18 17  1  0  0  0  0
 19 18  1  0  0  0  0
 20 19  1  0  0  0  0
 22 14  1  0  0  0  0
 22 21  2  0  0  0  0
 23  7  1  0  0  0  0
 25 29  1  0  0  0  0
 26 28  1  0  0  0  0
 27 31  1  0  0  0  0
 28 30  1  0  0  0  0
 28 25  2  0  0  0  0
 29 31  1  0  0  0  0
 29 24  1  1  0  0  0
 30 27  1  0  0  0  0
 31 23  1  1  0  0  0
M  END
>  <MODEL>
7

>  <REMARK>
 VINA RESULT:      -7.8      2.622      3.688
  Name = 
  4 active torsions:
  status: ('A' for Active; 'I' for Inactive)
    1  A    between atoms: C_3  and  C_5
    2  A    between atoms: C_9  and  C_24
    3  A    between atoms: C_16  and  C_23
    4  A    between atoms: C_16  and  C_30
                            x       y       z     vdW  Elec       q    Type
                         _______ _______ _______ _____ _____    ______ ____

>  <TORSDO>
F 4

$$$$
=
 OpenBabel11042414053D

 31 35  0  0  1  0  0  0  0  0999 V2000
  191.9440  176.3580  144.5580 C   0  0  0  0  0  0  0  0  0  0  0  0
  191.5230  176.9310  143.2550 C   0  0  0  0  0  3  0  0  0  0  0  0
  191.4370  176.3230  146.9680 N   0  0  0  0  0  0  0  0  0  0  0  0
  190.4070  177.6620  143.1220 C   0  0  0  0  0  3  0  0  0  0  0  0
  189.4990  177.7190  146.7970 N   0  0  0  0  0  0  0  0  0  0  0  0
  190.3760  176.9800  147.7340 C   0  0  0  0  0  3  0  0  0  0  0  0
  189.4650  177.9140  144.2750 C   0  0  0  0  0  0  0  0  0  0  0  0
  191.2110  176.6970  145.6330 C   0  0  0  0  0  0  0  0  0  0  0  0
  190.0910  177.5320  145.5410 N   0  0  0  0  0  0  0  0  0  0  0  0
  193.9760  171.9480  145.3860 C   0  0  0  0  0  3  0  0  0  0  0  0
  193.1490  175.4820  144.6150 C   0  0  0  0  0  0  0  0  0  0  0  0
  194.4360  175.9720  144.3320 C   0  0  0  0  0  3  0  0  0  0  0  0
  194.1210  173.2900  145.0350 C   0  0  0  0  0  0  0  0  0  0  0  0
  196.3650  171.6540  145.1540 C   0  0  0  0  0  0  0  0  0  0  0  0
  193.0080  174.1300  144.9690 C   0  0  0  0  0  3  0  0  0  0  0  0
  195.1000  171.1240  145.4470 C   0  0  0  0  0  3  0  0  0  0  0  0
  196.8140  175.6590  144.1090 O   0  0  0  0  0  1  0  0  0  0  0  0
  195.5580  175.1400  144.3960 C   0  0  0  0  0  0  0  0  0  0  0  0
  195.4060  173.7940  144.7470 C   0  0  0  0  0  0  0  0  0  0  0  0
  196.4860  172.9670  144.8140 N   0  0  0  0  0  0  0  0  0  0  0  0
  197.9120  170.0620  144.2170 N   0  0  0  0  0  2  0  0  0  0  0  0
  197.5690  170.8180  145.2080 C   0  0  0  0  0  3  0  0  0  0  0  0
  188.1780  177.1120  144.0800 C   0  0  0  0  0  2  0  0  0  0  0  0
  185.9410  179.2560  144.9930 Cl  0  0  0  0  0  0  0  0  0  0  0  0
  184.8680  178.4820  142.6950 N   0  0  0  0  0  0  0  0  0  0  0  0
  183.9960  178.6510  140.5150 N   0  0  0  0  0  1  0  0  0  0  0  0
  187.0310  176.8820  141.8480 C   0  0  0  0  0  2  0  0  0  0  0  0
  184.9790  178.1890  141.4330 C   0  0  0  0  0  0  0  0  0  0  0  0
  185.8250  178.0280  143.7050 C   0  0  1  0  0  3  0  0  0  0  0  0
  186.0810  177.4680  140.9610 O   0  0  0  0  0  0  0  0  0  0  0  0
  187.2020  177.7530  143.0890 C   0  0  1  0  0  3  0  0  0  0  0  0
  1 11  1  0  0  0  0
  1  8  1  0  0  0  0
  2  1  2  0  0  0  0
  3  6  1  0  0  0  0
  4  2  1  0  0  0  0
  4  7  2  0  0  0  0
  5  6  2  0  0  0  0
  7  9  1  0  0  0  0
  8  3  2  0  0  0  0
  9  8  1  0  0  0  0
  9  5  1  0  0  0  0
 10 16  1  0  0  0  0
 11 15  2  0  0  0  0
 12 18  2  0  0  0  0
 12 11  1  0  0  0  0
 13 10  2  0  0  0  0
 14 22  1  0  0  0  0
 14 16  2  0  0  0  0
 15 13  1  0  0  0  0
 17 18  1  0  0  0  0
 18 19  1  0  0  0  0
 19 20  2  0  0  0  0
 19 13  1  0  0  0  0
 20 14  1  0  0  0  0
 21 22  2  0  0  0  0
 23  7  1  0  0  0  0
 25 29  1  0  0  0  0
 26 28  1  0  0  0  0
 27 31  1  0  0  0  0
 28 25  2  0  0  0  0
 29 24  1  1  0  0  0
 30 28  1  0  0  0  0
 30 27  1  0  0  0  0
 31 29  1  0  0  0  0
 31 23  1  1  0  0  0
M  END
>  <MODEL>
8

>  <REMARK>
 VINA RESULT:      -7.6      2.742     10.174
  Name = 
  4 active torsions:
  status: ('A' for Active; 'I' for Inactive)
    1  A    between atoms: C_3  and  C_5
    2  A    between atoms: C_9  and  C_24
    3  A    between atoms: C_16  and  C_23
    4  A    between atoms: C_16  and  C_30
                            x       y       z     vdW  Elec       q    Type
                         _______ _______ _______ _____ _____    ______ ____

>  <TORSDO>
F 4

$$$$
=
 OpenBabel11042414053D

 31 35  0  0  1  0  0  0  0  0999 V2000
  189.0880  176.4500  144.1600 C   0  0  0  0  0  0  0  0  0  0  0  0
  189.8760  175.5940  143.2380 C   0  0  0  0  0  3  0  0  0  0  0  0
  189.0990  177.5060  146.3850 N   0  0  0  0  0  0  0  0  0  0  0  0
  191.1370  175.2270  143.5040 C   0  0  0  0  0  3  0  0  0  0  0  0
  191.3100  176.7800  146.9530 N   0  0  0  0  0  0  0  0  0  0  0  0
  190.1190  177.5150  147.4360 C   0  0  0  0  0  3  0  0  0  0  0  0
  191.8730  175.7010  144.7350 C   0  0  0  0  0  0  0  0  0  0  0  0
  189.6600  176.7570  145.3380 C   0  0  0  0  0  0  0  0  0  0  0  0
  190.9430  176.3140  145.6830 N   0  0  0  0  0  0  0  0  0  0  0  0
  185.8250  177.5590  140.6400 C   0  0  0  0  0  3  0  0  0  0  0  0
  187.7220  176.8910  143.7590 C   0  0  0  0  0  0  0  0  0  0  0  0
  186.7320  177.1960  144.7100 C   0  0  0  0  0  3  0  0  0  0  0  0
  186.1350  177.4350  141.9940 C   0  0  0  0  0  0  0  0  0  0  0  0
  183.5930  178.2680  141.2410 C   0  0  0  0  0  0  0  0  0  0  0  0
  187.4060  177.0190  142.3960 C   0  0  0  0  0  3  0  0  0  0  0  0
  184.5500  177.9770  140.2580 C   0  0  0  0  0  3  0  0  0  0  0  0
  184.5030  177.9050  145.2860 O   0  0  0  0  0  1  0  0  0  0  0  0
  185.4570  177.6140  144.3190 C   0  0  0  0  0  0  0  0  0  0  0  0
  185.1510  177.7350  142.9580 C   0  0  0  0  0  0  0  0  0  0  0  0
  183.9140  178.1410  142.5570 N   0  0  0  0  0  0  0  0  0  0  0  0
  181.2220  178.4600  141.6300 N   0  0  0  0  0  2  0  0  0  0  0  0
  182.2430  178.7090  140.8760 C   0  0  0  0  0  3  0  0  0  0  0  0
  192.9450  176.7180  144.3410 C   0  0  0  0  0  2  0  0  0  0  0  0
  195.0580  176.4510  141.9110 Cl  0  0  0  0  0  0  0  0  0  0  0  0
  196.1970  174.7980  143.6420 N   0  0  0  0  0  0  0  0  0  0  0  0
  197.8560  173.9000  145.0490 N   0  0  0  0  0  1  0  0  0  0  0  0
  194.4750  175.3530  145.8050 C   0  0  0  0  0  2  0  0  0  0  0  0
  196.5890  174.5120  144.8480 C   0  0  0  0  0  0  0  0  0  0  0  0
  194.9000  175.4090  143.3490 C   0  0  1  0  0  3  0  0  0  0  0  0
  195.7990  174.8470  145.9530 O   0  0  0  0  0  0  0  0  0  0  0  0
  194.3750  176.2100  144.5480 C   0  0  1  0  0  3  0  0  0  0  0  0
  1  8  1  0  0  0  0
  2  4  1  0  0  0  0
  2  1  2  0  0  0  0
  3  6  1  0  0  0  0
  4  7  2  0  0  0  0
  5  6  2  0  0  0  0
  7  9  1  0  0  0  0
  8  9  1  0  0  0  0
  8  3  2  0  0  0  0
  9  5  1  0  0  0  0
 10 13  1  0  0  0  0
 11  1  1  0  0  0  0
 11 12  1  0  0  0  0
 13 15  1  0  0  0  0
 13 19  2  0  0  0  0
 14 20  2  0  0  0  0
 15 11  2  0  0  0  0
 16 10  2  0  0  0  0
 16 14  1  0  0  0  0
 18 12  2  0  0  0  0
 18 17  1  0  0  0  0
 19 18  1  0  0  0  0
 20 19  1  0  0  0  0
 22 14  1  0  0  0  0
 22 21  2  0  0  0  0
 23  7  1  0  0  0  0
 25 28  2  0  0  0  0
 27 30  1  0  0  0  0
 28 26  1  0  0  0  0
 28 30  1  0  0  0  0
 29 24  1  6  0  0  0
 29 25  1  0  0  0  0
 29 31  1  0  0  0  0
 31 23  1  6  0  0  0
 31 27  1  0  0  0  0
M  END
>  <MODEL>
9

>  <REMARK>
 VINA RESULT:      -7.5      1.783      2.373
  Name = 
  4 active torsions:
  status: ('A' for Active; 'I' for Inactive)
    1  A    between atoms: C_3  and  C_5
    2  A    between atoms: C_9  and  C_24
    3  A    between atoms: C_16  and  C_23
    4  A    between atoms: C_16  and  C_30
                            x       y       z     vdW  Elec       q    Type
                         _______ _______ _______ _____ _____    ______ ____

>  <TORSDO>
F 4

$$$$
