=
 OpenBabel11042414163D

 45 50  0  0  1  0  0  0  0  0999 V2000
  190.7970  172.8930  143.0480 C   0  0  0  0  0  2  0  0  0  0  0  0
  194.4440  175.1160  142.8250 C   0  0  0  0  0  0  0  0  0  0  0  0
  189.4470  172.8810  145.4850 O   0  0  0  0  0  0  0  0  0  0  0  0
  192.0290  172.3280  142.3550 C   0  0  1  0  0  3  0  0  0  0  0  0
  189.8270  175.2020  145.8390 C   0  0  2  0  0  3  0  0  0  0  0  0
  190.1110  173.9050  145.1610 C   0  0  0  0  0  0  0  0  0  0  0  0
  196.2290  176.1700  141.4260 C   0  0  0  0  0  2  0  0  0  0  0  0
  194.8440  176.0430  143.9060 C   0  0  0  0  0  0  0  0  0  0  0  0
  190.8310  175.3720  146.9470 C   0  0  0  0  0  2  0  0  0  0  0  0
  192.9080  173.4580  141.8420 C   0  0  0  0  0  2  0  0  0  0  0  0
  195.9840  176.7390  143.8430 C   0  0  0  0  0  3  0  0  0  0  0  0
  192.8680  176.6860  147.0300 N   0  0  0  0  0  0  0  0  0  0  0  0
  193.9320  176.1960  144.9860 N   0  0  0  0  0  0  0  0  0  0  0  0
  192.7180  175.4750  145.0780 C   0  0  0  0  0  0  0  0  0  0  0  0
  194.9560  177.6760  146.5230 O   0  0  0  0  0  0  0  0  0  0  0  0
  192.3360  174.6170  144.0970 C   0  0  0  0  0  0  0  0  0  0  0  0
  193.2810  174.4280  142.9310 C   0  0  0  0  0  0  0  0  0  0  0  0
  194.0020  176.9190  146.2030 C   0  0  0  0  0  0  0  0  0  0  0  0
  191.1290  173.8010  144.1510 N   0  0  0  0  0  0  0  0  0  0  0  0
  192.1140  175.8540  146.3770 C   0  0  0  0  0  0  0  0  0  0  0  0
  196.9590  176.5420  142.7150 C   0  0  0  0  0  2  0  0  0  0  0  0
  195.3790  174.9210  141.6540 C   0  0  0  0  0  2  0  0  0  0  0  0
  192.7760  171.3320  143.1990 C   0  0  0  0  0  0  0  0  0  0  0  0
  192.2330  170.7740  144.1410 O   0  0  0  0  0  0  0  0  0  0  0  0
  194.5030  170.9860  142.8420 S   0  0  0  0  0  0  0  0  0  0  0  0
  196.2800  171.7010  144.8510 C   0  0  1  0  0  3  0  0  0  0  0  0
  197.1950  170.8760  145.6180 N   0  0  0  0  0  2  0  0  0  0  0  0
  195.3910  169.4930  144.9270 N   0  0  0  0  0  2  0  0  0  0  0  0
  195.0540  170.8600  144.5820 C   0  0  2  0  0  3  0  0  0  0  0  0
  196.5060  169.6130  145.8520 C   0  0  0  0  0  2  0  0  0  0  0  0
  195.9150  172.9400  145.6510 C   0  0  0  0  0  2  0  0  0  0  0  0
  197.1290  173.8320  145.8300 C   0  0  0  0  0  1  0  0  0  0  0  0
  188.5340  175.2140  146.3680 O   0  0  0  0  0  0  0  0  0  0  0  0
  188.2200  176.5670  146.5220 C   0  0  0  0  0  2  0  0  0  0  0  0
  186.7510  176.7230  146.8700 C   0  0  0  0  0  2  0  0  0  0  0  0
  186.1190  177.8000  146.0060 C   0  0  0  0  0  2  0  0  0  0  0  0
  187.0120  178.1150  144.8190 C   0  0  0  0  0  2  0  0  0  0  0  0
  186.3620  177.7060  143.5830 N   0  0  0  0  0  2  0  0  0  0  0  0
  187.2800  177.9990  142.4920 C   0  0  2  0  0  3  0  0  0  0  0  0
  186.6120  177.7760  141.1730 C   0  0  0  0  0  0  0  0  0  0  0  0
  185.3780  178.3600  140.9230 O   0  0  0  0  0  1  0  0  0  0  0  0
  187.1670  177.0810  140.2810 O   0  0  0  0  0  0  0  0  0  0  0  0
  188.4300  175.8500  142.8860 F   0  0  0  0  0  0  0  0  0  0  0  0
  188.5280  177.1750  142.6120 C   0  0  0  0  0  0  0  0  0  0  0  0
  189.6280  177.6830  142.4650 O   0  0  0  0  0  0  0  0  0  0  0  0
  1 19  1  0  0  0  0
  2 17  2  0  0  0  0
  2  8  1  0  0  0  0
  4  1  1  0  0  0  0
  4 23  1  1  0  0  0
  5 33  1  1  0  0  0
  5  9  1  0  0  0  0
  6  3  2  0  0  0  0
  6  5  1  0  0  0  0
  7 22  1  0  0  0  0
  7 21  1  0  0  0  0
  8 13  1  0  0  0  0
 10  4  1  0  0  0  0
 10 17  1  0  0  0  0
 11  8  2  0  0  0  0
 13 14  1  0  0  0  0
 13 18  1  0  0  0  0
 14 20  1  0  0  0  0
 16 19  1  0  0  0  0
 16 14  2  0  0  0  0
 17 16  1  0  0  0  0
 18 15  2  0  0  0  0
 18 12  1  0  0  0  0
 19  6  1  0  0  0  0
 20  9  1  0  0  0  0
 20 12  2  0  0  0  0
 21 11  1  0  0  0  0
 22  2  1  0  0  0  0
 23 24  2  0  0  0  0
 25 23  1  0  0  0  0
 26 27  1  0  0  0  0
 26 31  1  1  0  0  0
 27 30  1  0  0  0  0
 28 30  1  0  0  0  0
 29 25  1  6  0  0  0
 29 26  1  0  0  0  0
 29 28  1  0  0  0  0
 31 32  1  0  0  0  0
 33 34  1  0  0  0  0
 34 35  1  0  0  0  0
 36 35  1  0  0  0  0
 37 36  1  0  0  0  0
 38 37  1  0  0  0  0
 39 40  1  6  0  0  0
 39 44  1  0  0  0  0
 39 38  1  0  0  0  0
 41 40  1  0  0  0  0
 42 40  2  0  0  0  0
 44 43  1  0  0  0  0
 45 44  2  0  0  0  0
M  END
>  <MODEL>
1

>  <REMARK>
 VINA RESULT:      -6.8      0.000      0.000
  Name = 
  13 active torsions:
  status: ('A' for Active; 'I' for Inactive)
    1  A    between atoms: CA_2  and  C_13
    2  A    between atoms: CA_2  and  N_41
    3  A    between atoms: CA_2  and  C_42
    4  A    between atoms: S_4  and  C_14
    5  A    between atoms: S_4  and  C_20
    6  A    between atoms: C_5  and  C_30
    7  A    between atoms: C_8  and  C_14
    8  A    between atoms: C_9  and  O_18
    9  A    between atoms: C_9  and  C_38
   10  A    between atoms: C_10  and  O_18
   11  A    between atoms: C_12  and  C_34
   12  A    between atoms: C_12  and  N_41
   13  A    between atoms: C_34  and  C_38
                            x       y       z     vdW  Elec       q    Type
                         _______ _______ _______ _____ _____    ______ ____

>  <TORSDO>
F 13

$$$$
=
 OpenBabel11042414163D

 45 50  0  0  1  0  0  0  0  0999 V2000
  190.9410  172.7630  142.8380 C   0  0  0  0  0  2  0  0  0  0  0  0
  194.6000  174.9690  142.6310 C   0  0  0  0  0  0  0  0  0  0  0  0
  189.5350  172.8290  145.2430 O   0  0  0  0  0  0  0  0  0  0  0  0
  192.1860  172.1740  142.1910 C   0  0  1  0  0  3  0  0  0  0  0  0
  189.9160  175.1580  145.5350 C   0  0  2  0  0  3  0  0  0  0  0  0
  190.2100  173.8410  144.9040 C   0  0  0  0  0  0  0  0  0  0  0  0
  196.4200  175.9750  141.2430 C   0  0  0  0  0  2  0  0  0  0  0  0
  194.9780  175.9260  143.6930 C   0  0  0  0  0  0  0  0  0  0  0  0
  190.8940  175.3590  146.6610 C   0  0  0  0  0  2  0  0  0  0  0  0
  193.0810  173.2860  141.6650 C   0  0  0  0  0  2  0  0  0  0  0  0
  196.1220  176.6170  143.6350 C   0  0  0  0  0  3  0  0  0  0  0  0
  192.9340  176.6690  146.7510 N   0  0  0  0  0  0  0  0  0  0  0  0
  194.0420  176.1150  144.7470 N   0  0  0  0  0  0  0  0  0  0  0  0
  192.8240  175.4000  144.8330 C   0  0  0  0  0  0  0  0  0  0  0  0
  195.0370  177.6370  146.2620 O   0  0  0  0  0  0  0  0  0  0  0  0
  192.4620  174.5140  143.8700 C   0  0  0  0  0  0  0  0  0  0  0  0
  193.4320  174.2870  142.7320 C   0  0  0  0  0  0  0  0  0  0  0  0
  194.0870  176.8740  145.9430 C   0  0  0  0  0  0  0  0  0  0  0  0
  191.2500  173.7040  143.9210 N   0  0  0  0  0  0  0  0  0  0  0  0
  192.1920  175.8200  146.1060 C   0  0  0  0  0  0  0  0  0  0  0  0
  197.1210  176.3830  142.5370 C   0  0  0  0  0  2  0  0  0  0  0  0
  195.5600  174.7350  141.4890 C   0  0  0  0  0  2  0  0  0  0  0  0
  192.9100  171.2020  143.0810 C   0  0  0  0  0  0  0  0  0  0  0  0
  192.3540  170.7020  144.0480 O   0  0  0  0  0  0  0  0  0  0  0  0
  194.6280  170.8010  142.7430 S   0  0  0  0  0  0  0  0  0  0  0  0
  196.2670  171.7440  144.7760 C   0  0  1  0  0  3  0  0  0  0  0  0
  197.2830  171.0520  145.5470 N   0  0  0  0  0  2  0  0  0  0  0  0
  195.7000  169.4320  144.8270 N   0  0  0  0  0  2  0  0  0  0  0  0
  195.1760  170.7400  144.4890 C   0  0  2  0  0  3  0  0  0  0  0  0
  196.7780  169.7020  145.7650 C   0  0  0  0  0  2  0  0  0  0  0  0
  195.7230  172.9130  145.5790 C   0  0  0  0  0  2  0  0  0  0  0  0
  196.8580  173.7820  146.0870 C   0  0  0  0  0  1  0  0  0  0  0  0
  188.6110  175.1900  146.0350 O   0  0  0  0  0  0  0  0  0  0  0  0
  188.6210  176.1950  147.0060 C   0  0  0  0  0  2  0  0  0  0  0  0
  187.6230  177.2790  146.6420 C   0  0  0  0  0  2  0  0  0  0  0  0
  186.2100  176.8200  146.9610 C   0  0  0  0  0  2  0  0  0  0  0  0
  185.2920  177.0850  145.7810 C   0  0  0  0  0  2  0  0  0  0  0  0
  186.0490  177.6600  144.6800 N   0  0  0  0  0  2  0  0  0  0  0  0
  185.8400  176.8090  143.5170 C   0  0  2  0  0  3  0  0  0  0  0  0
  187.1470  176.2970  143.0030 C   0  0  0  0  0  0  0  0  0  0  0  0
  187.2130  175.0310  142.4370 O   0  0  0  0  0  0  0  0  0  0  0  0
  188.1840  177.0110  143.0610 O   0  0  0  0  0  1  0  0  0  0  0  0
  185.6260  177.6560  141.2080 F   0  0  0  0  0  0  0  0  0  0  0  0
  185.0890  177.5460  142.4490 C   0  0  0  0  0  0  0  0  0  0  0  0
  183.9990  178.0450  142.6830 O   0  0  0  0  0  0  0  0  0  0  0  0
  1 19  1  0  0  0  0
  2 17  2  0  0  0  0
  2  8  1  0  0  0  0
  4  1  1  0  0  0  0
  4 23  1  1  0  0  0
  5 33  1  1  0  0  0
  5  9  1  0  0  0  0
  6  3  2  0  0  0  0
  6  5  1  0  0  0  0
  7 22  1  0  0  0  0
  7 21  1  0  0  0  0
  8 13  1  0  0  0  0
 10  4  1  0  0  0  0
 10 17  1  0  0  0  0
 11  8  2  0  0  0  0
 13 14  1  0  0  0  0
 13 18  1  0  0  0  0
 14 20  1  0  0  0  0
 16 19  1  0  0  0  0
 16 14  2  0  0  0  0
 17 16  1  0  0  0  0
 18 15  2  0  0  0  0
 18 12  1  0  0  0  0
 19  6  1  0  0  0  0
 20  9  1  0  0  0  0
 20 12  2  0  0  0  0
 21 11  1  0  0  0  0
 22  2  1  0  0  0  0
 23 24  2  0  0  0  0
 25 23  1  0  0  0  0
 26 27  1  0  0  0  0
 26 31  1  1  0  0  0
 27 30  1  0  0  0  0
 28 30  1  0  0  0  0
 29 25  1  6  0  0  0
 29 26  1  0  0  0  0
 29 28  1  0  0  0  0
 31 32  1  0  0  0  0
 33 34  1  0  0  0  0
 35 36  1  0  0  0  0
 35 34  1  0  0  0  0
 37 36  1  0  0  0  0
 38 37  1  0  0  0  0
 39 44  1  6  0  0  0
 39 38  1  0  0  0  0
 40 42  1  0  0  0  0
 40 39  1  0  0  0  0
 41 40  2  0  0  0  0
 43 44  1  0  0  0  0
 44 45  2  0  0  0  0
M  END
>  <MODEL>
2

>  <REMARK>
 VINA RESULT:      -6.8      1.065      1.535
  Name = 
  13 active torsions:
  status: ('A' for Active; 'I' for Inactive)
    1  A    between atoms: CA_2  and  C_13
    2  A    between atoms: CA_2  and  N_41
    3  A    between atoms: CA_2  and  C_42
    4  A    between atoms: S_4  and  C_14
    5  A    between atoms: S_4  and  C_20
    6  A    between atoms: C_5  and  C_30
    7  A    between atoms: C_8  and  C_14
    8  A    between atoms: C_9  and  O_18
    9  A    between atoms: C_9  and  C_38
   10  A    between atoms: C_10  and  O_18
   11  A    between atoms: C_12  and  C_34
   12  A    between atoms: C_12  and  N_41
   13  A    between atoms: C_34  and  C_38
                            x       y       z     vdW  Elec       q    Type
                         _______ _______ _______ _____ _____    ______ ____

>  <TORSDO>
F 13

$$$$
=
 OpenBabel11042414163D

 45 50  0  0  1  0  0  0  0  0999 V2000
  193.8060  176.3140  145.7350 C   0  0  0  0  0  2  0  0  0  0  0  0
  193.8670  172.0980  145.0180 C   0  0  0  0  0  0  0  0  0  0  0  0
  191.9240  177.8260  144.3440 O   0  0  0  0  0  0  0  0  0  0  0  0
  195.1150  175.5600  145.5490 C   0  0  1  0  0  3  0  0  0  0  0  0
  190.2100  176.2110  144.6750 C   0  0  2  0  0  3  0  0  0  0  0  0
  191.6380  176.6370  144.6580 C   0  0  0  0  0  0  0  0  0  0  0  0
  194.6170  169.8160  145.7150 C   0  0  0  0  0  2  0  0  0  0  0  0
  192.7810  171.4320  144.2650 C   0  0  0  0  0  0  0  0  0  0  0  0
  189.9160  175.5300  143.3650 C   0  0  0  0  0  2  0  0  0  0  0  0
  194.9460  174.1050  145.9570 C   0  0  0  0  0  2  0  0  0  0  0  0
  192.7960  170.1150  144.0350 C   0  0  0  0  0  3  0  0  0  0  0  0
  189.7870  173.1700  142.8190 N   0  0  0  0  0  0  0  0  0  0  0  0
  191.6980  172.2530  143.8450 N   0  0  0  0  0  0  0  0  0  0  0  0
  191.6550  173.6490  144.0760 C   0  0  0  0  0  0  0  0  0  0  0  0
  190.2320  170.8550  142.6230 O   0  0  0  0  0  0  0  0  0  0  0  0
  192.6440  174.2770  144.7620 C   0  0  0  0  0  0  0  0  0  0  0  0
  193.8140  173.4370  145.2250 C   0  0  0  0  0  0  0  0  0  0  0  0
  190.5480  171.9930  143.0610 C   0  0  0  0  0  0  0  0  0  0  0  0
  192.6920  175.7170  144.9880 N   0  0  0  0  0  0  0  0  0  0  0  0
  190.4220  174.1350  143.4140 C   0  0  0  0  0  0  0  0  0  0  0  0
  193.9630  169.2630  144.4500 C   0  0  0  0  0  2  0  0  0  0  0  0
  195.0390  171.2680  145.4870 C   0  0  0  0  0  2  0  0  0  0  0  0
  195.7010  175.7260  144.1750 C   0  0  0  0  0  0  0  0  0  0  0  0
  195.1310  176.3940  143.3240 O   0  0  0  0  0  0  0  0  0  0  0  0
  197.2430  174.9000  143.7630 S   0  0  0  0  0  0  0  0  0  0  0  0
  196.8580  172.9350  141.8400 C   0  0  1  0  0  3  0  0  0  0  0  0
  197.5340  172.7300  140.5720 N   0  0  0  0  0  2  0  0  0  0  0  0
  197.6540  175.0480  141.0840 N   0  0  0  0  0  2  0  0  0  0  0  0
  196.7770  174.4270  142.0570 C   0  0  2  0  0  3  0  0  0  0  0  0
  197.7850  174.0590  140.0260 C   0  0  0  0  0  2  0  0  0  0  0  0
  195.4680  172.3250  141.7820 C   0  0  0  0  0  2  0  0  0  0  0  0
  194.4280  173.3990  141.5180 C   0  0  0  0  0  1  0  0  0  0  0  0
  189.3640  177.3120  144.8330 O   0  0  0  0  0  0  0  0  0  0  0  0
  189.0060  177.2990  146.1840 C   0  0  0  0  0  2  0  0  0  0  0  0
  187.9280  176.2580  146.4250 C   0  0  0  0  0  2  0  0  0  0  0  0
  186.7700  176.8690  147.1960 C   0  0  0  0  0  2  0  0  0  0  0  0
  185.8840  177.6750  146.2630 C   0  0  0  0  0  2  0  0  0  0  0  0
  185.6120  176.9140  145.0530 N   0  0  0  0  0  2  0  0  0  0  0  0
  186.0180  177.7360  143.9220 C   0  0  2  0  0  3  0  0  0  0  0  0
  185.0910  178.8990  143.7620 C   0  0  0  0  0  0  0  0  0  0  0  0
  183.7390  178.6720  143.5440 O   0  0  0  0  0  0  0  0  0  0  0  0
  185.5220  180.0800  143.8420 O   0  0  0  0  0  1  0  0  0  0  0  0
  186.2680  175.5760  142.7510 F   0  0  0  0  0  0  0  0  0  0  0  0
  186.0800  176.9170  142.6670 C   0  0  0  0  0  0  0  0  0  0  0  0
  185.9620  177.4440  141.5710 O   0  0  0  0  0  0  0  0  0  0  0  0
  2 17  2  0  0  0  0
  2 22  1  0  0  0  0
  3  6  2  0  0  0  0
  4 23  1  6  0  0  0
  4  1  1  0  0  0  0
  4 10  1  0  0  0  0
  5 33  1  6  0  0  0
  6  5  1  0  0  0  0
  6 19  1  0  0  0  0
  8  2  1  0  0  0  0
  9 20  1  0  0  0  0
  9  5  1  0  0  0  0
 11  8  2  0  0  0  0
 11 21  1  0  0  0  0
 12 18  1  0  0  0  0
 12 20  2  0  0  0  0
 13 14  1  0  0  0  0
 13  8  1  0  0  0  0
 14 16  2  0  0  0  0
 15 18  2  0  0  0  0
 16 19  1  0  0  0  0
 16 17  1  0  0  0  0
 17 10  1  0  0  0  0
 18 13  1  0  0  0  0
 19  1  1  0  0  0  0
 20 14  1  0  0  0  0
 21  7  1  0  0  0  0
 22  7  1  0  0  0  0
 24 23  2  0  0  0  0
 25 23  1  0  0  0  0
 26 31  1  6  0  0  0
 26 29  1  0  0  0  0
 27 26  1  0  0  0  0
 28 29  1  0  0  0  0
 29 25  1  1  0  0  0
 30 27  1  0  0  0  0
 30 28  1  0  0  0  0
 32 31  1  0  0  0  0
 33 34  1  0  0  0  0
 34 35  1  0  0  0  0
 35 36  1  0  0  0  0
 37 36  1  0  0  0  0
 38 37  1  0  0  0  0
 39 44  1  6  0  0  0
 39 38  1  0  0  0  0
 40 42  1  0  0  0  0
 40 39  1  0  0  0  0
 41 40  2  0  0  0  0
 44 43  1  0  0  0  0
 45 44  2  0  0  0  0
M  END
>  <MODEL>
3

>  <REMARK>
 VINA RESULT:      -6.8      2.282      4.733
  Name = 
  13 active torsions:
  status: ('A' for Active; 'I' for Inactive)
    1  A    between atoms: CA_2  and  C_13
    2  A    between atoms: CA_2  and  N_41
    3  A    between atoms: CA_2  and  C_42
    4  A    between atoms: S_4  and  C_14
    5  A    between atoms: S_4  and  C_20
    6  A    between atoms: C_5  and  C_30
    7  A    between atoms: C_8  and  C_14
    8  A    between atoms: C_9  and  O_18
    9  A    between atoms: C_9  and  C_38
   10  A    between atoms: C_10  and  O_18
   11  A    between atoms: C_12  and  C_34
   12  A    between atoms: C_12  and  N_41
   13  A    between atoms: C_34  and  C_38
                            x       y       z     vdW  Elec       q    Type
                         _______ _______ _______ _____ _____    ______ ____

>  <TORSDO>
F 13

$$$$
=
 OpenBabel11042414163D

 45 50  0  0  1  0  0  0  0  0999 V2000
  191.5990  172.7260  141.2970 C   0  0  0  0  0  2  0  0  0  0  0  0
  195.3270  174.6070  142.2240 C   0  0  0  0  0  0  0  0  0  0  0  0
  189.4820  173.1310  143.0630 O   0  0  0  0  0  0  0  0  0  0  0  0
  192.9190  171.9820  141.1550 C   0  0  1  0  0  3  0  0  0  0  0  0
  189.9880  175.4400  143.3230 C   0  0  2  0  0  3  0  0  0  0  0  0
  190.3360  174.0500  142.9150 C   0  0  0  0  0  0  0  0  0  0  0  0
  197.6050  175.3300  141.4850 C   0  0  0  0  0  2  0  0  0  0  0  0
  195.4270  175.6280  143.2890 C   0  0  0  0  0  0  0  0  0  0  0  0
  190.5470  175.6690  144.7020 C   0  0  0  0  0  2  0  0  0  0  0  0
  194.0510  172.9650  140.9000 C   0  0  0  0  0  2  0  0  0  0  0  0
  196.5900  176.2170  143.5850 C   0  0  0  0  0  3  0  0  0  0  0  0
  192.5650  176.8160  145.4050 N   0  0  0  0  0  0  0  0  0  0  0  0
  194.2160  175.9890  143.9430 N   0  0  0  0  0  0  0  0  0  0  0  0
  192.9720  175.3840  143.6500 C   0  0  0  0  0  0  0  0  0  0  0  0
  194.8000  177.5640  145.6100 O   0  0  0  0  0  0  0  0  0  0  0  0
  192.8620  174.4420  142.6770 C   0  0  0  0  0  0  0  0  0  0  0  0
  194.1280  174.0310  141.9590 C   0  0  0  0  0  0  0  0  0  0  0  0
  193.9380  176.8510  145.0320 C   0  0  0  0  0  0  0  0  0  0  0  0
  191.6250  173.7380  142.3600 N   0  0  0  0  0  0  0  0  0  0  0  0
  191.9970  175.9710  144.5990 C   0  0  0  0  0  0  0  0  0  0  0  0
  197.8700  175.8020  142.9130 C   0  0  0  0  0  2  0  0  0  0  0  0
  196.5850  174.1910  141.4980 C   0  0  0  0  0  2  0  0  0  0  0  0
  193.1930  171.0450  142.2990 C   0  0  0  0  0  0  0  0  0  0  0  0
  192.2860  170.6330  143.0060 O   0  0  0  0  0  0  0  0  0  0  0  0
  194.8850  170.5540  142.6560 S   0  0  0  0  0  0  0  0  0  0  0  0
  195.9820  171.4160  145.0560 C   0  0  1  0  0  3  0  0  0  0  0  0
  196.3850  170.6520  146.2210 N   0  0  0  0  0  2  0  0  0  0  0  0
  194.6720  169.4290  145.1170 N   0  0  0  0  0  2  0  0  0  0  0  0
  194.7720  170.7250  144.4750 C   0  0  2  0  0  3  0  0  0  0  0  0
  195.4050  169.5810  146.3630 C   0  0  0  0  0  2  0  0  0  0  0  0
  195.6400  172.8380  145.4690 C   0  0  0  0  0  2  0  0  0  0  0  0
  196.8430  173.5090  146.1070 C   0  0  0  0  0  1  0  0  0  0  0  0
  188.6030  175.6220  143.3410 O   0  0  0  0  0  0  0  0  0  0  0  0
  188.3210  176.3550  142.1850 C   0  0  0  0  0  2  0  0  0  0  0  0
  188.2660  177.8370  142.5110 C   0  0  0  0  0  2  0  0  0  0  0  0
  186.8900  178.3940  142.1860 C   0  0  0  0  0  2  0  0  0  0  0  0
  185.9330  178.1370  143.3360 C   0  0  0  0  0  2  0  0  0  0  0  0
  186.4630  178.7110  144.5640 N   0  0  0  0  0  2  0  0  0  0  0  0
  186.1780  177.7730  145.6410 C   0  0  2  0  0  3  0  0  0  0  0  0
  185.3340  178.4240  146.6900 C   0  0  0  0  0  0  0  0  0  0  0  0
  185.9290  179.2490  147.6340 O   0  0  0  0  0  1  0  0  0  0  0  0
  184.0870  178.2450  146.7130 O   0  0  0  0  0  0  0  0  0  0  0  0
  188.6240  177.8640  145.9660 F   0  0  0  0  0  0  0  0  0  0  0  0
  187.4500  177.2360  146.2260 C   0  0  0  0  0  0  0  0  0  0  0  0
  187.4400  176.2410  146.9340 O   0  0  0  0  0  0  0  0  0  0  0  0
  1 19  1  0  0  0  0
  2  8  1  0  0  0  0
  4  1  1  0  0  0  0
  4 23  1  1  0  0  0
  5 33  1  1  0  0  0
  5  9  1  0  0  0  0
  6  3  2  0  0  0  0
  6  5  1  0  0  0  0
  7 22  1  0  0  0  0
  7 21  1  0  0  0  0
  8 11  2  0  0  0  0
  8 13  1  0  0  0  0
 10  4  1  0  0  0  0
 10 17  1  0  0  0  0
 13 18  1  0  0  0  0
 14 13  1  0  0  0  0
 14 20  1  0  0  0  0
 16 14  2  0  0  0  0
 17  2  2  0  0  0  0
 17 16  1  0  0  0  0
 18 12  1  0  0  0  0
 18 15  2  0  0  0  0
 19 16  1  0  0  0  0
 19  6  1  0  0  0  0
 20  9  1  0  0  0  0
 20 12  2  0  0  0  0
 21 11  1  0  0  0  0
 22  2  1  0  0  0  0
 23 25  1  0  0  0  0
 23 24  2  0  0  0  0
 26 31  1  1  0  0  0
 26 27  1  0  0  0  0
 27 30  1  0  0  0  0
 28 30  1  0  0  0  0
 29 25  1  6  0  0  0
 29 26  1  0  0  0  0
 29 28  1  0  0  0  0
 31 32  1  0  0  0  0
 34 35  1  0  0  0  0
 34 33  1  0  0  0  0
 36 35  1  0  0  0  0
 36 37  1  0  0  0  0
 37 38  1  0  0  0  0
 39 38  1  6  0  0  0
 39 44  1  0  0  0  0
 39 40  1  0  0  0  0
 40 42  2  0  0  0  0
 40 41  1  0  0  0  0
 43 44  1  0  0  0  0
 44 45  2  0  0  0  0
M  END
>  <MODEL>
4

>  <REMARK>
 VINA RESULT:      -6.7      1.730      2.725
  Name = 
  13 active torsions:
  status: ('A' for Active; 'I' for Inactive)
    1  A    between atoms: CA_2  and  C_13
    2  A    between atoms: CA_2  and  N_41
    3  A    between atoms: CA_2  and  C_42
    4  A    between atoms: S_4  and  C_14
    5  A    between atoms: S_4  and  C_20
    6  A    between atoms: C_5  and  C_30
    7  A    between atoms: C_8  and  C_14
    8  A    between atoms: C_9  and  O_18
    9  A    between atoms: C_9  and  C_38
   10  A    between atoms: C_10  and  O_18
   11  A    between atoms: C_12  and  C_34
   12  A    between atoms: C_12  and  N_41
   13  A    between atoms: C_34  and  C_38
                            x       y       z     vdW  Elec       q    Type
                         _______ _______ _______ _____ _____    ______ ____

>  <TORSDO>
F 13

$$$$
=
 OpenBabel11042414163D

 45 50  0  0  1  0  0  0  0  0999 V2000
  192.9880  176.3080  146.4410 C   0  0  0  0  0  2  0  0  0  0  0  0
  193.3810  172.3330  144.9120 C   0  0  0  0  0  0  0  0  0  0  0  0
  190.8590  177.8410  145.5020 O   0  0  0  0  0  0  0  0  0  0  0  0
  194.3420  175.7490  146.0230 C   0  0  1  0  0  3  0  0  0  0  0  0
  189.3400  176.0160  145.6260 C   0  0  2  0  0  3  0  0  0  0  0  0
  190.7140  176.5900  145.5960 C   0  0  0  0  0  0  0  0  0  0  0  0
  194.3990  170.0560  145.0970 C   0  0  0  0  0  2  0  0  0  0  0  0
  192.3010  171.7070  144.1180 C   0  0  0  0  0  0  0  0  0  0  0  0
  188.9980  175.5650  144.2320 C   0  0  0  0  0  2  0  0  0  0  0  0
  194.3450  174.2340  146.1490 C   0  0  0  0  0  2  0  0  0  0  0  0
  192.4180  170.4650  143.6360 C   0  0  0  0  0  3  0  0  0  0  0  0
  189.0420  173.3490  143.2450 N   0  0  0  0  0  0  0  0  0  0  0  0
  191.1130  172.4700  143.9410 N   0  0  0  0  0  0  0  0  0  0  0  0
  190.9600  173.7840  144.4420 C   0  0  0  0  0  0  0  0  0  0  0  0
  189.6830  171.1750  142.5710 O   0  0  0  0  0  0  0  0  0  0  0  0
  191.9420  174.3760  145.1700 C   0  0  0  0  0  0  0  0  0  0  0  0
  193.2210  173.5960  145.3790 C   0  0  0  0  0  0  0  0  0  0  0  0
  189.9280  172.2370  143.2010 C   0  0  0  0  0  0  0  0  0  0  0  0
  191.8750  175.7450  145.6690 N   0  0  0  0  0  0  0  0  0  0  0  0
  189.6340  174.2490  143.9730 C   0  0  0  0  0  0  0  0  0  0  0  0
  193.6920  169.6820  143.7960 C   0  0  0  0  0  2  0  0  0  0  0  0
  194.6610  171.5620  145.1290 C   0  0  0  0  0  2  0  0  0  0  0  0
  194.7870  176.2330  144.6710 C   0  0  0  0  0  0  0  0  0  0  0  0
  194.1200  177.0380  144.0400 O   0  0  0  0  0  0  0  0  0  0  0  0
  196.3040  175.5870  143.9560 S   0  0  0  0  0  0  0  0  0  0  0  0
  195.8510  174.0660  141.6780 C   0  0  1  0  0  3  0  0  0  0  0  0
  196.3940  174.2110  140.3400 N   0  0  0  0  0  2  0  0  0  0  0  0
  196.4010  176.3600  141.3560 N   0  0  0  0  0  2  0  0  0  0  0  0
  195.6860  175.4590  142.2370 C   0  0  2  0  0  3  0  0  0  0  0  0
  196.4850  175.6450  140.0920 C   0  0  0  0  0  2  0  0  0  0  0  0
  194.5110  173.3530  141.6120 C   0  0  0  0  0  2  0  0  0  0  0  0
  193.3730  174.3550  141.6800 C   0  0  0  0  0  1  0  0  0  0  0  0
  188.4110  176.9700  146.0530 O   0  0  0  0  0  0  0  0  0  0  0  0
  187.1910  176.5500  145.5180 C   0  0  0  0  0  2  0  0  0  0  0  0
  186.0730  176.8010  146.5140 C   0  0  0  0  0  2  0  0  0  0  0  0
  185.2340  177.9890  146.0720 C   0  0  0  0  0  2  0  0  0  0  0  0
  185.6570  178.4450  144.6870 C   0  0  0  0  0  2  0  0  0  0  0  0
  184.5950  178.1810  143.7290 N   0  0  0  0  0  2  0  0  0  0  0  0
  185.1040  178.5250  142.4090 C   0  0  2  0  0  3  0  0  0  0  0  0
  184.0560  178.2920  141.3670 C   0  0  0  0  0  0  0  0  0  0  0  0
  182.7350  178.1130  141.7530 O   0  0  0  0  0  1  0  0  0  0  0  0
  184.3590  178.2780  140.1440 O   0  0  0  0  0  0  0  0  0  0  0  0
  187.5250  178.4090  141.9350 F   0  0  0  0  0  0  0  0  0  0  0  0
  186.3520  177.7490  142.1040 C   0  0  0  0  0  0  0  0  0  0  0  0
  186.3220  176.5320  142.0090 O   0  0  0  0  0  0  0  0  0  0  0  0
  2 22  1  0  0  0  0
  2 17  2  0  0  0  0
  3  6  2  0  0  0  0
  4 23  1  6  0  0  0
  4 10  1  0  0  0  0
  4  1  1  0  0  0  0
  5 33  1  6  0  0  0
  6  5  1  0  0  0  0
  6 19  1  0  0  0  0
  7 22  1  0  0  0  0
  8  2  1  0  0  0  0
  9  5  1  0  0  0  0
 11 21  1  0  0  0  0
 11  8  2  0  0  0  0
 12 20  2  0  0  0  0
 13  8  1  0  0  0  0
 13 14  1  0  0  0  0
 14 16  2  0  0  0  0
 15 18  2  0  0  0  0
 16 17  1  0  0  0  0
 16 19  1  0  0  0  0
 17 10  1  0  0  0  0
 18 12  1  0  0  0  0
 18 13  1  0  0  0  0
 19  1  1  0  0  0  0
 20  9  1  0  0  0  0
 20 14  1  0  0  0  0
 21  7  1  0  0  0  0
 24 23  2  0  0  0  0
 25 23  1  0  0  0  0
 26 31  1  6  0  0  0
 26 29  1  0  0  0  0
 27 26  1  0  0  0  0
 28 29  1  0  0  0  0
 29 25  1  1  0  0  0
 30 27  1  0  0  0  0
 30 28  1  0  0  0  0
 31 32  1  0  0  0  0
 34 33  1  0  0  0  0
 34 35  1  0  0  0  0
 36 35  1  0  0  0  0
 37 36  1  0  0  0  0
 38 37  1  0  0  0  0
 39 40  1  6  0  0  0
 39 38  1  0  0  0  0
 40 41  1  0  0  0  0
 42 40  2  0  0  0  0
 43 44  1  0  0  0  0
 44 39  1  0  0  0  0
 45 44  2  0  0  0  0
M  END
>  <MODEL>
5

>  <REMARK>
 VINA RESULT:      -6.6      2.242      4.747
  Name = 
  13 active torsions:
  status: ('A' for Active; 'I' for Inactive)
    1  A    between atoms: CA_2  and  C_13
    2  A    between atoms: CA_2  and  N_41
    3  A    between atoms: CA_2  and  C_42
    4  A    between atoms: S_4  and  C_14
    5  A    between atoms: S_4  and  C_20
    6  A    between atoms: C_5  and  C_30
    7  A    between atoms: C_8  and  C_14
    8  A    between atoms: C_9  and  O_18
    9  A    between atoms: C_9  and  C_38
   10  A    between atoms: C_10  and  O_18
   11  A    between atoms: C_12  and  C_34
   12  A    between atoms: C_12  and  N_41
   13  A    between atoms: C_34  and  C_38
                            x       y       z     vdW  Elec       q    Type
                         _______ _______ _______ _____ _____    ______ ____

>  <TORSDO>
F 13

$$$$
=
 OpenBabel11042414163D

 45 50  0  0  1  0  0  0  0  0999 V2000
  191.4450  175.9860  145.5650 C   0  0  0  0  0  2  0  0  0  0  0  0
  193.1130  172.1570  144.6390 C   0  0  0  0  0  0  0  0  0  0  0  0
  189.6220  177.0640  143.7550 O   0  0  0  0  0  0  0  0  0  0  0  0
  192.9290  175.7020  145.7500 C   0  0  1  0  0  3  0  0  0  0  0  0
  188.5300  174.9760  143.4330 C   0  0  2  0  0  3  0  0  0  0  0  0
  189.6780  175.8100  143.8890 C   0  0  0  0  0  0  0  0  0  0  0  0
  194.3650  170.1270  145.3900 C   0  0  0  0  0  2  0  0  0  0  0  0
  192.5650  171.3260  143.5450 C   0  0  0  0  0  0  0  0  0  0  0  0
  188.8520  174.4600  142.0570 C   0  0  0  0  0  2  0  0  0  0  0  0
  193.1540  174.2170  145.9920 C   0  0  0  0  0  2  0  0  0  0  0  0
  193.0830  170.1300  143.2500 C   0  0  0  0  0  3  0  0  0  0  0  0
  189.6780  172.2910  141.3500 N   0  0  0  0  0  0  0  0  0  0  0  0
  191.4270  171.8390  142.8620 N   0  0  0  0  0  0  0  0  0  0  0  0
  190.8570  173.1000  143.1540 C   0  0  0  0  0  0  0  0  0  0  0  0
  190.9110  170.2810  141.1580 O   0  0  0  0  0  0  0  0  0  0  0  0
  191.3490  173.8790  144.1530 C   0  0  0  0  0  0  0  0  0  0  0  0
  192.5590  173.3660  144.9030 C   0  0  0  0  0  0  0  0  0  0  0  0
  190.6930  171.3740  141.7430 C   0  0  0  0  0  0  0  0  0  0  0  0
  190.8470  175.2100  144.4730 N   0  0  0  0  0  0  0  0  0  0  0  0
  189.7630  173.2930  142.1730 C   0  0  0  0  0  0  0  0  0  0  0  0
  194.3080  169.6140  143.9530 C   0  0  0  0  0  2  0  0  0  0  0  0
  194.3190  171.6550  145.3970 C   0  0  0  0  0  2  0  0  0  0  0  0
  193.7780  176.2560  144.6390 C   0  0  0  0  0  0  0  0  0  0  0  0
  193.2990  176.9910  143.7890 O   0  0  0  0  0  0  0  0  0  0  0  0
  195.5130  175.8010  144.5390 S   0  0  0  0  0  0  0  0  0  0  0  0
  196.2700  174.2890  142.3370 C   0  0  1  0  0  3  0  0  0  0  0  0
  197.1690  174.6200  141.2460 N   0  0  0  0  0  2  0  0  0  0  0  0
  196.2630  176.6550  142.0740 N   0  0  0  0  0  2  0  0  0  0  0  0
  195.5630  175.5660  142.7240 C   0  0  2  0  0  3  0  0  0  0  0  0
  196.9510  176.0320  140.9550 C   0  0  0  0  0  2  0  0  0  0  0  0
  195.2710  173.2410  141.8760 C   0  0  0  0  0  2  0  0  0  0  0  0
  195.9640  171.9100  141.6510 C   0  0  0  0  0  1  0  0  0  0  0  0
  187.3540  175.7310  143.3890 O   0  0  0  0  0  0  0  0  0  0  0  0
  187.1880  176.0590  142.0410 C   0  0  0  0  0  2  0  0  0  0  0  0
  186.2310  177.2300  141.9060 C   0  0  0  0  0  2  0  0  0  0  0  0
  185.4310  177.4040  143.1860 C   0  0  0  0  0  2  0  0  0  0  0  0
  185.6990  178.7690  143.7930 C   0  0  0  0  0  2  0  0  0  0  0  0
  186.7480  178.6710  144.7980 N   0  0  0  0  0  2  0  0  0  0  0  0
  186.2620  177.7860  145.8470 C   0  0  2  0  0  3  0  0  0  0  0  0
  185.4190  178.5450  146.8220 C   0  0  0  0  0  0  0  0  0  0  0  0
  184.0590  178.2800  146.9040 O   0  0  0  0  0  0  0  0  0  0  0  0
  185.9350  179.4080  147.5810 O   0  0  0  0  0  1  0  0  0  0  0  0
  187.3300  175.7770  146.8070 F   0  0  0  0  0  0  0  0  0  0  0  0
  187.4060  177.1040  146.5370 C   0  0  0  0  0  0  0  0  0  0  0  0
  188.4050  177.7300  146.8560 O   0  0  0  0  0  0  0  0  0  0  0  0
  1  4  1  0  0  0  0
  2 17  2  0  0  0  0
  2 22  1  0  0  0  0
  3  6  2  0  0  0  0
  4 23  1  6  0  0  0
  4 10  1  0  0  0  0
  5 33  1  6  0  0  0
  5  6  1  0  0  0  0
  6 19  1  0  0  0  0
  7 22  1  0  0  0  0
  8  2  1  0  0  0  0
  9 20  1  0  0  0  0
  9  5  1  0  0  0  0
 11  8  2  0  0  0  0
 11 21  1  0  0  0  0
 12 18  1  0  0  0  0
 12 20  2  0  0  0  0
 13 14  1  0  0  0  0
 13  8  1  0  0  0  0
 14 16  2  0  0  0  0
 15 18  2  0  0  0  0
 16 19  1  0  0  0  0
 16 17  1  0  0  0  0
 17 10  1  0  0  0  0
 18 13  1  0  0  0  0
 19  1  1  0  0  0  0
 20 14  1  0  0  0  0
 21  7  1  0  0  0  0
 24 23  2  0  0  0  0
 25 23  1  0  0  0  0
 26 31  1  6  0  0  0
 26 29  1  0  0  0  0
 27 26  1  0  0  0  0
 28 29  1  0  0  0  0
 29 25  1  1  0  0  0
 30 27  1  0  0  0  0
 30 28  1  0  0  0  0
 32 31  1  0  0  0  0
 34 33  1  0  0  0  0
 35 34  1  0  0  0  0
 35 36  1  0  0  0  0
 36 37  1  0  0  0  0
 37 38  1  0  0  0  0
 39 38  1  6  0  0  0
 39 44  1  0  0  0  0
 39 40  1  0  0  0  0
 40 41  2  0  0  0  0
 40 42  1  0  0  0  0
 44 43  1  0  0  0  0
 44 45  2  0  0  0  0
M  END
>  <MODEL>
6

>  <REMARK>
 VINA RESULT:      -6.6      2.510      5.282
  Name = 
  13 active torsions:
  status: ('A' for Active; 'I' for Inactive)
    1  A    between atoms: CA_2  and  C_13
    2  A    between atoms: CA_2  and  N_41
    3  A    between atoms: CA_2  and  C_42
    4  A    between atoms: S_4  and  C_14
    5  A    between atoms: S_4  and  C_20
    6  A    between atoms: C_5  and  C_30
    7  A    between atoms: C_8  and  C_14
    8  A    between atoms: C_9  and  O_18
    9  A    between atoms: C_9  and  C_38
   10  A    between atoms: C_10  and  O_18
   11  A    between atoms: C_12  and  C_34
   12  A    between atoms: C_12  and  N_41
   13  A    between atoms: C_34  and  C_38
                            x       y       z     vdW  Elec       q    Type
                         _______ _______ _______ _____ _____    ______ ____

>  <TORSDO>
F 13

$$$$
=
 OpenBabel11042414163D

 45 50  0  0  1  0  0  0  0  0999 V2000
  190.0260  173.1180  140.2410 C   0  0  0  0  0  2  0  0  0  0  0  0
  193.7990  174.6340  141.5680 C   0  0  0  0  0  0  0  0  0  0  0  0
  187.8460  173.4260  141.9480 O   0  0  0  0  0  0  0  0  0  0  0  0
  191.3090  172.3180  140.0630 C   0  0  1  0  0  3  0  0  0  0  0  0
  188.4650  175.6490  142.5270 C   0  0  2  0  0  3  0  0  0  0  0  0
  188.7560  174.3020  141.9580 C   0  0  0  0  0  0  0  0  0  0  0  0
  196.1490  175.3030  141.0320 C   0  0  0  0  0  2  0  0  0  0  0  0
  193.9000  175.5040  142.7600 C   0  0  0  0  0  0  0  0  0  0  0  0
  188.9630  175.6670  143.9470 C   0  0  0  0  0  2  0  0  0  0  0  0
  192.5060  173.2530  139.9890 C   0  0  0  0  0  2  0  0  0  0  0  0
  195.0770  175.9790  143.1810 C   0  0  0  0  0  3  0  0  0  0  0  0
  191.0020  176.5900  144.8820 N   0  0  0  0  0  0  0  0  0  0  0  0
  192.6790  175.8530  143.4010 N   0  0  0  0  0  0  0  0  0  0  0  0
  191.4200  175.3680  142.9760 C   0  0  0  0  0  0  0  0  0  0  0  0
  193.2610  177.1670  145.2810 O   0  0  0  0  0  0  0  0  0  0  0  0
  191.3090  174.5650  141.8860 C   0  0  0  0  0  0  0  0  0  0  0  0
  192.5860  174.1710  141.1780 C   0  0  0  0  0  0  0  0  0  0  0  0
  192.3920  176.5870  144.5780 C   0  0  0  0  0  0  0  0  0  0  0  0
  190.0520  173.9840  141.4260 N   0  0  0  0  0  0  0  0  0  0  0  0
  190.4300  175.8890  143.9480 C   0  0  0  0  0  0  0  0  0  0  0  0
  196.3650  175.5740  142.5190 C   0  0  0  0  0  2  0  0  0  0  0  0
  195.0680  174.2360  140.8520 C   0  0  0  0  0  2  0  0  0  0  0  0
  191.4710  171.2290  141.0870 C   0  0  0  0  0  0  0  0  0  0  0  0
  190.5080  170.7990  141.7050 O   0  0  0  0  0  0  0  0  0  0  0  0
  193.1090  170.5780  141.4370 S   0  0  0  0  0  0  0  0  0  0  0  0
  193.7720  171.2990  144.0350 C   0  0  1  0  0  3  0  0  0  0  0  0
  194.3520  170.5040  145.1000 N   0  0  0  0  0  2  0  0  0  0  0  0
  193.1730  169.0250  143.6620 N   0  0  0  0  0  2  0  0  0  0  0  0
  192.8740  170.3790  143.2410 C   0  0  2  0  0  3  0  0  0  0  0  0
  193.7660  169.1740  144.9810 C   0  0  0  0  0  2  0  0  0  0  0  0
  192.9720  172.4460  144.6300 C   0  0  0  0  0  2  0  0  0  0  0  0
  193.8210  173.2300  145.6140 C   0  0  0  0  0  1  0  0  0  0  0  0
  187.0920  175.9120  142.5050 O   0  0  0  0  0  0  0  0  0  0  0  0
  186.9520  177.0280  141.6770 C   0  0  0  0  0  2  0  0  0  0  0  0
  185.6620  177.7580  142.0030 C   0  0  0  0  0  2  0  0  0  0  0  0
  185.9620  179.0420  142.7580 C   0  0  0  0  0  2  0  0  0  0  0  0
  185.6010  178.8870  144.2250 C   0  0  0  0  0  2  0  0  0  0  0  0
  186.7500  178.3990  144.9720 N   0  0  0  0  0  2  0  0  0  0  0  0
  186.2400  177.6560  146.1160 C   0  0  2  0  0  3  0  0  0  0  0  0
  185.4150  178.5460  146.9900 C   0  0  0  0  0  0  0  0  0  0  0  0
  184.0600  178.2880  147.1450 O   0  0  0  0  0  0  0  0  0  0  0  0
  185.9410  179.5130  147.6020 O   0  0  0  0  0  1  0  0  0  0  0  0
  187.1470  175.8910  147.5870 F   0  0  0  0  0  0  0  0  0  0  0  0
  187.3660  177.0330  146.8880 C   0  0  0  0  0  0  0  0  0  0  0  0
  188.4760  177.5410  146.8910 O   0  0  0  0  0  0  0  0  0  0  0  0
  1 19  1  0  0  0  0
  2  8  1  0  0  0  0
  3  6  2  0  0  0  0
  4  1  1  0  0  0  0
  4 23  1  1  0  0  0
  5 33  1  1  0  0  0
  5  9  1  0  0  0  0
  6  5  1  0  0  0  0
  7 21  1  0  0  0  0
  8 11  2  0  0  0  0
  8 13  1  0  0  0  0
  9 20  1  0  0  0  0
 10  4  1  0  0  0  0
 10 17  1  0  0  0  0
 13 18  1  0  0  0  0
 14 13  1  0  0  0  0
 14 20  1  0  0  0  0
 16 14  2  0  0  0  0
 17  2  2  0  0  0  0
 17 16  1  0  0  0  0
 18 12  1  0  0  0  0
 18 15  2  0  0  0  0
 19 16  1  0  0  0  0
 19  6  1  0  0  0  0
 20 12  2  0  0  0  0
 21 11  1  0  0  0  0
 22  7  1  0  0  0  0
 22  2  1  0  0  0  0
 23 25  1  0  0  0  0
 23 24  2  0  0  0  0
 26 31  1  1  0  0  0
 26 27  1  0  0  0  0
 28 30  1  0  0  0  0
 29 25  1  6  0  0  0
 29 28  1  0  0  0  0
 29 26  1  0  0  0  0
 30 27  1  0  0  0  0
 31 32  1  0  0  0  0
 34 35  1  0  0  0  0
 34 33  1  0  0  0  0
 35 36  1  0  0  0  0
 36 37  1  0  0  0  0
 37 38  1  0  0  0  0
 39 38  1  6  0  0  0
 39 44  1  0  0  0  0
 39 40  1  0  0  0  0
 40 41  2  0  0  0  0
 40 42  1  0  0  0  0
 44 45  2  0  0  0  0
 44 43  1  0  0  0  0
M  END
>  <MODEL>
7

>  <REMARK>
 VINA RESULT:      -6.5      2.305      3.389
  Name = 
  13 active torsions:
  status: ('A' for Active; 'I' for Inactive)
    1  A    between atoms: CA_2  and  C_13
    2  A    between atoms: CA_2  and  N_41
    3  A    between atoms: CA_2  and  C_42
    4  A    between atoms: S_4  and  C_14
    5  A    between atoms: S_4  and  C_20
    6  A    between atoms: C_5  and  C_30
    7  A    between atoms: C_8  and  C_14
    8  A    between atoms: C_9  and  O_18
    9  A    between atoms: C_9  and  C_38
   10  A    between atoms: C_10  and  O_18
   11  A    between atoms: C_12  and  C_34
   12  A    between atoms: C_12  and  N_41
   13  A    between atoms: C_34  and  C_38
                            x       y       z     vdW  Elec       q    Type
                         _______ _______ _______ _____ _____    ______ ____

>  <TORSDO>
F 13

$$$$
=
 OpenBabel11042414163D

 45 50  0  0  1  0  0  0  0  0999 V2000
  193.1750  174.2390  140.4610 C   0  0  0  0  0  2  0  0  0  0  0  0
  193.8590  176.0340  144.2820 C   0  0  0  0  0  0  0  0  0  0  0  0
  191.0740  172.4210  140.2530 O   0  0  0  0  0  0  0  0  0  0  0  0
  194.5810  174.3920  141.0250 C   0  0  1  0  0  3  0  0  0  0  0  0
  189.6250  173.7670  141.5730 C   0  0  2  0  0  3  0  0  0  0  0  0
  190.9730  173.3780  141.0700 C   0  0  0  0  0  0  0  0  0  0  0  0
  194.9490  177.8270  145.6440 C   0  0  0  0  0  2  0  0  0  0  0  0
  192.8780  175.8960  145.3810 C   0  0  0  0  0  0  0  0  0  0  0  0
  189.4230  173.1080  142.9100 C   0  0  0  0  0  2  0  0  0  0  0  0
  194.6350  175.5650  141.9910 C   0  0  0  0  0  2  0  0  0  0  0  0
  193.0870  176.4530  146.5780 C   0  0  0  0  0  3  0  0  0  0  0  0
  189.6430  174.0090  145.1520 N   0  0  0  0  0  0  0  0  0  0  0  0
  191.6800  175.1890  145.0820 N   0  0  0  0  0  0  0  0  0  0  0  0
  191.4310  174.5920  143.8240 C   0  0  0  0  0  0  0  0  0  0  0  0
  190.4270  175.1170  147.0890 O   0  0  0  0  0  0  0  0  0  0  0  0
  192.3220  174.7050  142.8050 C   0  0  0  0  0  0  0  0  0  0  0  0
  193.6080  175.4510  143.0850 C   0  0  0  0  0  0  0  0  0  0  0  0
  190.5740  174.8030  145.8780 C   0  0  0  0  0  0  0  0  0  0  0  0
  192.1560  174.0710  141.5030 N   0  0  0  0  0  0  0  0  0  0  0  0
  190.1320  173.8900  143.9540 C   0  0  0  0  0  0  0  0  0  0  0  0
  194.3720  177.1660  146.8950 C   0  0  0  0  0  2  0  0  0  0  0  0
  195.1460  176.7780  144.5490 C   0  0  0  0  0  2  0  0  0  0  0  0
  195.1220  173.1170  141.6110 C   0  0  0  0  0  0  0  0  0  0  0  0
  194.4970  172.0700  141.5250 O   0  0  0  0  0  0  0  0  0  0  0  0
  196.6920  173.1400  142.4840 S   0  0  0  0  0  0  0  0  0  0  0  0
  196.1570  172.6810  145.1700 C   0  0  1  0  0  3  0  0  0  0  0  0
  196.8230  171.8020  146.1130 N   0  0  0  0  0  2  0  0  0  0  0  0
  197.1350  170.8920  143.9400 N   0  0  0  0  0  2  0  0  0  0  0  0
  196.2010  171.9940  143.8260 C   0  0  2  0  0  3  0  0  0  0  0  0
  197.1900  170.6060  145.3640 C   0  0  0  0  0  2  0  0  0  0  0  0
  194.7210  172.9080  145.6090 C   0  0  0  0  0  2  0  0  0  0  0  0
  193.8000  171.8910  144.9600 C   0  0  0  0  0  1  0  0  0  0  0  0
  188.6260  173.3530  140.6880 O   0  0  0  0  0  0  0  0  0  0  0  0
  188.1100  174.5340  140.1480 C   0  0  0  0  0  2  0  0  0  0  0  0
  188.3120  175.6810  141.1210 C   0  0  0  0  0  2  0  0  0  0  0  0
  187.0490  176.5190  141.2140 C   0  0  0  0  0  2  0  0  0  0  0  0
  186.5210  176.5190  142.6380 C   0  0  0  0  0  2  0  0  0  0  0  0
  186.8550  177.7740  143.2940 N   0  0  0  0  0  2  0  0  0  0  0  0
  186.3690  177.6920  144.6640 C   0  0  2  0  0  3  0  0  0  0  0  0
  185.8170  179.0110  145.1030 C   0  0  0  0  0  0  0  0  0  0  0  0
  185.5700  179.2360  146.4500 O   0  0  0  0  0  1  0  0  0  0  0  0
  185.5930  179.9240  144.2640 O   0  0  0  0  0  0  0  0  0  0  0  0
  188.7300  177.6530  145.3860 F   0  0  0  0  0  0  0  0  0  0  0  0
  187.4570  177.2260  145.5850 C   0  0  0  0  0  0  0  0  0  0  0  0
  187.2090  176.4710  146.5120 O   0  0  0  0  0  0  0  0  0  0  0  0
  1  4  1  0  0  0  0
  1 19  1  0  0  0  0
  2 22  1  0  0  0  0
  2  8  1  0  0  0  0
  3  6  2  0  0  0  0
  4 23  1  1  0  0  0
  4 10  1  0  0  0  0
  5 33  1  6  0  0  0
  5  9  1  0  0  0  0
  6 19  1  0  0  0  0
  6  5  1  0  0  0  0
  7 21  1  0  0  0  0
  8 11  2  0  0  0  0
  9 20  1  0  0  0  0
 10 17  1  0  0  0  0
 11 21  1  0  0  0  0
 12 18  1  0  0  0  0
 13  8  1  0  0  0  0
 13 18  1  0  0  0  0
 14 20  1  0  0  0  0
 14 13  1  0  0  0  0
 16 17  1  0  0  0  0
 16 14  2  0  0  0  0
 17  2  2  0  0  0  0
 18 15  2  0  0  0  0
 19 16  1  0  0  0  0
 20 12  2  0  0  0  0
 22  7  1  0  0  0  0
 23 25  1  0  0  0  0
 24 23  2  0  0  0  0
 26 31  1  1  0  0  0
 26 27  1  0  0  0  0
 28 30  1  0  0  0  0
 29 25  1  6  0  0  0
 29 28  1  0  0  0  0
 29 26  1  0  0  0  0
 30 27  1  0  0  0  0
 32 31  1  0  0  0  0
 34 33  1  0  0  0  0
 34 35  1  0  0  0  0
 35 36  1  0  0  0  0
 36 37  1  0  0  0  0
 37 38  1  0  0  0  0
 39 38  1  6  0  0  0
 39 40  1  0  0  0  0
 39 44  1  0  0  0  0
 40 41  1  0  0  0  0
 42 40  2  0  0  0  0
 43 44  1  0  0  0  0
 44 45  2  0  0  0  0
M  END
>  <MODEL>
8

>  <REMARK>
 VINA RESULT:      -6.4      2.152      3.797
  Name = 
  13 active torsions:
  status: ('A' for Active; 'I' for Inactive)
    1  A    between atoms: CA_2  and  C_13
    2  A    between atoms: CA_2  and  N_41
    3  A    between atoms: CA_2  and  C_42
    4  A    between atoms: S_4  and  C_14
    5  A    between atoms: S_4  and  C_20
    6  A    between atoms: C_5  and  C_30
    7  A    between atoms: C_8  and  C_14
    8  A    between atoms: C_9  and  O_18
    9  A    between atoms: C_9  and  C_38
   10  A    between atoms: C_10  and  O_18
   11  A    between atoms: C_12  and  C_34
   12  A    between atoms: C_12  and  N_41
   13  A    between atoms: C_34  and  C_38
                            x       y       z     vdW  Elec       q    Type
                         _______ _______ _______ _____ _____    ______ ____

>  <TORSDO>
F 13

$$$$
=
 OpenBabel11042414163D

 45 50  0  0  1  0  0  0  0  0999 V2000
  190.8430  172.7480  143.2300 C   0  0  0  0  0  2  0  0  0  0  0  0
  194.4270  175.0520  142.8450 C   0  0  0  0  0  0  0  0  0  0  0  0
  189.5950  172.7210  145.7200 O   0  0  0  0  0  0  0  0  0  0  0  0
  192.0580  172.2070  142.4890 C   0  0  1  0  0  3  0  0  0  0  0  0
  189.9380  175.0510  146.0470 C   0  0  2  0  0  3  0  0  0  0  0  0
  190.2230  173.7570  145.3650 C   0  0  0  0  0  0  0  0  0  0  0  0
  196.1290  176.1370  141.3680 C   0  0  0  0  0  2  0  0  0  0  0  0
  194.8510  175.9930  143.9040 C   0  0  0  0  0  0  0  0  0  0  0  0
  190.9820  175.2500  147.1120 C   0  0  0  0  0  2  0  0  0  0  0  0
  192.8900  173.3540  141.9350 C   0  0  0  0  0  2  0  0  0  0  0  0
  195.9710  176.7140  143.7910 C   0  0  0  0  0  3  0  0  0  0  0  0
  192.9910  176.6100  147.1040 N   0  0  0  0  0  0  0  0  0  0  0  0
  193.9800  176.1320  145.0210 N   0  0  0  0  0  0  0  0  0  0  0  0
  192.7880  175.3850  145.1660 C   0  0  0  0  0  0  0  0  0  0  0  0
  195.0330  177.6430  146.5070 O   0  0  0  0  0  0  0  0  0  0  0  0
  192.3850  174.5130  144.2050 C   0  0  0  0  0  0  0  0  0  0  0  0
  193.2850  174.3380  143.0020 C   0  0  0  0  0  0  0  0  0  0  0  0
  194.0840  176.8630  146.2300 C   0  0  0  0  0  0  0  0  0  0  0  0
  191.2000  173.6700  144.3140 N   0  0  0  0  0  0  0  0  0  0  0  0
  192.2290  175.7570  146.4870 C   0  0  0  0  0  0  0  0  0  0  0  0
  196.9020  176.5330  142.6250 C   0  0  0  0  0  2  0  0  0  0  0  0
  195.3170  174.8700  141.6380 C   0  0  0  0  0  2  0  0  0  0  0  0
  192.8610  171.2330  143.3060 C   0  0  0  0  0  0  0  0  0  0  0  0
  192.3740  170.6770  144.2780 O   0  0  0  0  0  0  0  0  0  0  0  0
  194.5750  170.9120  142.8700 S   0  0  0  0  0  0  0  0  0  0  0  0
  196.4330  171.5260  144.8390 C   0  0  1  0  0  3  0  0  0  0  0  0
  197.3690  170.6620  145.5350 N   0  0  0  0  0  2  0  0  0  0  0  0
  195.5270  169.3240  144.8540 N   0  0  0  0  0  2  0  0  0  0  0  0
  195.1910  170.7070  144.5820 C   0  0  2  0  0  3  0  0  0  0  0  0
  196.6770  169.3950  145.7410 C   0  0  0  0  0  2  0  0  0  0  0  0
  196.1110  172.7320  145.7040 C   0  0  0  0  0  2  0  0  0  0  0  0
  197.2250  173.7580  145.6210 C   0  0  0  0  0  1  0  0  0  0  0  0
  188.6670  175.0370  146.6300 O   0  0  0  0  0  0  0  0  0  0  0  0
  188.2040  176.3510  146.5140 C   0  0  0  0  0  2  0  0  0  0  0  0
  188.9320  177.0600  145.3870 C   0  0  0  0  0  2  0  0  0  0  0  0
  187.9330  177.6450  144.4030 C   0  0  0  0  0  2  0  0  0  0  0  0
  186.8390  176.6370  144.1020 C   0  0  0  0  0  2  0  0  0  0  0  0
  185.5320  177.2400  144.3130 N   0  0  0  0  0  2  0  0  0  0  0  0
  185.7500  178.5510  144.9100 C   0  0  2  0  0  3  0  0  0  0  0  0
  184.9070  178.7130  146.1340 C   0  0  0  0  0  0  0  0  0  0  0  0
  185.5170  178.9420  147.3600 O   0  0  0  0  0  1  0  0  0  0  0  0
  183.6500  178.6640  146.0600 O   0  0  0  0  0  0  0  0  0  0  0  0
  185.4960  179.3530  142.5880 F   0  0  0  0  0  0  0  0  0  0  0  0
  185.4740  179.6390  143.9140 C   0  0  0  0  0  0  0  0  0  0  0  0
  185.2280  180.7760  144.2850 O   0  0  0  0  0  0  0  0  0  0  0  0
  1 19  1  0  0  0  0
  2 17  2  0  0  0  0
  2  8  1  0  0  0  0
  4  1  1  0  0  0  0
  4 23  1  1  0  0  0
  5 33  1  1  0  0  0
  5  9  1  0  0  0  0
  6  3  2  0  0  0  0
  6  5  1  0  0  0  0
  7 22  1  0  0  0  0
  7 21  1  0  0  0  0
  8 13  1  0  0  0  0
 10  4  1  0  0  0  0
 10 17  1  0  0  0  0
 11  8  2  0  0  0  0
 13 14  1  0  0  0  0
 13 18  1  0  0  0  0
 14 20  1  0  0  0  0
 16 19  1  0  0  0  0
 16 14  2  0  0  0  0
 17 16  1  0  0  0  0
 18 15  2  0  0  0  0
 18 12  1  0  0  0  0
 19  6  1  0  0  0  0
 20 12  2  0  0  0  0
 20  9  1  0  0  0  0
 21 11  1  0  0  0  0
 22  2  1  0  0  0  0
 23 24  2  0  0  0  0
 25 23  1  0  0  0  0
 26 27  1  0  0  0  0
 26 31  1  1  0  0  0
 27 30  1  0  0  0  0
 28 30  1  0  0  0  0
 29 25  1  6  0  0  0
 29 26  1  0  0  0  0
 29 28  1  0  0  0  0
 32 31  1  0  0  0  0
 34 33  1  0  0  0  0
 35 34  1  0  0  0  0
 36 35  1  0  0  0  0
 37 38  1  0  0  0  0
 37 36  1  0  0  0  0
 38 39  1  0  0  0  0
 39 44  1  6  0  0  0
 39 40  1  0  0  0  0
 40 41  1  0  0  0  0
 42 40  2  0  0  0  0
 43 44  1  0  0  0  0
 44 45  2  0  0  0  0
M  END
>  <MODEL>
9

>  <REMARK>
 VINA RESULT:      -6.4      1.654      2.190
  Name = 
  13 active torsions:
  status: ('A' for Active; 'I' for Inactive)
    1  A    between atoms: CA_2  and  C_13
    2  A    between atoms: CA_2  and  N_41
    3  A    between atoms: CA_2  and  C_42
    4  A    between atoms: S_4  and  C_14
    5  A    between atoms: S_4  and  C_20
    6  A    between atoms: C_5  and  C_30
    7  A    between atoms: C_8  and  C_14
    8  A    between atoms: C_9  and  O_18
    9  A    between atoms: C_9  and  C_38
   10  A    between atoms: C_10  and  O_18
   11  A    between atoms: C_12  and  C_34
   12  A    between atoms: C_12  and  N_41
   13  A    between atoms: C_34  and  C_38
                            x       y       z     vdW  Elec       q    Type
                         _______ _______ _______ _____ _____    ______ ____

>  <TORSDO>
F 13

$$$$
