=
 OpenBabel11042414053D

 31 31  0  0  1  0  0  0  0  0999 V2000
  190.0790  175.2420  142.3270 N   0  0  0  0  0  0  0  0  0  0  0  0
  187.7520  178.2570  142.0840 C   0  0  0  0  0  2  0  0  0  0  0  0
  186.4380  176.2620  142.8220 C   0  0  0  0  0  2  0  0  0  0  0  0
  189.0580  177.4960  142.2960 C   0  0  0  0  0  2  0  0  0  0  0  0
  188.8310  175.9920  142.1230 C   0  0  2  0  0  3  0  0  0  0  0  0
  186.6830  177.7500  143.0520 C   0  0  2  0  0  3  0  0  0  0  0  0
  187.7280  175.4790  143.0520 C   0  0  0  0  0  2  0  0  0  0  0  0
  185.3880  178.5140  142.8530 C   0  0  0  0  0  2  0  0  0  0  0  0
  184.4530  178.1860  143.9140 N   0  0  0  0  0  2  0  0  0  0  0  0
  184.6680  179.1560  144.9730 C   0  0  0  0  0  2  0  0  0  0  0  0
  185.4020  179.1130  147.2360 O   0  0  0  0  0  0  0  0  0  0  0  0
  184.9510  177.0330  146.3040 N   0  0  0  0  0  1  0  0  0  0  0  0
  185.0390  178.4510  146.2290 C   0  0  0  0  0  0  0  0  0  0  0  0
  189.8440  173.0550  141.4190 C   0  0  0  0  0  3  0  0  0  0  0  0
  190.4770  174.1830  141.4860 N   0  0  0  0  0  0  0  0  0  0  0  0
  191.7580  171.9690  140.4200 N   0  0  0  0  0  1  0  0  0  0  0  0
  190.3030  171.9790  140.4940 C   0  0  2  0  0  3  0  0  0  0  0  0
  189.6750  172.1500  139.1040 C   0  0  1  0  0  3  0  0  0  0  0  0
  189.7140  169.8770  137.6880 C   0  0  0  0  0  3  0  0  0  0  0  0
  189.6980  170.9030  138.3230 C   0  0  0  0  0  0  0  0  0  0  0  0
  188.0070  173.6010  138.1980 O   0  0  0  0  0  1  0  0  0  0  0  0
  188.2490  172.6680  139.2060 C   0  0  0  0  0  2  0  0  0  0  0  0
  191.3680  174.7450  144.3190 C   0  0  0  0  0  3  0  0  0  0  0  0
  190.9720  175.6080  143.3850 C   0  0  0  0  0  3  0  0  0  0  0  0
  193.4770  175.4060  145.1300 O   0  0  0  0  0  0  0  0  0  0  0  0
  192.2800  175.1320  145.4040 C   0  0  0  0  0  0  0  0  0  0  0  0
  191.8150  175.2320  146.8200 C   0  0  0  0  0  2  0  0  0  0  0  0
  190.9700  176.4810  147.0030 C   0  0  0  0  0  2  0  0  0  0  0  0
  188.6680  176.9860  146.3270 C   0  0  0  0  0  2  0  0  0  0  0  0
  189.0570  174.7820  147.2910 C   0  0  0  0  0  1  0  0  0  0  0  0
  189.5190  176.1450  146.9100 C   0  0  0  0  0  0  0  0  0  0  0  0
  1 24  1  0  0  0  0
  2  4  1  0  0  0  0
  2  6  1  0  0  0  0
  3  7  1  0  0  0  0
  3  6  1  0  0  0  0
  5  4  1  0  0  0  0
  5  1  1  1  0  0  0
  5  7  1  0  0  0  0
  6  8  1  6  0  0  0
  8  9  1  0  0  0  0
  9 10  1  0  0  0  0
 10 13  1  0  0  0  0
 13 12  1  0  0  0  0
 13 11  2  0  0  0  0
 14 15  2  0  0  0  0
 15  1  1  0  0  0  0
 17 16  1  6  0  0  0
 17 14  1  0  0  0  0
 18 20  1  1  0  0  0
 18 22  1  0  0  0  0
 18 17  1  0  0  0  0
 19 20  3  0  0  0  0
 21 22  1  0  0  0  0
 23 26  1  0  0  0  0
 24 23  2  0  0  0  0
 25 26  2  0  0  0  0
 26 27  1  0  0  0  0
 27 28  1  0  0  0  0
 29 31  2  0  0  0  0
 31 28  1  0  0  0  0
 31 30  1  0  0  0  0
M  END
>  <MODEL>
1

>  <REMARK>
 VINA RESULT:      -5.7      0.000      0.000
  Name = 
  15 active torsions:
  status: ('A' for Active; 'I' for Inactive)
    1  A    between atoms: C_1  and  N_3
    2  A    between atoms: C_1  and  C_21
    3  A    between atoms: N_3  and  C_31
    4  A    between atoms: C_5  and  C_10
    5  A    between atoms: C_5  and  C_20
    6  A    between atoms: C_14  and  C_20
    7  A    between atoms: C_17  and  C_20
    8  A    between atoms: C_18  and  N_28
    9  A    between atoms: N_19  and  N_28
   10  A    between atoms: C_22  and  C_23
   11  A    between atoms: C_22  and  C_29
   12  A    between atoms: C_24  and  N_28
   13  A    between atoms: C_25  and  C_26
   14  A    between atoms: C_26  and  C_29
   15  A    between atoms: C_27  and  C_31
                            x       y       z     vdW  Elec       q    Type
                         _______ _______ _______ _____ _____    ______ ____

>  <TORSDO>
F 15

$$$$
=
 OpenBabel11042414053D

 31 31  0  0  1  0  0  0  0  0999 V2000
  187.3660  177.5010  142.3480 N   0  0  0  0  0  0  0  0  0  0  0  0
  183.6390  178.2990  142.5460 C   0  0  0  0  0  2  0  0  0  0  0  0
  184.3930  178.4830  140.1700 C   0  0  0  0  0  2  0  0  0  0  0  0
  184.9670  177.6540  142.9350 C   0  0  0  0  0  2  0  0  0  0  0  0
  186.0790  178.1150  141.9900 C   0  0  2  0  0  3  0  0  0  0  0  0
  183.2960  177.9660  141.0950 C   0  0  2  0  0  3  0  0  0  0  0  0
  185.7280  177.8320  140.5280 C   0  0  0  0  0  2  0  0  0  0  0  0
  181.9710  178.5930  140.7100 C   0  0  0  0  0  2  0  0  0  0  0  0
  181.1420  178.7620  141.8900 N   0  0  0  0  0  2  0  0  0  0  0  0
  179.9150  178.0240  141.6460 C   0  0  0  0  0  2  0  0  0  0  0  0
  178.1190  179.3510  142.4670 O   0  0  0  0  0  0  0  0  0  0  0  0
  178.4830  179.4900  140.1760 N   0  0  0  0  0  1  0  0  0  0  0  0
  178.7860  178.9760  141.4680 C   0  0  0  0  0  0  0  0  0  0  0  0
  187.9590  175.3600  141.4960 C   0  0  0  0  0  3  0  0  0  0  0  0
  188.0720  176.6500  141.4750 N   0  0  0  0  0  0  0  0  0  0  0  0
  188.0880  174.5560  139.2210 N   0  0  0  0  0  1  0  0  0  0  0  0
  188.7190  174.5130  140.5320 C   0  0  2  0  0  3  0  0  0  0  0  0
  188.8370  173.0730  141.0480 C   0  0  1  0  0  3  0  0  0  0  0  0
  190.3730  171.5430  139.4740 C   0  0  0  0  0  3  0  0  0  0  0  0
  189.6830  172.2360  140.1820 C   0  0  0  0  0  0  0  0  0  0  0  0
  188.8670  171.9250  143.1440 O   0  0  0  0  0  1  0  0  0  0  0  0
  189.3690  173.0400  142.4720 C   0  0  0  0  0  2  0  0  0  0  0  0
  187.9980  176.9280  144.6170 C   0  0  0  0  0  3  0  0  0  0  0  0
  187.9770  177.7980  143.6090 C   0  0  0  0  0  3  0  0  0  0  0  0
  189.8580  177.4820  145.9510 O   0  0  0  0  0  0  0  0  0  0  0  0
  188.6230  177.2440  145.9090 C   0  0  0  0  0  0  0  0  0  0  0  0
  187.8240  177.3140  147.1690 C   0  0  0  0  0  2  0  0  0  0  0  0
  186.3780  176.9390  146.8880 C   0  0  0  0  0  2  0  0  0  0  0  0
  184.2410  178.0900  146.5350 C   0  0  0  0  0  2  0  0  0  0  0  0
  185.9960  179.3730  147.6370 C   0  0  0  0  0  1  0  0  0  0  0  0
  185.5070  178.1500  146.9420 C   0  0  0  0  0  0  0  0  0  0  0  0
  1 24  1  0  0  0  0
  2  4  1  0  0  0  0
  3  7  1  0  0  0  0
  3  6  1  0  0  0  0
  5  1  1  1  0  0  0
  5  4  1  0  0  0  0
  6  8  1  6  0  0  0
  6  2  1  0  0  0  0
  7  5  1  0  0  0  0
  8  9  1  0  0  0  0
 10  9  1  0  0  0  0
 12 13  1  0  0  0  0
 13 10  1  0  0  0  0
 13 11  2  0  0  0  0
 15 14  2  0  0  0  0
 15  1  1  0  0  0  0
 17 16  1  6  0  0  0
 17 18  1  0  0  0  0
 17 14  1  0  0  0  0
 18 20  1  6  0  0  0
 18 22  1  0  0  0  0
 19 20  3  0  0  0  0
 22 21  1  0  0  0  0
 23 26  1  0  0  0  0
 24 23  2  0  0  0  0
 26 25  2  0  0  0  0
 26 27  1  0  0  0  0
 28 31  1  0  0  0  0
 28 27  1  0  0  0  0
 29 31  2  0  0  0  0
 31 30  1  0  0  0  0
M  END
>  <MODEL>
2

>  <REMARK>
 VINA RESULT:      -5.5      3.435      4.697
  Name = 
  15 active torsions:
  status: ('A' for Active; 'I' for Inactive)
    1  A    between atoms: C_1  and  N_3
    2  A    between atoms: C_1  and  C_21
    3  A    between atoms: N_3  and  C_31
    4  A    between atoms: C_5  and  C_10
    5  A    between atoms: C_5  and  C_20
    6  A    between atoms: C_14  and  C_20
    7  A    between atoms: C_17  and  C_20
    8  A    between atoms: C_18  and  N_28
    9  A    between atoms: N_19  and  N_28
   10  A    between atoms: C_22  and  C_23
   11  A    between atoms: C_22  and  C_29
   12  A    between atoms: C_24  and  N_28
   13  A    between atoms: C_25  and  C_26
   14  A    between atoms: C_26  and  C_29
   15  A    between atoms: C_27  and  C_31
                            x       y       z     vdW  Elec       q    Type
                         _______ _______ _______ _____ _____    ______ ____

>  <TORSDO>
F 15

$$$$
=
 OpenBabel11042414053D

 31 31  0  0  1  0  0  0  0  0999 V2000
  190.8330  174.7130  144.9760 N   0  0  0  0  0  0  0  0  0  0  0  0
  188.2670  177.5220  145.2680 C   0  0  0  0  0  2  0  0  0  0  0  0
  187.9000  175.8800  147.1160 C   0  0  0  0  0  2  0  0  0  0  0  0
  189.5920  176.8520  144.9130 C   0  0  0  0  0  2  0  0  0  0  0  0
  189.5630  175.3740  145.3080 C   0  0  2  0  0  3  0  0  0  0  0  0
  187.9770  177.3600  146.7600 C   0  0  2  0  0  3  0  0  0  0  0  0
  189.2250  175.1940  146.7900 C   0  0  0  0  0  2  0  0  0  0  0  0
  186.6690  178.0360  147.1180 C   0  0  0  0  0  2  0  0  0  0  0  0
  185.6160  177.5820  146.2270 N   0  0  0  0  0  2  0  0  0  0  0  0
  184.7930  178.7400  145.9300 C   0  0  0  0  0  2  0  0  0  0  0  0
  185.4690  180.1370  144.1260 O   0  0  0  0  0  0  0  0  0  0  0  0
  184.3950  178.1730  143.5050 N   0  0  0  0  0  1  0  0  0  0  0  0
  184.9010  179.0730  144.4840 C   0  0  0  0  0  0  0  0  0  0  0  0
  193.0440  175.5210  145.3240 C   0  0  0  0  0  3  0  0  0  0  0  0
  192.0010  174.8780  145.7460 N   0  0  0  0  0  0  0  0  0  0  0  0
  194.2340  176.9890  146.8310 N   0  0  0  0  0  1  0  0  0  0  0  0
  194.2440  175.6780  146.1950 C   0  0  2  0  0  3  0  0  0  0  0  0
  195.5330  175.4570  145.3920 C   0  0  1  0  0  3  0  0  0  0  0  0
  196.8600  173.2690  146.1840 C   0  0  0  0  0  3  0  0  0  0  0  0
  196.2610  174.2530  145.8230 C   0  0  0  0  0  0  0  0  0  0  0  0
  196.4350  175.4540  143.1800 O   0  0  0  0  0  1  0  0  0  0  0  0
  195.2440  175.3780  143.9010 C   0  0  0  0  0  2  0  0  0  0  0  0
  190.1800  172.7080  143.7790 C   0  0  0  0  0  3  0  0  0  0  0  0
  190.9080  173.8210  143.8580 C   0  0  0  0  0  3  0  0  0  0  0  0
  191.0230  170.7910  142.7020 O   0  0  0  0  0  0  0  0  0  0  0  0
  190.2680  171.7960  142.6310 C   0  0  0  0  0  0  0  0  0  0  0  0
  189.4660  172.0170  141.3910 C   0  0  0  0  0  2  0  0  0  0  0  0
  188.1710  172.7360  141.7310 C   0  0  0  0  0  2  0  0  0  0  0  0
  188.5260  174.4310  139.9960 C   0  0  0  0  0  2  0  0  0  0  0  0
  187.7380  175.2380  142.1560 C   0  0  0  0  0  1  0  0  0  0  0  0
  188.2220  174.1510  141.2610 C   0  0  0  0  0  0  0  0  0  0  0  0
  1 15  1  0  0  0  0
  2  6  1  0  0  0  0
  4  2  1  0  0  0  0
  4  5  1  0  0  0  0
  5  1  1  1  0  0  0
  5  7  1  0  0  0  0
  6  3  1  0  0  0  0
  6  8  1  6  0  0  0
  7  3  1  0  0  0  0
  9  8  1  0  0  0  0
 10  9  1  0  0  0  0
 11 13  2  0  0  0  0
 12 13  1  0  0  0  0
 13 10  1  0  0  0  0
 14 15  2  0  0  0  0
 14 17  1  0  0  0  0
 17 16  1  6  0  0  0
 18 22  1  6  0  0  0
 18 20  1  0  0  0  0
 18 17  1  0  0  0  0
 20 19  3  0  0  0  0
 21 22  1  0  0  0  0
 23 24  2  0  0  0  0
 24  1  1  0  0  0  0
 26 25  2  0  0  0  0
 26 23  1  0  0  0  0
 27 28  1  0  0  0  0
 27 26  1  0  0  0  0
 29 31  2  0  0  0  0
 31 28  1  0  0  0  0
 31 30  1  0  0  0  0
M  END
>  <MODEL>
3

>  <REMARK>
 VINA RESULT:      -5.5      2.718      5.981
  Name = 
  15 active torsions:
  status: ('A' for Active; 'I' for Inactive)
    1  A    between atoms: C_1  and  N_3
    2  A    between atoms: C_1  and  C_21
    3  A    between atoms: N_3  and  C_31
    4  A    between atoms: C_5  and  C_10
    5  A    between atoms: C_5  and  C_20
    6  A    between atoms: C_14  and  C_20
    7  A    between atoms: C_17  and  C_20
    8  A    between atoms: C_18  and  N_28
    9  A    between atoms: N_19  and  N_28
   10  A    between atoms: C_22  and  C_23
   11  A    between atoms: C_22  and  C_29
   12  A    between atoms: C_24  and  N_28
   13  A    between atoms: C_25  and  C_26
   14  A    between atoms: C_26  and  C_29
   15  A    between atoms: C_27  and  C_31
                            x       y       z     vdW  Elec       q    Type
                         _______ _______ _______ _____ _____    ______ ____

>  <TORSDO>
F 15

$$$$
=
 OpenBabel11042414053D

 31 31  0  0  1  0  0  0  0  0999 V2000
  188.7240  176.0250  145.3870 N   0  0  0  0  0  0  0  0  0  0  0  0
  187.7640  176.0880  141.6940 C   0  0  0  0  0  2  0  0  0  0  0  0
  189.5000  174.3280  142.0620 C   0  0  0  0  0  2  0  0  0  0  0  0
  187.5860  176.2510  143.2020 C   0  0  0  0  0  2  0  0  0  0  0  0
  188.8780  175.8770  143.9330 C   0  0  2  0  0  3  0  0  0  0  0  0
  188.1850  174.6560  141.3640 C   0  0  2  0  0  3  0  0  0  0  0  0
  189.3380  174.4620  143.5740 C   0  0  0  0  0  2  0  0  0  0  0  0
  188.3490  174.4870  139.8670 C   0  0  0  0  0  2  0  0  0  0  0  0
  188.3350  173.0770  139.5230 N   0  0  0  0  0  2  0  0  0  0  0  0
  188.7940  172.9780  138.1500 C   0  0  0  0  0  2  0  0  0  0  0  0
  191.0080  172.4390  138.8380 O   0  0  0  0  0  0  0  0  0  0  0  0
  190.8540  174.0860  137.2060 N   0  0  0  0  0  1  0  0  0  0  0  0
  190.2720  173.1480  138.1040 C   0  0  0  0  0  0  0  0  0  0  0  0
  190.9710  176.2560  146.1360 C   0  0  0  0  0  3  0  0  0  0  0  0
  189.7760  175.7810  146.2930 N   0  0  0  0  0  0  0  0  0  0  0  0
  192.1010  177.0570  148.1170 N   0  0  0  0  0  1  0  0  0  0  0  0
  192.0370  175.9770  147.1410 C   0  0  2  0  0  3  0  0  0  0  0  0
  193.3920  175.7660  146.4520 C   0  0  1  0  0  3  0  0  0  0  0  0
  193.6450  173.2970  145.4450 C   0  0  0  0  0  3  0  0  0  0  0  0
  193.5350  174.4090  145.9010 C   0  0  0  0  0  0  0  0  0  0  0  0
  194.7120  177.5980  145.6700 O   0  0  0  0  0  1  0  0  0  0  0  0
  193.6170  176.7930  145.3540 C   0  0  0  0  0  2  0  0  0  0  0  0
  187.3710  177.6300  146.6020 C   0  0  0  0  0  3  0  0  0  0  0  0
  187.4820  176.4820  145.9350 C   0  0  0  0  0  3  0  0  0  0  0  0
  185.7170  177.6310  148.2770 O   0  0  0  0  0  0  0  0  0  0  0  0
  186.0940  178.0860  147.1660 C   0  0  0  0  0  0  0  0  0  0  0  0
  185.2440  179.0950  146.4650 C   0  0  0  0  0  2  0  0  0  0  0  0
  184.3330  178.4020  145.4660 C   0  0  0  0  0  2  0  0  0  0  0  0
  184.0830  178.2250  143.0330 C   0  0  0  0  0  2  0  0  0  0  0  0
  185.7320  179.8270  143.8410 C   0  0  0  0  0  1  0  0  0  0  0  0
  184.7340  178.7470  144.0710 C   0  0  0  0  0  0  0  0  0  0  0  0
  1 24  1  0  0  0  0
  1 15  1  0  0  0  0
  2  4  1  0  0  0  0
  3  7  1  0  0  0  0
  4  5  1  0  0  0  0
  5  1  1  1  0  0  0
  6  8  1  6  0  0  0
  6  2  1  0  0  0  0
  6  3  1  0  0  0  0
  7  5  1  0  0  0  0
  9  8  1  0  0  0  0
 10  9  1  0  0  0  0
 12 13  1  0  0  0  0
 13 10  1  0  0  0  0
 13 11  2  0  0  0  0
 14 15  2  0  0  0  0
 14 17  1  0  0  0  0
 17 16  1  1  0  0  0
 18 22  1  6  0  0  0
 18 17  1  0  0  0  0
 19 20  3  0  0  0  0
 20 18  1  0  0  0  0
 22 21  1  0  0  0  0
 23 26  1  0  0  0  0
 24 23  2  0  0  0  0
 26 25  2  0  0  0  0
 27 26  1  0  0  0  0
 28 27  1  0  0  0  0
 29 31  2  0  0  0  0
 30 31  1  0  0  0  0
 31 28  1  0  0  0  0
M  END
>  <MODEL>
4

>  <REMARK>
 VINA RESULT:      -5.5      2.335      7.428
  Name = 
  15 active torsions:
  status: ('A' for Active; 'I' for Inactive)
    1  A    between atoms: C_1  and  N_3
    2  A    between atoms: C_1  and  C_21
    3  A    between atoms: N_3  and  C_31
    4  A    between atoms: C_5  and  C_10
    5  A    between atoms: C_5  and  C_20
    6  A    between atoms: C_14  and  C_20
    7  A    between atoms: C_17  and  C_20
    8  A    between atoms: C_18  and  N_28
    9  A    between atoms: N_19  and  N_28
   10  A    between atoms: C_22  and  C_23
   11  A    between atoms: C_22  and  C_29
   12  A    between atoms: C_24  and  N_28
   13  A    between atoms: C_25  and  C_26
   14  A    between atoms: C_26  and  C_29
   15  A    between atoms: C_27  and  C_31
                            x       y       z     vdW  Elec       q    Type
                         _______ _______ _______ _____ _____    ______ ____

>  <TORSDO>
F 15

$$$$
=
 OpenBabel11042414053D

 31 31  0  0  1  0  0  0  0  0999 V2000
  188.1960  175.7830  143.3720 N   0  0  0  0  0  0  0  0  0  0  0  0
  191.3120  177.0620  145.1660 C   0  0  0  0  0  2  0  0  0  0  0  0
  190.4460  175.0440  146.3610 C   0  0  0  0  0  2  0  0  0  0  0  0
  190.3640  176.7980  144.0000 C   0  0  0  0  0  2  0  0  0  0  0  0
  189.1210  176.0480  144.4840 C   0  0  2  0  0  3  0  0  0  0  0  0
  191.6970  175.7460  145.8410 C   0  0  2  0  0  3  0  0  0  0  0  0
  189.4930  174.7510  145.2060 C   0  0  0  0  0  2  0  0  0  0  0  0
  192.6500  176.0030  146.9910 C   0  0  0  0  0  2  0  0  0  0  0  0
  193.8560  176.6440  146.5000 N   0  0  0  0  0  2  0  0  0  0  0  0
  194.8240  175.5870  146.2670 C   0  0  0  0  0  2  0  0  0  0  0  0
  195.4220  176.7440  144.2750 O   0  0  0  0  0  0  0  0  0  0  0  0
  195.6050  174.4300  144.1670 N   0  0  0  0  0  1  0  0  0  0  0  0
  195.2850  175.6340  144.8530 C   0  0  0  0  0  0  0  0  0  0  0  0
  189.2570  174.7050  141.5350 C   0  0  0  0  0  3  0  0  0  0  0  0
  188.3690  174.7070  142.4780 N   0  0  0  0  0  0  0  0  0  0  0  0
  188.1260  172.8450  140.4840 N   0  0  0  0  0  1  0  0  0  0  0  0
  189.4050  173.5270  140.6320 C   0  0  2  0  0  3  0  0  0  0  0  0
  190.4890  172.5740  141.1530 C   0  0  1  0  0  3  0  0  0  0  0  0
  192.3540  173.8520  142.5880 C   0  0  0  0  0  3  0  0  0  0  0  0
  191.5160  173.2730  141.9420 C   0  0  0  0  0  0  0  0  0  0  0  0
  190.8850  170.5870  142.4200 O   0  0  0  0  0  1  0  0  0  0  0  0
  189.8820  171.4500  141.9790 C   0  0  0  0  0  2  0  0  0  0  0  0
  187.0640  177.9260  143.3390 C   0  0  0  0  0  3  0  0  0  0  0  0
  187.0370  176.6030  143.1910 C   0  0  0  0  0  3  0  0  0  0  0  0
  185.1950  178.6430  142.0990 O   0  0  0  0  0  0  0  0  0  0  0  0
  185.8670  178.7580  143.1570 C   0  0  0  0  0  0  0  0  0  0  0  0
  185.4140  179.7200  144.2070 C   0  0  0  0  0  2  0  0  0  0  0  0
  184.4190  179.0440  145.1350 C   0  0  0  0  0  2  0  0  0  0  0  0
  185.6590  179.1110  147.2500 C   0  0  0  0  0  2  0  0  0  0  0  0
  185.0770  176.9010  146.4030 C   0  0  0  0  0  1  0  0  0  0  0  0
  185.1310  178.3830  146.2680 C   0  0  0  0  0  0  0  0  0  0  0  0
  2  6  1  0  0  0  0
  4  5  1  0  0  0  0
  4  2  1  0  0  0  0
  5  1  1  6  0  0  0
  5  7  1  0  0  0  0
  6  3  1  0  0  0  0
  6  8  1  1  0  0  0
  7  3  1  0  0  0  0
  9  8  1  0  0  0  0
 10  9  1  0  0  0  0
 11 13  2  0  0  0  0
 12 13  1  0  0  0  0
 13 10  1  0  0  0  0
 14 15  2  0  0  0  0
 15  1  1  0  0  0  0
 17 16  1  1  0  0  0
 17 18  1  0  0  0  0
 17 14  1  0  0  0  0
 18 20  1  1  0  0  0
 18 22  1  0  0  0  0
 20 19  3  0  0  0  0
 22 21  1  0  0  0  0
 24 23  2  0  0  0  0
 24  1  1  0  0  0  0
 25 26  2  0  0  0  0
 26 23  1  0  0  0  0
 26 27  1  0  0  0  0
 27 28  1  0  0  0  0
 28 31  1  0  0  0  0
 31 30  1  0  0  0  0
 31 29  2  0  0  0  0
M  END
>  <MODEL>
5

>  <REMARK>
 VINA RESULT:      -5.5      2.599      6.431
  Name = 
  15 active torsions:
  status: ('A' for Active; 'I' for Inactive)
    1  A    between atoms: C_1  and  N_3
    2  A    between atoms: C_1  and  C_21
    3  A    between atoms: N_3  and  C_31
    4  A    between atoms: C_5  and  C_10
    5  A    between atoms: C_5  and  C_20
    6  A    between atoms: C_14  and  C_20
    7  A    between atoms: C_17  and  C_20
    8  A    between atoms: C_18  and  N_28
    9  A    between atoms: N_19  and  N_28
   10  A    between atoms: C_22  and  C_23
   11  A    between atoms: C_22  and  C_29
   12  A    between atoms: C_24  and  N_28
   13  A    between atoms: C_25  and  C_26
   14  A    between atoms: C_26  and  C_29
   15  A    between atoms: C_27  and  C_31
                            x       y       z     vdW  Elec       q    Type
                         _______ _______ _______ _____ _____    ______ ____

>  <TORSDO>
F 15

$$$$
=
 OpenBabel11042414053D

 31 31  0  0  1  0  0  0  0  0999 V2000
  188.0580  175.9410  142.8230 N   0  0  0  0  0  0  0  0  0  0  0  0
  190.4330  177.3150  145.4750 C   0  0  0  0  0  2  0  0  0  0  0  0
  190.6070  174.8220  145.4300 C   0  0  0  0  0  2  0  0  0  0  0  0
  189.6130  177.2980  144.1870 C   0  0  0  0  0  2  0  0  0  0  0  0
  188.8520  175.9760  144.0590 C   0  0  2  0  0  3  0  0  0  0  0  0
  191.3930  176.1260  145.5050 C   0  0  2  0  0  3  0  0  0  0  0  0
  189.7960  174.7740  144.1370 C   0  0  0  0  0  2  0  0  0  0  0  0
  192.2190  176.1480  146.7760 C   0  0  0  0  0  2  0  0  0  0  0  0
  193.5280  176.7170  146.5060 N   0  0  0  0  0  2  0  0  0  0  0  0
  194.4400  175.6000  146.3370 C   0  0  0  0  0  2  0  0  0  0  0  0
  194.5320  174.4920  144.2330 O   0  0  0  0  0  0  0  0  0  0  0  0
  195.5750  176.5670  144.3020 N   0  0  0  0  0  1  0  0  0  0  0  0
  194.8520  175.5030  144.9100 C   0  0  0  0  0  0  0  0  0  0  0  0
  188.2340  174.2840  141.1230 C   0  0  0  0  0  3  0  0  0  0  0  0
  188.5650  175.4390  141.6070 N   0  0  0  0  0  0  0  0  0  0  0  0
  188.0250  172.6800  139.3270 N   0  0  0  0  0  1  0  0  0  0  0  0
  188.7900  173.8170  139.8210 C   0  0  2  0  0  3  0  0  0  0  0  0
  190.2790  173.4710  139.9570 C   0  0  1  0  0  3  0  0  0  0  0  0
  190.7230  171.6210  141.8430 C   0  0  0  0  0  3  0  0  0  0  0  0
  190.5240  172.4510  140.9900 C   0  0  0  0  0  0  0  0  0  0  0  0
  190.6940  174.0010  137.6650 O   0  0  0  0  0  1  0  0  0  0  0  0
  190.8590  173.0080  138.6300 C   0  0  0  0  0  2  0  0  0  0  0  0
  186.3580  177.6680  142.7760 C   0  0  0  0  0  3  0  0  0  0  0  0
  186.6960  176.3810  142.8310 C   0  0  0  0  0  3  0  0  0  0  0  0
  184.2080  177.8060  141.8270 O   0  0  0  0  0  0  0  0  0  0  0  0
  184.9570  178.1110  142.7910 C   0  0  0  0  0  0  0  0  0  0  0  0
  184.3950  178.8910  143.9330 C   0  0  0  0  0  2  0  0  0  0  0  0
  185.5140  179.3420  144.8560 C   0  0  0  0  0  2  0  0  0  0  0  0
  184.3580  178.2990  146.7500 C   0  0  0  0  0  2  0  0  0  0  0  0
  186.7450  177.8490  146.5560 C   0  0  0  0  0  1  0  0  0  0  0  0
  185.5030  178.5430  146.1160 C   0  0  0  0  0  0  0  0  0  0  0  0
  1 24  1  0  0  0  0
  2  6  1  0  0  0  0
  3  6  1  0  0  0  0
  4  2  1  0  0  0  0
  5  1  1  6  0  0  0
  5  7  1  0  0  0  0
  5  4  1  0  0  0  0
  6  8  1  1  0  0  0
  7  3  1  0  0  0  0
  9  8  1  0  0  0  0
 10  9  1  0  0  0  0
 11 13  2  0  0  0  0
 12 13  1  0  0  0  0
 13 10  1  0  0  0  0
 14 15  2  0  0  0  0
 15  1  1  0  0  0  0
 17 16  1  1  0  0  0
 17 18  1  0  0  0  0
 17 14  1  0  0  0  0
 18 22  1  6  0  0  0
 18 20  1  0  0  0  0
 20 19  3  0  0  0  0
 21 22  1  0  0  0  0
 23 26  1  0  0  0  0
 23 24  2  0  0  0  0
 25 26  2  0  0  0  0
 26 27  1  0  0  0  0
 27 28  1  0  0  0  0
 28 31  1  0  0  0  0
 31 30  1  0  0  0  0
 31 29  2  0  0  0  0
M  END
>  <MODEL>
6

>  <REMARK>
 VINA RESULT:      -5.5      2.417      6.187
  Name = 
  15 active torsions:
  status: ('A' for Active; 'I' for Inactive)
    1  A    between atoms: C_1  and  N_3
    2  A    between atoms: C_1  and  C_21
    3  A    between atoms: N_3  and  C_31
    4  A    between atoms: C_5  and  C_10
    5  A    between atoms: C_5  and  C_20
    6  A    between atoms: C_14  and  C_20
    7  A    between atoms: C_17  and  C_20
    8  A    between atoms: C_18  and  N_28
    9  A    between atoms: N_19  and  N_28
   10  A    between atoms: C_22  and  C_23
   11  A    between atoms: C_22  and  C_29
   12  A    between atoms: C_24  and  N_28
   13  A    between atoms: C_25  and  C_26
   14  A    between atoms: C_26  and  C_29
   15  A    between atoms: C_27  and  C_31
                            x       y       z     vdW  Elec       q    Type
                         _______ _______ _______ _____ _____    ______ ____

>  <TORSDO>
F 15

$$$$
=
 OpenBabel11042414053D

 31 31  0  0  1  0  0  0  0  0999 V2000
  191.4520  175.6550  142.9150 N   0  0  0  0  0  0  0  0  0  0  0  0
  188.5240  178.0020  142.2230 C   0  0  0  0  0  2  0  0  0  0  0  0
  187.6480  175.7010  142.6520 C   0  0  0  0  0  2  0  0  0  0  0  0
  189.9130  177.5790  142.6940 C   0  0  0  0  0  2  0  0  0  0  0  0
  190.1190  176.0800  142.4640 C   0  0  2  0  0  3  0  0  0  0  0  0
  187.4510  177.1850  142.9420 C   0  0  2  0  0  3  0  0  0  0  0  0
  189.0240  175.2510  143.1380 C   0  0  0  0  0  2  0  0  0  0  0  0
  186.0700  177.6120  142.4860 C   0  0  0  0  0  2  0  0  0  0  0  0
  185.1340  177.5250  143.5920 N   0  0  0  0  0  2  0  0  0  0  0  0
  185.5190  178.5500  144.5450 C   0  0  0  0  0  2  0  0  0  0  0  0
  185.3260  176.7770  146.1200 O   0  0  0  0  0  0  0  0  0  0  0  0
  185.3870  178.9100  147.0380 N   0  0  0  0  0  1  0  0  0  0  0  0
  185.3940  178.0190  145.9290 C   0  0  0  0  0  0  0  0  0  0  0  0
  193.5440  176.1750  141.9080 C   0  0  0  0  0  3  0  0  0  0  0  0
  192.5120  175.3990  142.0230 N   0  0  0  0  0  0  0  0  0  0  0  0
  194.2070  174.8090  140.0270 N   0  0  0  0  0  1  0  0  0  0  0  0
  194.6440  175.8400  140.9580 C   0  0  2  0  0  3  0  0  0  0  0  0
  195.9060  175.4070  141.7170 C   0  0  1  0  0  3  0  0  0  0  0  0
  197.9180  174.7540  140.0750 C   0  0  0  0  0  3  0  0  0  0  0  0
  197.0100  175.0500  140.8110 C   0  0  0  0  0  0  0  0  0  0  0  0
  196.3420  176.0000  143.9910 O   0  0  0  0  0  1  0  0  0  0  0  0
  196.3630  176.4880  142.6840 C   0  0  0  0  0  2  0  0  0  0  0  0
  192.5840  176.3340  144.9490 C   0  0  0  0  0  3  0  0  0  0  0  0
  191.7310  175.5320  144.3140 C   0  0  0  0  0  3  0  0  0  0  0  0
  193.8630  176.7920  146.8710 O   0  0  0  0  0  0  0  0  0  0  0  0
  192.8680  176.1960  146.3830 C   0  0  0  0  0  0  0  0  0  0  0  0
  191.9920  175.3860  147.2810 C   0  0  0  0  0  2  0  0  0  0  0  0
  190.8620  176.2480  147.8200 C   0  0  0  0  0  2  0  0  0  0  0  0
  188.9920  174.8490  147.0730 C   0  0  0  0  0  2  0  0  0  0  0  0
  188.9590  177.1770  146.3550 C   0  0  0  0  0  1  0  0  0  0  0  0
  189.6150  176.0240  147.0320 C   0  0  0  0  0  0  0  0  0  0  0  0
  1 24  1  0  0  0  0
  2  4  1  0  0  0  0
  2  6  1  0  0  0  0
  3  6  1  0  0  0  0
  3  7  1  0  0  0  0
  5  4  1  0  0  0  0
  5  1  1  1  0  0  0
  5  7  1  0  0  0  0
  6  8  1  6  0  0  0
  8  9  1  0  0  0  0
  9 10  1  0  0  0  0
 10 13  1  0  0  0  0
 13 11  2  0  0  0  0
 13 12  1  0  0  0  0
 14 15  2  0  0  0  0
 15  1  1  0  0  0  0
 17 16  1  6  0  0  0
 17 18  1  0  0  0  0
 17 14  1  0  0  0  0
 18 20  1  6  0  0  0
 18 22  1  0  0  0  0
 19 20  3  0  0  0  0
 22 21  1  0  0  0  0
 23 26  1  0  0  0  0
 24 23  2  0  0  0  0
 26 25  2  0  0  0  0
 26 27  1  0  0  0  0
 27 28  1  0  0  0  0
 30 31  1  0  0  0  0
 31 29  2  0  0  0  0
 31 28  1  0  0  0  0
M  END
>  <MODEL>
7

>  <REMARK>
 VINA RESULT:      -5.4      3.161      4.252
  Name = 
  15 active torsions:
  status: ('A' for Active; 'I' for Inactive)
    1  A    between atoms: C_1  and  N_3
    2  A    between atoms: C_1  and  C_21
    3  A    between atoms: N_3  and  C_31
    4  A    between atoms: C_5  and  C_10
    5  A    between atoms: C_5  and  C_20
    6  A    between atoms: C_14  and  C_20
    7  A    between atoms: C_17  and  C_20
    8  A    between atoms: C_18  and  N_28
    9  A    between atoms: N_19  and  N_28
   10  A    between atoms: C_22  and  C_23
   11  A    between atoms: C_22  and  C_29
   12  A    between atoms: C_24  and  N_28
   13  A    between atoms: C_25  and  C_26
   14  A    between atoms: C_26  and  C_29
   15  A    between atoms: C_27  and  C_31
                            x       y       z     vdW  Elec       q    Type
                         _______ _______ _______ _____ _____    ______ ____

>  <TORSDO>
F 15

$$$$
=
 OpenBabel11042414053D

 31 31  0  0  1  0  0  0  0  0999 V2000
  190.4460  175.7230  143.9190 N   0  0  0  0  0  0  0  0  0  0  0  0
  188.4840  177.9390  141.5110 C   0  0  0  0  0  2  0  0  0  0  0  0
  187.9790  175.5420  141.0160 C   0  0  0  0  0  2  0  0  0  0  0  0
  189.1940  177.5410  142.8020 C   0  0  0  0  0  2  0  0  0  0  0  0
  189.7610  176.1240  142.6820 C   0  0  2  0  0  3  0  0  0  0  0  0
  187.3800  176.9340  141.1830 C   0  0  2  0  0  3  0  0  0  0  0  0
  188.6750  175.1140  142.3060 C   0  0  0  0  0  2  0  0  0  0  0  0
  186.6650  177.3350  139.9080 C   0  0  0  0  0  2  0  0  0  0  0  0
  185.6040  178.2790  140.2120 N   0  0  0  0  0  2  0  0  0  0  0  0
  184.9960  177.8370  141.4540 C   0  0  0  0  0  2  0  0  0  0  0  0
  182.8790  178.2500  140.4470 O   0  0  0  0  0  0  0  0  0  0  0  0
  182.9900  178.6810  142.7280 N   0  0  0  0  0  1  0  0  0  0  0  0
  183.5740  178.2730  141.4970 C   0  0  0  0  0  0  0  0  0  0  0  0
  192.6570  176.3980  143.3570 C   0  0  0  0  0  3  0  0  0  0  0  0
  191.8490  175.6310  144.0170 N   0  0  0  0  0  0  0  0  0  0  0  0
  194.7160  175.6640  142.3260 N   0  0  0  0  0  1  0  0  0  0  0  0
  194.1340  176.2640  143.5190 C   0  0  2  0  0  3  0  0  0  0  0  0
  194.4730  175.4520  144.7760 C   0  0  1  0  0  3  0  0  0  0  0  0
  196.7720  174.1020  144.5180 C   0  0  0  0  0  3  0  0  0  0  0  0
  195.7370  174.7100  144.6380 C   0  0  0  0  0  0  0  0  0  0  0  0
  194.7830  177.6610  145.6300 O   0  0  0  0  0  1  0  0  0  0  0  0
  194.5310  176.3420  146.0070 C   0  0  0  0  0  2  0  0  0  0  0  0
  188.7810  176.3020  145.5840 C   0  0  0  0  0  3  0  0  0  0  0  0
  189.6890  175.4540  145.1050 C   0  0  0  0  0  3  0  0  0  0  0  0
  188.4940  175.2350  147.6620 O   0  0  0  0  0  0  0  0  0  0  0  0
  188.0140  176.0200  146.8040 C   0  0  0  0  0  0  0  0  0  0  0  0
  186.6900  176.6620  147.0630 C   0  0  0  0  0  2  0  0  0  0  0  0
  185.9510  176.8750  145.7530 C   0  0  0  0  0  2  0  0  0  0  0  0
  184.3450  178.5000  146.6440 C   0  0  0  0  0  2  0  0  0  0  0  0
  185.8050  179.2850  144.8570 C   0  0  0  0  0  1  0  0  0  0  0  0
  185.2820  178.2090  145.7450 C   0  0  0  0  0  0  0  0  0  0  0  0
  1 15  1  0  0  0  0
  1 24  1  0  0  0  0
  2  4  1  0  0  0  0
  3  6  1  0  0  0  0
  3  7  1  0  0  0  0
  5  4  1  0  0  0  0
  5  1  1  1  0  0  0
  6  8  1  6  0  0  0
  6  2  1  0  0  0  0
  7  5  1  0  0  0  0
  8  9  1  0  0  0  0
  9 10  1  0  0  0  0
 10 13  1  0  0  0  0
 11 13  2  0  0  0  0
 13 12  1  0  0  0  0
 14 17  1  0  0  0  0
 14 15  2  0  0  0  0
 17 16  1  6  0  0  0
 17 18  1  0  0  0  0
 18 20  1  6  0  0  0
 18 22  1  0  0  0  0
 19 20  3  0  0  0  0
 21 22  1  0  0  0  0
 23 26  1  0  0  0  0
 24 23  2  0  0  0  0
 26 27  1  0  0  0  0
 26 25  2  0  0  0  0
 28 27  1  0  0  0  0
 30 31  1  0  0  0  0
 31 28  1  0  0  0  0
 31 29  2  0  0  0  0
M  END
>  <MODEL>
8

>  <REMARK>
 VINA RESULT:      -5.3      3.227      5.535
  Name = 
  15 active torsions:
  status: ('A' for Active; 'I' for Inactive)
    1  A    between atoms: C_1  and  N_3
    2  A    between atoms: C_1  and  C_21
    3  A    between atoms: N_3  and  C_31
    4  A    between atoms: C_5  and  C_10
    5  A    between atoms: C_5  and  C_20
    6  A    between atoms: C_14  and  C_20
    7  A    between atoms: C_17  and  C_20
    8  A    between atoms: C_18  and  N_28
    9  A    between atoms: N_19  and  N_28
   10  A    between atoms: C_22  and  C_23
   11  A    between atoms: C_22  and  C_29
   12  A    between atoms: C_24  and  N_28
   13  A    between atoms: C_25  and  C_26
   14  A    between atoms: C_26  and  C_29
   15  A    between atoms: C_27  and  C_31
                            x       y       z     vdW  Elec       q    Type
                         _______ _______ _______ _____ _____    ______ ____

>  <TORSDO>
F 15

$$$$
=
 OpenBabel11042414053D

 31 31  0  0  1  0  0  0  0  0999 V2000
  190.8160  175.2490  144.3330 N   0  0  0  0  0  0  0  0  0  0  0  0
  188.1270  176.0710  146.9130 C   0  0  0  0  0  2  0  0  0  0  0  0
  187.9070  177.6310  144.9720 C   0  0  0  0  0  2  0  0  0  0  0  0
  189.1170  175.2110  146.1310 C   0  0  0  0  0  2  0  0  0  0  0  0
  189.8600  176.0620  145.0980 C   0  0  2  0  0  3  0  0  0  0  0  0
  187.1470  176.7490  145.9560 C   0  0  2  0  0  3  0  0  0  0  0  0
  188.8880  176.7860  144.1630 C   0  0  0  0  0  2  0  0  0  0  0  0
  186.1530  177.5920  146.7300 C   0  0  0  0  0  2  0  0  0  0  0  0
  184.8110  177.3640  146.2260 N   0  0  0  0  0  2  0  0  0  0  0  0
  184.2590  178.6690  145.9060 C   0  0  0  0  0  2  0  0  0  0  0  0
  185.1570  180.1540  144.2780 O   0  0  0  0  0  0  0  0  0  0  0  0
  184.4050  178.1180  143.4490 N   0  0  0  0  0  1  0  0  0  0  0  0
  184.6240  179.0380  144.5120 C   0  0  0  0  0  0  0  0  0  0  0  0
  190.1400  173.3340  143.0930 C   0  0  0  0  0  3  0  0  0  0  0  0
  190.4680  174.5860  143.1390 N   0  0  0  0  0  0  0  0  0  0  0  0
  190.5970  171.5260  141.5560 N   0  0  0  0  0  1  0  0  0  0  0  0
  189.7620  172.6940  141.8000 C   0  0  2  0  0  3  0  0  0  0  0  0
  189.8590  173.7000  140.6450 C   0  0  1  0  0  3  0  0  0  0  0  0
  191.7950  173.0660  138.9060 C   0  0  0  0  0  3  0  0  0  0  0  0
  190.9250  173.3560  139.6900 C   0  0  0  0  0  0  0  0  0  0  0  0
  188.2940  172.6780  139.1570 O   0  0  0  0  0  1  0  0  0  0  0  0
  188.5320  173.8260  139.9130 C   0  0  0  0  0  2  0  0  0  0  0  0
  193.0530  176.1370  144.6220 C   0  0  0  0  0  3  0  0  0  0  0  0
  192.1770  175.1440  144.7650 C   0  0  0  0  0  3  0  0  0  0  0  0
  195.3260  176.7450  144.5270 O   0  0  0  0  0  0  0  0  0  0  0  0
  194.4490  176.0180  145.0630 C   0  0  0  0  0  0  0  0  0  0  0  0
  194.8500  175.0740  146.1490 C   0  0  0  0  0  2  0  0  0  0  0  0
  196.1020  174.3160  145.7420 C   0  0  0  0  0  2  0  0  0  0  0  0
  196.8220  171.9720  145.7630 C   0  0  0  0  0  2  0  0  0  0  0  0
  194.4180  172.3680  145.7220 C   0  0  0  0  0  1  0  0  0  0  0  0
  195.8260  172.8510  145.6790 C   0  0  0  0  0  0  0  0  0  0  0  0
  1 24  1  0  0  0  0
  3  6  1  0  0  0  0
  4  2  1  0  0  0  0
  5  1  1  6  0  0  0
  5  4  1  0  0  0  0
  6  8  1  1  0  0  0
  6  2  1  0  0  0  0
  7  3  1  0  0  0  0
  7  5  1  0  0  0  0
  9  8  1  0  0  0  0
 10  9  1  0  0  0  0
 11 13  2  0  0  0  0
 12 13  1  0  0  0  0
 13 10  1  0  0  0  0
 14 15  2  0  0  0  0
 15  1  1  0  0  0  0
 17 16  1  6  0  0  0
 17 14  1  0  0  0  0
 18 20  1  6  0  0  0
 18 17  1  0  0  0  0
 19 20  3  0  0  0  0
 21 22  1  0  0  0  0
 22 18  1  0  0  0  0
 23 24  2  0  0  0  0
 23 26  1  0  0  0  0
 25 26  2  0  0  0  0
 26 27  1  0  0  0  0
 28 27  1  0  0  0  0
 31 30  1  0  0  0  0
 31 28  1  0  0  0  0
 31 29  2  0  0  0  0
M  END
>  <MODEL>
9

>  <REMARK>
 VINA RESULT:      -5.3      2.211      3.682
  Name = 
  15 active torsions:
  status: ('A' for Active; 'I' for Inactive)
    1  A    between atoms: C_1  and  N_3
    2  A    between atoms: C_1  and  C_21
    3  A    between atoms: N_3  and  C_31
    4  A    between atoms: C_5  and  C_10
    5  A    between atoms: C_5  and  C_20
    6  A    between atoms: C_14  and  C_20
    7  A    between atoms: C_17  and  C_20
    8  A    between atoms: C_18  and  N_28
    9  A    between atoms: N_19  and  N_28
   10  A    between atoms: C_22  and  C_23
   11  A    between atoms: C_22  and  C_29
   12  A    between atoms: C_24  and  N_28
   13  A    between atoms: C_25  and  C_26
   14  A    between atoms: C_26  and  C_29
   15  A    between atoms: C_27  and  C_31
                            x       y       z     vdW  Elec       q    Type
                         _______ _______ _______ _____ _____    ______ ____

>  <TORSDO>
F 15

$$$$
