=
 OpenBabel11042418503D

 26 28  0  0  1  0  0  0  0  0999 V2000
  187.5600  177.2120  144.3940 C   0  0  0  0  0  0  0  0  0  0  0  0
  189.6820  173.9870  146.0990 C   0  0  0  0  0  3  0  0  0  0  0  0
  188.5980  177.5500  146.5610 C   0  0  0  0  0  0  0  0  0  0  0  0
  185.0900  177.5980  144.2730 C   0  0  0  0  0  2  0  0  0  0  0  0
  187.5270  177.6210  145.8190 C   0  0  0  0  0  0  0  0  0  0  0  0
  186.4490  176.8550  142.3310 O   0  0  0  0  0  1  0  0  0  0  0  0
  189.2070  175.5920  143.6650 C   0  0  0  0  0  0  0  0  0  0  0  0
  192.3950  175.1100  144.9010 C   0  0  0  0  0  2  0  0  0  0  0  0
  191.7990  173.7160  144.6730 C   0  0  0  0  0  2  0  0  0  0  0  0
  186.2630  178.0520  146.4190 C   0  0  0  0  0  3  0  0  0  0  0  0
  190.0370  175.0980  146.6730 C   0  0  0  0  0  0  0  0  0  0  0  0
  189.7120  177.4270  147.2350 C   0  0  0  0  0  3  0  0  0  0  0  0
  192.0390  176.4190  147.0540 C   0  0  0  0  0  2  0  0  0  0  0  0
  188.8400  176.8420  143.7560 C   0  0  0  0  0  3  0  0  0  0  0  0
  190.5460  176.2190  147.1190 C   0  0  0  0  0  0  0  0  0  0  0  0
  185.1360  178.0540  145.7100 C   0  0  0  0  0  0  0  0  0  0  0  0
  189.5650  174.3290  143.5810 C   0  0  0  0  0  0  0  0  0  0  0  0
  183.9610  178.4760  146.3160 O   0  0  0  0  0  1  0  0  0  0  0  0
  186.4240  177.2160  143.6740 C   0  0  0  0  0  0  0  0  0  0  0  0
  190.2590  173.6580  144.7480 C   0  0  2  0  0  3  0  0  0  0  0  0
  192.8150  175.2840  146.3630 C   0  0  2  0  0  3  0  0  0  0  0  0
  194.2990  175.5770  146.4280 C   0  0  0  0  0  1  0  0  0  0  0  0
  188.6270  172.2680  142.4540 C   0  0  0  0  0  1  0  0  0  0  0  0
  189.2690  173.5730  142.3860 N   0  0  0  0  0  0  0  0  0  0  0  0
  189.7180  174.0230  141.0760 C   0  0  0  0  0  2  0  0  0  0  0  0
  191.2070  173.7830  140.9200 C   0  0  0  0  0  1  0  0  0  0  0  0
  1  5  1  0  0  0  0
  2 11  2  0  0  0  0
  3 12  2  0  0  0  0
  4 16  1  0  0  0  0
  5 10  1  0  0  0  0
  5  3  2  0  0  0  0
  6 19  1  0  0  0  0
  7 14  2  0  0  0  0
  8 21  1  0  0  0  0
  9  8  1  0  0  0  0
 11 15  2  0  0  0  0
 13 15  1  0  0  0  0
 14  1  1  0  0  0  0
 15 12  1  0  0  0  0
 16 18  1  0  0  0  0
 16 10  2  0  0  0  0
 17  7  2  0  0  0  0
 17 20  1  0  0  0  0
 19  4  1  0  0  0  0
 19  1  2  0  0  0  0
 20  9  1  1  0  0  0
 20  2  1  0  0  0  0
 21 22  1  6  0  0  0
 21 13  1  0  0  0  0
 24 23  1  0  0  0  0
 24 17  1  0  0  0  0
 25 24  1  0  0  0  0
 26 25  1  0  0  0  0
M  END
>  <MODEL>
1

>  <REMARK>
 VINA RESULT:      -8.2      0.000      0.000
  Name = 
  2 active torsions:
  status: ('A' for Active; 'I' for Inactive)
    1  A    between atoms: C_18  and  N_22
    2  A    between atoms: C_19  and  N_22
                            x       y       z     vdW  Elec       q    Type
                         _______ _______ _______ _____ _____    ______ ____

>  <TORSDO>
F 2

$$$$
=
 OpenBabel11042418503D

 26 28  0  0  1  0  0  0  0  0999 V2000
  187.7500  177.3880  144.4890 C   0  0  0  0  0  0  0  0  0  0  0  0
  189.9800  173.9870  145.6160 C   0  0  0  0  0  3  0  0  0  0  0  0
  188.7390  177.3580  146.7040 C   0  0  0  0  0  0  0  0  0  0  0  0
  185.2680  177.6940  144.3860 C   0  0  0  0  0  2  0  0  0  0  0  0
  187.6770  177.5250  145.9630 C   0  0  0  0  0  0  0  0  0  0  0  0
  186.6860  177.3780  142.3700 O   0  0  0  0  0  1  0  0  0  0  0  0
  189.4750  175.9970  143.5100 C   0  0  0  0  0  0  0  0  0  0  0  0
  192.6610  175.4190  144.7070 C   0  0  0  0  0  2  0  0  0  0  0  0
  192.1280  174.0690  144.2120 C   0  0  0  0  0  2  0  0  0  0  0  0
  186.3880  177.7870  146.6050 C   0  0  0  0  0  3  0  0  0  0  0  0
  190.2800  174.9870  146.3930 C   0  0  0  0  0  0  0  0  0  0  0  0
  189.8470  177.1560  147.3690 C   0  0  0  0  0  3  0  0  0  0  0  0
  192.2170  176.2900  147.0570 C   0  0  0  0  0  2  0  0  0  0  0  0
  189.0540  177.1940  143.8230 C   0  0  0  0  0  3  0  0  0  0  0  0
  190.7330  176.0240  147.0500 C   0  0  0  0  0  0  0  0  0  0  0  0
  185.2720  177.8760  145.8830 C   0  0  0  0  0  0  0  0  0  0  0  0
  189.8870  174.7870  143.2020 C   0  0  0  0  0  0  0  0  0  0  0  0
  184.0710  178.1330  146.5290 O   0  0  0  0  0  1  0  0  0  0  0  0
  186.6250  177.4820  143.7570 C   0  0  0  0  0  0  0  0  0  0  0  0
  190.5910  173.9380  144.2400 C   0  0  2  0  0  3  0  0  0  0  0  0
  193.0510  175.3350  146.1850 C   0  0  2  0  0  3  0  0  0  0  0  0
  194.5200  175.6670  146.3370 C   0  0  0  0  0  1  0  0  0  0  0  0
  190.7370  173.9410  140.9750 C   0  0  0  0  0  1  0  0  0  0  0  0
  189.6410  174.2550  141.8820 N   0  0  0  0  0  0  0  0  0  0  0  0
  188.2890  174.1350  141.3540 C   0  0  0  0  0  2  0  0  0  0  0  0
  187.6590  172.8350  141.8170 C   0  0  0  0  0  1  0  0  0  0  0  0
  1  5  1  0  0  0  0
  2 11  2  0  0  0  0
  3 12  2  0  0  0  0
  4 16  1  0  0  0  0
  5 10  1  0  0  0  0
  5  3  2  0  0  0  0
  6 19  1  0  0  0  0
  7 14  2  0  0  0  0
  8 21  1  0  0  0  0
  9  8  1  0  0  0  0
 11 15  2  0  0  0  0
 14  1  1  0  0  0  0
 15 13  1  0  0  0  0
 15 12  1  0  0  0  0
 16 18  1  0  0  0  0
 16 10  2  0  0  0  0
 17  7  2  0  0  0  0
 17 20  1  0  0  0  0
 19  4  1  0  0  0  0
 19  1  2  0  0  0  0
 20  9  1  1  0  0  0
 20  2  1  0  0  0  0
 21 22  1  6  0  0  0
 21 13  1  0  0  0  0
 23 24  1  0  0  0  0
 24 17  1  0  0  0  0
 25 26  1  0  0  0  0
 25 24  1  0  0  0  0
M  END
>  <MODEL>
2

>  <REMARK>
 VINA RESULT:      -8.0      0.583      1.086
  Name = 
  2 active torsions:
  status: ('A' for Active; 'I' for Inactive)
    1  A    between atoms: C_18  and  N_22
    2  A    between atoms: C_19  and  N_22
                            x       y       z     vdW  Elec       q    Type
                         _______ _______ _______ _____ _____    ______ ____

>  <TORSDO>
F 2

$$$$
=
 OpenBabel11042418503D

 26 28  0  0  1  0  0  0  0  0999 V2000
  191.4300  174.2790  145.3660 C   0  0  0  0  0  0  0  0  0  0  0  0
  189.2040  177.5200  143.8320 C   0  0  0  0  0  3  0  0  0  0  0  0
  191.1040  176.2140  146.7930 C   0  0  0  0  0  0  0  0  0  0  0  0
  193.8020  173.6260  144.9070 C   0  0  0  0  0  2  0  0  0  0  0  0
  191.9280  175.3600  146.2500 C   0  0  0  0  0  0  0  0  0  0  0  0
  191.8490  172.4330  143.9390 O   0  0  0  0  0  1  0  0  0  0  0  0
  189.3430  174.5890  144.1760 C   0  0  0  0  0  0  0  0  0  0  0  0
  186.5730  176.3830  145.1900 C   0  0  0  0  0  2  0  0  0  0  0  0
  186.7760  176.6960  143.7030 C   0  0  0  0  0  2  0  0  0  0  0  0
  193.3670  175.5120  146.4690 C   0  0  0  0  0  3  0  0  0  0  0  0
  189.2590  177.6000  145.1290 C   0  0  0  0  0  0  0  0  0  0  0  0
  190.2100  177.0360  147.2790 C   0  0  0  0  0  3  0  0  0  0  0  0
  187.7600  177.6700  147.0370 C   0  0  0  0  0  2  0  0  0  0  0  0
  189.9780  174.0700  145.1930 C   0  0  0  0  0  3  0  0  0  0  0  0
  189.1380  177.5860  146.4320 C   0  0  0  0  0  0  0  0  0  0  0  0
  194.2390  174.7100  145.8600 C   0  0  0  0  0  0  0  0  0  0  0  0
  188.7160  175.1180  143.1490 C   0  0  0  0  0  0  0  0  0  0  0  0
  195.5950  174.8830  146.0990 O   0  0  0  0  0  1  0  0  0  0  0  0
  192.3070  173.4650  144.7530 C   0  0  0  0  0  0  0  0  0  0  0  0
  188.2310  176.5520  143.2110 C   0  0  2  0  0  3  0  0  0  0  0  0
  186.6050  177.6690  146.0210 C   0  0  2  0  0  3  0  0  0  0  0  0
  185.2890  177.8270  146.7530 C   0  0  0  0  0  1  0  0  0  0  0  0
  188.2640  174.9810  140.6630 C   0  0  0  0  0  1  0  0  0  0  0  0
  188.5150  174.3410  141.9480 N   0  0  0  0  0  0  0  0  0  0  0  0
  188.4230  172.8880  141.9920 C   0  0  0  0  0  2  0  0  0  0  0  0
  189.5810  172.2660  141.2370 C   0  0  0  0  0  1  0  0  0  0  0  0
  1  5  1  0  0  0  0
  2 11  2  0  0  0  0
  3 12  2  0  0  0  0
  4 16  1  0  0  0  0
  5 10  1  0  0  0  0
  5  3  2  0  0  0  0
  6 19  1  0  0  0  0
  7 14  2  0  0  0  0
  8 21  1  0  0  0  0
  9  8  1  0  0  0  0
 11 15  2  0  0  0  0
 14  1  1  0  0  0  0
 15 13  1  0  0  0  0
 15 12  1  0  0  0  0
 16 18  1  0  0  0  0
 16 10  2  0  0  0  0
 17 20  1  0  0  0  0
 17  7  2  0  0  0  0
 19  4  1  0  0  0  0
 19  1  2  0  0  0  0
 20  9  1  1  0  0  0
 20  2  1  0  0  0  0
 21 22  1  1  0  0  0
 21 13  1  0  0  0  0
 23 24  1  0  0  0  0
 24 25  1  0  0  0  0
 24 17  1  0  0  0  0
 26 25  1  0  0  0  0
M  END
>  <MODEL>
3

>  <REMARK>
 VINA RESULT:      -7.6      2.669      5.726
  Name = 
  2 active torsions:
  status: ('A' for Active; 'I' for Inactive)
    1  A    between atoms: C_18  and  N_22
    2  A    between atoms: C_19  and  N_22
                            x       y       z     vdW  Elec       q    Type
                         _______ _______ _______ _____ _____    ______ ____

>  <TORSDO>
F 2

$$$$
=
 OpenBabel11042418503D

 26 28  0  0  1  0  0  0  0  0999 V2000
  186.3260  176.9660  145.3190 C   0  0  0  0  0  0  0  0  0  0  0  0
  190.1350  177.8040  143.7050 C   0  0  0  0  0  3  0  0  0  0  0  0
  186.6810  176.5410  142.9570 C   0  0  0  0  0  0  0  0  0  0  0  0
  184.4680  178.5400  145.8970 C   0  0  0  0  0  2  0  0  0  0  0  0
  185.9620  177.1050  143.8890 C   0  0  0  0  0  0  0  0  0  0  0  0
  185.9370  177.4840  147.5990 O   0  0  0  0  0  1  0  0  0  0  0  0
  188.6350  176.5460  145.9190 C   0  0  0  0  0  0  0  0  0  0  0  0
  191.0010  174.7820  144.1270 C   0  0  0  0  0  2  0  0  0  0  0  0
  191.7090  176.0250  144.6800 C   0  0  0  0  0  2  0  0  0  0  0  0
  184.8180  177.9360  143.5090 C   0  0  0  0  0  3  0  0  0  0  0  0
  189.4880  177.0020  142.9110 C   0  0  0  0  0  0  0  0  0  0  0  0
  187.4680  175.9590  142.0900 C   0  0  0  0  0  3  0  0  0  0  0  0
  189.7230  174.7960  141.9260 C   0  0  0  0  0  2  0  0  0  0  0  0
  187.4330  176.0750  145.7210 C   0  0  0  0  0  3  0  0  0  0  0  0
  188.9330  176.0490  142.2070 C   0  0  0  0  0  0  0  0  0  0  0  0
  184.1170  178.5940  144.4310 C   0  0  0  0  0  0  0  0  0  0  0  0
  189.8410  177.0340  146.1120 C   0  0  0  0  0  0  0  0  0  0  0  0
  183.0360  179.3670  144.0300 O   0  0  0  0  0  1  0  0  0  0  0  0
  185.6180  177.6260  146.2520 C   0  0  0  0  0  0  0  0  0  0  0  0
  190.7780  177.2290  144.9390 C   0  0  2  0  0  3  0  0  0  0  0  0
  191.1050  174.7370  142.6000 C   0  0  2  0  0  3  0  0  0  0  0  0
  191.8150  173.4670  142.1810 C   0  0  0  0  0  1  0  0  0  0  0  0
  189.6200  178.5070  148.1570 C   0  0  0  0  0  1  0  0  0  0  0  0
  190.2610  177.4120  147.4410 N   0  0  0  0  0  0  0  0  0  0  0  0
  191.4270  176.8050  148.0680 C   0  0  0  0  0  2  0  0  0  0  0  0
  191.2790  175.2960  148.1020 C   0  0  0  0  0  1  0  0  0  0  0  0
  1 14  1  0  0  0  0
  1 19  2  0  0  0  0
  3  5  2  0  0  0  0
  4 19  1  0  0  0  0
  5  1  1  0  0  0  0
  7 17  2  0  0  0  0
  8  9  1  0  0  0  0
  9 20  1  0  0  0  0
 10  5  1  0  0  0  0
 10 16  2  0  0  0  0
 11  2  2  0  0  0  0
 12 15  1  0  0  0  0
 12  3  2  0  0  0  0
 13 15  1  0  0  0  0
 13 21  1  0  0  0  0
 14  7  2  0  0  0  0
 15 11  2  0  0  0  0
 16  4  1  0  0  0  0
 17 24  1  0  0  0  0
 18 16  1  0  0  0  0
 19  6  1  0  0  0  0
 20  2  1  6  0  0  0
 20 17  1  0  0  0  0
 21 22  1  1  0  0  0
 21  8  1  0  0  0  0
 24 25  1  0  0  0  0
 24 23  1  0  0  0  0
 25 26  1  0  0  0  0
M  END
>  <MODEL>
4

>  <REMARK>
 VINA RESULT:      -7.4      2.232      4.561
  Name = 
  2 active torsions:
  status: ('A' for Active; 'I' for Inactive)
    1  A    between atoms: C_18  and  N_22
    2  A    between atoms: C_19  and  N_22
                            x       y       z     vdW  Elec       q    Type
                         _______ _______ _______ _____ _____    ______ ____

>  <TORSDO>
F 2

$$$$
=
 OpenBabel11042418503D

 26 28  0  0  1  0  0  0  0  0999 V2000
  187.2450  177.9230  144.7330 C   0  0  0  0  0  0  0  0  0  0  0  0
  189.5170  174.3660  144.7250 C   0  0  0  0  0  3  0  0  0  0  0  0
  188.6800  177.4830  146.6400 C   0  0  0  0  0  0  0  0  0  0  0  0
  184.8130  178.2500  145.2250 C   0  0  0  0  0  2  0  0  0  0  0  0
  187.4930  177.7860  146.1880 C   0  0  0  0  0  0  0  0  0  0  0  0
  185.7570  178.3050  142.9280 O   0  0  0  0  0  1  0  0  0  0  0  0
  188.6630  176.7300  143.1720 C   0  0  0  0  0  0  0  0  0  0  0  0
  192.0030  175.9320  143.5290 C   0  0  0  0  0  2  0  0  0  0  0  0
  191.3200  174.6980  142.9270 C   0  0  0  0  0  2  0  0  0  0  0  0
  186.3810  177.9300  147.1300 C   0  0  0  0  0  3  0  0  0  0  0  0
  190.0170  175.2050  145.5840 C   0  0  0  0  0  0  0  0  0  0  0  0
  189.8930  177.1590  147.0030 C   0  0  0  0  0  3  0  0  0  0  0  0
  192.1040  176.3580  146.0360 C   0  0  0  0  0  2  0  0  0  0  0  0
  188.3690  177.8500  143.7770 C   0  0  0  0  0  3  0  0  0  0  0  0
  190.6430  176.1020  146.3020 C   0  0  0  0  0  0  0  0  0  0  0  0
  185.1420  178.1540  146.6940 C   0  0  0  0  0  0  0  0  0  0  0  0
  188.9480  175.5960  142.5710 C   0  0  0  0  0  0  0  0  0  0  0  0
  184.1180  178.2910  147.6190 O   0  0  0  0  0  1  0  0  0  0  0  0
  185.9960  178.1530  144.2900 C   0  0  0  0  0  0  0  0  0  0  0  0
  189.8200  174.5690  143.2640 C   0  0  2  0  0  3  0  0  0  0  0  0
  192.6930  175.5760  144.8490 C   0  0  2  0  0  3  0  0  0  0  0  0
  194.1740  175.8710  144.7370 C   0  0  0  0  0  1  0  0  0  0  0  0
  187.4650  176.2240  140.6210 C   0  0  0  0  0  1  0  0  0  0  0  0
  188.4060  175.3170  141.2620 N   0  0  0  0  0  0  0  0  0  0  0  0
  188.6750  174.0550  140.5850 C   0  0  0  0  0  2  0  0  0  0  0  0
  188.3300  174.1650  139.1120 C   0  0  0  0  0  1  0  0  0  0  0  0
  1  5  1  0  0  0  0
  2 11  2  0  0  0  0
  3 12  2  0  0  0  0
  4 16  1  0  0  0  0
  5  3  2  0  0  0  0
  5 10  1  0  0  0  0
  6 19  1  0  0  0  0
  7 14  2  0  0  0  0
  8 21  1  0  0  0  0
  9  8  1  0  0  0  0
 11 15  2  0  0  0  0
 13 15  1  0  0  0  0
 14  1  1  0  0  0  0
 15 12  1  0  0  0  0
 16 10  2  0  0  0  0
 16 18  1  0  0  0  0
 17  7  2  0  0  0  0
 17 20  1  0  0  0  0
 19  1  2  0  0  0  0
 19  4  1  0  0  0  0
 20  9  1  1  0  0  0
 20  2  1  0  0  0  0
 21 22  1  6  0  0  0
 21 13  1  0  0  0  0
 23 24  1  0  0  0  0
 24 17  1  0  0  0  0
 25 24  1  0  0  0  0
 26 25  1  0  0  0  0
M  END
>  <MODEL>
5

>  <REMARK>
 VINA RESULT:      -7.3      1.356      1.700
  Name = 
  2 active torsions:
  status: ('A' for Active; 'I' for Inactive)
    1  A    between atoms: C_18  and  N_22
    2  A    between atoms: C_19  and  N_22
                            x       y       z     vdW  Elec       q    Type
                         _______ _______ _______ _____ _____    ______ ____

>  <TORSDO>
F 2

$$$$
=
 OpenBabel11042418503D

 26 28  0  0  1  0  0  0  0  0999 V2000
  187.1310  177.9580  142.8730 C   0  0  0  0  0  0  0  0  0  0  0  0
  188.5640  174.9660  145.4820 C   0  0  0  0  0  3  0  0  0  0  0  0
  186.6750  178.2000  145.2440 C   0  0  0  0  0  0  0  0  0  0  0  0
  185.1400  177.9190  141.3580 C   0  0  0  0  0  2  0  0  0  0  0  0
  186.2180  178.1750  144.0210 C   0  0  0  0  0  0  0  0  0  0  0  0
  187.4740  177.6720  140.5450 O   0  0  0  0  0  1  0  0  0  0  0  0
  189.2040  176.7540  143.2190 C   0  0  0  0  0  0  0  0  0  0  0  0
  191.1660  176.6860  146.0590 C   0  0  0  0  0  2  0  0  0  0  0  0
  191.1150  175.2480  145.5280 C   0  0  0  0  0  2  0  0  0  0  0  0
  184.7790  178.3010  143.7890 C   0  0  0  0  0  3  0  0  0  0  0  0
  188.2890  176.0430  146.1580 C   0  0  0  0  0  0  0  0  0  0  0  0
  187.2140  178.1910  146.4350 C   0  0  0  0  0  3  0  0  0  0  0  0
  189.3940  177.6350  147.6200 C   0  0  0  0  0  2  0  0  0  0  0  0
  188.5920  177.9000  143.0850 C   0  0  0  0  0  3  0  0  0  0  0  0
  188.2060  177.1710  146.8160 C   0  0  0  0  0  0  0  0  0  0  0  0
  184.2730  178.1940  142.5610 C   0  0  0  0  0  0  0  0  0  0  0  0
  189.8080  175.5930  143.3530 C   0  0  0  0  0  0  0  0  0  0  0  0
  182.9030  178.3260  142.3830 O   0  0  0  0  0  1  0  0  0  0  0  0
  186.6250  177.8540  141.6320 C   0  0  0  0  0  0  0  0  0  0  0  0
  189.8530  174.9140  144.7060 C   0  0  2  0  0  3  0  0  0  0  0  0
  190.6450  176.7480  147.4980 C   0  0  2  0  0  3  0  0  0  0  0  0
  191.7330  177.2850  148.4040 C   0  0  0  0  0  1  0  0  0  0  0  0
  191.8470  174.9200  142.0160 C   0  0  0  0  0  1  0  0  0  0  0  0
  190.4030  174.9520  142.2040 N   0  0  0  0  0  0  0  0  0  0  0  0
  189.5820  174.4270  141.1210 C   0  0  0  0  0  2  0  0  0  0  0  0
  188.5750  173.4300  141.6610 C   0  0  0  0  0  1  0  0  0  0  0  0
  1 14  1  0  0  0  0
  1  5  1  0  0  0  0
  2 11  2  0  0  0  0
  3 12  2  0  0  0  0
  4 19  1  0  0  0  0
  4 16  1  0  0  0  0
  5  3  2  0  0  0  0
  6 19  1  0  0  0  0
  7 17  2  0  0  0  0
  8 21  1  0  0  0  0
  9  8  1  0  0  0  0
 10  5  1  0  0  0  0
 11 15  2  0  0  0  0
 12 15  1  0  0  0  0
 14  7  2  0  0  0  0
 15 13  1  0  0  0  0
 16 10  2  0  0  0  0
 17 20  1  0  0  0  0
 18 16  1  0  0  0  0
 19  1  2  0  0  0  0
 20  2  1  1  0  0  0
 20  9  1  0  0  0  0
 21 13  1  0  0  0  0
 21 22  1  1  0  0  0
 23 24  1  0  0  0  0
 24 17  1  0  0  0  0
 25 26  1  0  0  0  0
 25 24  1  0  0  0  0
M  END
>  <MODEL>
6

>  <REMARK>
 VINA RESULT:      -7.1      1.653      2.511
  Name = 
  2 active torsions:
  status: ('A' for Active; 'I' for Inactive)
    1  A    between atoms: C_18  and  N_22
    2  A    between atoms: C_19  and  N_22
                            x       y       z     vdW  Elec       q    Type
                         _______ _______ _______ _____ _____    ______ ____

>  <TORSDO>
F 2

$$$$
=
 OpenBabel11042418503D

 26 28  0  0  1  0  0  0  0  0999 V2000
  187.2670  176.8510  145.3300 C   0  0  0  0  0  0  0  0  0  0  0  0
  190.5280  176.1710  142.7400 C   0  0  0  0  0  3  0  0  0  0  0  0
  186.8020  175.9500  143.1260 C   0  0  0  0  0  0  0  0  0  0  0  0
  186.1270  179.0010  145.9140 C   0  0  0  0  0  2  0  0  0  0  0  0
  186.5540  176.8580  144.0310 C   0  0  0  0  0  0  0  0  0  0  0  0
  187.7010  177.8360  147.4430 O   0  0  0  0  0  1  0  0  0  0  0  0
  189.4610  175.8330  145.4740 C   0  0  0  0  0  0  0  0  0  0  0  0
  190.6680  173.1440  143.6770 C   0  0  0  0  0  2  0  0  0  0  0  0
  191.8010  174.1760  143.7340 C   0  0  0  0  0  2  0  0  0  0  0  0
  185.6050  177.9310  143.7300 C   0  0  0  0  0  3  0  0  0  0  0  0
  189.4950  175.4930  142.3330 C   0  0  0  0  0  0  0  0  0  0  0  0
  187.1260  175.0150  142.2720 C   0  0  0  0  0  3  0  0  0  0  0  0
  188.8580  173.1930  141.8890 C   0  0  0  0  0  2  0  0  0  0  0  0
  188.1730  175.7370  145.6760 C   0  0  0  0  0  3  0  0  0  0  0  0
  188.5340  174.6590  142.0270 C   0  0  0  0  0  0  0  0  0  0  0  0
  185.3950  178.9190  144.5980 C   0  0  0  0  0  0  0  0  0  0  0  0
  190.7540  175.9430  145.2640 C   0  0  0  0  0  0  0  0  0  0  0  0
  184.4820  179.9140  144.2780 O   0  0  0  0  0  1  0  0  0  0  0  0
  187.0540  177.8450  146.2110 C   0  0  0  0  0  0  0  0  0  0  0  0
  191.3300  175.6360  143.8970 C   0  0  2  0  0  3  0  0  0  0  0  0
  190.3110  172.8160  142.2240 C   0  0  2  0  0  3  0  0  0  0  0  0
  190.5170  171.3370  141.9780 C   0  0  0  0  0  1  0  0  0  0  0  0
  191.1250  176.5740  147.6850 C   0  0  0  0  0  1  0  0  0  0  0  0
  191.6230  176.3850  146.3290 N   0  0  0  0  0  0  0  0  0  0  0  0
  192.9980  176.7870  146.0670 C   0  0  0  0  0  2  0  0  0  0  0  0
  193.9550  175.6850  146.4810 C   0  0  0  0  0  1  0  0  0  0  0  0
  1 14  1  0  0  0  0
  1 19  2  0  0  0  0
  3  5  2  0  0  0  0
  4 19  1  0  0  0  0
  5  1  1  0  0  0  0
  7 14  2  0  0  0  0
  8  9  1  0  0  0  0
  9 20  1  0  0  0  0
 10  5  1  0  0  0  0
 10 16  2  0  0  0  0
 11  2  2  0  0  0  0
 12  3  2  0  0  0  0
 13 15  1  0  0  0  0
 13 21  1  0  0  0  0
 15 12  1  0  0  0  0
 15 11  2  0  0  0  0
 16  4  1  0  0  0  0
 17  7  2  0  0  0  0
 17 24  1  0  0  0  0
 18 16  1  0  0  0  0
 19  6  1  0  0  0  0
 20  2  1  6  0  0  0
 20 17  1  0  0  0  0
 21 22  1  1  0  0  0
 21  8  1  0  0  0  0
 24 23  1  0  0  0  0
 25 24  1  0  0  0  0
 25 26  1  0  0  0  0
M  END
>  <MODEL>
7

>  <REMARK>
 VINA RESULT:      -6.9      1.954      4.442
  Name = 
  2 active torsions:
  status: ('A' for Active; 'I' for Inactive)
    1  A    between atoms: C_18  and  N_22
    2  A    between atoms: C_19  and  N_22
                            x       y       z     vdW  Elec       q    Type
                         _______ _______ _______ _____ _____    ______ ____

>  <TORSDO>
F 2

$$$$
=
 OpenBabel11042418503D

 26 28  0  0  1  0  0  0  0  0999 V2000
  186.0110  176.9530  143.5170 C   0  0  0  0  0  0  0  0  0  0  0  0
  190.1120  177.7090  144.1630 C   0  0  0  0  0  3  0  0  0  0  0  0
  187.5960  176.1080  141.8860 C   0  0  0  0  0  0  0  0  0  0  0  0
  184.2340  178.4860  142.6470 C   0  0  0  0  0  2  0  0  0  0  0  0
  186.5120  176.7930  142.1300 C   0  0  0  0  0  0  0  0  0  0  0  0
  184.4480  177.8720  145.0440 O   0  0  0  0  0  1  0  0  0  0  0  0
  187.5700  176.8050  145.3650 C   0  0  0  0  0  0  0  0  0  0  0  0
  190.4320  174.8850  145.5720 C   0  0  0  0  0  2  0  0  0  0  0  0
  190.7790  176.2540  146.1700 C   0  0  0  0  0  2  0  0  0  0  0  0
  185.8200  177.4610  141.0270 C   0  0  0  0  0  3  0  0  0  0  0  0
  189.9740  176.7310  143.3170 C   0  0  0  0  0  0  0  0  0  0  0  0
  188.6990  175.4220  141.7340 C   0  0  0  0  0  3  0  0  0  0  0  0
  190.5970  174.3970  143.0790 C   0  0  0  0  0  2  0  0  0  0  0  0
  186.6570  176.2280  144.6300 C   0  0  0  0  0  3  0  0  0  0  0  0
  189.8540  175.6270  142.6240 C   0  0  0  0  0  0  0  0  0  0  0  0
  184.7610  178.2370  141.2560 C   0  0  0  0  0  0  0  0  0  0  0  0
  188.4880  177.3960  146.0960 C   0  0  0  0  0  0  0  0  0  0  0  0
  184.1300  178.8480  140.1820 O   0  0  0  0  0  1  0  0  0  0  0  0
  184.9400  177.7320  143.7500 C   0  0  0  0  0  0  0  0  0  0  0  0
  189.9290  177.4230  145.6300 C   0  0  2  0  0  3  0  0  0  0  0  0
  191.3650  174.5570  144.4030 C   0  0  2  0  0  3  0  0  0  0  0  0
  192.1180  173.2780  144.7050 C   0  0  0  0  0  1  0  0  0  0  0  0
  189.1210  178.6350  148.2090 C   0  0  0  0  0  1  0  0  0  0  0  0
  188.1180  178.0480  147.3310 N   0  0  0  0  0  0  0  0  0  0  0  0
  186.7440  178.0300  147.8140 C   0  0  0  0  0  2  0  0  0  0  0  0
  186.1200  179.4050  147.6720 C   0  0  0  0  0  1  0  0  0  0  0  0
  1 19  2  0  0  0  0
  1 14  1  0  0  0  0
  3  5  2  0  0  0  0
  4 19  1  0  0  0  0
  5  1  1  0  0  0  0
  7 17  2  0  0  0  0
  8  9  1  0  0  0  0
 10 16  2  0  0  0  0
 10  5  1  0  0  0  0
 11  2  2  0  0  0  0
 12  3  2  0  0  0  0
 12 15  1  0  0  0  0
 13 21  1  0  0  0  0
 14  7  2  0  0  0  0
 15 13  1  0  0  0  0
 15 11  2  0  0  0  0
 16  4  1  0  0  0  0
 17 24  1  0  0  0  0
 18 16  1  0  0  0  0
 19  6  1  0  0  0  0
 20  2  1  6  0  0  0
 20 17  1  0  0  0  0
 20  9  1  0  0  0  0
 21 22  1  1  0  0  0
 21  8  1  0  0  0  0
 24 25  1  0  0  0  0
 24 23  1  0  0  0  0
 26 25  1  0  0  0  0
M  END
>  <MODEL>
8

>  <REMARK>
 VINA RESULT:      -6.8      2.170      4.929
  Name = 
  2 active torsions:
  status: ('A' for Active; 'I' for Inactive)
    1  A    between atoms: C_18  and  N_22
    2  A    between atoms: C_19  and  N_22
                            x       y       z     vdW  Elec       q    Type
                         _______ _______ _______ _____ _____    ______ ____

>  <TORSDO>
F 2

$$$$
=
 OpenBabel11042418503D

 26 28  0  0  1  0  0  0  0  0999 V2000
  189.4540  177.2330  144.6320 C   0  0  0  0  0  0  0  0  0  0  0  0
  191.3460  173.4800  145.0130 C   0  0  0  0  0  3  0  0  0  0  0  0
  190.7790  176.8220  146.6230 C   0  0  0  0  0  0  0  0  0  0  0  0
  187.0550  177.8440  145.0010 C   0  0  0  0  0  2  0  0  0  0  0  0
  189.6430  177.2010  146.1020 C   0  0  0  0  0  0  0  0  0  0  0  0
  188.0670  177.6020  142.7450 O   0  0  0  0  0  1  0  0  0  0  0  0
  190.7860  175.7710  143.2330 C   0  0  0  0  0  0  0  0  0  0  0  0
  194.0140  174.6770  143.7850 C   0  0  0  0  0  2  0  0  0  0  0  0
  193.2260  173.4690  143.2640 C   0  0  0  0  0  2  0  0  0  0  0  0
  188.5250  177.5390  146.9840 C   0  0  0  0  0  3  0  0  0  0  0  0
  191.9040  174.3370  145.8170 C   0  0  0  0  0  0  0  0  0  0  0  0
  191.9410  176.4110  147.0580 C   0  0  0  0  0  3  0  0  0  0  0  0
  194.0850  175.3110  146.2490 C   0  0  0  0  0  2  0  0  0  0  0  0
  190.5920  176.9640  143.7290 C   0  0  0  0  0  3  0  0  0  0  0  0
  192.5980  175.2270  146.4790 C   0  0  0  0  0  0  0  0  0  0  0  0
  187.3300  177.8460  146.4840 C   0  0  0  0  0  0  0  0  0  0  0  0
  190.9710  174.5650  142.7420 C   0  0  0  0  0  0  0  0  0  0  0  0
  186.2970  178.1660  147.3550 O   0  0  0  0  0  1  0  0  0  0  0  0
  188.2500  177.5470  144.1230 C   0  0  0  0  0  0  0  0  0  0  0  0
  191.7110  173.5210  143.5520 C   0  0  2  0  0  3  0  0  0  0  0  0
  194.6250  174.3720  145.1550 C   0  0  2  0  0  3  0  0  0  0  0  0
  196.1310  174.5060  145.0750 C   0  0  0  0  0  1  0  0  0  0  0  0
  191.3170  173.8390  140.3440 C   0  0  0  0  0  1  0  0  0  0  0  0
  190.4420  174.2270  141.4420 N   0  0  0  0  0  0  0  0  0  0  0  0
  189.0270  174.3870  141.1350 C   0  0  0  0  0  2  0  0  0  0  0  0
  188.1910  173.4950  142.0340 C   0  0  0  0  0  1  0  0  0  0  0  0
  1  5  1  0  0  0  0
  2 11  2  0  0  0  0
  3 12  2  0  0  0  0
  4 16  1  0  0  0  0
  5  3  2  0  0  0  0
  5 10  1  0  0  0  0
  6 19  1  0  0  0  0
  7 14  2  0  0  0  0
  8 21  1  0  0  0  0
  9  8  1  0  0  0  0
 11 15  2  0  0  0  0
 13 15  1  0  0  0  0
 14  1  1  0  0  0  0
 15 12  1  0  0  0  0
 16 10  2  0  0  0  0
 16 18  1  0  0  0  0
 17  7  2  0  0  0  0
 17 20  1  0  0  0  0
 19  1  2  0  0  0  0
 19  4  1  0  0  0  0
 20  9  1  1  0  0  0
 20  2  1  0  0  0  0
 21 22  1  6  0  0  0
 21 13  1  0  0  0  0
 23 24  1  0  0  0  0
 24 17  1  0  0  0  0
 25 24  1  0  0  0  0
 25 26  1  0  0  0  0
M  END
>  <MODEL>
9

>  <REMARK>
 VINA RESULT:      -6.8      1.399      2.233
  Name = 
  2 active torsions:
  status: ('A' for Active; 'I' for Inactive)
    1  A    between atoms: C_18  and  N_22
    2  A    between atoms: C_19  and  N_22
                            x       y       z     vdW  Elec       q    Type
                         _______ _______ _______ _____ _____    ______ ____

>  <TORSDO>
F 2

$$$$
