=
 OpenBabel11042416133D

 33 37  0  0  1  0  0  0  0  0999 V2000
  191.7040  175.4310  143.1890 N   0  0  0  0  0  0  0  0  0  0  0  0
  193.9210  176.0920  143.5010 C   0  0  0  0  0  3  0  0  0  0  0  0
  197.0270  174.4450  144.5880 C   0  0  0  0  0  3  0  0  0  0  0  0
  192.6940  175.4900  144.0270 C   0  0  0  0  0  0  0  0  0  0  0  0
  197.8880  175.1020  143.7670 N   0  0  0  0  0  0  0  0  0  0  0  0
  196.1220  176.4680  142.9460 C   0  0  0  0  0  3  0  0  0  0  0  0
  194.9710  174.1830  145.5980 C   0  0  0  0  0  3  0  0  0  0  0  0
  191.4060  175.2640  146.2260 C   0  0  0  0  0  3  0  0  0  0  0  0
  190.3820  174.8840  143.3290 C   0  0  0  0  0  0  0  0  0  0  0  0
  192.5890  174.9970  145.4080 C   0  0  0  0  0  0  0  0  0  0  0  0
  190.1330  175.2840  145.8290 C   0  0  0  0  0  0  0  0  0  0  0  0
  195.1980  175.7960  143.7530 C   0  0  0  0  0  0  0  0  0  0  0  0
  195.6690  174.7830  144.6320 C   0  0  0  0  0  0  0  0  0  0  0  0
  189.7060  174.8680  144.4840 C   0  0  0  0  0  3  0  0  0  0  0  0
  193.5950  174.4210  146.0540 C   0  0  0  0  0  3  0  0  0  0  0  0
  197.4680  176.1130  142.9670 C   0  0  0  0  0  3  0  0  0  0  0  0
  189.9400  173.1570  141.5280 C   0  0  0  0  0  2  0  0  0  0  0  0
  188.7240  175.2330  141.4580 C   0  0  0  0  0  3  0  0  0  0  0  0
  189.7030  174.4560  142.1350 N   0  0  0  0  0  0  0  0  0  0  0  0
  188.8940  173.0460  140.0330 S   0  0  0  0  0  0  0  0  0  0  0  0
  188.2180  174.6630  140.3860 C   0  0  0  0  0  3  0  0  0  0  0  0
  188.6760  174.6050  147.6280 O   0  0  0  0  0  1  0  0  0  0  0  0
  189.1110  175.5810  146.7920 N   0  0  0  0  0  0  0  0  0  0  0  0
  188.3880  176.8470  146.7730 C   0  0  0  0  0  2  0  0  0  0  0  0
  185.8300  176.9420  146.6470 N   0  0  0  0  0  0  0  0  0  0  0  0
  188.1920  177.9330  143.9620 O   0  0  0  0  0  1  0  0  0  0  0  0
  187.1070  177.6670  144.7890 C   0  0  0  0  0  0  0  0  0  0  0  0
  187.1140  176.7210  145.9280 C   0  0  1  0  0  3  0  0  0  0  0  0
  186.0160  177.7500  147.8610 C   0  0  0  0  0  1  0  0  0  0  0  0
  184.9850  177.6600  145.6590 C   0  0  2  0  0  3  0  0  0  0  0  0
  185.5770  179.0850  143.6330 O   0  0  0  0  0  1  0  0  0  0  0  0
  185.9190  178.1880  144.6380 C   0  0  0  0  0  0  0  0  0  0  0  0
  184.2270  178.6960  146.2250 O   0  0  0  0  0  1  0  0  0  0  0  0
  1  9  2  0  0  0  0
  1  4  1  0  0  0  0
  2 12  1  0  0  0  0
  2  4  2  0  0  0  0
  3 13  1  0  0  0  0
  4 10  1  0  0  0  0
  5  3  2  0  0  0  0
  6 16  2  0  0  0  0
  6 12  1  0  0  0  0
  7 15  2  0  0  0  0
  9 14  1  0  0  0  0
 10 15  1  0  0  0  0
 10  8  2  0  0  0  0
 11  8  1  0  0  0  0
 11 23  1  0  0  0  0
 12 13  2  0  0  0  0
 13  7  1  0  0  0  0
 14 11  2  0  0  0  0
 16  5  1  0  0  0  0
 17 19  1  0  0  0  0
 18 19  1  0  0  0  0
 19  9  1  0  0  0  0
 20 21  1  0  0  0  0
 20 17  1  0  0  0  0
 21 18  2  0  0  0  0
 23 22  1  0  0  0  0
 24 23  1  0  0  0  0
 25 29  1  0  0  0  0
 26 27  1  0  0  0  0
 27 28  1  0  0  0  0
 28 25  1  0  0  0  0
 28 24  1  1  0  0  0
 30 33  1  1  0  0  0
 30 25  1  0  0  0  0
 31 32  1  0  0  0  0
 32 27  2  0  0  0  0
 32 30  1  0  0  0  0
M  END
>  <MODEL>
1

>  <REMARK>
 VINA RESULT:      -8.4      0.000      0.000
  Name = 
  4 active torsions:
  status: ('A' for Active; 'I' for Inactive)
    1  A    between atoms: N_13  and  C_19
    2  A    between atoms: N_14  and  C_23
    3  A    between atoms: N_14  and  C_25
    4  A    between atoms: C_15  and  C_23
                            x       y       z     vdW  Elec       q    Type
                         _______ _______ _______ _____ _____    ______ ____

>  <TORSDO>
F 4

$$$$
=
 OpenBabel11042416133D

 33 37  0  0  1  0  0  0  0  0999 V2000
  191.8150  175.3930  142.9530 N   0  0  0  0  0  0  0  0  0  0  0  0
  194.0650  175.9850  143.1370 C   0  0  0  0  0  3  0  0  0  0  0  0
  197.0150  174.6050  144.8500 C   0  0  0  0  0  3  0  0  0  0  0  0
  192.7850  175.6670  143.7720 C   0  0  0  0  0  0  0  0  0  0  0  0
  197.9410  174.9000  143.9010 N   0  0  0  0  0  0  0  0  0  0  0  0
  196.3010  176.0230  142.5940 C   0  0  0  0  0  3  0  0  0  0  0  0
  194.9210  174.8170  145.7920 C   0  0  0  0  0  3  0  0  0  0  0  0
  191.4290  176.2580  145.8590 C   0  0  0  0  0  3  0  0  0  0  0  0
  190.4530  175.0040  143.2030 C   0  0  0  0  0  0  0  0  0  0  0  0
  192.6100  175.6650  145.2320 C   0  0  0  0  0  0  0  0  0  0  0  0
  190.1720  176.2230  145.4180 C   0  0  0  0  0  0  0  0  0  0  0  0
  195.3100  175.7130  143.5320 C   0  0  0  0  0  0  0  0  0  0  0  0
  195.6840  175.0210  144.7160 C   0  0  0  0  0  0  0  0  0  0  0  0
  189.7490  175.4120  144.2650 C   0  0  0  0  0  3  0  0  0  0  0  0
  193.5550  175.2750  146.0780 C   0  0  0  0  0  3  0  0  0  0  0  0
  197.6170  175.6140  142.7940 C   0  0  0  0  0  3  0  0  0  0  0  0
  190.3440  174.0370  140.8640 C   0  0  0  0  0  2  0  0  0  0  0  0
  188.5160  173.6150  142.3730 C   0  0  0  0  0  3  0  0  0  0  0  0
  189.7750  174.2480  142.1840 N   0  0  0  0  0  0  0  0  0  0  0  0
  189.1440  173.0520  139.8960 S   0  0  0  0  0  0  0  0  0  0  0  0
  188.0650  172.9680  141.3190 C   0  0  0  0  0  3  0  0  0  0  0  0
  189.5000  177.6420  147.2500 O   0  0  0  0  0  1  0  0  0  0  0  0
  189.1510  176.8830  146.1810 N   0  0  0  0  0  0  0  0  0  0  0  0
  187.7350  176.6080  145.9620 C   0  0  0  0  0  2  0  0  0  0  0  0
  186.5920  177.8480  144.0320 N   0  0  0  0  0  0  0  0  0  0  0  0
  185.6960  178.0880  147.6250 O   0  0  0  0  0  1  0  0  0  0  0  0
  185.7980  178.1610  146.2410 C   0  0  0  0  0  0  0  0  0  0  0  0
  187.0190  177.8670  145.4580 C   0  0  1  0  0  3  0  0  0  0  0  0
  186.4430  176.4760  143.5250 C   0  0  0  0  0  1  0  0  0  0  0  0
  185.2850  178.5520  144.0400 C   0  0  2  0  0  3  0  0  0  0  0  0
  183.5680  178.9300  145.8820 O   0  0  0  0  0  1  0  0  0  0  0  0
  184.8310  178.5460  145.4500 C   0  0  0  0  0  0  0  0  0  0  0  0
  184.3270  177.9560  143.2050 O   0  0  0  0  0  1  0  0  0  0  0  0
  1  9  2  0  0  0  0
  1  4  1  0  0  0  0
  2 12  1  0  0  0  0
  2  4  2  0  0  0  0
  4 10  1  0  0  0  0
  5  3  2  0  0  0  0
  6 16  2  0  0  0  0
  6 12  1  0  0  0  0
  7 15  2  0  0  0  0
  9 14  1  0  0  0  0
 10  8  2  0  0  0  0
 10 15  1  0  0  0  0
 11  8  1  0  0  0  0
 11 23  1  0  0  0  0
 12 13  2  0  0  0  0
 13  3  1  0  0  0  0
 13  7  1  0  0  0  0
 14 11  2  0  0  0  0
 16  5  1  0  0  0  0
 17 19  1  0  0  0  0
 19 18  1  0  0  0  0
 19  9  1  0  0  0  0
 20 17  1  0  0  0  0
 20 21  1  0  0  0  0
 21 18  2  0  0  0  0
 23 22  1  0  0  0  0
 24 23  1  0  0  0  0
 25 30  1  0  0  0  0
 25 28  1  0  0  0  0
 27 26  1  0  0  0  0
 28 24  1  1  0  0  0
 28 27  1  0  0  0  0
 29 25  1  0  0  0  0
 30 33  1  6  0  0  0
 30 32  1  0  0  0  0
 32 31  1  0  0  0  0
 32 27  2  0  0  0  0
M  END
>  <MODEL>
2

>  <REMARK>
 VINA RESULT:      -8.0      1.320      1.792
  Name = 
  4 active torsions:
  status: ('A' for Active; 'I' for Inactive)
    1  A    between atoms: N_13  and  C_19
    2  A    between atoms: N_14  and  C_23
    3  A    between atoms: N_14  and  C_25
    4  A    between atoms: C_15  and  C_23
                            x       y       z     vdW  Elec       q    Type
                         _______ _______ _______ _____ _____    ______ ____

>  <TORSDO>
F 4

$$$$
=
 OpenBabel11042416133D

 33 37  0  0  1  0  0  0  0  0999 V2000
  191.7810  173.9210  143.4530 N   0  0  0  0  0  0  0  0  0  0  0  0
  190.9260  172.2400  142.0780 C   0  0  0  0  0  3  0  0  0  0  0  0
  189.0390  172.1330  138.9200 C   0  0  0  0  0  3  0  0  0  0  0  0
  190.7180  173.4520  142.8730 C   0  0  0  0  0  0  0  0  0  0  0  0
  189.6270  171.0300  138.3850 N   0  0  0  0  0  0  0  0  0  0  0  0
  190.9050  170.7040  140.3650 C   0  0  0  0  0  3  0  0  0  0  0  0
  188.5850  173.5500  140.6820 C   0  0  0  0  0  3  0  0  0  0  0  0
  188.9200  174.5790  144.3010 C   0  0  0  0  0  3  0  0  0  0  0  0
  191.9720  175.0920  144.2660 C   0  0  0  0  0  0  0  0  0  0  0  0
  189.3990  174.0880  143.0090 C   0  0  0  0  0  0  0  0  0  0  0  0
  189.6310  175.1810  145.2550 C   0  0  0  0  0  0  0  0  0  0  0  0
  190.3470  171.8510  140.9400 C   0  0  0  0  0  0  0  0  0  0  0  0
  189.3530  172.5640  140.2160 C   0  0  0  0  0  0  0  0  0  0  0  0
  191.0300  175.5960  145.0710 C   0  0  0  0  0  3  0  0  0  0  0  0
  188.5040  174.1240  142.0310 C   0  0  0  0  0  3  0  0  0  0  0  0
  190.5310  170.3020  139.0850 C   0  0  0  0  0  3  0  0  0  0  0  0
  194.3140  175.3490  143.3330 C   0  0  0  0  0  2  0  0  0  0  0  0
  193.7090  176.6100  145.2920 C   0  0  0  0  0  3  0  0  0  0  0  0
  193.2900  175.6660  144.3150 N   0  0  0  0  0  0  0  0  0  0  0  0
  195.8240  176.2750  143.7890 S   0  0  0  0  0  0  0  0  0  0  0  0
  194.9530  177.0170  145.1620 C   0  0  0  0  0  3  0  0  0  0  0  0
  188.8370  174.6890  147.4800 O   0  0  0  0  0  1  0  0  0  0  0  0
  188.9690  175.5800  146.4650 N   0  0  0  0  0  0  0  0  0  0  0  0
  188.2630  176.8510  146.5660 C   0  0  0  0  0  2  0  0  0  0  0  0
  185.7080  177.0490  146.5770 N   0  0  0  0  0  0  0  0  0  0  0  0
  187.9640  177.9980  143.7880 O   0  0  0  0  0  1  0  0  0  0  0  0
  186.9140  177.7580  144.6670 C   0  0  0  0  0  0  0  0  0  0  0  0
  186.9420  176.7910  145.7880 C   0  0  1  0  0  3  0  0  0  0  0  0
  185.9900  177.8260  147.7930 C   0  0  0  0  0  1  0  0  0  0  0  0
  184.8420  177.8190  145.6490 C   0  0  2  0  0  3  0  0  0  0  0  0
  185.3840  179.2580  143.6190 O   0  0  0  0  0  1  0  0  0  0  0  0
  185.7410  178.3290  144.5890 C   0  0  0  0  0  0  0  0  0  0  0  0
  184.1560  178.8730  146.2710 O   0  0  0  0  0  1  0  0  0  0  0  0
  1  9  1  0  0  0  0
  2  4  1  0  0  0  0
  3 13  1  0  0  0  0
  4 10  1  0  0  0  0
  4  1  2  0  0  0  0
  5  3  2  0  0  0  0
  5 16  1  0  0  0  0
  6 12  1  0  0  0  0
  7 15  1  0  0  0  0
  8 11  2  0  0  0  0
  9 19  1  0  0  0  0
  9 14  2  0  0  0  0
 10  8  1  0  0  0  0
 11 23  1  0  0  0  0
 12  2  2  0  0  0  0
 13  7  2  0  0  0  0
 13 12  1  0  0  0  0
 14 11  1  0  0  0  0
 15 10  2  0  0  0  0
 16  6  2  0  0  0  0
 17 20  1  0  0  0  0
 17 19  1  0  0  0  0
 19 18  1  0  0  0  0
 20 21  1  0  0  0  0
 21 18  2  0  0  0  0
 23 24  1  0  0  0  0
 23 22  1  0  0  0  0
 25 29  1  0  0  0  0
 26 27  1  0  0  0  0
 27 28  1  0  0  0  0
 28 24  1  1  0  0  0
 28 25  1  0  0  0  0
 30 33  1  1  0  0  0
 30 25  1  0  0  0  0
 31 32  1  0  0  0  0
 32 27  2  0  0  0  0
 32 30  1  0  0  0  0
M  END
>  <MODEL>
3

>  <REMARK>
 VINA RESULT:      -7.6      2.215      5.234
  Name = 
  4 active torsions:
  status: ('A' for Active; 'I' for Inactive)
    1  A    between atoms: N_13  and  C_19
    2  A    between atoms: N_14  and  C_23
    3  A    between atoms: N_14  and  C_25
    4  A    between atoms: C_15  and  C_23
                            x       y       z     vdW  Elec       q    Type
                         _______ _______ _______ _____ _____    ______ ____

>  <TORSDO>
F 4

$$$$
=
 OpenBabel11042416133D

 33 37  0  0  1  0  0  0  0  0999 V2000
  192.2200  174.5990  141.8370 N   0  0  0  0  0  0  0  0  0  0  0  0
  194.3060  175.0970  142.7580 C   0  0  0  0  0  3  0  0  0  0  0  0
  196.0580  174.2890  145.8930 C   0  0  0  0  0  3  0  0  0  0  0  0
  192.8450  175.1020  142.8580 C   0  0  0  0  0  0  0  0  0  0  0  0
  197.3110  174.1660  145.3830 N   0  0  0  0  0  0  0  0  0  0  0  0
  196.5410  174.8150  143.2280 C   0  0  0  0  0  3  0  0  0  0  0  0
  193.8510  174.9420  145.7440 C   0  0  0  0  0  3  0  0  0  0  0  0
  190.9530  176.4890  143.8780 C   0  0  0  0  0  3  0  0  0  0  0  0
  190.8160  174.4010  141.5970 C   0  0  0  0  0  0  0  0  0  0  0  0
  192.1390  175.6450  144.0280 C   0  0  0  0  0  0  0  0  0  0  0  0
  189.9740  176.3610  142.9820 C   0  0  0  0  0  0  0  0  0  0  0  0
  195.2300  174.9230  143.7050 C   0  0  0  0  0  0  0  0  0  0  0  0
  194.9860  174.6960  145.0870 C   0  0  0  0  0  0  0  0  0  0  0  0
  189.8620  175.2070  142.0770 C   0  0  0  0  0  3  0  0  0  0  0  0
  192.5990  175.5440  145.2680 C   0  0  0  0  0  3  0  0  0  0  0  0
  197.5750  174.4390  144.0820 C   0  0  0  0  0  3  0  0  0  0  0  0
  191.2970  172.2300  140.3820 C   0  0  0  0  0  2  0  0  0  0  0  0
  189.1810  173.3160  140.0090 C   0  0  0  0  0  3  0  0  0  0  0  0
  190.4340  173.3610  140.6800 N   0  0  0  0  0  0  0  0  0  0  0  0
  190.4300  171.1790  139.1620 S   0  0  0  0  0  0  0  0  0  0  0  0
  189.0220  172.2800  139.2140 C   0  0  0  0  0  3  0  0  0  0  0  0
  188.4150  177.7910  141.8210 O   0  0  0  0  0  1  0  0  0  0  0  0
  188.8950  177.3080  142.9950 N   0  0  0  0  0  0  0  0  0  0  0  0
  188.4270  177.9160  144.2350 C   0  0  0  0  0  2  0  0  0  0  0  0
  187.2060  176.5860  146.0530 N   0  0  0  0  0  0  0  0  0  0  0  0
  185.6910  179.1170  143.8030 O   0  0  0  0  0  1  0  0  0  0  0  0
  185.9990  178.1700  144.7720 C   0  0  0  0  0  0  0  0  0  0  0  0
  187.1410  177.2300  144.7140 C   0  0  1  0  0  3  0  0  0  0  0  0
  188.2680  177.1660  146.8880 C   0  0  0  0  0  1  0  0  0  0  0  0
  185.8690  176.8500  146.6430 C   0  0  2  0  0  3  0  0  0  0  0  0
  184.1290  178.6490  146.1730 O   0  0  0  0  0  1  0  0  0  0  0  0
  185.2880  177.9560  145.8470 C   0  0  0  0  0  0  0  0  0  0  0  0
  185.9170  177.1880  148.0040 O   0  0  0  0  0  1  0  0  0  0  0  0
  1  4  1  0  0  0  0
  2  4  2  0  0  0  0
  2 12  1  0  0  0  0
  4 10  1  0  0  0  0
  5  3  1  0  0  0  0
  6 12  2  0  0  0  0
  6 16  1  0  0  0  0
  8 10  2  0  0  0  0
  9  1  2  0  0  0  0
  9 14  1  0  0  0  0
 10 15  1  0  0  0  0
 11 23  1  0  0  0  0
 11  8  1  0  0  0  0
 12 13  1  0  0  0  0
 13  7  1  0  0  0  0
 13  3  2  0  0  0  0
 14 11  2  0  0  0  0
 15  7  2  0  0  0  0
 16  5  2  0  0  0  0
 17 19  1  0  0  0  0
 18 19  1  0  0  0  0
 19  9  1  0  0  0  0
 20 21  1  0  0  0  0
 20 17  1  0  0  0  0
 21 18  2  0  0  0  0
 22 23  1  0  0  0  0
 23 24  1  0  0  0  0
 25 30  1  0  0  0  0
 25 29  1  0  0  0  0
 26 27  1  0  0  0  0
 27 32  2  0  0  0  0
 28 24  1  1  0  0  0
 28 27  1  0  0  0  0
 28 25  1  0  0  0  0
 30 33  1  1  0  0  0
 32 31  1  0  0  0  0
 32 30  1  0  0  0  0
M  END
>  <MODEL>
4

>  <REMARK>
 VINA RESULT:      -7.5      1.567      2.413
  Name = 
  4 active torsions:
  status: ('A' for Active; 'I' for Inactive)
    1  A    between atoms: N_13  and  C_19
    2  A    between atoms: N_14  and  C_23
    3  A    between atoms: N_14  and  C_25
    4  A    between atoms: C_15  and  C_23
                            x       y       z     vdW  Elec       q    Type
                         _______ _______ _______ _____ _____    ______ ____

>  <TORSDO>
F 4

$$$$
=
 OpenBabel11042416133D

 33 37  0  0  1  0  0  0  0  0999 V2000
  192.0840  174.5020  141.8020 N   0  0  0  0  0  0  0  0  0  0  0  0
  194.1440  175.0590  142.7480 C   0  0  0  0  0  3  0  0  0  0  0  0
  195.9240  174.2140  145.8570 C   0  0  0  0  0  3  0  0  0  0  0  0
  192.6840  174.9940  142.8430 C   0  0  0  0  0  0  0  0  0  0  0  0
  197.1830  174.1670  145.3480 N   0  0  0  0  0  0  0  0  0  0  0  0
  196.3880  174.8620  143.2160 C   0  0  0  0  0  3  0  0  0  0  0  0
  193.6900  174.7710  145.7240 C   0  0  0  0  0  3  0  0  0  0  0  0
  190.7290  176.2540  143.9070 C   0  0  0  0  0  3  0  0  0  0  0  0
  190.6920  174.2500  141.5480 C   0  0  0  0  0  0  0  0  0  0  0  0
  191.9510  175.4600  144.0290 C   0  0  0  0  0  0  0  0  0  0  0  0
  189.7580  176.1160  143.0030 C   0  0  0  0  0  0  0  0  0  0  0  0
  195.0730  174.8920  143.6910 C   0  0  0  0  0  0  0  0  0  0  0  0
  194.8370  174.6020  145.0630 C   0  0  0  0  0  0  0  0  0  0  0  0
  189.7010  174.9930  142.0550 C   0  0  0  0  0  3  0  0  0  0  0  0
  192.4130  175.3330  145.2670 C   0  0  0  0  0  3  0  0  0  0  0  0
  197.4370  174.5010  144.0580 C   0  0  0  0  0  3  0  0  0  0  0  0
  191.1920  172.0560  140.3830 C   0  0  0  0  0  2  0  0  0  0  0  0
  189.1840  173.2440  139.7910 C   0  0  0  0  0  3  0  0  0  0  0  0
  190.3590  173.2290  140.5920 N   0  0  0  0  0  0  0  0  0  0  0  0
  190.4110  171.0480  139.0730 S   0  0  0  0  0  0  0  0  0  0  0  0
  189.0610  172.2160  138.9790 C   0  0  0  0  0  3  0  0  0  0  0  0
  188.7230  178.2200  142.4370 O   0  0  0  0  0  1  0  0  0  0  0  0
  188.6370  177.0120  143.0470 N   0  0  0  0  0  0  0  0  0  0  0  0
  187.4790  176.7450  143.8920 C   0  0  0  0  0  2  0  0  0  0  0  0
  186.0060  178.7080  144.6280 N   0  0  0  0  0  0  0  0  0  0  0  0
  188.0330  176.5370  146.8530 O   0  0  0  0  0  1  0  0  0  0  0  0
  187.1780  177.4630  146.2670 C   0  0  0  0  0  0  0  0  0  0  0  0
  187.2420  177.9120  144.8580 C   0  0  1  0  0  3  0  0  0  0  0  0
  184.9890  177.9380  143.8970 C   0  0  0  0  0  1  0  0  0  0  0  0
  185.5330  179.0390  145.9970 C   0  0  2  0  0  3  0  0  0  0  0  0
  185.9350  177.9220  148.2500 O   0  0  0  0  0  1  0  0  0  0  0  0
  186.2260  178.0930  146.9020 C   0  0  0  0  0  0  0  0  0  0  0  0
  184.1410  178.9410  146.1440 O   0  0  0  0  0  1  0  0  0  0  0  0
  1  4  1  0  0  0  0
  2  4  2  0  0  0  0
  2 12  1  0  0  0  0
  4 10  1  0  0  0  0
  5  3  1  0  0  0  0
  6 12  2  0  0  0  0
  6 16  1  0  0  0  0
  8 10  2  0  0  0  0
  9  1  2  0  0  0  0
  9 14  1  0  0  0  0
 10 15  1  0  0  0  0
 11 23  1  0  0  0  0
 11  8  1  0  0  0  0
 12 13  1  0  0  0  0
 13  7  1  0  0  0  0
 13  3  2  0  0  0  0
 14 11  2  0  0  0  0
 15  7  2  0  0  0  0
 16  5  2  0  0  0  0
 17 19  1  0  0  0  0
 18 19  1  0  0  0  0
 19  9  1  0  0  0  0
 20 17  1  0  0  0  0
 21 20  1  0  0  0  0
 21 18  2  0  0  0  0
 22 23  1  0  0  0  0
 23 24  1  0  0  0  0
 25 28  1  0  0  0  0
 25 30  1  0  0  0  0
 27 26  1  0  0  0  0
 27 32  2  0  0  0  0
 28 24  1  6  0  0  0
 28 27  1  0  0  0  0
 29 25  1  0  0  0  0
 30 33  1  6  0  0  0
 30 32  1  0  0  0  0
 32 31  1  0  0  0  0
M  END
>  <MODEL>
5

>  <REMARK>
 VINA RESULT:      -7.5      1.697      2.583
  Name = 
  4 active torsions:
  status: ('A' for Active; 'I' for Inactive)
    1  A    between atoms: N_13  and  C_19
    2  A    between atoms: N_14  and  C_23
    3  A    between atoms: N_14  and  C_25
    4  A    between atoms: C_15  and  C_23
                            x       y       z     vdW  Elec       q    Type
                         _______ _______ _______ _____ _____    ______ ____

>  <TORSDO>
F 4

$$$$
=
 OpenBabel11042416133D

 33 37  0  0  1  0  0  0  0  0999 V2000
  190.5820  173.8200  143.1170 N   0  0  0  0  0  0  0  0  0  0  0  0
  190.3020  171.7080  142.1620 C   0  0  0  0  0  3  0  0  0  0  0  0
  191.2800  170.1020  138.9990 C   0  0  0  0  0  3  0  0  0  0  0  0
  190.1440  173.1620  142.0860 C   0  0  0  0  0  0  0  0  0  0  0  0
  191.5350  168.8600  139.4880 N   0  0  0  0  0  0  0  0  0  0  0  0
  190.8130  169.5230  141.6560 C   0  0  0  0  0  3  0  0  0  0  0  0
  190.4010  172.2260  139.1850 C   0  0  0  0  0  3  0  0  0  0  0  0
  188.5650  174.9150  141.0990 C   0  0  0  0  0  3  0  0  0  0  0  0
  190.6330  175.2320  143.3800 C   0  0  0  0  0  0  0  0  0  0  0  0
  189.5270  173.8270  140.9290 C   0  0  0  0  0  0  0  0  0  0  0  0
  188.5930  175.8880  142.0100 C   0  0  0  0  0  0  0  0  0  0  0  0
  190.5680  170.8220  141.2000 C   0  0  0  0  0  0  0  0  0  0  0  0
  190.7660  171.1120  139.8220 C   0  0  0  0  0  0  0  0  0  0  0  0
  189.7310  176.1050  142.9170 C   0  0  0  0  0  3  0  0  0  0  0  0
  189.6740  173.4000  139.6810 C   0  0  0  0  0  3  0  0  0  0  0  0
  191.2930  168.5470  140.7850 C   0  0  0  0  0  3  0  0  0  0  0  0
  191.5590  175.4400  145.7300 C   0  0  0  0  0  2  0  0  0  0  0  0
  192.7830  176.4420  143.9150 C   0  0  0  0  0  3  0  0  0  0  0  0
  191.6300  175.7060  144.3030 N   0  0  0  0  0  0  0  0  0  0  0  0
  193.0030  176.2410  146.5150 S   0  0  0  0  0  0  0  0  0  0  0  0
  193.5760  176.7810  144.9090 C   0  0  0  0  0  3  0  0  0  0  0  0
  186.8580  177.1180  140.8710 O   0  0  0  0  0  1  0  0  0  0  0  0
  187.5390  176.8630  142.0160 N   0  0  0  0  0  0  0  0  0  0  0  0
  187.3040  177.7270  143.1670 C   0  0  0  0  0  2  0  0  0  0  0  0
  186.7530  176.6970  145.4480 N   0  0  0  0  0  0  0  0  0  0  0  0
  184.4760  178.7650  143.3720 O   0  0  0  0  0  1  0  0  0  0  0  0
  185.1170  178.0070  144.3440 C   0  0  0  0  0  0  0  0  0  0  0  0
  186.2630  177.1000  144.1020 C   0  0  1  0  0  3  0  0  0  0  0  0
  187.9620  177.4400  145.8330 C   0  0  0  0  0  1  0  0  0  0  0  0
  185.6230  177.0240  146.3540 C   0  0  2  0  0  3  0  0  0  0  0  0
  183.6920  178.6700  146.1380 O   0  0  0  0  0  1  0  0  0  0  0  0
  184.7590  177.9620  145.6000 C   0  0  0  0  0  0  0  0  0  0  0  0
  186.0310  177.5910  147.5710 O   0  0  0  0  0  1  0  0  0  0  0  0
  1  9  1  0  0  0  0
  3  5  2  0  0  0  0
  3 13  1  0  0  0  0
  4  2  1  0  0  0  0
  4  1  2  0  0  0  0
  5 16  1  0  0  0  0
  7 15  1  0  0  0  0
  7 13  2  0  0  0  0
  8 11  2  0  0  0  0
  9 19  1  0  0  0  0
 10  8  1  0  0  0  0
 10  4  1  0  0  0  0
 11 23  1  0  0  0  0
 11 14  1  0  0  0  0
 12  6  1  0  0  0  0
 12  2  2  0  0  0  0
 13 12  1  0  0  0  0
 14  9  2  0  0  0  0
 15 10  2  0  0  0  0
 16  6  2  0  0  0  0
 17 20  1  0  0  0  0
 18 19  1  0  0  0  0
 18 21  2  0  0  0  0
 19 17  1  0  0  0  0
 21 20  1  0  0  0  0
 22 23  1  0  0  0  0
 23 24  1  0  0  0  0
 25 29  1  0  0  0  0
 25 30  1  0  0  0  0
 26 27  1  0  0  0  0
 27 32  2  0  0  0  0
 28 24  1  1  0  0  0
 28 27  1  0  0  0  0
 28 25  1  0  0  0  0
 30 33  1  1  0  0  0
 32 31  1  0  0  0  0
 32 30  1  0  0  0  0
M  END
>  <MODEL>
6

>  <REMARK>
 VINA RESULT:      -7.5      2.731      5.690
  Name = 
  4 active torsions:
  status: ('A' for Active; 'I' for Inactive)
    1  A    between atoms: N_13  and  C_19
    2  A    between atoms: N_14  and  C_23
    3  A    between atoms: N_14  and  C_25
    4  A    between atoms: C_15  and  C_23
                            x       y       z     vdW  Elec       q    Type
                         _______ _______ _______ _____ _____    ______ ____

>  <TORSDO>
F 4

$$$$
=
 OpenBabel11042416133D

 33 37  0  0  1  0  0  0  0  0999 V2000
  192.0930  174.0690  142.2820 N   0  0  0  0  0  0  0  0  0  0  0  0
  191.0900  172.1200  141.4780 C   0  0  0  0  0  3  0  0  0  0  0  0
  189.4640  171.1020  138.3380 C   0  0  0  0  0  3  0  0  0  0  0  0
  191.0170  173.5540  141.7670 C   0  0  0  0  0  0  0  0  0  0  0  0
  189.9080  169.8190  138.3020 N   0  0  0  0  0  0  0  0  0  0  0  0
  190.9590  170.0820  140.4200 C   0  0  0  0  0  3  0  0  0  0  0  0
  189.1060  173.1070  139.4210 C   0  0  0  0  0  3  0  0  0  0  0  0
  189.3150  175.3320  142.4660 C   0  0  0  0  0  3  0  0  0  0  0  0
  192.4040  175.4230  142.6540 C   0  0  0  0  0  0  0  0  0  0  0  0
  189.8100  174.3500  141.5000 C   0  0  0  0  0  0  0  0  0  0  0  0
  190.0360  176.1480  143.2350 C   0  0  0  0  0  0  0  0  0  0  0  0
  190.5480  171.4180  140.4820 C   0  0  0  0  0  0  0  0  0  0  0  0
  189.7410  171.9330  139.4320 C   0  0  0  0  0  0  0  0  0  0  0  0
  191.4940  176.2950  143.1020 C   0  0  0  0  0  3  0  0  0  0  0  0
  189.0120  174.1370  140.4630 C   0  0  0  0  0  3  0  0  0  0  0  0
  190.6270  169.2900  139.3240 C   0  0  0  0  0  3  0  0  0  0  0  0
  194.5580  176.0050  141.4540 C   0  0  0  0  0  2  0  0  0  0  0  0
  194.5240  176.0730  143.8600 C   0  0  0  0  0  3  0  0  0  0  0  0
  193.7890  175.8120  142.6720 N   0  0  0  0  0  0  0  0  0  0  0  0
  196.2590  176.4660  141.9410 S   0  0  0  0  0  0  0  0  0  0  0  0
  195.7780  176.4190  143.6630 C   0  0  0  0  0  3  0  0  0  0  0  0
  190.0510  178.0140  144.7640 O   0  0  0  0  0  1  0  0  0  0  0  0
  189.3540  177.0370  144.1330 N   0  0  0  0  0  0  0  0  0  0  0  0
  187.9730  176.8000  144.5380 C   0  0  0  0  0  2  0  0  0  0  0  0
  186.2880  178.1320  143.1410 N   0  0  0  0  0  0  0  0  0  0  0  0
  186.5610  178.1480  146.8410 O   0  0  0  0  0  1  0  0  0  0  0  0
  186.2250  178.3040  145.5020 C   0  0  0  0  0  0  0  0  0  0  0  0
  187.1390  178.0750  144.3600 C   0  0  1  0  0  3  0  0  0  0  0  0
  185.9840  176.7900  142.6240 C   0  0  0  0  0  1  0  0  0  0  0  0
  185.0510  178.8140  143.5990 C   0  0  2  0  0  3  0  0  0  0  0  0
  183.9980  179.0570  145.9040 O   0  0  0  0  0  1  0  0  0  0  0  0
  185.0610  178.7190  145.0760 C   0  0  0  0  0  0  0  0  0  0  0  0
  183.8780  178.2530  143.0710 O   0  0  0  0  0  1  0  0  0  0  0  0
  1  9  1  0  0  0  0
  2  4  1  0  0  0  0
  3 13  1  0  0  0  0
  4  1  2  0  0  0  0
  5  3  2  0  0  0  0
  5 16  1  0  0  0  0
  6 12  1  0  0  0  0
  7 13  2  0  0  0  0
  7 15  1  0  0  0  0
  8 11  2  0  0  0  0
  9 19  1  0  0  0  0
  9 14  2  0  0  0  0
 10  4  1  0  0  0  0
 10  8  1  0  0  0  0
 11 23  1  0  0  0  0
 12  2  2  0  0  0  0
 13 12  1  0  0  0  0
 14 11  1  0  0  0  0
 15 10  2  0  0  0  0
 16  6  2  0  0  0  0
 17 20  1  0  0  0  0
 17 19  1  0  0  0  0
 19 18  1  0  0  0  0
 20 21  1  0  0  0  0
 21 18  2  0  0  0  0
 23 24  1  0  0  0  0
 23 22  1  0  0  0  0
 25 30  1  0  0  0  0
 25 28  1  0  0  0  0
 27 26  1  0  0  0  0
 28 24  1  1  0  0  0
 28 27  1  0  0  0  0
 29 25  1  0  0  0  0
 30 33  1  6  0  0  0
 30 32  1  0  0  0  0
 32 27  2  0  0  0  0
 32 31  1  0  0  0  0
M  END
>  <MODEL>
7

>  <REMARK>
 VINA RESULT:      -7.3      2.719      5.800
  Name = 
  4 active torsions:
  status: ('A' for Active; 'I' for Inactive)
    1  A    between atoms: N_13  and  C_19
    2  A    between atoms: N_14  and  C_23
    3  A    between atoms: N_14  and  C_25
    4  A    between atoms: C_15  and  C_23
                            x       y       z     vdW  Elec       q    Type
                         _______ _______ _______ _____ _____    ______ ____

>  <TORSDO>
F 4

$$$$
=
 OpenBabel11042416133D

 33 37  0  0  1  0  0  0  0  0999 V2000
  187.9020  174.9020  141.5780 N   0  0  0  0  0  0  0  0  0  0  0  0
  186.3370  176.0950  142.8340 C   0  0  0  0  0  3  0  0  0  0  0  0
  186.1550  179.4690  144.2910 C   0  0  0  0  0  3  0  0  0  0  0  0
  187.6950  175.5710  142.6720 C   0  0  0  0  0  0  0  0  0  0  0  0
  184.8310  179.6920  144.0880 N   0  0  0  0  0  0  0  0  0  0  0  0
  184.5520  177.4920  143.2270 C   0  0  0  0  0  3  0  0  0  0  0  0
  187.9990  178.0870  144.3860 C   0  0  0  0  0  3  0  0  0  0  0  0
  189.6420  174.6990  144.0830 C   0  0  0  0  0  3  0  0  0  0  0  0
  189.0940  174.2840  141.0650 C   0  0  0  0  0  0  0  0  0  0  0  0
  188.7440  175.7810  143.6800 C   0  0  0  0  0  0  0  0  0  0  0  0
  190.1730  173.7530  143.3060 C   0  0  0  0  0  0  0  0  0  0  0  0
  185.9170  177.2320  143.3910 C   0  0  0  0  0  0  0  0  0  0  0  0
  186.7360  178.2330  143.9800 C   0  0  0  0  0  0  0  0  0  0  0  0
  190.0490  173.7570  141.8410 C   0  0  0  0  0  3  0  0  0  0  0  0
  188.8540  176.8940  144.3950 C   0  0  0  0  0  3  0  0  0  0  0  0
  184.0200  178.7280  143.5850 C   0  0  0  0  0  3  0  0  0  0  0  0
  190.3710  173.5230  139.0120 C   0  0  0  0  0  2  0  0  0  0  0  0
  188.1620  174.4360  138.7230 C   0  0  0  0  0  3  0  0  0  0  0  0
  189.1950  174.1030  139.6410 N   0  0  0  0  0  0  0  0  0  0  0  0
  190.0800  173.5050  137.2070 S   0  0  0  0  0  0  0  0  0  0  0  0
  188.4490  174.1910  137.4630 C   0  0  0  0  0  3  0  0  0  0  0  0
  190.4960  171.8330  144.7310 O   0  0  0  0  0  1  0  0  0  0  0  0
  191.0280  172.7670  143.9030 N   0  0  0  0  0  0  0  0  0  0  0  0
  192.4800  172.8540  143.8010 C   0  0  0  0  0  2  0  0  0  0  0  0
  194.0020  173.6180  145.7160 N   0  0  0  0  0  0  0  0  0  0  0  0
  193.1580  175.5720  142.6760 O   0  0  0  0  0  1  0  0  0  0  0  0
  193.6540  175.0590  143.8690 C   0  0  0  0  0  0  0  0  0  0  0  0
  193.0090  173.9980  144.6750 C   0  0  1  0  0  3  0  0  0  0  0  0
  194.6910  172.3630  145.3810 C   0  0  0  0  0  1  0  0  0  0  0  0
  194.9580  174.7550  145.7320 C   0  0  2  0  0  3  0  0  0  0  0  0
  195.5510  176.5020  143.9760 O   0  0  0  0  0  1  0  0  0  0  0  0
  194.7390  175.4830  144.4610 C   0  0  0  0  0  0  0  0  0  0  0  0
  196.2970  174.3550  145.8540 O   0  0  0  0  0  1  0  0  0  0  0  0
  1  4  1  0  0  0  0
  2 12  1  0  0  0  0
  4  2  2  0  0  0  0
  4 10  1  0  0  0  0
  5  3  1  0  0  0  0
  6 12  2  0  0  0  0
  6 16  1  0  0  0  0
  7 15  2  0  0  0  0
  9  1  2  0  0  0  0
  9 14  1  0  0  0  0
 10  8  2  0  0  0  0
 10 15  1  0  0  0  0
 11 23  1  0  0  0  0
 11  8  1  0  0  0  0
 12 13  1  0  0  0  0
 13  3  2  0  0  0  0
 13  7  1  0  0  0  0
 14 11  2  0  0  0  0
 16  5  2  0  0  0  0
 17 19  1  0  0  0  0
 18 19  1  0  0  0  0
 19  9  1  0  0  0  0
 20 21  1  0  0  0  0
 20 17  1  0  0  0  0
 21 18  2  0  0  0  0
 23 22  1  0  0  0  0
 24 23  1  0  0  0  0
 25 30  1  0  0  0  0
 26 27  1  0  0  0  0
 27 32  2  0  0  0  0
 27 28  1  0  0  0  0
 28 24  1  6  0  0  0
 28 25  1  0  0  0  0
 29 25  1  0  0  0  0
 30 33  1  6  0  0  0
 31 32  1  0  0  0  0
 32 30  1  0  0  0  0
M  END
>  <MODEL>
8

>  <REMARK>
 VINA RESULT:      -7.3      3.337      7.762
  Name = 
  4 active torsions:
  status: ('A' for Active; 'I' for Inactive)
    1  A    between atoms: N_13  and  C_19
    2  A    between atoms: N_14  and  C_23
    3  A    between atoms: N_14  and  C_25
    4  A    between atoms: C_15  and  C_23
                            x       y       z     vdW  Elec       q    Type
                         _______ _______ _______ _____ _____    ______ ____

>  <TORSDO>
F 4

$$$$
=
 OpenBabel11042416133D

 33 37  0  0  1  0  0  0  0  0999 V2000
  187.8770  174.9720  141.7390 N   0  0  0  0  0  0  0  0  0  0  0  0
  186.2730  176.1750  142.9340 C   0  0  0  0  0  3  0  0  0  0  0  0
  185.9860  179.6090  144.2280 C   0  0  0  0  0  3  0  0  0  0  0  0
  187.6470  175.6860  142.7990 C   0  0  0  0  0  0  0  0  0  0  0  0
  184.6560  179.7820  144.0130 N   0  0  0  0  0  0  0  0  0  0  0  0
  184.4460  177.5350  143.2590 C   0  0  0  0  0  3  0  0  0  0  0  0
  187.8710  178.2900  144.3890 C   0  0  0  0  0  3  0  0  0  0  0  0
  189.6170  174.9430  144.2510 C   0  0  0  0  0  3  0  0  0  0  0  0
  189.0880  174.3660  141.2560 C   0  0  0  0  0  0  0  0  0  0  0  0
  188.6870  175.9770  143.7960 C   0  0  0  0  0  0  0  0  0  0  0  0
  190.1780  173.9780  143.5220 C   0  0  0  0  0  0  0  0  0  0  0  0
  185.8170  177.3250  143.4360 C   0  0  0  0  0  0  0  0  0  0  0  0
  186.6050  178.3770  143.9770 C   0  0  0  0  0  0  0  0  0  0  0  0
  190.0570  173.9070  142.0570 C   0  0  0  0  0  3  0  0  0  0  0  0
  188.7620  177.1250  144.4570 C   0  0  0  0  0  3  0  0  0  0  0  0
  183.8760  178.7700  143.5570 C   0  0  0  0  0  3  0  0  0  0  0  0
  190.3520  173.4620  139.2550 C   0  0  0  0  0  2  0  0  0  0  0  0
  188.1920  174.4610  138.8980 C   0  0  0  0  0  3  0  0  0  0  0  0
  189.1980  174.1200  139.8430 N   0  0  0  0  0  0  0  0  0  0  0  0
  190.0830  173.3800  137.4490 S   0  0  0  0  0  0  0  0  0  0  0  0
  188.4820  174.1500  137.6530 C   0  0  0  0  0  3  0  0  0  0  0  0
  190.7710  171.7230  144.1400 O   0  0  0  0  0  1  0  0  0  0  0  0
  191.0620  173.0480  144.1650 N   0  0  0  0  0  0  0  0  0  0  0  0
  192.1610  173.4990  145.0110 C   0  0  0  0  0  2  0  0  0  0  0  0
  193.1190  175.8210  144.5050 N   0  0  0  0  0  0  0  0  0  0  0  0
  194.9780  172.6110  144.3840 O   0  0  0  0  0  1  0  0  0  0  0  0
  194.5400  173.9310  144.3810 C   0  0  0  0  0  0  0  0  0  0  0  0
  193.1360  174.3640  144.2030 C   0  0  1  0  0  3  0  0  0  0  0  0
  192.5920  176.0940  145.8500 C   0  0  0  0  0  1  0  0  0  0  0  0
  194.5450  176.2240  144.4060 C   0  0  2  0  0  3  0  0  0  0  0  0
  196.7070  174.8970  144.6320 O   0  0  0  0  0  1  0  0  0  0  0  0
  195.3260  174.9690  144.4920 C   0  0  0  0  0  0  0  0  0  0  0  0
  194.9390  177.1260  145.4050 O   0  0  0  0  0  1  0  0  0  0  0  0
  1  4  1  0  0  0  0
  2 12  1  0  0  0  0
  4  2  2  0  0  0  0
  4 10  1  0  0  0  0
  5  3  1  0  0  0  0
  6 12  2  0  0  0  0
  6 16  1  0  0  0  0
  7 15  2  0  0  0  0
  9  1  2  0  0  0  0
  9 14  1  0  0  0  0
 10  8  2  0  0  0  0
 10 15  1  0  0  0  0
 11 23  1  0  0  0  0
 11  8  1  0  0  0  0
 12 13  1  0  0  0  0
 13  3  2  0  0  0  0
 13  7  1  0  0  0  0
 14 11  2  0  0  0  0
 16  5  2  0  0  0  0
 17 19  1  0  0  0  0
 18 19  1  0  0  0  0
 19  9  1  0  0  0  0
 20 21  1  0  0  0  0
 20 17  1  0  0  0  0
 21 18  2  0  0  0  0
 22 23  1  0  0  0  0
 23 24  1  0  0  0  0
 25 29  1  0  0  0  0
 27 26  1  0  0  0  0
 27 32  2  0  0  0  0
 28 27  1  0  0  0  0
 28 25  1  0  0  0  0
 28 24  1  1  0  0  0
 30 32  1  0  0  0  0
 30 25  1  0  0  0  0
 30 33  1  1  0  0  0
 32 31  1  0  0  0  0
M  END
>  <MODEL>
9

>  <REMARK>
 VINA RESULT:      -7.2      3.442      7.725
  Name = 
  4 active torsions:
  status: ('A' for Active; 'I' for Inactive)
    1  A    between atoms: N_13  and  C_19
    2  A    between atoms: N_14  and  C_23
    3  A    between atoms: N_14  and  C_25
    4  A    between atoms: C_15  and  C_23
                            x       y       z     vdW  Elec       q    Type
                         _______ _______ _______ _____ _____    ______ ____

>  <TORSDO>
F 4

$$$$
