=
 OpenBabel11042413553D

 51 58  0  0  1  0  0  0  0  0999 V2000
  191.6310  177.3090  144.2990 S   0  0  0  0  0  0  0  0  0  0  0  0
  192.0660  174.9520  145.5950 C   0  0  0  0  0  1  0  0  0  0  0  0
  192.8160  176.1430  145.0270 C   0  0  1  0  0  3  0  0  0  0  0  0
  193.7830  175.6860  143.9510 C   0  0  0  0  0  2  0  0  0  0  0  0
  195.1730  176.2330  144.2200 C   0  0  0  0  0  2  0  0  0  0  0  0
  196.7710  170.2670  146.1770 C   0  0  0  0  0  3  0  0  0  0  0  0
  196.5610  169.3230  147.1860 C   0  0  0  0  0  3  0  0  0  0  0  0
  196.0160  174.7580  145.8280 C   0  0  0  0  0  2  0  0  0  0  0  0
  195.5940  173.9890  143.6650 C   0  0  1  0  0  3  0  0  0  0  0  0
  196.0990  175.1310  144.4220 N   0  0  0  0  0  0  0  0  0  0  0  0
  194.8990  169.3690  144.9340 C   0  0  0  0  0  0  0  0  0  0  0  0
  196.5160  173.7190  142.4720 C   0  0  0  0  0  2  0  0  0  0  0  0
  195.0470  169.0360  142.5340 C   0  0  1  0  0  3  0  0  0  0  0  0
  195.5160  168.4080  147.0760 C   0  0  0  0  0  3  0  0  0  0  0  0
  195.4750  172.7830  144.6190 C   0  0  1  0  0  3  0  0  0  0  0  0
  194.2010  169.2280  143.7010 N   0  0  0  0  0  0  0  0  0  0  0  0
  196.1290  172.5090  141.8330 O   0  0  0  0  0  0  0  0  0  0  0  0
  194.6940  168.4230  145.9490 C   0  0  0  0  0  3  0  0  0  0  0  0
  196.1180  171.4790  144.0930 C   0  0  2  0  0  3  0  0  0  0  0  0
  194.4000  168.2540  141.5750 O   0  0  0  0  0  1  0  0  0  0  0  0
  195.8840  171.3590  142.5870 C   0  0  0  0  0  0  0  0  0  0  0  0
  195.4130  170.3180  141.9620 N   0  0  0  0  0  0  0  0  0  0  0  0
  196.1120  173.2560  145.9010 C   0  0  0  0  0  2  0  0  0  0  0  0
  195.9460  170.3060  145.0430 C   0  0  0  0  0  0  0  0  0  0  0  0
  192.1830  170.5680  143.7510 C   0  0  0  0  0  2  0  0  0  0  0  0
  192.7790  169.3950  143.5760 C   0  0  0  0  0  3  0  0  0  0  0  0
  190.5210  175.9800  143.7310 C   0  0  1  0  0  3  0  0  0  0  0  0
  185.5400  179.0520  146.5670 C   0  0  0  0  0  3  0  0  0  0  0  0
  186.9220  178.1430  144.7880 C   0  0  0  0  0  0  0  0  0  0  0  0
  187.2480  177.9850  143.3250 C   0  0  0  0  0  2  0  0  0  0  0  0
  186.2820  178.3420  147.5140 C   0  0  0  0  0  3  0  0  0  0  0  0
  185.0210  179.7170  144.2280 C   0  0  0  0  0  1  0  0  0  0  0  0
  188.7640  176.6080  145.3460 N   0  0  0  0  0  2  0  0  0  0  0  0
  185.8490  178.9530  145.2070 C   0  0  0  0  0  0  0  0  0  0  0  0
  187.3400  177.5270  147.1060 C   0  0  0  0  0  3  0  0  0  0  0  0
  187.6560  177.4180  145.7500 C   0  0  0  0  0  0  0  0  0  0  0  0
  188.7150  177.6200  143.1100 C   0  0  0  0  0  2  0  0  0  0  0  0
  189.0590  176.3780  143.9320 C   0  0  1  0  0  3  0  0  0  0  0  0
  190.7850  175.6830  142.3300 N   0  0  0  0  0  2  0  0  0  0  0  0
  190.4740  174.2780  142.1140 C   0  0  0  0  0  2  0  0  0  0  0  0
  189.0730  172.6900  140.7390 C   0  0  2  0  0  0  0  0  0  0  0  0
  188.1560  173.5030  141.6230 C   0  0  0  0  0  2  0  0  0  0  0  0
  189.8180  171.6970  141.3870 O   0  0  0  0  0  1  0  0  0  0  0  0
  189.4120  174.1420  141.0310 C   0  0  1  0  0  3  0  0  0  0  0  0
  191.8120  172.0630  139.0050 O   0  0  0  0  0  1  0  0  0  0  0  0
  188.5830  172.4220  139.3850 N   0  0  1  0  0  0  0  0  0  0  0  0
  188.2660  173.6920  138.7020 C   0  0  0  0  0  2  0  0  0  0  0  0
  189.1030  173.9600  137.4510 C   0  0  0  0  0  2  0  0  0  0  0  0
  190.7580  172.2050  138.1040 C   0  0  2  0  0  3  0  0  0  0  0  0
  190.5600  173.6790  137.7620 C   0  0  0  0  0  2  0  0  0  0  0  0
  189.4920  171.5220  138.6500 C   0  0  0  0  0  2  0  0  0  0  0  0
  1  3  1  0  0  0  0
  3  2  1  6  0  0  0
  4  5  1  0  0  0  0
  4  3  1  0  0  0  0
  5 10  1  0  0  0  0
  6  7  1  0  0  0  0
  8 23  1  0  0  0  0
  9 12  1  6  0  0  0
  9 10  1  0  0  0  0
  9 15  1  0  0  0  0
 10  8  1  0  0  0  0
 11 24  1  0  0  0  0
 11 18  2  0  0  0  0
 13 20  1  6  0  0  0
 13 16  1  0  0  0  0
 14  7  2  0  0  0  0
 15 23  1  1  0  0  0
 16 11  1  0  0  0  0
 17 12  1  0  0  0  0
 17 21  1  0  0  0  0
 18 14  1  0  0  0  0
 19 21  1  6  0  0  0
 19 15  1  0  0  0  0
 19 24  1  0  0  0  0
 22 13  1  0  0  0  0
 22 21  2  0  0  0  0
 24  6  2  0  0  0  0
 26 16  1  0  0  0  0
 26 25  2  0  0  0  0
 27 39  1  6  0  0  0
 27  1  1  0  0  0  0
 28 31  1  0  0  0  0
 29 34  1  0  0  0  0
 29 36  2  0  0  0  0
 30 29  1  0  0  0  0
 32 34  1  0  0  0  0
 33 36  1  0  0  0  0
 34 28  2  0  0  0  0
 35 31  2  0  0  0  0
 36 35  1  0  0  0  0
 37 30  1  0  0  0  0
 37 38  1  0  0  0  0
 38 27  1  1  0  0  0
 38 33  1  0  0  0  0
 40 39  1  0  0  0  0
 41 44  1  0  0  0  0
 41 43  1  1  0  0  0
 41 42  1  0  0  0  0
 44 42  1  0  0  0  0
 44 40  1  1  0  0  0
 46 51  1  6  0  0  0
 46 41  1  0  0  0  0
 47 46  1  0  0  0  0
 48 50  1  0  0  0  0
 48 47  1  0  0  0  0
 49 51  1  0  0  0  0
 49 45  1  1  0  0  0
 50 49  1  0  0  0  0
M  END
>  <MODEL>
1

>  <REMARK>
 VINA RESULT:      -8.3      0.000      0.000
  Name = 
  11 active torsions:
  status: ('A' for Active; 'I' for Inactive)
    1  A    between atoms: C_2  and  N_16
    2  A    between atoms: C_3  and  N_11
    3  A    between atoms: C_3  and  S_45
    4  A    between atoms: C_3  and  C_49
    5  A    between atoms: N_10  and  C_27
    6  A    between atoms: N_11  and  C_42
    7  A    between atoms: C_23  and  C_42
    8  A    between atoms: C_24  and  N_33
    9  A    between atoms: C_27  and  C_43
   10  A    between atoms: C_35  and  C_43
   11  A    between atoms: C_35  and  S_45
                            x       y       z     vdW  Elec       q    Type
                         _______ _______ _______ _____ _____    ______ ____

>  <TORSDO>
F 11

$$$$
=
 OpenBabel11042413553D

 51 58  0  0  1  0  0  0  0  0999 V2000
  194.2070  176.0000  143.9290 S   0  0  0  0  0  0  0  0  0  0  0  0
  195.0150  177.8530  145.7550 C   0  0  0  0  0  1  0  0  0  0  0  0
  194.4480  176.4480  145.6710 C   0  0  1  0  0  3  0  0  0  0  0  0
  193.1130  176.3810  146.3870 C   0  0  0  0  0  2  0  0  0  0  0  0
  192.7910  174.9490  146.7770 C   0  0  0  0  0  2  0  0  0  0  0  0
  186.6590  176.9430  146.1490 C   0  0  0  0  0  3  0  0  0  0  0  0
  185.8100  178.0360  146.3400 C   0  0  0  0  0  3  0  0  0  0  0  0
  190.8320  175.8670  147.6640 C   0  0  0  0  0  2  0  0  0  0  0  0
  190.8160  174.9800  145.5050 C   0  0  1  0  0  3  0  0  0  0  0  0
  191.3500  174.7760  146.8490 N   0  0  0  0  0  0  0  0  0  0  0  0
  187.1460  177.7000  143.9030 C   0  0  0  0  0  0  0  0  0  0  0  0
  190.3160  173.6440  144.9470 C   0  0  0  0  0  2  0  0  0  0  0  0
  187.2280  176.1300  142.0530 C   0  0  1  0  0  3  0  0  0  0  0  0
  185.6340  178.9670  145.3170 C   0  0  0  0  0  3  0  0  0  0  0  0
  189.7120  176.0540  145.5750 C   0  0  1  0  0  3  0  0  0  0  0  0
  187.6270  177.4210  142.5930 N   0  0  0  0  0  0  0  0  0  0  0  0
  189.6410  173.8630  143.7150 O   0  0  0  0  0  0  0  0  0  0  0  0
  186.2910  178.7940  144.0990 C   0  0  0  0  0  3  0  0  0  0  0  0
  188.3870  175.6620  144.8790 C   0  0  2  0  0  3  0  0  0  0  0  0
  187.1040  176.1900  140.6640 O   0  0  0  0  0  1  0  0  0  0  0  0
  188.6870  174.8760  143.6030 C   0  0  0  0  0  0  0  0  0  0  0  0
  188.1940  175.1110  142.4210 N   0  0  0  0  0  0  0  0  0  0  0  0
  189.5280  176.3070  147.0500 C   0  0  0  0  0  2  0  0  0  0  0  0
  187.3390  176.7610  144.9360 C   0  0  0  0  0  0  0  0  0  0  0  0
  189.8220  178.3870  142.2490 C   0  0  0  0  0  2  0  0  0  0  0  0
  188.5490  178.2730  141.8930 C   0  0  0  0  0  3  0  0  0  0  0  0
  195.7200  174.9850  143.8780 C   0  0  1  0  0  3  0  0  0  0  0  0
  194.8020  168.8450  145.8110 C   0  0  0  0  0  3  0  0  0  0  0  0
  195.7930  171.0590  145.7040 C   0  0  0  0  0  0  0  0  0  0  0  0
  196.8730  172.0380  146.0880 C   0  0  0  0  0  2  0  0  0  0  0  0
  193.7190  169.2860  145.0490 C   0  0  0  0  0  3  0  0  0  0  0  0
  196.9670  169.2140  146.9760 C   0  0  0  0  0  1  0  0  0  0  0  0
  194.6380  172.8480  144.4670 N   0  0  0  0  0  2  0  0  0  0  0  0
  195.8370  169.7240  146.1470 C   0  0  0  0  0  0  0  0  0  0  0  0
  193.6620  170.6120  144.6150 C   0  0  0  0  0  3  0  0  0  0  0  0
  194.6880  171.5010  144.9460 C   0  0  0  0  0  0  0  0  0  0  0  0
  196.9940  173.1730  145.0730 C   0  0  0  0  0  2  0  0  0  0  0  0
  195.6310  173.8370  144.8830 C   0  0  1  0  0  3  0  0  0  0  0  0
  195.9250  174.4740  142.5290 N   0  0  0  0  0  2  0  0  0  0  0  0
  194.8250  174.9540  141.7070 C   0  0  0  0  0  2  0  0  0  0  0  0
  193.0060  173.5020  140.7290 C   0  0  2  0  0  0  0  0  0  0  0  0
  193.4490  174.4940  139.6790 C   0  0  0  0  0  2  0  0  0  0  0  0
  192.2270  174.0240  141.7680 O   0  0  0  0  0  1  0  0  0  0  0  0
  194.4670  173.9100  140.6580 C   0  0  1  0  0  3  0  0  0  0  0  0
  190.0930  173.8200  139.2070 O   0  0  0  0  0  1  0  0  0  0  0  0
  192.7080  172.1510  140.2450 N   0  0  1  0  0  0  0  0  0  0  0  0
  192.2030  171.3180  141.3550 C   0  0  0  0  0  2  0  0  0  0  0  0
  190.7760  170.8060  141.1580 C   0  0  0  0  0  2  0  0  0  0  0  0
  190.3670  172.4590  139.3280 C   0  0  2  0  0  3  0  0  0  0  0  0
  189.9000  171.9520  140.6900 C   0  0  0  0  0  2  0  0  0  0  0  0
  191.8530  172.1840  139.0430 C   0  0  0  0  0  2  0  0  0  0  0  0
  1  3  1  0  0  0  0
  3  2  1  6  0  0  0
  3  4  1  0  0  0  0
  4  5  1  0  0  0  0
  5 10  1  0  0  0  0
  6  7  1  0  0  0  0
  9 12  1  1  0  0  0
  9 15  1  0  0  0  0
  9 10  1  0  0  0  0
 10  8  1  0  0  0  0
 11 18  2  0  0  0  0
 11 24  1  0  0  0  0
 13 20  1  6  0  0  0
 13 22  1  0  0  0  0
 13 16  1  0  0  0  0
 14  7  2  0  0  0  0
 15 23  1  1  0  0  0
 16 11  1  0  0  0  0
 17 12  1  0  0  0  0
 18 14  1  0  0  0  0
 19 21  1  6  0  0  0
 19 24  1  0  0  0  0
 19 15  1  0  0  0  0
 21 17  1  0  0  0  0
 22 21  2  0  0  0  0
 23  8  1  0  0  0  0
 24  6  2  0  0  0  0
 26 25  2  0  0  0  0
 26 16  1  0  0  0  0
 27 39  1  6  0  0  0
 27  1  1  0  0  0  0
 28 34  1  0  0  0  0
 29 30  1  0  0  0  0
 29 34  2  0  0  0  0
 31 28  2  0  0  0  0
 33 38  1  0  0  0  0
 33 36  1  0  0  0  0
 34 32  1  0  0  0  0
 35 36  2  0  0  0  0
 35 31  1  0  0  0  0
 36 29  1  0  0  0  0
 37 30  1  0  0  0  0
 38 27  1  6  0  0  0
 38 37  1  0  0  0  0
 40 39  1  0  0  0  0
 41 43  1  1  0  0  0
 42 44  1  0  0  0  0
 42 41  1  0  0  0  0
 44 41  1  0  0  0  0
 44 40  1  1  0  0  0
 46 51  1  6  0  0  0
 46 41  1  0  0  0  0
 46 47  1  0  0  0  0
 48 47  1  0  0  0  0
 49 45  1  1  0  0  0
 49 50  1  0  0  0  0
 50 48  1  0  0  0  0
 51 49  1  0  0  0  0
M  END
>  <MODEL>
2

>  <REMARK>
 VINA RESULT:      -8.3      2.215      8.530
  Name = 
  11 active torsions:
  status: ('A' for Active; 'I' for Inactive)
    1  A    between atoms: C_2  and  N_16
    2  A    between atoms: C_3  and  N_11
    3  A    between atoms: C_3  and  S_45
    4  A    between atoms: C_3  and  C_49
    5  A    between atoms: N_10  and  C_27
    6  A    between atoms: N_11  and  C_42
    7  A    between atoms: C_23  and  C_42
    8  A    between atoms: C_24  and  N_33
    9  A    between atoms: C_27  and  C_43
   10  A    between atoms: C_35  and  C_43
   11  A    between atoms: C_35  and  S_45
                            x       y       z     vdW  Elec       q    Type
                         _______ _______ _______ _____ _____    ______ ____

>  <TORSDO>
F 11

$$$$
=
 OpenBabel11042413553D

 51 58  0  0  1  0  0  0  0  0999 V2000
  190.3810  172.8720  141.1380 S   0  0  0  0  0  0  0  0  0  0  0  0
  188.2440  172.6100  139.4680 C   0  0  0  0  0  1  0  0  0  0  0  0
  189.1370  173.6710  140.0850 C   0  0  1  0  0  3  0  0  0  0  0  0
  188.3110  174.6200  140.9310 C   0  0  0  0  0  2  0  0  0  0  0  0
  187.8020  175.7760  140.0890 C   0  0  0  0  0  2  0  0  0  0  0  0
  185.9290  178.7230  145.5460 C   0  0  0  0  0  3  0  0  0  0  0  0
  184.9560  178.7140  146.5490 C   0  0  0  0  0  3  0  0  0  0  0  0
  186.1960  176.8940  141.3690 C   0  0  0  0  0  2  0  0  0  0  0  0
  188.3950  176.7600  142.1380 C   0  0  1  0  0  3  0  0  0  0  0  0
  187.5860  176.9370  140.9350 N   0  0  0  0  0  0  0  0  0  0  0  0
  187.2820  177.1820  146.8310 C   0  0  0  0  0  0  0  0  0  0  0  0
  189.5500  177.7670  142.1290 C   0  0  0  0  0  2  0  0  0  0  0  0
  189.6800  177.5010  147.0280 C   0  0  1  0  0  3  0  0  0  0  0  0
  185.1390  177.9330  147.6890 C   0  0  0  0  0  3  0  0  0  0  0  0
  187.4790  176.9060  143.3700 C   0  0  1  0  0  3  0  0  0  0  0  0
  188.5490  176.5890  147.0940 N   0  0  0  0  0  0  0  0  0  0  0  0
  190.2380  177.7170  143.3730 O   0  0  0  0  0  0  0  0  0  0  0  0
  186.3030  177.1780  147.8350 C   0  0  0  0  0  3  0  0  0  0  0  0
  188.0090  177.8730  144.4560 C   0  0  2  0  0  3  0  0  0  0  0  0
  190.6880  177.1060  147.9100 O   0  0  0  0  0  1  0  0  0  0  0  0
  189.5270  177.7350  144.5740 C   0  0  0  0  0  0  0  0  0  0  0  0
  190.2010  177.5610  145.6750 N   0  0  0  0  0  0  0  0  0  0  0  0
  186.1570  177.3560  142.8030 C   0  0  0  0  0  2  0  0  0  0  0  0
  187.0990  177.9590  145.6690 C   0  0  0  0  0  0  0  0  0  0  0  0
  189.3370  174.4150  146.3710 C   0  0  0  0  0  2  0  0  0  0  0  0
  188.7360  175.1760  147.2770 C   0  0  0  0  0  3  0  0  0  0  0  0
  191.7700  173.4710  140.1200 C   0  0  1  0  0  3  0  0  0  0  0  0
  194.7380  176.3190  145.1570 C   0  0  0  0  0  3  0  0  0  0  0  0
  194.3310  175.6310  142.8640 C   0  0  0  0  0  0  0  0  0  0  0  0
  194.7670  175.5250  141.4240 C   0  0  0  0  0  2  0  0  0  0  0  0
  193.4540  175.9010  145.5160 C   0  0  0  0  0  3  0  0  0  0  0  0
  196.5520  176.6660  143.4940 C   0  0  0  0  0  1  0  0  0  0  0  0
  192.1630  174.6310  142.2620 N   0  0  0  0  0  2  0  0  0  0  0  0
  195.1800  176.1940  143.8360 C   0  0  0  0  0  0  0  0  0  0  0  0
  192.6020  175.3540  144.5550 C   0  0  0  0  0  3  0  0  0  0  0  0
  193.0310  175.2260  143.2320 C   0  0  0  0  0  0  0  0  0  0  0  0
  194.0390  174.3970  140.6960 C   0  0  0  0  0  2  0  0  0  0  0  0
  192.5290  174.5800  140.8470 C   0  0  1  0  0  3  0  0  0  0  0  0
  192.6600  172.3630  139.8010 N   0  0  0  0  0  2  0  0  0  0  0  0
  192.3200  171.2590  140.6860 C   0  0  0  0  0  2  0  0  0  0  0  0
  193.2830  169.6510  142.3780 C   0  0  2  0  0  0  0  0  0  0  0  0
  193.6700  169.1850  140.9930 C   0  0  0  0  0  2  0  0  0  0  0  0
  191.9450  169.4470  142.7350 O   0  0  0  0  0  1  0  0  0  0  0  0
  193.5870  170.6800  141.3020 C   0  0  1  0  0  3  0  0  0  0  0  0
  192.4780  171.9180  144.6380 O   0  0  0  0  0  1  0  0  0  0  0  0
  194.3110  169.5030  143.4110 N   0  0  1  0  0  0  0  0  0  0  0  0
  195.5590  170.1640  142.9800 C   0  0  0  0  0  2  0  0  0  0  0  0
  196.0010  171.3190  143.8780 C   0  0  0  0  0  2  0  0  0  0  0  0
  193.7470  171.4350  144.9500 C   0  0  2  0  0  3  0  0  0  0  0  0
  194.8060  172.2060  144.1670 C   0  0  0  0  0  2  0  0  0  0  0  0
  193.8060  169.9120  144.7370 C   0  0  0  0  0  2  0  0  0  0  0  0
  3  2  1  1  0  0  0
  3  4  1  0  0  0  0
  3  1  1  0  0  0  0
  5  4  1  0  0  0  0
  5 10  1  0  0  0  0
  6 24  2  0  0  0  0
  6  7  1  0  0  0  0
  7 14  2  0  0  0  0
  8 23  1  0  0  0  0
  9 12  1  1  0  0  0
  9 15  1  0  0  0  0
 10  8  1  0  0  0  0
 10  9  1  0  0  0  0
 11 16  1  0  0  0  0
 11 18  2  0  0  0  0
 12 17  1  0  0  0  0
 13 16  1  0  0  0  0
 13 20  1  1  0  0  0
 14 18  1  0  0  0  0
 15 23  1  6  0  0  0
 15 19  1  0  0  0  0
 16 26  1  0  0  0  0
 17 21  1  0  0  0  0
 19 21  1  1  0  0  0
 19 24  1  0  0  0  0
 21 22  2  0  0  0  0
 22 13  1  0  0  0  0
 24 11  1  0  0  0  0
 25 26  2  0  0  0  0
 27 39  1  1  0  0  0
 27  1  1  0  0  0  0
 28 31  1  0  0  0  0
 29 36  2  0  0  0  0
 29 34  1  0  0  0  0
 30 29  1  0  0  0  0
 32 34  1  0  0  0  0
 33 36  1  0  0  0  0
 34 28  2  0  0  0  0
 35 31  2  0  0  0  0
 36 35  1  0  0  0  0
 37 38  1  0  0  0  0
 37 30  1  0  0  0  0
 38 27  1  1  0  0  0
 38 33  1  0  0  0  0
 39 40  1  0  0  0  0
 41 43  1  1  0  0  0
 41 46  1  0  0  0  0
 42 44  1  0  0  0  0
 42 41  1  0  0  0  0
 44 40  1  6  0  0  0
 44 41  1  0  0  0  0
 46 47  1  6  0  0  0
 46 51  1  0  0  0  0
 47 48  1  0  0  0  0
 48 50  1  0  0  0  0
 49 45  1  6  0  0  0
 50 49  1  0  0  0  0
 51 49  1  0  0  0  0
M  END
>  <MODEL>
3

>  <REMARK>
 VINA RESULT:      -8.2      2.551      8.772
  Name = 
  11 active torsions:
  status: ('A' for Active; 'I' for Inactive)
    1  A    between atoms: C_2  and  N_16
    2  A    between atoms: C_3  and  N_11
    3  A    between atoms: C_3  and  S_45
    4  A    between atoms: C_3  and  C_49
    5  A    between atoms: N_10  and  C_27
    6  A    between atoms: N_11  and  C_42
    7  A    between atoms: C_23  and  C_42
    8  A    between atoms: C_24  and  N_33
    9  A    between atoms: C_27  and  C_43
   10  A    between atoms: C_35  and  C_43
   11  A    between atoms: C_35  and  S_45
                            x       y       z     vdW  Elec       q    Type
                         _______ _______ _______ _____ _____    ______ ____

>  <TORSDO>
F 11

$$$$
=
 OpenBabel11042413553D

 51 58  0  0  1  0  0  0  0  0999 V2000
  191.2480  176.5220  146.7340 S   0  0  0  0  0  0  0  0  0  0  0  0
  192.7190  177.1460  144.5270 C   0  0  0  0  0  1  0  0  0  0  0  0
  192.4770  176.0080  145.5010 C   0  0  1  0  0  3  0  0  0  0  0  0
  193.7670  175.6450  146.2110 C   0  0  0  0  0  2  0  0  0  0  0  0
  194.9580  176.2480  145.4870 C   0  0  0  0  0  2  0  0  0  0  0  0
  196.5020  171.2590  141.6540 C   0  0  0  0  0  3  0  0  0  0  0  0
  195.9850  170.1210  141.0300 C   0  0  0  0  0  3  0  0  0  0  0  0
  195.0540  173.9530  145.0460 C   0  0  0  0  0  2  0  0  0  0  0  0
  196.1310  175.4490  143.6140 C   0  0  1  0  0  3  0  0  0  0  0  0
  195.8310  175.1850  145.0190 N   0  0  0  0  0  0  0  0  0  0  0  0
  195.9440  172.5910  139.7120 C   0  0  0  0  0  0  0  0  0  0  0  0
  197.6000  175.8610  143.4750 C   0  0  0  0  0  2  0  0  0  0  0  0
  197.5040  174.2360  138.8440 C   0  0  1  0  0  3  0  0  0  0  0  0
  195.4370  170.2170  139.7510 C   0  0  0  0  0  3  0  0  0  0  0  0
  195.7770  174.1930  142.7930 C   0  0  1  0  0  3  0  0  0  0  0  0
  196.1280  173.7750  138.9450 N   0  0  0  0  0  0  0  0  0  0  0  0
  197.9410  175.9530  142.0980 O   0  0  0  0  0  0  0  0  0  0  0  0
  195.4270  171.4450  139.0900 C   0  0  0  0  0  3  0  0  0  0  0  0
  196.8890  173.7200  141.8280 C   0  0  2  0  0  3  0  0  0  0  0  0
  197.7220  174.8860  137.6280 O   0  0  0  0  0  1  0  0  0  0  0  0
  197.5900  174.9320  141.2130 C   0  0  0  0  0  0  0  0  0  0  0  0
  197.8170  175.1270  139.9460 N   0  0  0  0  0  0  0  0  0  0  0  0
  195.4390  173.1520  143.8290 C   0  0  0  0  0  2  0  0  0  0  0  0
  196.4880  172.5050  141.0100 C   0  0  0  0  0  0  0  0  0  0  0  0
  194.2530  175.2910  139.1860 C   0  0  0  0  0  2  0  0  0  0  0  0
  195.0380  174.5490  138.4150 C   0  0  0  0  0  3  0  0  0  0  0  0
  190.0840  175.1990  146.2710 C   0  0  1  0  0  3  0  0  0  0  0  0
  184.7970  178.9850  146.1570 C   0  0  0  0  0  3  0  0  0  0  0  0
  186.7840  177.8470  145.3470 C   0  0  0  0  0  0  0  0  0  0  0  0
  187.8150  177.6010  144.2750 C   0  0  0  0  0  2  0  0  0  0  0  0
  184.8240  178.2140  147.3220 C   0  0  0  0  0  3  0  0  0  0  0  0
  185.6910  179.6370  143.9310 C   0  0  0  0  0  1  0  0  0  0  0  0
  187.8340  176.1020  146.7310 N   0  0  0  0  0  2  0  0  0  0  0  0
  185.7670  178.8030  145.1650 C   0  0  0  0  0  0  0  0  0  0  0  0
  185.8230  177.2550  147.5030 C   0  0  0  0  0  3  0  0  0  0  0  0
  186.7950  177.0630  146.5190 C   0  0  0  0  0  0  0  0  0  0  0  0
  189.1110  177.0400  144.8570 C   0  0  0  0  0  2  0  0  0  0  0  0
  188.8040  175.7910  145.6810 C   0  0  1  0  0  3  0  0  0  0  0  0
  190.7180  174.2960  145.3200 N   0  0  0  0  0  2  0  0  0  0  0  0
  189.6600  173.6480  144.5590 C   0  0  0  0  0  2  0  0  0  0  0  0
  189.2670  172.6770  142.2620 C   0  0  2  0  0  0  0  0  0  0  0  0
  188.6390  174.0500  142.3210 C   0  0  0  0  0  2  0  0  0  0  0  0
  188.5900  171.6700  142.9590 O   0  0  0  0  0  1  0  0  0  0  0  0
  189.9430  173.7730  143.0680 C   0  0  1  0  0  3  0  0  0  0  0  0
  191.5550  170.4640  143.1380 O   0  0  0  0  0  1  0  0  0  0  0  0
  189.9270  172.3290  141.0010 N   0  0  1  0  0  0  0  0  0  0  0  0
  190.8840  173.3880  140.6240 C   0  0  0  0  0  2  0  0  0  0  0  0
  192.3390  172.9230  140.5520 C   0  0  0  0  0  2  0  0  0  0  0  0
  191.8030  170.8370  141.8190 C   0  0  2  0  0  3  0  0  0  0  0  0
  192.6570  172.1010  141.7850 C   0  0  0  0  0  2  0  0  0  0  0  0
  190.4820  170.9620  141.0410 C   0  0  0  0  0  2  0  0  0  0  0  0
  3  2  1  6  0  0  0
  3  4  1  0  0  0  0
  3  1  1  0  0  0  0
  5  4  1  0  0  0  0
  7  6  1  0  0  0  0
  9 12  1  1  0  0  0
  9 10  1  0  0  0  0
 10  8  1  0  0  0  0
 10  5  1  0  0  0  0
 11 24  1  0  0  0  0
 13 20  1  6  0  0  0
 13 16  1  0  0  0  0
 13 22  1  0  0  0  0
 14  7  2  0  0  0  0
 15  9  1  0  0  0  0
 15 23  1  1  0  0  0
 16 11  1  0  0  0  0
 17 12  1  0  0  0  0
 18 11  2  0  0  0  0
 18 14  1  0  0  0  0
 19 24  1  6  0  0  0
 19 15  1  0  0  0  0
 21 19  1  0  0  0  0
 21 17  1  0  0  0  0
 22 21  2  0  0  0  0
 23  8  1  0  0  0  0
 24  6  2  0  0  0  0
 26 16  1  0  0  0  0
 26 25  2  0  0  0  0
 27 39  1  6  0  0  0
 27  1  1  0  0  0  0
 28 31  1  0  0  0  0
 29 36  2  0  0  0  0
 30 37  1  0  0  0  0
 30 29  1  0  0  0  0
 31 35  2  0  0  0  0
 32 34  1  0  0  0  0
 34 29  1  0  0  0  0
 34 28  2  0  0  0  0
 36 33  1  0  0  0  0
 36 35  1  0  0  0  0
 37 38  1  0  0  0  0
 38 27  1  1  0  0  0
 38 33  1  0  0  0  0
 40 39  1  0  0  0  0
 41 42  1  0  0  0  0
 41 43  1  1  0  0  0
 41 44  1  0  0  0  0
 42 44  1  0  0  0  0
 44 40  1  1  0  0  0
 46 47  1  1  0  0  0
 46 51  1  0  0  0  0
 46 41  1  0  0  0  0
 48 47  1  0  0  0  0
 48 50  1  0  0  0  0
 49 45  1  1  0  0  0
 50 49  1  0  0  0  0
 51 49  1  0  0  0  0
M  END
>  <MODEL>
4

>  <REMARK>
 VINA RESULT:      -8.2      2.681      3.916
  Name = 
  11 active torsions:
  status: ('A' for Active; 'I' for Inactive)
    1  A    between atoms: C_2  and  N_16
    2  A    between atoms: C_3  and  N_11
    3  A    between atoms: C_3  and  S_45
    4  A    between atoms: C_3  and  C_49
    5  A    between atoms: N_10  and  C_27
    6  A    between atoms: N_11  and  C_42
    7  A    between atoms: C_23  and  C_42
    8  A    between atoms: C_24  and  N_33
    9  A    between atoms: C_27  and  C_43
   10  A    between atoms: C_35  and  C_43
   11  A    between atoms: C_35  and  S_45
                            x       y       z     vdW  Elec       q    Type
                         _______ _______ _______ _____ _____    ______ ____

>  <TORSDO>
F 11

$$$$
=
 OpenBabel11042413553D

 51 58  0  0  1  0  0  0  0  0999 V2000
  189.7320  172.8090  140.8690 S   0  0  0  0  0  0  0  0  0  0  0  0
  188.3400  173.5760  138.6560 C   0  0  0  0  0  1  0  0  0  0  0  0
  189.0370  174.1570  139.8730 C   0  0  1  0  0  3  0  0  0  0  0  0
  188.0490  174.9370  140.7180 C   0  0  0  0  0  2  0  0  0  0  0  0
  187.5210  176.1340  139.9480 C   0  0  0  0  0  2  0  0  0  0  0  0
  185.8130  178.7620  145.6180 C   0  0  0  0  0  3  0  0  0  0  0  0
  184.8840  178.6810  146.6580 C   0  0  0  0  0  3  0  0  0  0  0  0
  185.9450  177.1480  141.3470 C   0  0  0  0  0  2  0  0  0  0  0  0
  188.1770  177.0300  142.0190 C   0  0  1  0  0  3  0  0  0  0  0  0
  187.3150  177.2470  140.8600 N   0  0  0  0  0  0  0  0  0  0  0  0
  187.2530  177.1930  146.7680 C   0  0  0  0  0  0  0  0  0  0  0  0
  189.3080  178.0640  142.0130 C   0  0  0  0  0  2  0  0  0  0  0  0
  189.6500  177.5600  146.8830 C   0  0  1  0  0  3  0  0  0  0  0  0
  185.1320  177.8490  147.7500 C   0  0  0  0  0  3  0  0  0  0  0  0
  187.3110  177.0930  143.2930 C   0  0  1  0  0  3  0  0  0  0  0  0
  188.5430  176.6190  146.9490 N   0  0  0  0  0  0  0  0  0  0  0  0
  190.0480  177.9690  143.2230 O   0  0  0  0  0  0  0  0  0  0  0  0
  186.3170  177.1160  147.8100 C   0  0  0  0  0  3  0  0  0  0  0  0
  187.8650  178.0170  144.4030 C   0  0  2  0  0  3  0  0  0  0  0  0
  190.7030  177.1460  147.7020 O   0  0  0  0  0  1  0  0  0  0  0  0
  189.3890  177.9110  144.4520 C   0  0  0  0  0  0  0  0  0  0  0  0
  190.1120  177.6990  145.5140 N   0  0  0  0  0  0  0  0  0  0  0  0
  185.9570  177.5380  142.8030 C   0  0  0  0  0  2  0  0  0  0  0  0
  187.0050  178.0220  145.6550 C   0  0  0  0  0  0  0  0  0  0  0  0
  189.3060  174.4950  146.0690 C   0  0  0  0  0  2  0  0  0  0  0  0
  188.7690  175.2030  147.0530 C   0  0  0  0  0  3  0  0  0  0  0  0
  191.4020  173.5390  140.8730 C   0  0  1  0  0  3  0  0  0  0  0  0
  195.5340  174.4740  145.8070 C   0  0  0  0  0  3  0  0  0  0  0  0
  193.6680  174.8880  144.3080 C   0  0  0  0  0  0  0  0  0  0  0  0
  192.5560  175.7710  143.8030 C   0  0  0  0  0  2  0  0  0  0  0  0
  195.6700  173.1830  145.2910 C   0  0  0  0  0  3  0  0  0  0  0  0
  194.4160  176.6910  145.9170 C   0  0  0  0  0  1  0  0  0  0  0  0
  192.9460  173.1220  142.7510 N   0  0  0  0  0  2  0  0  0  0  0  0
  194.5350  175.3270  145.3270 C   0  0  0  0  0  0  0  0  0  0  0  0
  194.8070  172.7360  144.2880 C   0  0  0  0  0  3  0  0  0  0  0  0
  193.8030  173.5770  143.8030 C   0  0  0  0  0  0  0  0  0  0  0  0
  192.1570  175.4140  142.3730 C   0  0  0  0  0  2  0  0  0  0  0  0
  191.8160  173.9270  142.2920 C   0  0  1  0  0  3  0  0  0  0  0  0
  192.3530  172.5960  140.3000 N   0  0  0  0  0  2  0  0  0  0  0  0
  192.8510  173.1750  139.0610 C   0  0  0  0  0  2  0  0  0  0  0  0
  195.0050  174.2910  138.3620 C   0  0  2  0  0  0  0  0  0  0  0  0
  193.8790  175.2920  138.2380 C   0  0  0  0  0  2  0  0  0  0  0  0
  195.0390  173.2920  137.3820 O   0  0  0  0  0  1  0  0  0  0  0  0
  193.8690  174.2650  139.3700 C   0  0  1  0  0  3  0  0  0  0  0  0
  196.4820  171.6670  139.7150 O   0  0  0  0  0  1  0  0  0  0  0  0
  196.2760  174.8190  138.8640 N   0  0  1  0  0  0  0  0  0  0  0  0
  196.0570  175.5350  140.1360 C   0  0  0  0  0  2  0  0  0  0  0  0
  196.7890  174.9290  141.3330 C   0  0  0  0  0  2  0  0  0  0  0  0
  197.2000  172.8020  140.0870 C   0  0  2  0  0  3  0  0  0  0  0  0
  196.5790  173.4280  141.3320 C   0  0  0  0  0  2  0  0  0  0  0  0
  197.3170  173.7740  138.9000 C   0  0  0  0  0  2  0  0  0  0  0  0
  1 27  1  0  0  0  0
  3  2  1  6  0  0  0
  3  4  1  0  0  0  0
  3  1  1  0  0  0  0
  5  4  1  0  0  0  0
  5 10  1  0  0  0  0
  6 24  2  0  0  0  0
  6  7  1  0  0  0  0
  7 14  2  0  0  0  0
  8 23  1  0  0  0  0
  9 12  1  1  0  0  0
  9 15  1  0  0  0  0
 10  8  1  0  0  0  0
 10  9  1  0  0  0  0
 11 16  1  0  0  0  0
 11 18  2  0  0  0  0
 12 17  1  0  0  0  0
 13 16  1  0  0  0  0
 13 20  1  1  0  0  0
 14 18  1  0  0  0  0
 15 23  1  6  0  0  0
 15 19  1  0  0  0  0
 16 26  1  0  0  0  0
 17 21  1  0  0  0  0
 19 21  1  1  0  0  0
 19 24  1  0  0  0  0
 21 22  2  0  0  0  0
 22 13  1  0  0  0  0
 24 11  1  0  0  0  0
 25 26  2  0  0  0  0
 27 39  1  1  0  0  0
 29 34  2  0  0  0  0
 30 29  1  0  0  0  0
 31 28  2  0  0  0  0
 33 36  1  0  0  0  0
 34 28  1  0  0  0  0
 34 32  1  0  0  0  0
 35 31  1  0  0  0  0
 36 35  2  0  0  0  0
 36 29  1  0  0  0  0
 37 30  1  0  0  0  0
 38 27  1  6  0  0  0
 38 37  1  0  0  0  0
 38 33  1  0  0  0  0
 40 39  1  0  0  0  0
 41 43  1  6  0  0  0
 41 46  1  0  0  0  0
 41 44  1  0  0  0  0
 42 41  1  0  0  0  0
 42 44  1  0  0  0  0
 44 40  1  6  0  0  0
 46 51  1  1  0  0  0
 46 47  1  0  0  0  0
 47 48  1  0  0  0  0
 49 45  1  6  0  0  0
 49 50  1  0  0  0  0
 50 48  1  0  0  0  0
 51 49  1  0  0  0  0
M  END
>  <MODEL>
5

>  <REMARK>
 VINA RESULT:      -8.1      2.841      8.857
  Name = 
  11 active torsions:
  status: ('A' for Active; 'I' for Inactive)
    1  A    between atoms: C_2  and  N_16
    2  A    between atoms: C_3  and  N_11
    3  A    between atoms: C_3  and  S_45
    4  A    between atoms: C_3  and  C_49
    5  A    between atoms: N_10  and  C_27
    6  A    between atoms: N_11  and  C_42
    7  A    between atoms: C_23  and  C_42
    8  A    between atoms: C_24  and  N_33
    9  A    between atoms: C_27  and  C_43
   10  A    between atoms: C_35  and  C_43
   11  A    between atoms: C_35  and  S_45
                            x       y       z     vdW  Elec       q    Type
                         _______ _______ _______ _____ _____    ______ ____

>  <TORSDO>
F 11

$$$$
=
 OpenBabel11042413553D

 51 58  0  0  1  0  0  0  0  0999 V2000
  190.5260  173.6120  144.4190 S   0  0  0  0  0  0  0  0  0  0  0  0
  191.2790  174.7920  142.0810 C   0  0  0  0  0  1  0  0  0  0  0  0
  190.1650  173.9470  142.6720 C   0  0  1  0  0  3  0  0  0  0  0  0
  190.0580  172.6300  141.9280 C   0  0  0  0  0  2  0  0  0  0  0  0
  188.6440  172.4240  141.4150 C   0  0  0  0  0  2  0  0  0  0  0  0
  190.2550  174.8320  135.6200 C   0  0  0  0  0  3  0  0  0  0  0  0
  190.4180  176.0210  134.9050 C   0  0  0  0  0  3  0  0  0  0  0  0
  188.1820  173.7480  139.5440 C   0  0  0  0  0  2  0  0  0  0  0  0
  190.0380  172.3320  139.5250 C   0  0  1  0  0  3  0  0  0  0  0  0
  188.6470  172.4320  139.9620 N   0  0  0  0  0  0  0  0  0  0  0  0
  192.5730  174.9150  136.3100 C   0  0  0  0  0  0  0  0  0  0  0  0
  190.2750  170.9590  138.8910 C   0  0  0  0  0  2  0  0  0  0  0  0
  193.9480  172.9150  136.2880 C   0  0  1  0  0  3  0  0  0  0  0  0
  191.6560  176.6650  134.8990 C   0  0  0  0  0  3  0  0  0  0  0  0
  190.3340  173.5000  138.5620 C   0  0  1  0  0  3  0  0  0  0  0  0
  193.7250  174.2510  136.8170 N   0  0  0  0  0  0  0  0  0  0  0  0
  191.5740  170.9180  138.3110 O   0  0  0  0  0  0  0  0  0  0  0  0
  192.7320  176.1080  135.5900 C   0  0  0  0  0  3  0  0  0  0  0  0
  191.0120  173.0840  137.2360 C   0  0  2  0  0  3  0  0  0  0  0  0
  195.3120  172.6210  136.2420 O   0  0  0  0  0  1  0  0  0  0  0  0
  192.0170  171.9630  137.4980 C   0  0  0  0  0  0  0  0  0  0  0  0
  193.2560  171.9300  137.0990 N   0  0  0  0  0  0  0  0  0  0  0  0
  188.9920  174.1490  138.3380 C   0  0  0  0  0  2  0  0  0  0  0  0
  191.3230  174.2650  136.3320 C   0  0  0  0  0  0  0  0  0  0  0  0
  194.0560  175.0660  139.0750 C   0  0  0  0  0  2  0  0  0  0  0  0
  194.5420  174.7850  137.8730 C   0  0  0  0  0  3  0  0  0  0  0  0
  190.4900  175.3770  144.8680 C   0  0  1  0  0  3  0  0  0  0  0  0
  185.2170  178.8750  146.3690 C   0  0  0  0  0  3  0  0  0  0  0  0
  186.9930  177.9280  145.0100 C   0  0  0  0  0  0  0  0  0  0  0  0
  187.7540  177.8430  143.7120 C   0  0  0  0  0  2  0  0  0  0  0  0
  185.5340  177.9960  147.4070 C   0  0  0  0  0  3  0  0  0  0  0  0
  185.5520  179.7900  144.0820 C   0  0  0  0  0  1  0  0  0  0  0  0
  188.3830  176.1120  145.9220 N   0  0  0  0  0  2  0  0  0  0  0  0
  185.9350  178.8430  145.1700 C   0  0  0  0  0  0  0  0  0  0  0  0
  186.5740  177.0770  147.2520 C   0  0  0  0  0  3  0  0  0  0  0  0
  187.2970  177.0330  146.0580 C   0  0  0  0  0  0  0  0  0  0  0  0
  189.1650  177.2960  143.9190 C   0  0  0  0  0  2  0  0  0  0  0  0
  189.0920  175.9570  144.6530 C   0  0  1  0  0  3  0  0  0  0  0  0
  190.9060  175.5420  146.2540 N   0  0  0  0  0  2  0  0  0  0  0  0
  192.0700  176.4140  146.2610 C   0  0  0  0  0  2  0  0  0  0  0  0
  194.1700  175.6900  145.0600 C   0  0  2  0  0  0  0  0  0  0  0  0
  194.5620  176.5020  146.2730 C   0  0  0  0  0  2  0  0  0  0  0  0
  193.6380  176.4180  143.9890 O   0  0  0  0  0  1  0  0  0  0  0  0
  193.3430  175.5810  146.3290 C   0  0  1  0  0  3  0  0  0  0  0  0
  196.7870  176.9900  143.5240 O   0  0  0  0  0  1  0  0  0  0  0  0
  195.0190  174.5330  144.7640 N   0  0  1  0  0  0  0  0  0  0  0  0
  194.4990  173.8150  143.5830 C   0  0  0  0  0  2  0  0  0  0  0  0
  195.4610  173.7780  142.3950 C   0  0  0  0  0  2  0  0  0  0  0  0
  196.8510  175.6060  143.3810 C   0  0  2  0  0  3  0  0  0  0  0  0
  196.0270  175.1670  142.1740 C   0  0  0  0  0  2  0  0  0  0  0  0
  196.4430  174.9130  144.6930 C   0  0  0  0  0  2  0  0  0  0  0  0
  3  2  1  6  0  0  0
  3  1  1  0  0  0  0
  4  3  1  0  0  0  0
  5  4  1  0  0  0  0
  6 24  1  0  0  0  0
  7  6  2  0  0  0  0
  8 10  1  0  0  0  0
  9 12  1  6  0  0  0
  9 10  1  0  0  0  0
 10  5  1  0  0  0  0
 11 24  2  0  0  0  0
 11 16  1  0  0  0  0
 13 20  1  1  0  0  0
 13 16  1  0  0  0  0
 13 22  1  0  0  0  0
 14  7  1  0  0  0  0
 14 18  2  0  0  0  0
 15 23  1  6  0  0  0
 15  9  1  0  0  0  0
 16 26  1  0  0  0  0
 17 12  1  0  0  0  0
 18 11  1  0  0  0  0
 19 24  1  1  0  0  0
 19 21  1  0  0  0  0
 19 15  1  0  0  0  0
 21 17  1  0  0  0  0
 22 21  2  0  0  0  0
 23  8  1  0  0  0  0
 26 25  2  0  0  0  0
 27  1  1  1  0  0  0
 27 39  1  0  0  0  0
 28 31  1  0  0  0  0
 29 34  1  0  0  0  0
 29 36  2  0  0  0  0
 30 37  1  0  0  0  0
 30 29  1  0  0  0  0
 32 34  1  0  0  0  0
 33 36  1  0  0  0  0
 34 28  2  0  0  0  0
 35 31  2  0  0  0  0
 36 35  1  0  0  0  0
 37 38  1  0  0  0  0
 38 27  1  1  0  0  0
 38 33  1  0  0  0  0
 39 40  1  0  0  0  0
 41 43  1  6  0  0  0
 41 42  1  0  0  0  0
 41 44  1  0  0  0  0
 42 44  1  0  0  0  0
 44 40  1  6  0  0  0
 46 47  1  6  0  0  0
 46 41  1  0  0  0  0
 48 47  1  0  0  0  0
 49 45  1  1  0  0  0
 49 51  1  0  0  0  0
 50 48  1  0  0  0  0
 50 49  1  0  0  0  0
 51 46  1  0  0  0  0
M  END
>  <MODEL>
6

>  <REMARK>
 VINA RESULT:      -8.0      2.923      7.496
  Name = 
  11 active torsions:
  status: ('A' for Active; 'I' for Inactive)
    1  A    between atoms: C_2  and  N_16
    2  A    between atoms: C_3  and  N_11
    3  A    between atoms: C_3  and  S_45
    4  A    between atoms: C_3  and  C_49
    5  A    between atoms: N_10  and  C_27
    6  A    between atoms: N_11  and  C_42
    7  A    between atoms: C_23  and  C_42
    8  A    between atoms: C_24  and  N_33
    9  A    between atoms: C_27  and  C_43
   10  A    between atoms: C_35  and  C_43
   11  A    between atoms: C_35  and  S_45
                            x       y       z     vdW  Elec       q    Type
                         _______ _______ _______ _____ _____    ______ ____

>  <TORSDO>
F 11

$$$$
=
 OpenBabel11042413553D

 51 58  0  0  1  0  0  0  0  0999 V2000
  189.6870  173.8270  145.8140 S   0  0  0  0  0  0  0  0  0  0  0  0
  191.2640  172.2110  144.2880 C   0  0  0  0  0  1  0  0  0  0  0  0
  190.4650  173.4990  144.2070 C   0  0  1  0  0  3  0  0  0  0  0  0
  189.3830  173.3750  143.1510 C   0  0  0  0  0  2  0  0  0  0  0  0
  189.4610  172.0220  142.4680 C   0  0  0  0  0  2  0  0  0  0  0  0
  192.9990  174.1760  137.4870 C   0  0  0  0  0  3  0  0  0  0  0  0
  193.7680  175.2530  137.0400 C   0  0  0  0  0  3  0  0  0  0  0  0
  189.9500  173.6320  140.8450 C   0  0  0  0  0  2  0  0  0  0  0  0
  191.0310  171.5640  140.7810 C   0  0  1  0  0  3  0  0  0  0  0  0
  189.7470  172.2050  141.0550 N   0  0  0  0  0  0  0  0  0  0  0  0
  194.9670  173.1580  138.4580 C   0  0  0  0  0  0  0  0  0  0  0  0
  190.8040  170.3120  139.9280 C   0  0  0  0  0  2  0  0  0  0  0  0
  195.3820  170.7780  138.2190 C   0  0  1  0  0  3  0  0  0  0  0  0
  195.1360  175.2900  137.3090 C   0  0  0  0  0  3  0  0  0  0  0  0
  191.9580  172.5940  140.1040 C   0  0  1  0  0  3  0  0  0  0  0  0
  195.6260  172.0030  138.9650 N   0  0  0  0  0  0  0  0  0  0  0  0
  192.0570  169.7820  139.5140 O   0  0  0  0  0  0  0  0  0  0  0  0
  195.7360  174.2410  138.0060 C   0  0  0  0  0  3  0  0  0  0  0  0
  192.6480  172.0900  138.8160 C   0  0  2  0  0  3  0  0  0  0  0  0
  196.4870  169.9280  138.2840 O   0  0  0  0  0  1  0  0  0  0  0  0
  193.0360  170.6210  138.9780 C   0  0  0  0  0  0  0  0  0  0  0  0
  194.2060  170.1020  138.7340 N   0  0  0  0  0  0  0  0  0  0  0  0
  191.0690  173.7850  139.8470 C   0  0  0  0  0  2  0  0  0  0  0  0
  193.5820  173.1190  138.2010 C   0  0  0  0  0  0  0  0  0  0  0  0
  195.7900  171.8110  141.3750 C   0  0  0  0  0  2  0  0  0  0  0  0
  196.3700  171.9950  140.1950 C   0  0  0  0  0  3  0  0  0  0  0  0
  190.5010  175.4480  145.9880 C   0  0  1  0  0  3  0  0  0  0  0  0
  185.3740  178.8380  143.8650 C   0  0  0  0  0  3  0  0  0  0  0  0
  186.8810  177.7590  145.4340 C   0  0  0  0  0  0  0  0  0  0  0  0
  187.2230  177.3050  146.8300 C   0  0  0  0  0  2  0  0  0  0  0  0
  186.3130  178.6780  142.8440 C   0  0  0  0  0  3  0  0  0  0  0  0
  184.6260  178.5940  146.2230 C   0  0  0  0  0  1  0  0  0  0  0  0
  189.0750  176.9570  144.6550 N   0  0  0  0  0  2  0  0  0  0  0  0
  185.6520  178.3890  145.1600 C   0  0  0  0  0  0  0  0  0  0  0  0
  187.5390  178.0650  143.1110 C   0  0  0  0  0  3  0  0  0  0  0  0
  187.8300  177.6150  144.4000 C   0  0  0  0  0  0  0  0  0  0  0  0
  188.2340  176.1600  146.8190 C   0  0  0  0  0  2  0  0  0  0  0  0
  189.4640  176.5710  146.0110 C   0  0  1  0  0  3  0  0  0  0  0  0
  191.3060  175.4670  147.2020 N   0  0  0  0  0  2  0  0  0  0  0  0
  192.5670  176.1190  146.8810 C   0  0  0  0  0  2  0  0  0  0  0  0
  194.0110  175.7340  144.8460 C   0  0  2  0  0  0  0  0  0  0  0  0
  194.8930  175.7280  146.0730 C   0  0  0  0  0  2  0  0  0  0  0  0
  193.5350  176.9890  144.4460 O   0  0  0  0  0  1  0  0  0  0  0  0
  193.4800  175.1490  146.1430 C   0  0  1  0  0  3  0  0  0  0  0  0
  196.7740  176.9300  143.4920 O   0  0  0  0  0  1  0  0  0  0  0  0
  194.3510  174.7560  143.8100 N   0  0  1  0  0  0  0  0  0  0  0  0
  193.5020  174.9660  142.6200 C   0  0  0  0  0  2  0  0  0  0  0  0
  194.2760  175.3360  141.3540 C   0  0  0  0  0  2  0  0  0  0  0  0
  196.3170  175.8900  142.6850 C   0  0  2  0  0  3  0  0  0  0  0  0
  195.2860  176.4150  141.6900 C   0  0  0  0  0  2  0  0  0  0  0  0
  195.8040  174.7270  143.5510 C   0  0  0  0  0  2  0  0  0  0  0  0
  3  2  1  1  0  0  0
  3  1  1  0  0  0  0
  4  3  1  0  0  0  0
  5  4  1  0  0  0  0
  6 24  1  0  0  0  0
  7 14  1  0  0  0  0
  7  6  2  0  0  0  0
  8 10  1  0  0  0  0
  9 12  1  6  0  0  0
  9 10  1  0  0  0  0
 10  5  1  0  0  0  0
 11 16  1  0  0  0  0
 13 20  1  1  0  0  0
 13 22  1  0  0  0  0
 13 16  1  0  0  0  0
 14 18  2  0  0  0  0
 15 23  1  6  0  0  0
 15  9  1  0  0  0  0
 16 26  1  0  0  0  0
 17 12  1  0  0  0  0
 18 11  1  0  0  0  0
 19 24  1  1  0  0  0
 19 21  1  0  0  0  0
 19 15  1  0  0  0  0
 21 17  1  0  0  0  0
 22 21  2  0  0  0  0
 23  8  1  0  0  0  0
 24 11  2  0  0  0  0
 26 25  2  0  0  0  0
 27  1  1  1  0  0  0
 27 39  1  0  0  0  0
 28 34  1  0  0  0  0
 29 30  1  0  0  0  0
 31 35  1  0  0  0  0
 31 28  2  0  0  0  0
 33 38  1  0  0  0  0
 34 29  2  0  0  0  0
 34 32  1  0  0  0  0
 35 36  2  0  0  0  0
 36 33  1  0  0  0  0
 36 29  1  0  0  0  0
 37 30  1  0  0  0  0
 38 27  1  6  0  0  0
 38 37  1  0  0  0  0
 40 39  1  0  0  0  0
 41 43  1  6  0  0  0
 41 42  1  0  0  0  0
 41 44  1  0  0  0  0
 42 44  1  0  0  0  0
 44 40  1  1  0  0  0
 46 47  1  6  0  0  0
 46 41  1  0  0  0  0
 48 50  1  0  0  0  0
 48 47  1  0  0  0  0
 49 45  1  1  0  0  0
 49 51  1  0  0  0  0
 50 49  1  0  0  0  0
 51 46  1  0  0  0  0
M  END
>  <MODEL>
7

>  <REMARK>
 VINA RESULT:      -8.0      2.831      6.297
  Name = 
  11 active torsions:
  status: ('A' for Active; 'I' for Inactive)
    1  A    between atoms: C_2  and  N_16
    2  A    between atoms: C_3  and  N_11
    3  A    between atoms: C_3  and  S_45
    4  A    between atoms: C_3  and  C_49
    5  A    between atoms: N_10  and  C_27
    6  A    between atoms: N_11  and  C_42
    7  A    between atoms: C_23  and  C_42
    8  A    between atoms: C_24  and  N_33
    9  A    between atoms: C_27  and  C_43
   10  A    between atoms: C_35  and  C_43
   11  A    between atoms: C_35  and  S_45
                            x       y       z     vdW  Elec       q    Type
                         _______ _______ _______ _____ _____    ______ ____

>  <TORSDO>
F 11

$$$$
=
 OpenBabel11042413553D

 51 58  0  0  1  0  0  0  0  0999 V2000
  191.2620  174.5150  145.1450 S   0  0  0  0  0  0  0  0  0  0  0  0
  192.0480  176.3510  147.0000 C   0  0  0  0  0  1  0  0  0  0  0  0
  191.8250  176.2030  145.5060 C   0  0  1  0  0  3  0  0  0  0  0  0
  193.1180  176.4630  144.7570 C   0  0  0  0  0  2  0  0  0  0  0  0
  194.2430  176.7650  145.7300 C   0  0  0  0  0  2  0  0  0  0  0  0
  197.3310  171.9330  142.7150 C   0  0  0  0  0  3  0  0  0  0  0  0
  197.2400  170.5800  142.3780 C   0  0  0  0  0  3  0  0  0  0  0  0
  195.1560  174.6120  145.7070 C   0  0  0  0  0  2  0  0  0  0  0  0
  195.5370  176.0450  143.9050 C   0  0  1  0  0  3  0  0  0  0  0  0
  195.4230  176.0010  145.3610 N   0  0  0  0  0  0  0  0  0  0  0  0
  196.2300  172.5340  140.6450 C   0  0  0  0  0  0  0  0  0  0  0  0
  196.7420  176.9050  143.5130 C   0  0  0  0  0  2  0  0  0  0  0  0
  197.0300  174.3930  139.3060 C   0  0  1  0  0  3  0  0  0  0  0  0
  196.6350  170.2010  141.1800 C   0  0  0  0  0  3  0  0  0  0  0  0
  195.6310  174.5990  143.3780 C   0  0  1  0  0  3  0  0  0  0  0  0
  195.9270  173.5130  139.6570 N   0  0  0  0  0  0  0  0  0  0  0  0
  196.9600  176.8120  142.1110 O   0  0  0  0  0  0  0  0  0  0  0  0
  196.1420  171.1740  140.3120 C   0  0  0  0  0  3  0  0  0  0  0  0
  196.7920  174.3500  142.3860 C   0  0  2  0  0  3  0  0  0  0  0  0
  196.9350  174.8010  137.9740 O   0  0  0  0  0  1  0  0  0  0  0  0
  196.9670  175.5670  141.4780 C   0  0  0  0  0  0  0  0  0  0  0  0
  197.0460  175.5530  140.1780 N   0  0  0  0  0  0  0  0  0  0  0  0
  195.7510  173.7540  144.6200 C   0  0  0  0  0  2  0  0  0  0  0  0
  196.8280  172.9250  141.8600 C   0  0  0  0  0  0  0  0  0  0  0  0
  193.7460  174.5670  139.6890 C   0  0  0  0  0  2  0  0  0  0  0  0
  194.6050  173.7220  139.1330 C   0  0  0  0  0  3  0  0  0  0  0  0
  189.9000  175.0910  144.0810 C   0  0  1  0  0  3  0  0  0  0  0  0
  185.1640  179.4800  144.8560 C   0  0  0  0  0  3  0  0  0  0  0  0
  186.9200  177.9150  145.4600 C   0  0  0  0  0  0  0  0  0  0  0  0
  187.6950  177.1420  146.4970 C   0  0  0  0  0  2  0  0  0  0  0  0
  185.5580  179.4130  143.5170 C   0  0  0  0  0  3  0  0  0  0  0  0
  185.3980  178.8540  147.2500 C   0  0  0  0  0  1  0  0  0  0  0  0
  188.3980  177.0130  143.7090 N   0  0  0  0  0  2  0  0  0  0  0  0
  185.8420  178.7410  145.8310 C   0  0  0  0  0  0  0  0  0  0  0  0
  186.6330  178.6060  143.1430 C   0  0  0  0  0  3  0  0  0  0  0  0
  187.3200  177.8650  144.1080 C   0  0  0  0  0  0  0  0  0  0  0  0
  188.3580  175.9030  145.8980 C   0  0  0  0  0  2  0  0  0  0  0  0
  189.2130  176.3090  144.6980 C   0  0  1  0  0  3  0  0  0  0  0  0
  190.4100  175.4060  142.7540 N   0  0  0  0  0  2  0  0  0  0  0  0
  190.4900  174.1590  142.0080 C   0  0  0  0  0  2  0  0  0  0  0  0
  189.0520  172.6700  140.5640 C   0  0  2  0  0  0  0  0  0  0  0  0
  188.1680  173.3600  141.5780 C   0  0  0  0  0  2  0  0  0  0  0  0
  189.8610  171.6430  141.0630 O   0  0  0  0  0  1  0  0  0  0  0  0
  189.3680  174.0960  140.9810 C   0  0  1  0  0  3  0  0  0  0  0  0
  191.6700  172.0270  138.6590 O   0  0  0  0  0  1  0  0  0  0  0  0
  188.4860  172.5210  139.2210 N   0  0  1  0  0  0  0  0  0  0  0  0
  188.2060  173.8500  138.6410 C   0  0  0  0  0  2  0  0  0  0  0  0
  188.9980  174.1610  137.3710 C   0  0  0  0  0  2  0  0  0  0  0  0
  190.5860  172.2840  137.8230 C   0  0  2  0  0  3  0  0  0  0  0  0
  190.4510  173.7860  137.5900 C   0  0  0  0  0  2  0  0  0  0  0  0
  189.3110  171.6290  138.3830 C   0  0  0  0  0  2  0  0  0  0  0  0
  1  3  1  0  0  0  0
  3  2  1  1  0  0  0
  4  3  1  0  0  0  0
  4  5  1  0  0  0  0
  7  6  1  0  0  0  0
  9 12  1  1  0  0  0
  9 10  1  0  0  0  0
 10  8  1  0  0  0  0
 10  5  1  0  0  0  0
 11 24  1  0  0  0  0
 13 20  1  6  0  0  0
 13 16  1  0  0  0  0
 13 22  1  0  0  0  0
 14  7  2  0  0  0  0
 15  9  1  0  0  0  0
 15 23  1  1  0  0  0
 16 11  1  0  0  0  0
 17 12  1  0  0  0  0
 18 11  2  0  0  0  0
 18 14  1  0  0  0  0
 19 21  1  6  0  0  0
 19 15  1  0  0  0  0
 21 17  1  0  0  0  0
 22 21  2  0  0  0  0
 23  8  1  0  0  0  0
 24 19  1  0  0  0  0
 24  6  2  0  0  0  0
 26 16  1  0  0  0  0
 26 25  2  0  0  0  0
 27 39  1  6  0  0  0
 27  1  1  0  0  0  0
 28 34  1  0  0  0  0
 29 34  2  0  0  0  0
 29 30  1  0  0  0  0
 31 28  2  0  0  0  0
 33 36  1  0  0  0  0
 33 38  1  0  0  0  0
 34 32  1  0  0  0  0
 35 31  1  0  0  0  0
 35 36  2  0  0  0  0
 36 29  1  0  0  0  0
 37 30  1  0  0  0  0
 38 27  1  6  0  0  0
 38 37  1  0  0  0  0
 40 39  1  0  0  0  0
 41 44  1  0  0  0  0
 41 43  1  1  0  0  0
 41 42  1  0  0  0  0
 44 42  1  0  0  0  0
 44 40  1  1  0  0  0
 46 51  1  6  0  0  0
 46 41  1  0  0  0  0
 47 46  1  0  0  0  0
 48 50  1  0  0  0  0
 48 47  1  0  0  0  0
 49 51  1  0  0  0  0
 49 45  1  1  0  0  0
 50 49  1  0  0  0  0
M  END
>  <MODEL>
8

>  <REMARK>
 VINA RESULT:      -8.0      2.442      3.422
  Name = 
  11 active torsions:
  status: ('A' for Active; 'I' for Inactive)
    1  A    between atoms: C_2  and  N_16
    2  A    between atoms: C_3  and  N_11
    3  A    between atoms: C_3  and  S_45
    4  A    between atoms: C_3  and  C_49
    5  A    between atoms: N_10  and  C_27
    6  A    between atoms: N_11  and  C_42
    7  A    between atoms: C_23  and  C_42
    8  A    between atoms: C_24  and  N_33
    9  A    between atoms: C_27  and  C_43
   10  A    between atoms: C_35  and  C_43
   11  A    between atoms: C_35  and  S_45
                            x       y       z     vdW  Elec       q    Type
                         _______ _______ _______ _____ _____    ______ ____

>  <TORSDO>
F 11

$$$$
=
 OpenBabel11042413553D

 51 58  0  0  1  0  0  0  0  0999 V2000
  189.8710  174.4580  145.1550 S   0  0  0  0  0  0  0  0  0  0  0  0
  191.3810  172.7880  143.6190 C   0  0  0  0  0  1  0  0  0  0  0  0
  190.5800  174.0740  143.5280 C   0  0  1  0  0  3  0  0  0  0  0  0
  189.4550  173.9190  142.5240 C   0  0  0  0  0  2  0  0  0  0  0  0
  189.2610  172.4560  142.1660 C   0  0  0  0  0  2  0  0  0  0  0  0
  189.3090  174.4940  136.0170 C   0  0  0  0  0  3  0  0  0  0  0  0
  189.1790  175.6270  135.2090 C   0  0  0  0  0  3  0  0  0  0  0  0
  188.2610  173.5600  140.3630 C   0  0  0  0  0  2  0  0  0  0  0  0
  190.2190  172.3360  140.0240 C   0  0  1  0  0  3  0  0  0  0  0  0
  188.9520  172.3380  140.7510 N   0  0  0  0  0  0  0  0  0  0  0  0
  191.6960  174.8630  136.1680 C   0  0  0  0  0  0  0  0  0  0  0  0
  190.4710  170.9420  139.4420 C   0  0  0  0  0  2  0  0  0  0  0  0
  193.2540  173.0130  135.9690 C   0  0  1  0  0  3  0  0  0  0  0  0
  190.3040  176.3850  134.8870 C   0  0  0  0  0  3  0  0  0  0  0  0
  190.1670  173.4380  138.9470 C   0  0  1  0  0  3  0  0  0  0  0  0
  192.9980  174.3620  136.4490 N   0  0  0  0  0  0  0  0  0  0  0  0
  191.6120  170.9780  138.5930 O   0  0  0  0  0  0  0  0  0  0  0  0
  191.5590  175.9980  135.3560 C   0  0  0  0  0  3  0  0  0  0  0  0
  190.5890  172.9760  137.5320 C   0  0  2  0  0  3  0  0  0  0  0  0
  194.6010  172.8500  135.6400 O   0  0  0  0  0  1  0  0  0  0  0  0
  191.7490  171.9860  137.6360 C   0  0  0  0  0  0  0  0  0  0  0  0
  192.8690  172.0400  136.9750 N   0  0  0  0  0  0  0  0  0  0  0  0
  188.7430  173.9320  138.9850 C   0  0  0  0  0  2  0  0  0  0  0  0
  190.5620  174.0990  136.5090 C   0  0  0  0  0  0  0  0  0  0  0  0
  194.0140  174.9160  138.5770 C   0  0  0  0  0  2  0  0  0  0  0  0
  193.9550  175.0630  137.2600 C   0  0  0  0  0  3  0  0  0  0  0  0
  190.3990  176.2010  145.0830 C   0  0  1  0  0  3  0  0  0  0  0  0
  184.4850  178.8340  144.4610 C   0  0  0  0  0  3  0  0  0  0  0  0
  186.4460  177.9060  145.5530 C   0  0  0  0  0  0  0  0  0  0  0  0
  187.1540  177.4110  146.7890 C   0  0  0  0  0  2  0  0  0  0  0  0
  185.1870  178.9120  143.2560 C   0  0  0  0  0  3  0  0  0  0  0  0
  184.3260  178.2880  146.8810 C   0  0  0  0  0  1  0  0  0  0  0  0
  188.5050  177.5460  144.2520 N   0  0  0  0  0  2  0  0  0  0  0  0
  185.1070  178.3400  145.6120 C   0  0  0  0  0  0  0  0  0  0  0  0
  186.5180  178.4960  143.1920 C   0  0  0  0  0  3  0  0  0  0  0  0
  187.1520  178.0030  144.3350 C   0  0  0  0  0  0  0  0  0  0  0  0
  188.2940  176.4560  146.4410 C   0  0  0  0  0  2  0  0  0  0  0  0
  189.2390  177.1280  145.4460 C   0  0  1  0  0  3  0  0  0  0  0  0
  191.5250  176.4120  145.9820 N   0  0  0  0  0  2  0  0  0  0  0  0
  192.6970  176.6740  145.1600 C   0  0  0  0  0  2  0  0  0  0  0  0
  195.1130  175.9420  145.0990 C   0  0  2  0  0  0  0  0  0  0  0  0
  194.5600  175.6700  146.4790 C   0  0  0  0  0  2  0  0  0  0  0  0
  195.3650  177.2860  144.8000 O   0  0  0  0  0  1  0  0  0  0  0  0
  193.6660  175.5030  145.2500 C   0  0  1  0  0  3  0  0  0  0  0  0
  195.0140  176.4180  141.8330 O   0  0  0  0  0  1  0  0  0  0  0  0
  196.0230  174.9270  144.5640 N   0  0  1  0  0  0  0  0  0  0  0  0
  195.3530  173.6110  144.5400 C   0  0  0  0  0  2  0  0  0  0  0  0
  195.1950  173.0110  143.1430 C   0  0  0  0  0  2  0  0  0  0  0  0
  195.6780  175.2160  142.0710 C   0  0  2  0  0  3  0  0  0  0  0  0
  194.6700  174.0790  142.2040 C   0  0  0  0  0  2  0  0  0  0  0  0
  196.6170  175.3550  143.2820 C   0  0  0  0  0  2  0  0  0  0  0  0
  3  2  1  1  0  0  0
  3  1  1  0  0  0  0
  4  3  1  0  0  0  0
  5  4  1  0  0  0  0
  6 24  1  0  0  0  0
  7  6  2  0  0  0  0
  8 10  1  0  0  0  0
  9 12  1  6  0  0  0
  9 10  1  0  0  0  0
 10  5  1  0  0  0  0
 11 16  1  0  0  0  0
 11 24  2  0  0  0  0
 13 20  1  1  0  0  0
 13 16  1  0  0  0  0
 13 22  1  0  0  0  0
 14  7  1  0  0  0  0
 14 18  2  0  0  0  0
 15 23  1  6  0  0  0
 15  9  1  0  0  0  0
 16 26  1  0  0  0  0
 17 12  1  0  0  0  0
 18 11  1  0  0  0  0
 19 24  1  6  0  0  0
 19 21  1  0  0  0  0
 19 15  1  0  0  0  0
 21 17  1  0  0  0  0
 22 21  2  0  0  0  0
 23  8  1  0  0  0  0
 26 25  2  0  0  0  0
 27  1  1  1  0  0  0
 27 39  1  0  0  0  0
 28 34  1  0  0  0  0
 29 34  2  0  0  0  0
 29 30  1  0  0  0  0
 31 28  2  0  0  0  0
 33 36  1  0  0  0  0
 33 38  1  0  0  0  0
 34 32  1  0  0  0  0
 35 31  1  0  0  0  0
 35 36  2  0  0  0  0
 36 29  1  0  0  0  0
 37 30  1  0  0  0  0
 38 27  1  6  0  0  0
 38 37  1  0  0  0  0
 40 39  1  0  0  0  0
 41 43  1  6  0  0  0
 41 44  1  0  0  0  0
 41 42  1  0  0  0  0
 44 40  1  1  0  0  0
 44 42  1  0  0  0  0
 46 51  1  6  0  0  0
 46 41  1  0  0  0  0
 47 46  1  0  0  0  0
 48 47  1  0  0  0  0
 49 45  1  1  0  0  0
 49 50  1  0  0  0  0
 49 51  1  0  0  0  0
 50 48  1  0  0  0  0
M  END
>  <MODEL>
9

>  <REMARK>
 VINA RESULT:      -7.9      2.690      7.581
  Name = 
  11 active torsions:
  status: ('A' for Active; 'I' for Inactive)
    1  A    between atoms: C_2  and  N_16
    2  A    between atoms: C_3  and  N_11
    3  A    between atoms: C_3  and  S_45
    4  A    between atoms: C_3  and  C_49
    5  A    between atoms: N_10  and  C_27
    6  A    between atoms: N_11  and  C_42
    7  A    between atoms: C_23  and  C_42
    8  A    between atoms: C_24  and  N_33
    9  A    between atoms: C_27  and  C_43
   10  A    between atoms: C_35  and  C_43
   11  A    between atoms: C_35  and  S_45
                            x       y       z     vdW  Elec       q    Type
                         _______ _______ _______ _____ _____    ______ ____

>  <TORSDO>
F 11

$$$$
