=
 OpenBabel11042417253D

 29 33  0  0  1  0  0  0  0  0999 V2000
  195.1170  176.0870  143.9190 C   0  0  0  0  0  0  0  0  0  0  0  0
  194.3770  176.0270  142.7060 C   0  0  0  0  0  0  0  0  0  0  0  0
  190.6340  175.0770  146.5410 C   0  0  0  0  0  3  0  0  0  0  0  0
  190.8120  176.7190  143.4200 O   0  0  0  0  0  0  0  0  0  0  0  0
  196.3930  175.3550  141.5530 C   0  0  0  0  0  3  0  0  0  0  0  0
  190.9870  175.7510  145.4490 C   0  0  0  0  0  0  0  0  0  0  0  0
  193.3640  176.3840  145.6010 C   0  0  0  0  0  3  0  0  0  0  0  0
  194.5770  176.5510  145.1700 N   0  0  0  0  0  0  0  0  0  0  0  0
  188.2050  175.6590  146.8330 C   0  0  0  0  0  3  0  0  0  0  0  0
  188.0240  176.6960  145.8120 C   0  0  0  0  0  3  0  0  0  0  0  0
  189.3060  174.9830  147.1480 C   0  0  0  0  0  3  0  0  0  0  0  0
  192.3490  175.6010  144.8430 C   0  0  2  0  0  3  0  0  0  0  0  0
  192.9970  176.4120  142.6000 N   0  0  0  0  0  0  0  0  0  0  0  0
  188.8520  177.0950  144.8480 C   0  0  0  0  0  0  0  0  0  0  0  0
  190.1120  176.4620  144.5700 N   0  0  0  0  0  0  0  0  0  0  0  0
  196.4830  175.7850  143.8820 C   0  0  0  0  0  3  0  0  0  0  0  0
  195.0350  175.6690  141.5270 C   0  0  0  0  0  3  0  0  0  0  0  0
  192.1110  176.2600  143.5310 C   0  0  0  0  0  0  0  0  0  0  0  0
  197.0840  175.4190  142.7190 N   0  0  0  0  0  0  0  0  0  0  0  0
  188.3840  178.1480  143.9990 N   0  0  0  0  0  2  0  0  0  0  0  0
  186.8490  177.4740  140.7610 N   0  0  0  0  0  0  0  0  0  0  0  0
  187.8610  177.4250  141.5730 C   0  0  0  0  0  3  0  0  0  0  0  0
  184.6350  178.2590  141.0330 O   0  0  0  0  0  0  0  0  0  0  0  0
  185.7850  178.0520  141.5030 C   0  0  0  0  0  0  0  0  0  0  0  0
  187.4940  177.9630  142.8930 C   0  0  0  0  0  0  0  0  0  0  0  0
  186.2280  178.3610  142.8480 C   0  0  0  0  0  0  0  0  0  0  0  0
  185.5410  180.3280  144.0630 O   0  0  0  0  0  1  0  0  0  0  0  0
  184.5520  178.2370  144.7400 C   0  0  0  0  0  1  0  0  0  0  0  0
  185.4550  178.9900  143.8830 N   0  0  0  0  0  0  0  0  0  0  0  0
  1  8  1  0  0  0  0
  2  1  2  0  0  0  0
  3 11  1  0  0  0  0
  4 18  1  0  0  0  0
  4 15  1  0  0  0  0
  5 19  1  0  0  0  0
  6  3  2  0  0  0  0
  8  7  2  0  0  0  0
  9 11  2  0  0  0  0
 10  9  1  0  0  0  0
 12  6  1  0  0  0  0
 12  7  1  1  0  0  0
 13  2  1  0  0  0  0
 13 18  2  0  0  0  0
 14 10  2  0  0  0  0
 15 14  1  0  0  0  0
 15  6  1  0  0  0  0
 16  1  1  0  0  0  0
 17  5  2  0  0  0  0
 17  2  1  0  0  0  0
 18 12  1  0  0  0  0
 19 16  2  0  0  0  0
 20 14  1  0  0  0  0
 21 24  1  0  0  0  0
 21 22  2  0  0  0  0
 22 25  1  0  0  0  0
 23 24  2  0  0  0  0
 24 26  1  0  0  0  0
 25 20  1  0  0  0  0
 26 25  2  0  0  0  0
 26 29  1  0  0  0  0
 29 27  1  0  0  0  0
 29 28  1  0  0  0  0
M  END
>  <MODEL>
1

>  <REMARK>
 VINA RESULT:      -8.0      0.000      0.000
  Name = 
  3 active torsions:
  status: ('A' for Active; 'I' for Inactive)
    1  A    between atoms: N_8  and  C_29
    2  A    between atoms: N_13  and  C_22
    3  A    between atoms: N_13  and  C_23
                            x       y       z     vdW  Elec       q    Type
                         _______ _______ _______ _____ _____    ______ ____

>  <TORSDO>
F 3

$$$$
=
 OpenBabel11042417253D

 29 33  0  0  1  0  0  0  0  0999 V2000
  186.1430  177.3890  145.8700 C   0  0  0  0  0  0  0  0  0  0  0  0
  186.5300  178.2280  144.7890 C   0  0  0  0  0  0  0  0  0  0  0  0
  191.2710  176.6490  146.9420 C   0  0  0  0  0  3  0  0  0  0  0  0
  189.9680  177.3570  143.7370 O   0  0  0  0  0  0  0  0  0  0  0  0
  184.4340  179.4140  145.0110 C   0  0  0  0  0  3  0  0  0  0  0  0
  190.5230  176.8100  145.8540 C   0  0  0  0  0  0  0  0  0  0  0  0
  188.2000  176.1490  146.3430 C   0  0  0  0  0  3  0  0  0  0  0  0
  186.9060  176.2540  146.3200 N   0  0  0  0  0  0  0  0  0  0  0  0
  193.5430  176.0930  146.0180 C   0  0  0  0  0  3  0  0  0  0  0  0
  193.2530  175.9460  144.5880 C   0  0  0  0  0  3  0  0  0  0  0  0
  192.7080  176.3800  147.0120 C   0  0  0  0  0  3  0  0  0  0  0  0
  189.0980  177.2670  145.9440 C   0  0  2  0  0  3  0  0  0  0  0  0
  187.7370  178.0430  144.0340 N   0  0  0  0  0  0  0  0  0  0  0  0
  192.1380  176.2230  143.9130 C   0  0  0  0  0  0  0  0  0  0  0  0
  190.9860  176.8470  144.5020 N   0  0  0  0  0  0  0  0  0  0  0  0
  184.8960  177.6010  146.4670 C   0  0  0  0  0  3  0  0  0  0  0  0
  185.6550  179.2320  144.3640 C   0  0  0  0  0  3  0  0  0  0  0  0
  188.8530  177.5980  144.5160 C   0  0  0  0  0  0  0  0  0  0  0  0
  184.0820  178.6020  146.0400 N   0  0  0  0  0  0  0  0  0  0  0  0
  192.1630  175.9640  142.5050 N   0  0  0  0  0  2  0  0  0  0  0  0
  192.6230  172.8090  140.7340 N   0  0  0  0  0  0  0  0  0  0  0  0
  193.0920  173.9080  141.2420 C   0  0  0  0  0  3  0  0  0  0  0  0
  190.4480  171.8800  140.7040 O   0  0  0  0  0  0  0  0  0  0  0  0
  191.2360  172.8010  141.0430 C   0  0  0  0  0  0  0  0  0  0  0  0
  192.0250  174.6650  141.9170 C   0  0  0  0  0  0  0  0  0  0  0  0
  190.8860  173.9970  141.7830 C   0  0  0  0  0  0  0  0  0  0  0  0
  189.2050  174.0940  143.5110 O   0  0  0  0  0  1  0  0  0  0  0  0
  188.6290  175.0720  141.3840 C   0  0  0  0  0  1  0  0  0  0  0  0
  189.5750  174.3720  142.2400 N   0  0  0  0  0  0  0  0  0  0  0  0
  1  8  1  0  0  0  0
  1 16  1  0  0  0  0
  2  1  2  0  0  0  0
  3 11  1  0  0  0  0
  4 15  1  0  0  0  0
  4 18  1  0  0  0  0
  5 19  1  0  0  0  0
  6 12  1  0  0  0  0
  6  3  2  0  0  0  0
  8  7  2  0  0  0  0
  9 11  2  0  0  0  0
 10  9  1  0  0  0  0
 12  7  1  6  0  0  0
 13 18  2  0  0  0  0
 13  2  1  0  0  0  0
 14 15  1  0  0  0  0
 14 10  2  0  0  0  0
 15  6  1  0  0  0  0
 17  2  1  0  0  0  0
 17  5  2  0  0  0  0
 18 12  1  0  0  0  0
 19 16  2  0  0  0  0
 20 14  1  0  0  0  0
 21 24  1  0  0  0  0
 21 22  2  0  0  0  0
 22 25  1  0  0  0  0
 23 24  2  0  0  0  0
 24 26  1  0  0  0  0
 25 20  1  0  0  0  0
 26 25  2  0  0  0  0
 26 29  1  0  0  0  0
 28 29  1  0  0  0  0
 29 27  1  0  0  0  0
M  END
>  <MODEL>
2

>  <REMARK>
 VINA RESULT:      -7.9      2.626      7.107
  Name = 
  3 active torsions:
  status: ('A' for Active; 'I' for Inactive)
    1  A    between atoms: N_8  and  C_29
    2  A    between atoms: N_13  and  C_22
    3  A    between atoms: N_13  and  C_23
                            x       y       z     vdW  Elec       q    Type
                         _______ _______ _______ _____ _____    ______ ____

>  <TORSDO>
F 3

$$$$
=
 OpenBabel11042417253D

 29 33  0  0  1  0  0  0  0  0999 V2000
  186.0010  177.5770  145.8060 C   0  0  0  0  0  0  0  0  0  0  0  0
  186.4510  178.1980  144.6080 C   0  0  0  0  0  0  0  0  0  0  0  0
  191.0600  176.7110  147.0890 C   0  0  0  0  0  3  0  0  0  0  0  0
  189.8360  176.9510  143.7850 O   0  0  0  0  0  0  0  0  0  0  0  0
  184.4340  179.5310  144.5870 C   0  0  0  0  0  3  0  0  0  0  0  0
  190.3340  176.7340  145.9740 C   0  0  0  0  0  0  0  0  0  0  0  0
  187.9690  176.3090  146.5200 C   0  0  0  0  0  3  0  0  0  0  0  0
  186.6850  176.4890  146.4530 N   0  0  0  0  0  0  0  0  0  0  0  0
  193.3000  175.8680  146.3160 C   0  0  0  0  0  3  0  0  0  0  0  0
  193.0140  175.5020  144.9250 C   0  0  0  0  0  3  0  0  0  0  0  0
  192.4760  176.3690  147.2320 C   0  0  0  0  0  3  0  0  0  0  0  0
  188.9410  177.2860  145.9590 C   0  0  2  0  0  3  0  0  0  0  0  0
  187.6510  177.8140  143.9190 N   0  0  0  0  0  0  0  0  0  0  0  0
  191.9270  175.7300  144.1910 C   0  0  0  0  0  0  0  0  0  0  0  0
  190.8120  176.5150  144.6450 N   0  0  0  0  0  0  0  0  0  0  0  0
  184.7640  177.9630  146.3330 C   0  0  0  0  0  3  0  0  0  0  0  0
  185.6470  179.1680  144.0040 C   0  0  0  0  0  3  0  0  0  0  0  0
  188.7310  177.3880  144.4900 C   0  0  0  0  0  0  0  0  0  0  0  0
  184.0200  178.9270  145.7300 N   0  0  0  0  0  0  0  0  0  0  0  0
  191.9480  175.2380  142.8460 N   0  0  0  0  0  2  0  0  0  0  0  0
  189.4340  172.9780  141.4800 N   0  0  0  0  0  0  0  0  0  0  0  0
  189.9030  174.1710  141.6780 C   0  0  0  0  0  3  0  0  0  0  0  0
  190.2580  170.8360  142.0530 O   0  0  0  0  0  0  0  0  0  0  0  0
  190.3830  172.0890  142.0530 C   0  0  0  0  0  0  0  0  0  0  0  0
  191.1940  174.1120  142.3840 C   0  0  0  0  0  0  0  0  0  0  0  0
  191.4810  172.8390  142.6280 C   0  0  0  0  0  0  0  0  0  0  0  0
  192.5040  172.0070  144.6480 O   0  0  0  0  0  1  0  0  0  0  0  0
  193.8800  172.0320  142.6680 C   0  0  0  0  0  1  0  0  0  0  0  0
  192.6130  172.3010  143.3320 N   0  0  0  0  0  0  0  0  0  0  0  0
  1 16  1  0  0  0  0
  1  8  1  0  0  0  0
  2  1  2  0  0  0  0
  3 11  1  0  0  0  0
  4 18  1  0  0  0  0
  4 15  1  0  0  0  0
  5 19  1  0  0  0  0
  6  3  2  0  0  0  0
  8  7  2  0  0  0  0
  9 11  2  0  0  0  0
 10  9  1  0  0  0  0
 12  6  1  0  0  0  0
 12  7  1  6  0  0  0
 13 18  2  0  0  0  0
 13  2  1  0  0  0  0
 14 15  1  0  0  0  0
 14 10  2  0  0  0  0
 15  6  1  0  0  0  0
 17  5  2  0  0  0  0
 17  2  1  0  0  0  0
 18 12  1  0  0  0  0
 19 16  2  0  0  0  0
 20 14  1  0  0  0  0
 21 22  2  0  0  0  0
 21 24  1  0  0  0  0
 22 25  1  0  0  0  0
 24 23  2  0  0  0  0
 24 26  1  0  0  0  0
 25 26  2  0  0  0  0
 25 20  1  0  0  0  0
 26 29  1  0  0  0  0
 28 29  1  0  0  0  0
 29 27  1  0  0  0  0
M  END
>  <MODEL>
3

>  <REMARK>
 VINA RESULT:      -7.7      2.786      7.556
  Name = 
  3 active torsions:
  status: ('A' for Active; 'I' for Inactive)
    1  A    between atoms: N_8  and  C_29
    2  A    between atoms: N_13  and  C_22
    3  A    between atoms: N_13  and  C_23
                            x       y       z     vdW  Elec       q    Type
                         _______ _______ _______ _____ _____    ______ ____

>  <TORSDO>
F 3

$$$$
=
 OpenBabel11042417253D

 29 33  0  0  1  0  0  0  0  0999 V2000
  190.6010  173.1760  140.0160 C   0  0  0  0  0  0  0  0  0  0  0  0
  189.2900  173.6830  139.7990 C   0  0  0  0  0  0  0  0  0  0  0  0
  189.8040  173.7450  145.2150 C   0  0  0  0  0  3  0  0  0  0  0  0
  188.2680  175.7140  142.7180 O   0  0  0  0  0  0  0  0  0  0  0  0
  189.1910  172.4340  137.7310 C   0  0  0  0  0  3  0  0  0  0  0  0
  189.4590  174.3940  144.1060 C   0  0  0  0  0  0  0  0  0  0  0  0
  191.0690  173.8790  142.3140 C   0  0  0  0  0  3  0  0  0  0  0  0
  191.4470  173.5770  141.1090 N   0  0  0  0  0  0  0  0  0  0  0  0
  189.0100  175.2640  147.0560 C   0  0  0  0  0  3  0  0  0  0  0  0
  188.5950  176.4510  146.3030 C   0  0  0  0  0  3  0  0  0  0  0  0
  189.5280  174.1270  146.6020 C   0  0  0  0  0  3  0  0  0  0  0  0
  189.6490  173.7830  142.7510 C   0  0  2  0  0  3  0  0  0  0  0  0
  188.6600  174.6460  140.6580 N   0  0  0  0  0  0  0  0  0  0  0  0
  188.4760  176.6260  144.9880 C   0  0  0  0  0  0  0  0  0  0  0  0
  188.6530  175.5720  144.0270 N   0  0  0  0  0  0  0  0  0  0  0  0
  191.1520  172.3200  139.0570 C   0  0  0  0  0  3  0  0  0  0  0  0
  188.6020  173.3090  138.6410 C   0  0  0  0  0  3  0  0  0  0  0  0
  188.8290  174.7210  141.9390 C   0  0  0  0  0  0  0  0  0  0  0  0
  190.4430  171.9610  137.9550 N   0  0  0  0  0  0  0  0  0  0  0  0
  188.0470  177.9200  144.5510 N   0  0  0  0  0  2  0  0  0  0  0  0
  185.2900  178.8590  142.3570 N   0  0  0  0  0  0  0  0  0  0  0  0
  186.5440  178.5890  142.5570 C   0  0  0  0  0  3  0  0  0  0  0  0
  183.4150  178.8390  143.7990 O   0  0  0  0  0  0  0  0  0  0  0  0
  184.6480  178.6650  143.6100 C   0  0  0  0  0  0  0  0  0  0  0  0
  186.7740  178.1950  143.9570 C   0  0  0  0  0  0  0  0  0  0  0  0
  185.6170  178.2560  144.6060 C   0  0  0  0  0  0  0  0  0  0  0  0
  184.9420  176.7790  146.3890 O   0  0  0  0  0  1  0  0  0  0  0  0
  185.5730  179.0190  147.0190 C   0  0  0  0  0  1  0  0  0  0  0  0
  185.3640  178.0030  145.9980 N   0  0  0  0  0  0  0  0  0  0  0  0
  1  8  1  0  0  0  0
  2  1  1  0  0  0  0
  2 13  1  0  0  0  0
  3 11  1  0  0  0  0
  4 15  1  0  0  0  0
  5 19  2  0  0  0  0
  5 17  1  0  0  0  0
  6  3  2  0  0  0  0
  8  7  2  0  0  0  0
 10  9  1  0  0  0  0
 11  9  2  0  0  0  0
 12  7  1  6  0  0  0
 12  6  1  0  0  0  0
 13 18  2  0  0  0  0
 14 10  2  0  0  0  0
 15  6  1  0  0  0  0
 15 14  1  0  0  0  0
 16  1  2  0  0  0  0
 17  2  2  0  0  0  0
 18  4  1  0  0  0  0
 18 12  1  0  0  0  0
 19 16  1  0  0  0  0
 20 14  1  0  0  0  0
 21 22  2  0  0  0  0
 21 24  1  0  0  0  0
 22 25  1  0  0  0  0
 24 23  2  0  0  0  0
 24 26  1  0  0  0  0
 25 20  1  0  0  0  0
 25 26  2  0  0  0  0
 26 29  1  0  0  0  0
 29 27  1  0  0  0  0
 29 28  1  0  0  0  0
M  END
>  <MODEL>
4

>  <REMARK>
 VINA RESULT:      -7.6      3.285      4.385
  Name = 
  3 active torsions:
  status: ('A' for Active; 'I' for Inactive)
    1  A    between atoms: N_8  and  C_29
    2  A    between atoms: N_13  and  C_22
    3  A    between atoms: N_13  and  C_23
                            x       y       z     vdW  Elec       q    Type
                         _______ _______ _______ _____ _____    ______ ____

>  <TORSDO>
F 3

$$$$
=
 OpenBabel11042417253D

 29 33  0  0  1  0  0  0  0  0999 V2000
  186.3270  178.2500  144.5000 C   0  0  0  0  0  0  0  0  0  0  0  0
  186.3180  177.3040  145.5610 C   0  0  0  0  0  0  0  0  0  0  0  0
  189.0490  174.7610  141.6000 C   0  0  0  0  0  3  0  0  0  0  0  0
  189.1450  174.9570  145.1250 O   0  0  0  0  0  0  0  0  0  0  0  0
  184.2650  178.2900  146.3730 C   0  0  0  0  0  3  0  0  0  0  0  0
  188.9870  175.1170  142.8800 C   0  0  0  0  0  0  0  0  0  0  0  0
  188.1200  177.4170  143.0570 C   0  0  0  0  0  3  0  0  0  0  0  0
  187.3960  178.3780  143.5450 N   0  0  0  0  0  0  0  0  0  0  0  0
  190.9950  173.1690  141.5250 C   0  0  0  0  0  3  0  0  0  0  0  0
  191.5370  173.3010  142.8810 C   0  0  0  0  0  3  0  0  0  0  0  0
  189.9520  173.7900  140.9800 C   0  0  0  0  0  3  0  0  0  0  0  0
  187.8830  175.9880  143.3990 C   0  0  2  0  0  3  0  0  0  0  0  0
  187.3740  176.3580  145.7880 N   0  0  0  0  0  0  0  0  0  0  0  0
  191.0360  173.9320  143.9410 C   0  0  0  0  0  0  0  0  0  0  0  0
  189.7390  174.5520  143.9570 N   0  0  0  0  0  0  0  0  0  0  0  0
  185.2930  179.1910  144.4370 C   0  0  0  0  0  3  0  0  0  0  0  0
  185.2820  177.3450  146.4980 C   0  0  0  0  0  3  0  0  0  0  0  0
  188.0830  175.8000  144.8600 C   0  0  0  0  0  0  0  0  0  0  0  0
  184.2910  179.1860  145.3540 N   0  0  0  0  0  0  0  0  0  0  0  0
  191.8140  173.8840  145.1410 N   0  0  0  0  0  2  0  0  0  0  0  0
  195.0870  175.3480  145.8070 N   0  0  0  0  0  0  0  0  0  0  0  0
  194.3410  174.3630  145.4120 C   0  0  0  0  0  3  0  0  0  0  0  0
  194.5660  177.5410  146.5260 O   0  0  0  0  0  0  0  0  0  0  0  0
  194.1950  176.4130  146.1070 C   0  0  0  0  0  0  0  0  0  0  0  0
  192.9200  174.7480  145.4260 C   0  0  0  0  0  0  0  0  0  0  0  0
  192.8280  175.9970  145.8660 C   0  0  0  0  0  0  0  0  0  0  0  0
  191.1200  177.5070  145.0760 O   0  0  0  0  0  1  0  0  0  0  0  0
  190.9540  176.7900  147.3720 C   0  0  0  0  0  1  0  0  0  0  0  0
  191.6410  176.7770  146.0890 N   0  0  0  0  0  0  0  0  0  0  0  0
  1  2  1  0  0  0  0
  2 13  1  0  0  0  0
  2 17  2  0  0  0  0
  3  6  2  0  0  0  0
  5 17  1  0  0  0  0
  6 12  1  0  0  0  0
  6 15  1  0  0  0  0
  7  8  2  0  0  0  0
  8  1  1  0  0  0  0
  9 10  1  0  0  0  0
 10 14  2  0  0  0  0
 11  9  2  0  0  0  0
 11  3  1  0  0  0  0
 12  7  1  1  0  0  0
 12 18  1  0  0  0  0
 14 15  1  0  0  0  0
 14 20  1  0  0  0  0
 15  4  1  0  0  0  0
 16  1  2  0  0  0  0
 16 19  1  0  0  0  0
 18  4  1  0  0  0  0
 18 13  2  0  0  0  0
 19  5  2  0  0  0  0
 20 25  1  0  0  0  0
 21 24  1  0  0  0  0
 22 25  1  0  0  0  0
 22 21  2  0  0  0  0
 24 23  2  0  0  0  0
 25 26  2  0  0  0  0
 26 29  1  0  0  0  0
 26 24  1  0  0  0  0
 27 29  1  0  0  0  0
 29 28  1  0  0  0  0
M  END
>  <MODEL>
5

>  <REMARK>
 VINA RESULT:      -7.6      2.913      7.874
  Name = 
  3 active torsions:
  status: ('A' for Active; 'I' for Inactive)
    1  A    between atoms: N_8  and  C_29
    2  A    between atoms: N_13  and  C_22
    3  A    between atoms: N_13  and  C_23
                            x       y       z     vdW  Elec       q    Type
                         _______ _______ _______ _____ _____    ______ ____

>  <TORSDO>
F 3

$$$$
=
 OpenBabel11042417253D

 29 33  0  0  1  0  0  0  0  0999 V2000
  185.8060  177.9860  144.5670 C   0  0  0  0  0  0  0  0  0  0  0  0
  186.7220  177.8650  145.6480 C   0  0  0  0  0  0  0  0  0  0  0  0
  188.6910  174.4370  141.9080 C   0  0  0  0  0  3  0  0  0  0  0  0
  189.9660  176.6330  144.3630 O   0  0  0  0  0  0  0  0  0  0  0  0
  184.9520  178.4930  147.1700 C   0  0  0  0  0  3  0  0  0  0  0  0
  188.9240  175.4260  142.7680 C   0  0  0  0  0  0  0  0  0  0  0  0
  187.0640  177.0410  142.6930 C   0  0  0  0  0  3  0  0  0  0  0  0
  186.1720  177.8470  143.1830 N   0  0  0  0  0  0  0  0  0  0  0  0
  190.9940  173.7360  141.1810 C   0  0  0  0  0  3  0  0  0  0  0  0
  191.8290  174.7700  141.8020 C   0  0  0  0  0  3  0  0  0  0  0  0
  189.6720  173.5990  141.2170 C   0  0  0  0  0  3  0  0  0  0  0  0
  187.8120  176.0700  143.5390 C   0  0  2  0  0  3  0  0  0  0  0  0
  188.1180  177.5750  145.4740 N   0  0  0  0  0  0  0  0  0  0  0  0
  191.4990  175.7160  142.6790 C   0  0  0  0  0  0  0  0  0  0  0  0
  190.1970  175.8260  143.2790 N   0  0  0  0  0  0  0  0  0  0  0  0
  184.4910  178.3730  144.8480 C   0  0  0  0  0  3  0  0  0  0  0  0
  186.2790  178.1340  146.9460 C   0  0  0  0  0  3  0  0  0  0  0  0
  188.6090  176.8210  144.5450 C   0  0  0  0  0  0  0  0  0  0  0  0
  184.0910  178.6040  146.1260 N   0  0  0  0  0  0  0  0  0  0  0  0
  192.5510  176.5920  143.1000 N   0  0  0  0  0  2  0  0  0  0  0  0
  195.9640  175.5900  143.9020 N   0  0  0  0  0  0  0  0  0  0  0  0
  195.0930  176.1220  143.1000 C   0  0  0  0  0  3  0  0  0  0  0  0
  195.7720  174.7020  146.0860 O   0  0  0  0  0  0  0  0  0  0  0  0
  195.2470  175.2470  145.0800 C   0  0  0  0  0  0  0  0  0  0  0  0
  193.7620  176.1590  143.7290 C   0  0  0  0  0  0  0  0  0  0  0  0
  193.8520  175.6100  144.9350 C   0  0  0  0  0  0  0  0  0  0  0  0
  192.0970  174.2340  145.8540 O   0  0  0  0  0  1  0  0  0  0  0  0
  192.4830  176.3570  146.9280 C   0  0  0  0  0  1  0  0  0  0  0  0
  192.8020  175.3880  145.8910 N   0  0  0  0  0  0  0  0  0  0  0  0
  1 16  2  0  0  0  0
  1  2  1  0  0  0  0
  2 17  2  0  0  0  0
  3  6  2  0  0  0  0
  4 18  1  0  0  0  0
  6 15  1  0  0  0  0
  6 12  1  0  0  0  0
  7  8  2  0  0  0  0
  8  1  1  0  0  0  0
  9 11  2  0  0  0  0
  9 10  1  0  0  0  0
 10 14  2  0  0  0  0
 11  3  1  0  0  0  0
 12  7  1  6  0  0  0
 12 18  1  0  0  0  0
 13  2  1  0  0  0  0
 14 20  1  0  0  0  0
 14 15  1  0  0  0  0
 15  4  1  0  0  0  0
 16 19  1  0  0  0  0
 17  5  1  0  0  0  0
 18 13  2  0  0  0  0
 19  5  2  0  0  0  0
 20 25  1  0  0  0  0
 21 24  1  0  0  0  0
 22 25  1  0  0  0  0
 22 21  2  0  0  0  0
 24 23  2  0  0  0  0
 25 26  2  0  0  0  0
 26 24  1  0  0  0  0
 26 29  1  0  0  0  0
 27 29  1  0  0  0  0
 29 28  1  0  0  0  0
M  END
>  <MODEL>
6

>  <REMARK>
 VINA RESULT:      -7.5      2.334      8.171
  Name = 
  3 active torsions:
  status: ('A' for Active; 'I' for Inactive)
    1  A    between atoms: N_8  and  C_29
    2  A    between atoms: N_13  and  C_22
    3  A    between atoms: N_13  and  C_23
                            x       y       z     vdW  Elec       q    Type
                         _______ _______ _______ _____ _____    ______ ____

>  <TORSDO>
F 3

$$$$
=
 OpenBabel11042417253D

 29 33  0  0  1  0  0  0  0  0999 V2000
  193.5960  173.4400  145.1400 C   0  0  0  0  0  0  0  0  0  0  0  0
  193.8560  174.8380  145.1860 C   0  0  0  0  0  0  0  0  0  0  0  0
  189.7410  174.4170  141.6490 C   0  0  0  0  0  3  0  0  0  0  0  0
  190.8220  176.6780  144.1370 O   0  0  0  0  0  0  0  0  0  0  0  0
  196.1490  174.3520  145.7790 C   0  0  0  0  0  3  0  0  0  0  0  0
  190.2530  175.0180  142.7200 C   0  0  0  0  0  0  0  0  0  0  0  0
  191.3550  173.3480  144.1580 C   0  0  0  0  0  3  0  0  0  0  0  0
  192.2910  172.8720  144.9210 N   0  0  0  0  0  0  0  0  0  0  0  0
  187.7290  175.8190  141.0920 C   0  0  0  0  0  3  0  0  0  0  0  0
  187.6750  176.7290  142.2410 C   0  0  0  0  0  3  0  0  0  0  0  0
  188.5930  174.8390  140.8460 C   0  0  0  0  0  3  0  0  0  0  0  0
  191.5470  174.5680  143.3270 C   0  0  2  0  0  3  0  0  0  0  0  0
  192.8430  175.8390  145.0030 N   0  0  0  0  0  0  0  0  0  0  0  0
  188.5560  176.9140  143.2230 C   0  0  0  0  0  0  0  0  0  0  0  0
  189.8420  176.2730  143.2680 N   0  0  0  0  0  0  0  0  0  0  0  0
  194.6400  172.5570  145.4330 C   0  0  0  0  0  3  0  0  0  0  0  0
  195.1400  175.2780  145.5190 C   0  0  0  0  0  3  0  0  0  0  0  0
  191.8180  175.7240  144.2210 C   0  0  0  0  0  0  0  0  0  0  0  0
  195.8820  173.0230  145.7320 N   0  0  0  0  0  0  0  0  0  0  0  0
  188.2120  177.8850  144.2160 N   0  0  0  0  0  2  0  0  0  0  0  0
  186.2700  176.8300  147.1170 N   0  0  0  0  0  0  0  0  0  0  0  0
  187.3830  176.8840  146.4510 C   0  0  0  0  0  3  0  0  0  0  0  0
  184.1310  177.7510  146.7050 O   0  0  0  0  0  0  0  0  0  0  0  0
  185.3310  177.5840  146.3630 C   0  0  0  0  0  0  0  0  0  0  0  0
  187.2200  177.6910  145.2300 C   0  0  0  0  0  0  0  0  0  0  0  0
  185.9610  178.1070  145.1670 C   0  0  0  0  0  0  0  0  0  0  0  0
  185.5840  180.2090  144.0450 O   0  0  0  0  0  1  0  0  0  0  0  0
  184.4420  178.2830  143.1500 C   0  0  0  0  0  1  0  0  0  0  0  0
  185.3310  178.8820  144.1340 N   0  0  0  0  0  0  0  0  0  0  0  0
  1  2  2  0  0  0  0
  1 16  1  0  0  0  0
  2 17  1  0  0  0  0
  3  6  2  0  0  0  0
  4 18  1  0  0  0  0
  6 15  1  0  0  0  0
  6 12  1  0  0  0  0
  7  8  2  0  0  0  0
  8  1  1  0  0  0  0
  9 10  1  0  0  0  0
 10 14  2  0  0  0  0
 11  9  2  0  0  0  0
 11  3  1  0  0  0  0
 12  7  1  1  0  0  0
 12 18  1  0  0  0  0
 13  2  1  0  0  0  0
 14 15  1  0  0  0  0
 14 20  1  0  0  0  0
 15  4  1  0  0  0  0
 16 19  2  0  0  0  0
 17  5  2  0  0  0  0
 18 13  2  0  0  0  0
 19  5  1  0  0  0  0
 20 25  1  0  0  0  0
 22 21  2  0  0  0  0
 24 23  2  0  0  0  0
 24 21  1  0  0  0  0
 25 22  1  0  0  0  0
 26 25  2  0  0  0  0
 26 24  1  0  0  0  0
 27 29  1  0  0  0  0
 28 29  1  0  0  0  0
 29 26  1  0  0  0  0
M  END
>  <MODEL>
7

>  <REMARK>
 VINA RESULT:      -7.5      2.323      3.679
  Name = 
  3 active torsions:
  status: ('A' for Active; 'I' for Inactive)
    1  A    between atoms: N_8  and  C_29
    2  A    between atoms: N_13  and  C_22
    3  A    between atoms: N_13  and  C_23
                            x       y       z     vdW  Elec       q    Type
                         _______ _______ _______ _____ _____    ______ ____

>  <TORSDO>
F 3

$$$$
=
 OpenBabel11042417253D

 29 33  0  0  1  0  0  0  0  0999 V2000
  185.9110  177.5240  145.7610 C   0  0  0  0  0  0  0  0  0  0  0  0
  186.4290  178.2840  144.6760 C   0  0  0  0  0  0  0  0  0  0  0  0
  190.8740  176.8190  147.4510 C   0  0  0  0  0  3  0  0  0  0  0  0
  189.9490  177.3140  144.0790 O   0  0  0  0  0  0  0  0  0  0  0  0
  184.3410  179.4990  144.5800 C   0  0  0  0  0  3  0  0  0  0  0  0
  190.2550  176.9110  146.2770 C   0  0  0  0  0  0  0  0  0  0  0  0
  187.8820  176.3030  146.5450 C   0  0  0  0  0  3  0  0  0  0  0  0
  186.6010  176.4170  146.3690 N   0  0  0  0  0  0  0  0  0  0  0  0
  193.2260  176.1820  146.8280 C   0  0  0  0  0  3  0  0  0  0  0  0
  193.0960  175.9390  145.3870 C   0  0  0  0  0  3  0  0  0  0  0  0
  192.2900  176.5440  147.7000 C   0  0  0  0  0  3  0  0  0  0  0  0
  188.8370  177.3840  146.1750 C   0  0  2  0  0  3  0  0  0  0  0  0
  187.7100  178.0370  144.0760 N   0  0  0  0  0  0  0  0  0  0  0  0
  192.0680  176.1780  144.5740 C   0  0  0  0  0  0  0  0  0  0  0  0
  190.8670  176.8510  144.9870 N   0  0  0  0  0  0  0  0  0  0  0  0
  184.6080  177.7870  146.1970 C   0  0  0  0  0  3  0  0  0  0  0  0
  185.6230  179.2630  144.0880 C   0  0  0  0  0  3  0  0  0  0  0  0
  188.7580  177.6180  144.7090 C   0  0  0  0  0  0  0  0  0  0  0  0
  183.8630  178.7630  145.6150 N   0  0  0  0  0  0  0  0  0  0  0  0
  192.2460  175.8220  143.1990 N   0  0  0  0  0  2  0  0  0  0  0  0
  193.6220  172.5440  142.3850 N   0  0  0  0  0  0  0  0  0  0  0  0
  192.6450  173.3020  142.7820 C   0  0  0  0  0  3  0  0  0  0  0  0
  195.8190  173.0400  141.6630 O   0  0  0  0  0  0  0  0  0  0  0  0
  194.6950  173.4240  142.0800 C   0  0  0  0  0  0  0  0  0  0  0  0
  193.0390  174.7200  142.7430 C   0  0  0  0  0  0  0  0  0  0  0  0
  194.2980  174.7960  142.3290 C   0  0  0  0  0  0  0  0  0  0  0  0
  194.9960  176.7300  141.0670 O   0  0  0  0  0  1  0  0  0  0  0  0
  196.0610  176.3870  143.2020 C   0  0  0  0  0  1  0  0  0  0  0  0
  195.1160  175.9670  142.1790 N   0  0  0  0  0  0  0  0  0  0  0  0
  1 16  1  0  0  0  0
  1  8  1  0  0  0  0
  2  1  2  0  0  0  0
  3 11  1  0  0  0  0
  4 18  1  0  0  0  0
  4 15  1  0  0  0  0
  5 19  1  0  0  0  0
  6  3  2  0  0  0  0
  8  7  2  0  0  0  0
  9 11  2  0  0  0  0
 10  9  1  0  0  0  0
 12  6  1  0  0  0  0
 12  7  1  6  0  0  0
 13  2  1  0  0  0  0
 13 18  2  0  0  0  0
 14 15  1  0  0  0  0
 14 10  2  0  0  0  0
 15  6  1  0  0  0  0
 17  5  2  0  0  0  0
 17  2  1  0  0  0  0
 18 12  1  0  0  0  0
 19 16  2  0  0  0  0
 20 14  1  0  0  0  0
 21 22  2  0  0  0  0
 23 24  2  0  0  0  0
 24 26  1  0  0  0  0
 24 21  1  0  0  0  0
 25 22  1  0  0  0  0
 25 20  1  0  0  0  0
 26 25  2  0  0  0  0
 27 29  1  0  0  0  0
 29 26  1  0  0  0  0
 29 28  1  0  0  0  0
M  END
>  <MODEL>
8

>  <REMARK>
 VINA RESULT:      -7.4      2.329      8.082
  Name = 
  3 active torsions:
  status: ('A' for Active; 'I' for Inactive)
    1  A    between atoms: N_8  and  C_29
    2  A    between atoms: N_13  and  C_22
    3  A    between atoms: N_13  and  C_23
                            x       y       z     vdW  Elec       q    Type
                         _______ _______ _______ _____ _____    ______ ____

>  <TORSDO>
F 3

$$$$
=
 OpenBabel11042417253D

 29 33  0  0  1  0  0  0  0  0999 V2000
  185.8450  178.1740  144.6350 C   0  0  0  0  0  0  0  0  0  0  0  0
  186.6790  177.8940  145.7520 C   0  0  0  0  0  0  0  0  0  0  0  0
  188.7130  174.7360  141.8150 C   0  0  0  0  0  3  0  0  0  0  0  0
  189.9330  176.6030  144.5530 O   0  0  0  0  0  0  0  0  0  0  0  0
  184.8450  178.4740  147.2170 C   0  0  0  0  0  3  0  0  0  0  0  0
  188.9380  175.6200  142.7830 C   0  0  0  0  0  0  0  0  0  0  0  0
  187.1750  177.3420  142.7560 C   0  0  0  0  0  3  0  0  0  0  0  0
  186.2960  178.1480  143.2680 N   0  0  0  0  0  0  0  0  0  0  0  0
  191.0200  173.9740  141.1650 C   0  0  0  0  0  3  0  0  0  0  0  0
  191.8640  174.8910  141.9380 C   0  0  0  0  0  3  0  0  0  0  0  0
  189.6930  173.9120  141.1050 C   0  0  0  0  0  3  0  0  0  0  0  0
  187.8120  176.2520  143.5450 C   0  0  2  0  0  3  0  0  0  0  0  0
  188.0660  177.5410  145.6370 N   0  0  0  0  0  0  0  0  0  0  0  0
  191.5260  175.7660  142.8840 C   0  0  0  0  0  0  0  0  0  0  0  0
  190.1940  175.8930  143.4090 N   0  0  0  0  0  0  0  0  0  0  0  0
  184.5370  178.6080  144.8710 C   0  0  0  0  0  3  0  0  0  0  0  0
  186.1640  178.0620  147.0410 C   0  0  0  0  0  3  0  0  0  0  0  0
  188.5790  176.8520  144.6680 C   0  0  0  0  0  0  0  0  0  0  0  0
  184.0640  178.7370  146.1390 N   0  0  0  0  0  0  0  0  0  0  0  0
  192.5910  176.5320  143.4550 N   0  0  0  0  0  2  0  0  0  0  0  0
  194.3780  175.6640  146.5130 N   0  0  0  0  0  0  0  0  0  0  0  0
  193.3260  176.1120  145.8980 C   0  0  0  0  0  3  0  0  0  0  0  0
  196.4360  174.8120  145.7180 O   0  0  0  0  0  0  0  0  0  0  0  0
  195.2930  175.2910  145.4930 C   0  0  0  0  0  0  0  0  0  0  0  0
  193.5080  176.0390  144.4380 C   0  0  0  0  0  0  0  0  0  0  0  0
  194.7170  175.5510  144.1890 C   0  0  0  0  0  0  0  0  0  0  0  0
  195.2840  174.1290  142.3250 O   0  0  0  0  0  1  0  0  0  0  0  0
  196.0370  176.4160  142.2100 C   0  0  0  0  0  1  0  0  0  0  0  0
  195.3480  175.3450  142.9140 N   0  0  0  0  0  0  0  0  0  0  0  0
  1 16  2  0  0  0  0
  1  2  1  0  0  0  0
  2 17  2  0  0  0  0
  3  6  2  0  0  0  0
  4 18  1  0  0  0  0
  6 15  1  0  0  0  0
  6 12  1  0  0  0  0
  7  8  2  0  0  0  0
  8  1  1  0  0  0  0
  9 10  1  0  0  0  0
 10 14  2  0  0  0  0
 11  9  2  0  0  0  0
 11  3  1  0  0  0  0
 12  7  1  6  0  0  0
 12 18  1  0  0  0  0
 13  2  1  0  0  0  0
 14 15  1  0  0  0  0
 14 20  1  0  0  0  0
 15  4  1  0  0  0  0
 16 19  1  0  0  0  0
 17  5  1  0  0  0  0
 18 13  2  0  0  0  0
 19  5  2  0  0  0  0
 20 25  1  0  0  0  0
 22 21  2  0  0  0  0
 24 23  2  0  0  0  0
 24 21  1  0  0  0  0
 25 22  1  0  0  0  0
 26 25  2  0  0  0  0
 26 24  1  0  0  0  0
 27 29  1  0  0  0  0
 28 29  1  0  0  0  0
 29 26  1  0  0  0  0
M  END
>  <MODEL>
9

>  <REMARK>
 VINA RESULT:      -7.3      2.403      8.556
  Name = 
  3 active torsions:
  status: ('A' for Active; 'I' for Inactive)
    1  A    between atoms: N_8  and  C_29
    2  A    between atoms: N_13  and  C_22
    3  A    between atoms: N_13  and  C_23
                            x       y       z     vdW  Elec       q    Type
                         _______ _______ _______ _____ _____    ______ ____

>  <TORSDO>
F 3

$$$$
