8txz
 OpenBabel10232413523D

 28 32  0  0  1  0  0  0  0  0999 V2000
  183.5410  178.6700  143.5820 N   0  0  0  0  0  0  0  0  0  0  0  0
  184.1350  178.5910  141.4040 N   0  0  0  0  0  0  0  0  0  0  0  0
  185.3280  178.5170  141.7050 C   0  0  0  0  0  0  0  0  0  0  0  0
  185.7730  178.5080  142.9240 C   0  0  0  0  0  3  0  0  0  0  0  0
  184.8630  178.5870  143.9130 C   0  0  0  0  0  0  0  0  0  0  0  0
  183.2460  178.6670  142.2900 C   0  0  0  0  0  3  0  0  0  0  0  0
  184.6290  178.9810  146.0980 N   0  0  0  0  0  0  0  0  0  0  0  0
  185.3160  178.8510  147.1930 N   0  0  0  0  0  0  0  0  0  0  0  0
  185.3550  178.5820  145.3170 C   0  0  0  0  0  0  0  0  0  0  0  0
  186.5840  178.3020  146.9500 C   0  0  0  0  0  0  0  0  0  0  0  0
  187.6310  177.9780  147.6870 C   0  0  0  0  0  3  0  0  0  0  0  0
  188.6670  177.4750  147.0750 C   0  0  0  0  0  3  0  0  0  0  0  0
  188.6760  177.2930  145.7550 C   0  0  0  0  0  0  0  0  0  0  0  0
  187.6020  177.6280  145.0450 C   0  0  0  0  0  3  0  0  0  0  0  0
  186.5540  178.1310  145.6010 C   0  0  2  0  0  3  0  0  0  0  0  0
  189.8340  176.7440  145.1920 O   0  0  0  0  0  0  0  0  0  0  0  0
  190.1980  177.0510  143.9260 C   0  0  0  0  0  0  0  0  0  0  0  0
  190.4200  178.4970  143.5770 C   0  0  0  0  0  1  0  0  0  0  0  0
  190.0660  176.0660  142.8020 C   0  0  0  0  0  2  0  0  0  0  0  0
  191.2950  176.0780  143.6470 C   0  0  0  0  0  2  0  0  0  0  0  0
  186.0080  177.2900  137.2590 C   0  0  0  0  0  1  0  0  0  0  0  0
  186.2570  178.4360  140.6540 N   0  0  0  0  0  0  0  0  0  0  0  0
  187.7610  177.6270  138.6910 O   0  0  0  0  0  0  0  0  0  0  0  0
  186.6400  178.1910  138.2540 C   0  0  2  0  0  3  0  0  0  0  0  0
  185.6880  178.4990  139.3480 C   0  0  0  0  0  2  0  0  0  0  0  0
  187.6640  178.3030  140.8880 C   0  0  0  0  0  2  0  0  0  0  0  0
  188.3840  178.3790  139.5930 C   0  0  1  0  0  3  0  0  0  0  0  0
  189.8130  177.9310  139.6480 C   0  0  0  0  0  1  0  0  0  0  0  0
  1  5  1  0  0  0  0
  2  3  2  0  0  0  0
  2  6  1  0  0  0  0
  3  4  1  0  0  0  0
  4  5  2  0  0  0  0
  5  9  1  0  0  0  0
  6  1  2  0  0  0  0
  7  8  1  0  0  0  0
  9 15  1  0  0  0  0
  9  7  2  0  0  0  0
 10  8  2  0  0  0  0
 10 11  1  0  0  0  0
 12 11  2  0  0  0  0
 13 12  1  0  0  0  0
 14 13  2  0  0  0  0
 15 14  1  6  0  0  0
 15 10  1  0  0  0  0
 16 13  1  0  0  0  0
 17 16  1  0  0  0  0
 18 17  1  0  0  0  0
 19 20  1  0  0  0  0
 19 17  1  0  0  0  0
 20 17  1  0  0  0  0
 22 26  1  0  0  0  0
 22  3  1  0  0  0  0
 23 27  1  0  0  0  0
 24 21  1  6  0  0  0
 24 23  1  0  0  0  0
 24 25  1  0  0  0  0
 25 22  1  0  0  0  0
 27 28  1  1  0  0  0
 27 26  1  0  0  0  0
M  END
>  <MODEL>
1

>  <REMARK>
 VINA RESULT:     -10.0      0.000      0.000
  Name = 8txz
  4 active torsions:
  status: ('A' for Active; 'I' for Inactive)
    1  A    between atoms: N_2  and  C_14
    2  A    between atoms: O_6  and  C_22
    3  A    between atoms: O_6  and  C_23
    4  A    between atoms: C_16  and  C_18
                            x       y       z     vdW  Elec       q    Type
                         _______ _______ _______ _____ _____    ______ ____

>  <TORSDO>
F 4

$$$$
8txz
 OpenBabel10232413523D

 28 32  0  0  1  0  0  0  0  0999 V2000
  184.3000  179.1010  141.6870 N   0  0  0  0  0  0  0  0  0  0  0  0
  185.6410  178.7670  139.8990 N   0  0  0  0  0  0  0  0  0  0  0  0
  186.5900  178.4810  140.6320 C   0  0  0  0  0  0  0  0  0  0  0  0
  186.5310  178.4640  141.9280 C   0  0  0  0  0  3  0  0  0  0  0  0
  185.3520  178.7830  142.4960 C   0  0  0  0  0  0  0  0  0  0  0  0
  184.5190  179.0720  140.3800 C   0  0  0  0  0  3  0  0  0  0  0  0
  184.3000  179.1750  144.4250 N   0  0  0  0  0  0  0  0  0  0  0  0
  184.5130  179.0390  145.6990 N   0  0  0  0  0  0  0  0  0  0  0  0
  185.2680  178.7720  143.9820 C   0  0  0  0  0  0  0  0  0  0  0  0
  185.7730  178.4800  145.9600 C   0  0  0  0  0  0  0  0  0  0  0  0
  186.4550  178.1470  147.0410 C   0  0  0  0  0  3  0  0  0  0  0  0
  187.6430  177.6370  146.8720 C   0  0  0  0  0  3  0  0  0  0  0  0
  188.1570  177.4560  145.6560 C   0  0  0  0  0  0  0  0  0  0  0  0
  187.4400  177.8010  144.5890 C   0  0  0  0  0  3  0  0  0  0  0  0
  186.2630  178.3110  144.7020 C   0  0  2  0  0  3  0  0  0  0  0  0
  189.4390  176.8990  145.5790 O   0  0  0  0  0  0  0  0  0  0  0  0
  190.2690  177.2160  144.5600 C   0  0  0  0  0  0  0  0  0  0  0  0
  190.4870  178.6710  144.2430 C   0  0  0  0  0  1  0  0  0  0  0  0
  190.7050  176.2000  143.5460 C   0  0  0  0  0  2  0  0  0  0  0  0
  191.4630  176.3610  144.8200 C   0  0  0  0  0  2  0  0  0  0  0  0
  188.6170  176.3370  137.0220 C   0  0  0  0  0  1  0  0  0  0  0  0
  187.8080  178.1540  140.0140 N   0  0  0  0  0  0  0  0  0  0  0  0
  189.7990  176.9060  138.8970 O   0  0  0  0  0  0  0  0  0  0  0  0
  188.9610  177.4040  137.9950 C   0  0  2  0  0  3  0  0  0  0  0  0
  187.7300  177.9630  138.6030 C   0  0  0  0  0  2  0  0  0  0  0  0
  189.0280  178.0250  140.7530 C   0  0  0  0  0  2  0  0  0  0  0  0
  190.1520  177.8070  139.8080 C   0  0  1  0  0  3  0  0  0  0  0  0
  191.4210  177.3320  140.4490 C   0  0  0  0  0  1  0  0  0  0  0  0
  1  5  1  0  0  0  0
  2  6  1  0  0  0  0
  2  3  2  0  0  0  0
  3  4  1  0  0  0  0
  4  5  2  0  0  0  0
  5  9  1  0  0  0  0
  6  1  2  0  0  0  0
  7  8  1  0  0  0  0
  8 10  2  0  0  0  0
  9  7  2  0  0  0  0
  9 15  1  0  0  0  0
 10 11  1  0  0  0  0
 12 11  2  0  0  0  0
 13 12  1  0  0  0  0
 14 13  2  0  0  0  0
 15 14  1  1  0  0  0
 15 10  1  0  0  0  0
 16 13  1  0  0  0  0
 17 20  1  0  0  0  0
 17 16  1  0  0  0  0
 18 17  1  0  0  0  0
 19 17  1  0  0  0  0
 19 20  1  0  0  0  0
 22  3  1  0  0  0  0
 22 26  1  0  0  0  0
 23 27  1  0  0  0  0
 24 21  1  6  0  0  0
 24 25  1  0  0  0  0
 24 23  1  0  0  0  0
 25 22  1  0  0  0  0
 27 28  1  1  0  0  0
 27 26  1  0  0  0  0
M  END
>  <MODEL>
2

>  <REMARK>
 VINA RESULT:      -9.3      1.215      1.625
  Name = 8txz
  4 active torsions:
  status: ('A' for Active; 'I' for Inactive)
    1  A    between atoms: N_2  and  C_14
    2  A    between atoms: O_6  and  C_22
    3  A    between atoms: O_6  and  C_23
    4  A    between atoms: C_16  and  C_18
                            x       y       z     vdW  Elec       q    Type
                         _______ _______ _______ _____ _____    ______ ____

>  <TORSDO>
F 4

$$$$
8txz
 OpenBabel10232413523D

 28 32  0  0  1  0  0  0  0  0999 V2000
  191.9980  177.2320  142.5590 N   0  0  0  0  0  0  0  0  0  0  0  0
  190.7920  177.5030  140.6690 N   0  0  0  0  0  0  0  0  0  0  0  0
  189.7470  177.5960  141.3180 C   0  0  0  0  0  0  0  0  0  0  0  0
  189.6850  177.5240  142.6120 C   0  0  0  0  0  3  0  0  0  0  0  0
  190.8410  177.3350  143.2750 C   0  0  0  0  0  0  0  0  0  0  0  0
  191.8980  177.3270  141.2410 C   0  0  0  0  0  3  0  0  0  0  0  0
  191.7930  177.1630  145.2880 N   0  0  0  0  0  0  0  0  0  0  0  0
  191.4370  177.1090  146.5350 N   0  0  0  0  0  0  0  0  0  0  0  0
  190.7880  177.2480  144.7600 C   0  0  0  0  0  0  0  0  0  0  0  0
  190.0430  177.1790  146.6820 C   0  0  0  0  0  0  0  0  0  0  0  0
  189.1970  177.1650  147.6970 C   0  0  0  0  0  3  0  0  0  0  0  0
  187.9250  177.2510  147.4230 C   0  0  0  0  0  3  0  0  0  0  0  0
  187.4880  177.3480  146.1680 C   0  0  0  0  0  0  0  0  0  0  0  0
  188.3690  177.3620  145.1710 C   0  0  0  0  0  3  0  0  0  0  0  0
  189.6360  177.2770  145.3880 C   0  0  1  0  0  3  0  0  0  0  0  0
  186.1040  177.4370  145.9770 O   0  0  0  0  0  0  0  0  0  0  0  0
  185.4740  178.6320  146.0410 C   0  0  0  0  0  0  0  0  0  0  0  0
  186.0090  179.6720  146.9880 C   0  0  0  0  0  1  0  0  0  0  0  0
  184.1030  178.8380  145.4690 C   0  0  0  0  0  2  0  0  0  0  0  0
  185.3070  179.0010  144.6040 C   0  0  0  0  0  2  0  0  0  0  0  0
  187.8730  178.4950  137.1450 C   0  0  0  0  0  1  0  0  0  0  0  0
  188.5550  177.7910  140.6000 N   0  0  0  0  0  0  0  0  0  0  0  0
  186.6700  178.7370  139.0770 O   0  0  0  0  0  0  0  0  0  0  0  0
  187.4470  177.8780  138.4250 C   0  0  2  0  0  3  0  0  0  0  0  0
  188.6310  177.4620  139.2160 C   0  0  0  0  0  2  0  0  0  0  0  0
  187.3630  178.2830  141.2230 C   0  0  0  0  0  2  0  0  0  0  0  0
  186.2510  178.2530  140.2410 C   0  0  1  0  0  3  0  0  0  0  0  0
  185.0400  179.0360  140.6480 C   0  0  0  0  0  1  0  0  0  0  0  0
  1  5  1  0  0  0  0
  2  6  1  0  0  0  0
  2  3  2  0  0  0  0
  3  4  1  0  0  0  0
  4  5  2  0  0  0  0
  5  9  1  0  0  0  0
  6  1  2  0  0  0  0
  7  8  1  0  0  0  0
  8 10  2  0  0  0  0
  9  7  2  0  0  0  0
  9 15  1  0  0  0  0
 10 11  1  0  0  0  0
 12 11  2  0  0  0  0
 13 12  1  0  0  0  0
 14 13  2  0  0  0  0
 15 14  1  1  0  0  0
 15 10  1  0  0  0  0
 16 17  1  0  0  0  0
 16 13  1  0  0  0  0
 17 18  1  0  0  0  0
 19 17  1  0  0  0  0
 20 19  1  0  0  0  0
 20 17  1  0  0  0  0
 22 26  1  0  0  0  0
 22  3  1  0  0  0  0
 23 27  1  0  0  0  0
 24 21  1  6  0  0  0
 24 23  1  0  0  0  0
 24 25  1  0  0  0  0
 25 22  1  0  0  0  0
 27 28  1  1  0  0  0
 27 26  1  0  0  0  0
M  END
>  <MODEL>
3

>  <REMARK>
 VINA RESULT:      -9.2      2.709      4.844
  Name = 8txz
  4 active torsions:
  status: ('A' for Active; 'I' for Inactive)
    1  A    between atoms: N_2  and  C_14
    2  A    between atoms: O_6  and  C_22
    3  A    between atoms: O_6  and  C_23
    4  A    between atoms: C_16  and  C_18
                            x       y       z     vdW  Elec       q    Type
                         _______ _______ _______ _____ _____    ______ ____

>  <TORSDO>
F 4

$$$$
8txz
 OpenBabel10232413523D

 28 32  0  0  1  0  0  0  0  0999 V2000
  190.7250  177.5140  140.9040 N   0  0  0  0  0  0  0  0  0  0  0  0
  191.5340  177.1700  142.9850 N   0  0  0  0  0  0  0  0  0  0  0  0
  190.4310  177.4090  143.4810 C   0  0  0  0  0  0  0  0  0  0  0  0
  189.3740  177.7170  142.7950 C   0  0  0  0  0  3  0  0  0  0  0  0
  189.5050  177.7780  141.4560 C   0  0  0  0  0  0  0  0  0  0  0  0
  191.7080  177.2130  141.7400 C   0  0  0  0  0  3  0  0  0  0  0  0
  188.4850  178.3150  139.5430 N   0  0  0  0  0  0  0  0  0  0  0  0
  187.2900  178.5930  139.1180 N   0  0  0  0  0  0  0  0  0  0  0  0
  188.3030  178.1330  140.6530 C   0  0  0  0  0  0  0  0  0  0  0  0
  186.3450  178.5470  140.1550 C   0  0  2  0  0  3  0  0  0  0  0  0
  185.0420  178.7430  140.2560 C   0  0  0  0  0  3  0  0  0  0  0  0
  184.5010  178.6040  141.4350 C   0  0  0  0  0  3  0  0  0  0  0  0
  185.2310  178.2800  142.5020 C   0  0  0  0  0  0  0  0  0  0  0  0
  186.5400  178.0880  142.3620 C   0  0  0  0  0  3  0  0  0  0  0  0
  187.1230  178.2140  141.2200 C   0  0  0  0  0  0  0  0  0  0  0  0
  184.5580  178.1530  143.7230 O   0  0  0  0  0  0  0  0  0  0  0  0
  184.7620  179.0440  144.7190 C   0  0  0  0  0  0  0  0  0  0  0  0
  184.7960  180.5070  144.3740 C   0  0  0  0  0  1  0  0  0  0  0  0
  185.2790  178.6250  146.0640 C   0  0  0  0  0  2  0  0  0  0  0  0
  183.8150  178.5870  145.7780 C   0  0  0  0  0  2  0  0  0  0  0  0
  192.2340  175.6310  147.3960 C   0  0  0  0  0  1  0  0  0  0  0  0
  190.3230  177.3400  144.8800 N   0  0  0  0  0  0  0  0  0  0  0  0
  190.1300  176.5300  147.3450 O   0  0  0  0  0  0  0  0  0  0  0  0
  191.3890  176.7870  147.0070 C   0  0  2  0  0  3  0  0  0  0  0  0
  191.5470  177.0780  145.5620 C   0  0  0  0  0  2  0  0  0  0  0  0
  189.0740  177.5220  145.5580 C   0  0  0  0  0  2  0  0  0  0  0  0
  189.3100  177.5250  147.0230 C   0  0  1  0  0  3  0  0  0  0  0  0
  188.0700  177.3770  147.8530 C   0  0  0  0  0  1  0  0  0  0  0  0
  1  5  2  0  0  0  0
  1  6  1  0  0  0  0
  2  3  1  0  0  0  0
  3 22  1  0  0  0  0
  4  3  2  0  0  0  0
  5  4  1  0  0  0  0
  6  2  2  0  0  0  0
  7  9  1  0  0  0  0
  8  7  2  0  0  0  0
  8 10  1  0  0  0  0
  9 15  2  0  0  0  0
  9  5  1  0  0  0  0
 10 11  1  1  0  0  0
 10 15  1  0  0  0  0
 11 12  2  0  0  0  0
 12 13  1  0  0  0  0
 13 16  1  0  0  0  0
 14 13  2  0  0  0  0
 15 14  1  0  0  0  0
 16 17  1  0  0  0  0
 17 20  1  0  0  0  0
 17 19  1  0  0  0  0
 18 17  1  0  0  0  0
 20 19  1  0  0  0  0
 22 26  1  0  0  0  0
 22 25  1  0  0  0  0
 24 23  1  0  0  0  0
 24 21  1  6  0  0  0
 25 24  1  0  0  0  0
 26 27  1  0  0  0  0
 27 23  1  0  0  0  0
 27 28  1  1  0  0  0
M  END
>  <MODEL>
4

>  <REMARK>
 VINA RESULT:      -9.1      2.688      7.155
  Name = 8txz
  4 active torsions:
  status: ('A' for Active; 'I' for Inactive)
    1  A    between atoms: N_2  and  C_14
    2  A    between atoms: O_6  and  C_22
    3  A    between atoms: O_6  and  C_23
    4  A    between atoms: C_16  and  C_18
                            x       y       z     vdW  Elec       q    Type
                         _______ _______ _______ _____ _____    ______ ____

>  <TORSDO>
F 4

$$$$
8txz
 OpenBabel10232413523D

 28 32  0  0  1  0  0  0  0  0999 V2000
  187.2040  178.3860  139.7200 N   0  0  0  0  0  0  0  0  0  0  0  0
  185.1830  178.8540  140.6130 N   0  0  0  0  0  0  0  0  0  0  0  0
  185.6070  178.6410  141.7510 C   0  0  0  0  0  0  0  0  0  0  0  0
  186.8270  178.2890  142.0200 C   0  0  0  0  0  3  0  0  0  0  0  0
  187.6720  178.1500  140.9800 C   0  0  0  0  0  0  0  0  0  0  0  0
  185.9320  178.7390  139.6090 C   0  0  0  0  0  3  0  0  0  0  0  0
  189.6900  177.4160  140.3690 N   0  0  0  0  0  0  0  0  0  0  0  0
  190.8340  177.1330  140.9170 N   0  0  0  0  0  0  0  0  0  0  0  0
  189.0740  177.7440  141.2690 C   0  0  0  0  0  0  0  0  0  0  0  0
  190.8130  177.3470  142.3040 C   0  0  2  0  0  3  0  0  0  0  0  0
  191.6790  177.2170  143.2930 C   0  0  0  0  0  3  0  0  0  0  0  0
  191.2730  177.5230  144.4940 C   0  0  0  0  0  3  0  0  0  0  0  0
  190.0320  177.9510  144.7220 C   0  0  0  0  0  0  0  0  0  0  0  0
  189.1880  178.0720  143.7010 C   0  0  0  0  0  3  0  0  0  0  0  0
  189.5390  177.7810  142.4960 C   0  0  0  0  0  0  0  0  0  0  0  0
  189.6930  178.2570  146.0450 O   0  0  0  0  0  0  0  0  0  0  0  0
  189.6180  177.2830  146.9810 C   0  0  0  0  0  0  0  0  0  0  0  0
  190.8570  176.4830  147.2790 C   0  0  0  0  0  1  0  0  0  0  0  0
  188.3030  176.7600  147.4780 C   0  0  0  0  0  2  0  0  0  0  0  0
  188.9210  177.9590  148.1140 C   0  0  0  0  0  2  0  0  0  0  0  0
  185.0010  178.2700  146.3590 C   0  0  0  0  0  1  0  0  0  0  0  0
  184.7050  178.7910  142.8170 N   0  0  0  0  0  0  0  0  0  0  0  0
  183.2250  178.4160  144.9230 O   0  0  0  0  0  0  0  0  0  0  0  0
  184.3770  179.0020  145.2290 C   0  0  2  0  0  3  0  0  0  0  0  0
  185.3110  179.0650  144.0780 C   0  0  0  0  0  2  0  0  0  0  0  0
  183.2880  178.6780  142.6380 C   0  0  0  0  0  2  0  0  0  0  0  0
  182.6070  179.0180  143.9120 C   0  0  1  0  0  3  0  0  0  0  0  0
  181.1610  178.6280  143.9670 C   0  0  0  0  0  1  0  0  0  0  0  0
  1  5  1  0  0  0  0
  2  3  2  0  0  0  0
  3  4  1  0  0  0  0
  3 22  1  0  0  0  0
  5  9  1  0  0  0  0
  5  4  2  0  0  0  0
  6  1  2  0  0  0  0
  6  2  1  0  0  0  0
  7  8  2  0  0  0  0
  7  9  1  0  0  0  0
  8 10  1  0  0  0  0
  9 15  2  0  0  0  0
 10 15  1  0  0  0  0
 10 11  1  1  0  0  0
 11 12  2  0  0  0  0
 12 13  1  0  0  0  0
 13 16  1  0  0  0  0
 14 13  2  0  0  0  0
 15 14  1  0  0  0  0
 16 17  1  0  0  0  0
 17 18  1  0  0  0  0
 17 19  1  0  0  0  0
 17 20  1  0  0  0  0
 19 20  1  0  0  0  0
 22 25  1  0  0  0  0
 23 24  1  0  0  0  0
 24 21  1  1  0  0  0
 25 24  1  0  0  0  0
 26 22  1  0  0  0  0
 26 27  1  0  0  0  0
 27 28  1  6  0  0  0
 27 23  1  0  0  0  0
M  END
>  <MODEL>
5

>  <REMARK>
 VINA RESULT:      -9.0      2.226      5.438
  Name = 8txz
  4 active torsions:
  status: ('A' for Active; 'I' for Inactive)
    1  A    between atoms: N_2  and  C_14
    2  A    between atoms: O_6  and  C_22
    3  A    between atoms: O_6  and  C_23
    4  A    between atoms: C_16  and  C_18
                            x       y       z     vdW  Elec       q    Type
                         _______ _______ _______ _____ _____    ______ ____

>  <TORSDO>
F 4

$$$$
8txz
 OpenBabel10232413523D

 28 32  0  0  1  0  0  0  0  0999 V2000
  187.1790  178.5020  147.7710 N   0  0  0  0  0  0  0  0  0  0  0  0
  185.2570  178.9240  146.6620 N   0  0  0  0  0  0  0  0  0  0  0  0
  185.7340  178.4830  145.6140 C   0  0  0  0  0  0  0  0  0  0  0  0
  186.9390  178.0130  145.5030 C   0  0  0  0  0  3  0  0  0  0  0  0
  187.7050  178.0140  146.6100 C   0  0  0  0  0  0  0  0  0  0  0  0
  185.9320  178.9460  147.7230 C   0  0  0  0  0  3  0  0  0  0  0  0
  189.6830  177.4390  147.4720 N   0  0  0  0  0  0  0  0  0  0  0  0
  190.8160  176.9440  147.0730 N   0  0  0  0  0  0  0  0  0  0  0  0
  189.0910  177.4820  146.5000 C   0  0  0  0  0  0  0  0  0  0  0  0
  190.8140  176.6880  145.6930 C   0  0  0  0  0  0  0  0  0  0  0  0
  191.6810  176.2040  144.8210 C   0  0  0  0  0  2  0  0  0  0  0  0
  191.2980  176.1160  143.5770 C   0  0  0  0  0  3  0  0  0  0  0  0
  190.0810  176.4990  143.1940 C   0  0  0  0  0  0  0  0  0  0  0  0
  189.2340  176.9780  144.1010 C   0  0  0  0  0  3  0  0  0  0  0  0
  189.5630  177.0880  145.3410 C   0  0  0  0  0  0  0  0  0  0  0  0
  189.7650  176.3630  141.8370 O   0  0  0  0  0  0  0  0  0  0  0  0
  189.9960  177.3740  140.9690 C   0  0  0  0  0  0  0  0  0  0  0  0
  191.3710  177.5030  140.3720 C   0  0  0  0  0  1  0  0  0  0  0  0
  189.0600  178.5400  140.8410 C   0  0  0  0  0  2  0  0  0  0  0  0
  188.8270  177.3000  140.0450 C   0  0  0  0  0  2  0  0  0  0  0  0
  185.5890  179.0010  140.9830 C   0  0  0  0  0  1  0  0  0  0  0  0
  184.9130  178.4940  144.4740 N   0  0  0  0  0  0  0  0  0  0  0  0
  183.6980  179.1300  142.2640 O   0  0  0  0  0  0  0  0  0  0  0  0
  184.7620  178.3670  142.0390 C   0  0  2  0  0  3  0  0  0  0  0  0
  185.5710  178.1390  143.2610 C   0  0  0  0  0  2  0  0  0  0  0  0
  183.5230  178.8350  144.5390 C   0  0  0  0  0  2  0  0  0  0  0  0
  182.9070  178.6260  143.2050 C   0  0  1  0  0  3  0  0  0  0  0  0
  181.5530  179.2480  143.0410 C   0  0  0  0  0  1  0  0  0  0  0  0
  2  6  2  0  0  0  0
  3  2  1  0  0  0  0
  4  3  2  0  0  0  0
  4  5  1  0  0  0  0
  5  1  2  0  0  0  0
  6  1  1  0  0  0  0
  8  7  1  0  0  0  0
  9  5  1  0  0  0  0
  9  7  2  0  0  0  0
 10  8  2  0  0  0  0
 11 10  1  0  0  0  0
 12 11  1  0  0  0  0
 13 12  2  0  0  0  0
 13 14  1  0  0  0  0
 14 15  2  0  0  0  0
 15 10  1  0  0  0  0
 15  9  1  0  0  0  0
 16 13  1  0  0  0  0
 17 16  1  0  0  0  0
 18 17  1  0  0  0  0
 19 17  1  0  0  0  0
 20 19  1  0  0  0  0
 20 17  1  0  0  0  0
 22 26  1  0  0  0  0
 22  3  1  0  0  0  0
 23 27  1  0  0  0  0
 24 21  1  6  0  0  0
 24 23  1  0  0  0  0
 24 25  1  0  0  0  0
 25 22  1  0  0  0  0
 27 28  1  1  0  0  0
 27 26  1  0  0  0  0
M  END
>  <MODEL>
6

>  <REMARK>
 VINA RESULT:      -9.0      2.181      4.736
  Name = 8txz
  4 active torsions:
  status: ('A' for Active; 'I' for Inactive)
    1  A    between atoms: N_2  and  C_14
    2  A    between atoms: O_6  and  C_22
    3  A    between atoms: O_6  and  C_23
    4  A    between atoms: C_16  and  C_18
                            x       y       z     vdW  Elec       q    Type
                         _______ _______ _______ _____ _____    ______ ____

>  <TORSDO>
F 4

$$$$
8txz
 OpenBabel10232413523D

 28 32  0  0  1  0  0  0  0  0999 V2000
  185.3880  178.6220  146.3330 N   0  0  0  0  0  0  0  0  0  0  0  0
  187.4500  178.2180  147.1620 N   0  0  0  0  0  0  0  0  0  0  0  0
  187.8890  177.9960  146.0310 C   0  0  0  0  0  0  0  0  0  0  0  0
  187.1770  178.0540  144.9480 C   0  0  0  0  0  3  0  0  0  0  0  0
  185.8760  178.3770  145.0830 C   0  0  0  0  0  0  0  0  0  0  0  0
  186.2430  178.5230  147.3400 C   0  0  0  0  0  3  0  0  0  0  0  0
  183.9170  178.4310  144.0140 N   0  0  0  0  0  0  0  0  0  0  0  0
  183.4690  178.5030  142.7970 N   0  0  0  0  0  0  0  0  0  0  0  0
  185.0440  178.4450  143.8510 C   0  0  0  0  0  0  0  0  0  0  0  0
  184.5140  178.5660  141.8620 C   0  0  2  0  0  3  0  0  0  0  0  0
  184.6010  178.6460  140.5460 C   0  0  0  0  0  3  0  0  0  0  0  0
  185.7950  178.6840  140.0220 C   0  0  0  0  0  3  0  0  0  0  0  0
  186.8900  178.6420  140.7800 C   0  0  0  0  0  0  0  0  0  0  0  0
  186.7630  178.5640  142.1020 C   0  0  0  0  0  3  0  0  0  0  0  0
  185.6070  178.5230  142.6690 C   0  0  0  0  0  0  0  0  0  0  0  0
  188.1250  178.6900  140.1230 O   0  0  0  0  0  0  0  0  0  0  0  0
  188.6210  177.5950  139.5040 C   0  0  0  0  0  0  0  0  0  0  0  0
  187.9610  177.1340  138.2330 C   0  0  0  0  0  1  0  0  0  0  0  0
  189.5620  176.6520  140.1920 C   0  0  0  0  0  2  0  0  0  0  0  0
  190.0900  177.8540  139.4860 C   0  0  0  0  0  2  0  0  0  0  0  0
  191.4800  177.4080  143.1160 C   0  0  0  0  0  1  0  0  0  0  0  0
  189.2490  177.6610  145.9200 N   0  0  0  0  0  0  0  0  0  0  0  0
  191.5210  176.5850  145.2510 O   0  0  0  0  0  0  0  0  0  0  0  0
  191.2770  177.6920  144.5590 C   0  0  2  0  0  3  0  0  0  0  0  0
  189.9120  178.2250  144.7920 C   0  0  0  0  0  2  0  0  0  0  0  0
  189.9070  176.8190  146.8740 C   0  0  0  0  0  2  0  0  0  0  0  0
  191.3560  176.7630  146.5580 C   0  0  1  0  0  3  0  0  0  0  0  0
  192.1040  175.6720  147.2620 C   0  0  0  0  0  1  0  0  0  0  0  0
  1  6  1  0  0  0  0
  2  6  2  0  0  0  0
  3  2  1  0  0  0  0
  4  5  1  0  0  0  0
  4  3  2  0  0  0  0
  5  1  2  0  0  0  0
  8  7  2  0  0  0  0
  9  7  1  0  0  0  0
  9  5  1  0  0  0  0
 10 11  1  6  0  0  0
 10 15  1  0  0  0  0
 10  8  1  0  0  0  0
 12 11  2  0  0  0  0
 12 13  1  0  0  0  0
 13 14  2  0  0  0  0
 14 15  1  0  0  0  0
 15  9  2  0  0  0  0
 16 13  1  0  0  0  0
 17 16  1  0  0  0  0
 17 19  1  0  0  0  0
 18 17  1  0  0  0  0
 20 17  1  0  0  0  0
 20 19  1  0  0  0  0
 22  3  1  0  0  0  0
 22 26  1  0  0  0  0
 23 27  1  0  0  0  0
 24 21  1  6  0  0  0
 24 25  1  0  0  0  0
 24 23  1  0  0  0  0
 25 22  1  0  0  0  0
 27 26  1  0  0  0  0
 27 28  1  1  0  0  0
M  END
>  <MODEL>
7

>  <REMARK>
 VINA RESULT:      -8.9      1.634      5.717
  Name = 8txz
  4 active torsions:
  status: ('A' for Active; 'I' for Inactive)
    1  A    between atoms: N_2  and  C_14
    2  A    between atoms: O_6  and  C_22
    3  A    between atoms: O_6  and  C_23
    4  A    between atoms: C_16  and  C_18
                            x       y       z     vdW  Elec       q    Type
                         _______ _______ _______ _____ _____    ______ ____

>  <TORSDO>
F 4

$$$$
8txz
 OpenBabel10232413523D

 28 32  0  0  1  0  0  0  0  0999 V2000
  191.0930  177.2590  141.0290 N   0  0  0  0  0  0  0  0  0  0  0  0
  189.4980  177.5840  139.4630 N   0  0  0  0  0  0  0  0  0  0  0  0
  188.6610  177.8390  140.3310 C   0  0  0  0  0  0  0  0  0  0  0  0
  188.9090  177.8410  141.6040 C   0  0  0  0  0  3  0  0  0  0  0  0
  190.1650  177.5420  141.9880 C   0  0  0  0  0  0  0  0  0  0  0  0
  190.6850  177.3000  139.7690 C   0  0  0  0  0  3  0  0  0  0  0  0
  191.5700  177.5790  143.7230 N   0  0  0  0  0  0  0  0  0  0  0  0
  191.5200  177.5640  145.0210 N   0  0  0  0  0  0  0  0  0  0  0  0
  190.4660  177.5370  143.4460 C   0  0  0  0  0  0  0  0  0  0  0  0
  190.1990  177.5090  145.4900 C   0  0  0  0  0  0  0  0  0  0  0  0
  189.6180  177.4730  146.6760 C   0  0  0  0  0  3  0  0  0  0  0  0
  188.3150  177.4210  146.7080 C   0  0  0  0  0  3  0  0  0  0  0  0
  187.5910  177.4030  145.5900 C   0  0  0  0  0  0  0  0  0  0  0  0
  188.2110  177.4430  144.4130 C   0  0  0  0  0  3  0  0  0  0  0  0
  189.4950  177.4930  144.3270 C   0  0  2  0  0  3  0  0  0  0  0  0
  186.1990  177.3490  145.7290 O   0  0  0  0  0  0  0  0  0  0  0  0
  185.4970  178.4500  146.0800 C   0  0  0  0  0  0  0  0  0  0  0  0
  185.9670  179.2480  147.2660 C   0  0  0  0  0  1  0  0  0  0  0  0
  184.1160  178.7110  145.5560 C   0  0  0  0  0  2  0  0  0  0  0  0
  185.3080  179.1570  144.7790 C   0  0  0  0  0  2  0  0  0  0  0  0
  184.2370  178.5070  141.6440 C   0  0  0  0  0  1  0  0  0  0  0  0
  187.3580  178.1460  139.9030 N   0  0  0  0  0  0  0  0  0  0  0  0
  184.7950  178.1320  139.4570 O   0  0  0  0  0  0  0  0  0  0  0  0
  185.1090  178.8860  140.5050 C   0  0  2  0  0  3  0  0  0  0  0  0
  186.5370  178.7690  140.8880 C   0  0  0  0  0  2  0  0  0  0  0  0
  186.9020  177.8520  138.5770 C   0  0  0  0  0  2  0  0  0  0  0  0
  185.5410  178.4140  138.3930 C   0  0  1  0  0  3  0  0  0  0  0  0
  184.8160  177.9050  137.1840 C   0  0  0  0  0  1  0  0  0  0  0  0
  1  5  1  0  0  0  0
  2  6  1  0  0  0  0
  2  3  2  0  0  0  0
  3  4  1  0  0  0  0
  4  5  2  0  0  0  0
  5  9  1  0  0  0  0
  6  1  2  0  0  0  0
  7  8  1  0  0  0  0
  8 10  2  0  0  0  0
  9  7  2  0  0  0  0
  9 15  1  0  0  0  0
 10 11  1  0  0  0  0
 11 12  2  0  0  0  0
 13 16  1  0  0  0  0
 13 12  1  0  0  0  0
 14 13  2  0  0  0  0
 15 14  1  6  0  0  0
 15 10  1  0  0  0  0
 16 17  1  0  0  0  0
 17 18  1  0  0  0  0
 19 17  1  0  0  0  0
 20 19  1  0  0  0  0
 20 17  1  0  0  0  0
 22  3  1  0  0  0  0
 22 25  1  0  0  0  0
 23 24  1  0  0  0  0
 24 25  1  0  0  0  0
 24 21  1  1  0  0  0
 26 22  1  0  0  0  0
 27 28  1  6  0  0  0
 27 26  1  0  0  0  0
 27 23  1  0  0  0  0
M  END
>  <MODEL>
8

>  <REMARK>
 VINA RESULT:      -8.9      2.580      4.828
  Name = 8txz
  4 active torsions:
  status: ('A' for Active; 'I' for Inactive)
    1  A    between atoms: N_2  and  C_14
    2  A    between atoms: O_6  and  C_22
    3  A    between atoms: O_6  and  C_23
    4  A    between atoms: C_16  and  C_18
                            x       y       z     vdW  Elec       q    Type
                         _______ _______ _______ _____ _____    ______ ____

>  <TORSDO>
F 4

$$$$
8txz
 OpenBabel10232413523D

 28 32  0  0  1  0  0  0  0  0999 V2000
  191.6090  177.4550  142.2500 N   0  0  0  0  0  0  0  0  0  0  0  0
  190.8710  177.7090  144.3700 N   0  0  0  0  0  0  0  0  0  0  0  0
  189.7080  177.5070  144.0170 C   0  0  0  0  0  0  0  0  0  0  0  0
  189.3490  177.2610  142.7940 C   0  0  0  0  0  3  0  0  0  0  0  0
  190.3200  177.2300  141.8610 C   0  0  0  0  0  0  0  0  0  0  0  0
  191.8140  177.6910  143.5370 C   0  0  0  0  0  3  0  0  0  0  0  0
  190.6450  176.3000  139.8580 N   0  0  0  0  0  0  0  0  0  0  0  0
  190.0520  176.2330  138.7040 N   0  0  0  0  0  0  0  0  0  0  0  0
  189.9270  176.9530  140.4530 C   0  0  0  0  0  0  0  0  0  0  0  0
  188.8480  176.9530  138.6960 C   0  0  2  0  0  3  0  0  0  0  0  0
  187.8990  177.1990  137.8090 C   0  0  0  0  0  3  0  0  0  0  0  0
  186.8970  177.9430  138.1890 C   0  0  0  0  0  3  0  0  0  0  0  0
  186.8270  178.4400  139.4230 C   0  0  0  0  0  0  0  0  0  0  0  0
  187.7990  178.1690  140.2900 C   0  0  0  0  0  3  0  0  0  0  0  0
  188.8110  177.4410  139.9650 C   0  0  0  0  0  0  0  0  0  0  0  0
  185.7100  179.2240  139.7350 O   0  0  0  0  0  0  0  0  0  0  0  0
  184.5310  178.6470  140.0610 C   0  0  0  0  0  0  0  0  0  0  0  0
  184.2950  178.2670  141.4970 C   0  0  0  0  0  1  0  0  0  0  0  0
  183.6110  178.0810  139.0200 C   0  0  0  0  0  2  0  0  0  0  0  0
  183.5300  179.5240  139.3860 C   0  0  0  0  0  2  0  0  0  0  0  0
  185.3240  178.7330  145.0260 C   0  0  0  0  0  1  0  0  0  0  0  0
  188.7140  177.5460  145.0090 N   0  0  0  0  0  0  0  0  0  0  0  0
  186.8540  178.2880  146.6690 O   0  0  0  0  0  0  0  0  0  0  0  0
  186.3440  177.7900  145.5480 C   0  0  2  0  0  3  0  0  0  0  0  0
  187.3770  177.5250  144.5170 C   0  0  0  0  0  2  0  0  0  0  0  0
  189.0330  177.6000  146.4050 C   0  0  0  0  0  2  0  0  0  0  0  0
  187.7820  177.4960  147.1960 C   0  0  1  0  0  3  0  0  0  0  0  0
  187.9270  177.8660  148.6410 C   0  0  0  0  0  1  0  0  0  0  0  0
  1  6  1  0  0  0  0
  3  2  1  0  0  0  0
  3 22  1  0  0  0  0
  4  3  2  0  0  0  0
  5  1  2  0  0  0  0
  5  4  1  0  0  0  0
  6  2  2  0  0  0  0
  7  9  1  0  0  0  0
  8  7  2  0  0  0  0
  9  5  1  0  0  0  0
 10 11  1  6  0  0  0
 10  8  1  0  0  0  0
 10 15  1  0  0  0  0
 11 12  2  0  0  0  0
 12 13  1  0  0  0  0
 13 16  1  0  0  0  0
 13 14  2  0  0  0  0
 15 14  1  0  0  0  0
 15  9  2  0  0  0  0
 16 17  1  0  0  0  0
 17 18  1  0  0  0  0
 19 20  1  0  0  0  0
 19 17  1  0  0  0  0
 20 17  1  0  0  0  0
 22 26  1  0  0  0  0
 23 27  1  0  0  0  0
 24 21  1  6  0  0  0
 24 23  1  0  0  0  0
 25 22  1  0  0  0  0
 25 24  1  0  0  0  0
 26 27  1  0  0  0  0
 27 28  1  1  0  0  0
M  END
>  <MODEL>
9

>  <REMARK>
 VINA RESULT:      -8.7      2.592      7.500
  Name = 8txz
  4 active torsions:
  status: ('A' for Active; 'I' for Inactive)
    1  A    between atoms: N_2  and  C_14
    2  A    between atoms: O_6  and  C_22
    3  A    between atoms: O_6  and  C_23
    4  A    between atoms: C_16  and  C_18
                            x       y       z     vdW  Elec       q    Type
                         _______ _______ _______ _____ _____    ______ ____

>  <TORSDO>
F 4

$$$$
