8u7l
 OpenBabel10242410233D

 39 43  0  0  1  0  0  0  0  0999 V2000
  186.1060  178.2560  137.8440 C   0  0  0  0  0  0  0  0  0  0  0  0
  185.7610  178.2670  136.7050 O   0  0  0  0  0  0  0  0  0  0  0  0
  185.1780  178.5560  138.8990 N   0  0  0  0  0  2  0  0  0  0  0  0
  191.6780  176.9150  139.2300 C   0  0  0  0  0  1  0  0  0  0  0  0
  190.2170  177.2660  138.8340 C   0  0  0  0  0  0  0  0  0  0  0  0
  189.2740  177.4820  139.8360 C   0  0  0  0  0  0  0  0  0  0  0  0
  187.9590  177.7980  139.5070 C   0  0  0  0  0  3  0  0  0  0  0  0
  187.5820  177.9000  138.1690 C   0  0  0  0  0  0  0  0  0  0  0  0
  188.5110  177.6840  137.1630 C   0  0  0  0  0  3  0  0  0  0  0  0
  189.8430  177.3670  137.4980 C   0  0  0  0  0  3  0  0  0  0  0  0
  189.6700  177.3720  141.3220 C   0  0  0  0  0  0  0  0  0  0  0  0
  189.9560  177.3130  142.4840 C   0  0  0  0  0  0  0  0  0  0  0  0
  190.3160  177.2440  143.9820 C   0  0  1  0  0  3  0  0  0  0  0  0
  191.3110  176.3580  144.4320 C   0  0  0  0  0  3  0  0  0  0  0  0
  191.5980  176.3420  145.8250 C   0  0  0  0  0  0  0  0  0  0  0  0
  190.9060  177.1790  146.6580 C   0  0  0  0  0  0  0  0  0  0  0  0
  191.3710  176.9670  147.9240 N   0  0  0  0  0  0  0  0  0  0  0  0
  192.3340  176.0210  147.9140 N   0  0  0  0  0  0  0  0  0  0  0  0
  192.5070  175.6140  146.6630 C   0  0  0  0  0  3  0  0  0  0  0  0
  189.9520  178.0230  146.1820 N   0  0  0  0  0  0  0  0  0  0  0  0
  189.6510  178.0720  144.8940 C   0  0  0  0  0  3  0  0  0  0  0  0
  183.7760  178.8940  138.5970 C   0  0  0  0  0  0  0  0  0  0  0  0
  182.9470  177.9610  137.9790 C   0  0  0  0  0  3  0  0  0  0  0  0
  181.6220  178.2690  137.6880 C   0  0  0  0  0  0  0  0  0  0  0  0
  181.1090  179.5360  138.0300 C   0  0  0  0  0  0  0  0  0  0  0  0
  181.9400  180.4640  138.6550 C   0  0  0  0  0  3  0  0  0  0  0  0
  183.2730  180.1520  138.9410 C   0  0  0  0  0  3  0  0  0  0  0  0
  180.7930  177.1890  136.9990 C   0  0  0  0  0  0  0  0  0  0  0  0
  180.4210  177.5950  135.7600 F   0  0  0  0  0  0  0  0  0  0  0  0
  181.5720  176.0720  136.8740 F   0  0  0  0  0  0  0  0  0  0  0  0
  179.7040  176.8680  137.7370 F   0  0  0  0  0  0  0  0  0  0  0  0
  179.6290  179.9360  137.7340 C   0  0  0  0  0  2  0  0  0  0  0  0
  179.5800  180.9400  136.9620 N   0  0  0  0  0  0  0  0  0  0  0  0
  180.6180  180.8560  136.0590 C   0  0  0  0  0  2  0  0  0  0  0  0
  180.7510  182.1170  135.2060 C   0  0  0  0  0  2  0  0  0  0  0  0
  180.7910  183.2590  135.9790 N   0  0  0  0  0  0  0  0  0  0  0  0
  179.7420  183.3470  136.8570 C   0  0  0  0  0  2  0  0  0  0  0  0
  179.6340  182.0870  137.7220 C   0  0  0  0  0  2  0  0  0  0  0  0
  180.8090  184.2810  135.2300 C   0  0  0  0  0  1  0  0  0  0  0  0
  1  8  1  0  0  0  0
  1  3  1  0  0  0  0
  2  1  2  0  0  0  0
  5  4  1  0  0  0  0
  5  6  1  0  0  0  0
  6 11  1  0  0  0  0
  7  6  2  0  0  0  0
  8  7  1  0  0  0  0
  9 10  1  0  0  0  0
  9  8  2  0  0  0  0
 10  5  2  0  0  0  0
 11 12  3  0  0  0  0
 13 12  1  6  0  0  0
 13 14  1  0  0  0  0
 13 21  1  0  0  0  0
 14 15  2  0  0  0  0
 15 16  1  0  0  0  0
 15 19  1  0  0  0  0
 16 17  2  0  0  0  0
 18 17  1  0  0  0  0
 19 18  2  0  0  0  0
 20 16  1  0  0  0  0
 21 20  2  0  0  0  0
 22  3  1  0  0  0  0
 22 27  1  0  0  0  0
 23 22  2  0  0  0  0
 24 23  1  0  0  0  0
 24 25  2  0  0  0  0
 25 26  1  0  0  0  0
 26 27  2  0  0  0  0
 28 24  1  0  0  0  0
 28 31  1  0  0  0  0
 29 28  1  0  0  0  0
 30 28  1  0  0  0  0
 32 25  1  0  0  0  0
 33 38  1  0  0  0  0
 33 32  1  0  0  0  0
 34 33  1  0  0  0  0
 35 36  1  0  0  0  0
 35 34  1  0  0  0  0
 36 37  1  0  0  0  0
 37 38  1  0  0  0  0
 39 36  1  0  0  0  0
M  END
>  <MODEL>
1

>  <REMARK>
 VINA RESULT:      -7.4      0.000      0.000
  Name = 8u7l
  8 active torsions:
  status: ('A' for Active; 'I' for Inactive)
    1  A    between atoms: C_3  and  C_26
    2  A    between atoms: C_5  and  C_8
    3  A    between atoms: N_10  and  C_11
    4  A    between atoms: C_13  and  C_25
    5  A    between atoms: C_14  and  C_17
    6  A    between atoms: C_17  and  N_18
    7  A    between atoms: C_26  and  C_27
    8  A    between atoms: C_27  and  C_28
                            x       y       z     vdW  Elec       q    Type
                         _______ _______ _______ _____ _____    ______ ____

>  <TORSDO>
F 8

$$$$
8u7l
 OpenBabel10242410233D

 39 43  0  0  1  0  0  0  0  0999 V2000
  183.2200  178.1460  140.7570 C   0  0  0  0  0  0  0  0  0  0  0  0
  182.9600  179.0780  140.0640 O   0  0  0  0  0  0  0  0  0  0  0  0
  183.1750  176.8070  140.2390 N   0  0  0  0  0  2  0  0  0  0  0  0
  184.8850  179.0760  146.3370 C   0  0  0  0  0  1  0  0  0  0  0  0
  184.4180  178.8440  144.8730 C   0  0  0  0  0  0  0  0  0  0  0  0
  185.2910  178.2480  143.9670 C   0  0  0  0  0  0  0  0  0  0  0  0
  184.8970  178.0290  142.6490 C   0  0  0  0  0  3  0  0  0  0  0  0
  183.6220  178.4090  142.2330 C   0  0  0  0  0  0  0  0  0  0  0  0
  182.7450  179.0060  143.1260 C   0  0  0  0  0  3  0  0  0  0  0  0
  183.1450  179.2240  144.4590 C   0  0  0  0  0  3  0  0  0  0  0  0
  186.7070  177.8230  144.4060 C   0  0  0  0  0  0  0  0  0  0  0  0
  187.7950  177.4860  144.7800 C   0  0  0  0  0  0  0  0  0  0  0  0
  189.1900  177.0500  145.2700 C   0  0  1  0  0  3  0  0  0  0  0  0
  189.5060  177.0920  146.6400 C   0  0  0  0  0  3  0  0  0  0  0  0
  190.8100  176.6760  147.0270 C   0  0  0  0  0  0  0  0  0  0  0  0
  191.6890  176.2560  146.0660 C   0  0  0  0  0  0  0  0  0  0  0  0
  192.8500  175.9160  146.6990 N   0  0  0  0  0  0  0  0  0  0  0  0
  192.7290  176.1100  148.0300 N   0  0  0  0  0  0  0  0  0  0  0  0
  191.5090  176.5680  148.2760 C   0  0  0  0  0  3  0  0  0  0  0  0
  191.3430  176.2290  144.7520 N   0  0  0  0  0  0  0  0  0  0  0  0
  190.1420  176.6070  144.3440 C   0  0  0  0  0  3  0  0  0  0  0  0
  182.7960  176.5510  138.8380 C   0  0  0  0  0  0  0  0  0  0  0  0
  183.7300  176.7140  137.8180 C   0  0  0  0  0  3  0  0  0  0  0  0
  183.3820  176.4770  136.4910 C   0  0  0  0  0  0  0  0  0  0  0  0
  182.0740  176.0600  136.1770 C   0  0  0  0  0  0  0  0  0  0  0  0
  181.1450  175.8910  137.2020 C   0  0  0  0  0  3  0  0  0  0  0  0
  181.4970  176.1360  138.5330 C   0  0  0  0  0  3  0  0  0  0  0  0
  184.4680  176.6930  135.4410 C   0  0  0  0  0  0  0  0  0  0  0  0
  184.1200  177.6980  134.6000 F   0  0  0  0  0  0  0  0  0  0  0  0
  185.6190  177.0460  136.0880 F   0  0  0  0  0  0  0  0  0  0  0  0
  184.7030  175.5550  134.7450 F   0  0  0  0  0  0  0  0  0  0  0  0
  181.6290  175.7730  134.7080 C   0  0  0  0  0  2  0  0  0  0  0  0
  181.1900  174.5900  134.5940 N   0  0  0  0  0  0  0  0  0  0  0  0
  179.9500  174.5160  135.1930 C   0  0  0  0  0  2  0  0  0  0  0  0
  179.4250  173.0830  135.2680 C   0  0  0  0  0  2  0  0  0  0  0  0
  180.3500  172.2240  135.8230 N   0  0  0  0  0  0  0  0  0  0  0  0
  181.5730  172.2860  135.2070 C   0  0  0  0  0  2  0  0  0  0  0  0
  182.1000  173.7230  135.1580 C   0  0  0  0  0  2  0  0  0  0  0  0
  179.9090  171.0370  135.7820 C   0  0  0  0  0  1  0  0  0  0  0  0
  1  8  1  0  0  0  0
  2  1  2  0  0  0  0
  3  1  1  0  0  0  0
  5  4  1  0  0  0  0
  6 11  1  0  0  0  0
  6  5  2  0  0  0  0
  7  6  1  0  0  0  0
  8  7  2  0  0  0  0
  8  9  1  0  0  0  0
  9 10  2  0  0  0  0
 10  5  1  0  0  0  0
 11 12  3  0  0  0  0
 13 12  1  1  0  0  0
 13 14  1  0  0  0  0
 14 15  2  0  0  0  0
 15 19  1  0  0  0  0
 16 17  2  0  0  0  0
 16 15  1  0  0  0  0
 17 18  1  0  0  0  0
 18 19  2  0  0  0  0
 20 16  1  0  0  0  0
 21 20  2  0  0  0  0
 21 13  1  0  0  0  0
 22  3  1  0  0  0  0
 23 22  2  0  0  0  0
 24 23  1  0  0  0  0
 25 24  2  0  0  0  0
 25 26  1  0  0  0  0
 26 27  2  0  0  0  0
 27 22  1  0  0  0  0
 28 30  1  0  0  0  0
 28 24  1  0  0  0  0
 29 28  1  0  0  0  0
 31 28  1  0  0  0  0
 32 25  1  0  0  0  0
 33 32  1  0  0  0  0
 33 38  1  0  0  0  0
 33 34  1  0  0  0  0
 34 35  1  0  0  0  0
 35 36  1  0  0  0  0
 37 36  1  0  0  0  0
 38 37  1  0  0  0  0
 39 36  1  0  0  0  0
M  END
>  <MODEL>
2

>  <REMARK>
 VINA RESULT:      -7.3      4.212      6.012
  Name = 8u7l
  8 active torsions:
  status: ('A' for Active; 'I' for Inactive)
    1  A    between atoms: C_3  and  C_26
    2  A    between atoms: C_5  and  C_8
    3  A    between atoms: N_10  and  C_11
    4  A    between atoms: C_13  and  C_25
    5  A    between atoms: C_14  and  C_17
    6  A    between atoms: C_17  and  N_18
    7  A    between atoms: C_26  and  C_27
    8  A    between atoms: C_27  and  C_28
                            x       y       z     vdW  Elec       q    Type
                         _______ _______ _______ _____ _____    ______ ____

>  <TORSDO>
F 8

$$$$
8u7l
 OpenBabel10242410233D

 39 43  0  0  1  0  0  0  0  0999 V2000
  184.0260  178.4620  141.4730 C   0  0  0  0  0  0  0  0  0  0  0  0
  183.4530  178.7700  142.4690 O   0  0  0  0  0  0  0  0  0  0  0  0
  185.4020  178.0530  141.5110 N   0  0  0  0  0  2  0  0  0  0  0  0
  181.0850  178.4510  136.3620 C   0  0  0  0  0  1  0  0  0  0  0  0
  181.8590  178.4860  137.7090 C   0  0  0  0  0  0  0  0  0  0  0  0
  182.2330  177.2860  138.3090 C   0  0  0  0  0  0  0  0  0  0  0  0
  182.9270  177.2900  139.5170 C   0  0  0  0  0  3  0  0  0  0  0  0
  183.2500  178.5000  140.1290 C   0  0  0  0  0  0  0  0  0  0  0  0
  182.8800  179.7000  139.5410 C   0  0  0  0  0  3  0  0  0  0  0  0
  182.1800  179.6940  138.3190 C   0  0  0  0  0  3  0  0  0  0  0  0
  181.8830  175.9370  137.6500 C   0  0  0  0  0  0  0  0  0  0  0  0
  181.6000  174.9060  137.1090 C   0  0  0  0  0  0  0  0  0  0  0  0
  181.2360  173.5840  136.4040 C   0  0  1  0  0  3  0  0  0  0  0  0
  180.1850  172.7860  136.8930 C   0  0  0  0  0  3  0  0  0  0  0  0
  179.8980  171.5780  136.1980 C   0  0  0  0  0  0  0  0  0  0  0  0
  180.6430  171.2490  135.0970 C   0  0  0  0  0  0  0  0  0  0  0  0
  180.1650  170.0600  134.6260 N   0  0  0  0  0  0  0  0  0  0  0  0
  179.1430  169.6300  135.3960 N   0  0  0  0  0  0  0  0  0  0  0  0
  178.9440  170.5190  136.3600 C   0  0  0  0  0  3  0  0  0  0  0  0
  181.6490  172.0490  134.6570 N   0  0  0  0  0  0  0  0  0  0  0  0
  181.9530  173.1820  135.2710 C   0  0  0  0  0  3  0  0  0  0  0  0
  186.1430  178.0130  142.7840 C   0  0  0  0  0  0  0  0  0  0  0  0
  185.5010  178.3240  143.9800 C   0  0  0  0  0  3  0  0  0  0  0  0
  186.1920  178.2910  145.1870 C   0  0  0  0  0  0  0  0  0  0  0  0
  187.5540  177.9300  145.2030 C   0  0  0  0  0  0  0  0  0  0  0  0
  188.1900  177.6120  144.0040 C   0  0  0  0  0  3  0  0  0  0  0  0
  187.4940  177.6520  142.7920 C   0  0  0  0  0  3  0  0  0  0  0  0
  185.4080  178.6590  146.4440 C   0  0  0  0  0  0  0  0  0  0  0  0
  185.7260  179.9130  146.8500 F   0  0  0  0  0  0  0  0  0  0  0  0
  184.0760  178.6240  146.1390 F   0  0  0  0  0  0  0  0  0  0  0  0
  185.6400  177.7690  147.4390 F   0  0  0  0  0  0  0  0  0  0  0  0
  188.3780  177.8690  146.5280 C   0  0  0  0  0  2  0  0  0  0  0  0
  189.3310  177.0400  146.4270 N   0  0  0  0  0  0  0  0  0  0  0  0
  189.5060  176.4150  147.6420 C   0  0  0  0  0  2  0  0  0  0  0  0
  190.7540  175.5330  147.6680 C   0  0  0  0  0  2  0  0  0  0  0  0
  191.8740  176.2130  147.2380 N   0  0  0  0  0  0  0  0  0  0  0  0
  191.7000  176.8130  146.0180 C   0  0  0  0  0  2  0  0  0  0  0  0
  190.4600  177.7120  146.0120 C   0  0  0  0  0  2  0  0  0  0  0  0
  192.8620  175.4220  147.1890 C   0  0  0  0  0  1  0  0  0  0  0  0
  1  3  1  0  0  0  0
  1  2  2  0  0  0  0
  3 22  1  0  0  0  0
  4  5  1  0  0  0  0
  5  6  2  0  0  0  0
  5 10  1  0  0  0  0
  6  7  1  0  0  0  0
  7  8  2  0  0  0  0
  8  1  1  0  0  0  0
  9  8  1  0  0  0  0
 10  9  2  0  0  0  0
 11  6  1  0  0  0  0
 12 11  3  0  0  0  0
 13 14  1  0  0  0  0
 13 12  1  6  0  0  0
 15 19  1  0  0  0  0
 15 14  2  0  0  0  0
 16 15  1  0  0  0  0
 17 16  2  0  0  0  0
 17 18  1  0  0  0  0
 18 19  2  0  0  0  0
 20 16  1  0  0  0  0
 20 21  2  0  0  0  0
 21 13  1  0  0  0  0
 22 27  2  0  0  0  0
 22 23  1  0  0  0  0
 23 24  2  0  0  0  0
 24 25  1  0  0  0  0
 24 28  1  0  0  0  0
 25 32  1  0  0  0  0
 26 25  2  0  0  0  0
 27 26  1  0  0  0  0
 28 29  1  0  0  0  0
 28 31  1  0  0  0  0
 30 28  1  0  0  0  0
 33 32  1  0  0  0  0
 33 34  1  0  0  0  0
 34 35  1  0  0  0  0
 36 35  1  0  0  0  0
 37 36  1  0  0  0  0
 38 37  1  0  0  0  0
 38 33  1  0  0  0  0
 39 36  1  0  0  0  0
M  END
>  <MODEL>
3

>  <REMARK>
 VINA RESULT:      -7.1      5.090     12.250
  Name = 8u7l
  8 active torsions:
  status: ('A' for Active; 'I' for Inactive)
    1  A    between atoms: C_3  and  C_26
    2  A    between atoms: C_5  and  C_8
    3  A    between atoms: N_10  and  C_11
    4  A    between atoms: C_13  and  C_25
    5  A    between atoms: C_14  and  C_17
    6  A    between atoms: C_17  and  N_18
    7  A    between atoms: C_26  and  C_27
    8  A    between atoms: C_27  and  C_28
                            x       y       z     vdW  Elec       q    Type
                         _______ _______ _______ _____ _____    ______ ____

>  <TORSDO>
F 8

$$$$
8u7l
 OpenBabel10242410233D

 39 43  0  0  1  0  0  0  0  0999 V2000
  183.4460  178.0600  141.2260 C   0  0  0  0  0  0  0  0  0  0  0  0
  182.6040  177.2310  141.0840 O   0  0  0  0  0  0  0  0  0  0  0  0
  184.0060  178.7440  140.0940 N   0  0  0  0  0  2  0  0  0  0  0  0
  185.3830  179.2600  146.6650 C   0  0  0  0  0  1  0  0  0  0  0  0
  184.8450  178.9590  145.2380 C   0  0  0  0  0  0  0  0  0  0  0  0
  185.6510  178.2640  144.3400 C   0  0  0  0  0  0  0  0  0  0  0  0
  185.1930  177.9810  143.0560 C   0  0  0  0  0  3  0  0  0  0  0  0
  183.9200  178.3960  142.6650 C   0  0  0  0  0  0  0  0  0  0  0  0
  183.1110  179.0920  143.5500 C   0  0  0  0  0  3  0  0  0  0  0  0
  183.5760  179.3740  144.8500 C   0  0  0  0  0  3  0  0  0  0  0  0
  187.0620  177.7980  144.7520 C   0  0  0  0  0  0  0  0  0  0  0  0
  188.1450  177.4200  145.1010 C   0  0  0  0  0  0  0  0  0  0  0  0
  189.5330  176.9280  145.5550 C   0  0  1  0  0  3  0  0  0  0  0  0
  189.8910  176.9700  146.9150 C   0  0  0  0  0  3  0  0  0  0  0  0
  191.1860  176.5010  147.2700 C   0  0  0  0  0  0  0  0  0  0  0  0
  192.0180  176.0340  146.2890 C   0  0  0  0  0  0  0  0  0  0  0  0
  193.1810  175.6500  146.8920 N   0  0  0  0  0  0  0  0  0  0  0  0
  193.1070  175.8630  148.2230 N   0  0  0  0  0  0  0  0  0  0  0  0
  191.9150  176.3760  148.4990 C   0  0  0  0  0  3  0  0  0  0  0  0
  191.6330  176.0090  144.9850 N   0  0  0  0  0  0  0  0  0  0  0  0
  190.4380  176.4340  144.6080 C   0  0  0  0  0  3  0  0  0  0  0  0
  183.5590  178.4300  138.7250 C   0  0  0  0  0  0  0  0  0  0  0  0
  182.4670  179.0950  138.1740 C   0  0  0  0  0  3  0  0  0  0  0  0
  182.0350  178.8060  136.8830 C   0  0  0  0  0  0  0  0  0  0  0  0
  182.7150  177.8350  136.1210 C   0  0  0  0  0  0  0  0  0  0  0  0
  183.8120  177.1770  136.6750 C   0  0  0  0  0  3  0  0  0  0  0  0
  184.2390  177.4670  137.9740 C   0  0  0  0  0  3  0  0  0  0  0  0
  180.8230  179.5770  136.3680 C   0  0  0  0  0  0  0  0  0  0  0  0
  179.6850  178.8710  136.5840 F   0  0  0  0  0  0  0  0  0  0  0  0
  180.7430  180.7530  137.0610 F   0  0  0  0  0  0  0  0  0  0  0  0
  180.9550  179.8660  135.0520 F   0  0  0  0  0  0  0  0  0  0  0  0
  182.2800  177.4730  134.6660 C   0  0  0  0  0  2  0  0  0  0  0  0
  181.9170  176.2600  134.5940 N   0  0  0  0  0  0  0  0  0  0  0  0
  181.0410  175.9970  135.6250 C   0  0  0  0  0  2  0  0  0  0  0  0
  180.6950  174.5120  135.7280 C   0  0  0  0  0  2  0  0  0  0  0  0
  181.8240  173.7210  135.7570 N   0  0  0  0  0  0  0  0  0  0  0  0
  182.6790  173.9730  134.7160 C   0  0  0  0  0  2  0  0  0  0  0  0
  183.0370  175.4600  134.6360 C   0  0  0  0  0  2  0  0  0  0  0  0
  181.4900  172.4990  135.7510 C   0  0  0  0  0  1  0  0  0  0  0  0
  1  8  1  0  0  0  0
  2  1  2  0  0  0  0
  3  1  1  0  0  0  0
  5  4  1  0  0  0  0
  6 11  1  0  0  0  0
  6  5  2  0  0  0  0
  7  6  1  0  0  0  0
  8  7  2  0  0  0  0
  8  9  1  0  0  0  0
  9 10  2  0  0  0  0
 10  5  1  0  0  0  0
 11 12  3  0  0  0  0
 13 12  1  1  0  0  0
 13 14  1  0  0  0  0
 14 15  2  0  0  0  0
 15 19  1  0  0  0  0
 16 17  2  0  0  0  0
 16 15  1  0  0  0  0
 17 18  1  0  0  0  0
 18 19  2  0  0  0  0
 20 16  1  0  0  0  0
 21 20  2  0  0  0  0
 21 13  1  0  0  0  0
 22  3  1  0  0  0  0
 23 22  1  0  0  0  0
 24 23  2  0  0  0  0
 25 26  2  0  0  0  0
 25 24  1  0  0  0  0
 26 27  1  0  0  0  0
 27 22  2  0  0  0  0
 28 29  1  0  0  0  0
 28 24  1  0  0  0  0
 28 30  1  0  0  0  0
 31 28  1  0  0  0  0
 32 25  1  0  0  0  0
 33 38  1  0  0  0  0
 33 32  1  0  0  0  0
 33 34  1  0  0  0  0
 34 35  1  0  0  0  0
 35 36  1  0  0  0  0
 37 36  1  0  0  0  0
 38 37  1  0  0  0  0
 39 36  1  0  0  0  0
M  END
>  <MODEL>
4

>  <REMARK>
 VINA RESULT:      -7.1      3.269      5.488
  Name = 8u7l
  8 active torsions:
  status: ('A' for Active; 'I' for Inactive)
    1  A    between atoms: C_3  and  C_26
    2  A    between atoms: C_5  and  C_8
    3  A    between atoms: N_10  and  C_11
    4  A    between atoms: C_13  and  C_25
    5  A    between atoms: C_14  and  C_17
    6  A    between atoms: C_17  and  N_18
    7  A    between atoms: C_26  and  C_27
    8  A    between atoms: C_27  and  C_28
                            x       y       z     vdW  Elec       q    Type
                         _______ _______ _______ _____ _____    ______ ____

>  <TORSDO>
F 8

$$$$
8u7l
 OpenBabel10242410233D

 39 43  0  0  1  0  0  0  0  0999 V2000
  185.6300  178.2720  138.3610 C   0  0  0  0  0  0  0  0  0  0  0  0
  185.1470  178.0140  137.3040 O   0  0  0  0  0  0  0  0  0  0  0  0
  184.8420  178.8570  139.4100 N   0  0  0  0  0  2  0  0  0  0  0  0
  191.3150  177.0730  139.3740 C   0  0  0  0  0  1  0  0  0  0  0  0
  189.8220  177.3870  139.0750 C   0  0  0  0  0  0  0  0  0  0  0  0
  188.9440  177.5860  140.1380 C   0  0  0  0  0  0  0  0  0  0  0  0
  187.6020  177.8680  139.8970 C   0  0  0  0  0  3  0  0  0  0  0  0
  187.1330  177.9530  138.5870 C   0  0  0  0  0  0  0  0  0  0  0  0
  187.9980  177.7540  137.5220 C   0  0  0  0  0  3  0  0  0  0  0  0
  189.3560  177.4710  137.7670 C   0  0  0  0  0  3  0  0  0  0  0  0
  189.4410  177.4940  141.5940 C   0  0  0  0  0  0  0  0  0  0  0  0
  189.8030  177.3980  142.7330 C   0  0  0  0  0  0  0  0  0  0  0  0
  190.2590  177.2720  144.2000 C   0  0  1  0  0  3  0  0  0  0  0  0
  191.2650  176.3530  144.5530 C   0  0  0  0  0  3  0  0  0  0  0  0
  191.6410  176.2850  145.9230 C   0  0  0  0  0  0  0  0  0  0  0  0
  191.0220  177.1040  146.8270 C   0  0  0  0  0  0  0  0  0  0  0  0
  191.5640  176.8410  148.0520 N   0  0  0  0  0  0  0  0  0  0  0  0
  192.5070  175.8800  147.9470 N   0  0  0  0  0  0  0  0  0  0  0  0
  192.5900  175.5130  146.6740 C   0  0  0  0  0  3  0  0  0  0  0  0
  190.0550  177.9800  146.4440 N   0  0  0  0  0  0  0  0  0  0  0  0
  189.6710  178.0790  145.1810 C   0  0  0  0  0  3  0  0  0  0  0  0
  183.4150  179.1600  139.2020 C   0  0  0  0  0  0  0  0  0  0  0  0
  182.5550  179.2720  140.2920 C   0  0  0  0  0  3  0  0  0  0  0  0
  181.2060  179.5560  140.1070 C   0  0  0  0  0  0  0  0  0  0  0  0
  180.7040  179.7420  138.8030 C   0  0  0  0  0  0  0  0  0  0  0  0
  181.5700  179.6360  137.7160 C   0  0  0  0  0  3  0  0  0  0  0  0
  182.9240  179.3450  137.9060 C   0  0  0  0  0  3  0  0  0  0  0  0
  180.3380  179.6480  141.3590 C   0  0  0  0  0  0  0  0  0  0  0  0
  179.3600  178.7090  141.3270 F   0  0  0  0  0  0  0  0  0  0  0  0
  181.1350  179.4100  142.4440 F   0  0  0  0  0  0  0  0  0  0  0  0
  179.8010  180.8850  141.4880 F   0  0  0  0  0  0  0  0  0  0  0  0
  179.2010  180.0690  138.5350 C   0  0  0  0  0  2  0  0  0  0  0  0
  179.0830  181.1830  137.9410 N   0  0  0  0  0  0  0  0  0  0  0  0
  179.2730  180.9880  136.5900 C   0  0  0  0  0  2  0  0  0  0  0  0
  179.3330  182.3040  135.8160 C   0  0  0  0  0  2  0  0  0  0  0  0
  180.2340  183.1880  136.3710 N   0  0  0  0  0  0  0  0  0  0  0  0
  180.0240  183.3940  137.7100 C   0  0  0  0  0  2  0  0  0  0  0  0
  179.9890  182.0700  138.4790 C   0  0  0  0  0  2  0  0  0  0  0  0
  180.1840  184.2930  135.7540 C   0  0  0  0  0  1  0  0  0  0  0  0
  1  8  1  0  0  0  0
  1  3  1  0  0  0  0
  2  1  2  0  0  0  0
  5  4  1  0  0  0  0
  5  6  1  0  0  0  0
  6 11  1  0  0  0  0
  7  6  2  0  0  0  0
  8  7  1  0  0  0  0
  9 10  1  0  0  0  0
  9  8  2  0  0  0  0
 10  5  2  0  0  0  0
 11 12  3  0  0  0  0
 13 12  1  6  0  0  0
 13 14  1  0  0  0  0
 13 21  1  0  0  0  0
 14 15  2  0  0  0  0
 15 19  1  0  0  0  0
 15 16  1  0  0  0  0
 16 17  2  0  0  0  0
 18 17  1  0  0  0  0
 19 18  2  0  0  0  0
 20 16  1  0  0  0  0
 21 20  2  0  0  0  0
 22  3  1  0  0  0  0
 22 23  1  0  0  0  0
 24 23  2  0  0  0  0
 24 28  1  0  0  0  0
 25 24  1  0  0  0  0
 26 27  1  0  0  0  0
 26 25  2  0  0  0  0
 27 22  2  0  0  0  0
 28 31  1  0  0  0  0
 28 30  1  0  0  0  0
 29 28  1  0  0  0  0
 32 25  1  0  0  0  0
 33 38  1  0  0  0  0
 33 32  1  0  0  0  0
 34 33  1  0  0  0  0
 35 36  1  0  0  0  0
 35 34  1  0  0  0  0
 36 37  1  0  0  0  0
 37 38  1  0  0  0  0
 39 36  1  0  0  0  0
M  END
>  <MODEL>
5

>  <REMARK>
 VINA RESULT:      -6.8      1.688      2.055
  Name = 8u7l
  8 active torsions:
  status: ('A' for Active; 'I' for Inactive)
    1  A    between atoms: C_3  and  C_26
    2  A    between atoms: C_5  and  C_8
    3  A    between atoms: N_10  and  C_11
    4  A    between atoms: C_13  and  C_25
    5  A    between atoms: C_14  and  C_17
    6  A    between atoms: C_17  and  N_18
    7  A    between atoms: C_26  and  C_27
    8  A    between atoms: C_27  and  C_28
                            x       y       z     vdW  Elec       q    Type
                         _______ _______ _______ _____ _____    ______ ____

>  <TORSDO>
F 8

$$$$
8u7l
 OpenBabel10242410233D

 39 43  0  0  1  0  0  0  0  0999 V2000
  185.6570  178.6820  141.4830 C   0  0  0  0  0  0  0  0  0  0  0  0
  185.5230  179.7530  140.9810 O   0  0  0  0  0  0  0  0  0  0  0  0
  184.5320  177.8080  141.6670 N   0  0  0  0  0  2  0  0  0  0  0  0
  191.0910  176.9780  143.0160 C   0  0  0  0  0  1  0  0  0  0  0  0
  189.6520  177.4340  142.6430 C   0  0  0  0  0  0  0  0  0  0  0  0
  189.2520  177.3960  141.3090 C   0  0  0  0  0  0  0  0  0  0  0  0
  187.9690  177.7990  140.9490 C   0  0  0  0  0  3  0  0  0  0  0  0
  187.0790  178.2430  141.9260 C   0  0  0  0  0  0  0  0  0  0  0  0
  187.4680  178.2880  143.2560 C   0  0  0  0  0  3  0  0  0  0  0  0
  188.7660  177.8770  143.6190 C   0  0  0  0  0  3  0  0  0  0  0  0
  190.2210  176.9110  140.2130 C   0  0  0  0  0  0  0  0  0  0  0  0
  191.0010  176.5310  139.3850 C   0  0  0  0  0  0  0  0  0  0  0  0
  191.9960  176.0400  138.3150 C   0  0  1  0  0  3  0  0  0  0  0  0
  191.7160  174.8840  137.5630 C   0  0  0  0  0  3  0  0  0  0  0  0
  192.6750  174.4830  136.5920 C   0  0  0  0  0  0  0  0  0  0  0  0
  193.8110  175.2280  136.4290 C   0  0  0  0  0  0  0  0  0  0  0  0
  194.5490  174.6330  135.4460 N   0  0  0  0  0  0  0  0  0  0  0  0
  193.9110  173.5350  134.9860 N   0  0  0  0  0  0  0  0  0  0  0  0
  192.7700  173.4060  135.6490 C   0  0  0  0  0  3  0  0  0  0  0  0
  194.0430  176.3400  137.1760 N   0  0  0  0  0  0  0  0  0  0  0  0
  193.1810  176.7520  138.0920 C   0  0  0  0  0  3  0  0  0  0  0  0
  183.1810  178.2190  141.2470 C   0  0  0  0  0  0  0  0  0  0  0  0
  182.2470  178.6340  142.1930 C   0  0  0  0  0  3  0  0  0  0  0  0
  180.9680  179.0230  141.8080 C   0  0  0  0  0  0  0  0  0  0  0  0
  180.6150  179.0040  140.4440 C   0  0  0  0  0  0  0  0  0  0  0  0
  181.5540  178.5940  139.5000 C   0  0  0  0  0  3  0  0  0  0  0  0
  182.8370  178.2000  139.8920 C   0  0  0  0  0  3  0  0  0  0  0  0
  180.0100  179.4510  142.9160 C   0  0  0  0  0  0  0  0  0  0  0  0
  178.9320  178.6300  142.9540 F   0  0  0  0  0  0  0  0  0  0  0  0
  180.6720  179.3560  144.1090 F   0  0  0  0  0  0  0  0  0  0  0  0
  179.6180  180.7370  142.7480 F   0  0  0  0  0  0  0  0  0  0  0  0
  179.1970  179.4350  139.9520 C   0  0  0  0  0  2  0  0  0  0  0  0
  179.2780  180.4020  139.1380 N   0  0  0  0  0  0  0  0  0  0  0  0
  179.4430  179.8990  137.8650 C   0  0  0  0  0  2  0  0  0  0  0  0
  179.7370  180.9940  136.8400 C   0  0  0  0  0  2  0  0  0  0  0  0
  180.7730  181.8110  137.2420 N   0  0  0  0  0  0  0  0  0  0  0  0
  180.5910  182.3260  138.4990 C   0  0  0  0  0  2  0  0  0  0  0  0
  180.3200  181.2180  139.5210 C   0  0  0  0  0  2  0  0  0  0  0  0
  180.9210  182.7540  136.4100 C   0  0  0  0  0  1  0  0  0  0  0  0
  1  3  1  0  0  0  0
  1  8  1  0  0  0  0
  2  1  2  0  0  0  0
  5  4  1  0  0  0  0
  5 10  1  0  0  0  0
  6  5  2  0  0  0  0
  7  6  1  0  0  0  0
  7  8  2  0  0  0  0
  8  9  1  0  0  0  0
  9 10  2  0  0  0  0
 11  6  1  0  0  0  0
 12 11  3  0  0  0  0
 13 12  1  6  0  0  0
 14 13  1  0  0  0  0
 15 14  2  0  0  0  0
 16 15  1  0  0  0  0
 16 20  1  0  0  0  0
 17 16  2  0  0  0  0
 18 17  1  0  0  0  0
 18 19  2  0  0  0  0
 19 15  1  0  0  0  0
 20 21  2  0  0  0  0
 21 13  1  0  0  0  0
 22  3  1  0  0  0  0
 22 23  1  0  0  0  0
 24 23  2  0  0  0  0
 24 28  1  0  0  0  0
 25 24  1  0  0  0  0
 26 27  1  0  0  0  0
 26 25  2  0  0  0  0
 27 22  2  0  0  0  0
 28 29  1  0  0  0  0
 28 30  1  0  0  0  0
 31 28  1  0  0  0  0
 32 25  1  0  0  0  0
 33 38  1  0  0  0  0
 33 32  1  0  0  0  0
 34 33  1  0  0  0  0
 35 36  1  0  0  0  0
 35 34  1  0  0  0  0
 36 37  1  0  0  0  0
 37 38  1  0  0  0  0
 39 36  1  0  0  0  0
M  END
>  <MODEL>
6

>  <REMARK>
 VINA RESULT:      -6.8      4.109      6.004
  Name = 8u7l
  8 active torsions:
  status: ('A' for Active; 'I' for Inactive)
    1  A    between atoms: C_3  and  C_26
    2  A    between atoms: C_5  and  C_8
    3  A    between atoms: N_10  and  C_11
    4  A    between atoms: C_13  and  C_25
    5  A    between atoms: C_14  and  C_17
    6  A    between atoms: C_17  and  N_18
    7  A    between atoms: C_26  and  C_27
    8  A    between atoms: C_27  and  C_28
                            x       y       z     vdW  Elec       q    Type
                         _______ _______ _______ _____ _____    ______ ____

>  <TORSDO>
F 8

$$$$
8u7l
 OpenBabel10242410233D

 39 43  0  0  1  0  0  0  0  0999 V2000
  185.5910  175.9590  136.9050 C   0  0  0  0  0  0  0  0  0  0  0  0
  185.9950  174.8630  137.1350 O   0  0  0  0  0  0  0  0  0  0  0  0
  186.4840  177.0840  136.8770 N   0  0  0  0  0  2  0  0  0  0  0  0
  179.8440  176.8200  135.9010 C   0  0  0  0  0  1  0  0  0  0  0  0
  181.3560  176.5630  136.1550 C   0  0  0  0  0  0  0  0  0  0  0  0
  182.1440  177.5920  136.6660 C   0  0  0  0  0  0  0  0  0  0  0  0
  183.5010  177.3870  136.9020 C   0  0  0  0  0  3  0  0  0  0  0  0
  184.0750  176.1470  136.6260 C   0  0  0  0  0  0  0  0  0  0  0  0
  183.3010  175.1170  136.1140 C   0  0  0  0  0  3  0  0  0  0  0  0
  181.9280  175.3260  135.8780 C   0  0  0  0  0  3  0  0  0  0  0  0
  181.5280  178.9710  136.9760 C   0  0  0  0  0  0  0  0  0  0  0  0
  181.0830  180.0560  137.2220 C   0  0  0  0  0  0  0  0  0  0  0  0
  180.5190  181.4560  137.5370 C   0  0  1  0  0  3  0  0  0  0  0  0
  180.8120  182.5450  136.6970 C   0  0  0  0  0  3  0  0  0  0  0  0
  180.2610  183.8100  137.0420 C   0  0  0  0  0  0  0  0  0  0  0  0
  179.4770  183.9140  138.1590 C   0  0  0  0  0  0  0  0  0  0  0  0
  179.0810  185.2160  138.2570 N   0  0  0  0  0  0  0  0  0  0  0  0
  179.5930  185.9370  137.2360 N   0  0  0  0  0  0  0  0  0  0  0  0
  180.3130  185.1260  136.4720 C   0  0  0  0  0  3  0  0  0  0  0  0
  179.2160  182.8350  138.9440 N   0  0  0  0  0  0  0  0  0  0  0  0
  179.7070  181.6380  138.6630 C   0  0  0  0  0  3  0  0  0  0  0  0
  187.9230  176.9110  137.1400 C   0  0  0  0  0  0  0  0  0  0  0  0
  188.4300  177.0950  138.4240 C   0  0  0  0  0  3  0  0  0  0  0  0
  189.7880  176.9360  138.6830 C   0  0  0  0  0  0  0  0  0  0  0  0
  190.6600  176.5760  137.6370 C   0  0  0  0  0  0  0  0  0  0  0  0
  190.1480  176.3860  136.3540 C   0  0  0  0  0  3  0  0  0  0  0  0
  188.7830  176.5520  136.0980 C   0  0  0  0  0  3  0  0  0  0  0  0
  190.2520  177.1690  140.1180 C   0  0  0  0  0  0  0  0  0  0  0  0
  191.4080  177.8790  140.1320 F   0  0  0  0  0  0  0  0  0  0  0  0
  189.2890  177.8940  140.7630 F   0  0  0  0  0  0  0  0  0  0  0  0
  190.4120  175.9950  140.7740 F   0  0  0  0  0  0  0  0  0  0  0  0
  192.1910  176.3780  137.8690 C   0  0  0  0  0  2  0  0  0  0  0  0
  192.6760  175.5780  137.0130 N   0  0  0  0  0  0  0  0  0  0  0  0
  192.8120  174.3350  137.5940 C   0  0  0  0  0  2  0  0  0  0  0  0
  193.5610  173.3520  136.6950 C   0  0  0  0  0  2  0  0  0  0  0  0
  194.7540  173.8750  136.2410 N   0  0  0  0  0  0  0  0  0  0  0  0
  194.6070  175.1000  135.6440 C   0  0  0  0  0  2  0  0  0  0  0  0
  193.8750  176.0840  136.5630 C   0  0  0  0  0  2  0  0  0  0  0  0
  195.2950  173.0660  135.4310 C   0  0  0  0  0  1  0  0  0  0  0  0
  1  2  2  0  0  0  0
  3  1  1  0  0  0  0
  3 22  1  0  0  0  0
  4  5  1  0  0  0  0
  5  6  1  0  0  0  0
  6  7  2  0  0  0  0
  6 11  1  0  0  0  0
  8  7  1  0  0  0  0
  8  1  1  0  0  0  0
  9  8  2  0  0  0  0
 10  9  1  0  0  0  0
 10  5  2  0  0  0  0
 11 12  3  0  0  0  0
 13 12  1  6  0  0  0
 13 21  1  0  0  0  0
 14 15  2  0  0  0  0
 14 13  1  0  0  0  0
 15 16  1  0  0  0  0
 16 17  2  0  0  0  0
 16 20  1  0  0  0  0
 18 17  1  0  0  0  0
 19 15  1  0  0  0  0
 19 18  2  0  0  0  0
 21 20  2  0  0  0  0
 22 23  1  0  0  0  0
 23 24  2  0  0  0  0
 24 28  1  0  0  0  0
 25 32  1  0  0  0  0
 25 24  1  0  0  0  0
 26 25  2  0  0  0  0
 27 26  1  0  0  0  0
 27 22  2  0  0  0  0
 28 29  1  0  0  0  0
 28 30  1  0  0  0  0
 28 31  1  0  0  0  0
 33 34  1  0  0  0  0
 33 32  1  0  0  0  0
 35 34  1  0  0  0  0
 36 35  1  0  0  0  0
 37 36  1  0  0  0  0
 37 38  1  0  0  0  0
 38 33  1  0  0  0  0
 39 36  1  0  0  0  0
M  END
>  <MODEL>
7

>  <REMARK>
 VINA RESULT:      -6.7      4.813     12.071
  Name = 8u7l
  8 active torsions:
  status: ('A' for Active; 'I' for Inactive)
    1  A    between atoms: C_3  and  C_26
    2  A    between atoms: C_5  and  C_8
    3  A    between atoms: N_10  and  C_11
    4  A    between atoms: C_13  and  C_25
    5  A    between atoms: C_14  and  C_17
    6  A    between atoms: C_17  and  N_18
    7  A    between atoms: C_26  and  C_27
    8  A    between atoms: C_27  and  C_28
                            x       y       z     vdW  Elec       q    Type
                         _______ _______ _______ _____ _____    ______ ____

>  <TORSDO>
F 8

$$$$
8u7l
 OpenBabel10242410233D

 39 43  0  0  1  0  0  0  0  0999 V2000
  186.0590  178.0600  137.5860 C   0  0  0  0  0  0  0  0  0  0  0  0
  185.7480  179.2040  137.6960 O   0  0  0  0  0  0  0  0  0  0  0  0
  185.0950  177.0670  137.2040 N   0  0  0  0  0  2  0  0  0  0  0  0
  191.6450  176.5750  138.7560 C   0  0  0  0  0  1  0  0  0  0  0  0
  190.1790  176.9640  138.4170 C   0  0  0  0  0  0  0  0  0  0  0  0
  189.2880  177.2280  139.4540 C   0  0  0  0  0  0  0  0  0  0  0  0
  187.9690  177.5780  139.1760 C   0  0  0  0  0  3  0  0  0  0  0  0
  187.5370  177.6650  137.8530 C   0  0  0  0  0  0  0  0  0  0  0  0
  188.4140  177.4010  136.8130 C   0  0  0  0  0  3  0  0  0  0  0  0
  189.7490  177.0500  137.0970 C   0  0  0  0  0  3  0  0  0  0  0  0
  189.7450  177.1340  140.9230 C   0  0  0  0  0  0  0  0  0  0  0  0
  190.0650  177.0610  142.0760 C   0  0  0  0  0  0  0  0  0  0  0  0
  190.4750  176.9580  143.5590 C   0  0  1  0  0  3  0  0  0  0  0  0
  189.6410  177.4840  144.5630 C   0  0  0  0  0  3  0  0  0  0  0  0
  190.0760  177.3580  145.9110 C   0  0  0  0  0  0  0  0  0  0  0  0
  191.2660  176.7360  146.1730 C   0  0  0  0  0  0  0  0  0  0  0  0
  191.4410  176.7470  147.5270 N   0  0  0  0  0  0  0  0  0  0  0  0
  190.3960  177.3580  148.1260 N   0  0  0  0  0  0  0  0  0  0  0  0
  189.5420  177.7430  147.1860 C   0  0  0  0  0  3  0  0  0  0  0  0
  192.0420  176.2400  145.1730 N   0  0  0  0  0  0  0  0  0  0  0  0
  191.6790  176.3340  143.9030 C   0  0  0  0  0  3  0  0  0  0  0  0
  183.6920  177.4360  136.9470 C   0  0  0  0  0  0  0  0  0  0  0  0
  182.8430  177.7510  138.0060 C   0  0  0  0  0  3  0  0  0  0  0  0
  181.5170  178.0990  137.7760 C   0  0  0  0  0  0  0  0  0  0  0  0
  181.0260  178.1440  136.4550 C   0  0  0  0  0  0  0  0  0  0  0  0
  181.8810  177.8350  135.3980 C   0  0  0  0  0  3  0  0  0  0  0  0
  183.2120  177.4800  135.6350 C   0  0  0  0  0  3  0  0  0  0  0  0
  180.6600  178.4160  138.9980 C   0  0  0  0  0  0  0  0  0  0  0  0
  179.4640  177.7820  138.9160 F   0  0  0  0  0  0  0  0  0  0  0  0
  181.3180  177.9600  140.1060 F   0  0  0  0  0  0  0  0  0  0  0  0
  180.4780  179.7520  139.1310 F   0  0  0  0  0  0  0  0  0  0  0  0
  179.5490  178.5340  136.1350 C   0  0  0  0  0  2  0  0  0  0  0  0
  179.4870  179.7090  135.6620 N   0  0  0  0  0  0  0  0  0  0  0  0
  180.7330  180.0650  135.1930 C   0  0  0  0  0  2  0  0  0  0  0  0
  180.7980  181.5330  134.7730 C   0  0  0  0  0  2  0  0  0  0  0  0
  180.3270  182.3720  135.7610 N   0  0  0  0  0  0  0  0  0  0  0  0
  179.0780  182.0250  136.2060 C   0  0  0  0  0  2  0  0  0  0  0  0
  179.0300  180.5580  136.6450 C   0  0  0  0  0  2  0  0  0  0  0  0
  180.3140  183.5660  135.3380 C   0  0  0  0  0  1  0  0  0  0  0  0
  1  2  2  0  0  0  0
  1  8  1  0  0  0  0
  3  1  1  0  0  0  0
  5  4  1  0  0  0  0
  5  6  1  0  0  0  0
  6 11  1  0  0  0  0
  7  6  2  0  0  0  0
  8  7  1  0  0  0  0
  9 10  1  0  0  0  0
  9  8  2  0  0  0  0
 10  5  2  0  0  0  0
 11 12  3  0  0  0  0
 13 12  1  1  0  0  0
 13 21  1  0  0  0  0
 13 14  1  0  0  0  0
 14 15  2  0  0  0  0
 15 16  1  0  0  0  0
 15 19  1  0  0  0  0
 16 17  2  0  0  0  0
 17 18  1  0  0  0  0
 19 18  2  0  0  0  0
 20 16  1  0  0  0  0
 21 20  2  0  0  0  0
 22  3  1  0  0  0  0
 22 23  1  0  0  0  0
 24 23  2  0  0  0  0
 24 28  1  0  0  0  0
 25 24  1  0  0  0  0
 26 27  1  0  0  0  0
 26 25  2  0  0  0  0
 27 22  2  0  0  0  0
 28 31  1  0  0  0  0
 28 30  1  0  0  0  0
 29 28  1  0  0  0  0
 32 25  1  0  0  0  0
 33 32  1  0  0  0  0
 33 38  1  0  0  0  0
 34 33  1  0  0  0  0
 35 34  1  0  0  0  0
 35 36  1  0  0  0  0
 36 37  1  0  0  0  0
 37 38  1  0  0  0  0
 39 36  1  0  0  0  0
M  END
>  <MODEL>
8

>  <REMARK>
 VINA RESULT:      -6.5      1.416      2.011
  Name = 8u7l
  8 active torsions:
  status: ('A' for Active; 'I' for Inactive)
    1  A    between atoms: C_3  and  C_26
    2  A    between atoms: C_5  and  C_8
    3  A    between atoms: N_10  and  C_11
    4  A    between atoms: C_13  and  C_25
    5  A    between atoms: C_14  and  C_17
    6  A    between atoms: C_17  and  N_18
    7  A    between atoms: C_26  and  C_27
    8  A    between atoms: C_27  and  C_28
                            x       y       z     vdW  Elec       q    Type
                         _______ _______ _______ _____ _____    ______ ____

>  <TORSDO>
F 8

$$$$
8u7l
 OpenBabel10242410233D

 39 43  0  0  1  0  0  0  0  0999 V2000
  188.4220  173.7540  136.1420 C   0  0  0  0  0  0  0  0  0  0  0  0
  188.6310  174.5670  135.2980 O   0  0  0  0  0  0  0  0  0  0  0  0
  189.4850  173.2660  136.9750 N   0  0  0  0  0  2  0  0  0  0  0  0
  182.8720  171.9290  136.9450 C   0  0  0  0  0  1  0  0  0  0  0  0
  184.3410  172.3830  136.7180 C   0  0  0  0  0  0  0  0  0  0  0  0
  184.7520  173.6240  137.1990 C   0  0  0  0  0  0  0  0  0  0  0  0
  186.0620  174.0540  137.0080 C   0  0  0  0  0  3  0  0  0  0  0  0
  186.9690  173.2390  136.3320 C   0  0  0  0  0  0  0  0  0  0  0  0
  186.5710  172.0040  135.8460 C   0  0  0  0  0  3  0  0  0  0  0  0
  185.2450  171.5700  136.0420 C   0  0  0  0  0  3  0  0  0  0  0  0
  183.7630  174.5410  137.9470 C   0  0  0  0  0  0  0  0  0  0  0  0
  183.0050  175.2380  138.5600 C   0  0  0  0  0  0  0  0  0  0  0  0
  182.0360  176.1360  139.3550 C   0  0  1  0  0  3  0  0  0  0  0  0
  182.5340  177.1280  140.2180 C   0  0  0  0  0  3  0  0  0  0  0  0
  181.5880  177.9230  140.9230 C   0  0  0  0  0  0  0  0  0  0  0  0
  180.2520  177.6950  140.7330 C   0  0  0  0  0  0  0  0  0  0  0  0
  179.5740  178.5850  141.5160 N   0  0  0  0  0  0  0  0  0  0  0  0
  180.4420  179.3650  142.1930 N   0  0  0  0  0  0  0  0  0  0  0  0
  181.6750  179.0030  141.8640 C   0  0  0  0  0  3  0  0  0  0  0  0
  179.8120  176.7260  139.8870 N   0  0  0  0  0  0  0  0  0  0  0  0
  180.6540  175.9620  139.2110 C   0  0  0  0  0  3  0  0  0  0  0  0
  190.8650  173.7520  136.8000 C   0  0  0  0  0  0  0  0  0  0  0  0
  191.3500  174.7890  137.5940 C   0  0  0  0  0  3  0  0  0  0  0  0
  192.6510  175.2570  137.4360 C   0  0  0  0  0  0  0  0  0  0  0  0
  193.4910  174.6710  136.4690 C   0  0  0  0  0  0  0  0  0  0  0  0
  193.0030  173.6290  135.6810 C   0  0  0  0  0  3  0  0  0  0  0  0
  191.6940  173.1660  135.8400 C   0  0  0  0  0  3  0  0  0  0  0  0
  193.0900  176.4030  138.3430 C   0  0  0  0  0  0  0  0  0  0  0  0
  194.0930  176.0000  139.1630 F   0  0  0  0  0  0  0  0  0  0  0  0
  193.5560  177.4150  137.5520 F   0  0  0  0  0  0  0  0  0  0  0  0
  192.0480  176.8740  139.0700 F   0  0  0  0  0  0  0  0  0  0  0  0
  194.9610  175.1500  136.2510 C   0  0  0  0  0  2  0  0  0  0  0  0
  195.7580  174.1650  136.2390 N   0  0  0  0  0  0  0  0  0  0  0  0
  196.1610  173.9040  137.5310 C   0  0  0  0  0  2  0  0  0  0  0  0
  197.2670  172.8510  137.5930 C   0  0  0  0  0  2  0  0  0  0  0  0
  198.3130  173.1520  136.7460 N   0  0  0  0  0  0  0  0  0  0  0  0
  197.9060  173.3860  135.4580 C   0  0  0  0  0  2  0  0  0  0  0  0
  196.8140  174.4600  135.4060 C   0  0  0  0  0  2  0  0  0  0  0  0
  199.1610  172.2100  136.7620 C   0  0  0  0  0  1  0  0  0  0  0  0
  1  8  1  0  0  0  0
  1  3  1  0  0  0  0
  2  1  2  0  0  0  0
  5  4  1  0  0  0  0
  5  6  1  0  0  0  0
  6 11  1  0  0  0  0
  7  6  2  0  0  0  0
  8  7  1  0  0  0  0
  9 10  1  0  0  0  0
  9  8  2  0  0  0  0
 10  5  2  0  0  0  0
 11 12  3  0  0  0  0
 13 12  1  6  0  0  0
 13 14  1  0  0  0  0
 14 15  2  0  0  0  0
 15 19  1  0  0  0  0
 16 15  1  0  0  0  0
 16 17  2  0  0  0  0
 17 18  1  0  0  0  0
 19 18  2  0  0  0  0
 20 16  1  0  0  0  0
 21 13  1  0  0  0  0
 21 20  2  0  0  0  0
 22  3  1  0  0  0  0
 22 23  1  0  0  0  0
 24 23  2  0  0  0  0
 24 28  1  0  0  0  0
 25 24  1  0  0  0  0
 26 27  1  0  0  0  0
 26 25  2  0  0  0  0
 27 22  2  0  0  0  0
 28 31  1  0  0  0  0
 28 29  1  0  0  0  0
 30 28  1  0  0  0  0
 32 25  1  0  0  0  0
 33 32  1  0  0  0  0
 33 34  1  0  0  0  0
 34 35  1  0  0  0  0
 36 39  1  0  0  0  0
 36 35  1  0  0  0  0
 37 36  1  0  0  0  0
 38 37  1  0  0  0  0
 38 33  1  0  0  0  0
M  END
>  <MODEL>
9

>  <REMARK>
 VINA RESULT:      -6.5      6.689     12.576
  Name = 8u7l
  8 active torsions:
  status: ('A' for Active; 'I' for Inactive)
    1  A    between atoms: C_3  and  C_26
    2  A    between atoms: C_5  and  C_8
    3  A    between atoms: N_10  and  C_11
    4  A    between atoms: C_13  and  C_25
    5  A    between atoms: C_14  and  C_17
    6  A    between atoms: C_17  and  N_18
    7  A    between atoms: C_26  and  C_27
    8  A    between atoms: C_27  and  C_28
                            x       y       z     vdW  Elec       q    Type
                         _______ _______ _______ _____ _____    ______ ____

>  <TORSDO>
F 8

$$$$
