8u8b
 OpenBabel10242410243D

 41 45  0  0  0  0  0  0  0  0999 V2000
  188.3680  178.2320  142.5980 N   0  0  0  0  0  2  0  0  0  0  0  0
  189.1110  177.2960  141.7470 C   0  0  0  0  0  0  0  0  0  0  0  0
  189.2840  177.6370  140.3290 N   0  0  0  0  0  2  0  0  0  0  0  0
  189.5550  176.2950  142.2080 O   0  0  0  0  0  0  0  0  0  0  0  0
  189.3250  176.1220  138.3150 C   0  0  0  0  0  3  0  0  0  0  0  0
  190.0540  175.4180  137.3670 C   0  0  0  0  0  3  0  0  0  0  0  0
  191.4340  175.4390  137.3880 C   0  0  0  0  0  0  0  0  0  0  0  0
  192.0870  176.1880  138.3550 C   0  0  0  0  0  3  0  0  0  0  0  0
  191.3550  176.8860  139.3010 C   0  0  0  0  0  0  0  0  0  0  0  0
  189.9770  176.8560  139.2970 C   0  0  0  0  0  0  0  0  0  0  0  0
  191.9970  177.6130  140.2560 F   0  0  0  0  0  0  0  0  0  0  0  0
  192.1840  174.7530  136.4160 O   0  0  0  0  0  0  0  0  0  0  0  0
  194.9790  176.7900  135.0500 C   0  0  0  0  0  3  0  0  0  0  0  0
  196.0080  176.1820  135.6190 N   0  0  0  0  0  0  0  0  0  0  0  0
  195.8380  175.1500  136.4210 C   0  0  0  0  0  0  0  0  0  0  0  0
  194.5700  174.6670  136.6920 C   0  0  0  0  0  3  0  0  0  0  0  0
  193.4580  175.2760  136.1270 C   0  0  0  0  0  0  0  0  0  0  0  0
  193.6800  176.3530  135.2830 C   0  0  0  0  0  3  0  0  0  0  0  0
  197.0330  174.4580  137.0720 C   0  0  0  0  0  0  0  0  0  0  0  0
  197.1880  173.2940  136.9180 O   0  0  0  0  0  0  0  0  0  0  0  0
  197.9870  175.2040  137.8690 N   0  0  0  0  0  2  0  0  0  0  0  0
  199.1070  174.5000  138.4610 C   0  0  0  0  0  1  0  0  0  0  0  0
  188.5200  177.5040  146.1790 C   0  0  0  0  0  0  0  0  0  0  0  0
  189.1360  177.6760  144.9450 C   0  0  0  0  0  3  0  0  0  0  0  0
  188.1550  177.9740  144.0260 C   0  0  0  0  0  0  0  0  0  0  0  0
  187.0070  177.9880  144.6800 N   0  0  0  0  0  0  0  0  0  0  0  0
  187.2090  177.7040  146.0100 N   0  0  0  0  0  0  0  0  0  0  0  0
  185.6880  178.2690  144.1100 C   0  0  0  0  0  0  0  0  0  0  0  0
  184.6810  178.7750  144.9340 C   0  0  0  0  0  3  0  0  0  0  0  0
  183.4150  179.0380  144.4110 C   0  0  0  0  0  3  0  0  0  0  0  0
  183.1460  178.7860  143.0310 C   0  0  0  0  0  0  0  0  0  0  0  0
  184.1290  178.2910  142.2260 C   0  0  0  0  0  0  0  0  0  0  0  0
  185.4290  178.0170  142.7620 C   0  0  0  0  0  3  0  0  0  0  0  0
  181.6150  178.8240  141.2110 C   0  0  0  0  0  3  0  0  0  0  0  0
  181.8830  179.0570  142.5180 N   0  0  0  0  0  0  0  0  0  0  0  0
  183.8510  178.0500  140.8790 C   0  0  0  0  0  3  0  0  0  0  0  0
  182.6090  178.3140  140.3780 C   0  0  0  0  0  3  0  0  0  0  0  0
  189.2220  177.1580  147.4960 C   0  0  0  0  0  0  0  0  0  0  0  0
  189.2250  178.3870  148.4040 C   0  0  0  0  0  1  0  0  0  0  0  0
  190.6550  176.7190  147.2040 C   0  0  0  0  0  1  0  0  0  0  0  0
  188.4620  176.0320  148.1750 C   0  0  0  0  0  1  0  0  0  0  0  0
  1 25  1  0  0  0  0
  2  4  2  0  0  0  0
  2  1  1  0  0  0  0
  3  2  1  0  0  0  0
  5 10  1  0  0  0  0
  6  7  1  0  0  0  0
  6  5  2  0  0  0  0
  7  8  2  0  0  0  0
  8  9  1  0  0  0  0
  9 11  1  0  0  0  0
 10  9  2  0  0  0  0
 10  3  1  0  0  0  0
 12  7  1  0  0  0  0
 13 18  2  0  0  0  0
 13 14  1  0  0  0  0
 14 15  2  0  0  0  0
 15 16  1  0  0  0  0
 15 19  1  0  0  0  0
 17 12  1  0  0  0  0
 17 16  2  0  0  0  0
 18 17  1  0  0  0  0
 19 21  1  0  0  0  0
 20 19  2  0  0  0  0
 21 22  1  0  0  0  0
 23 38  1  0  0  0  0
 24 23  1  0  0  0  0
 25 26  1  0  0  0  0
 25 24  2  0  0  0  0
 26 27  1  0  0  0  0
 27 23  2  0  0  0  0
 28 26  1  0  0  0  0
 28 29  1  0  0  0  0
 30 29  2  0  0  0  0
 31 30  1  0  0  0  0
 32 33  1  0  0  0  0
 32 31  2  0  0  0  0
 33 28  2  0  0  0  0
 34 35  2  0  0  0  0
 35 31  1  0  0  0  0
 36 32  1  0  0  0  0
 37 36  2  0  0  0  0
 37 34  1  0  0  0  0
 38 41  1  0  0  0  0
 38 39  1  0  0  0  0
 40 38  1  0  0  0  0
M  END
>  <MODEL>
1

>  <REMARK>
 VINA RESULT:     -10.0      0.000      0.000
  Name = 8u8b
  7 active torsions:
  status: ('A' for Active; 'I' for Inactive)
    1  A    between atoms: C_1  and  N_26
    2  A    between atoms: C_13  and  C_33
    3  A    between atoms: C_15  and  O_32
    4  A    between atoms: C_19  and  O_32
    5  A    between atoms: C_22  and  N_30
    6  A    between atoms: C_23  and  C_37
    7  A    between atoms: C_25  and  N_28
                            x       y       z     vdW  Elec       q    Type
                         _______ _______ _______ _____ _____    ______ ____

>  <TORSDO>
F 7

$$$$
8u8b
 OpenBabel10242410243D

 41 45  0  0  0  0  0  0  0  0999 V2000
  188.2590  178.3350  142.6540 N   0  0  0  0  0  2  0  0  0  0  0  0
  188.9870  177.4170  141.7710 C   0  0  0  0  0  0  0  0  0  0  0  0
  189.1380  177.7900  140.3580 N   0  0  0  0  0  2  0  0  0  0  0  0
  189.4360  176.4060  142.2010 O   0  0  0  0  0  0  0  0  0  0  0  0
  191.1730  176.7480  139.2970 C   0  0  0  0  0  3  0  0  0  0  0  0
  191.7340  176.0170  138.2600 C   0  0  0  0  0  3  0  0  0  0  0  0
  190.9500  175.5630  137.2180 C   0  0  0  0  0  0  0  0  0  0  0  0
  189.5900  175.8280  137.2280 C   0  0  0  0  0  3  0  0  0  0  0  0
  189.0340  176.5620  138.2630 C   0  0  0  0  0  0  0  0  0  0  0  0
  189.8130  177.0330  139.2970 C   0  0  0  0  0  0  0  0  0  0  0  0
  187.7000  176.8310  138.2660 F   0  0  0  0  0  0  0  0  0  0  0  0
  191.5020  174.7960  136.1770 O   0  0  0  0  0  0  0  0  0  0  0  0
  194.8470  173.2440  136.6600 C   0  0  0  0  0  3  0  0  0  0  0  0
  195.6240  174.2680  136.3480 N   0  0  0  0  0  0  0  0  0  0  0  0
  195.1180  175.4310  135.9890 C   0  0  0  0  0  0  0  0  0  0  0  0
  193.7490  175.6170  135.9290 C   0  0  0  0  0  3  0  0  0  0  0  0
  192.8900  174.5700  136.2380 C   0  0  0  0  0  0  0  0  0  0  0  0
  193.4620  173.3670  136.6190 C   0  0  0  0  0  3  0  0  0  0  0  0
  196.0260  176.6040  135.6300 C   0  0  0  0  0  0  0  0  0  0  0  0
  197.2010  176.4780  135.7120 O   0  0  0  0  0  0  0  0  0  0  0  0
  195.4750  177.8680  135.1820 N   0  0  0  0  0  2  0  0  0  0  0  0
  196.3820  178.9490  134.8490 C   0  0  0  0  0  1  0  0  0  0  0  0
  188.4680  177.5360  146.2180 C   0  0  0  0  0  0  0  0  0  0  0  0
  189.0660  177.7430  144.9790 C   0  0  0  0  0  3  0  0  0  0  0  0
  188.0690  178.0440  144.0790 C   0  0  0  0  0  0  0  0  0  0  0  0
  186.9290  178.0280  144.7480 N   0  0  0  0  0  0  0  0  0  0  0  0
  187.1520  177.7190  146.0690 N   0  0  0  0  0  0  0  0  0  0  0  0
  185.5990  178.2990  144.2000 C   0  0  0  0  0  0  0  0  0  0  0  0
  184.6020  178.7940  145.0420 C   0  0  0  0  0  3  0  0  0  0  0  0
  183.3250  179.0480  144.5410 C   0  0  0  0  0  3  0  0  0  0  0  0
  183.0360  178.7990  143.1640 C   0  0  0  0  0  0  0  0  0  0  0  0
  184.0090  178.3160  142.3420 C   0  0  0  0  0  0  0  0  0  0  0  0
  185.3200  178.0500  142.8560 C   0  0  0  0  0  3  0  0  0  0  0  0
  181.4750  178.8320  141.3690 C   0  0  0  0  0  3  0  0  0  0  0  0
  181.7620  179.0620  142.6740 N   0  0  0  0  0  0  0  0  0  0  0  0
  183.7110  178.0780  140.9980 C   0  0  0  0  0  3  0  0  0  0  0  0
  182.4590  178.3330  140.5180 C   0  0  0  0  0  3  0  0  0  0  0  0
  189.1920  177.1750  147.5180 C   0  0  0  0  0  0  0  0  0  0  0  0
  189.1540  178.3710  148.4670 C   0  0  0  0  0  1  0  0  0  0  0  0
  190.6400  176.8030  147.2030 C   0  0  0  0  0  1  0  0  0  0  0  0
  188.4830  175.9970  148.1620 C   0  0  0  0  0  1  0  0  0  0  0  0
  1 25  1  0  0  0  0
  2  4  2  0  0  0  0
  2  1  1  0  0  0  0
  3  2  1  0  0  0  0
  5 10  1  0  0  0  0
  6  5  2  0  0  0  0
  7  8  2  0  0  0  0
  7  6  1  0  0  0  0
  8  9  1  0  0  0  0
  9 11  1  0  0  0  0
  9 10  2  0  0  0  0
 10  3  1  0  0  0  0
 12 17  1  0  0  0  0
 12  7  1  0  0  0  0
 14 13  2  0  0  0  0
 15 14  1  0  0  0  0
 16 15  2  0  0  0  0
 16 17  1  0  0  0  0
 17 18  2  0  0  0  0
 18 13  1  0  0  0  0
 19 20  2  0  0  0  0
 19 15  1  0  0  0  0
 21 19  1  0  0  0  0
 22 21  1  0  0  0  0
 23 38  1  0  0  0  0
 24 23  1  0  0  0  0
 25 26  1  0  0  0  0
 25 24  2  0  0  0  0
 26 27  1  0  0  0  0
 27 23  2  0  0  0  0
 28 26  1  0  0  0  0
 28 29  1  0  0  0  0
 30 29  2  0  0  0  0
 31 30  1  0  0  0  0
 32 33  1  0  0  0  0
 32 31  2  0  0  0  0
 33 28  2  0  0  0  0
 34 35  2  0  0  0  0
 35 31  1  0  0  0  0
 36 32  1  0  0  0  0
 37 36  2  0  0  0  0
 37 34  1  0  0  0  0
 38 41  1  0  0  0  0
 38 39  1  0  0  0  0
 40 38  1  0  0  0  0
M  END
>  <MODEL>
2

>  <REMARK>
 VINA RESULT:      -9.9      1.410      1.985
  Name = 8u8b
  7 active torsions:
  status: ('A' for Active; 'I' for Inactive)
    1  A    between atoms: C_1  and  N_26
    2  A    between atoms: C_13  and  C_33
    3  A    between atoms: C_15  and  O_32
    4  A    between atoms: C_19  and  O_32
    5  A    between atoms: C_22  and  N_30
    6  A    between atoms: C_23  and  C_37
    7  A    between atoms: C_25  and  N_28
                            x       y       z     vdW  Elec       q    Type
                         _______ _______ _______ _____ _____    ______ ____

>  <TORSDO>
F 7

$$$$
8u8b
 OpenBabel10242410243D

 41 45  0  0  0  0  0  0  0  0999 V2000
  187.5530  178.8270  140.4870 N   0  0  0  0  0  2  0  0  0  0  0  0
  188.2250  177.8700  139.6010 C   0  0  0  0  0  0  0  0  0  0  0  0
  189.6150  178.1430  139.2130 N   0  0  0  0  0  2  0  0  0  0  0  0
  187.6470  176.9060  139.2180 O   0  0  0  0  0  0  0  0  0  0  0  0
  190.1930  177.0750  137.0050 C   0  0  0  0  0  3  0  0  0  0  0  0
  191.0660  176.3130  136.2410 C   0  0  0  0  0  3  0  0  0  0  0  0
  192.2250  175.8100  136.7960 C   0  0  0  0  0  0  0  0  0  0  0  0
  192.5210  176.0900  138.1210 C   0  0  0  0  0  3  0  0  0  0  0  0
  191.6440  176.8480  138.8800 C   0  0  0  0  0  0  0  0  0  0  0  0
  190.4770  177.3390  138.3380 C   0  0  0  0  0  0  0  0  0  0  0  0
  191.9300  177.1140  140.1840 F   0  0  0  0  0  0  0  0  0  0  0  0
  193.1320  175.0610  136.0240 O   0  0  0  0  0  0  0  0  0  0  0  0
  195.8280  177.3980  134.9780 C   0  0  0  0  0  3  0  0  0  0  0  0
  196.8930  176.6950  135.3290 N   0  0  0  0  0  0  0  0  0  0  0  0
  196.7780  175.5070  135.8860 C   0  0  0  0  0  0  0  0  0  0  0  0
  195.5320  174.9540  136.1220 C   0  0  0  0  0  3  0  0  0  0  0  0
  194.3830  175.6560  135.7810 C   0  0  0  0  0  0  0  0  0  0  0  0
  194.5480  176.8990  135.1880 C   0  0  0  0  0  3  0  0  0  0  0  0
  198.0140  174.7060  136.2870 C   0  0  0  0  0  0  0  0  0  0  0  0
  199.0890  175.1820  136.1420 O   0  0  0  0  0  0  0  0  0  0  0  0
  197.8940  173.3760  136.8520 N   0  0  0  0  0  2  0  0  0  0  0  0
  199.1000  172.6610  137.2210 C   0  0  0  0  0  1  0  0  0  0  0  0
  183.9380  178.5170  140.9510 C   0  0  0  0  0  0  0  0  0  0  0  0
  185.0430  178.8100  140.1600 C   0  0  0  0  0  3  0  0  0  0  0  0
  186.1690  178.6270  140.9300 C   0  0  0  0  0  0  0  0  0  0  0  0
  185.7590  178.2350  142.1240 N   0  0  0  0  0  0  0  0  0  0  0  0
  184.3870  178.1580  142.1580 N   0  0  0  0  0  0  0  0  0  0  0  0
  186.6110  177.9130  143.2700 C   0  0  0  0  0  0  0  0  0  0  0  0
  187.7840  177.1860  143.0650 C   0  0  0  0  0  3  0  0  0  0  0  0
  188.6040  176.8600  144.1460 C   0  0  0  0  0  3  0  0  0  0  0  0
  188.2390  177.2670  145.4660 C   0  0  0  0  0  0  0  0  0  0  0  0
  187.0930  177.9770  145.6670 C   0  0  0  0  0  0  0  0  0  0  0  0
  186.2490  178.3090  144.5580 C   0  0  0  0  0  3  0  0  0  0  0  0
  188.7330  177.3240  147.7930 C   0  0  0  0  0  3  0  0  0  0  0  0
  189.0650  176.9430  146.5360 N   0  0  0  0  0  0  0  0  0  0  0  0
  186.7500  178.3680  146.9630 C   0  0  0  0  0  3  0  0  0  0  0  0
  187.5600  178.0450  148.0130 C   0  0  0  0  0  3  0  0  0  0  0  0
  182.4730  178.5840  140.5120 C   0  0  0  0  0  0  0  0  0  0  0  0
  182.3260  179.6200  139.3980 C   0  0  0  0  0  1  0  0  0  0  0  0
  181.6050  178.9740  141.7060 C   0  0  0  0  0  1  0  0  0  0  0  0
  182.0550  177.2200  139.9900 C   0  0  0  0  0  1  0  0  0  0  0  0
  1 25  1  0  0  0  0
  2  1  1  0  0  0  0
  3  2  1  0  0  0  0
  4  2  2  0  0  0  0
  5 10  1  0  0  0  0
  6  7  1  0  0  0  0
  6  5  2  0  0  0  0
  7  8  2  0  0  0  0
  8  9  1  0  0  0  0
  9 11  1  0  0  0  0
 10  9  2  0  0  0  0
 10  3  1  0  0  0  0
 12  7  1  0  0  0  0
 13 18  2  0  0  0  0
 13 14  1  0  0  0  0
 14 15  2  0  0  0  0
 15 16  1  0  0  0  0
 15 19  1  0  0  0  0
 17 12  1  0  0  0  0
 17 16  2  0  0  0  0
 18 17  1  0  0  0  0
 19 21  1  0  0  0  0
 20 19  2  0  0  0  0
 21 22  1  0  0  0  0
 23 27  2  0  0  0  0
 24 25  2  0  0  0  0
 24 23  1  0  0  0  0
 25 26  1  0  0  0  0
 26 27  1  0  0  0  0
 26 28  1  0  0  0  0
 28 33  1  0  0  0  0
 29 28  2  0  0  0  0
 29 30  1  0  0  0  0
 30 31  2  0  0  0  0
 31 32  1  0  0  0  0
 31 35  1  0  0  0  0
 32 36  1  0  0  0  0
 33 32  2  0  0  0  0
 34 37  1  0  0  0  0
 35 34  2  0  0  0  0
 36 37  2  0  0  0  0
 38 23  1  0  0  0  0
 38 40  1  0  0  0  0
 39 38  1  0  0  0  0
 41 38  1  0  0  0  0
M  END
>  <MODEL>
3

>  <REMARK>
 VINA RESULT:      -9.8      1.630      5.075
  Name = 8u8b
  7 active torsions:
  status: ('A' for Active; 'I' for Inactive)
    1  A    between atoms: C_1  and  N_26
    2  A    between atoms: C_13  and  C_33
    3  A    between atoms: C_15  and  O_32
    4  A    between atoms: C_19  and  O_32
    5  A    between atoms: C_22  and  N_30
    6  A    between atoms: C_23  and  C_37
    7  A    between atoms: C_25  and  N_28
                            x       y       z     vdW  Elec       q    Type
                         _______ _______ _______ _____ _____    ______ ____

>  <TORSDO>
F 7

$$$$
8u8b
 OpenBabel10242410243D

 41 45  0  0  0  0  0  0  0  0999 V2000
  188.2190  178.1820  142.5430 N   0  0  0  0  0  2  0  0  0  0  0  0
  189.1480  177.4000  141.7200 C   0  0  0  0  0  0  0  0  0  0  0  0
  189.2410  177.7200  140.2890 N   0  0  0  0  0  2  0  0  0  0  0  0
  189.7990  176.5380  142.2110 O   0  0  0  0  0  0  0  0  0  0  0  0
  191.4750  177.0890  139.3080 C   0  0  0  0  0  3  0  0  0  0  0  0
  192.2040  176.4440  138.3190 C   0  0  0  0  0  3  0  0  0  0  0  0
  191.5590  175.7780  137.2960 C   0  0  0  0  0  0  0  0  0  0  0  0
  190.1740  175.7420  137.2770 C   0  0  0  0  0  3  0  0  0  0  0  0
  189.4510  176.3910  138.2640 C   0  0  0  0  0  0  0  0  0  0  0  0
  190.0870  177.0720  139.2790 C   0  0  0  0  0  0  0  0  0  0  0  0
  188.0900  176.3640  138.2390 F   0  0  0  0  0  0  0  0  0  0  0  0
  192.2870  175.0960  136.3050 O   0  0  0  0  0  0  0  0  0  0  0  0
  194.3490  172.0920  137.0460 C   0  0  0  0  0  3  0  0  0  0  0  0
  195.3340  172.6500  137.7300 N   0  0  0  0  0  0  0  0  0  0  0  0
  195.3610  173.9480  137.9600 C   0  0  0  0  0  0  0  0  0  0  0  0
  194.3520  174.7700  137.4910 C   0  0  0  0  0  3  0  0  0  0  0  0
  193.3010  174.2340  136.7580 C   0  0  0  0  0  0  0  0  0  0  0  0
  193.3050  172.8630  136.5460 C   0  0  0  0  0  3  0  0  0  0  0  0
  196.5040  174.5800  138.7510 C   0  0  0  0  0  0  0  0  0  0  0  0
  197.5410  174.7820  138.2150 O   0  0  0  0  0  0  0  0  0  0  0  0
  196.3380  174.9460  140.1440 N   0  0  0  0  0  2  0  0  0  0  0  0
  197.4540  175.5480  140.8470 C   0  0  0  0  0  1  0  0  0  0  0  0
  188.5260  177.4750  146.1190 C   0  0  0  0  0  0  0  0  0  0  0  0
  189.0870  177.6320  144.8560 C   0  0  0  0  0  3  0  0  0  0  0  0
  188.0690  177.9360  143.9820 C   0  0  0  0  0  0  0  0  0  0  0  0
  186.9510  177.9680  144.6880 N   0  0  0  0  0  0  0  0  0  0  0  0
  187.2110  177.6890  146.0080 N   0  0  0  0  0  0  0  0  0  0  0  0
  185.6120  178.2610  144.1760 C   0  0  0  0  0  0  0  0  0  0  0  0
  184.6430  178.7630  145.0470 C   0  0  0  0  0  3  0  0  0  0  0  0
  183.3580  179.0380  144.5810 C   0  0  0  0  0  3  0  0  0  0  0  0
  183.0290  178.8020  143.2100 C   0  0  0  0  0  0  0  0  0  0  0  0
  183.9750  178.3110  142.3590 C   0  0  0  0  0  0  0  0  0  0  0  0
  185.2940  178.0250  142.8380 C   0  0  0  0  0  3  0  0  0  0  0  0
  181.4230  178.8670  141.4560 C   0  0  0  0  0  3  0  0  0  0  0  0
  181.7480  179.0840  142.7540 N   0  0  0  0  0  0  0  0  0  0  0  0
  183.6390  178.0850  141.0230 C   0  0  0  0  0  3  0  0  0  0  0  0
  182.3790  178.3600  140.5770 C   0  0  0  0  0  3  0  0  0  0  0  0
  189.2830  177.1290  147.4040 C   0  0  0  0  0  0  0  0  0  0  0  0
  189.2930  178.3460  148.3270 C   0  0  0  0  0  1  0  0  0  0  0  0
  190.7140  176.7260  147.0550 C   0  0  0  0  0  1  0  0  0  0  0  0
  188.5740  175.9780  148.0960 C   0  0  0  0  0  1  0  0  0  0  0  0
  1 25  1  0  0  0  0
  2  4  2  0  0  0  0
  2  1  1  0  0  0  0
  3  2  1  0  0  0  0
  6  5  2  0  0  0  0
  7  6  1  0  0  0  0
  8  7  2  0  0  0  0
  8  9  1  0  0  0  0
  9 10  2  0  0  0  0
 10  5  1  0  0  0  0
 10  3  1  0  0  0  0
 11  9  1  0  0  0  0
 12 17  1  0  0  0  0
 12  7  1  0  0  0  0
 13 14  1  0  0  0  0
 14 15  2  0  0  0  0
 15 19  1  0  0  0  0
 16 15  1  0  0  0  0
 17 16  2  0  0  0  0
 18 17  1  0  0  0  0
 18 13  2  0  0  0  0
 19 21  1  0  0  0  0
 20 19  2  0  0  0  0
 21 22  1  0  0  0  0
 23 38  1  0  0  0  0
 24 23  1  0  0  0  0
 25 26  1  0  0  0  0
 25 24  2  0  0  0  0
 26 27  1  0  0  0  0
 27 23  2  0  0  0  0
 28 26  1  0  0  0  0
 28 29  1  0  0  0  0
 30 29  2  0  0  0  0
 31 30  1  0  0  0  0
 32 33  1  0  0  0  0
 32 31  2  0  0  0  0
 33 28  2  0  0  0  0
 34 35  2  0  0  0  0
 35 31  1  0  0  0  0
 36 32  1  0  0  0  0
 37 36  2  0  0  0  0
 37 34  1  0  0  0  0
 38 41  1  0  0  0  0
 38 39  1  0  0  0  0
 40 38  1  0  0  0  0
M  END
>  <MODEL>
4

>  <REMARK>
 VINA RESULT:      -9.7      1.437      1.806
  Name = 8u8b
  7 active torsions:
  status: ('A' for Active; 'I' for Inactive)
    1  A    between atoms: C_1  and  N_26
    2  A    between atoms: C_13  and  C_33
    3  A    between atoms: C_15  and  O_32
    4  A    between atoms: C_19  and  O_32
    5  A    between atoms: C_22  and  N_30
    6  A    between atoms: C_23  and  C_37
    7  A    between atoms: C_25  and  N_28
                            x       y       z     vdW  Elec       q    Type
                         _______ _______ _______ _____ _____    ______ ____

>  <TORSDO>
F 7

$$$$
8u8b
 OpenBabel10242410243D

 41 45  0  0  0  0  0  0  0  0999 V2000
  188.1010  177.7610  142.6900 N   0  0  0  0  0  2  0  0  0  0  0  0
  189.3810  177.3910  142.0760 C   0  0  0  0  0  0  0  0  0  0  0  0
  189.4920  177.4620  140.6130 N   0  0  0  0  0  2  0  0  0  0  0  0
  190.2920  177.0480  142.7560 O   0  0  0  0  0  0  0  0  0  0  0  0
  191.9640  177.4780  140.1200 C   0  0  0  0  0  3  0  0  0  0  0  0
  193.0160  177.1240  139.2880 C   0  0  0  0  0  3  0  0  0  0  0  0
  192.7810  176.4290  138.1180 C   0  0  0  0  0  0  0  0  0  0  0  0
  191.4830  176.0690  137.7930 C   0  0  0  0  0  3  0  0  0  0  0  0
  190.4350  176.4280  138.6250 C   0  0  0  0  0  0  0  0  0  0  0  0
  190.6610  177.1360  139.7850 C   0  0  0  0  0  0  0  0  0  0  0  0
  189.1600  176.0830  138.2990 F   0  0  0  0  0  0  0  0  0  0  0  0
  193.8420  176.0400  137.2820 O   0  0  0  0  0  0  0  0  0  0  0  0
  196.0070  173.3800  138.7200 C   0  0  0  0  0  3  0  0  0  0  0  0
  195.5730  172.3330  138.0360 N   0  0  0  0  0  0  0  0  0  0  0  0
  194.6150  172.4490  137.1370 C   0  0  0  0  0  0  0  0  0  0  0  0
  194.0340  173.6770  136.8790 C   0  0  0  0  0  3  0  0  0  0  0  0
  194.4470  174.8040  137.5760 C   0  0  0  0  0  0  0  0  0  0  0  0
  195.4620  174.6420  138.5070 C   0  0  0  0  0  3  0  0  0  0  0  0
  194.1220  171.2330  136.3570 C   0  0  0  0  0  0  0  0  0  0  0  0
  194.7430  170.2250  136.3960 O   0  0  0  0  0  0  0  0  0  0  0  0
  192.9030  171.2900  135.5740 N   0  0  0  0  0  2  0  0  0  0  0  0
  192.4770  170.1050  134.8560 C   0  0  0  0  0  1  0  0  0  0  0  0
  188.2850  177.5330  146.3360 C   0  0  0  0  0  0  0  0  0  0  0  0
  188.8800  177.4730  145.0810 C   0  0  0  0  0  3  0  0  0  0  0  0
  187.9050  177.7270  144.1440 C   0  0  0  0  0  0  0  0  0  0  0  0
  186.7800  177.9380  144.8050 N   0  0  0  0  0  0  0  0  0  0  0  0
  186.9920  177.8260  146.1580 N   0  0  0  0  0  0  0  0  0  0  0  0
  185.4770  178.2540  144.2190 C   0  0  0  0  0  0  0  0  0  0  0  0
  184.4480  178.7050  145.0470 C   0  0  0  0  0  3  0  0  0  0  0  0
  183.1950  179.0010  144.5090 C   0  0  0  0  0  3  0  0  0  0  0  0
  182.9630  178.8390  143.1090 C   0  0  0  0  0  0  0  0  0  0  0  0
  183.9680  178.3970  142.3000 C   0  0  0  0  0  0  0  0  0  0  0  0
  185.2540  178.0900  142.8510 C   0  0  0  0  0  3  0  0  0  0  0  0
  181.4810  178.9950  141.2550 C   0  0  0  0  0  3  0  0  0  0  0  0
  181.7140  179.1420  142.5820 N   0  0  0  0  0  0  0  0  0  0  0  0
  183.7260  178.2440  140.9330 C   0  0  0  0  0  3  0  0  0  0  0  0
  182.4970  178.5390  140.4170 C   0  0  0  0  0  3  0  0  0  0  0  0
  188.9890  177.3140  147.6780 C   0  0  0  0  0  0  0  0  0  0  0  0
  188.2420  176.2420  148.4710 C   0  0  0  0  0  1  0  0  0  0  0  0
  189.0060  178.6250  148.4600 C   0  0  0  0  0  1  0  0  0  0  0  0
  190.4100  176.8470  147.4150 C   0  0  0  0  0  1  0  0  0  0  0  0
  1 25  1  0  0  0  0
  2  1  1  0  0  0  0
  2  4  2  0  0  0  0
  3  2  1  0  0  0  0
  6  5  2  0  0  0  0
  7  6  1  0  0  0  0
  8  7  2  0  0  0  0
  8  9  1  0  0  0  0
  9 10  2  0  0  0  0
 10  5  1  0  0  0  0
 10  3  1  0  0  0  0
 11  9  1  0  0  0  0
 12 17  1  0  0  0  0
 12  7  1  0  0  0  0
 14 13  2  0  0  0  0
 15 14  1  0  0  0  0
 16 15  2  0  0  0  0
 16 17  1  0  0  0  0
 17 18  2  0  0  0  0
 18 13  1  0  0  0  0
 19 20  2  0  0  0  0
 19 15  1  0  0  0  0
 21 19  1  0  0  0  0
 22 21  1  0  0  0  0
 23 38  1  0  0  0  0
 24 23  1  0  0  0  0
 25 26  1  0  0  0  0
 25 24  2  0  0  0  0
 26 27  1  0  0  0  0
 27 23  2  0  0  0  0
 28 26  1  0  0  0  0
 28 29  1  0  0  0  0
 30 29  2  0  0  0  0
 31 30  1  0  0  0  0
 32 33  1  0  0  0  0
 32 31  2  0  0  0  0
 33 28  2  0  0  0  0
 34 35  2  0  0  0  0
 35 31  1  0  0  0  0
 36 32  1  0  0  0  0
 37 36  2  0  0  0  0
 37 34  1  0  0  0  0
 38 40  1  0  0  0  0
 38 39  1  0  0  0  0
 41 38  1  0  0  0  0
M  END
>  <MODEL>
5

>  <REMARK>
 VINA RESULT:      -9.4      1.913      2.750
  Name = 8u8b
  7 active torsions:
  status: ('A' for Active; 'I' for Inactive)
    1  A    between atoms: C_1  and  N_26
    2  A    between atoms: C_13  and  C_33
    3  A    between atoms: C_15  and  O_32
    4  A    between atoms: C_19  and  O_32
    5  A    between atoms: C_22  and  N_30
    6  A    between atoms: C_23  and  C_37
    7  A    between atoms: C_25  and  N_28
                            x       y       z     vdW  Elec       q    Type
                         _______ _______ _______ _____ _____    ______ ____

>  <TORSDO>
F 7

$$$$
8u8b
 OpenBabel10242410243D

 41 45  0  0  0  0  0  0  0  0999 V2000
  189.6060  178.5200  143.5220 N   0  0  0  0  0  2  0  0  0  0  0  0
  189.2790  177.8470  142.2600 C   0  0  0  0  0  0  0  0  0  0  0  0
  189.1420  178.6710  141.0520 N   0  0  0  0  0  2  0  0  0  0  0  0
  189.1340  176.6690  142.2320 O   0  0  0  0  0  0  0  0  0  0  0  0
  189.7620  177.7860  138.7740 C   0  0  0  0  0  3  0  0  0  0  0  0
  189.3700  177.3700  137.5100 C   0  0  0  0  0  3  0  0  0  0  0  0
  188.0370  177.3830  137.1500 C   0  0  0  0  0  0  0  0  0  0  0  0
  187.0900  177.7990  138.0720 C   0  0  0  0  0  3  0  0  0  0  0  0
  187.4860  178.2180  139.3310 C   0  0  0  0  0  0  0  0  0  0  0  0
  188.8150  178.2230  139.6920 C   0  0  0  0  0  0  0  0  0  0  0  0
  186.5550  178.6360  140.2320 F   0  0  0  0  0  0  0  0  0  0  0  0
  187.6250  176.9350  135.8820 O   0  0  0  0  0  0  0  0  0  0  0  0
  188.2940  173.4370  134.8100 C   0  0  0  0  0  3  0  0  0  0  0  0
  187.2930  172.8150  135.4130 N   0  0  0  0  0  0  0  0  0  0  0  0
  186.4180  173.4730  136.1480 C   0  0  0  0  0  0  0  0  0  0  0  0
  186.5200  174.8430  136.3100 C   0  0  0  0  0  3  0  0  0  0  0  0
  187.5580  175.5410  135.7050 C   0  0  0  0  0  0  0  0  0  0  0  0
  188.4510  174.8140  134.9340 C   0  0  0  0  0  3  0  0  0  0  0  0
  185.2690  172.7440  136.8390 C   0  0  0  0  0  0  0  0  0  0  0  0
  185.0420  172.9640  137.9800 O   0  0  0  0  0  0  0  0  0  0  0  0
  184.4460  171.7910  136.1200 N   0  0  0  0  0  2  0  0  0  0  0  0
  183.3640  171.1300  136.8220 C   0  0  0  0  0  1  0  0  0  0  0  0
  190.6710  176.6050  146.4510 C   0  0  0  0  0  0  0  0  0  0  0  0
  190.9440  177.2250  145.2370 C   0  0  0  0  0  3  0  0  0  0  0  0
  189.7690  177.7730  144.7740 C   0  0  0  0  0  0  0  0  0  0  0  0
  188.8380  177.5020  145.6720 N   0  0  0  0  0  0  0  0  0  0  0  0
  189.3730  176.7850  146.7150 N   0  0  0  0  0  0  0  0  0  0  0  0
  187.4300  177.8960  145.6050 C   0  0  0  0  0  0  0  0  0  0  0  0
  186.7690  178.2670  146.7780 C   0  0  0  0  0  3  0  0  0  0  0  0
  185.4240  178.6360  146.7360 C   0  0  0  0  0  3  0  0  0  0  0  0
  184.7200  178.6290  145.4930 C   0  0  0  0  0  0  0  0  0  0  0  0
  185.3650  178.2650  144.3480 C   0  0  0  0  0  0  0  0  0  0  0  0
  186.7450  177.8840  144.3900 C   0  0  0  0  0  3  0  0  0  0  0  0
  182.7020  179.0020  144.2890 C   0  0  0  0  0  3  0  0  0  0  0  0
  183.3820  179.0020  145.4620 N   0  0  0  0  0  0  0  0  0  0  0  0
  184.6630  178.2640  143.1410 C   0  0  0  0  0  3  0  0  0  0  0  0
  183.3480  178.6280  143.1120 C   0  0  0  0  0  3  0  0  0  0  0  0
  191.6810  175.8610  147.3290 C   0  0  0  0  0  0  0  0  0  0  0  0
  190.9630  174.7490  148.0920 C   0  0  0  0  0  1  0  0  0  0  0  0
  192.3160  176.8430  148.3110 C   0  0  0  0  0  1  0  0  0  0  0  0
  192.7500  175.2530  146.4390 C   0  0  0  0  0  1  0  0  0  0  0  0
  1 25  1  0  0  0  0
  2  1  1  0  0  0  0
  3  2  1  0  0  0  0
  4  2  2  0  0  0  0
  5 10  1  0  0  0  0
  6  5  2  0  0  0  0
  7  6  1  0  0  0  0
  7  8  2  0  0  0  0
  8  9  1  0  0  0  0
  9 10  2  0  0  0  0
  9 11  1  0  0  0  0
 10  3  1  0  0  0  0
 12  7  1  0  0  0  0
 13 18  2  0  0  0  0
 13 14  1  0  0  0  0
 14 15  2  0  0  0  0
 15 16  1  0  0  0  0
 15 19  1  0  0  0  0
 17 12  1  0  0  0  0
 17 16  2  0  0  0  0
 18 17  1  0  0  0  0
 19 20  2  0  0  0  0
 21 22  1  0  0  0  0
 21 19  1  0  0  0  0
 23 27  2  0  0  0  0
 23 38  1  0  0  0  0
 24 23  1  0  0  0  0
 25 24  2  0  0  0  0
 25 26  1  0  0  0  0
 26 27  1  0  0  0  0
 28 26  1  0  0  0  0
 28 29  1  0  0  0  0
 30 29  2  0  0  0  0
 31 30  1  0  0  0  0
 32 33  1  0  0  0  0
 32 31  2  0  0  0  0
 33 28  2  0  0  0  0
 34 35  2  0  0  0  0
 35 31  1  0  0  0  0
 36 32  1  0  0  0  0
 37 36  2  0  0  0  0
 37 34  1  0  0  0  0
 38 39  1  0  0  0  0
 38 40  1  0  0  0  0
 41 38  1  0  0  0  0
M  END
>  <MODEL>
6

>  <REMARK>
 VINA RESULT:      -9.2      4.352      5.838
  Name = 8u8b
  7 active torsions:
  status: ('A' for Active; 'I' for Inactive)
    1  A    between atoms: C_1  and  N_26
    2  A    between atoms: C_13  and  C_33
    3  A    between atoms: C_15  and  O_32
    4  A    between atoms: C_19  and  O_32
    5  A    between atoms: C_22  and  N_30
    6  A    between atoms: C_23  and  C_37
    7  A    between atoms: C_25  and  N_28
                            x       y       z     vdW  Elec       q    Type
                         _______ _______ _______ _____ _____    ______ ____

>  <TORSDO>
F 7

$$$$
8u8b
 OpenBabel10242410243D

 41 45  0  0  0  0  0  0  0  0999 V2000
  188.4510  178.5500  142.6880 N   0  0  0  0  0  2  0  0  0  0  0  0
  188.6380  177.5490  141.6320 C   0  0  0  0  0  0  0  0  0  0  0  0
  188.8250  178.0230  140.2540 N   0  0  0  0  0  2  0  0  0  0  0  0
  188.6370  176.3920  141.8990 O   0  0  0  0  0  0  0  0  0  0  0  0
  190.1330  176.4120  138.8240 C   0  0  0  0  0  3  0  0  0  0  0  0
  190.2390  175.6690  137.6580 C   0  0  0  0  0  3  0  0  0  0  0  0
  189.2420  175.7160  136.7040 C   0  0  0  0  0  0  0  0  0  0  0  0
  188.1210  176.4990  136.9330 C   0  0  0  0  0  3  0  0  0  0  0  0
  188.0220  177.2430  138.0970 C   0  0  0  0  0  0  0  0  0  0  0  0
  189.0210  177.2140  139.0450 C   0  0  0  0  0  0  0  0  0  0  0  0
  186.9260  178.0200  138.3150 F   0  0  0  0  0  0  0  0  0  0  0  0
  189.3240  174.9440  135.5310 O   0  0  0  0  0  0  0  0  0  0  0  0
  188.5980  171.3180  135.1370 C   0  0  0  0  0  3  0  0  0  0  0  0
  187.3990  171.2610  135.6940 N   0  0  0  0  0  0  0  0  0  0  0  0
  186.8190  172.3360  136.1900 C   0  0  0  0  0  0  0  0  0  0  0  0
  187.4510  173.5650  136.1400 C   0  0  0  0  0  3  0  0  0  0  0  0
  188.7140  173.6770  135.5750 C   0  0  0  0  0  0  0  0  0  0  0  0
  189.2860  172.5250  135.0570 C   0  0  0  0  0  3  0  0  0  0  0  0
  185.4360  172.2560  136.8300 C   0  0  0  0  0  0  0  0  0  0  0  0
  185.2400  172.8020  137.8630 O   0  0  0  0  0  0  0  0  0  0  0  0
  184.3560  171.5290  136.1920 N   0  0  0  0  0  2  0  0  0  0  0  0
  183.0600  171.4890  136.8410 C   0  0  0  0  0  1  0  0  0  0  0  0
  188.6740  177.5420  146.1970 C   0  0  0  0  0  0  0  0  0  0  0  0
  189.2690  177.8500  144.9790 C   0  0  0  0  0  3  0  0  0  0  0  0
  188.2650  178.1640  144.0910 C   0  0  0  0  0  0  0  0  0  0  0  0
  187.1230  178.0570  144.7480 N   0  0  0  0  0  0  0  0  0  0  0  0
  187.3520  177.6780  146.0490 N   0  0  0  0  0  0  0  0  0  0  0  0
  185.7860  178.3060  144.2070 C   0  0  0  0  0  0  0  0  0  0  0  0
  184.7960  178.8250  145.0430 C   0  0  0  0  0  3  0  0  0  0  0  0
  183.5130  179.0580  144.5490 C   0  0  0  0  0  3  0  0  0  0  0  0
  183.2090  178.7610  143.1850 C   0  0  0  0  0  0  0  0  0  0  0  0
  184.1740  178.2530  142.3680 C   0  0  0  0  0  0  0  0  0  0  0  0
  185.4920  178.0100  142.8750 C   0  0  0  0  0  3  0  0  0  0  0  0
  181.6270  178.7270  141.4080 C   0  0  0  0  0  3  0  0  0  0  0  0
  181.9290  179.0020  142.7000 N   0  0  0  0  0  0  0  0  0  0  0  0
  183.8620  177.9670  141.0370 C   0  0  0  0  0  3  0  0  0  0  0  0
  182.6040  178.2020  140.5630 C   0  0  0  0  0  3  0  0  0  0  0  0
  189.4050  177.1320  147.4790 C   0  0  0  0  0  0  0  0  0  0  0  0
  189.3890  178.2990  148.4650 C   0  0  0  0  0  1  0  0  0  0  0  0
  190.8450  176.7530  147.1400 C   0  0  0  0  0  1  0  0  0  0  0  0
  188.6870  175.9430  148.0940 C   0  0  0  0  0  1  0  0  0  0  0  0
  1 25  1  0  0  0  0
  2  4  2  0  0  0  0
  2  1  1  0  0  0  0
  3  2  1  0  0  0  0
  5 10  1  0  0  0  0
  6  5  2  0  0  0  0
  7  8  2  0  0  0  0
  7  6  1  0  0  0  0
  8  9  1  0  0  0  0
  9 11  1  0  0  0  0
  9 10  2  0  0  0  0
 10  3  1  0  0  0  0
 12 17  1  0  0  0  0
 12  7  1  0  0  0  0
 13 14  1  0  0  0  0
 14 15  2  0  0  0  0
 15 19  1  0  0  0  0
 16 15  1  0  0  0  0
 17 16  2  0  0  0  0
 18 13  2  0  0  0  0
 18 17  1  0  0  0  0
 19 20  2  0  0  0  0
 21 19  1  0  0  0  0
 21 22  1  0  0  0  0
 23 38  1  0  0  0  0
 24 23  1  0  0  0  0
 25 26  1  0  0  0  0
 25 24  2  0  0  0  0
 26 27  1  0  0  0  0
 27 23  2  0  0  0  0
 28 26  1  0  0  0  0
 28 29  1  0  0  0  0
 30 29  2  0  0  0  0
 31 30  1  0  0  0  0
 32 33  1  0  0  0  0
 32 31  2  0  0  0  0
 33 28  2  0  0  0  0
 34 35  2  0  0  0  0
 35 31  1  0  0  0  0
 36 32  1  0  0  0  0
 37 36  2  0  0  0  0
 37 34  1  0  0  0  0
 38 41  1  0  0  0  0
 38 39  1  0  0  0  0
 40 38  1  0  0  0  0
M  END
>  <MODEL>
7

>  <REMARK>
 VINA RESULT:      -9.2      3.611      5.418
  Name = 8u8b
  7 active torsions:
  status: ('A' for Active; 'I' for Inactive)
    1  A    between atoms: C_1  and  N_26
    2  A    between atoms: C_13  and  C_33
    3  A    between atoms: C_15  and  O_32
    4  A    between atoms: C_19  and  O_32
    5  A    between atoms: C_22  and  N_30
    6  A    between atoms: C_23  and  C_37
    7  A    between atoms: C_25  and  N_28
                            x       y       z     vdW  Elec       q    Type
                         _______ _______ _______ _____ _____    ______ ____

>  <TORSDO>
F 7

$$$$
8u8b
 OpenBabel10242410243D

 41 45  0  0  0  0  0  0  0  0999 V2000
  187.5290  178.6260  141.2600 N   0  0  0  0  0  2  0  0  0  0  0  0
  188.2900  177.9100  140.2300 C   0  0  0  0  0  0  0  0  0  0  0  0
  189.7530  178.0450  140.2330 N   0  0  0  0  0  2  0  0  0  0  0  0
  187.7260  177.2450  139.4250 O   0  0  0  0  0  0  0  0  0  0  0  0
  190.3770  176.9810  138.0340 C   0  0  0  0  0  3  0  0  0  0  0  0
  191.3450  176.4230  137.2120 C   0  0  0  0  0  3  0  0  0  0  0  0
  192.6520  176.3120  137.6450 C   0  0  0  0  0  0  0  0  0  0  0  0
  192.9920  176.7820  138.9030 C   0  0  0  0  0  3  0  0  0  0  0  0
  192.0210  177.3340  139.7220 C   0  0  0  0  0  0  0  0  0  0  0  0
  190.7120  177.4330  139.3040 C   0  0  0  0  0  0  0  0  0  0  0  0
  192.3540  177.7860  140.9620 F   0  0  0  0  0  0  0  0  0  0  0  0
  193.6470  175.7750  136.8090 O   0  0  0  0  0  0  0  0  0  0  0  0
  195.4990  173.0180  138.4830 C   0  0  0  0  0  3  0  0  0  0  0  0
  195.0880  171.9900  137.7580 N   0  0  0  0  0  0  0  0  0  0  0  0
  194.2430  172.1480  136.7590 C   0  0  0  0  0  0  0  0  0  0  0  0
  193.7580  173.4020  136.4350 C   0  0  0  0  0  3  0  0  0  0  0  0
  194.1510  174.5120  137.1720 C   0  0  0  0  0  0  0  0  0  0  0  0
  195.0480  174.3050  138.2090 C   0  0  0  0  0  3  0  0  0  0  0  0
  193.7760  170.9530  135.9310 C   0  0  0  0  0  0  0  0  0  0  0  0
  194.5140  170.0450  135.7510 O   0  0  0  0  0  0  0  0  0  0  0  0
  192.4410  170.9090  135.3680 N   0  0  0  0  0  2  0  0  0  0  0  0
  192.0460  169.7480  134.5940 C   0  0  0  0  0  1  0  0  0  0  0  0
  183.9080  178.4780  140.7640 C   0  0  0  0  0  0  0  0  0  0  0  0
  185.2010  178.5910  140.2660 C   0  0  0  0  0  3  0  0  0  0  0  0
  186.0660  178.5410  141.3350 C   0  0  0  0  0  0  0  0  0  0  0  0
  185.3270  178.3950  142.4220 N   0  0  0  0  0  0  0  0  0  0  0  0
  183.9940  178.3510  142.0920 N   0  0  0  0  0  0  0  0  0  0  0  0
  185.8200  178.2860  143.7960 C   0  0  0  0  0  0  0  0  0  0  0  0
  185.0210  178.7430  144.8450 C   0  0  0  0  0  3  0  0  0  0  0  0
  185.4770  178.6580  146.1610 C   0  0  0  0  0  3  0  0  0  0  0  0
  186.7660  178.1050  146.4350 C   0  0  0  0  0  0  0  0  0  0  0  0
  187.5470  177.6590  145.4100 C   0  0  0  0  0  0  0  0  0  0  0  0
  187.0810  177.7490  144.0580 C   0  0  0  0  0  3  0  0  0  0  0  0
  188.4280  177.4950  148.0230 C   0  0  0  0  0  3  0  0  0  0  0  0
  187.2090  178.0190  147.7490 N   0  0  0  0  0  0  0  0  0  0  0  0
  188.8040  177.1210  145.6940 C   0  0  0  0  0  3  0  0  0  0  0  0
  189.2390  177.0400  146.9850 C   0  0  0  0  0  3  0  0  0  0  0  0
  182.6200  178.4850  139.9350 C   0  0  0  0  0  0  0  0  0  0  0  0
  182.6780  177.3620  138.9010 C   0  0  0  0  0  1  0  0  0  0  0  0
  182.4780  179.8340  139.2340 C   0  0  0  0  0  1  0  0  0  0  0  0
  181.4390  178.2560  140.8620 C   0  0  0  0  0  1  0  0  0  0  0  0
  1 25  1  0  0  0  0
  2  3  1  0  0  0  0
  2  1  1  0  0  0  0
  4  2  2  0  0  0  0
  5 10  1  0  0  0  0
  6  7  1  0  0  0  0
  6  5  2  0  0  0  0
  7  8  2  0  0  0  0
  8  9  1  0  0  0  0
  9 11  1  0  0  0  0
 10  9  2  0  0  0  0
 10  3  1  0  0  0  0
 12 17  1  0  0  0  0
 12  7  1  0  0  0  0
 14 13  2  0  0  0  0
 15 14  1  0  0  0  0
 16 15  2  0  0  0  0
 16 17  1  0  0  0  0
 17 18  2  0  0  0  0
 18 13  1  0  0  0  0
 19 15  1  0  0  0  0
 20 19  2  0  0  0  0
 21 19  1  0  0  0  0
 22 21  1  0  0  0  0
 23 27  2  0  0  0  0
 24 23  1  0  0  0  0
 24 25  2  0  0  0  0
 25 26  1  0  0  0  0
 26 28  1  0  0  0  0
 27 26  1  0  0  0  0
 28 33  2  0  0  0  0
 28 29  1  0  0  0  0
 29 30  2  0  0  0  0
 30 31  1  0  0  0  0
 31 35  1  0  0  0  0
 32 36  1  0  0  0  0
 32 31  2  0  0  0  0
 33 32  1  0  0  0  0
 35 34  2  0  0  0  0
 36 37  2  0  0  0  0
 37 34  1  0  0  0  0
 38 23  1  0  0  0  0
 38 41  1  0  0  0  0
 39 38  1  0  0  0  0
 40 38  1  0  0  0  0
M  END
>  <MODEL>
8

>  <REMARK>
 VINA RESULT:      -9.0      2.291      5.561
  Name = 8u8b
  7 active torsions:
  status: ('A' for Active; 'I' for Inactive)
    1  A    between atoms: C_1  and  N_26
    2  A    between atoms: C_13  and  C_33
    3  A    between atoms: C_15  and  O_32
    4  A    between atoms: C_19  and  O_32
    5  A    between atoms: C_22  and  N_30
    6  A    between atoms: C_23  and  C_37
    7  A    between atoms: C_25  and  N_28
                            x       y       z     vdW  Elec       q    Type
                         _______ _______ _______ _____ _____    ______ ____

>  <TORSDO>
F 7

$$$$
8u8b
 OpenBabel10242410243D

 41 45  0  0  0  0  0  0  0  0999 V2000
  191.5740  177.2280  139.0320 N   0  0  0  0  0  2  0  0  0  0  0  0
  191.0290  176.9250  140.3610 C   0  0  0  0  0  0  0  0  0  0  0  0
  191.7450  177.4380  141.5360 N   0  0  0  0  0  2  0  0  0  0  0  0
  190.0370  176.2810  140.4650 O   0  0  0  0  0  0  0  0  0  0  0  0
  191.6680  176.1010  143.6710 C   0  0  0  0  0  3  0  0  0  0  0  0
  191.3130  176.0110  145.0090 C   0  0  0  0  0  3  0  0  0  0  0  0
  190.6860  177.0670  145.6400 C   0  0  0  0  0  0  0  0  0  0  0  0
  190.4320  178.2280  144.9280 C   0  0  0  0  0  3  0  0  0  0  0  0
  190.7840  178.3120  143.5910 C   0  0  0  0  0  0  0  0  0  0  0  0
  191.3950  177.2560  142.9500 C   0  0  0  0  0  0  0  0  0  0  0  0
  190.5240  179.4490  142.8890 F   0  0  0  0  0  0  0  0  0  0  0  0
  190.3480  176.9980  147.0030 O   0  0  0  0  0  0  0  0  0  0  0  0
  187.4780  178.4030  148.9060 C   0  0  0  0  0  3  0  0  0  0  0  0
  186.5830  178.4990  147.9370 N   0  0  0  0  0  0  0  0  0  0  0  0
  186.8650  178.1330  146.7020 C   0  0  0  0  0  0  0  0  0  0  0  0
  188.1140  177.6330  146.3820 C   0  0  0  0  0  3  0  0  0  0  0  0
  189.0920  177.5210  147.3610 C   0  0  0  0  0  0  0  0  0  0  0  0
  188.7520  177.9080  148.6480 C   0  0  0  0  0  3  0  0  0  0  0  0
  185.8230  178.2500  145.5920 C   0  0  0  0  0  0  0  0  0  0  0  0
  186.0410  177.7630  144.5350 O   0  0  0  0  0  0  0  0  0  0  0  0
  184.5670  178.9400  145.8140 N   0  0  0  0  0  2  0  0  0  0  0  0
  183.6100  179.0180  144.7280 C   0  0  0  0  0  1  0  0  0  0  0  0
  189.3760  176.3520  136.2430 C   0  0  0  0  0  0  0  0  0  0  0  0
  189.5920  176.9410  137.4840 C   0  0  0  0  0  3  0  0  0  0  0  0
  190.9180  176.7610  137.8060 C   0  0  0  0  0  0  0  0  0  0  0  0
  191.4730  176.1040  136.8020 N   0  0  0  0  0  0  0  0  0  0  0  0
  190.5410  175.8440  135.8260 N   0  0  0  0  0  0  0  0  0  0  0  0
  192.8760  175.6980  136.7020 C   0  0  0  0  0  0  0  0  0  0  0  0
  193.7200  176.3740  135.8190 C   0  0  0  0  0  3  0  0  0  0  0  0
  195.0580  175.9950  135.7020 C   0  0  0  0  0  3  0  0  0  0  0  0
  195.5640  174.9110  136.4830 C   0  0  0  0  0  0  0  0  0  0  0  0
  194.7390  174.2500  137.3440 C   0  0  0  0  0  0  0  0  0  0  0  0
  193.3650  174.6360  137.4640 C   0  0  0  0  0  3  0  0  0  0  0  0
  197.3920  173.5190  137.0990 C   0  0  0  0  0  3  0  0  0  0  0  0
  196.8990  174.5440  136.3630 N   0  0  0  0  0  0  0  0  0  0  0  0
  195.2490  173.1930  138.1010 C   0  0  0  0  0  3  0  0  0  0  0  0
  196.5590  172.8320  137.9800 C   0  0  0  0  0  3  0  0  0  0  0  0
  188.0450  176.3050  135.4880 C   0  0  0  0  0  0  0  0  0  0  0  0
  187.9890  175.0360  134.6390 C   0  0  0  0  0  1  0  0  0  0  0  0
  187.9280  177.5370  134.5940 C   0  0  0  0  0  1  0  0  0  0  0  0
  186.9100  176.2870  136.4970 C   0  0  0  0  0  1  0  0  0  0  0  0
  1  2  1  0  0  0  0
  2  4  2  0  0  0  0
  2  3  1  0  0  0  0
  3 10  1  0  0  0  0
  5  6  1  0  0  0  0
  6  7  2  0  0  0  0
  7 12  1  0  0  0  0
  8  7  1  0  0  0  0
  9  8  2  0  0  0  0
 10  9  1  0  0  0  0
 10  5  2  0  0  0  0
 11  9  1  0  0  0  0
 12 17  1  0  0  0  0
 14 13  2  0  0  0  0
 15 14  1  0  0  0  0
 16 15  2  0  0  0  0
 16 17  1  0  0  0  0
 17 18  2  0  0  0  0
 18 13  1  0  0  0  0
 19 21  1  0  0  0  0
 19 15  1  0  0  0  0
 20 19  2  0  0  0  0
 22 21  1  0  0  0  0
 23 24  1  0  0  0  0
 24 25  2  0  0  0  0
 25  1  1  0  0  0  0
 26 25  1  0  0  0  0
 27 23  2  0  0  0  0
 27 26  1  0  0  0  0
 28 26  1  0  0  0  0
 28 33  1  0  0  0  0
 29 28  2  0  0  0  0
 30 29  1  0  0  0  0
 30 31  2  0  0  0  0
 31 32  1  0  0  0  0
 32 33  2  0  0  0  0
 32 36  1  0  0  0  0
 34 37  1  0  0  0  0
 35 31  1  0  0  0  0
 35 34  2  0  0  0  0
 37 36  2  0  0  0  0
 38 23  1  0  0  0  0
 38 41  1  0  0  0  0
 39 38  1  0  0  0  0
 40 38  1  0  0  0  0
M  END
>  <MODEL>
9

>  <REMARK>
 VINA RESULT:      -9.0      2.646     11.681
  Name = 8u8b
  7 active torsions:
  status: ('A' for Active; 'I' for Inactive)
    1  A    between atoms: C_1  and  N_26
    2  A    between atoms: C_13  and  C_33
    3  A    between atoms: C_15  and  O_32
    4  A    between atoms: C_19  and  O_32
    5  A    between atoms: C_22  and  N_30
    6  A    between atoms: C_23  and  C_37
    7  A    between atoms: C_25  and  N_28
                            x       y       z     vdW  Elec       q    Type
                         _______ _______ _______ _____ _____    ______ ____

>  <TORSDO>
F 7

$$$$
