8u8a
 OpenBabel10242410243D

 39 43  0  0  0  0  0  0  0  0999 V2000
  190.4440  175.3610  142.8530 O   0  0  0  0  0  0  0  0  0  0  0  0
  190.1520  177.3440  141.7900 N   0  0  0  0  0  2  0  0  0  0  0  0
  189.9700  176.4960  142.8130 C   0  0  0  0  0  0  0  0  0  0  0  0
  186.9340  177.7940  144.6580 C   0  0  0  0  0  0  0  0  0  0  0  0
  187.3890  177.8710  146.0280 C   0  0  0  0  0  0  0  0  0  0  0  0
  188.7320  177.4840  146.3460 C   0  0  0  0  0  3  0  0  0  0  0  0
  189.6010  177.0230  145.3170 C   0  0  0  0  0  3  0  0  0  0  0  0
  189.1320  176.9550  143.9580 C   0  0  0  0  0  0  0  0  0  0  0  0
  187.8100  177.3420  143.6570 C   0  0  0  0  0  3  0  0  0  0  0  0
  186.4640  178.3600  147.1340 C   0  0  0  0  0  1  0  0  0  0  0  0
  185.5860  178.1720  144.2750 C   0  0  0  0  0  0  0  0  0  0  0  0
  184.4750  178.4360  143.8680 C   0  0  0  0  0  0  0  0  0  0  0  0
  182.1120  178.9580  143.9840 C   0  0  0  0  0  3  0  0  0  0  0  0
  181.0650  179.1530  143.1200 N   0  0  0  0  0  0  0  0  0  0  0  0
  183.2310  178.6890  143.2950 C   0  0  0  0  0  0  0  0  0  0  0  0
  181.0030  179.0750  140.6150 C   0  0  0  0  0  3  0  0  0  0  0  0
  183.7960  178.4840  140.9430 N   0  0  0  0  0  0  0  0  0  0  0  0
  181.8270  178.8630  139.5340 C   0  0  0  0  0  3  0  0  0  0  0  0
  182.9310  178.7040  141.9760 N   0  0  0  0  0  0  0  0  0  0  0  0
  183.1960  178.5730  139.7580 C   0  0  0  0  0  3  0  0  0  0  0  0
  181.5600  179.0000  141.9180 C   0  0  0  0  0  0  0  0  0  0  0  0
  190.9070  177.0860  140.6200 C   0  0  0  0  0  0  0  0  0  0  0  0
  192.2780  177.4220  140.6100 C   0  0  0  0  0  3  0  0  0  0  0  0
  193.0740  177.1720  139.4480 C   0  0  0  0  0  3  0  0  0  0  0  0
  192.5110  176.5720  138.2600 C   0  0  0  0  0  0  0  0  0  0  0  0
  191.0900  176.2300  138.2740 C   0  0  0  0  0  0  0  0  0  0  0  0
  190.3370  176.4960  139.4450 C   0  0  0  0  0  3  0  0  0  0  0  0
  190.3250  175.5840  137.1170 C   0  0  0  0  0  0  0  0  0  0  0  0
  190.8120  174.3950  136.8620 F   0  0  0  0  0  0  0  0  0  0  0  0
  189.0360  175.4350  137.3820 F   0  0  0  0  0  0  0  0  0  0  0  0
  190.4160  176.3420  136.0290 F   0  0  0  0  0  0  0  0  0  0  0  0
  193.4500  176.3390  137.0570 C   0  0  0  0  0  2  0  0  0  0  0  0
  194.5210  175.3730  137.3180 N   0  0  0  0  0  0  0  0  0  0  0  0
  196.1050  172.9320  137.0350 N   0  0  0  0  0  0  0  0  0  0  0  0
  193.9920  174.0300  137.6680 C   0  0  0  0  0  2  0  0  0  0  0  0
  195.1410  173.1130  138.1320 C   0  0  0  0  0  2  0  0  0  0  0  0
  196.6080  174.2460  136.5380 C   0  0  0  0  0  2  0  0  0  0  0  0
  195.4450  175.2220  136.1800 C   0  0  0  0  0  2  0  0  0  0  0  0
  197.1750  172.0320  137.4290 C   0  0  0  0  0  1  0  0  0  0  0  0
  2  3  1  0  0  0  0
  3  1  2  0  0  0  0
  3  8  1  0  0  0  0
  4  5  1  0  0  0  0
  5  6  2  0  0  0  0
  5 10  1  0  0  0  0
  7  6  1  0  0  0  0
  8  7  2  0  0  0  0
  9  8  1  0  0  0  0
  9  4  2  0  0  0  0
 11  4  1  0  0  0  0
 12 11  3  0  0  0  0
 14 13  1  0  0  0  0
 15 12  1  0  0  0  0
 15 13  2  0  0  0  0
 16 21  1  0  0  0  0
 17 19  1  0  0  0  0
 18 20  1  0  0  0  0
 18 16  2  0  0  0  0
 19 15  1  0  0  0  0
 20 17  2  0  0  0  0
 21 19  1  0  0  0  0
 21 14  2  0  0  0  0
 22  2  1  0  0  0  0
 23 22  1  0  0  0  0
 24 23  2  0  0  0  0
 25 26  2  0  0  0  0
 25 24  1  0  0  0  0
 26 27  1  0  0  0  0
 27 22  2  0  0  0  0
 28 30  1  0  0  0  0
 28 26  1  0  0  0  0
 29 28  1  0  0  0  0
 31 28  1  0  0  0  0
 32 33  1  0  0  0  0
 32 25  1  0  0  0  0
 33 35  1  0  0  0  0
 34 39  1  0  0  0  0
 34 36  1  0  0  0  0
 35 36  1  0  0  0  0
 37 34  1  0  0  0  0
 38 37  1  0  0  0  0
 38 33  1  0  0  0  0
M  END
>  <MODEL>
1

>  <REMARK>
 VINA RESULT:      -9.6      0.000      0.000
  Name = 8u8a
  8 active torsions:
  status: ('A' for Active; 'I' for Inactive)
    1  A    between atoms: C_4  and  C_6
    2  A    between atoms: N_5  and  C_18
    3  A    between atoms: C_6  and  C_8
    4  A    between atoms: N_7  and  C_25
    5  A    between atoms: C_8  and  C_10
    6  A    between atoms: C_14  and  C_17
    7  A    between atoms: C_21  and  C_25
    8  A    between atoms: C_22  and  C_24
                            x       y       z     vdW  Elec       q    Type
                         _______ _______ _______ _____ _____    ______ ____

>  <TORSDO>
F 8

$$$$
8u8a
 OpenBabel10242410243D

 39 43  0  0  0  0  0  0  0  0999 V2000
  190.3820  175.6500  142.5430 O   0  0  0  0  0  0  0  0  0  0  0  0
  189.7320  177.2950  141.1220 N   0  0  0  0  0  2  0  0  0  0  0  0
  189.6620  176.6110  142.2730 C   0  0  0  0  0  0  0  0  0  0  0  0
  186.3530  177.8570  143.6160 C   0  0  0  0  0  0  0  0  0  0  0  0
  186.5670  177.8850  145.0460 C   0  0  0  0  0  0  0  0  0  0  0  0
  187.8360  177.4810  145.5750 C   0  0  0  0  0  3  0  0  0  0  0  0
  188.8690  177.0520  144.6940 C   0  0  0  0  0  3  0  0  0  0  0  0
  188.6400  177.0340  143.2740 C   0  0  0  0  0  0  0  0  0  0  0  0
  187.3870  177.4360  142.7640 C   0  0  0  0  0  3  0  0  0  0  0  0
  185.4660  178.3400  145.9940 C   0  0  0  0  0  1  0  0  0  0  0  0
  185.0890  178.2540  143.0220 C   0  0  0  0  0  0  0  0  0  0  0  0
  183.9890  178.5190  142.5880 C   0  0  0  0  0  0  0  0  0  0  0  0
  182.5510  178.9380  140.6830 C   0  0  0  0  0  3  0  0  0  0  0  0
  181.2180  179.1410  140.4350 N   0  0  0  0  0  0  0  0  0  0  0  0
  182.7490  178.7490  141.9960 C   0  0  0  0  0  0  0  0  0  0  0  0
  179.2710  179.1960  142.0130 C   0  0  0  0  0  3  0  0  0  0  0  0
  181.3230  178.6860  143.9590 N   0  0  0  0  0  0  0  0  0  0  0  0
  178.9790  179.0610  143.3510 C   0  0  0  0  0  3  0  0  0  0  0  0
  181.5520  178.8280  142.6220 N   0  0  0  0  0  0  0  0  0  0  0  0
  180.0340  178.8120  144.2650 C   0  0  0  0  0  3  0  0  0  0  0  0
  180.6230  179.0750  141.5980 C   0  0  0  0  0  0  0  0  0  0  0  0
  190.6290  177.0390  140.0560 C   0  0  0  0  0  0  0  0  0  0  0  0
  191.9940  177.3570  140.2280 C   0  0  0  0  0  3  0  0  0  0  0  0
  192.9300  177.1090  139.1760 C   0  0  0  0  0  3  0  0  0  0  0  0
  192.5180  176.5300  137.9170 C   0  0  0  0  0  0  0  0  0  0  0  0
  191.1050  176.2070  137.7430 C   0  0  0  0  0  0  0  0  0  0  0  0
  190.2090  176.4700  138.8100 C   0  0  0  0  0  3  0  0  0  0  0  0
  190.4880  175.5840  136.4880 C   0  0  0  0  0  0  0  0  0  0  0  0
  189.1810  175.5890  136.5770 F   0  0  0  0  0  0  0  0  0  0  0  0
  190.8130  176.2400  135.3850 F   0  0  0  0  0  0  0  0  0  0  0  0
  190.9170  174.3340  136.3410 F   0  0  0  0  0  0  0  0  0  0  0  0
  193.6030  176.2970  136.8430 C   0  0  0  0  0  2  0  0  0  0  0  0
  194.6050  175.2950  137.2180 N   0  0  0  0  0  0  0  0  0  0  0  0
  196.1400  172.8110  137.0890 N   0  0  0  0  0  0  0  0  0  0  0  0
  193.9970  173.9640  137.4750 C   0  0  0  0  0  2  0  0  0  0  0  0
  195.0530  173.0060  138.0620 C   0  0  0  0  0  2  0  0  0  0  0  0
  196.7390  174.1150  136.6810 C   0  0  0  0  0  2  0  0  0  0  0  0
  195.6580  175.1310  136.2000 C   0  0  0  0  0  2  0  0  0  0  0  0
  197.1260  171.8720  137.5970 C   0  0  0  0  0  1  0  0  0  0  0  0
  2  3  1  0  0  0  0
  3  1  2  0  0  0  0
  3  8  1  0  0  0  0
  4  5  1  0  0  0  0
  5  6  2  0  0  0  0
  5 10  1  0  0  0  0
  7  6  1  0  0  0  0
  8  7  2  0  0  0  0
  9  8  1  0  0  0  0
  9  4  2  0  0  0  0
 11  4  1  0  0  0  0
 12 11  3  0  0  0  0
 13 15  2  0  0  0  0
 14 13  1  0  0  0  0
 14 21  2  0  0  0  0
 15 12  1  0  0  0  0
 15 19  1  0  0  0  0
 16 18  2  0  0  0  0
 17 20  2  0  0  0  0
 18 20  1  0  0  0  0
 19 17  1  0  0  0  0
 21 16  1  0  0  0  0
 21 19  1  0  0  0  0
 22 23  1  0  0  0  0
 22  2  1  0  0  0  0
 24 23  2  0  0  0  0
 25 24  1  0  0  0  0
 26 25  2  0  0  0  0
 26 27  1  0  0  0  0
 27 22  2  0  0  0  0
 28 29  1  0  0  0  0
 28 26  1  0  0  0  0
 30 28  1  0  0  0  0
 31 28  1  0  0  0  0
 32 33  1  0  0  0  0
 32 25  1  0  0  0  0
 33 35  1  0  0  0  0
 34 39  1  0  0  0  0
 34 36  1  0  0  0  0
 35 36  1  0  0  0  0
 37 34  1  0  0  0  0
 38 37  1  0  0  0  0
 38 33  1  0  0  0  0
M  END
>  <MODEL>
2

>  <REMARK>
 VINA RESULT:      -9.0      1.050      1.825
  Name = 8u8a
  8 active torsions:
  status: ('A' for Active; 'I' for Inactive)
    1  A    between atoms: C_4  and  C_6
    2  A    between atoms: N_5  and  C_18
    3  A    between atoms: C_6  and  C_8
    4  A    between atoms: N_7  and  C_25
    5  A    between atoms: C_8  and  C_10
    6  A    between atoms: C_14  and  C_17
    7  A    between atoms: C_21  and  C_25
    8  A    between atoms: C_22  and  C_24
                            x       y       z     vdW  Elec       q    Type
                         _______ _______ _______ _____ _____    ______ ____

>  <TORSDO>
F 8

$$$$
8u8a
 OpenBabel10242410243D

 39 43  0  0  0  0  0  0  0  0999 V2000
  184.2560  178.7840  145.3280 O   0  0  0  0  0  0  0  0  0  0  0  0
  184.8650  178.3000  143.1960 N   0  0  0  0  0  2  0  0  0  0  0  0
  185.0970  178.4040  144.5130 C   0  0  0  0  0  0  0  0  0  0  0  0
  188.7820  177.5620  144.3910 C   0  0  0  0  0  0  0  0  0  0  0  0
  189.1230  177.3680  145.7820 C   0  0  0  0  0  0  0  0  0  0  0  0
  188.1070  177.5200  146.7820 C   0  0  0  0  0  3  0  0  0  0  0  0
  186.7800  177.8650  146.4000 C   0  0  0  0  0  3  0  0  0  0  0  0
  186.4580  178.0510  145.0100 C   0  0  0  0  0  0  0  0  0  0  0  0
  187.4650  177.8960  144.0340 C   0  0  0  0  0  3  0  0  0  0  0  0
  190.5410  177.0010  146.1980 C   0  0  0  0  0  1  0  0  0  0  0  0
  189.7670  177.4220  143.3330 C   0  0  0  0  0  0  0  0  0  0  0  0
  190.5120  177.2950  142.3850 C   0  0  0  0  0  0  0  0  0  0  0  0
  192.6070  177.3480  141.1700 C   0  0  0  0  0  3  0  0  0  0  0  0
  193.0450  177.1820  139.8810 N   0  0  0  0  0  0  0  0  0  0  0  0
  191.2770  177.1900  141.2250 C   0  0  0  0  0  0  0  0  0  0  0  0
  191.7600  176.6610  137.7930 C   0  0  0  0  0  3  0  0  0  0  0  0
  189.5350  176.6890  139.6110 N   0  0  0  0  0  0  0  0  0  0  0  0
  190.4750  176.4190  137.3640 C   0  0  0  0  0  3  0  0  0  0  0  0
  190.8290  176.9200  139.9780 N   0  0  0  0  0  0  0  0  0  0  0  0
  189.4180  176.4480  138.3070 C   0  0  0  0  0  3  0  0  0  0  0  0
  191.9770  176.9270  139.1700 C   0  0  0  0  0  0  0  0  0  0  0  0
  183.6430  178.5930  142.5420 C   0  0  0  0  0  0  0  0  0  0  0  0
  183.6470  178.7520  141.1390 C   0  0  0  0  0  3  0  0  0  0  0  0
  182.4320  179.0440  140.4430 C   0  0  0  0  0  3  0  0  0  0  0  0
  181.1750  179.1820  141.1410 C   0  0  0  0  0  0  0  0  0  0  0  0
  181.1770  179.0210  142.5930 C   0  0  0  0  0  0  0  0  0  0  0  0
  182.4030  178.7340  143.2450 C   0  0  0  0  0  3  0  0  0  0  0  0
  179.9460  179.1240  143.4970 C   0  0  0  0  0  0  0  0  0  0  0  0
  180.2170  178.6460  144.6860 F   0  0  0  0  0  0  0  0  0  0  0  0
  179.5370  180.3740  143.6560 F   0  0  0  0  0  0  0  0  0  0  0  0
  178.9330  178.4450  142.9670 F   0  0  0  0  0  0  0  0  0  0  0  0
  179.9160  179.4950  140.3030 C   0  0  0  0  0  2  0  0  0  0  0  0
  180.1530  180.4350  139.2040 N   0  0  0  0  0  0  0  0  0  0  0  0
  179.5520  182.0950  136.8740 N   0  0  0  0  0  0  0  0  0  0  0  0
  179.7840  179.8600  137.8850 C   0  0  0  0  0  2  0  0  0  0  0  0
  180.2410  180.8000  136.7520 C   0  0  0  0  0  2  0  0  0  0  0  0
  179.7750  182.6990  138.2200 C   0  0  0  0  0  2  0  0  0  0  0  0
  179.4260  181.7060  139.3720 C   0  0  0  0  0  2  0  0  0  0  0  0
  179.9290  182.9850  135.7890 C   0  0  0  0  0  1  0  0  0  0  0  0
  2  3  1  0  0  0  0
  3  8  1  0  0  0  0
  3  1  2  0  0  0  0
  4  5  1  0  0  0  0
  5 10  1  0  0  0  0
  5  6  2  0  0  0  0
  7  6  1  0  0  0  0
  8  7  2  0  0  0  0
  9  4  2  0  0  0  0
  9  8  1  0  0  0  0
 11  4  1  0  0  0  0
 12 11  3  0  0  0  0
 13 15  2  0  0  0  0
 14 13  1  0  0  0  0
 15 12  1  0  0  0  0
 16 21  1  0  0  0  0
 17 19  1  0  0  0  0
 18 16  2  0  0  0  0
 18 20  1  0  0  0  0
 19 15  1  0  0  0  0
 20 17  2  0  0  0  0
 21 14  2  0  0  0  0
 21 19  1  0  0  0  0
 22  2  1  0  0  0  0
 22 27  1  0  0  0  0
 23 22  2  0  0  0  0
 24 23  1  0  0  0  0
 24 25  2  0  0  0  0
 25 26  1  0  0  0  0
 26 27  2  0  0  0  0
 26 28  1  0  0  0  0
 28 30  1  0  0  0  0
 28 29  1  0  0  0  0
 31 28  1  0  0  0  0
 32 25  1  0  0  0  0
 33 38  1  0  0  0  0
 33 32  1  0  0  0  0
 34 37  1  0  0  0  0
 35 33  1  0  0  0  0
 36 34  1  0  0  0  0
 36 35  1  0  0  0  0
 37 38  1  0  0  0  0
 39 34  1  0  0  0  0
M  END
>  <MODEL>
3

>  <REMARK>
 VINA RESULT:      -8.2      4.555     11.046
  Name = 8u8a
  8 active torsions:
  status: ('A' for Active; 'I' for Inactive)
    1  A    between atoms: C_4  and  C_6
    2  A    between atoms: N_5  and  C_18
    3  A    between atoms: C_6  and  C_8
    4  A    between atoms: N_7  and  C_25
    5  A    between atoms: C_8  and  C_10
    6  A    between atoms: C_14  and  C_17
    7  A    between atoms: C_21  and  C_25
    8  A    between atoms: C_22  and  C_24
                            x       y       z     vdW  Elec       q    Type
                         _______ _______ _______ _____ _____    ______ ____

>  <TORSDO>
F 8

$$$$
8u8a
 OpenBabel10242410243D

 39 43  0  0  0  0  0  0  0  0999 V2000
  189.9720  176.1660  143.0560 O   0  0  0  0  0  0  0  0  0  0  0  0
  188.9010  177.4750  141.5440 N   0  0  0  0  0  2  0  0  0  0  0  0
  189.0710  176.9540  142.7680 C   0  0  0  0  0  0  0  0  0  0  0  0
  185.8180  178.0970  144.3210 C   0  0  0  0  0  0  0  0  0  0  0  0
  186.1190  178.1270  145.7350 C   0  0  0  0  0  0  0  0  0  0  0  0
  187.4310  177.7600  146.1810 C   0  0  0  0  0  3  0  0  0  0  0  0
  188.4190  177.3640  145.2350 C   0  0  0  0  0  3  0  0  0  0  0  0
  188.1020  177.3430  143.8320 C   0  0  0  0  0  0  0  0  0  0  0  0
  186.8090  177.7100  143.4040 C   0  0  0  0  0  3  0  0  0  0  0  0
  185.0670  178.5460  146.7520 C   0  0  0  0  0  1  0  0  0  0  0  0
  184.5080  178.4580  143.8080 C   0  0  0  0  0  0  0  0  0  0  0  0
  183.4500  178.7370  143.2870 C   0  0  0  0  0  0  0  0  0  0  0  0
  181.0700  179.1890  143.2440 C   0  0  0  0  0  3  0  0  0  0  0  0
  180.0780  179.3500  142.3110 N   0  0  0  0  0  0  0  0  0  0  0  0
  182.2390  178.9500  142.6320 C   0  0  0  0  0  0  0  0  0  0  0  0
  180.1830  179.2600  139.8080 C   0  0  0  0  0  3  0  0  0  0  0  0
  182.9640  178.7530  140.3240 N   0  0  0  0  0  0  0  0  0  0  0  0
  181.0830  179.0680  138.7850 C   0  0  0  0  0  3  0  0  0  0  0  0
  182.0270  178.9520  141.2960 N   0  0  0  0  0  0  0  0  0  0  0  0
  182.4420  178.8190  139.1010 C   0  0  0  0  0  3  0  0  0  0  0  0
  180.6550  179.2060  141.1460 C   0  0  0  0  0  0  0  0  0  0  0  0
  189.7130  177.2210  140.4120 C   0  0  0  0  0  0  0  0  0  0  0  0
  191.1140  177.1830  140.5770 C   0  0  0  0  0  3  0  0  0  0  0  0
  191.9660  176.9240  139.4570 C   0  0  0  0  0  3  0  0  0  0  0  0
  191.4280  176.6940  138.1360 C   0  0  0  0  0  0  0  0  0  0  0  0
  189.9780  176.7390  137.9690 C   0  0  0  0  0  0  0  0  0  0  0  0
  189.1700  176.9990  139.1040 C   0  0  0  0  0  3  0  0  0  0  0  0
  189.2310  176.5120  136.6520 C   0  0  0  0  0  0  0  0  0  0  0  0
  189.2910  175.2480  136.3120 F   0  0  0  0  0  0  0  0  0  0  0  0
  187.9510  176.8390  136.7340 F   0  0  0  0  0  0  0  0  0  0  0  0
  189.7660  177.2560  135.6900 F   0  0  0  0  0  0  0  0  0  0  0  0
  192.4280  176.4200  136.9900 C   0  0  0  0  0  2  0  0  0  0  0  0
  192.4560  175.0230  136.5480 N   0  0  0  0  0  0  0  0  0  0  0  0
  193.3730  172.6480  135.1110 N   0  0  0  0  0  0  0  0  0  0  0  0
  192.3730  174.9000  135.0710 C   0  0  0  0  0  2  0  0  0  0  0  0
  192.2000  173.4210  134.6720 C   0  0  0  0  0  2  0  0  0  0  0  0
  193.6030  172.8050  136.5770 C   0  0  0  0  0  2  0  0  0  0  0  0
  193.6600  174.3050  137.0040 C   0  0  0  0  0  2  0  0  0  0  0  0
  193.2580  171.2580  134.7050 C   0  0  0  0  0  1  0  0  0  0  0  0
  2  3  1  0  0  0  0
  3  1  2  0  0  0  0
  3  8  1  0  0  0  0
  4  5  1  0  0  0  0
  5  6  2  0  0  0  0
  5 10  1  0  0  0  0
  7  6  1  0  0  0  0
  8  7  2  0  0  0  0
  9  8  1  0  0  0  0
  9  4  2  0  0  0  0
 11  4  1  0  0  0  0
 12 11  3  0  0  0  0
 14 13  1  0  0  0  0
 15 13  2  0  0  0  0
 15 12  1  0  0  0  0
 16 21  1  0  0  0  0
 17 19  1  0  0  0  0
 18 20  1  0  0  0  0
 18 16  2  0  0  0  0
 19 15  1  0  0  0  0
 20 17  2  0  0  0  0
 21 19  1  0  0  0  0
 21 14  2  0  0  0  0
 22 23  1  0  0  0  0
 22  2  1  0  0  0  0
 24 23  2  0  0  0  0
 25 24  1  0  0  0  0
 26 25  2  0  0  0  0
 26 27  1  0  0  0  0
 27 22  2  0  0  0  0
 28 30  1  0  0  0  0
 28 26  1  0  0  0  0
 29 28  1  0  0  0  0
 31 28  1  0  0  0  0
 32 25  1  0  0  0  0
 33 32  1  0  0  0  0
 33 38  1  0  0  0  0
 34 37  1  0  0  0  0
 35 33  1  0  0  0  0
 36 35  1  0  0  0  0
 36 34  1  0  0  0  0
 37 38  1  0  0  0  0
 39 34  1  0  0  0  0
M  END
>  <MODEL>
4

>  <REMARK>
 VINA RESULT:      -8.2      1.545      1.871
  Name = 8u8a
  8 active torsions:
  status: ('A' for Active; 'I' for Inactive)
    1  A    between atoms: C_4  and  C_6
    2  A    between atoms: N_5  and  C_18
    3  A    between atoms: C_6  and  C_8
    4  A    between atoms: N_7  and  C_25
    5  A    between atoms: C_8  and  C_10
    6  A    between atoms: C_14  and  C_17
    7  A    between atoms: C_21  and  C_25
    8  A    between atoms: C_22  and  C_24
                            x       y       z     vdW  Elec       q    Type
                         _______ _______ _______ _____ _____    ______ ____

>  <TORSDO>
F 8

$$$$
8u8a
 OpenBabel10242410243D

 39 43  0  0  0  0  0  0  0  0999 V2000
  189.9540  175.8290  142.2120 O   0  0  0  0  0  0  0  0  0  0  0  0
  188.8670  177.3970  140.9840 N   0  0  0  0  0  2  0  0  0  0  0  0
  189.1330  176.7420  142.1240 C   0  0  0  0  0  0  0  0  0  0  0  0
  186.2260  177.9120  144.2420 C   0  0  0  0  0  0  0  0  0  0  0  0
  186.7780  177.9300  145.5780 C   0  0  0  0  0  0  0  0  0  0  0  0
  188.1450  177.5460  145.7800 C   0  0  0  0  0  3  0  0  0  0  0  0
  188.9400  177.1460  144.6700 C   0  0  0  0  0  3  0  0  0  0  0  0
  188.3760  177.1360  143.3470 C   0  0  0  0  0  0  0  0  0  0  0  0
  187.0310  177.5190  143.1600 C   0  0  0  0  0  3  0  0  0  0  0  0
  185.9320  178.3550  146.7700 C   0  0  0  0  0  1  0  0  0  0  0  0
  184.8500  178.2900  143.9750 C   0  0  0  0  0  0  0  0  0  0  0  0
  183.7190  178.5860  143.6540 C   0  0  0  0  0  0  0  0  0  0  0  0
  181.3540  179.0090  143.9660 C   0  0  0  0  0  3  0  0  0  0  0  0
  180.2510  179.2620  143.1910 N   0  0  0  0  0  0  0  0  0  0  0  0
  182.4350  178.8570  143.1870 C   0  0  0  0  0  0  0  0  0  0  0  0
  180.0350  179.4580  140.7020 C   0  0  0  0  0  3  0  0  0  0  0  0
  182.8590  178.9320  140.7980 N   0  0  0  0  0  0  0  0  0  0  0  0
  180.7970  179.3960  139.5570 C   0  0  0  0  0  3  0  0  0  0  0  0
  182.0540  179.0070  141.8970 N   0  0  0  0  0  0  0  0  0  0  0  0
  182.1850  179.1310  139.6680 C   0  0  0  0  0  3  0  0  0  0  0  0
  180.6740  179.2590  141.9540 C   0  0  0  0  0  0  0  0  0  0  0  0
  189.4770  177.1620  139.7280 C   0  0  0  0  0  0  0  0  0  0  0  0
  188.6640  177.1330  138.5740 C   0  0  0  0  0  3  0  0  0  0  0  0
  189.2460  176.9030  137.2870 C   0  0  0  0  0  3  0  0  0  0  0  0
  190.6670  176.6960  137.1260 C   0  0  0  0  0  0  0  0  0  0  0  0
  191.5030  176.7220  138.3230 C   0  0  0  0  0  0  0  0  0  0  0  0
  190.8870  176.9520  139.5790 C   0  0  0  0  0  3  0  0  0  0  0  0
  193.0210  176.5320  138.3460 C   0  0  0  0  0  0  0  0  0  0  0  0
  193.3180  175.2580  138.2850 F   0  0  0  0  0  0  0  0  0  0  0  0
  193.6220  177.1270  137.3270 F   0  0  0  0  0  0  0  0  0  0  0  0
  193.5300  177.0530  139.4580 F   0  0  0  0  0  0  0  0  0  0  0  0
  191.2010  176.4580  135.6960 C   0  0  0  0  0  2  0  0  0  0  0  0
  191.3660  175.0430  135.3520 N   0  0  0  0  0  0  0  0  0  0  0  0
  192.3290  172.2910  135.5630 N   0  0  0  0  0  0  0  0  0  0  0  0
  192.7910  174.6760  135.1520 C   0  0  0  0  0  2  0  0  0  0  0  0
  192.8950  173.2430  134.5940 C   0  0  0  0  0  2  0  0  0  0  0  0
  190.9240  172.6510  135.9130 C   0  0  0  0  0  2  0  0  0  0  0  0
  190.7950  174.1380  136.3650 C   0  0  0  0  0  2  0  0  0  0  0  0
  192.4580  170.9260  135.0830 C   0  0  0  0  0  1  0  0  0  0  0  0
  2  3  1  0  0  0  0
  3  1  2  0  0  0  0
  3  8  1  0  0  0  0
  4  5  1  0  0  0  0
  5  6  2  0  0  0  0
  5 10  1  0  0  0  0
  7  6  1  0  0  0  0
  8  7  2  0  0  0  0
  9  8  1  0  0  0  0
  9  4  2  0  0  0  0
 11  4  1  0  0  0  0
 12 11  3  0  0  0  0
 14 13  1  0  0  0  0
 15 12  1  0  0  0  0
 15 13  2  0  0  0  0
 16 21  1  0  0  0  0
 17 19  1  0  0  0  0
 18 20  1  0  0  0  0
 18 16  2  0  0  0  0
 19 21  1  0  0  0  0
 19 15  1  0  0  0  0
 20 17  2  0  0  0  0
 21 14  2  0  0  0  0
 22  2  1  0  0  0  0
 23 22  2  0  0  0  0
 24 23  1  0  0  0  0
 25 24  2  0  0  0  0
 25 26  1  0  0  0  0
 26 28  1  0  0  0  0
 26 27  2  0  0  0  0
 27 22  1  0  0  0  0
 28 31  1  0  0  0  0
 29 28  1  0  0  0  0
 30 28  1  0  0  0  0
 32 25  1  0  0  0  0
 33 32  1  0  0  0  0
 33 38  1  0  0  0  0
 34 37  1  0  0  0  0
 35 33  1  0  0  0  0
 36 35  1  0  0  0  0
 36 34  1  0  0  0  0
 37 38  1  0  0  0  0
 39 34  1  0  0  0  0
M  END
>  <MODEL>
5

>  <REMARK>
 VINA RESULT:      -8.1      2.119      2.678
  Name = 8u8a
  8 active torsions:
  status: ('A' for Active; 'I' for Inactive)
    1  A    between atoms: C_4  and  C_6
    2  A    between atoms: N_5  and  C_18
    3  A    between atoms: C_6  and  C_8
    4  A    between atoms: N_7  and  C_25
    5  A    between atoms: C_8  and  C_10
    6  A    between atoms: C_14  and  C_17
    7  A    between atoms: C_21  and  C_25
    8  A    between atoms: C_22  and  C_24
                            x       y       z     vdW  Elec       q    Type
                         _______ _______ _______ _____ _____    ______ ____

>  <TORSDO>
F 8

$$$$
8u8a
 OpenBabel10242410243D

 39 43  0  0  0  0  0  0  0  0999 V2000
  184.5610  178.3480  144.9390 O   0  0  0  0  0  0  0  0  0  0  0  0
  185.1960  178.2930  142.7610 N   0  0  0  0  0  2  0  0  0  0  0  0
  185.4310  178.2080  144.0790 C   0  0  0  0  0  0  0  0  0  0  0  0
  189.1240  177.4400  143.8080 C   0  0  0  0  0  0  0  0  0  0  0  0
  189.5560  177.4070  145.1880 C   0  0  0  0  0  0  0  0  0  0  0  0
  188.6010  177.6460  146.2290 C   0  0  0  0  0  3  0  0  0  0  0  0
  187.2430  177.9170  145.8990 C   0  0  0  0  0  3  0  0  0  0  0  0
  186.8300  177.9430  144.5210 C   0  0  0  0  0  0  0  0  0  0  0  0
  187.7780  177.7030  143.5050 C   0  0  0  0  0  3  0  0  0  0  0  0
  191.0070  177.1200  145.5480 C   0  0  0  0  0  1  0  0  0  0  0  0
  190.0450  177.2060  142.7100 C   0  0  0  0  0  0  0  0  0  0  0  0
  190.8370  177.1110  141.7970 C   0  0  0  0  0  0  0  0  0  0  0  0
  192.9290  177.5110  140.6440 C   0  0  0  0  0  3  0  0  0  0  0  0
  193.4610  177.3160  139.3950 N   0  0  0  0  0  0  0  0  0  0  0  0
  191.6660  177.0620  140.6790 C   0  0  0  0  0  0  0  0  0  0  0  0
  192.4370  176.3010  137.3440 C   0  0  0  0  0  3  0  0  0  0  0  0
  190.1680  176.0120  139.0840 N   0  0  0  0  0  0  0  0  0  0  0  0
  191.2630  175.7290  136.9100 C   0  0  0  0  0  3  0  0  0  0  0  0
  191.3560  176.5690  139.4580 N   0  0  0  0  0  0  0  0  0  0  0  0
  190.1770  175.6160  137.8130 C   0  0  0  0  0  3  0  0  0  0  0  0
  192.5160  176.7520  138.6880 C   0  0  0  0  0  0  0  0  0  0  0  0
  183.9400  178.5420  142.1550 C   0  0  0  0  0  0  0  0  0  0  0  0
  183.8840  178.6960  140.7520 C   0  0  0  0  0  3  0  0  0  0  0  0
  182.6330  178.9440  140.1040 C   0  0  0  0  0  3  0  0  0  0  0  0
  181.4000  179.0430  140.8510 C   0  0  0  0  0  0  0  0  0  0  0  0
  181.4650  178.8880  142.3020 C   0  0  0  0  0  0  0  0  0  0  0  0
  182.7240  178.6450  142.9060 C   0  0  0  0  0  3  0  0  0  0  0  0
  180.2680  178.9530  143.2530 C   0  0  0  0  0  0  0  0  0  0  0  0
  179.7640  180.1630  143.2640 F   0  0  0  0  0  0  0  0  0  0  0  0
  179.2970  178.1240  142.9030 F   0  0  0  0  0  0  0  0  0  0  0  0
  180.6430  178.6190  144.4840 F   0  0  0  0  0  0  0  0  0  0  0  0
  180.0990  179.3100  140.0620 C   0  0  0  0  0  2  0  0  0  0  0  0
  179.5700  178.1300  139.3720 N   0  0  0  0  0  0  0  0  0  0  0  0
  179.5970  175.6570  137.8140 N   0  0  0  0  0  0  0  0  0  0  0  0
  179.9720  178.0890  137.9430 C   0  0  0  0  0  2  0  0  0  0  0  0
  179.2280  176.9510  137.2170 C   0  0  0  0  0  2  0  0  0  0  0  0
  179.3320  175.6460  139.2820 C   0  0  0  0  0  2  0  0  0  0  0  0
  179.9850  176.8650  140.0040 C   0  0  0  0  0  2  0  0  0  0  0  0
  178.9450  174.5610  137.1160 C   0  0  0  0  0  1  0  0  0  0  0  0
  2  3  1  0  0  0  0
  3  8  1  0  0  0  0
  3  1  2  0  0  0  0
  4  5  1  0  0  0  0
  5 10  1  0  0  0  0
  5  6  2  0  0  0  0
  7  6  1  0  0  0  0
  8  7  2  0  0  0  0
  9  4  2  0  0  0  0
  9  8  1  0  0  0  0
 11  4  1  0  0  0  0
 12 11  3  0  0  0  0
 13 15  2  0  0  0  0
 14 13  1  0  0  0  0
 15 12  1  0  0  0  0
 16 21  1  0  0  0  0
 17 19  1  0  0  0  0
 18 16  2  0  0  0  0
 18 20  1  0  0  0  0
 19 15  1  0  0  0  0
 20 17  2  0  0  0  0
 21 14  2  0  0  0  0
 21 19  1  0  0  0  0
 22  2  1  0  0  0  0
 22 27  1  0  0  0  0
 23 22  2  0  0  0  0
 24 23  1  0  0  0  0
 24 25  2  0  0  0  0
 25 26  1  0  0  0  0
 26 27  2  0  0  0  0
 26 28  1  0  0  0  0
 28 29  1  0  0  0  0
 28 31  1  0  0  0  0
 30 28  1  0  0  0  0
 32 25  1  0  0  0  0
 33 38  1  0  0  0  0
 33 32  1  0  0  0  0
 34 37  1  0  0  0  0
 35 33  1  0  0  0  0
 36 34  1  0  0  0  0
 36 35  1  0  0  0  0
 37 38  1  0  0  0  0
 39 34  1  0  0  0  0
M  END
>  <MODEL>
6

>  <REMARK>
 VINA RESULT:      -7.7      4.312     10.738
  Name = 8u8a
  8 active torsions:
  status: ('A' for Active; 'I' for Inactive)
    1  A    between atoms: C_4  and  C_6
    2  A    between atoms: N_5  and  C_18
    3  A    between atoms: C_6  and  C_8
    4  A    between atoms: N_7  and  C_25
    5  A    between atoms: C_8  and  C_10
    6  A    between atoms: C_14  and  C_17
    7  A    between atoms: C_21  and  C_25
    8  A    between atoms: C_22  and  C_24
                            x       y       z     vdW  Elec       q    Type
                         _______ _______ _______ _____ _____    ______ ____

>  <TORSDO>
F 8

$$$$
8u8a
 OpenBabel10242410243D

 39 43  0  0  0  0  0  0  0  0999 V2000
  186.4930  178.3390  136.8270 O   0  0  0  0  0  0  0  0  0  0  0  0
  185.6440  178.3660  138.9310 N   0  0  0  0  0  2  0  0  0  0  0  0
  186.6430  178.2410  138.0440 C   0  0  0  0  0  0  0  0  0  0  0  0
  189.3880  177.6370  140.5750 C   0  0  0  0  0  0  0  0  0  0  0  0
  190.5550  177.4190  139.7500 C   0  0  0  0  0  0  0  0  0  0  0  0
  190.4280  177.4750  138.3230 C   0  0  0  0  0  3  0  0  0  0  0  0
  189.1590  177.7350  137.7330 C   0  0  0  0  0  3  0  0  0  0  0  0
  188.0080  177.9520  138.5690 C   0  0  0  0  0  0  0  0  0  0  0  0
  188.1470  177.8990  139.9730 C   0  0  0  0  0  3  0  0  0  0  0  0
  191.9150  177.1370  140.3740 C   0  0  0  0  0  1  0  0  0  0  0  0
  189.4550  177.5940  142.0250 C   0  0  0  0  0  0  0  0  0  0  0  0
  189.6090  177.5340  143.2260 C   0  0  0  0  0  0  0  0  0  0  0  0
  191.1110  177.1540  145.0880 C   0  0  0  0  0  3  0  0  0  0  0  0
  191.0530  177.1230  146.4570 N   0  0  0  0  0  0  0  0  0  0  0  0
  189.9000  177.4310  144.5840 C   0  0  0  0  0  0  0  0  0  0  0  0
  189.1120  177.4920  148.0000 C   0  0  0  0  0  3  0  0  0  0  0  0
  187.7070  177.8780  145.5240 N   0  0  0  0  0  0  0  0  0  0  0  0
  187.7690  177.7900  147.9720 C   0  0  0  0  0  3  0  0  0  0  0  0
  189.0360  177.5830  145.6140 N   0  0  0  0  0  0  0  0  0  0  0  0
  187.1300  177.9660  146.7200 C   0  0  0  0  0  3  0  0  0  0  0  0
  189.8090  177.3800  146.7680 C   0  0  0  0  0  0  0  0  0  0  0  0
  184.2880  178.6340  138.6230 C   0  0  0  0  0  0  0  0  0  0  0  0
  183.6920  179.8020  139.1480 C   0  0  0  0  0  3  0  0  0  0  0  0
  182.3260  180.1080  138.8550 C   0  0  0  0  0  3  0  0  0  0  0  0
  181.5190  179.2460  138.0220 C   0  0  0  0  0  0  0  0  0  0  0  0
  182.1390  178.0360  137.4860 C   0  0  0  0  0  0  0  0  0  0  0  0
  183.4950  177.7690  137.8010 C   0  0  0  0  0  3  0  0  0  0  0  0
  181.4470  177.0130  136.5820 C   0  0  0  0  0  0  0  0  0  0  0  0
  180.3680  176.5530  137.1660 F   0  0  0  0  0  0  0  0  0  0  0  0
  181.0780  177.5310  135.4200 F   0  0  0  0  0  0  0  0  0  0  0  0
  182.2720  176.0050  136.3180 F   0  0  0  0  0  0  0  0  0  0  0  0
  180.0550  179.6620  137.7600 C   0  0  0  0  0  2  0  0  0  0  0  0
  179.9190  180.8830  136.9610 N   0  0  0  0  0  0  0  0  0  0  0  0
  180.6800  183.4270  135.7380 N   0  0  0  0  0  0  0  0  0  0  0  0
  180.1840  182.1070  137.7590 C   0  0  0  0  0  2  0  0  0  0  0  0
  179.8280  183.3620  136.9370 C   0  0  0  0  0  2  0  0  0  0  0  0
  180.5640  182.1790  134.9270 C   0  0  0  0  0  2  0  0  0  0  0  0
  180.8060  180.8990  135.7850 C   0  0  0  0  0  2  0  0  0  0  0  0
  180.3990  184.6270  134.9680 C   0  0  0  0  0  1  0  0  0  0  0  0
  1  3  2  0  0  0  0
  3  8  1  0  0  0  0
  3  2  1  0  0  0  0
  4 11  1  0  0  0  0
  5 10  1  0  0  0  0
  5  4  2  0  0  0  0
  6  5  1  0  0  0  0
  7  6  2  0  0  0  0
  7  8  1  0  0  0  0
  8  9  2  0  0  0  0
  9  4  1  0  0  0  0
 11 12  3  0  0  0  0
 12 15  1  0  0  0  0
 13 14  1  0  0  0  0
 14 21  2  0  0  0  0
 15 13  2  0  0  0  0
 15 19  1  0  0  0  0
 17 19  1  0  0  0  0
 17 20  2  0  0  0  0
 18 16  2  0  0  0  0
 19 21  1  0  0  0  0
 20 18  1  0  0  0  0
 21 16  1  0  0  0  0
 22  2  1  0  0  0  0
 22 23  1  0  0  0  0
 24 23  2  0  0  0  0
 25 24  1  0  0  0  0
 26 27  1  0  0  0  0
 26 25  2  0  0  0  0
 27 22  2  0  0  0  0
 28 29  1  0  0  0  0
 28 26  1  0  0  0  0
 30 28  1  0  0  0  0
 31 28  1  0  0  0  0
 32 25  1  0  0  0  0
 33 35  1  0  0  0  0
 33 32  1  0  0  0  0
 34 36  1  0  0  0  0
 36 35  1  0  0  0  0
 37 34  1  0  0  0  0
 37 38  1  0  0  0  0
 38 33  1  0  0  0  0
 39 34  1  0  0  0  0
M  END
>  <MODEL>
7

>  <REMARK>
 VINA RESULT:      -7.7      4.747     10.706
  Name = 8u8a
  8 active torsions:
  status: ('A' for Active; 'I' for Inactive)
    1  A    between atoms: C_4  and  C_6
    2  A    between atoms: N_5  and  C_18
    3  A    between atoms: C_6  and  C_8
    4  A    between atoms: N_7  and  C_25
    5  A    between atoms: C_8  and  C_10
    6  A    between atoms: C_14  and  C_17
    7  A    between atoms: C_21  and  C_25
    8  A    between atoms: C_22  and  C_24
                            x       y       z     vdW  Elec       q    Type
                         _______ _______ _______ _____ _____    ______ ____

>  <TORSDO>
F 8

$$$$
8u8a
 OpenBabel10242410243D

 39 43  0  0  0  0  0  0  0  0999 V2000
  188.3560  179.1600  137.8340 O   0  0  0  0  0  0  0  0  0  0  0  0
  188.1790  176.9000  137.9280 N   0  0  0  0  0  2  0  0  0  0  0  0
  187.7520  178.1450  138.1830 C   0  0  0  0  0  0  0  0  0  0  0  0
  185.4400  178.3670  141.1680 C   0  0  0  0  0  0  0  0  0  0  0  0
  184.1430  178.5770  140.5660 C   0  0  0  0  0  0  0  0  0  0  0  0
  184.0330  178.6460  139.1380 C   0  0  0  0  0  3  0  0  0  0  0  0
  185.1980  178.5150  138.3300 C   0  0  0  0  0  3  0  0  0  0  0  0
  186.4800  178.3040  138.9460 C   0  0  0  0  0  0  0  0  0  0  0  0
  186.5750  178.2340  140.3520 C   0  0  0  0  0  3  0  0  0  0  0  0
  182.8940  178.7200  141.4250 C   0  0  0  0  0  1  0  0  0  0  0  0
  185.6140  178.2890  142.6080 C   0  0  0  0  0  0  0  0  0  0  0  0
  185.7070  178.3100  143.8160 C   0  0  0  0  0  0  0  0  0  0  0  0
  185.0350  178.7970  146.0920 C   0  0  0  0  0  3  0  0  0  0  0  0
  185.5710  178.7270  147.3530 N   0  0  0  0  0  0  0  0  0  0  0  0
  185.9290  178.3670  145.1900 C   0  0  0  0  0  0  0  0  0  0  0  0
  187.8340  177.9540  148.1050 C   0  0  0  0  0  3  0  0  0  0  0  0
  188.2010  177.5170  145.2880 N   0  0  0  0  0  0  0  0  0  0  0  0
  189.0110  177.4510  147.6000 C   0  0  0  0  0  3  0  0  0  0  0  0
  187.0580  178.0120  145.8460 N   0  0  0  0  0  0  0  0  0  0  0  0
  189.1340  177.2590  146.2010 C   0  0  0  0  0  3  0  0  0  0  0  0
  186.7820  178.2570  147.2010 C   0  0  0  0  0  0  0  0  0  0  0  0
  189.3580  176.5520  137.2260 C   0  0  0  0  0  0  0  0  0  0  0  0
  189.2500  176.1500  135.8760 C   0  0  0  0  0  3  0  0  0  0  0  0
  190.4210  175.7960  135.1340 C   0  0  0  0  0  3  0  0  0  0  0  0
  191.7360  175.8390  135.7290 C   0  0  0  0  0  0  0  0  0  0  0  0
  191.8420  176.2510  137.1270 C   0  0  0  0  0  0  0  0  0  0  0  0
  190.6580  176.5920  137.8270 C   0  0  0  0  0  3  0  0  0  0  0  0
  193.1460  176.3640  137.9190 C   0  0  0  0  0  0  0  0  0  0  0  0
  193.6970  175.1830  138.0530 F   0  0  0  0  0  0  0  0  0  0  0  0
  194.0330  177.1500  137.3270 F   0  0  0  0  0  0  0  0  0  0  0  0
  192.9070  176.8800  139.1210 F   0  0  0  0  0  0  0  0  0  0  0  0
  192.9390  175.4420  134.8460 C   0  0  0  0  0  2  0  0  0  0  0  0
  193.2420  174.0080  134.8650 N   0  0  0  0  0  0  0  0  0  0  0  0
  194.1420  171.4370  135.9270 N   0  0  0  0  0  0  0  0  0  0  0  0
  194.6600  173.7390  135.2170 C   0  0  0  0  0  2  0  0  0  0  0  0
  194.9780  172.2440  135.0230 C   0  0  0  0  0  2  0  0  0  0  0  0
  192.6920  171.7280  135.7220 C   0  0  0  0  0  2  0  0  0  0  0  0
  192.3850  173.2550  135.7980 C   0  0  0  0  0  2  0  0  0  0  0  0
  194.4560  170.0240  135.7990 C   0  0  0  0  0  1  0  0  0  0  0  0
  1  3  2  0  0  0  0
  2  3  1  0  0  0  0
  3  8  1  0  0  0  0
  4 11  1  0  0  0  0
  5  4  1  0  0  0  0
  5 10  1  0  0  0  0
  6  5  2  0  0  0  0
  7  8  2  0  0  0  0
  7  6  1  0  0  0  0
  8  9  1  0  0  0  0
  9  4  2  0  0  0  0
 11 12  3  0  0  0  0
 12 15  1  0  0  0  0
 13 14  1  0  0  0  0
 15 19  1  0  0  0  0
 15 13  2  0  0  0  0
 17 19  1  0  0  0  0
 17 20  2  0  0  0  0
 18 16  2  0  0  0  0
 19 21  1  0  0  0  0
 20 18  1  0  0  0  0
 21 14  2  0  0  0  0
 21 16  1  0  0  0  0
 22 27  1  0  0  0  0
 22  2  1  0  0  0  0
 23 22  2  0  0  0  0
 24 25  2  0  0  0  0
 24 23  1  0  0  0  0
 25 26  1  0  0  0  0
 26 27  2  0  0  0  0
 26 28  1  0  0  0  0
 28 29  1  0  0  0  0
 28 31  1  0  0  0  0
 30 28  1  0  0  0  0
 32 33  1  0  0  0  0
 32 25  1  0  0  0  0
 33 35  1  0  0  0  0
 33 38  1  0  0  0  0
 36 35  1  0  0  0  0
 36 34  1  0  0  0  0
 37 38  1  0  0  0  0
 37 34  1  0  0  0  0
 39 34  1  0  0  0  0
M  END
>  <MODEL>
8

>  <REMARK>
 VINA RESULT:      -7.6      2.951      5.363
  Name = 8u8a
  8 active torsions:
  status: ('A' for Active; 'I' for Inactive)
    1  A    between atoms: C_4  and  C_6
    2  A    between atoms: N_5  and  C_18
    3  A    between atoms: C_6  and  C_8
    4  A    between atoms: N_7  and  C_25
    5  A    between atoms: C_8  and  C_10
    6  A    between atoms: C_14  and  C_17
    7  A    between atoms: C_21  and  C_25
    8  A    between atoms: C_22  and  C_24
                            x       y       z     vdW  Elec       q    Type
                         _______ _______ _______ _____ _____    ______ ____

>  <TORSDO>
F 8

$$$$
8u8a
 OpenBabel10242410243D

 39 43  0  0  0  0  0  0  0  0999 V2000
  185.4280  178.7590  138.5110 O   0  0  0  0  0  0  0  0  0  0  0  0
  187.0990  177.6570  139.5800 N   0  0  0  0  0  2  0  0  0  0  0  0
  185.9230  178.3020  139.5410 C   0  0  0  0  0  0  0  0  0  0  0  0
  185.3190  178.3900  143.2730 C   0  0  0  0  0  0  0  0  0  0  0  0
  183.9300  178.7780  143.3740 C   0  0  0  0  0  0  0  0  0  0  0  0
  183.1790  179.0150  142.1760 C   0  0  0  0  0  3  0  0  0  0  0  0
  183.8040  178.8740  140.9060 C   0  0  0  0  0  3  0  0  0  0  0  0
  185.1860  178.4840  140.8240 C   0  0  0  0  0  0  0  0  0  0  0  0
  185.9150  178.2500  142.0090 C   0  0  0  0  0  3  0  0  0  0  0  0
  183.2560  178.9340  144.7300 C   0  0  0  0  0  1  0  0  0  0  0  0
  186.1320  178.1360  144.4500 C   0  0  0  0  0  0  0  0  0  0  0  0
  186.8890  177.9650  145.3810 C   0  0  0  0  0  0  0  0  0  0  0  0
  187.6170  177.8530  147.6890 C   0  0  0  0  0  3  0  0  0  0  0  0
  188.7550  177.5370  148.3870 N   0  0  0  0  0  0  0  0  0  0  0  0
  187.8360  177.7200  146.3730 C   0  0  0  0  0  0  0  0  0  0  0  0
  191.0050  176.8030  147.5610 C   0  0  0  0  0  3  0  0  0  0  0  0
  189.7280  177.0650  145.0000 N   0  0  0  0  0  0  0  0  0  0  0  0
  191.6750  176.5320  146.3900 C   0  0  0  0  0  3  0  0  0  0  0  0
  189.1150  177.3180  146.1930 N   0  0  0  0  0  0  0  0  0  0  0  0
  190.9920  176.6810  145.1560 C   0  0  0  0  0  3  0  0  0  0  0  0
  189.6500  177.2190  147.4870 C   0  0  0  0  0  0  0  0  0  0  0  0
  187.9400  177.3930  138.4710 C   0  0  0  0  0  0  0  0  0  0  0  0
  188.9790  178.3030  138.1770 C   0  0  0  0  0  3  0  0  0  0  0  0
  189.8510  178.0670  137.0680 C   0  0  0  0  0  3  0  0  0  0  0  0
  189.7030  176.9050  136.2220 C   0  0  0  0  0  0  0  0  0  0  0  0
  188.6230  175.9700  136.5270 C   0  0  0  0  0  0  0  0  0  0  0  0
  187.7800  176.2410  137.6340 C   0  0  0  0  0  3  0  0  0  0  0  0
  188.3180  174.6870  135.7510 C   0  0  0  0  0  0  0  0  0  0  0  0
  187.0370  174.6090  135.4920 F   0  0  0  0  0  0  0  0  0  0  0  0
  188.9600  174.6300  134.5940 F   0  0  0  0  0  0  0  0  0  0  0  0
  188.6920  173.6250  136.4590 F   0  0  0  0  0  0  0  0  0  0  0  0
  190.6950  176.7360  135.0510 C   0  0  0  0  0  2  0  0  0  0  0  0
  191.7240  175.7200  135.2860 N   0  0  0  0  0  0  0  0  0  0  0  0
  194.1780  174.5350  136.3440 N   0  0  0  0  0  0  0  0  0  0  0  0
  193.0760  176.1870  134.8860 C   0  0  0  0  0  2  0  0  0  0  0  0
  194.0810  175.0210  134.9580 C   0  0  0  0  0  2  0  0  0  0  0  0
  192.8380  174.1460  136.8730 C   0  0  0  0  0  2  0  0  0  0  0  0
  191.7850  175.2830  136.6920 C   0  0  0  0  0  2  0  0  0  0  0  0
  195.1560  173.4650  136.4500 C   0  0  0  0  0  1  0  0  0  0  0  0
  1  3  2  0  0  0  0
  3  2  1  0  0  0  0
  3  8  1  0  0  0  0
  4  5  1  0  0  0  0
  4 11  1  0  0  0  0
  5 10  1  0  0  0  0
  6  5  2  0  0  0  0
  7  6  1  0  0  0  0
  8  7  2  0  0  0  0
  8  9  1  0  0  0  0
  9  4  2  0  0  0  0
 11 12  3  0  0  0  0
 12 15  1  0  0  0  0
 13 14  1  0  0  0  0
 15 13  2  0  0  0  0
 17 20  2  0  0  0  0
 17 19  1  0  0  0  0
 18 16  2  0  0  0  0
 19 15  1  0  0  0  0
 19 21  1  0  0  0  0
 20 18  1  0  0  0  0
 21 16  1  0  0  0  0
 21 14  2  0  0  0  0
 22  2  1  0  0  0  0
 23 22  1  0  0  0  0
 24 23  2  0  0  0  0
 25 26  2  0  0  0  0
 25 24  1  0  0  0  0
 26 27  1  0  0  0  0
 27 22  2  0  0  0  0
 28 31  1  0  0  0  0
 28 26  1  0  0  0  0
 29 28  1  0  0  0  0
 30 28  1  0  0  0  0
 32 33  1  0  0  0  0
 32 25  1  0  0  0  0
 33 38  1  0  0  0  0
 34 39  1  0  0  0  0
 34 37  1  0  0  0  0
 35 36  1  0  0  0  0
 35 33  1  0  0  0  0
 36 34  1  0  0  0  0
 38 37  1  0  0  0  0
M  END
>  <MODEL>
9

>  <REMARK>
 VINA RESULT:      -7.5      2.789      5.730
  Name = 8u8a
  8 active torsions:
  status: ('A' for Active; 'I' for Inactive)
    1  A    between atoms: C_4  and  C_6
    2  A    between atoms: N_5  and  C_18
    3  A    between atoms: C_6  and  C_8
    4  A    between atoms: N_7  and  C_25
    5  A    between atoms: C_8  and  C_10
    6  A    between atoms: C_14  and  C_17
    7  A    between atoms: C_21  and  C_25
    8  A    between atoms: C_22  and  C_24
                            x       y       z     vdW  Elec       q    Type
                         _______ _______ _______ _____ _____    ______ ____

>  <TORSDO>
F 8

$$$$
