8u7h
 OpenBabel10242410243D

 31 33  0  0  0  0  0  0  0  0999 V2000
  189.7800  177.5970  141.5400 C   0  0  0  0  0  0  0  0  0  0  0  0
  188.4400  177.9290  141.3810 C   0  0  0  0  0  3  0  0  0  0  0  0
  187.9310  178.1890  140.1130 C   0  0  0  0  0  0  0  0  0  0  0  0
  188.7540  178.0930  139.0030 C   0  0  0  0  0  0  0  0  0  0  0  0
  190.0850  177.7500  139.1610 C   0  0  0  0  0  3  0  0  0  0  0  0
  190.5900  177.4820  140.4230 C   0  0  0  0  0  0  0  0  0  0  0  0
  186.6160  178.5330  139.9610 F   0  0  0  0  0  0  0  0  0  0  0  0
  188.2160  178.3700  137.5800 C   0  0  0  0  0  0  0  0  0  0  0  0
  188.2820  179.4770  137.1650 O   0  0  0  0  0  0  0  0  0  0  0  0
  187.5850  177.3400  136.7500 N   0  0  0  0  0  0  0  0  0  0  0  0
  187.4240  175.9540  137.1120 C   0  0  0  0  0  2  0  0  0  0  0  0
  188.1640  175.1610  136.0270 C   0  0  0  0  0  2  0  0  0  0  0  0
  187.5480  175.3180  134.7470 O   0  0  0  0  0  0  0  0  0  0  0  0
  186.5310  176.3130  134.7310 C   0  0  0  0  0  2  0  0  0  0  0  0
  187.0650  177.5850  135.4140 C   0  0  0  0  0  2  0  0  0  0  0  0
  188.0810  177.8460  145.6390 C   0  0  0  0  0  0  0  0  0  0  0  0
  188.9390  177.6700  146.7180 C   0  0  0  0  0  0  0  0  0  0  0  0
  190.2570  177.3610  146.4350 C   0  0  0  0  0  3  0  0  0  0  0  0
  190.6570  177.2590  145.1820 N   0  0  0  0  0  0  0  0  0  0  0  0
  189.8140  177.4250  144.1790 C   0  0  0  0  0  0  0  0  0  0  0  0
  188.5470  177.7210  144.4060 N   0  0  0  0  0  4  0  0  0  0  0  0
  190.3770  177.2850  142.8370 N   0  0  0  0  0  2  0  0  0  0  0  0
  188.4620  177.8000  148.1580 C   0  0  0  0  0  0  0  0  0  0  0  0
  187.8860  176.6280  148.5330 F   0  0  0  0  0  0  0  0  0  0  0  0
  189.5340  178.0470  148.9610 F   0  0  0  0  0  0  0  0  0  0  0  0
  187.5560  178.8030  148.2930 F   0  0  0  0  0  0  0  0  0  0  0  0
  186.6850  178.1690  145.8750 N   0  0  0  0  0  2  0  0  0  0  0  0
  184.5380  179.0540  145.1350 C   0  0  0  0  0  1  0  0  0  0  0  0
  185.7420  178.1870  144.7720 C   0  0  0  0  0  2  0  0  0  0  0  0
  191.9350  177.1330  140.5970 O   0  0  0  0  0  0  0  0  0  0  0  0
  192.7350  177.1930  139.4490 C   0  0  0  0  0  1  0  0  0  0  0  0
  1 22  1  0  0  0  0
  2  1  1  0  0  0  0
  3  2  2  0  0  0  0
  4  5  2  0  0  0  0
  4  3  1  0  0  0  0
  5  6  1  0  0  0  0
  6 30  1  0  0  0  0
  6  1  2  0  0  0  0
  7  3  1  0  0  0  0
  8  4  1  0  0  0  0
  9  8  2  0  0  0  0
 10 11  1  0  0  0  0
 10  8  1  0  0  0  0
 12 11  1  0  0  0  0
 13 12  1  0  0  0  0
 14 13  1  0  0  0  0
 14 15  1  0  0  0  0
 15 10  1  0  0  0  0
 16 27  1  0  0  0  0
 16 17  1  0  0  0  0
 17 23  1  0  0  0  0
 18 17  2  0  0  0  0
 19 18  1  0  0  0  0
 20 21  2  0  0  0  0
 20 19  2  0  0  0  0
 21 16  2  0  0  0  0
 22 20  1  0  0  0  0
 23 26  1  0  0  0  0
 23 24  1  0  0  0  0
 23 25  1  0  0  0  0
 29 28  1  0  0  0  0
 29 27  1  0  0  0  0
 31 30  1  0  0  0  0
M  END
>  <MODEL>
1

>  <REMARK>
 VINA RESULT:      -8.6      0.000      0.000
  Name = 8u7h
  6 active torsions:
  status: ('A' for Active; 'I' for Inactive)
    1  A    between atoms: C_2  and  N_3
    2  A    between atoms: N_3  and  C_4
    3  A    between atoms: C_5  and  C_27
    4  A    between atoms: N_10  and  C_11
    5  A    between atoms: C_14  and  C_19
    6  A    between atoms: C_16  and  O_17
                            x       y       z     vdW  Elec       q    Type
                         _______ _______ _______ _____ _____    ______ ____

>  <TORSDO>
F 6

$$$$
8u7h
 OpenBabel10242410243D

 31 33  0  0  0  0  0  0  0  0999 V2000
  183.6210  179.0050  143.2730 C   0  0  0  0  0  0  0  0  0  0  0  0
  184.5490  178.9780  142.2400 C   0  0  0  0  0  3  0  0  0  0  0  0
  184.1330  178.7480  140.9330 C   0  0  0  0  0  0  0  0  0  0  0  0
  182.7880  178.5690  140.6550 C   0  0  0  0  0  0  0  0  0  0  0  0
  181.8620  178.6070  141.6840 C   0  0  0  0  0  3  0  0  0  0  0  0
  182.2760  178.8470  142.9840 C   0  0  0  0  0  0  0  0  0  0  0  0
  185.0510  178.7050  139.9200 F   0  0  0  0  0  0  0  0  0  0  0  0
  182.2940  178.3170  139.2120 C   0  0  0  0  0  0  0  0  0  0  0  0
  182.3640  177.2160  138.7830 O   0  0  0  0  0  0  0  0  0  0  0  0
  181.7950  179.3850  138.3410 N   0  0  0  0  0  0  0  0  0  0  0  0
  181.6540  180.7720  138.7100 C   0  0  0  0  0  2  0  0  0  0  0  0
  180.1660  181.0940  138.5220 C   0  0  0  0  0  2  0  0  0  0  0  0
  179.7760  181.0010  137.1500 O   0  0  0  0  0  0  0  0  0  0  0  0
  180.7850  180.4450  136.3160 C   0  0  0  0  0  2  0  0  0  0  0  0
  181.3350  179.1680  136.9790 C   0  0  0  0  0  2  0  0  0  0  0  0
  187.2050  177.7980  145.6070 C   0  0  0  0  0  0  0  0  0  0  0  0
  187.2030  178.0210  146.9780 C   0  0  0  0  0  0  0  0  0  0  0  0
  186.1050  178.6690  147.5120 C   0  0  0  0  0  3  0  0  0  0  0  0
  185.1080  179.0350  146.7280 N   0  0  0  0  0  0  0  0  0  0  0  0
  185.1450  178.8140  145.4260 C   0  0  0  0  0  0  0  0  0  0  0  0
  186.1760  178.1980  144.8770 N   0  0  0  0  0  4  0  0  0  0  0  0
  183.9810  179.2670  144.6650 N   0  0  0  0  0  2  0  0  0  0  0  0
  188.3590  177.5850  147.8690 C   0  0  0  0  0  0  0  0  0  0  0  0
  189.4470  178.3430  147.5720 F   0  0  0  0  0  0  0  0  0  0  0  0
  188.0150  177.7870  149.1710 F   0  0  0  0  0  0  0  0  0  0  0  0
  188.6650  176.2750  147.6790 F   0  0  0  0  0  0  0  0  0  0  0  0
  188.3350  177.1250  144.9890 N   0  0  0  0  0  2  0  0  0  0  0  0
  190.7340  177.3910  144.6560 C   0  0  0  0  0  1  0  0  0  0  0  0
  189.3420  177.8890  144.2760 C   0  0  0  0  0  2  0  0  0  0  0  0
  181.3500  178.8890  144.0340 O   0  0  0  0  0  0  0  0  0  0  0  0
  180.0800  178.3720  143.7490 C   0  0  0  0  0  1  0  0  0  0  0  0
  1 22  1  0  0  0  0
  2  1  2  0  0  0  0
  3  2  1  0  0  0  0
  4  3  2  0  0  0  0
  4  5  1  0  0  0  0
  5  6  2  0  0  0  0
  6  1  1  0  0  0  0
  6 30  1  0  0  0  0
  7  3  1  0  0  0  0
  8  4  1  0  0  0  0
  9  8  2  0  0  0  0
 10 11  1  0  0  0  0
 10  8  1  0  0  0  0
 12 11  1  0  0  0  0
 13 12  1  0  0  0  0
 14 15  1  0  0  0  0
 14 13  1  0  0  0  0
 15 10  1  0  0  0  0
 16 17  1  0  0  0  0
 17 18  2  0  0  0  0
 17 23  1  0  0  0  0
 19 18  1  0  0  0  0
 20 19  2  0  0  0  0
 21 20  2  0  0  0  0
 21 16  2  0  0  0  0
 22 20  1  0  0  0  0
 23 25  1  0  0  0  0
 24 23  1  0  0  0  0
 26 23  1  0  0  0  0
 27 16  1  0  0  0  0
 29 28  1  0  0  0  0
 29 27  1  0  0  0  0
 31 30  1  0  0  0  0
M  END
>  <MODEL>
2

>  <REMARK>
 VINA RESULT:      -8.6      4.493      6.390
  Name = 8u7h
  6 active torsions:
  status: ('A' for Active; 'I' for Inactive)
    1  A    between atoms: C_2  and  N_3
    2  A    between atoms: N_3  and  C_4
    3  A    between atoms: C_5  and  C_27
    4  A    between atoms: N_10  and  C_11
    5  A    between atoms: C_14  and  C_19
    6  A    between atoms: C_16  and  O_17
                            x       y       z     vdW  Elec       q    Type
                         _______ _______ _______ _____ _____    ______ ____

>  <TORSDO>
F 6

$$$$
8u7h
 OpenBabel10242410243D

 31 33  0  0  0  0  0  0  0  0999 V2000
  183.6140  179.0090  143.2260 C   0  0  0  0  0  0  0  0  0  0  0  0
  184.5400  178.9760  142.1900 C   0  0  0  0  0  3  0  0  0  0  0  0
  184.1160  178.7750  140.8810 C   0  0  0  0  0  0  0  0  0  0  0  0
  182.7660  178.6300  140.6050 C   0  0  0  0  0  0  0  0  0  0  0  0
  181.8440  178.6740  141.6360 C   0  0  0  0  0  3  0  0  0  0  0  0
  182.2660  178.8850  142.9380 C   0  0  0  0  0  0  0  0  0  0  0  0
  185.0300  178.7260  139.8660 F   0  0  0  0  0  0  0  0  0  0  0  0
  182.2630  178.4100  139.1590 C   0  0  0  0  0  0  0  0  0  0  0  0
  181.9890  179.3640  138.5140 O   0  0  0  0  0  0  0  0  0  0  0  0
  182.0630  177.0810  138.5760 N   0  0  0  0  0  0  0  0  0  0  0  0
  182.3430  175.8270  139.2310 C   0  0  0  0  0  2  0  0  0  0  0  0
  183.3740  175.1230  138.3380 C   0  0  0  0  0  2  0  0  0  0  0  0
  182.8270  174.7960  137.0590 O   0  0  0  0  0  0  0  0  0  0  0  0
  181.5430  175.3660  136.8340 C   0  0  0  0  0  2  0  0  0  0  0  0
  181.5820  176.8560  137.2220 C   0  0  0  0  0  2  0  0  0  0  0  0
  187.2220  177.7690  145.5070 C   0  0  0  0  0  0  0  0  0  0  0  0
  187.2280  177.9630  146.8830 C   0  0  0  0  0  0  0  0  0  0  0  0
  186.1310  178.5940  147.4390 C   0  0  0  0  0  3  0  0  0  0  0  0
  185.1260  178.9720  146.6700 N   0  0  0  0  0  0  0  0  0  0  0  0
  185.1550  178.7800  145.3640 C   0  0  0  0  0  0  0  0  0  0  0  0
  186.1850  178.1800  144.7940 N   0  0  0  0  0  4  0  0  0  0  0  0
  183.9840  179.2430  144.6210 N   0  0  0  0  0  2  0  0  0  0  0  0
  188.3920  177.5140  147.7560 C   0  0  0  0  0  0  0  0  0  0  0  0
  189.5000  178.2160  147.4000 F   0  0  0  0  0  0  0  0  0  0  0  0
  188.0970  177.7760  149.0590 F   0  0  0  0  0  0  0  0  0  0  0  0
  188.6410  176.1870  147.6070 F   0  0  0  0  0  0  0  0  0  0  0  0
  188.3490  177.1150  144.8670 N   0  0  0  0  0  2  0  0  0  0  0  0
  190.3120  178.4100  144.2230 C   0  0  0  0  0  1  0  0  0  0  0  0
  189.0220  177.7460  143.7470 C   0  0  0  0  0  2  0  0  0  0  0  0
  181.3430  178.9330  143.9910 O   0  0  0  0  0  0  0  0  0  0  0  0
  180.1070  178.3210  143.7480 C   0  0  0  0  0  1  0  0  0  0  0  0
  1 22  1  0  0  0  0
  2  1  2  0  0  0  0
  3  2  1  0  0  0  0
  4  3  2  0  0  0  0
  4  5  1  0  0  0  0
  5  6  2  0  0  0  0
  6  1  1  0  0  0  0
  6 30  1  0  0  0  0
  7  3  1  0  0  0  0
  8  4  1  0  0  0  0
  9  8  2  0  0  0  0
 10  8  1  0  0  0  0
 10 11  1  0  0  0  0
 12 11  1  0  0  0  0
 13 12  1  0  0  0  0
 14 13  1  0  0  0  0
 14 15  1  0  0  0  0
 15 10  1  0  0  0  0
 16 17  1  0  0  0  0
 17 18  2  0  0  0  0
 17 23  1  0  0  0  0
 19 18  1  0  0  0  0
 20 19  2  0  0  0  0
 21 20  2  0  0  0  0
 21 16  2  0  0  0  0
 22 20  1  0  0  0  0
 23 25  1  0  0  0  0
 24 23  1  0  0  0  0
 26 23  1  0  0  0  0
 27 16  1  0  0  0  0
 29 28  1  0  0  0  0
 29 27  1  0  0  0  0
 31 30  1  0  0  0  0
M  END
>  <MODEL>
3

>  <REMARK>
 VINA RESULT:      -8.5      3.944      5.808
  Name = 8u7h
  6 active torsions:
  status: ('A' for Active; 'I' for Inactive)
    1  A    between atoms: C_2  and  N_3
    2  A    between atoms: N_3  and  C_4
    3  A    between atoms: C_5  and  C_27
    4  A    between atoms: N_10  and  C_11
    5  A    between atoms: C_14  and  C_19
    6  A    between atoms: C_16  and  O_17
                            x       y       z     vdW  Elec       q    Type
                         _______ _______ _______ _____ _____    ______ ____

>  <TORSDO>
F 6

$$$$
8u7h
 OpenBabel10242410243D

 31 33  0  0  0  0  0  0  0  0999 V2000
  185.6600  178.3110  143.6470 C   0  0  0  0  0  0  0  0  0  0  0  0
  186.5170  178.3080  142.5530 C   0  0  0  0  0  3  0  0  0  0  0  0
  186.0250  178.5670  141.2790 C   0  0  0  0  0  0  0  0  0  0  0  0
  184.6810  178.8510  141.1000 C   0  0  0  0  0  0  0  0  0  0  0  0
  183.8300  178.8650  142.1910 C   0  0  0  0  0  3  0  0  0  0  0  0
  184.3230  178.6180  143.4620 C   0  0  0  0  0  0  0  0  0  0  0  0
  186.8680  178.5460  140.2020 F   0  0  0  0  0  0  0  0  0  0  0  0
  184.1050  179.1480  139.6960 C   0  0  0  0  0  0  0  0  0  0  0  0
  184.3640  180.1890  139.1960 O   0  0  0  0  0  0  0  0  0  0  0  0
  183.2150  178.2250  138.9860 N   0  0  0  0  0  0  0  0  0  0  0  0
  182.8010  176.9280  139.4600 C   0  0  0  0  0  2  0  0  0  0  0  0
  183.2780  175.9330  138.3930 C   0  0  0  0  0  2  0  0  0  0  0  0
  182.6120  176.1380  137.1460 O   0  0  0  0  0  0  0  0  0  0  0  0
  181.8220  177.3220  137.1180 C   0  0  0  0  0  2  0  0  0  0  0  0
  182.6560  178.4920  137.6710 C   0  0  0  0  0  2  0  0  0  0  0  0
  189.7150  177.4430  145.2460 C   0  0  0  0  0  0  0  0  0  0  0  0
  189.8290  177.0680  146.5780 C   0  0  0  0  0  0  0  0  0  0  0  0
  188.6720  177.0580  147.3350 C   0  0  0  0  0  3  0  0  0  0  0  0
  187.5180  177.3800  146.7810 N   0  0  0  0  0  0  0  0  0  0  0  0
  187.4450  177.7400  145.5130 C   0  0  0  0  0  0  0  0  0  0  0  0
  188.5270  177.7630  144.7560 N   0  0  0  0  0  4  0  0  0  0  0  0
  186.1110  178.0750  145.0160 N   0  0  0  0  0  2  0  0  0  0  0  0
  191.1680  176.6910  147.1980 C   0  0  0  0  0  0  0  0  0  0  0  0
  192.1430  176.8670  146.2690 F   0  0  0  0  0  0  0  0  0  0  0  0
  191.4110  177.5090  148.2600 F   0  0  0  0  0  0  0  0  0  0  0  0
  191.1770  175.3980  147.6130 F   0  0  0  0  0  0  0  0  0  0  0  0
  190.8970  177.4770  144.4030 N   0  0  0  0  0  2  0  0  0  0  0  0
  190.3760  175.5840  142.9590 C   0  0  0  0  0  1  0  0  0  0  0  0
  190.8230  177.0420  143.0200 C   0  0  0  0  0  2  0  0  0  0  0  0
  183.4720  178.6300  144.5740 O   0  0  0  0  0  0  0  0  0  0  0  0
  182.1070  178.7790  144.2980 C   0  0  0  0  0  1  0  0  0  0  0  0
  1 22  1  0  0  0  0
  2  1  2  0  0  0  0
  3  2  1  0  0  0  0
  4  3  2  0  0  0  0
  4  5  1  0  0  0  0
  5  6  2  0  0  0  0
  6  1  1  0  0  0  0
  6 30  1  0  0  0  0
  7  3  1  0  0  0  0
  8  4  1  0  0  0  0
  9  8  2  0  0  0  0
 10 11  1  0  0  0  0
 10  8  1  0  0  0  0
 12 11  1  0  0  0  0
 13 12  1  0  0  0  0
 14 13  1  0  0  0  0
 14 15  1  0  0  0  0
 15 10  1  0  0  0  0
 16 17  1  0  0  0  0
 17 23  1  0  0  0  0
 17 18  2  0  0  0  0
 19 18  1  0  0  0  0
 20 19  2  0  0  0  0
 21 16  2  0  0  0  0
 21 20  2  0  0  0  0
 22 20  1  0  0  0  0
 23 26  1  0  0  0  0
 23 25  1  0  0  0  0
 24 23  1  0  0  0  0
 27 16  1  0  0  0  0
 28 29  1  0  0  0  0
 29 27  1  0  0  0  0
 31 30  1  0  0  0  0
M  END
>  <MODEL>
4

>  <REMARK>
 VINA RESULT:      -8.4      3.476      5.101
  Name = 8u7h
  6 active torsions:
  status: ('A' for Active; 'I' for Inactive)
    1  A    between atoms: C_2  and  N_3
    2  A    between atoms: N_3  and  C_4
    3  A    between atoms: C_5  and  C_27
    4  A    between atoms: N_10  and  C_11
    5  A    between atoms: C_14  and  C_19
    6  A    between atoms: C_16  and  O_17
                            x       y       z     vdW  Elec       q    Type
                         _______ _______ _______ _____ _____    ______ ____

>  <TORSDO>
F 6

$$$$
8u7h
 OpenBabel10242410243D

 31 33  0  0  0  0  0  0  0  0999 V2000
  188.0910  178.2860  141.3490 C   0  0  0  0  0  0  0  0  0  0  0  0
  187.0290  178.6380  142.1730 C   0  0  0  0  0  3  0  0  0  0  0  0
  185.8030  178.9880  141.6200 C   0  0  0  0  0  0  0  0  0  0  0  0
  185.6300  178.9650  140.2450 C   0  0  0  0  0  0  0  0  0  0  0  0
  186.6850  178.6030  139.4260 C   0  0  0  0  0  3  0  0  0  0  0  0
  187.9040  178.2430  139.9780 C   0  0  0  0  0  0  0  0  0  0  0  0
  184.7640  179.3520  142.4320 F   0  0  0  0  0  0  0  0  0  0  0  0
  184.2770  179.3440  139.6010 C   0  0  0  0  0  0  0  0  0  0  0  0
  184.1800  180.4090  139.0930 O   0  0  0  0  0  0  0  0  0  0  0  0
  183.1020  178.4690  139.6370 N   0  0  0  0  0  0  0  0  0  0  0  0
  183.0550  177.1510  140.2190 C   0  0  0  0  0  2  0  0  0  0  0  0
  182.6540  176.2130  139.0720 C   0  0  0  0  0  2  0  0  0  0  0  0
  181.3350  176.4920  138.6000 O   0  0  0  0  0  0  0  0  0  0  0  0
  180.7800  177.6820  139.1500 C   0  0  0  0  0  2  0  0  0  0  0  0
  181.8190  178.8130  139.0440 C   0  0  0  0  0  2  0  0  0  0  0  0
  189.3320  177.0020  145.4190 C   0  0  0  0  0  0  0  0  0  0  0  0
  190.6890  176.8550  145.6760 C   0  0  0  0  0  0  0  0  0  0  0  0
  191.5590  177.0550  144.6210 C   0  0  0  0  0  3  0  0  0  0  0  0
  191.0910  177.3870  143.4320 N   0  0  0  0  0  0  0  0  0  0  0  0
  189.7930  177.5100  143.2190 C   0  0  0  0  0  0  0  0  0  0  0  0
  188.9290  177.3270  144.2010 N   0  0  0  0  0  4  0  0  0  0  0  0
  189.3990  177.8800  141.8600 N   0  0  0  0  0  2  0  0  0  0  0  0
  191.2130  176.4800  147.0570 C   0  0  0  0  0  0  0  0  0  0  0  0
  192.4780  176.0040  146.9270 F   0  0  0  0  0  0  0  0  0  0  0  0
  191.2330  177.5940  147.8410 F   0  0  0  0  0  0  0  0  0  0  0  0
  190.4370  175.5300  147.6400 F   0  0  0  0  0  0  0  0  0  0  0  0
  188.3700  176.8000  146.4880 N   0  0  0  0  0  2  0  0  0  0  0  0
  188.0100  177.8780  148.6440 C   0  0  0  0  0  1  0  0  0  0  0  0
  187.7510  177.9390  147.1410 C   0  0  0  0  0  2  0  0  0  0  0  0
  188.9790  177.8730  139.1600 O   0  0  0  0  0  0  0  0  0  0  0  0
  189.0680  178.5390  137.9310 C   0  0  0  0  0  1  0  0  0  0  0  0
  1 22  1  0  0  0  0
  1  2  1  0  0  0  0
  3  2  2  0  0  0  0
  3  7  1  0  0  0  0
  4  3  1  0  0  0  0
  5  6  1  0  0  0  0
  5  4  2  0  0  0  0
  6  1  2  0  0  0  0
  8 10  1  0  0  0  0
  8  4  1  0  0  0  0
  9  8  2  0  0  0  0
 10 11  1  0  0  0  0
 12 11  1  0  0  0  0
 13 12  1  0  0  0  0
 13 14  1  0  0  0  0
 15 14  1  0  0  0  0
 15 10  1  0  0  0  0
 16 17  1  0  0  0  0
 16 27  1  0  0  0  0
 17 23  1  0  0  0  0
 18 17  2  0  0  0  0
 19 18  1  0  0  0  0
 20 19  2  0  0  0  0
 20 21  2  0  0  0  0
 21 16  2  0  0  0  0
 22 20  1  0  0  0  0
 23 26  1  0  0  0  0
 23 25  1  0  0  0  0
 24 23  1  0  0  0  0
 27 29  1  0  0  0  0
 29 28  1  0  0  0  0
 30  6  1  0  0  0  0
 31 30  1  0  0  0  0
M  END
>  <MODEL>
5

>  <REMARK>
 VINA RESULT:      -8.2      3.357      4.006
  Name = 8u7h
  6 active torsions:
  status: ('A' for Active; 'I' for Inactive)
    1  A    between atoms: C_2  and  N_3
    2  A    between atoms: N_3  and  C_4
    3  A    between atoms: C_5  and  C_27
    4  A    between atoms: N_10  and  C_11
    5  A    between atoms: C_14  and  C_19
    6  A    between atoms: C_16  and  O_17
                            x       y       z     vdW  Elec       q    Type
                         _______ _______ _______ _____ _____    ______ ____

>  <TORSDO>
F 6

$$$$
8u7h
 OpenBabel10242410243D

 31 33  0  0  0  0  0  0  0  0999 V2000
  186.3790  178.4400  141.5660 C   0  0  0  0  0  0  0  0  0  0  0  0
  187.7040  178.2940  141.1740 C   0  0  0  0  0  3  0  0  0  0  0  0
  188.0320  178.2420  139.8240 C   0  0  0  0  0  0  0  0  0  0  0  0
  187.0390  178.3590  138.8650 C   0  0  0  0  0  0  0  0  0  0  0  0
  185.7210  178.5170  139.2560 C   0  0  0  0  0  3  0  0  0  0  0  0
  185.3960  178.5790  140.6010 C   0  0  0  0  0  0  0  0  0  0  0  0
  189.3340  178.0800  139.4420 F   0  0  0  0  0  0  0  0  0  0  0  0
  187.3720  178.3110  137.3560 C   0  0  0  0  0  0  0  0  0  0  0  0
  187.4310  179.3350  136.7650 O   0  0  0  0  0  0  0  0  0  0  0  0
  187.5640  177.0580  136.6200 N   0  0  0  0  0  0  0  0  0  0  0  0
  187.5190  175.7350  137.1900 C   0  0  0  0  0  2  0  0  0  0  0  0
  188.8930  175.1190  136.9000 C   0  0  0  0  0  2  0  0  0  0  0  0
  189.1080  174.9460  135.4970 O   0  0  0  0  0  0  0  0  0  0  0  0
  188.1040  175.5580  134.6960 C   0  0  0  0  0  2  0  0  0  0  0  0
  187.8680  176.9940  135.1990 C   0  0  0  0  0  2  0  0  0  0  0  0
  188.6310  177.6150  145.3070 C   0  0  0  0  0  0  0  0  0  0  0  0
  187.9300  177.5960  146.5060 C   0  0  0  0  0  0  0  0  0  0  0  0
  186.5830  177.9040  146.4570 C   0  0  0  0  0  3  0  0  0  0  0  0
  186.0120  178.1860  145.3000 N   0  0  0  0  0  0  0  0  0  0  0  0
  186.7100  178.2030  144.1790 C   0  0  0  0  0  0  0  0  0  0  0  0
  187.9980  177.9140  144.1840 N   0  0  0  0  0  4  0  0  0  0  0  0
  185.9640  178.5300  142.9640 N   0  0  0  0  0  2  0  0  0  0  0  0
  188.6030  177.2610  147.8300 C   0  0  0  0  0  0  0  0  0  0  0  0
  189.4960  178.2410  148.1250 F   0  0  0  0  0  0  0  0  0  0  0  0
  187.6570  177.2100  148.8090 F   0  0  0  0  0  0  0  0  0  0  0  0
  189.2550  176.0700  147.7680 F   0  0  0  0  0  0  0  0  0  0  0  0
  190.0500  177.3020  145.2980 N   0  0  0  0  0  2  0  0  0  0  0  0
  191.4170  178.8650  144.0220 C   0  0  0  0  0  1  0  0  0  0  0  0
  190.8260  177.4590  144.0820 C   0  0  0  0  0  2  0  0  0  0  0  0
  184.0660  178.7400  141.0100 O   0  0  0  0  0  0  0  0  0  0  0  0
  183.1620  177.7820  140.5360 C   0  0  0  0  0  1  0  0  0  0  0  0
  1 22  1  0  0  0  0
  2  1  1  0  0  0  0
  3  2  2  0  0  0  0
  4  5  2  0  0  0  0
  4  3  1  0  0  0  0
  5  6  1  0  0  0  0
  6 30  1  0  0  0  0
  6  1  2  0  0  0  0
  7  3  1  0  0  0  0
  8  4  1  0  0  0  0
  9  8  2  0  0  0  0
 10 11  1  0  0  0  0
 10  8  1  0  0  0  0
 12 11  1  0  0  0  0
 13 12  1  0  0  0  0
 14 15  1  0  0  0  0
 14 13  1  0  0  0  0
 15 10  1  0  0  0  0
 16 17  1  0  0  0  0
 17 23  1  0  0  0  0
 18 17  2  0  0  0  0
 19 18  1  0  0  0  0
 20 21  2  0  0  0  0
 20 19  2  0  0  0  0
 21 16  2  0  0  0  0
 22 20  1  0  0  0  0
 23 24  1  0  0  0  0
 23 25  1  0  0  0  0
 26 23  1  0  0  0  0
 27 16  1  0  0  0  0
 28 29  1  0  0  0  0
 29 27  1  0  0  0  0
 31 30  1  0  0  0  0
M  END
>  <MODEL>
6

>  <REMARK>
 VINA RESULT:      -8.1      2.012      3.672
  Name = 8u7h
  6 active torsions:
  status: ('A' for Active; 'I' for Inactive)
    1  A    between atoms: C_2  and  N_3
    2  A    between atoms: N_3  and  C_4
    3  A    between atoms: C_5  and  C_27
    4  A    between atoms: N_10  and  C_11
    5  A    between atoms: C_14  and  C_19
    6  A    between atoms: C_16  and  O_17
                            x       y       z     vdW  Elec       q    Type
                         _______ _______ _______ _____ _____    ______ ____

>  <TORSDO>
F 6

$$$$
8u7h
 OpenBabel10242410243D

 31 33  0  0  0  0  0  0  0  0999 V2000
  187.2950  178.3010  141.3720 C   0  0  0  0  0  0  0  0  0  0  0  0
  186.1100  178.6480  142.0080 C   0  0  0  0  0  3  0  0  0  0  0  0
  184.9930  179.0020  141.2600 C   0  0  0  0  0  0  0  0  0  0  0  0
  185.0520  178.9860  139.8760 C   0  0  0  0  0  0  0  0  0  0  0  0
  186.2290  178.6280  139.2430 C   0  0  0  0  0  3  0  0  0  0  0  0
  187.3390  178.2660  139.9890 C   0  0  0  0  0  0  0  0  0  0  0  0
  183.8330  179.3600  141.8890 F   0  0  0  0  0  0  0  0  0  0  0  0
  183.8250  179.3680  139.0160 C   0  0  0  0  0  0  0  0  0  0  0  0
  183.6520  180.5130  138.7710 O   0  0  0  0  0  0  0  0  0  0  0  0
  182.8460  178.3860  138.5410 N   0  0  0  0  0  0  0  0  0  0  0  0
  182.9110  176.9630  138.7600 C   0  0  0  0  0  2  0  0  0  0  0  0
  182.9420  176.3370  137.3590 C   0  0  0  0  0  2  0  0  0  0  0  0
  181.7280  176.5800  136.6460 O   0  0  0  0  0  0  0  0  0  0  0  0
  180.8640  177.5000  137.3040 C   0  0  0  0  0  2  0  0  0  0  0  0
  181.6820  178.7290  137.7400 C   0  0  0  0  0  2  0  0  0  0  0  0
  187.9510  177.5240  145.6980 C   0  0  0  0  0  0  0  0  0  0  0  0
  189.2540  177.3340  146.1410 C   0  0  0  0  0  0  0  0  0  0  0  0
  190.2540  177.3330  145.1870 C   0  0  0  0  0  3  0  0  0  0  0  0
  189.9540  177.5230  143.9150 N   0  0  0  0  0  0  0  0  0  0  0  0
  188.7030  177.6930  143.5260 C   0  0  0  0  0  0  0  0  0  0  0  0
  187.7200  177.7010  144.4070 N   0  0  0  0  0  4  0  0  0  0  0  0
  188.4990  177.8930  142.0920 N   0  0  0  0  0  2  0  0  0  0  0  0
  189.5830  177.1240  147.6130 C   0  0  0  0  0  0  0  0  0  0  0  0
  190.8820  176.7400  147.7190 F   0  0  0  0  0  0  0  0  0  0  0  0
  189.4110  178.3000  148.2790 F   0  0  0  0  0  0  0  0  0  0  0  0
  188.7920  176.1700  148.1680 F   0  0  0  0  0  0  0  0  0  0  0  0
  186.8590  177.5310  146.6550 N   0  0  0  0  0  2  0  0  0  0  0  0
  184.7400  178.6280  146.1550 C   0  0  0  0  0  1  0  0  0  0  0  0
  186.0840  178.7390  146.8720 C   0  0  0  0  0  2  0  0  0  0  0  0
  188.5360  177.9010  139.3600 O   0  0  0  0  0  0  0  0  0  0  0  0
  188.9450  178.7210  138.3010 C   0  0  0  0  0  1  0  0  0  0  0  0
  1  2  1  0  0  0  0
  1 22  1  0  0  0  0
  3  7  1  0  0  0  0
  3  2  2  0  0  0  0
  4  3  1  0  0  0  0
  5  4  2  0  0  0  0
  5  6  1  0  0  0  0
  6  1  2  0  0  0  0
  8  4  1  0  0  0  0
  9  8  2  0  0  0  0
 10 11  1  0  0  0  0
 10  8  1  0  0  0  0
 12 11  1  0  0  0  0
 13 14  1  0  0  0  0
 13 12  1  0  0  0  0
 14 15  1  0  0  0  0
 15 10  1  0  0  0  0
 16 17  1  0  0  0  0
 16 27  1  0  0  0  0
 17 23  1  0  0  0  0
 18 17  2  0  0  0  0
 19 18  1  0  0  0  0
 20 19  2  0  0  0  0
 20 21  2  0  0  0  0
 21 16  2  0  0  0  0
 22 20  1  0  0  0  0
 23 24  1  0  0  0  0
 23 26  1  0  0  0  0
 23 25  1  0  0  0  0
 27 29  1  0  0  0  0
 28 29  1  0  0  0  0
 30  6  1  0  0  0  0
 31 30  1  0  0  0  0
M  END
>  <MODEL>
7

>  <REMARK>
 VINA RESULT:      -8.1      3.151      3.558
  Name = 8u7h
  6 active torsions:
  status: ('A' for Active; 'I' for Inactive)
    1  A    between atoms: C_2  and  N_3
    2  A    between atoms: N_3  and  C_4
    3  A    between atoms: C_5  and  C_27
    4  A    between atoms: N_10  and  C_11
    5  A    between atoms: C_14  and  C_19
    6  A    between atoms: C_16  and  O_17
                            x       y       z     vdW  Elec       q    Type
                         _______ _______ _______ _____ _____    ______ ____

>  <TORSDO>
F 6

$$$$
8u7h
 OpenBabel10242410243D

 31 33  0  0  0  0  0  0  0  0999 V2000
  190.4170  177.0090  139.8370 C   0  0  0  0  0  0  0  0  0  0  0  0
  191.7080  177.1800  140.3230 C   0  0  0  0  0  3  0  0  0  0  0  0
  192.8020  176.9310  139.5020 C   0  0  0  0  0  0  0  0  0  0  0  0
  192.6070  176.5340  138.1890 C   0  0  0  0  0  0  0  0  0  0  0  0
  191.3210  176.3760  137.7020 C   0  0  0  0  0  3  0  0  0  0  0  0
  190.2310  176.6340  138.5170 C   0  0  0  0  0  0  0  0  0  0  0  0
  194.0710  177.0820  139.9880 F   0  0  0  0  0  0  0  0  0  0  0  0
  193.8030  176.2560  137.2490 C   0  0  0  0  0  0  0  0  0  0  0  0
  194.1660  177.1270  136.5350 O   0  0  0  0  0  0  0  0  0  0  0  0
  194.4680  174.9520  137.1680 N   0  0  0  0  0  0  0  0  0  0  0  0
  194.1430  173.7940  137.9620 C   0  0  0  0  0  2  0  0  0  0  0  0
  195.4310  173.4450  138.7190 C   0  0  0  0  0  2  0  0  0  0  0  0
  196.4740  173.0430  137.8280 O   0  0  0  0  0  0  0  0  0  0  0  0
  196.1520  173.2480  136.4570 C   0  0  0  0  0  2  0  0  0  0  0  0
  195.5880  174.6700  136.2840 C   0  0  0  0  0  2  0  0  0  0  0  0
  189.9000  177.3980  144.2340 C   0  0  0  0  0  0  0  0  0  0  0  0
  188.6080  177.4650  144.7400 C   0  0  0  0  0  0  0  0  0  0  0  0
  187.5700  177.4740  143.8270 C   0  0  0  0  0  3  0  0  0  0  0  0
  187.8270  177.4050  142.5340 N   0  0  0  0  0  0  0  0  0  0  0  0
  189.0670  177.3500  142.0850 C   0  0  0  0  0  0  0  0  0  0  0  0
  190.0870  177.3390  142.9250 N   0  0  0  0  0  4  0  0  0  0  0  0
  189.2220  177.2770  140.6330 N   0  0  0  0  0  2  0  0  0  0  0  0
  188.3300  177.5360  146.2360 C   0  0  0  0  0  0  0  0  0  0  0  0
  189.0530  178.5580  146.7650 F   0  0  0  0  0  0  0  0  0  0  0  0
  187.0040  177.7800  146.4290 F   0  0  0  0  0  0  0  0  0  0  0  0
  188.6730  176.3790  146.8600 F   0  0  0  0  0  0  0  0  0  0  0  0
  191.0310  177.3890  145.1450 N   0  0  0  0  0  2  0  0  0  0  0  0
  191.8990  176.0720  147.0030 C   0  0  0  0  0  1  0  0  0  0  0  0
  191.6810  176.1390  145.4930 C   0  0  0  0  0  2  0  0  0  0  0  0
  188.9250  176.4790  138.0370 O   0  0  0  0  0  0  0  0  0  0  0  0
  188.7350  175.4510  137.1050 C   0  0  0  0  0  1  0  0  0  0  0  0
  1  2  1  0  0  0  0
  1 22  1  0  0  0  0
  3  7  1  0  0  0  0
  3  2  2  0  0  0  0
  4  3  1  0  0  0  0
  5  4  2  0  0  0  0
  5  6  1  0  0  0  0
  6  1  2  0  0  0  0
  8  4  1  0  0  0  0
  9  8  2  0  0  0  0
 10  8  1  0  0  0  0
 10 11  1  0  0  0  0
 11 12  1  0  0  0  0
 13 12  1  0  0  0  0
 14 13  1  0  0  0  0
 15 14  1  0  0  0  0
 15 10  1  0  0  0  0
 16 17  1  0  0  0  0
 16 27  1  0  0  0  0
 17 23  1  0  0  0  0
 18 17  2  0  0  0  0
 19 18  1  0  0  0  0
 20 19  2  0  0  0  0
 20 21  2  0  0  0  0
 21 16  2  0  0  0  0
 22 20  1  0  0  0  0
 23 25  1  0  0  0  0
 23 24  1  0  0  0  0
 23 26  1  0  0  0  0
 27 29  1  0  0  0  0
 29 28  1  0  0  0  0
 30  6  1  0  0  0  0
 31 30  1  0  0  0  0
M  END
>  <MODEL>
8

>  <REMARK>
 VINA RESULT:      -8.0      3.334      5.410
  Name = 8u7h
  6 active torsions:
  status: ('A' for Active; 'I' for Inactive)
    1  A    between atoms: C_2  and  N_3
    2  A    between atoms: N_3  and  C_4
    3  A    between atoms: C_5  and  C_27
    4  A    between atoms: N_10  and  C_11
    5  A    between atoms: C_14  and  C_19
    6  A    between atoms: C_16  and  O_17
                            x       y       z     vdW  Elec       q    Type
                         _______ _______ _______ _____ _____    ______ ____

>  <TORSDO>
F 6

$$$$
8u7h
 OpenBabel10242410243D

 31 33  0  0  0  0  0  0  0  0999 V2000
  186.9140  178.3910  139.3350 C   0  0  0  0  0  0  0  0  0  0  0  0
  188.2900  178.3190  139.5090 C   0  0  0  0  0  3  0  0  0  0  0  0
  189.1000  177.8420  138.4840 C   0  0  0  0  0  0  0  0  0  0  0  0
  188.5370  177.4600  137.2770 C   0  0  0  0  0  0  0  0  0  0  0  0
  187.1670  177.5440  137.1010 C   0  0  0  0  0  3  0  0  0  0  0  0
  186.3620  178.0290  138.1190 C   0  0  0  0  0  0  0  0  0  0  0  0
  190.4530  177.7560  138.6640 F   0  0  0  0  0  0  0  0  0  0  0  0
  189.4110  176.9310  136.1160 C   0  0  0  0  0  0  0  0  0  0  0  0
  189.4690  177.5750  135.1250 O   0  0  0  0  0  0  0  0  0  0  0  0
  190.1230  175.6520  136.1720 N   0  0  0  0  0  0  0  0  0  0  0  0
  190.1480  174.7530  137.2990 C   0  0  0  0  0  2  0  0  0  0  0  0
  191.6290  174.6170  137.6780 C   0  0  0  0  0  2  0  0  0  0  0  0
  192.3820  173.9830  136.6410 O   0  0  0  0  0  0  0  0  0  0  0  0
  191.6440  173.8100  135.4370 C   0  0  0  0  0  2  0  0  0  0  0  0
  190.9410  175.1350  135.0860 C   0  0  0  0  0  2  0  0  0  0  0  0
  186.9250  177.8570  143.7470 C   0  0  0  0  0  0  0  0  0  0  0  0
  185.8230  178.3030  144.4660 C   0  0  0  0  0  0  0  0  0  0  0  0
  184.8250  178.9480  143.7590 C   0  0  0  0  0  3  0  0  0  0  0  0
  184.9350  179.1040  142.4530 N   0  0  0  0  0  0  0  0  0  0  0  0
  186.0000  178.6740  141.8010 C   0  0  0  0  0  0  0  0  0  0  0  0
  186.9750  178.0530  142.4390 N   0  0  0  0  0  4  0  0  0  0  0  0
  186.0050  178.9060  140.3570 N   0  0  0  0  0  2  0  0  0  0  0  0
  185.7090  178.1080  145.9720 C   0  0  0  0  0  0  0  0  0  0  0  0
  186.4610  179.0540  146.5920 F   0  0  0  0  0  0  0  0  0  0  0  0
  184.4060  178.2600  146.3410 F   0  0  0  0  0  0  0  0  0  0  0  0
  186.1450  176.8770  146.3470 F   0  0  0  0  0  0  0  0  0  0  0  0
  188.0070  177.1760  144.4370 N   0  0  0  0  0  2  0  0  0  0  0  0
  189.5580  177.5650  146.2760 C   0  0  0  0  0  1  0  0  0  0  0  0
  189.1970  177.9060  144.8320 C   0  0  0  0  0  2  0  0  0  0  0  0
  184.9740  178.1190  137.9520 O   0  0  0  0  0  0  0  0  0  0  0  0
  184.3340  176.9530  137.5150 C   0  0  0  0  0  1  0  0  0  0  0  0
  1  2  1  0  0  0  0
  1 22  1  0  0  0  0
  3  7  1  0  0  0  0
  3  2  2  0  0  0  0
  4  3  1  0  0  0  0
  5  4  2  0  0  0  0
  5  6  1  0  0  0  0
  6  1  2  0  0  0  0
  8 10  1  0  0  0  0
  8  4  1  0  0  0  0
  9  8  2  0  0  0  0
 10 11  1  0  0  0  0
 11 12  1  0  0  0  0
 13 12  1  0  0  0  0
 14 13  1  0  0  0  0
 15 14  1  0  0  0  0
 15 10  1  0  0  0  0
 16 27  1  0  0  0  0
 16 17  1  0  0  0  0
 17 23  1  0  0  0  0
 18 17  2  0  0  0  0
 19 18  1  0  0  0  0
 20 21  2  0  0  0  0
 20 19  2  0  0  0  0
 21 16  2  0  0  0  0
 22 20  1  0  0  0  0
 23 25  1  0  0  0  0
 23 26  1  0  0  0  0
 23 24  1  0  0  0  0
 27 29  1  0  0  0  0
 29 28  1  0  0  0  0
 30  6  1  0  0  0  0
 31 30  1  0  0  0  0
M  END
>  <MODEL>
9

>  <REMARK>
 VINA RESULT:      -7.9      2.666      4.441
  Name = 8u7h
  6 active torsions:
  status: ('A' for Active; 'I' for Inactive)
    1  A    between atoms: C_2  and  N_3
    2  A    between atoms: N_3  and  C_4
    3  A    between atoms: C_5  and  C_27
    4  A    between atoms: N_10  and  C_11
    5  A    between atoms: C_14  and  C_19
    6  A    between atoms: C_16  and  O_17
                            x       y       z     vdW  Elec       q    Type
                         _______ _______ _______ _____ _____    ______ ____

>  <TORSDO>
F 6

$$$$
