8smc
 OpenBabel10242410233D

 24 25  0  0  0  0  0  0  0  0999 V2000
  189.7150  177.8660  144.6000 C   0  0  0  0  0  1  0  0  0  0  0  0
  188.5660  177.1400  145.1020 N   0  0  0  0  0  2  0  0  0  0  0  0
  187.4050  177.8570  145.5830 C   0  0  0  0  0  0  0  0  0  0  0  0
  186.5370  178.3850  144.7410 N   0  0  0  0  0  4  0  0  0  0  0  0
  185.4740  179.0290  145.1670 C   0  0  0  0  0  0  0  0  0  0  0  0
  184.5130  179.6330  144.2560 N   0  0  0  0  0  2  0  0  0  0  0  0
  185.2590  179.1750  146.4600 N   0  0  0  0  0  0  0  0  0  0  0  0
  186.0720  178.6760  147.3650 C   0  0  0  0  0  3  0  0  0  0  0  0
  187.1940  177.9870  146.9410 C   0  0  0  0  0  0  0  0  0  0  0  0
  183.9990  179.1000  143.0040 C   0  0  0  0  0  0  0  0  0  0  0  0
  182.5290  178.4820  141.5390 N   0  0  0  0  0  0  0  0  0  0  0  0
  182.6580  178.9600  142.7450 C   0  0  0  0  0  3  0  0  0  0  0  0
  183.7550  178.3180  140.9670 N   0  0  0  0  0  0  0  0  0  0  0  0
  184.6770  178.7070  141.8490 C   0  0  0  0  0  0  0  0  0  0  0  0
  186.1790  178.6670  141.5780 C   0  0  0  0  0  1  0  0  0  0  0  0
  181.2720  178.1760  140.8870 C   0  0  0  0  0  0  0  0  0  0  0  0
  181.4310  176.9170  140.0340 C   0  0  0  0  0  1  0  0  0  0  0  0
  180.8780  179.3470  139.9910 C   0  0  0  0  0  1  0  0  0  0  0  0
  179.3720  177.8000  142.7150 N   0  0  0  0  0  0  0  0  0  0  0  0
  180.1840  177.9600  141.9360 C   0  0  0  0  0  0  0  0  0  0  0  0
  188.1840  177.3900  147.9260 C   0  0  0  0  0  0  0  0  0  0  0  0
  189.3580  178.0740  147.8440 F   0  0  0  0  0  0  0  0  0  0  0  0
  187.6790  177.5100  149.1860 F   0  0  0  0  0  0  0  0  0  0  0  0
  188.3930  176.0750  147.6420 F   0  0  0  0  0  0  0  0  0  0  0  0
  1  2  1  0  0  0  0
  2  3  1  0  0  0  0
  3  9  1  0  0  0  0
  4  5  2  0  0  0  0
  4  3  2  0  0  0  0
  5  7  2  0  0  0  0
  6  5  1  0  0  0  0
  7  8  1  0  0  0  0
  9  8  2  0  0  0  0
  9 21  1  0  0  0  0
 10  6  1  0  0  0  0
 11 12  1  0  0  0  0
 12 10  2  0  0  0  0
 13 11  1  0  0  0  0
 13 14  2  0  0  0  0
 14 10  1  0  0  0  0
 15 14  1  0  0  0  0
 16 11  1  0  0  0  0
 16 20  1  0  0  0  0
 17 16  1  0  0  0  0
 18 16  1  0  0  0  0
 20 19  3  0  0  0  0
 21 23  1  0  0  0  0
 22 21  1  0  0  0  0
 24 21  1  0  0  0  0
M  END
>  <MODEL>
1

>  <REMARK>
 VINA RESULT:      -7.6      0.000      0.000
  Name = 8smc
  4 active torsions:
  status: ('A' for Active; 'I' for Inactive)
    1  A    between atoms: N_6  and  C_7
    2  A    between atoms: N_8  and  C_15
    3  A    between atoms: C_15  and  C_18
    4  A    between atoms: C_20  and  C_21
                            x       y       z     vdW  Elec       q    Type
                         _______ _______ _______ _____ _____    ______ ____

>  <TORSDO>
F 4

$$$$
8smc
 OpenBabel10242410233D

 24 25  0  0  0  0  0  0  0  0999 V2000
  189.4460  177.9320  144.2500 C   0  0  0  0  0  1  0  0  0  0  0  0
  188.3390  177.2020  144.8320 N   0  0  0  0  0  2  0  0  0  0  0  0
  187.2350  177.9140  145.4390 C   0  0  0  0  0  0  0  0  0  0  0  0
  186.3010  178.4750  144.6960 N   0  0  0  0  0  4  0  0  0  0  0  0
  185.2890  179.1160  145.2350 C   0  0  0  0  0  0  0  0  0  0  0  0
  184.2560  179.7570  144.4350 N   0  0  0  0  0  2  0  0  0  0  0  0
  185.1930  179.2240  146.5470 N   0  0  0  0  0  0  0  0  0  0  0  0
  186.0790  178.6900  147.3580 C   0  0  0  0  0  3  0  0  0  0  0  0
  187.1500  178.0040  146.8130 C   0  0  0  0  0  0  0  0  0  0  0  0
  183.6240  179.2670  143.2190 C   0  0  0  0  0  0  0  0  0  0  0  0
  183.4590  178.6710  141.1440 N   0  0  0  0  0  0  0  0  0  0  0  0
  184.2890  179.1600  142.0220 C   0  0  0  0  0  3  0  0  0  0  0  0
  182.2520  178.4220  141.7280 N   0  0  0  0  0  0  0  0  0  0  0  0
  182.3370  178.7690  143.0120 C   0  0  0  0  0  0  0  0  0  0  0  0
  181.1810  178.6440  144.0020 C   0  0  0  0  0  1  0  0  0  0  0  0
  183.7640  178.4150  139.7510 C   0  0  0  0  0  0  0  0  0  0  0  0
  183.0370  179.4310  138.8720 C   0  0  0  0  0  1  0  0  0  0  0  0
  183.2950  177.0070  139.3900 C   0  0  0  0  0  1  0  0  0  0  0  0
  186.3920  178.5900  139.3560 N   0  0  0  0  0  0  0  0  0  0  0  0
  185.2710  178.5130  139.5250 C   0  0  0  0  0  0  0  0  0  0  0  0
  188.2180  177.3680  147.6860 C   0  0  0  0  0  0  0  0  0  0  0  0
  189.3740  178.0750  147.5560 F   0  0  0  0  0  0  0  0  0  0  0  0
  187.8080  177.4080  148.9850 F   0  0  0  0  0  0  0  0  0  0  0  0
  188.4200  176.0740  147.3110 F   0  0  0  0  0  0  0  0  0  0  0  0
  1  2  1  0  0  0  0
  2  3  1  0  0  0  0
  3  9  1  0  0  0  0
  4  5  2  0  0  0  0
  4  3  2  0  0  0  0
  5  7  2  0  0  0  0
  6  5  1  0  0  0  0
  7  8  1  0  0  0  0
  9  8  2  0  0  0  0
  9 21  1  0  0  0  0
 10  6  1  0  0  0  0
 11 13  1  0  0  0  0
 11 12  1  0  0  0  0
 12 10  2  0  0  0  0
 13 14  2  0  0  0  0
 14 10  1  0  0  0  0
 14 15  1  0  0  0  0
 16 11  1  0  0  0  0
 17 16  1  0  0  0  0
 18 16  1  0  0  0  0
 19 20  3  0  0  0  0
 20 16  1  0  0  0  0
 21 23  1  0  0  0  0
 22 21  1  0  0  0  0
 24 21  1  0  0  0  0
M  END
>  <MODEL>
2

>  <REMARK>
 VINA RESULT:      -7.4      1.247      2.651
  Name = 8smc
  4 active torsions:
  status: ('A' for Active; 'I' for Inactive)
    1  A    between atoms: N_6  and  C_7
    2  A    between atoms: N_8  and  C_15
    3  A    between atoms: C_15  and  C_18
    4  A    between atoms: C_20  and  C_21
                            x       y       z     vdW  Elec       q    Type
                         _______ _______ _______ _____ _____    ______ ____

>  <TORSDO>
F 4

$$$$
8smc
 OpenBabel10242410233D

 24 25  0  0  0  0  0  0  0  0999 V2000
  183.9890  178.0730  141.2370 C   0  0  0  0  0  1  0  0  0  0  0  0
  184.9200  178.8710  142.0090 N   0  0  0  0  0  2  0  0  0  0  0  0
  185.8080  178.2370  142.9600 C   0  0  0  0  0  0  0  0  0  0  0  0
  186.8920  177.6030  142.5560 N   0  0  0  0  0  4  0  0  0  0  0  0
  187.7110  177.0330  143.4110 C   0  0  0  0  0  0  0  0  0  0  0  0
  188.9040  176.3150  142.9870 N   0  0  0  0  0  2  0  0  0  0  0  0
  187.4550  177.0720  144.7050 N   0  0  0  0  0  0  0  0  0  0  0  0
  186.3980  177.6870  145.1890 C   0  0  0  0  0  3  0  0  0  0  0  0
  185.5250  178.3010  144.3090 C   0  0  0  0  0  0  0  0  0  0  0  0
  189.8440  176.6710  141.9360 C   0  0  0  0  0  0  0  0  0  0  0  0
  190.6420  176.8420  139.9300 N   0  0  0  0  0  0  0  0  0  0  0  0
  189.6360  176.3690  140.6120 C   0  0  0  0  0  3  0  0  0  0  0  0
  191.5150  177.4770  140.7610 N   0  0  0  0  0  0  0  0  0  0  0  0
  191.0350  177.3960  142.0020 C   0  0  0  0  0  0  0  0  0  0  0  0
  191.7370  177.9880  143.2230 C   0  0  0  0  0  1  0  0  0  0  0  0
  190.8140  176.7230  138.4960 C   0  0  0  0  0  0  0  0  0  0  0  0
  190.1030  177.8820  137.7970 C   0  0  0  0  0  1  0  0  0  0  0  0
  190.2060  175.4030  138.0300 C   0  0  0  0  0  1  0  0  0  0  0  0
  193.4080  176.7540  137.8950 N   0  0  0  0  0  0  0  0  0  0  0  0
  192.3010  176.7390  138.1500 C   0  0  0  0  0  0  0  0  0  0  0  0
  184.2810  179.0230  144.7930 C   0  0  0  0  0  0  0  0  0  0  0  0
  184.2860  179.0500  146.1540 F   0  0  0  0  0  0  0  0  0  0  0  0
  184.2960  180.2990  144.3170 F   0  0  0  0  0  0  0  0  0  0  0  0
  183.1640  178.3830  144.3470 F   0  0  0  0  0  0  0  0  0  0  0  0
  1  2  1  0  0  0  0
  2  3  1  0  0  0  0
  3  9  1  0  0  0  0
  4  3  2  0  0  0  0
  4  5  2  0  0  0  0
  5  7  2  0  0  0  0
  6  5  1  0  0  0  0
  7  8  1  0  0  0  0
  9 21  1  0  0  0  0
  9  8  2  0  0  0  0
 10 14  1  0  0  0  0
 10  6  1  0  0  0  0
 11 12  1  0  0  0  0
 11 13  1  0  0  0  0
 12 10  2  0  0  0  0
 13 14  2  0  0  0  0
 14 15  1  0  0  0  0
 16 11  1  0  0  0  0
 17 16  1  0  0  0  0
 18 16  1  0  0  0  0
 19 20  3  0  0  0  0
 20 16  1  0  0  0  0
 21 22  1  0  0  0  0
 23 21  1  0  0  0  0
 24 21  1  0  0  0  0
M  END
>  <MODEL>
3

>  <REMARK>
 VINA RESULT:      -7.3      4.412      7.305
  Name = 8smc
  4 active torsions:
  status: ('A' for Active; 'I' for Inactive)
    1  A    between atoms: N_6  and  C_7
    2  A    between atoms: N_8  and  C_15
    3  A    between atoms: C_15  and  C_18
    4  A    between atoms: C_20  and  C_21
                            x       y       z     vdW  Elec       q    Type
                         _______ _______ _______ _____ _____    ______ ____

>  <TORSDO>
F 4

$$$$
8smc
 OpenBabel10242410233D

 24 25  0  0  0  0  0  0  0  0999 V2000
  186.2030  177.2830  145.5230 C   0  0  0  0  0  1  0  0  0  0  0  0
  187.3870  178.1150  145.4560 N   0  0  0  0  0  2  0  0  0  0  0  0
  188.6880  177.5150  145.2500 C   0  0  0  0  0  0  0  0  0  0  0  0
  189.0660  177.1100  144.0530 N   0  0  0  0  0  4  0  0  0  0  0  0
  190.2490  176.5740  143.8530 C   0  0  0  0  0  0  0  0  0  0  0  0
  190.6800  176.1050  142.5440 N   0  0  0  0  0  2  0  0  0  0  0  0
  191.0860  176.4150  144.8600 N   0  0  0  0  0  0  0  0  0  0  0  0
  190.7880  176.7950  146.0830 C   0  0  0  0  0  3  0  0  0  0  0  0
  189.5510  177.3700  146.3170 C   0  0  0  0  0  0  0  0  0  0  0  0
  190.4630  176.7270  141.2470 C   0  0  0  0  0  0  0  0  0  0  0  0
  189.3610  177.4780  139.5410 N   0  0  0  0  0  0  0  0  0  0  0  0
  189.2190  176.8630  140.6820 C   0  0  0  0  0  3  0  0  0  0  0  0
  190.6730  177.7820  139.3330 N   0  0  0  0  0  0  0  0  0  0  0  0
  191.3690  177.3410  140.3810 C   0  0  0  0  0  0  0  0  0  0  0  0
  192.8830  177.4910  140.5170 C   0  0  0  0  0  1  0  0  0  0  0  0
  188.2890  177.8040  138.6230 C   0  0  0  0  0  0  0  0  0  0  0  0
  187.8870  176.5560  137.8380 C   0  0  0  0  0  1  0  0  0  0  0  0
  188.7740  178.8770  137.6520 C   0  0  0  0  0  1  0  0  0  0  0  0
  186.1960  178.7410  139.9790 N   0  0  0  0  0  0  0  0  0  0  0  0
  187.0880  178.3400  139.4000 C   0  0  0  0  0  0  0  0  0  0  0  0
  189.1330  177.8260  147.7030 C   0  0  0  0  0  0  0  0  0  0  0  0
  188.2500  176.9270  148.2180 F   0  0  0  0  0  0  0  0  0  0  0  0
  190.2370  177.8820  148.5010 F   0  0  0  0  0  0  0  0  0  0  0  0
  188.5560  179.0580  147.6380 F   0  0  0  0  0  0  0  0  0  0  0  0
  2  1  1  0  0  0  0
  3  2  1  0  0  0  0
  3  9  1  0  0  0  0
  4  3  2  0  0  0  0
  5  4  2  0  0  0  0
  5  7  2  0  0  0  0
  6  5  1  0  0  0  0
  7  8  1  0  0  0  0
  8  9  2  0  0  0  0
  9 21  1  0  0  0  0
 10  6  1  0  0  0  0
 11 12  1  0  0  0  0
 12 10  2  0  0  0  0
 13 11  1  0  0  0  0
 13 14  2  0  0  0  0
 14 15  1  0  0  0  0
 14 10  1  0  0  0  0
 16 20  1  0  0  0  0
 16 11  1  0  0  0  0
 17 16  1  0  0  0  0
 18 16  1  0  0  0  0
 20 19  3  0  0  0  0
 21 22  1  0  0  0  0
 21 23  1  0  0  0  0
 24 21  1  0  0  0  0
M  END
>  <MODEL>
4

>  <REMARK>
 VINA RESULT:      -7.3      3.739      5.728
  Name = 8smc
  4 active torsions:
  status: ('A' for Active; 'I' for Inactive)
    1  A    between atoms: N_6  and  C_7
    2  A    between atoms: N_8  and  C_15
    3  A    between atoms: C_15  and  C_18
    4  A    between atoms: C_20  and  C_21
                            x       y       z     vdW  Elec       q    Type
                         _______ _______ _______ _____ _____    ______ ____

>  <TORSDO>
F 4

$$$$
8smc
 OpenBabel10242410233D

 24 25  0  0  0  0  0  0  0  0999 V2000
  187.8620  178.3690  142.0090 C   0  0  0  0  0  1  0  0  0  0  0  0
  187.0840  177.4720  142.8400 N   0  0  0  0  0  2  0  0  0  0  0  0
  186.1570  178.0030  143.8160 C   0  0  0  0  0  0  0  0  0  0  0  0
  184.9790  178.4710  143.4480 N   0  0  0  0  0  4  0  0  0  0  0  0
  184.1260  178.9470  144.3270 C   0  0  0  0  0  0  0  0  0  0  0  0
  182.8290  179.4820  143.9410 N   0  0  0  0  0  2  0  0  0  0  0  0
  184.4390  178.9790  145.6080 N   0  0  0  0  0  0  0  0  0  0  0  0
  185.5900  178.5290  146.0570 C   0  0  0  0  0  3  0  0  0  0  0  0
  186.5020  178.0160  145.1520 C   0  0  0  0  0  0  0  0  0  0  0  0
  181.9030  178.9720  142.9430 C   0  0  0  0  0  0  0  0  0  0  0  0
  181.2270  178.2500  141.0160 N   0  0  0  0  0  0  0  0  0  0  0  0
  182.2700  178.7180  141.6430 C   0  0  0  0  0  3  0  0  0  0  0  0
  180.1680  178.1590  141.8690 N   0  0  0  0  0  0  0  0  0  0  0  0
  180.5670  178.5850  143.0680 C   0  0  0  0  0  0  0  0  0  0  0  0
  179.6590  178.6400  144.2940 C   0  0  0  0  0  1  0  0  0  0  0  0
  181.1890  177.8690  139.6190 C   0  0  0  0  0  0  0  0  0  0  0  0
  181.7140  179.0180  138.7590 C   0  0  0  0  0  1  0  0  0  0  0  0
  179.7460  177.5630  139.2260 C   0  0  0  0  0  1  0  0  0  0  0  0
  182.6810  175.6950  139.2360 N   0  0  0  0  0  0  0  0  0  0  0  0
  182.0430  176.6220  139.3990 C   0  0  0  0  0  0  0  0  0  0  0  0
  187.8540  177.4870  145.5950 C   0  0  0  0  0  0  0  0  0  0  0  0
  188.7900  178.4590  145.4170 F   0  0  0  0  0  0  0  0  0  0  0  0
  187.7890  177.1590  146.9160 F   0  0  0  0  0  0  0  0  0  0  0  0
  188.1870  176.3840  144.8680 F   0  0  0  0  0  0  0  0  0  0  0  0
  1  2  1  0  0  0  0
  2  3  1  0  0  0  0
  3  9  1  0  0  0  0
  4  3  2  0  0  0  0
  4  5  2  0  0  0  0
  5  7  2  0  0  0  0
  6  5  1  0  0  0  0
  7  8  1  0  0  0  0
  9 21  1  0  0  0  0
  9  8  2  0  0  0  0
 10 14  1  0  0  0  0
 10  6  1  0  0  0  0
 11 12  1  0  0  0  0
 11 13  1  0  0  0  0
 12 10  2  0  0  0  0
 13 14  2  0  0  0  0
 14 15  1  0  0  0  0
 16 11  1  0  0  0  0
 17 16  1  0  0  0  0
 18 16  1  0  0  0  0
 19 20  3  0  0  0  0
 20 16  1  0  0  0  0
 21 23  1  0  0  0  0
 22 21  1  0  0  0  0
 24 21  1  0  0  0  0
M  END
>  <MODEL>
5

>  <REMARK>
 VINA RESULT:      -7.1      1.722      2.931
  Name = 8smc
  4 active torsions:
  status: ('A' for Active; 'I' for Inactive)
    1  A    between atoms: N_6  and  C_7
    2  A    between atoms: N_8  and  C_15
    3  A    between atoms: C_15  and  C_18
    4  A    between atoms: C_20  and  C_21
                            x       y       z     vdW  Elec       q    Type
                         _______ _______ _______ _____ _____    ______ ____

>  <TORSDO>
F 4

$$$$
8smc
 OpenBabel10242410233D

 24 25  0  0  0  0  0  0  0  0999 V2000
  189.5650  177.8780  145.4480 C   0  0  0  0  0  1  0  0  0  0  0  0
  188.5920  177.0840  144.7260 N   0  0  0  0  0  2  0  0  0  0  0  0
  187.9210  177.6310  143.5660 C   0  0  0  0  0  0  0  0  0  0  0  0
  188.5330  177.7020  142.4000 N   0  0  0  0  0  4  0  0  0  0  0  0
  187.9300  178.1880  141.3380 C   0  0  0  0  0  0  0  0  0  0  0  0
  188.5920  178.2910  140.0460 N   0  0  0  0  0  2  0  0  0  0  0  0
  186.6910  178.6330  141.4230 N   0  0  0  0  0  0  0  0  0  0  0  0
  186.0100  178.5940  142.5470 C   0  0  0  0  0  3  0  0  0  0  0  0
  186.6210  178.0790  143.6760 C   0  0  0  0  0  0  0  0  0  0  0  0
  189.4850  177.3350  139.4120 C   0  0  0  0  0  0  0  0  0  0  0  0
  190.1600  175.8750  137.9620 N   0  0  0  0  0  0  0  0  0  0  0  0
  189.1410  176.6180  138.2920 C   0  0  0  0  0  3  0  0  0  0  0  0
  191.1950  176.0900  138.8220 N   0  0  0  0  0  0  0  0  0  0  0  0
  190.8060  176.9990  139.7160 C   0  0  0  0  0  0  0  0  0  0  0  0
  191.6910  177.5030  140.8530 C   0  0  0  0  0  1  0  0  0  0  0  0
  190.2020  174.9560  136.8420 C   0  0  0  0  0  0  0  0  0  0  0  0
  191.4480  174.0780  136.9460 C   0  0  0  0  0  1  0  0  0  0  0  0
  190.2540  175.7570  135.5440 C   0  0  0  0  0  1  0  0  0  0  0  0
  188.0130  173.4370  136.8430 N   0  0  0  0  0  0  0  0  0  0  0  0
  188.9480  174.0840  136.8420 C   0  0  0  0  0  0  0  0  0  0  0  0
  185.9010  178.0100  145.0110 C   0  0  0  0  0  0  0  0  0  0  0  0
  186.4130  178.9610  145.8400 F   0  0  0  0  0  0  0  0  0  0  0  0
  184.5750  178.2530  144.8110 F   0  0  0  0  0  0  0  0  0  0  0  0
  186.0600  176.7770  145.5660 F   0  0  0  0  0  0  0  0  0  0  0  0
  2  1  1  0  0  0  0
  3  9  1  0  0  0  0
  3  2  1  0  0  0  0
  4  3  2  0  0  0  0
  5  7  2  0  0  0  0
  5  4  2  0  0  0  0
  6  5  1  0  0  0  0
  7  8  1  0  0  0  0
  8  9  2  0  0  0  0
  9 21  1  0  0  0  0
 10 14  1  0  0  0  0
 10  6  1  0  0  0  0
 11 12  1  0  0  0  0
 11 13  1  0  0  0  0
 12 10  2  0  0  0  0
 13 14  2  0  0  0  0
 14 15  1  0  0  0  0
 16 17  1  0  0  0  0
 16 11  1  0  0  0  0
 18 16  1  0  0  0  0
 20 16  1  0  0  0  0
 20 19  3  0  0  0  0
 21 24  1  0  0  0  0
 21 22  1  0  0  0  0
 23 21  1  0  0  0  0
M  END
>  <MODEL>
6

>  <REMARK>
 VINA RESULT:      -7.1      4.953      6.850
  Name = 8smc
  4 active torsions:
  status: ('A' for Active; 'I' for Inactive)
    1  A    between atoms: N_6  and  C_7
    2  A    between atoms: N_8  and  C_15
    3  A    between atoms: C_15  and  C_18
    4  A    between atoms: C_20  and  C_21
                            x       y       z     vdW  Elec       q    Type
                         _______ _______ _______ _____ _____    ______ ____

>  <TORSDO>
F 4

$$$$
8smc
 OpenBabel10242410233D

 24 25  0  0  0  0  0  0  0  0999 V2000
  191.6650  178.6690  143.9010 C   0  0  0  0  0  1  0  0  0  0  0  0
  190.8080  177.5430  143.5880 N   0  0  0  0  0  2  0  0  0  0  0  0
  189.5140  177.7610  142.9790 C   0  0  0  0  0  0  0  0  0  0  0  0
  189.4070  178.0300  141.6920 N   0  0  0  0  0  4  0  0  0  0  0  0
  188.2360  178.2190  141.1260 C   0  0  0  0  0  0  0  0  0  0  0  0
  188.0960  178.5330  139.7120 N   0  0  0  0  0  2  0  0  0  0  0  0
  187.1320  178.1570  141.8460 N   0  0  0  0  0  0  0  0  0  0  0  0
  187.1510  177.8910  143.1330 C   0  0  0  0  0  3  0  0  0  0  0  0
  188.3720  177.6800  143.7500 C   0  0  0  0  0  0  0  0  0  0  0  0
  188.8310  177.9750  138.5880 C   0  0  0  0  0  0  0  0  0  0  0  0
  190.3430  176.8210  137.5540 N   0  0  0  0  0  0  0  0  0  0  0  0
  189.9350  177.1720  138.7410 C   0  0  0  0  0  3  0  0  0  0  0  0
  189.5250  177.3500  136.6010 N   0  0  0  0  0  0  0  0  0  0  0  0
  188.5760  178.0540  137.2180 C   0  0  0  0  0  0  0  0  0  0  0  0
  187.4680  178.8070  136.4850 C   0  0  0  0  0  1  0  0  0  0  0  0
  191.4920  175.9830  137.2750 C   0  0  0  0  0  0  0  0  0  0  0  0
  191.8320  176.0570  135.7860 C   0  0  0  0  0  1  0  0  0  0  0  0
  191.1580  174.5400  137.6450 C   0  0  0  0  0  1  0  0  0  0  0  0
  193.5750  176.7980  138.7220 N   0  0  0  0  0  0  0  0  0  0  0  0
  192.6860  176.4490  138.1060 C   0  0  0  0  0  0  0  0  0  0  0  0
  188.4740  177.3760  145.2340 C   0  0  0  0  0  0  0  0  0  0  0  0
  189.3190  176.3230  145.4130 F   0  0  0  0  0  0  0  0  0  0  0  0
  188.9730  178.4690  145.8750 F   0  0  0  0  0  0  0  0  0  0  0  0
  187.2450  177.0740  145.7370 F   0  0  0  0  0  0  0  0  0  0  0  0
  2  1  1  0  0  0  0
  3  2  1  0  0  0  0
  3  9  1  0  0  0  0
  4  3  2  0  0  0  0
  5  4  2  0  0  0  0
  5  7  2  0  0  0  0
  6  5  1  0  0  0  0
  7  8  1  0  0  0  0
  8  9  2  0  0  0  0
  9 21  1  0  0  0  0
 10 12  2  0  0  0  0
 10  6  1  0  0  0  0
 11 12  1  0  0  0  0
 13 14  2  0  0  0  0
 13 11  1  0  0  0  0
 14 10  1  0  0  0  0
 15 14  1  0  0  0  0
 16 11  1  0  0  0  0
 16 18  1  0  0  0  0
 16 20  1  0  0  0  0
 17 16  1  0  0  0  0
 20 19  3  0  0  0  0
 21 22  1  0  0  0  0
 21 24  1  0  0  0  0
 21 23  1  0  0  0  0
M  END
>  <MODEL>
7

>  <REMARK>
 VINA RESULT:      -7.0      4.970      7.312
  Name = 8smc
  4 active torsions:
  status: ('A' for Active; 'I' for Inactive)
    1  A    between atoms: N_6  and  C_7
    2  A    between atoms: N_8  and  C_15
    3  A    between atoms: C_15  and  C_18
    4  A    between atoms: C_20  and  C_21
                            x       y       z     vdW  Elec       q    Type
                         _______ _______ _______ _____ _____    ______ ____

>  <TORSDO>
F 4

$$$$
8smc
 OpenBabel10242410233D

 24 25  0  0  0  0  0  0  0  0999 V2000
  191.3090  176.3110  144.0480 C   0  0  0  0  0  1  0  0  0  0  0  0
  190.2520  175.7900  143.2040 N   0  0  0  0  0  2  0  0  0  0  0  0
  189.8390  176.5150  142.0220 C   0  0  0  0  0  0  0  0  0  0  0  0
  190.5590  176.4760  140.9170 N   0  0  0  0  0  4  0  0  0  0  0  0
  190.1890  177.1230  139.8350 C   0  0  0  0  0  0  0  0  0  0  0  0
  190.9760  177.1070  138.6110 N   0  0  0  0  0  2  0  0  0  0  0  0
  189.0840  177.8430  139.8360 N   0  0  0  0  0  0  0  0  0  0  0  0
  188.3090  177.9310  140.8940 C   0  0  0  0  0  3  0  0  0  0  0  0
  188.6730  177.2530  142.0430 C   0  0  0  0  0  0  0  0  0  0  0  0
  191.6810  175.9880  138.0060 C   0  0  0  0  0  0  0  0  0  0  0  0
  193.3640  174.7690  137.3980 N   0  0  0  0  0  0  0  0  0  0  0  0
  193.0510  175.8910  137.9830 C   0  0  0  0  0  3  0  0  0  0  0  0
  192.2350  174.0930  137.0440 N   0  0  0  0  0  0  0  0  0  0  0  0
  191.1840  174.8210  137.4240 C   0  0  0  0  0  0  0  0  0  0  0  0
  189.7340  174.3980  137.1970 C   0  0  0  0  0  1  0  0  0  0  0  0
  194.7120  174.2940  137.1590 C   0  0  0  0  0  0  0  0  0  0  0  0
  195.4340  175.2530  136.2130 C   0  0  0  0  0  1  0  0  0  0  0  0
  194.6450  172.9090  136.5210 C   0  0  0  0  0  1  0  0  0  0  0  0
  196.0290  174.1280  139.4690 N   0  0  0  0  0  0  0  0  0  0  0  0
  195.4690  174.1990  138.4820 C   0  0  0  0  0  0  0  0  0  0  0  0
  187.8330  177.3130  143.3060 C   0  0  0  0  0  0  0  0  0  0  0  0
  186.6690  177.9630  143.0330 F   0  0  0  0  0  0  0  0  0  0  0  0
  187.5560  176.0430  143.7140 F   0  0  0  0  0  0  0  0  0  0  0  0
  188.5100  177.9690  144.2900 F   0  0  0  0  0  0  0  0  0  0  0  0
  2  1  1  0  0  0  0
  3  9  1  0  0  0  0
  3  2  1  0  0  0  0
  4  3  2  0  0  0  0
  5  7  2  0  0  0  0
  5  4  2  0  0  0  0
  6  5  1  0  0  0  0
  7  8  1  0  0  0  0
  8  9  2  0  0  0  0
  9 21  1  0  0  0  0
 10  6  1  0  0  0  0
 11 12  1  0  0  0  0
 12 10  2  0  0  0  0
 13 11  1  0  0  0  0
 13 14  2  0  0  0  0
 14 10  1  0  0  0  0
 15 14  1  0  0  0  0
 16 11  1  0  0  0  0
 16 20  1  0  0  0  0
 17 16  1  0  0  0  0
 18 16  1  0  0  0  0
 20 19  3  0  0  0  0
 21 23  1  0  0  0  0
 21 24  1  0  0  0  0
 22 21  1  0  0  0  0
M  END
>  <MODEL>
8

>  <REMARK>
 VINA RESULT:      -7.0      6.793      9.741
  Name = 8smc
  4 active torsions:
  status: ('A' for Active; 'I' for Inactive)
    1  A    between atoms: N_6  and  C_7
    2  A    between atoms: N_8  and  C_15
    3  A    between atoms: C_15  and  C_18
    4  A    between atoms: C_20  and  C_21
                            x       y       z     vdW  Elec       q    Type
                         _______ _______ _______ _____ _____    ______ ____

>  <TORSDO>
F 4

$$$$
8smc
 OpenBabel10242410233D

 24 25  0  0  0  0  0  0  0  0999 V2000
  190.7640  176.6720  143.3660 C   0  0  0  0  0  1  0  0  0  0  0  0
  189.5250  176.2370  142.7540 N   0  0  0  0  0  2  0  0  0  0  0  0
  188.7330  177.1640  141.9740 C   0  0  0  0  0  0  0  0  0  0  0  0
  189.0780  177.4770  140.7400 N   0  0  0  0  0  4  0  0  0  0  0  0
  188.3630  178.3100  140.0180 C   0  0  0  0  0  0  0  0  0  0  0  0
  188.7330  178.6820  138.6610 N   0  0  0  0  0  2  0  0  0  0  0  0
  187.2790  178.8660  140.5250 N   0  0  0  0  0  0  0  0  0  0  0  0
  186.8650  178.6050  141.7450 C   0  0  0  0  0  3  0  0  0  0  0  0
  187.5980  177.7250  142.5210 C   0  0  0  0  0  0  0  0  0  0  0  0
  189.2690  177.8330  137.6080 C   0  0  0  0  0  0  0  0  0  0  0  0
  190.6160  176.4370  136.6470 N   0  0  0  0  0  0  0  0  0  0  0  0
  190.4250  177.1050  137.7500 C   0  0  0  0  0  3  0  0  0  0  0  0
  189.6010  176.6790  135.7700 N   0  0  0  0  0  0  0  0  0  0  0  0
  188.7510  177.5270  136.3480 C   0  0  0  0  0  0  0  0  0  0  0  0
  187.4810  178.0450  135.6760 C   0  0  0  0  0  1  0  0  0  0  0  0
  191.7350  175.5550  136.3820 C   0  0  0  0  0  0  0  0  0  0  0  0
  191.8270  175.2790  134.8820 C   0  0  0  0  0  1  0  0  0  0  0  0
  191.5180  174.2400  137.1260 C   0  0  0  0  0  1  0  0  0  0  0  0
  193.9910  176.6830  137.2380 N   0  0  0  0  0  0  0  0  0  0  0  0
  193.0290  176.2000  136.8740 C   0  0  0  0  0  0  0  0  0  0  0  0
  187.1870  177.3810  143.9410 C   0  0  0  0  0  0  0  0  0  0  0  0
  185.9300  177.8540  144.1650 F   0  0  0  0  0  0  0  0  0  0  0  0
  187.1910  176.0260  144.0860 F   0  0  0  0  0  0  0  0  0  0  0  0
  188.0560  177.9370  144.8300 F   0  0  0  0  0  0  0  0  0  0  0  0
  2  1  1  0  0  0  0
  3  9  1  0  0  0  0
  3  2  1  0  0  0  0
  4  3  2  0  0  0  0
  5  7  2  0  0  0  0
  5  4  2  0  0  0  0
  6  5  1  0  0  0  0
  7  8  1  0  0  0  0
  8  9  2  0  0  0  0
  9 21  1  0  0  0  0
 10 12  2  0  0  0  0
 10  6  1  0  0  0  0
 11 12  1  0  0  0  0
 13 14  2  0  0  0  0
 13 11  1  0  0  0  0
 14 10  1  0  0  0  0
 15 14  1  0  0  0  0
 16 11  1  0  0  0  0
 16 20  1  0  0  0  0
 16 18  1  0  0  0  0
 17 16  1  0  0  0  0
 20 19  3  0  0  0  0
 21 23  1  0  0  0  0
 21 22  1  0  0  0  0
 21 24  1  0  0  0  0
M  END
>  <MODEL>
9

>  <REMARK>
 VINA RESULT:      -7.0      5.767      8.059
  Name = 8smc
  4 active torsions:
  status: ('A' for Active; 'I' for Inactive)
    1  A    between atoms: N_6  and  C_7
    2  A    between atoms: N_8  and  C_15
    3  A    between atoms: C_15  and  C_18
    4  A    between atoms: C_20  and  C_21
                            x       y       z     vdW  Elec       q    Type
                         _______ _______ _______ _____ _____    ______ ____

>  <TORSDO>
F 4

$$$$
