8fo7
 OpenBabel10242410243D

 42 47  0  0  1  0  0  0  0  0999 V2000
  183.4390  178.6410  140.6220 C   0  0  0  0  0  3  0  0  0  0  0  0
  184.1050  178.8790  141.8300 C   0  0  0  0  0  3  0  0  0  0  0  0
  181.3330  178.5760  141.7730 C   0  0  0  0  0  3  0  0  0  0  0  0
  182.0300  178.4840  140.5750 C   0  0  0  0  0  0  0  0  0  0  0  0
  183.3790  178.9720  143.0250 C   0  0  0  0  0  0  0  0  0  0  0  0
  181.9930  178.8170  142.9820 C   0  0  0  0  0  0  0  0  0  0  0  0
  187.9080  177.2060  148.6630 C   0  0  0  0  0  1  0  0  0  0  0  0
  187.5180  176.1840  143.2630 C   0  0  0  0  0  1  0  0  0  0  0  0
  191.8430  178.6240  144.1450 C   0  0  0  0  0  3  0  0  0  0  0  0
  191.0990  178.3800  142.9940 C   0  0  0  0  0  3  0  0  0  0  0  0
  191.3110  178.3170  145.3960 C   0  0  0  0  0  3  0  0  0  0  0  0
  189.8180  177.8300  143.0720 C   0  0  0  0  0  3  0  0  0  0  0  0
  183.8720  179.1940  144.2830 N   0  0  0  0  0  2  0  0  0  0  0  0
  190.4010  177.1090  147.6740 O   0  0  0  0  0  0  0  0  0  0  0  0
  189.5330  177.4670  146.8410 C   0  0  0  0  0  0  0  0  0  0  0  0
  190.0210  177.7650  145.4970 C   0  0  0  0  0  0  0  0  0  0  0  0
  189.2540  177.5060  144.3320 C   0  0  0  0  0  0  0  0  0  0  0  0
  188.1970  177.5360  147.2920 N   0  0  0  0  0  0  0  0  0  0  0  0
  187.9830  176.9640  144.3820 N   0  0  0  0  0  0  0  0  0  0  0  0
  185.0050  179.0430  146.2570 N   0  0  0  0  0  0  0  0  0  0  0  0
  184.9540  178.7620  144.9460 C   0  0  0  0  0  0  0  0  0  0  0  0
  185.9360  178.0760  144.3370 N   0  0  0  0  0  0  0  0  0  0  0  0
  187.0060  177.6540  145.0430 C   0  0  2  0  0  3  0  0  0  0  0  0
  187.1160  177.9360  146.4360 C   0  0  0  0  0  0  0  0  0  0  0  0
  186.0260  178.6580  146.9920 C   0  0  0  0  0  3  0  0  0  0  0  0
  180.6910  175.6160  136.6660 C   0  0  0  0  0  2  0  0  0  0  0  0
  182.9260  175.3630  138.0310 C   0  0  0  0  0  2  0  0  0  0  0  0
  180.4970  176.9310  137.4470 C   0  0  0  0  0  2  0  0  0  0  0  0
  182.0160  175.9070  139.1340 C   0  0  0  0  0  2  0  0  0  0  0  0
  180.6450  179.2090  138.9110 O   0  0  0  0  0  0  0  0  0  0  0  0
  181.3140  178.2350  139.3610 C   0  0  0  0  0  0  0  0  0  0  0  0
  182.1180  175.0030  136.7590 C   0  0  1  0  0  3  0  0  0  0  0  0
  181.2750  177.0610  138.6590 N   0  0  0  0  0  0  0  0  0  0  0  0
  183.5600  170.6920  134.7910 C   0  0  0  0  0  1  0  0  0  0  0  0
  181.3010  171.4020  135.5560 C   0  0  0  0  0  2  0  0  0  0  0  0
  183.2040  171.3490  137.1340 C   0  0  0  0  0  2  0  0  0  0  0  0
  181.5330  172.9160  135.3530 C   0  0  0  0  0  2  0  0  0  0  0  0
  183.4360  172.8530  136.9040 C   0  0  0  0  0  2  0  0  0  0  0  0
  182.5950  170.7470  135.9150 N   0  0  0  0  0  0  0  0  0  0  0  0
  182.1480  173.5180  136.5840 N   0  0  0  0  0  0  0  0  0  0  0  0
  179.9540  178.6530  144.2580 C   0  0  0  0  0  1  0  0  0  0  0  0
  181.3650  178.9150  144.1920 O   0  0  0  0  0  0  0  0  0  0  0  0
  1  2  1  0  0  0  0
  2  5  2  0  0  0  0
  3  6  2  0  0  0  0
  4  1  2  0  0  0  0
  4  3  1  0  0  0  0
  5 13  1  0  0  0  0
  6  5  1  0  0  0  0
  6 42  1  0  0  0  0
  8 19  1  0  0  0  0
  9 11  1  0  0  0  0
 10 12  1  0  0  0  0
 10  9  2  0  0  0  0
 11 16  2  0  0  0  0
 12 17  2  0  0  0  0
 13 21  1  0  0  0  0
 15 18  1  0  0  0  0
 15 14  2  0  0  0  0
 16 15  1  0  0  0  0
 17 19  1  0  0  0  0
 17 16  1  0  0  0  0
 18  7  1  0  0  0  0
 19 23  1  0  0  0  0
 20 25  1  0  0  0  0
 21 20  2  0  0  0  0
 22 21  2  0  0  0  0
 23 22  1  6  0  0  0
 23 24  1  0  0  0  0
 24 25  2  0  0  0  0
 24 18  1  0  0  0  0
 26 32  1  0  0  0  0
 26 28  1  0  0  0  0
 27 29  1  0  0  0  0
 28 33  1  0  0  0  0
 30 31  2  0  0  0  0
 31  4  1  0  0  0  0
 32 40  1  1  0  0  0
 32 27  1  0  0  0  0
 33 29  1  0  0  0  0
 33 31  1  0  0  0  0
 34 39  1  0  0  0  0
 35 39  1  0  0  0  0
 37 35  1  0  0  0  0
 37 40  1  0  0  0  0
 38 36  1  0  0  0  0
 39 36  1  0  0  0  0
 40 38  1  0  0  0  0
 42 41  1  0  0  0  0
M  END
>  <MODEL>
1

>  <REMARK>
 VINA RESULT:      -9.9      0.000      0.000
  Name = 8fo7
  4 active torsions:
  status: ('A' for Active; 'I' for Inactive)
    1  A    between atoms: N_20  and  C_26
    2  A    between atoms: O_23  and  C_27
    3  A    between atoms: C_24  and  C_25
    4  A    between atoms: C_31  and  N_34
                            x       y       z     vdW  Elec       q    Type
                         _______ _______ _______ _____ _____    ______ ____

>  <TORSDO>
F 4

$$$$
8fo7
 OpenBabel10242410243D

 42 47  0  0  1  0  0  0  0  0999 V2000
  189.8160  177.0460  138.6690 C   0  0  0  0  0  3  0  0  0  0  0  0
  189.0810  177.7750  139.6110 C   0  0  0  0  0  3  0  0  0  0  0  0
  188.0010  177.2000  137.1050 C   0  0  0  0  0  3  0  0  0  0  0  0
  189.2810  176.7440  137.3910 C   0  0  0  0  0  0  0  0  0  0  0  0
  187.7910  178.2290  139.2980 C   0  0  0  0  0  0  0  0  0  0  0  0
  187.2640  177.9320  138.0410 C   0  0  0  0  0  0  0  0  0  0  0  0
  183.5550  178.8710  145.3850 C   0  0  0  0  0  1  0  0  0  0  0  0
  187.6830  175.6890  143.5990 C   0  0  0  0  0  1  0  0  0  0  0  0
  189.2060  178.1580  147.7240 C   0  0  0  0  0  3  0  0  0  0  0  0
  189.8780  177.4740  146.7160 C   0  0  0  0  0  3  0  0  0  0  0  0
  187.8420  178.4180  147.6000 C   0  0  0  0  0  3  0  0  0  0  0  0
  189.2040  177.0410  145.5720 C   0  0  0  0  0  3  0  0  0  0  0  0
  186.9440  178.9450  140.1000 N   0  0  0  0  0  2  0  0  0  0  0  0
  185.1130  178.3020  147.4960 O   0  0  0  0  0  0  0  0  0  0  0  0
  185.7180  178.3000  146.3970 C   0  0  0  0  0  0  0  0  0  0  0  0
  187.1450  177.9940  146.4540 C   0  0  0  0  0  0  0  0  0  0  0  0
  187.8160  177.2900  145.4220 C   0  0  0  0  0  0  0  0  0  0  0  0
  184.9590  178.5870  145.2420 N   0  0  0  0  0  0  0  0  0  0  0  0
  187.1740  176.8530  144.2780 N   0  0  0  0  0  0  0  0  0  0  0  0
  185.5160  179.6050  141.7510 N   0  0  0  0  0  0  0  0  0  0  0  0
  186.5170  178.8020  141.3620 C   0  0  0  0  0  0  0  0  0  0  0  0
  187.0560  177.8980  142.1980 N   0  0  0  0  0  0  0  0  0  0  0  0
  186.5940  177.7830  143.4610 C   0  0  2  0  0  3  0  0  0  0  0  0
  185.5380  178.6200  143.9280 C   0  0  0  0  0  0  0  0  0  0  0  0
  185.0280  179.5370  142.9710 C   0  0  0  0  0  3  0  0  0  0  0  0
  193.4180  174.5380  135.5680 C   0  0  0  0  0  2  0  0  0  0  0  0
  193.4000  176.5390  137.2760 C   0  0  0  0  0  2  0  0  0  0  0  0
  191.9060  174.7990  135.4210 C   0  0  0  0  0  2  0  0  0  0  0  0
  192.0860  175.8610  137.6670 C   0  0  0  0  0  2  0  0  0  0  0  0
  189.3510  175.7050  135.3590 O   0  0  0  0  0  0  0  0  0  0  0  0
  190.0000  175.9970  136.4040 C   0  0  0  0  0  0  0  0  0  0  0  0
  194.2110  175.6680  136.2850 C   0  0  1  0  0  3  0  0  0  0  0  0
  191.2950  175.5640  136.4870 N   0  0  0  0  0  0  0  0  0  0  0  0
  197.8160  172.4760  137.4510 C   0  0  0  0  0  1  0  0  0  0  0  0
  196.6130  174.0990  138.9040 C   0  0  0  0  0  2  0  0  0  0  0  0
  197.9020  174.8810  136.9430 C   0  0  0  0  0  2  0  0  0  0  0  0
  195.3240  174.1480  138.0540 C   0  0  0  0  0  2  0  0  0  0  0  0
  196.6120  174.9030  136.1040 C   0  0  0  0  0  2  0  0  0  0  0  0
  197.7850  173.8490  138.0110 N   0  0  0  0  0  0  0  0  0  0  0  0
  195.4470  175.1900  136.9780 N   0  0  0  0  0  0  0  0  0  0  0  0
  184.9720  177.4700  137.4510 C   0  0  0  0  0  1  0  0  0  0  0  0
  186.0000  178.4040  137.8220 O   0  0  0  0  0  0  0  0  0  0  0  0
  1  2  1  0  0  0  0
  3  4  1  0  0  0  0
  3  6  2  0  0  0  0
  4  1  2  0  0  0  0
  5  2  2  0  0  0  0
  5 13  1  0  0  0  0
  6  5  1  0  0  0  0
  8 19  1  0  0  0  0
 10  9  2  0  0  0  0
 11  9  1  0  0  0  0
 12 10  1  0  0  0  0
 13 21  1  0  0  0  0
 15 16  1  0  0  0  0
 15 14  2  0  0  0  0
 16 11  2  0  0  0  0
 17 12  2  0  0  0  0
 17 16  1  0  0  0  0
 18  7  1  0  0  0  0
 18 15  1  0  0  0  0
 19 17  1  0  0  0  0
 20 25  1  0  0  0  0
 21 20  2  0  0  0  0
 21 22  2  0  0  0  0
 23 22  1  1  0  0  0
 23 24  1  0  0  0  0
 23 19  1  0  0  0  0
 24 18  1  0  0  0  0
 25 24  2  0  0  0  0
 27 29  1  0  0  0  0
 28 26  1  0  0  0  0
 28 33  1  0  0  0  0
 30 31  2  0  0  0  0
 31 33  1  0  0  0  0
 31  4  1  0  0  0  0
 32 26  1  1  0  0  0
 32 40  1  0  0  0  0
 32 27  1  0  0  0  0
 33 29  1  0  0  0  0
 34 39  1  0  0  0  0
 36 39  1  0  0  0  0
 37 35  1  0  0  0  0
 38 36  1  0  0  0  0
 38 40  1  0  0  0  0
 39 35  1  0  0  0  0
 40 37  1  0  0  0  0
 41 42  1  0  0  0  0
 42  6  1  0  0  0  0
M  END
>  <MODEL>
2

>  <REMARK>
 VINA RESULT:      -9.6      5.876      8.673
  Name = 8fo7
  4 active torsions:
  status: ('A' for Active; 'I' for Inactive)
    1  A    between atoms: N_20  and  C_26
    2  A    between atoms: O_23  and  C_27
    3  A    between atoms: C_24  and  C_25
    4  A    between atoms: C_31  and  N_34
                            x       y       z     vdW  Elec       q    Type
                         _______ _______ _______ _____ _____    ______ ____

>  <TORSDO>
F 4

$$$$
8fo7
 OpenBabel10242410243D

 42 47  0  0  1  0  0  0  0  0999 V2000
  189.3840  178.4780  138.6370 C   0  0  0  0  0  3  0  0  0  0  0  0
  188.4150  178.4570  137.6270 C   0  0  0  0  0  3  0  0  0  0  0  0
  189.7110  176.1110  138.4000 C   0  0  0  0  0  3  0  0  0  0  0  0
  190.0520  177.2950  139.0430 C   0  0  0  0  0  0  0  0  0  0  0  0
  188.0910  177.2510  136.9900 C   0  0  0  0  0  0  0  0  0  0  0  0
  188.7470  176.0850  137.3880 C   0  0  0  0  0  0  0  0  0  0  0  0
  181.1320  175.9180  134.7060 C   0  0  0  0  0  1  0  0  0  0  0  0
  183.6640  177.7010  139.2620 C   0  0  0  0  0  1  0  0  0  0  0  0
  180.6120  181.3430  137.5700 C   0  0  0  0  0  3  0  0  0  0  0  0
  181.6750  181.3250  138.4690 C   0  0  0  0  0  3  0  0  0  0  0  0
  180.3370  180.2170  136.7960 C   0  0  0  0  0  3  0  0  0  0  0  0
  182.4780  180.1910  138.6070 C   0  0  0  0  0  3  0  0  0  0  0  0
  187.1710  177.0570  135.9950 N   0  0  0  0  0  2  0  0  0  0  0  0
  179.5610  177.7800  135.8310 O   0  0  0  0  0  0  0  0  0  0  0  0
  180.7830  177.9250  136.0760 C   0  0  0  0  0  0  0  0  0  0  0  0
  181.1350  179.0650  136.9180 C   0  0  0  0  0  0  0  0  0  0  0  0
  182.2170  179.0320  137.8330 C   0  0  0  0  0  0  0  0  0  0  0  0
  181.6690  176.9770  135.5190 N   0  0  0  0  0  0  0  0  0  0  0  0
  183.0290  177.9230  137.9880 N   0  0  0  0  0  0  0  0  0  0  0  0
  185.2640  176.6330  134.8180 N   0  0  0  0  0  0  0  0  0  0  0  0
  185.8320  177.0700  135.9520 C   0  0  0  0  0  0  0  0  0  0  0  0
  185.0900  177.4900  136.9910 N   0  0  0  0  0  0  0  0  0  0  0  0
  183.7430  177.4820  136.9090 C   0  0  2  0  0  3  0  0  0  0  0  0
  183.0890  177.0390  135.7220 C   0  0  0  0  0  0  0  0  0  0  0  0
  183.9550  176.6060  134.6840 C   0  0  0  0  0  3  0  0  0  0  0  0
  191.5200  177.1460  143.8510 C   0  0  0  0  0  2  0  0  0  0  0  0
  189.1950  178.0440  143.0080 C   0  0  0  0  0  2  0  0  0  0  0  0
  191.9210  177.1200  142.3630 C   0  0  0  0  0  2  0  0  0  0  0  0
  189.4720  177.0010  141.9240 C   0  0  0  0  0  2  0  0  0  0  0  0
  192.2410  177.3840  139.6840 O   0  0  0  0  0  0  0  0  0  0  0  0
  191.0440  177.2750  140.0750 C   0  0  0  0  0  0  0  0  0  0  0  0
  190.2190  177.9410  144.1650 C   0  0  1  0  0  3  0  0  0  0  0  0
  190.8250  177.1400  141.4180 N   0  0  0  0  0  0  0  0  0  0  0  0
  188.3120  178.2660  148.7260 C   0  0  0  0  0  1  0  0  0  0  0  0
  189.4650  176.3520  147.6290 C   0  0  0  0  0  2  0  0  0  0  0  0
  187.3900  177.2910  146.6640 C   0  0  0  0  0  2  0  0  0  0  0  0
  190.2900  177.2090  146.6430 C   0  0  0  0  0  2  0  0  0  0  0  0
  188.2270  178.1540  145.7040 C   0  0  0  0  0  2  0  0  0  0  0  0
  188.1660  177.0360  147.9100 N   0  0  0  0  0  0  0  0  0  0  0  0
  189.5030  177.4640  145.3890 N   0  0  0  0  0  0  0  0  0  0  0  0
  189.2380  173.8140  136.7470 C   0  0  0  0  0  1  0  0  0  0  0  0
  188.3650  174.9550  136.7210 O   0  0  0  0  0  0  0  0  0  0  0  0
  1  4  1  0  0  0  0
  2  1  2  0  0  0  0
  3  4  2  0  0  0  0
  4 31  1  0  0  0  0
  5  6  2  0  0  0  0
  5  2  1  0  0  0  0
  6  3  1  0  0  0  0
  7 18  1  0  0  0  0
  9 10  1  0  0  0  0
 10 12  2  0  0  0  0
 11 16  1  0  0  0  0
 11  9  2  0  0  0  0
 13  5  1  0  0  0  0
 14 15  2  0  0  0  0
 15 16  1  0  0  0  0
 16 17  2  0  0  0  0
 17 19  1  0  0  0  0
 17 12  1  0  0  0  0
 18 24  1  0  0  0  0
 18 15  1  0  0  0  0
 19  8  1  0  0  0  0
 20 21  2  0  0  0  0
 21 13  1  0  0  0  0
 21 22  2  0  0  0  0
 23 24  1  6  0  0  0
 23 22  1  0  0  0  0
 23 19  1  0  0  0  0
 25 20  1  0  0  0  0
 25 24  2  0  0  0  0
 26 32  1  0  0  0  0
 28 26  1  0  0  0  0
 29 27  1  0  0  0  0
 30 31  2  0  0  0  0
 31 33  1  0  0  0  0
 32 27  1  6  0  0  0
 32 40  1  0  0  0  0
 33 29  1  0  0  0  0
 33 28  1  0  0  0  0
 35 39  1  0  0  0  0
 36 39  1  0  0  0  0
 37 35  1  0  0  0  0
 38 36  1  0  0  0  0
 39 34  1  0  0  0  0
 40 38  1  0  0  0  0
 40 37  1  0  0  0  0
 42 41  1  0  0  0  0
 42  6  1  0  0  0  0
M  END
>  <MODEL>
3

>  <REMARK>
 VINA RESULT:      -8.9      3.759     11.422
  Name = 8fo7
  4 active torsions:
  status: ('A' for Active; 'I' for Inactive)
    1  A    between atoms: N_20  and  C_26
    2  A    between atoms: O_23  and  C_27
    3  A    between atoms: C_24  and  C_25
    4  A    between atoms: C_31  and  N_34
                            x       y       z     vdW  Elec       q    Type
                         _______ _______ _______ _____ _____    ______ ____

>  <TORSDO>
F 4

$$$$
8fo7
 OpenBabel10242410243D

 42 47  0  0  1  0  0  0  0  0999 V2000
  181.2060  178.3340  142.5330 C   0  0  0  0  0  3  0  0  0  0  0  0
  181.7860  178.6120  143.7760 C   0  0  0  0  0  3  0  0  0  0  0  0
  183.2560  178.9120  141.4260 C   0  0  0  0  0  3  0  0  0  0  0  0
  181.9390  178.4820  141.3280 C   0  0  0  0  0  0  0  0  0  0  0  0
  183.1190  179.0410  143.8500 C   0  0  0  0  0  0  0  0  0  0  0  0
  183.8410  179.1880  142.6660 C   0  0  0  0  0  0  0  0  0  0  0  0
  188.4330  177.5460  148.8440 C   0  0  0  0  0  1  0  0  0  0  0  0
  187.0770  175.9940  143.7340 C   0  0  0  0  0  1  0  0  0  0  0  0
  191.6170  178.1860  143.6140 C   0  0  0  0  0  3  0  0  0  0  0  0
  190.6760  177.8780  142.6350 C   0  0  0  0  0  3  0  0  0  0  0  0
  191.2890  178.0520  144.9620 C   0  0  0  0  0  3  0  0  0  0  0  0
  189.3990  177.4360  142.9830 C   0  0  0  0  0  3  0  0  0  0  0  0
  183.8300  179.3570  144.9760 N   0  0  0  0  0  2  0  0  0  0  0  0
  190.7120  177.1610  147.4810 O   0  0  0  0  0  0  0  0  0  0  0  0
  189.7370  177.4930  146.7650 C   0  0  0  0  0  0  0  0  0  0  0  0
  190.0060  177.6110  145.3340 C   0  0  0  0  0  0  0  0  0  0  0  0
  189.0400  177.2880  144.3470 C   0  0  0  0  0  0  0  0  0  0  0  0
  188.5030  177.7070  147.4160 N   0  0  0  0  0  0  0  0  0  0  0  0
  187.7670  176.8500  144.6650 N   0  0  0  0  0  0  0  0  0  0  0  0
  185.2700  179.3300  146.7440 N   0  0  0  0  0  0  0  0  0  0  0  0
  184.9820  178.9180  145.5010 C   0  0  0  0  0  0  0  0  0  0  0  0
  185.8070  178.1010  144.8240 N   0  0  0  0  0  0  0  0  0  0  0  0
  186.9570  177.6770  145.3910 C   0  0  2  0  0  3  0  0  0  0  0  0
  187.3160  178.0950  146.7060 C   0  0  0  0  0  0  0  0  0  0  0  0
  186.3780  178.9490  147.3440 C   0  0  0  0  0  3  0  0  0  0  0  0
  179.8430  179.8660  136.9700 C   0  0  0  0  0  2  0  0  0  0  0  0
  179.7300  181.2460  139.2070 C   0  0  0  0  0  2  0  0  0  0  0  0
  180.4330  178.7330  137.8330 C   0  0  0  0  0  2  0  0  0  0  0  0
  181.0790  180.5520  139.4060 C   0  0  0  0  0  2  0  0  0  0  0  0
  181.2730  176.9900  139.7340 O   0  0  0  0  0  0  0  0  0  0  0  0
  181.3800  178.2130  140.0380 C   0  0  0  0  0  0  0  0  0  0  0  0
  179.1890  181.0270  137.7730 C   0  0  1  0  0  3  0  0  0  0  0  0
  180.9700  179.1350  139.1150 N   0  0  0  0  0  0  0  0  0  0  0  0
  181.1760  185.2020  135.9930 C   0  0  0  0  0  1  0  0  0  0  0  0
  178.9310  184.8250  136.9970 C   0  0  0  0  0  2  0  0  0  0  0  0
  179.6220  183.5960  134.9650 C   0  0  0  0  0  2  0  0  0  0  0  0
  179.3420  183.6060  137.8530 C   0  0  0  0  0  2  0  0  0  0  0  0
  180.0480  182.4000  135.8330 C   0  0  0  0  0  2  0  0  0  0  0  0
  179.7540  184.8550  135.7510 N   0  0  0  0  0  0  0  0  0  0  0  0
  179.2070  182.3400  137.0560 N   0  0  0  0  0  0  0  0  0  0  0  0
  186.0770  179.3590  141.7790 C   0  0  0  0  0  1  0  0  0  0  0  0
  185.1290  179.6170  142.8280 O   0  0  0  0  0  0  0  0  0  0  0  0
  1  2  1  0  0  0  0
  2  5  2  0  0  0  0
  3  6  2  0  0  0  0
  4  3  1  0  0  0  0
  4  1  2  0  0  0  0
  5 13  1  0  0  0  0
  6 42  1  0  0  0  0
  6  5  1  0  0  0  0
  8 19  1  0  0  0  0
  9 11  1  0  0  0  0
 10 12  1  0  0  0  0
 10  9  2  0  0  0  0
 11 16  2  0  0  0  0
 12 17  2  0  0  0  0
 13 21  1  0  0  0  0
 15 18  1  0  0  0  0
 15 14  2  0  0  0  0
 16 15  1  0  0  0  0
 17 19  1  0  0  0  0
 17 16  1  0  0  0  0
 18  7  1  0  0  0  0
 19 23  1  0  0  0  0
 20 25  1  0  0  0  0
 21 20  2  0  0  0  0
 22 21  2  0  0  0  0
 23 22  1  6  0  0  0
 23 24  1  0  0  0  0
 24 25  2  0  0  0  0
 24 18  1  0  0  0  0
 26 28  1  0  0  0  0
 27 29  1  0  0  0  0
 28 33  1  0  0  0  0
 30 31  2  0  0  0  0
 31  4  1  0  0  0  0
 32 26  1  6  0  0  0
 32 27  1  0  0  0  0
 33 29  1  0  0  0  0
 33 31  1  0  0  0  0
 35 37  1  0  0  0  0
 36 39  1  0  0  0  0
 36 38  1  0  0  0  0
 38 40  1  0  0  0  0
 39 34  1  0  0  0  0
 39 35  1  0  0  0  0
 40 32  1  0  0  0  0
 40 37  1  0  0  0  0
 41 42  1  0  0  0  0
M  END
>  <MODEL>
4

>  <REMARK>
 VINA RESULT:      -8.6      3.459      5.642
  Name = 8fo7
  4 active torsions:
  status: ('A' for Active; 'I' for Inactive)
    1  A    between atoms: N_20  and  C_26
    2  A    between atoms: O_23  and  C_27
    3  A    between atoms: C_24  and  C_25
    4  A    between atoms: C_31  and  N_34
                            x       y       z     vdW  Elec       q    Type
                         _______ _______ _______ _____ _____    ______ ____

>  <TORSDO>
F 4

$$$$
8fo7
 OpenBabel10242410243D

 42 47  0  0  1  0  0  0  0  0999 V2000
  183.9780  178.9020  142.7190 C   0  0  0  0  0  3  0  0  0  0  0  0
  183.1000  179.0440  141.6380 C   0  0  0  0  0  3  0  0  0  0  0  0
  182.1310  178.9610  144.2520 C   0  0  0  0  0  3  0  0  0  0  0  0
  183.5020  178.8590  144.0540 C   0  0  0  0  0  0  0  0  0  0  0  0
  181.7200  179.1420  141.8630 C   0  0  0  0  0  0  0  0  0  0  0  0
  181.2500  179.1000  143.1760 C   0  0  0  0  0  0  0  0  0  0  0  0
  178.9840  177.9940  135.0350 C   0  0  0  0  0  1  0  0  0  0  0  0
  182.8840  175.8540  138.2850 C   0  0  0  0  0  1  0  0  0  0  0  0
  179.4620  172.2860  137.2910 C   0  0  0  0  0  3  0  0  0  0  0  0
  180.4630  172.4110  138.2490 C   0  0  0  0  0  3  0  0  0  0  0  0
  179.1350  173.3710  136.4790 C   0  0  0  0  0  3  0  0  0  0  0  0
  181.1510  173.6150  138.4140 C   0  0  0  0  0  3  0  0  0  0  0  0
  180.7330  179.2890  140.9250 N   0  0  0  0  0  2  0  0  0  0  0  0
  179.0450  175.3480  134.5940 O   0  0  0  0  0  0  0  0  0  0  0  0
  179.4170  175.6840  135.7440 C   0  0  0  0  0  0  0  0  0  0  0  0
  179.8130  174.5940  136.6320 C   0  0  0  0  0  0  0  0  0  0  0  0
  180.8390  174.7330  137.6000 C   0  0  0  0  0  0  0  0  0  0  0  0
  179.4140  177.0640  136.0450 N   0  0  0  0  0  0  0  0  0  0  0  0
  181.5340  175.9150  137.7860 N   0  0  0  0  0  0  0  0  0  0  0  0
  179.5030  179.2460  139.0050 N   0  0  0  0  0  0  0  0  0  0  0  0
  180.4670  178.6910  139.7560 C   0  0  0  0  0  0  0  0  0  0  0  0
  181.1310  177.5970  139.3470 N   0  0  0  0  0  0  0  0  0  0  0  0
  180.8360  177.0290  138.1590 C   0  0  2  0  0  3  0  0  0  0  0  0
  179.8130  177.5720  137.3270 C   0  0  0  0  0  0  0  0  0  0  0  0
  179.1730  178.7320  137.8390 C   0  0  0  0  0  3  0  0  0  0  0  0
  187.9540  177.9410  146.2080 C   0  0  0  0  0  2  0  0  0  0  0  0
  187.2050  177.0520  143.8470 C   0  0  0  0  0  2  0  0  0  0  0  0
  186.4870  178.3820  146.3800 C   0  0  0  0  0  2  0  0  0  0  0  0
  186.4080  178.3560  143.8910 C   0  0  0  0  0  2  0  0  0  0  0  0
  183.8150  178.8350  146.3160 O   0  0  0  0  0  0  0  0  0  0  0  0
  184.3690  178.7190  145.1850 C   0  0  0  0  0  0  0  0  0  0  0  0
  188.2100  176.9650  145.0220 C   0  0  1  0  0  3  0  0  0  0  0  0
  185.7170  178.4880  145.1600 N   0  0  0  0  0  0  0  0  0  0  0  0
  191.6840  177.7710  141.5840 C   0  0  0  0  0  1  0  0  0  0  0  0
  191.5830  176.0170  143.3470 C   0  0  0  0  0  2  0  0  0  0  0  0
  191.5910  178.4140  143.9570 C   0  0  0  0  0  2  0  0  0  0  0  0
  190.0430  176.0070  143.4730 C   0  0  0  0  0  2  0  0  0  0  0  0
  190.0560  178.3930  144.0570 C   0  0  0  0  0  2  0  0  0  0  0  0
  192.0400  177.3890  142.9720 N   0  0  0  0  0  0  0  0  0  0  0  0
  189.5960  177.0420  144.4660 N   0  0  0  0  0  0  0  0  0  0  0  0
  179.3040  178.9750  144.5940 C   0  0  0  0  0  1  0  0  0  0  0  0
  179.8930  179.2100  143.3040 O   0  0  0  0  0  0  0  0  0  0  0  0
  1  4  1  0  0  0  0
  2  5  1  0  0  0  0
  2  1  2  0  0  0  0
  4  3  2  0  0  0  0
  4 31  1  0  0  0  0
  5  6  2  0  0  0  0
  6 42  1  0  0  0  0
  6  3  1  0  0  0  0
  7 18  1  0  0  0  0
  9 10  1  0  0  0  0
 10 12  2  0  0  0  0
 11 16  1  0  0  0  0
 11  9  2  0  0  0  0
 13  5  1  0  0  0  0
 14 15  2  0  0  0  0
 15 18  1  0  0  0  0
 15 16  1  0  0  0  0
 16 17  2  0  0  0  0
 17 19  1  0  0  0  0
 17 12  1  0  0  0  0
 18 24  1  0  0  0  0
 19 23  1  0  0  0  0
 19  8  1  0  0  0  0
 20 21  2  0  0  0  0
 21 13  1  0  0  0  0
 22 21  2  0  0  0  0
 23 24  1  1  0  0  0
 23 22  1  0  0  0  0
 24 25  2  0  0  0  0
 25 20  1  0  0  0  0
 26 28  1  0  0  0  0
 27 29  1  0  0  0  0
 29 33  1  0  0  0  0
 31 30  2  0  0  0  0
 32 27  1  6  0  0  0
 32 26  1  0  0  0  0
 33 31  1  0  0  0  0
 33 28  1  0  0  0  0
 34 39  1  0  0  0  0
 35 37  1  0  0  0  0
 36 38  1  0  0  0  0
 37 40  1  0  0  0  0
 38 40  1  0  0  0  0
 39 35  1  0  0  0  0
 39 36  1  0  0  0  0
 40 32  1  0  0  0  0
 42 41  1  0  0  0  0
M  END
>  <MODEL>
5

>  <REMARK>
 VINA RESULT:      -7.8      2.316     10.434
  Name = 8fo7
  4 active torsions:
  status: ('A' for Active; 'I' for Inactive)
    1  A    between atoms: N_20  and  C_26
    2  A    between atoms: O_23  and  C_27
    3  A    between atoms: C_24  and  C_25
    4  A    between atoms: C_31  and  N_34
                            x       y       z     vdW  Elec       q    Type
                         _______ _______ _______ _____ _____    ______ ____

>  <TORSDO>
F 4

$$$$
8fo7
 OpenBabel10242410243D

 42 47  0  0  1  0  0  0  0  0999 V2000
  182.8930  177.7390  139.6700 C   0  0  0  0  0  3  0  0  0  0  0  0
  182.9430  178.1080  141.0190 C   0  0  0  0  0  3  0  0  0  0  0  0
  185.1270  178.5550  139.3440 C   0  0  0  0  0  3  0  0  0  0  0  0
  183.9940  177.9600  138.8040 C   0  0  0  0  0  0  0  0  0  0  0  0
  184.1000  178.7030  141.5420 C   0  0  0  0  0  0  0  0  0  0  0  0
  185.1840  178.9220  140.6920 C   0  0  0  0  0  0  0  0  0  0  0  0
  187.0890  177.7930  148.2990 C   0  0  0  0  0  1  0  0  0  0  0  0
  187.8600  175.8590  143.1980 C   0  0  0  0  0  1  0  0  0  0  0  0
  192.0400  178.2680  144.6700 C   0  0  0  0  0  3  0  0  0  0  0  0
  191.5600  177.8520  143.4310 C   0  0  0  0  0  3  0  0  0  0  0  0
  191.2170  178.2010  145.7930 C   0  0  0  0  0  3  0  0  0  0  0  0
  190.2580  177.3680  143.2920 C   0  0  0  0  0  3  0  0  0  0  0  0
  184.3100  179.1240  142.8280 N   0  0  0  0  0  2  0  0  0  0  0  0
  189.7270  177.4410  147.9550 O   0  0  0  0  0  0  0  0  0  0  0  0
  189.1000  177.6770  146.8950 C   0  0  0  0  0  0  0  0  0  0  0  0
  189.9000  177.7200  145.6740 C   0  0  0  0  0  0  0  0  0  0  0  0
  189.4010  177.2880  144.4190 C   0  0  0  0  0  0  0  0  0  0  0  0
  187.7050  177.8680  147.0000 N   0  0  0  0  0  0  0  0  0  0  0  0
  188.1150  176.8060  144.2540 N   0  0  0  0  0  0  0  0  0  0  0  0
  184.9510  179.2800  145.0110 N   0  0  0  0  0  0  0  0  0  0  0  0
  185.1780  178.7770  143.7880 C   0  0  0  0  0  0  0  0  0  0  0  0
  186.2190  177.9630  143.5480 N   0  0  0  0  0  0  0  0  0  0  0  0
  187.0680  177.6340  144.5450 C   0  0  2  0  0  3  0  0  0  0  0  0
  186.8790  178.1500  145.8600 C   0  0  0  0  0  0  0  0  0  0  0  0
  185.7470  178.9940  146.0190 C   0  0  0  0  0  3  0  0  0  0  0  0
  186.1210  176.1850  134.6060 C   0  0  0  0  0  2  0  0  0  0  0  0
  187.4230  177.2810  136.6140 C   0  0  0  0  0  2  0  0  0  0  0  0
  184.8440  176.6800  135.3130 C   0  0  0  0  0  2  0  0  0  0  0  0
  186.2400  176.6810  137.3760 C   0  0  0  0  0  2  0  0  0  0  0  0
  182.9060  177.8580  136.7990 O   0  0  0  0  0  0  0  0  0  0  0  0
  183.9780  177.6020  137.4180 C   0  0  0  0  0  0  0  0  0  0  0  0
  187.4470  176.8010  135.1410 C   0  0  1  0  0  3  0  0  0  0  0  0
  184.9900  177.0070  136.7150 N   0  0  0  0  0  0  0  0  0  0  0  0
  191.1000  173.7460  136.5080 C   0  0  0  0  0  1  0  0  0  0  0  0
  191.1100  175.5540  134.7980 C   0  0  0  0  0  2  0  0  0  0  0  0
  189.5500  173.6450  134.6010 C   0  0  0  0  0  2  0  0  0  0  0  0
  189.9800  176.3880  135.4430 C   0  0  0  0  0  2  0  0  0  0  0  0
  188.4420  174.4820  135.2650 C   0  0  0  0  0  2  0  0  0  0  0  0
  190.8810  174.1060  135.0860 N   0  0  0  0  0  0  0  0  0  0  0  0
  188.6400  175.9190  134.9510 N   0  0  0  0  0  0  0  0  0  0  0  0
  187.5800  179.0440  140.9340 C   0  0  0  0  0  1  0  0  0  0  0  0
  186.2660  179.5130  141.2810 O   0  0  0  0  0  0  0  0  0  0  0  0
  1  2  1  0  0  0  0
  2  5  2  0  0  0  0
  3  6  2  0  0  0  0
  4  3  1  0  0  0  0
  4  1  2  0  0  0  0
  5 13  1  0  0  0  0
  6 42  1  0  0  0  0
  6  5  1  0  0  0  0
  8 19  1  0  0  0  0
  9 11  1  0  0  0  0
 10  9  2  0  0  0  0
 12 10  1  0  0  0  0
 12 17  2  0  0  0  0
 13 21  1  0  0  0  0
 15 18  1  0  0  0  0
 15 14  2  0  0  0  0
 16 11  2  0  0  0  0
 16 15  1  0  0  0  0
 17 16  1  0  0  0  0
 18  7  1  0  0  0  0
 19 17  1  0  0  0  0
 19 23  1  0  0  0  0
 20 25  1  0  0  0  0
 21 20  2  0  0  0  0
 22 21  2  0  0  0  0
 23 22  1  6  0  0  0
 23 24  1  0  0  0  0
 24 25  2  0  0  0  0
 24 18  1  0  0  0  0
 26 28  1  0  0  0  0
 27 29  1  0  0  0  0
 28 33  1  0  0  0  0
 30 31  2  0  0  0  0
 31  4  1  0  0  0  0
 32 26  1  1  0  0  0
 32 27  1  0  0  0  0
 33 29  1  0  0  0  0
 33 31  1  0  0  0  0
 35 39  1  0  0  0  0
 35 37  1  0  0  0  0
 36 39  1  0  0  0  0
 36 38  1  0  0  0  0
 39 34  1  0  0  0  0
 40 32  1  0  0  0  0
 40 38  1  0  0  0  0
 40 37  1  0  0  0  0
 41 42  1  0  0  0  0
M  END
>  <MODEL>
6

>  <REMARK>
 VINA RESULT:      -7.2      3.783      4.431
  Name = 8fo7
  4 active torsions:
  status: ('A' for Active; 'I' for Inactive)
    1  A    between atoms: N_20  and  C_26
    2  A    between atoms: O_23  and  C_27
    3  A    between atoms: C_24  and  C_25
    4  A    between atoms: C_31  and  N_34
                            x       y       z     vdW  Elec       q    Type
                         _______ _______ _______ _____ _____    ______ ____

>  <TORSDO>
F 4

$$$$
8fo7
 OpenBabel10242410243D

 42 47  0  0  1  0  0  0  0  0999 V2000
  184.4940  173.0310  137.3140 C   0  0  0  0  0  3  0  0  0  0  0  0
  185.8560  172.7980  137.5350 C   0  0  0  0  0  3  0  0  0  0  0  0
  185.0120  174.3080  135.3480 C   0  0  0  0  0  3  0  0  0  0  0  0
  184.0470  173.7970  136.2070 C   0  0  0  0  0  0  0  0  0  0  0  0
  186.8110  173.3210  136.6510 C   0  0  0  0  0  0  0  0  0  0  0  0
  186.3740  174.0750  135.5620 C   0  0  0  0  0  0  0  0  0  0  0  0
  193.6130  176.2520  137.3930 C   0  0  0  0  0  1  0  0  0  0  0  0
  188.4000  177.7220  138.4030 C   0  0  0  0  0  1  0  0  0  0  0  0
  190.9370  177.6410  142.7610 C   0  0  0  0  0  3  0  0  0  0  0  0
  189.5820  177.6500  142.4420 C   0  0  0  0  0  3  0  0  0  0  0  0
  191.8880  177.4590  141.7570 C   0  0  0  0  0  3  0  0  0  0  0  0
  189.1560  177.4760  141.1240 C   0  0  0  0  0  3  0  0  0  0  0  0
  188.1720  173.1910  136.7250 N   0  0  0  0  0  2  0  0  0  0  0  0
  193.6040  177.7120  139.6450 O   0  0  0  0  0  0  0  0  0  0  0  0
  192.5320  177.0980  139.4280 C   0  0  0  0  0  0  0  0  0  0  0  0
  191.4780  177.2790  140.4230 C   0  0  0  0  0  0  0  0  0  0  0  0
  190.1020  177.2920  140.0840 C   0  0  0  0  0  0  0  0  0  0  0  0
  192.4640  176.3120  138.2560 N   0  0  0  0  0  0  0  0  0  0  0  0
  189.6520  177.1200  138.7870 N   0  0  0  0  0  0  0  0  0  0  0  0
  190.4120  173.5930  136.8670 N   0  0  0  0  0  0  0  0  0  0  0  0
  189.1610  173.9990  137.1300 C   0  0  0  0  0  0  0  0  0  0  0  0
  188.9190  175.1620  137.7600 N   0  0  0  0  0  0  0  0  0  0  0  0
  189.9440  175.9500  138.1460 C   0  0  2  0  0  3  0  0  0  0  0  0
  191.2940  175.5590  137.9020 C   0  0  0  0  0  0  0  0  0  0  0  0
  191.4490  174.3210  137.2230 C   0  0  0  0  0  3  0  0  0  0  0  0
  179.6280  175.9660  137.2380 C   0  0  0  0  0  2  0  0  0  0  0  0
  181.5140  175.4640  139.0030 C   0  0  0  0  0  2  0  0  0  0  0  0
  180.4680  175.1120  136.2680 C   0  0  0  0  0  2  0  0  0  0  0  0
  182.3800  175.6750  137.7610 C   0  0  0  0  0  2  0  0  0  0  0  0
  182.1600  173.4330  134.9750 O   0  0  0  0  0  0  0  0  0  0  0  0
  182.6640  174.0610  135.9500 C   0  0  0  0  0  0  0  0  0  0  0  0
  180.0380  175.8510  138.7350 C   0  0  1  0  0  3  0  0  0  0  0  0
  181.8530  174.9210  136.6380 N   0  0  0  0  0  0  0  0  0  0  0  0
  180.9370  179.6380  141.8010 C   0  0  0  0  0  1  0  0  0  0  0  0
  178.9310  178.1740  141.6450 C   0  0  0  0  0  2  0  0  0  0  0  0
  179.6480  179.5360  139.7080 C   0  0  0  0  0  2  0  0  0  0  0  0
  179.6680  176.9580  141.0410 C   0  0  0  0  0  2  0  0  0  0  0  0
  180.3960  178.3210  139.1320 C   0  0  0  0  0  2  0  0  0  0  0  0
  179.6000  179.4320  141.1940 N   0  0  0  0  0  0  0  0  0  0  0  0
  179.7140  177.0680  139.5430 N   0  0  0  0  0  0  0  0  0  0  0  0
  187.4980  175.9750  134.5940 C   0  0  0  0  0  1  0  0  0  0  0  0
  187.3700  174.5530  134.7570 O   0  0  0  0  0  0  0  0  0  0  0  0
  1  2  1  0  0  0  0
  3  6  2  0  0  0  0
  3  4  1  0  0  0  0
  4  1  2  0  0  0  0
  5 13  1  0  0  0  0
  5  2  2  0  0  0  0
  6  5  1  0  0  0  0
  7 18  1  0  0  0  0
  8 19  1  0  0  0  0
 10  9  1  0  0  0  0
 11  9  2  0  0  0  0
 12 10  2  0  0  0  0
 13 21  1  0  0  0  0
 15 14  2  0  0  0  0
 15 16  1  0  0  0  0
 16 11  1  0  0  0  0
 17 16  2  0  0  0  0
 17 12  1  0  0  0  0
 18 15  1  0  0  0  0
 19 17  1  0  0  0  0
 20 21  2  0  0  0  0
 20 25  1  0  0  0  0
 21 22  2  0  0  0  0
 23 22  1  1  0  0  0
 23 19  1  0  0  0  0
 24 23  1  0  0  0  0
 24 18  1  0  0  0  0
 25 24  2  0  0  0  0
 28 33  1  0  0  0  0
 28 26  1  0  0  0  0
 29 27  1  0  0  0  0
 30 31  2  0  0  0  0
 31  4  1  0  0  0  0
 31 33  1  0  0  0  0
 32 26  1  6  0  0  0
 32 27  1  0  0  0  0
 32 40  1  0  0  0  0
 33 29  1  0  0  0  0
 36 39  1  0  0  0  0
 37 35  1  0  0  0  0
 38 40  1  0  0  0  0
 38 36  1  0  0  0  0
 39 35  1  0  0  0  0
 39 34  1  0  0  0  0
 40 37  1  0  0  0  0
 41 42  1  0  0  0  0
 42  6  1  0  0  0  0
M  END
>  <MODEL>
7

>  <REMARK>
 VINA RESULT:      -7.2      4.437      7.890
  Name = 8fo7
  4 active torsions:
  status: ('A' for Active; 'I' for Inactive)
    1  A    between atoms: N_20  and  C_26
    2  A    between atoms: O_23  and  C_27
    3  A    between atoms: C_24  and  C_25
    4  A    between atoms: C_31  and  N_34
                            x       y       z     vdW  Elec       q    Type
                         _______ _______ _______ _____ _____    ______ ____

>  <TORSDO>
F 4

$$$$
8fo7
 OpenBabel10242410243D

 42 47  0  0  1  0  0  0  0  0999 V2000
  185.9940  177.6370  137.3980 C   0  0  0  0  0  3  0  0  0  0  0  0
  185.3870  178.1840  138.5340 C   0  0  0  0  0  3  0  0  0  0  0  0
  188.1600  177.9300  138.3910 C   0  0  0  0  0  3  0  0  0  0  0  0
  187.4030  177.5020  137.3080 C   0  0  0  0  0  0  0  0  0  0  0  0
  186.1720  178.6050  139.6160 C   0  0  0  0  0  0  0  0  0  0  0  0
  187.5580  178.4730  139.5300 C   0  0  0  0  0  0  0  0  0  0  0  0
  184.9680  178.2380  146.9530 C   0  0  0  0  0  1  0  0  0  0  0  0
  187.9780  175.5940  143.1710 C   0  0  0  0  0  1  0  0  0  0  0  0
  191.0870  177.6880  146.5460 C   0  0  0  0  0  3  0  0  0  0  0  0
  191.2700  177.1740  145.2650 C   0  0  0  0  0  3  0  0  0  0  0  0
  189.7980  177.8580  147.0500 C   0  0  0  0  0  3  0  0  0  0  0  0
  190.1770  176.8240  144.4700 C   0  0  0  0  0  3  0  0  0  0  0  0
  185.7410  179.1610  140.7900 N   0  0  0  0  0  2  0  0  0  0  0  0
  187.2940  177.5520  148.1030 O   0  0  0  0  0  0  0  0  0  0  0  0
  187.3660  177.7190  146.8610 C   0  0  0  0  0  0  0  0  0  0  0  0
  188.6830  177.5160  146.2640 C   0  0  0  0  0  0  0  0  0  0  0  0
  188.8560  176.9850  144.9600 C   0  0  0  0  0  0  0  0  0  0  0  0
  186.1770  178.0770  146.1890 N   0  0  0  0  0  0  0  0  0  0  0  0
  187.7910  176.6330  144.1510 N   0  0  0  0  0  0  0  0  0  0  0  0
  185.1540  179.5220  142.9650 N   0  0  0  0  0  0  0  0  0  0  0  0
  185.9040  178.8450  142.0830 C   0  0  0  0  0  0  0  0  0  0  0  0
  186.7670  177.8950  142.4810 N   0  0  0  0  0  0  0  0  0  0  0  0
  186.8980  177.6030  143.7920 C   0  0  2  0  0  3  0  0  0  0  0  0
  186.1320  178.3020  144.7720 C   0  0  0  0  0  0  0  0  0  0  0  0
  185.2420  179.2800  144.2550 C   0  0  0  0  0  3  0  0  0  0  0  0
  191.1180  174.9710  135.0510 C   0  0  0  0  0  2  0  0  0  0  0  0
  191.3250  176.2250  137.3550 C   0  0  0  0  0  2  0  0  0  0  0  0
  189.7500  175.6690  134.9240 C   0  0  0  0  0  2  0  0  0  0  0  0
  189.8450  175.8440  137.4070 C   0  0  0  0  0  2  0  0  0  0  0  0
  187.5220  177.2090  135.0460 O   0  0  0  0  0  0  0  0  0  0  0  0
  188.0600  176.9530  136.1610 C   0  0  0  0  0  0  0  0  0  0  0  0
  192.0430  175.5410  136.1660 C   0  0  1  0  0  3  0  0  0  0  0  0
  189.1890  176.1790  136.1560 N   0  0  0  0  0  0  0  0  0  0  0  0
  196.4120  173.2580  136.6620 C   0  0  0  0  0  1  0  0  0  0  0  0
  194.1170  172.2970  136.6860 C   0  0  0  0  0  2  0  0  0  0  0  0
  194.7850  173.9990  138.3520 C   0  0  0  0  0  2  0  0  0  0  0  0
  193.4690  173.4110  135.8330 C   0  0  0  0  0  2  0  0  0  0  0  0
  194.1550  175.0990  137.4800 C   0  0  0  0  0  2  0  0  0  0  0  0
  195.2390  172.8750  137.4850 N   0  0  0  0  0  0  0  0  0  0  0  0
  193.0140  174.5420  136.7110 N   0  0  0  0  0  0  0  0  0  0  0  0
  189.4690  178.2490  140.9830 C   0  0  0  0  0  1  0  0  0  0  0  0
  188.2470  178.9150  140.6240 O   0  0  0  0  0  0  0  0  0  0  0  0
  1  2  1  0  0  0  0
  2  5  2  0  0  0  0
  3  6  2  0  0  0  0
  4  1  2  0  0  0  0
  4  3  1  0  0  0  0
  5 13  1  0  0  0  0
  6  5  1  0  0  0  0
  6 42  1  0  0  0  0
  8 19  1  0  0  0  0
  9 11  1  0  0  0  0
 10  9  2  0  0  0  0
 12 17  2  0  0  0  0
 12 10  1  0  0  0  0
 13 21  1  0  0  0  0
 15 14  2  0  0  0  0
 16 15  1  0  0  0  0
 16 11  2  0  0  0  0
 17 16  1  0  0  0  0
 18 15  1  0  0  0  0
 18  7  1  0  0  0  0
 19 17  1  0  0  0  0
 20 25  1  0  0  0  0
 21 22  2  0  0  0  0
 21 20  2  0  0  0  0
 23 22  1  1  0  0  0
 23 19  1  0  0  0  0
 23 24  1  0  0  0  0
 24 18  1  0  0  0  0
 25 24  2  0  0  0  0
 27 29  1  0  0  0  0
 28 26  1  0  0  0  0
 28 33  1  0  0  0  0
 30 31  2  0  0  0  0
 31  4  1  0  0  0  0
 32 26  1  6  0  0  0
 32 40  1  0  0  0  0
 32 27  1  0  0  0  0
 33 31  1  0  0  0  0
 33 29  1  0  0  0  0
 34 39  1  0  0  0  0
 35 39  1  0  0  0  0
 37 35  1  0  0  0  0
 37 40  1  0  0  0  0
 38 36  1  0  0  0  0
 39 36  1  0  0  0  0
 40 38  1  0  0  0  0
 42 41  1  0  0  0  0
M  END
>  <MODEL>
8

>  <REMARK>
 VINA RESULT:      -7.0      5.316      7.129
  Name = 8fo7
  4 active torsions:
  status: ('A' for Active; 'I' for Inactive)
    1  A    between atoms: N_20  and  C_26
    2  A    between atoms: O_23  and  C_27
    3  A    between atoms: C_24  and  C_25
    4  A    between atoms: C_31  and  N_34
                            x       y       z     vdW  Elec       q    Type
                         _______ _______ _______ _____ _____    ______ ____

>  <TORSDO>
F 4

$$$$
8fo7
 OpenBabel10242410243D

 42 47  0  0  1  0  0  0  0  0999 V2000
  188.7790  178.1950  142.0390 C   0  0  0  0  0  3  0  0  0  0  0  0
  187.4250  178.3060  142.3750 C   0  0  0  0  0  3  0  0  0  0  0  0
  189.3370  177.7920  144.3390 C   0  0  0  0  0  3  0  0  0  0  0  0
  189.7640  177.9350  143.0250 C   0  0  0  0  0  0  0  0  0  0  0  0
  187.0170  178.1540  143.7070 C   0  0  0  0  0  0  0  0  0  0  0  0
  187.9850  177.8980  144.6790 C   0  0  0  0  0  0  0  0  0  0  0  0
  179.8410  179.9930  142.9770 C   0  0  0  0  0  1  0  0  0  0  0  0
  184.1670  179.0420  139.7010 C   0  0  0  0  0  1  0  0  0  0  0  0
  180.5800  175.6480  138.6780 C   0  0  0  0  0  3  0  0  0  0  0  0
  181.9400  175.7180  138.3930 C   0  0  0  0  0  3  0  0  0  0  0  0
  180.0040  176.5680  139.5530 C   0  0  0  0  0  3  0  0  0  0  0  0
  182.7450  176.7000  138.9750 C   0  0  0  0  0  3  0  0  0  0  0  0
  185.7430  178.2360  144.2020 N   0  0  0  0  0  2  0  0  0  0  0  0
  178.9320  178.7700  140.7680 O   0  0  0  0  0  0  0  0  0  0  0  0
  180.1210  178.4920  141.0550 C   0  0  0  0  0  0  0  0  0  0  0  0
  180.7970  177.5630  140.1520 C   0  0  0  0  0  0  0  0  0  0  0  0
  182.1830  177.6490  139.8660 C   0  0  0  0  0  0  0  0  0  0  0  0
  180.6680  179.1040  142.2040 N   0  0  0  0  0  0  0  0  0  0  0  0
  183.0020  178.6100  140.4300 N   0  0  0  0  0  0  0  0  0  0  0  0
  183.5190  178.6550  144.4840 N   0  0  0  0  0  0  0  0  0  0  0  0
  184.5420  178.4350  143.6440 C   0  0  0  0  0  0  0  0  0  0  0  0
  184.3640  178.4240  142.3120 N   0  0  0  0  0  0  0  0  0  0  0  0
  183.1370  178.6350  141.7890 C   0  0  2  0  0  3  0  0  0  0  0  0
  182.0140  178.8620  142.6390 C   0  0  0  0  0  0  0  0  0  0  0  0
  182.3020  178.8640  144.0300 C   0  0  0  0  0  3  0  0  0  0  0  0
  193.6200  177.0510  139.9180 C   0  0  0  0  0  2  0  0  0  0  0  0
  191.1830  176.1060  139.6100 C   0  0  0  0  0  2  0  0  0  0  0  0
  193.1450  177.5030  141.3130 C   0  0  0  0  0  2  0  0  0  0  0  0
  190.8580  177.4150  140.3320 C   0  0  0  0  0  2  0  0  0  0  0  0
  191.9450  177.9660  143.7000 O   0  0  0  0  0  0  0  0  0  0  0  0
  191.1590  177.8190  142.7210 C   0  0  0  0  0  0  0  0  0  0  0  0
  192.6750  176.0440  139.1990 C   0  0  1  0  0  3  0  0  0  0  0  0
  191.7120  177.5820  141.4930 N   0  0  0  0  0  0  0  0  0  0  0  0
  193.1170  174.2460  134.6040 C   0  0  0  0  0  1  0  0  0  0  0  0
  194.0470  176.3390  135.5770 C   0  0  0  0  0  2  0  0  0  0  0  0
  191.6040  175.9540  135.5230 C   0  0  0  0  0  2  0  0  0  0  0  0
  194.0760  175.8350  137.0380 C   0  0  0  0  0  2  0  0  0  0  0  0
  191.6540  175.4350  136.9710 C   0  0  0  0  0  2  0  0  0  0  0  0
  192.9100  175.6930  134.8550 N   0  0  0  0  0  0  0  0  0  0  0  0
  192.7580  176.1010  137.7070 N   0  0  0  0  0  0  0  0  0  0  0  0
  188.3650  177.2250  146.9630 C   0  0  0  0  0  1  0  0  0  0  0  0
  187.5020  177.7720  145.9520 O   0  0  0  0  0  0  0  0  0  0  0  0
  1  2  2  0  0  0  0
  1  4  1  0  0  0  0
  2  5  1  0  0  0  0
  3  6  1  0  0  0  0
  4  3  2  0  0  0  0
  5 13  1  0  0  0  0
  5  6  2  0  0  0  0
  6 42  1  0  0  0  0
  8 19  1  0  0  0  0
  9 11  1  0  0  0  0
 10  9  2  0  0  0  0
 10 12  1  0  0  0  0
 11 16  2  0  0  0  0
 12 17  2  0  0  0  0
 14 15  2  0  0  0  0
 15 18  1  0  0  0  0
 16 15  1  0  0  0  0
 17 16  1  0  0  0  0
 17 19  1  0  0  0  0
 18 24  1  0  0  0  0
 18  7  1  0  0  0  0
 19 23  1  0  0  0  0
 21 13  1  0  0  0  0
 21 20  2  0  0  0  0
 22 21  2  0  0  0  0
 23 22  1  1  0  0  0
 23 24  1  0  0  0  0
 24 25  2  0  0  0  0
 25 20  1  0  0  0  0
 26 28  1  0  0  0  0
 27 29  1  0  0  0  0
 28 33  1  0  0  0  0
 29 33  1  0  0  0  0
 31  4  1  0  0  0  0
 31 30  2  0  0  0  0
 32 40  1  6  0  0  0
 32 27  1  0  0  0  0
 32 26  1  0  0  0  0
 33 31  1  0  0  0  0
 34 39  1  0  0  0  0
 35 37  1  0  0  0  0
 36 38  1  0  0  0  0
 37 40  1  0  0  0  0
 38 40  1  0  0  0  0
 39 36  1  0  0  0  0
 39 35  1  0  0  0  0
 42 41  1  0  0  0  0
M  END
>  <MODEL>
9

>  <REMARK>
 VINA RESULT:      -7.0      4.077      9.278
  Name = 8fo7
  4 active torsions:
  status: ('A' for Active; 'I' for Inactive)
    1  A    between atoms: N_20  and  C_26
    2  A    between atoms: O_23  and  C_27
    3  A    between atoms: C_24  and  C_25
    4  A    between atoms: C_31  and  N_34
                            x       y       z     vdW  Elec       q    Type
                         _______ _______ _______ _____ _____    ______ ____

>  <TORSDO>
F 4

$$$$
