=
 OpenBabel10222421283D

 34 36  0  0  1  0  0  0  0  0999 V2000
  184.4510  178.3250  143.2340 C   0  0  0  0  0  3  0  0  0  0  0  0
  186.1380  178.0800  144.9350 C   0  0  0  0  0  0  0  0  0  0  0  0
  187.4780  177.5490  145.0080 C   0  0  0  0  0  0  0  0  0  0  0  0
  185.7210  177.9180  143.6430 C   0  0  0  0  0  0  0  0  0  0  0  0
  184.0460  179.0860  145.5200 C   0  0  0  0  0  3  0  0  0  0  0  0
  186.8130  177.2660  142.8590 C   0  0  2  0  0  3  0  0  0  0  0  0
  187.8770  177.0910  143.8600 N   0  0  0  0  0  0  0  0  0  0  0  0
  183.5990  178.9200  144.1910 C   0  0  0  0  0  0  0  0  0  0  0  0
  185.3280  178.6640  145.9070 C   0  0  0  0  0  3  0  0  0  0  0  0
  189.3310  176.7870  146.3020 C   0  0  0  0  0  3  0  0  0  0  0  0
  188.2760  177.5280  146.1930 N   0  0  0  0  0  0  0  0  0  0  0  0
  190.0740  176.8050  147.4750 O   0  0  0  0  0  0  0  0  0  0  0  0
  191.4900  176.9030  147.4320 C   0  0  2  0  0  3  0  0  0  0  0  0
  191.8820  177.5230  146.2560 F   0  0  0  0  0  0  0  0  0  0  0  0
  192.4410  175.0560  146.2650 F   0  0  0  0  0  0  0  0  0  0  0  0
  192.1150  175.5190  147.5280 C   0  0  0  0  0  0  0  0  0  0  0  0
  191.2200  174.6460  148.1180 F   0  0  0  0  0  0  0  0  0  0  0  0
  193.2590  175.5810  148.3020 F   0  0  0  0  0  0  0  0  0  0  0  0
  182.3140  179.3510  143.8540 O   0  0  0  0  0  0  0  0  0  0  0  0
  181.1690  178.5180  143.9730 C   0  0  0  0  0  1  0  0  0  0  0  0
  187.2620  178.1280  141.7580 N   0  0  0  0  0  0  0  0  0  0  0  0
  189.6260  177.4000  141.7960 C   0  0  0  0  0  3  0  0  0  0  0  0
  189.8030  177.6910  139.0260 C   0  0  0  0  0  3  0  0  0  0  0  0
  188.6050  177.9790  139.6840 C   0  0  0  0  0  3  0  0  0  0  0  0
  190.8260  177.1160  141.1390 C   0  0  0  0  0  3  0  0  0  0  0  0
  188.5000  177.8350  141.0770 C   0  0  0  0  0  0  0  0  0  0  0  0
  190.9230  177.2570  139.7490 C   0  0  0  0  0  0  0  0  0  0  0  0
  193.2870  177.2600  139.5800 O   0  0  0  0  0  0  0  0  0  0  0  0
  192.1840  176.9460  139.0530 C   0  0  0  0  0  0  0  0  0  0  0  0
  192.0640  174.9940  137.6790 C   0  0  0  0  0  2  0  0  0  0  0  0
  192.1530  176.2810  137.7840 N   0  0  0  0  0  0  0  0  0  0  0  0
  186.4180  179.2410  141.3080 C   0  0  0  0  0  2  0  0  0  0  0  0
  185.5640  178.8340  140.1500 C   0  0  0  0  0  3  0  0  0  0  0  0
  184.6770  179.6330  139.6830 N   0  0  0  0  0  2  0  0  0  0  0  0
  1  4  2  0  0  0  0
  1  8  1  0  0  0  0
  2  3  1  0  0  0  0
  2  9  2  0  0  0  0
  3 11  1  0  0  0  0
  4  2  1  0  0  0  0
  5  9  1  0  0  0  0
  6 21  1  6  0  0  0
  6  4  1  0  0  0  0
  6  7  1  0  0  0  0
  7  3  2  0  0  0  0
  8  5  2  0  0  0  0
 10 12  1  0  0  0  0
 11 10  2  0  0  0  0
 13 14  1  6  0  0  0
 13 12  1  0  0  0  0
 13 16  1  0  0  0  0
 15 16  1  0  0  0  0
 16 17  1  0  0  0  0
 16 18  1  0  0  0  0
 19 20  1  0  0  0  0
 19  8  1  0  0  0  0
 23 24  2  0  0  0  0
 23 27  1  0  0  0  0
 24 26  1  0  0  0  0
 25 22  1  0  0  0  0
 26 21  1  0  0  0  0
 26 22  2  0  0  0  0
 27 25  2  0  0  0  0
 29 28  2  0  0  0  0
 29 27  1  0  0  0  0
 30 31  2  0  0  0  0
 31 29  1  0  0  0  0
 32 21  1  0  0  0  0
 33 32  1  0  0  0  0
 34 33  2  0  0  0  0
M  END
>  <MODEL>
1

>  <REMARK>
 VINA RESULT:      -8.5      0.000      0.000
  Name = 
  11 active torsions:
  status: ('A' for Active; 'I' for Inactive)
    1  A    between atoms: C_1  and  O_11
    2  A    between atoms: N_2  and  C_17
    3  A    between atoms: O_3  and  C_30
    4  A    between atoms: C_8  and  C_9
    5  A    between atoms: C_8  and  O_11
    6  A    between atoms: C_10  and  C_13
    7  A    between atoms: C_10  and  N_21
    8  A    between atoms: N_21  and  C_24
    9  A    between atoms: N_21  and  C_28
   10  A    between atoms: N_22  and  C_26
   11  A    between atoms: C_26  and  C_34
                            x       y       z     vdW  Elec       q    Type
                         _______ _______ _______ _____ _____    ______ ____

>  <TORSDO>
F 11

$$$$
=
 OpenBabel10222421283D

 34 36  0  0  1  0  0  0  0  0999 V2000
  190.4260  176.5770  141.5280 C   0  0  0  0  0  3  0  0  0  0  0  0
  188.3080  177.7180  141.6370 C   0  0  0  0  0  0  0  0  0  0  0  0
  187.5210  178.5450  140.7550 C   0  0  0  0  0  0  0  0  0  0  0  0
  189.4390  177.3760  140.9500 C   0  0  0  0  0  0  0  0  0  0  0  0
  189.0500  176.4760  143.5440 C   0  0  0  0  0  3  0  0  0  0  0  0
  189.3880  177.9960  139.5910 C   0  0  2  0  0  3  0  0  0  0  0  0
  188.1030  178.7120  139.6060 N   0  0  0  0  0  0  0  0  0  0  0  0
  190.2260  176.1190  142.8490 C   0  0  0  0  0  0  0  0  0  0  0  0
  188.0740  177.2850  142.9410 C   0  0  0  0  0  3  0  0  0  0  0  0
  185.1370  178.5360  140.7970 C   0  0  0  0  0  3  0  0  0  0  0  0
  186.2550  179.1140  141.0940 N   0  0  0  0  0  0  0  0  0  0  0  0
  183.9320  179.1300  141.1520 O   0  0  0  0  0  0  0  0  0  0  0  0
  183.1090  178.5500  142.1540 C   0  0  2  0  0  3  0  0  0  0  0  0
  181.8360  179.0950  142.0890 F   0  0  0  0  0  0  0  0  0  0  0  0
  184.2420  180.0670  143.6020 F   0  0  0  0  0  0  0  0  0  0  0  0
  183.7110  178.7910  143.5310 C   0  0  0  0  0  0  0  0  0  0  0  0
  184.7110  177.8660  143.7680 F   0  0  0  0  0  0  0  0  0  0  0  0
  182.7300  178.6500  144.4950 F   0  0  0  0  0  0  0  0  0  0  0  0
  191.1710  175.3160  143.4920 O   0  0  0  0  0  0  0  0  0  0  0  0
  191.8280  175.7120  144.6880 C   0  0  0  0  0  1  0  0  0  0  0  0
  189.4070  176.9700  138.5400 N   0  0  0  0  0  0  0  0  0  0  0  0
  190.6460  174.9870  137.7320 C   0  0  0  0  0  3  0  0  0  0  0  0
  193.0740  176.3310  138.0290 C   0  0  0  0  0  3  0  0  0  0  0  0
  191.8750  176.9710  138.3550 C   0  0  0  0  0  3  0  0  0  0  0  0
  191.8440  174.3440  137.4100 C   0  0  0  0  0  3  0  0  0  0  0  0
  190.6460  176.3080  138.2080 C   0  0  0  0  0  0  0  0  0  0  0  0
  193.0670  175.0120  137.5550 C   0  0  0  0  0  0  0  0  0  0  0  0
  194.3370  173.4370  136.3220 O   0  0  0  0  0  0  0  0  0  0  0  0
  194.3300  174.3400  137.2030 C   0  0  0  0  0  0  0  0  0  0  0  0
  196.1060  173.9800  138.7610 C   0  0  0  0  0  2  0  0  0  0  0  0
  195.5460  174.7190  137.8580 N   0  0  0  0  0  0  0  0  0  0  0  0
  188.1580  176.5720  137.8820 C   0  0  0  0  0  2  0  0  0  0  0  0
  188.0970  177.0970  136.4830 C   0  0  0  0  0  3  0  0  0  0  0  0
  187.4680  178.1830  136.2220 N   0  0  0  0  0  2  0  0  0  0  0  0
  1  8  1  0  0  0  0
  2  9  2  0  0  0  0
  3 11  1  0  0  0  0
  3  2  1  0  0  0  0
  4  1  2  0  0  0  0
  4  2  1  0  0  0  0
  6 21  1  6  0  0  0
  6  7  1  0  0  0  0
  6  4  1  0  0  0  0
  7  3  2  0  0  0  0
  8 19  1  0  0  0  0
  8  5  2  0  0  0  0
  9  5  1  0  0  0  0
 10 11  2  0  0  0  0
 10 12  1  0  0  0  0
 12 13  1  0  0  0  0
 13 14  1  1  0  0  0
 13 16  1  0  0  0  0
 16 15  1  0  0  0  0
 16 17  1  0  0  0  0
 16 18  1  0  0  0  0
 19 20  1  0  0  0  0
 22 26  1  0  0  0  0
 23 24  1  0  0  0  0
 25 27  1  0  0  0  0
 25 22  2  0  0  0  0
 26 24  2  0  0  0  0
 26 21  1  0  0  0  0
 27 23  2  0  0  0  0
 28 29  2  0  0  0  0
 29 27  1  0  0  0  0
 29 31  1  0  0  0  0
 31 30  2  0  0  0  0
 32 21  1  0  0  0  0
 33 32  1  0  0  0  0
 34 33  2  0  0  0  0
M  END
>  <MODEL>
2

>  <REMARK>
 VINA RESULT:      -8.2      3.914      6.667
  Name = 
  11 active torsions:
  status: ('A' for Active; 'I' for Inactive)
    1  A    between atoms: C_1  and  O_11
    2  A    between atoms: N_2  and  C_17
    3  A    between atoms: O_3  and  C_30
    4  A    between atoms: C_8  and  C_9
    5  A    between atoms: C_8  and  O_11
    6  A    between atoms: C_10  and  C_13
    7  A    between atoms: C_10  and  N_21
    8  A    between atoms: N_21  and  C_24
    9  A    between atoms: N_21  and  C_28
   10  A    between atoms: N_22  and  C_26
   11  A    between atoms: C_26  and  C_34
                            x       y       z     vdW  Elec       q    Type
                         _______ _______ _______ _____ _____    ______ ____

>  <TORSDO>
F 11

$$$$
=
 OpenBabel10222421283D

 34 36  0  0  1  0  0  0  0  0999 V2000
  185.6210  179.0340  144.0450 C   0  0  0  0  0  3  0  0  0  0  0  0
  184.3350  178.8480  142.0170 C   0  0  0  0  0  0  0  0  0  0  0  0
  184.5980  178.9440  140.6010 C   0  0  0  0  0  0  0  0  0  0  0  0
  185.5280  179.0530  142.6530 C   0  0  0  0  0  0  0  0  0  0  0  0
  183.2230  178.5730  144.1190 C   0  0  0  0  0  3  0  0  0  0  0  0
  186.5900  179.2890  141.6280 C   0  0  2  0  0  3  0  0  0  0  0  0
  185.8510  179.1870  140.3600 N   0  0  0  0  0  0  0  0  0  0  0  0
  184.4470  178.7890  144.7900 C   0  0  0  0  0  0  0  0  0  0  0  0
  183.1560  178.6020  142.7170 C   0  0  0  0  0  3  0  0  0  0  0  0
  183.5460  177.7360  138.8340 C   0  0  0  0  0  3  0  0  0  0  0  0
  183.6080  178.7890  139.5830 N   0  0  0  0  0  0  0  0  0  0  0  0
  182.5620  177.6340  137.8590 O   0  0  0  0  0  0  0  0  0  0  0  0
  181.2580  177.1810  138.1940 C   0  0  2  0  0  3  0  0  0  0  0  0
  180.8970  177.6680  139.4410 F   0  0  0  0  0  0  0  0  0  0  0  0
  181.4200  175.1780  139.4750 F   0  0  0  0  0  0  0  0  0  0  0  0
  181.2150  175.6600  138.1940 C   0  0  0  0  0  0  0  0  0  0  0  0
  182.2000  175.1680  137.3580 F   0  0  0  0  0  0  0  0  0  0  0  0
  179.9820  175.2330  137.7370 F   0  0  0  0  0  0  0  0  0  0  0  0
  184.4640  178.7560  146.1860 O   0  0  0  0  0  0  0  0  0  0  0  0
  185.6700  178.6980  146.9370 C   0  0  0  0  0  1  0  0  0  0  0  0
  187.6410  178.2660  141.7090 N   0  0  0  0  0  0  0  0  0  0  0  0
  187.7290  177.0850  143.8810 C   0  0  0  0  0  3  0  0  0  0  0  0
  190.1060  178.3910  144.5410 C   0  0  0  0  0  3  0  0  0  0  0  0
  189.4810  178.6520  143.3190 C   0  0  0  0  0  3  0  0  0  0  0  0
  188.3520  176.8260  145.1050 C   0  0  0  0  0  3  0  0  0  0  0  0
  188.2850  178.0000  142.9730 C   0  0  0  0  0  0  0  0  0  0  0  0
  189.5450  177.4760  145.4440 C   0  0  0  0  0  0  0  0  0  0  0  0
  189.5510  177.2540  147.8030 O   0  0  0  0  0  0  0  0  0  0  0  0
  190.2100  177.1950  146.7280 C   0  0  0  0  0  0  0  0  0  0  0  0
  192.0110  175.6530  147.0210 C   0  0  0  0  0  2  0  0  0  0  0  0
  191.6000  176.8490  146.7520 N   0  0  0  0  0  0  0  0  0  0  0  0
  187.9820  177.4700  140.5250 C   0  0  0  0  0  2  0  0  0  0  0  0
  189.1490  178.0600  139.7990 C   0  0  0  0  0  3  0  0  0  0  0  0
  188.9680  178.9110  138.8580 N   0  0  0  0  0  2  0  0  0  0  0  0
  1  8  1  0  0  0  0
  2  4  1  0  0  0  0
  2  9  2  0  0  0  0
  3  2  1  0  0  0  0
  4  1  2  0  0  0  0
  5  8  2  0  0  0  0
  6 21  1  6  0  0  0
  6  4  1  0  0  0  0
  7  3  2  0  0  0  0
  7  6  1  0  0  0  0
  8 19  1  0  0  0  0
  9  5  1  0  0  0  0
 10 11  2  0  0  0  0
 11  3  1  0  0  0  0
 12 13  1  0  0  0  0
 12 10  1  0  0  0  0
 13 14  1  1  0  0  0
 16 13  1  0  0  0  0
 16 15  1  0  0  0  0
 17 16  1  0  0  0  0
 18 16  1  0  0  0  0
 19 20  1  0  0  0  0
 21 26  1  0  0  0  0
 22 25  1  0  0  0  0
 23 27  1  0  0  0  0
 24 23  2  0  0  0  0
 25 27  2  0  0  0  0
 26 24  1  0  0  0  0
 26 22  2  0  0  0  0
 27 29  1  0  0  0  0
 29 31  1  0  0  0  0
 29 28  2  0  0  0  0
 31 30  2  0  0  0  0
 32 21  1  0  0  0  0
 33 32  1  0  0  0  0
 34 33  2  0  0  0  0
M  END
>  <MODEL>
3

>  <REMARK>
 VINA RESULT:      -7.9      5.192      7.898
  Name = 
  11 active torsions:
  status: ('A' for Active; 'I' for Inactive)
    1  A    between atoms: C_1  and  O_11
    2  A    between atoms: N_2  and  C_17
    3  A    between atoms: O_3  and  C_30
    4  A    between atoms: C_8  and  C_9
    5  A    between atoms: C_8  and  O_11
    6  A    between atoms: C_10  and  C_13
    7  A    between atoms: C_10  and  N_21
    8  A    between atoms: N_21  and  C_24
    9  A    between atoms: N_21  and  C_28
   10  A    between atoms: N_22  and  C_26
   11  A    between atoms: C_26  and  C_34
                            x       y       z     vdW  Elec       q    Type
                         _______ _______ _______ _____ _____    ______ ____

>  <TORSDO>
F 11

$$$$
=
 OpenBabel10222421283D

 34 36  0  0  1  0  0  0  0  0999 V2000
  182.5580  178.0470  138.1290 C   0  0  0  0  0  3  0  0  0  0  0  0
  184.9410  178.0130  138.4740 C   0  0  0  0  0  0  0  0  0  0  0  0
  185.8710  178.6080  139.4040 C   0  0  0  0  0  0  0  0  0  0  0  0
  183.6940  178.4390  138.8370 C   0  0  0  0  0  0  0  0  0  0  0  0
  184.0190  176.7520  136.6600 C   0  0  0  0  0  3  0  0  0  0  0  0
  183.8150  179.3320  140.0300 C   0  0  2  0  0  3  0  0  0  0  0  0
  185.2640  179.3470  140.2830 N   0  0  0  0  0  0  0  0  0  0  0  0
  182.7250  177.1880  137.0200 C   0  0  0  0  0  0  0  0  0  0  0  0
  185.1470  177.1640  137.3880 C   0  0  0  0  0  3  0  0  0  0  0  0
  187.9520  178.0100  140.4030 C   0  0  0  0  0  3  0  0  0  0  0  0
  187.2860  178.4120  139.3700 N   0  0  0  0  0  0  0  0  0  0  0  0
  189.3270  177.8320  140.3170 O   0  0  0  0  0  0  0  0  0  0  0  0
  189.9810  176.8570  141.1150 C   0  0  2  0  0  3  0  0  0  0  0  0
  189.0920  176.3340  142.0410 F   0  0  0  0  0  0  0  0  0  0  0  0
  190.7470  178.4550  142.7090 F   0  0  0  0  0  0  0  0  0  0  0  0
  191.1740  177.4770  141.8280 C   0  0  0  0  0  0  0  0  0  0  0  0
  192.0280  178.0400  140.8980 F   0  0  0  0  0  0  0  0  0  0  0  0
  191.8540  176.4970  142.5270 F   0  0  0  0  0  0  0  0  0  0  0  0
  181.6340  176.7550  136.2640 O   0  0  0  0  0  0  0  0  0  0  0  0
  180.9940  177.5790  135.2990 C   0  0  0  0  0  1  0  0  0  0  0  0
  183.0850  178.7820  141.1790 N   0  0  0  0  0  0  0  0  0  0  0  0
  185.0020  178.0800  142.5750 C   0  0  0  0  0  3  0  0  0  0  0  0
  183.7590  179.0860  144.8620 C   0  0  0  0  0  3  0  0  0  0  0  0
  183.1230  179.1820  143.6220 C   0  0  0  0  0  3  0  0  0  0  0  0
  185.6360  177.9810  143.8170 C   0  0  0  0  0  3  0  0  0  0  0  0
  183.7380  178.6810  142.4620 C   0  0  0  0  0  0  0  0  0  0  0  0
  185.0210  178.4850  144.9690 C   0  0  0  0  0  0  0  0  0  0  0  0
  185.3580  179.1710  147.2120 O   0  0  0  0  0  0  0  0  0  0  0  0
  185.6940  178.3930  146.2760 C   0  0  0  0  0  0  0  0  0  0  0  0
  187.9760  177.7290  146.5190 C   0  0  0  0  0  2  0  0  0  0  0  0
  186.7210  177.4170  146.4830 N   0  0  0  0  0  0  0  0  0  0  0  0
  181.6740  178.4040  141.0380 C   0  0  0  0  0  2  0  0  0  0  0  0
  180.8160  179.6050  140.8020 C   0  0  0  0  0  3  0  0  0  0  0  0
  180.3620  180.2840  141.7900 N   0  0  0  0  0  2  0  0  0  0  0  0
  1  4  1  0  0  0  0
  2  4  2  0  0  0  0
  2  3  1  0  0  0  0
  3  7  2  0  0  0  0
  4  6  1  0  0  0  0
  5  8  1  0  0  0  0
  5  9  2  0  0  0  0
  6  7  1  0  0  0  0
  6 21  1  1  0  0  0
  8  1  2  0  0  0  0
  9  2  1  0  0  0  0
 11  3  1  0  0  0  0
 11 10  2  0  0  0  0
 12 10  1  0  0  0  0
 12 13  1  0  0  0  0
 13 16  1  0  0  0  0
 13 14  1  1  0  0  0
 16 18  1  0  0  0  0
 16 15  1  0  0  0  0
 17 16  1  0  0  0  0
 19  8  1  0  0  0  0
 20 19  1  0  0  0  0
 21 26  1  0  0  0  0
 22 25  1  0  0  0  0
 23 27  1  0  0  0  0
 24 23  2  0  0  0  0
 25 27  2  0  0  0  0
 26 22  2  0  0  0  0
 26 24  1  0  0  0  0
 27 29  1  0  0  0  0
 29 31  1  0  0  0  0
 29 28  2  0  0  0  0
 31 30  2  0  0  0  0
 32 21  1  0  0  0  0
 33 32  1  0  0  0  0
 33 34  2  0  0  0  0
M  END
>  <MODEL>
4

>  <REMARK>
 VINA RESULT:      -7.8      3.336      7.058
  Name = 
  11 active torsions:
  status: ('A' for Active; 'I' for Inactive)
    1  A    between atoms: C_1  and  O_11
    2  A    between atoms: N_2  and  C_17
    3  A    between atoms: O_3  and  C_30
    4  A    between atoms: C_8  and  C_9
    5  A    between atoms: C_8  and  O_11
    6  A    between atoms: C_10  and  C_13
    7  A    between atoms: C_10  and  N_21
    8  A    between atoms: N_21  and  C_24
    9  A    between atoms: N_21  and  C_28
   10  A    between atoms: N_22  and  C_26
   11  A    between atoms: C_26  and  C_34
                            x       y       z     vdW  Elec       q    Type
                         _______ _______ _______ _____ _____    ______ ____

>  <TORSDO>
F 11

$$$$
=
 OpenBabel10222421283D

 34 36  0  0  1  0  0  0  0  0999 V2000
  190.3550  176.5810  141.4110 C   0  0  0  0  0  3  0  0  0  0  0  0
  188.2090  177.6710  141.3550 C   0  0  0  0  0  0  0  0  0  0  0  0
  187.4490  178.4340  140.3930 C   0  0  0  0  0  0  0  0  0  0  0  0
  189.3820  177.3250  140.7440 C   0  0  0  0  0  0  0  0  0  0  0  0
  188.8800  176.5450  143.3580 C   0  0  0  0  0  3  0  0  0  0  0  0
  189.3860  177.8750  139.3550 C   0  0  2  0  0  3  0  0  0  0  0  0
  188.0860  178.5580  139.2680 N   0  0  0  0  0  0  0  0  0  0  0  0
  190.0990  176.1850  142.7420 C   0  0  0  0  0  0  0  0  0  0  0  0
  187.9180  177.2970  142.6660 C   0  0  0  0  0  3  0  0  0  0  0  0
  185.1370  178.7230  139.8860 C   0  0  0  0  0  3  0  0  0  0  0  0
  186.1540  178.9860  140.6400 N   0  0  0  0  0  0  0  0  0  0  0  0
  183.8980  179.2830  140.1710 O   0  0  0  0  0  0  0  0  0  0  0  0
  182.9660  178.5960  140.9920 C   0  0  2  0  0  3  0  0  0  0  0  0
  183.6290  177.9780  142.0410 F   0  0  0  0  0  0  0  0  0  0  0  0
  180.9630  177.3310  140.7300 F   0  0  0  0  0  0  0  0  0  0  0  0
  182.2080  177.5620  140.1710 C   0  0  0  0  0  0  0  0  0  0  0  0
  182.9220  176.3790  140.1400 F   0  0  0  0  0  0  0  0  0  0  0  0
  182.0490  178.0250  138.8780 F   0  0  0  0  0  0  0  0  0  0  0  0
  191.0270  175.4390  143.4710 O   0  0  0  0  0  0  0  0  0  0  0  0
  191.7350  175.9700  144.5840 C   0  0  0  0  0  1  0  0  0  0  0  0
  189.4830  176.7990  138.3590 N   0  0  0  0  0  0  0  0  0  0  0  0
  190.8440  174.8490  137.6790 C   0  0  0  0  0  3  0  0  0  0  0  0
  193.1880  176.3390  137.9480 C   0  0  0  0  0  3  0  0  0  0  0  0
  191.9510  176.9280  138.2180 C   0  0  0  0  0  3  0  0  0  0  0  0
  192.0820  174.2580  137.4130 C   0  0  0  0  0  3  0  0  0  0  0  0
  190.7620  176.1910  138.0840 C   0  0  0  0  0  0  0  0  0  0  0  0
  193.2630  174.9990  137.5440 C   0  0  0  0  0  0  0  0  0  0  0  0
  194.6610  173.5090  136.3440 O   0  0  0  0  0  0  0  0  0  0  0  0
  194.5680  174.3810  137.2510 C   0  0  0  0  0  0  0  0  0  0  0  0
  196.2290  174.0500  138.9370 C   0  0  0  0  0  2  0  0  0  0  0  0
  195.7280  174.7780  137.9920 N   0  0  0  0  0  0  0  0  0  0  0  0
  188.2710  176.2990  137.7000 C   0  0  0  0  0  2  0  0  0  0  0  0
  188.2720  176.6390  136.2440 C   0  0  0  0  0  3  0  0  0  0  0  0
  187.9690  177.8210  135.8510 N   0  0  0  0  0  2  0  0  0  0  0  0
  1  8  1  0  0  0  0
  2  9  2  0  0  0  0
  3 11  1  0  0  0  0
  3  2  1  0  0  0  0
  4  2  1  0  0  0  0
  4  1  2  0  0  0  0
  6 21  1  6  0  0  0
  6  4  1  0  0  0  0
  7  6  1  0  0  0  0
  7  3  2  0  0  0  0
  8  5  2  0  0  0  0
  8 19  1  0  0  0  0
  9  5  1  0  0  0  0
 10 12  1  0  0  0  0
 10 11  2  0  0  0  0
 12 13  1  0  0  0  0
 13 14  1  1  0  0  0
 16 15  1  0  0  0  0
 16 13  1  0  0  0  0
 17 16  1  0  0  0  0
 18 16  1  0  0  0  0
 19 20  1  0  0  0  0
 22 26  1  0  0  0  0
 23 24  1  0  0  0  0
 25 27  1  0  0  0  0
 25 22  2  0  0  0  0
 26 24  2  0  0  0  0
 26 21  1  0  0  0  0
 27 23  2  0  0  0  0
 28 29  2  0  0  0  0
 29 27  1  0  0  0  0
 29 31  1  0  0  0  0
 31 30  2  0  0  0  0
 32 21  1  0  0  0  0
 33 32  1  0  0  0  0
 34 33  2  0  0  0  0
M  END
>  <MODEL>
5

>  <REMARK>
 VINA RESULT:      -7.8      4.601      7.331
  Name = 
  11 active torsions:
  status: ('A' for Active; 'I' for Inactive)
    1  A    between atoms: C_1  and  O_11
    2  A    between atoms: N_2  and  C_17
    3  A    between atoms: O_3  and  C_30
    4  A    between atoms: C_8  and  C_9
    5  A    between atoms: C_8  and  O_11
    6  A    between atoms: C_10  and  C_13
    7  A    between atoms: C_10  and  N_21
    8  A    between atoms: N_21  and  C_24
    9  A    between atoms: N_21  and  C_28
   10  A    between atoms: N_22  and  C_26
   11  A    between atoms: C_26  and  C_34
                            x       y       z     vdW  Elec       q    Type
                         _______ _______ _______ _____ _____    ______ ____

>  <TORSDO>
F 11

$$$$
=
 OpenBabel10222421283D

 34 36  0  0  1  0  0  0  0  0999 V2000
  187.7600  178.4030  141.0910 C   0  0  0  0  0  3  0  0  0  0  0  0
  189.5450  177.5970  139.6890 C   0  0  0  0  0  0  0  0  0  0  0  0
  190.9310  177.2370  139.8670 C   0  0  0  0  0  0  0  0  0  0  0  0
  189.0780  177.9810  140.9160 C   0  0  0  0  0  0  0  0  0  0  0  0
  187.4020  178.0130  138.7060 C   0  0  0  0  0  3  0  0  0  0  0  0
  190.1850  177.8700  141.9130 C   0  0  2  0  0  3  0  0  0  0  0  0
  191.3100  177.3800  141.1010 N   0  0  0  0  0  0  0  0  0  0  0  0
  186.9080  178.4180  139.9650 C   0  0  0  0  0  0  0  0  0  0  0  0
  188.7350  177.5970  138.5550 C   0  0  0  0  0  3  0  0  0  0  0  0
  193.0730  176.7180  138.9560 C   0  0  0  0  0  3  0  0  0  0  0  0
  191.7880  176.7780  138.8200 N   0  0  0  0  0  0  0  0  0  0  0  0
  193.8620  176.2620  137.9080 O   0  0  0  0  0  0  0  0  0  0  0  0
  194.0050  174.8700  137.6650 C   0  0  2  0  0  3  0  0  0  0  0  0
  192.8640  174.2010  138.0790 F   0  0  0  0  0  0  0  0  0  0  0  0
  195.0390  172.9960  138.7130 F   0  0  0  0  0  0  0  0  0  0  0  0
  195.2240  174.3320  138.4000 C   0  0  0  0  0  0  0  0  0  0  0  0
  195.4180  175.0520  139.5640 F   0  0  0  0  0  0  0  0  0  0  0  0
  196.3430  174.4630  137.5990 F   0  0  0  0  0  0  0  0  0  0  0  0
  185.5760  178.8280  140.0650 O   0  0  0  0  0  0  0  0  0  0  0  0
  184.7020  178.8790  138.9450 C   0  0  0  0  0  1  0  0  0  0  0  0
  189.8470  176.9150  142.9760 N   0  0  0  0  0  0  0  0  0  0  0  0
  187.5360  176.9510  143.8590 C   0  0  0  0  0  3  0  0  0  0  0  0
  188.3810  178.3410  146.1270 C   0  0  0  0  0  3  0  0  0  0  0  0
  189.3040  177.9870  145.1400 C   0  0  0  0  0  3  0  0  0  0  0  0
  186.6120  177.3090  144.8440 C   0  0  0  0  0  3  0  0  0  0  0  0
  188.8940  177.2850  143.9940 C   0  0  0  0  0  0  0  0  0  0  0  0
  187.0270  178.0050  145.9860 C   0  0  0  0  0  0  0  0  0  0  0  0
  186.4570  178.6210  148.2020 O   0  0  0  0  0  0  0  0  0  0  0  0
  186.0560  178.3720  147.0310 C   0  0  0  0  0  0  0  0  0  0  0  0
  184.2370  178.7910  145.5400 C   0  0  0  0  0  2  0  0  0  0  0  0
  184.6610  178.4510  146.7140 N   0  0  0  0  0  0  0  0  0  0  0  0
  190.4230  175.5660  142.9600 C   0  0  0  0  0  2  0  0  0  0  0  0
  191.7170  175.5240  143.7080 C   0  0  0  0  0  3  0  0  0  0  0  0
  191.7510  175.7810  144.9640 N   0  0  0  0  0  2  0  0  0  0  0  0
  2  3  1  0  0  0  0
  2  4  2  0  0  0  0
  3  7  2  0  0  0  0
  4  1  1  0  0  0  0
  4  6  1  0  0  0  0
  5  8  1  0  0  0  0
  6 21  1  1  0  0  0
  7  6  1  0  0  0  0
  8 19  1  0  0  0  0
  8  1  2  0  0  0  0
  9  5  2  0  0  0  0
  9  2  1  0  0  0  0
 11 10  2  0  0  0  0
 11  3  1  0  0  0  0
 12 10  1  0  0  0  0
 13 12  1  0  0  0  0
 13 14  1  1  0  0  0
 13 16  1  0  0  0  0
 16 15  1  0  0  0  0
 16 17  1  0  0  0  0
 18 16  1  0  0  0  0
 20 19  1  0  0  0  0
 21 26  1  0  0  0  0
 22 26  2  0  0  0  0
 22 25  1  0  0  0  0
 24 23  2  0  0  0  0
 25 27  2  0  0  0  0
 26 24  1  0  0  0  0
 27 23  1  0  0  0  0
 27 29  1  0  0  0  0
 29 28  2  0  0  0  0
 30 31  2  0  0  0  0
 31 29  1  0  0  0  0
 32 21  1  0  0  0  0
 32 33  1  0  0  0  0
 33 34  2  0  0  0  0
M  END
>  <MODEL>
6

>  <REMARK>
 VINA RESULT:      -7.7      3.752      7.773
  Name = 
  11 active torsions:
  status: ('A' for Active; 'I' for Inactive)
    1  A    between atoms: C_1  and  O_11
    2  A    between atoms: N_2  and  C_17
    3  A    between atoms: O_3  and  C_30
    4  A    between atoms: C_8  and  C_9
    5  A    between atoms: C_8  and  O_11
    6  A    between atoms: C_10  and  C_13
    7  A    between atoms: C_10  and  N_21
    8  A    between atoms: N_21  and  C_24
    9  A    between atoms: N_21  and  C_28
   10  A    between atoms: N_22  and  C_26
   11  A    between atoms: C_26  and  C_34
                            x       y       z     vdW  Elec       q    Type
                         _______ _______ _______ _____ _____    ______ ____

>  <TORSDO>
F 11

$$$$
=
 OpenBabel10222421283D

 34 36  0  0  1  0  0  0  0  0999 V2000
  183.8520  178.5150  141.1750 C   0  0  0  0  0  3  0  0  0  0  0  0
  185.8600  178.4390  139.8470 C   0  0  0  0  0  0  0  0  0  0  0  0
  187.2590  178.7340  140.0500 C   0  0  0  0  0  0  0  0  0  0  0  0
  185.2290  178.6930  141.0330 C   0  0  0  0  0  0  0  0  0  0  0  0
  183.7860  177.7930  138.8420 C   0  0  0  0  0  3  0  0  0  0  0  0
  186.2380  179.1640  142.0280 C   0  0  2  0  0  3  0  0  0  0  0  0
  187.4930  179.1380  141.2620 N   0  0  0  0  0  0  0  0  0  0  0  0
  183.1190  178.0570  140.0580 C   0  0  0  0  0  0  0  0  0  0  0  0
  185.1720  177.9840  138.7240 C   0  0  0  0  0  3  0  0  0  0  0  0
  189.1720  177.6750  139.0990 C   0  0  0  0  0  3  0  0  0  0  0  0
  188.2680  178.5980  139.0470 N   0  0  0  0  0  0  0  0  0  0  0  0
  190.1290  177.5840  138.0970 O   0  0  0  0  0  0  0  0  0  0  0  0
  190.5360  176.3180  137.5980 C   0  0  2  0  0  3  0  0  0  0  0  0
  189.7240  175.3240  138.1220 F   0  0  0  0  0  0  0  0  0  0  0  0
  192.3020  176.6790  139.1590 F   0  0  0  0  0  0  0  0  0  0  0  0
  191.9890  176.0530  137.9640 C   0  0  0  0  0  0  0  0  0  0  0  0
  192.8150  176.5350  136.9660 F   0  0  0  0  0  0  0  0  0  0  0  0
  192.1920  174.6920  138.0960 F   0  0  0  0  0  0  0  0  0  0  0  0
  181.7390  177.8560  140.1260 O   0  0  0  0  0  0  0  0  0  0  0  0
  180.8550  178.7970  140.7200 C   0  0  0  0  0  1  0  0  0  0  0  0
  186.3070  178.2580  143.1830 N   0  0  0  0  0  0  0  0  0  0  0  0
  188.2230  176.7310  142.8400 C   0  0  0  0  0  3  0  0  0  0  0  0
  189.4390  177.6670  145.1710 C   0  0  0  0  0  3  0  0  0  0  0  0
  188.2030  178.1830  144.7710 C   0  0  0  0  0  3  0  0  0  0  0  0
  189.4560  176.2120  143.2420 C   0  0  0  0  0  3  0  0  0  0  0  0
  187.5810  177.7240  143.5990 C   0  0  0  0  0  0  0  0  0  0  0  0
  190.0740  176.6770  144.4090 C   0  0  0  0  0  0  0  0  0  0  0  0
  191.9850  175.3120  144.0900 O   0  0  0  0  0  0  0  0  0  0  0  0
  191.3810  176.1400  144.8270 C   0  0  0  0  0  0  0  0  0  0  0  0
  192.0330  175.7880  147.0990 C   0  0  0  0  0  2  0  0  0  0  0  0
  191.9640  176.5640  146.0650 N   0  0  0  0  0  0  0  0  0  0  0  0
  185.0930  177.9560  143.9500 C   0  0  0  0  0  2  0  0  0  0  0  0
  184.7180  179.1010  144.8350 C   0  0  0  0  0  3  0  0  0  0  0  0
  183.6880  179.0270  145.5950 N   0  0  0  0  0  2  0  0  0  0  0  0
  2  3  1  0  0  0  0
  2  4  2  0  0  0  0
  3  7  2  0  0  0  0
  4  1  1  0  0  0  0
  4  6  1  0  0  0  0
  5  8  1  0  0  0  0
  6 21  1  1  0  0  0
  7  6  1  0  0  0  0
  8 19  1  0  0  0  0
  8  1  2  0  0  0  0
  9  5  2  0  0  0  0
  9  2  1  0  0  0  0
 11 10  2  0  0  0  0
 11  3  1  0  0  0  0
 12 10  1  0  0  0  0
 13 16  1  0  0  0  0
 13 12  1  0  0  0  0
 13 14  1  1  0  0  0
 16 18  1  0  0  0  0
 16 15  1  0  0  0  0
 17 16  1  0  0  0  0
 19 20  1  0  0  0  0
 21 26  1  0  0  0  0
 21 32  1  0  0  0  0
 22 25  2  0  0  0  0
 22 26  1  0  0  0  0
 24 23  1  0  0  0  0
 25 27  1  0  0  0  0
 26 24  2  0  0  0  0
 27 29  1  0  0  0  0
 27 23  2  0  0  0  0
 28 29  2  0  0  0  0
 29 31  1  0  0  0  0
 31 30  2  0  0  0  0
 32 33  1  0  0  0  0
 33 34  2  0  0  0  0
M  END
>  <MODEL>
7

>  <REMARK>
 VINA RESULT:      -7.7      3.599      6.343
  Name = 
  11 active torsions:
  status: ('A' for Active; 'I' for Inactive)
    1  A    between atoms: C_1  and  O_11
    2  A    between atoms: N_2  and  C_17
    3  A    between atoms: O_3  and  C_30
    4  A    between atoms: C_8  and  C_9
    5  A    between atoms: C_8  and  O_11
    6  A    between atoms: C_10  and  C_13
    7  A    between atoms: C_10  and  N_21
    8  A    between atoms: N_21  and  C_24
    9  A    between atoms: N_21  and  C_28
   10  A    between atoms: N_22  and  C_26
   11  A    between atoms: C_26  and  C_34
                            x       y       z     vdW  Elec       q    Type
                         _______ _______ _______ _____ _____    ______ ____

>  <TORSDO>
F 11

$$$$
=
 OpenBabel10222421283D

 34 36  0  0  1  0  0  0  0  0999 V2000
  186.5890  177.6480  143.7200 C   0  0  0  0  0  3  0  0  0  0  0  0
  188.0410  177.4290  145.6290 C   0  0  0  0  0  0  0  0  0  0  0  0
  189.4100  177.0330  145.8600 C   0  0  0  0  0  0  0  0  0  0  0  0
  187.8280  177.3390  144.2810 C   0  0  0  0  0  0  0  0  0  0  0  0
  185.7870  178.1590  145.9700 C   0  0  0  0  0  3  0  0  0  0  0  0
  189.0860  176.8740  143.6220 C   0  0  2  0  0  3  0  0  0  0  0  0
  190.0130  176.7210  144.7530 N   0  0  0  0  0  0  0  0  0  0  0  0
  185.5510  178.0650  144.5810 C   0  0  0  0  0  0  0  0  0  0  0  0
  187.0430  177.8380  146.5110 C   0  0  0  0  0  3  0  0  0  0  0  0
  191.3150  177.0730  147.2940 C   0  0  0  0  0  3  0  0  0  0  0  0
  190.0330  176.9890  147.1450 N   0  0  0  0  0  0  0  0  0  0  0  0
  191.8700  177.0280  148.5660 O   0  0  0  0  0  0  0  0  0  0  0  0
  193.0530  176.2810  148.8120 C   0  0  2  0  0  3  0  0  0  0  0  0
  192.7520  174.9280  148.8620 F   0  0  0  0  0  0  0  0  0  0  0  0
  195.0560  176.8760  149.9580 F   0  0  0  0  0  0  0  0  0  0  0  0
  193.6900  176.7230  150.1210 C   0  0  0  0  0  0  0  0  0  0  0  0
  193.4490  175.7760  151.0980 F   0  0  0  0  0  0  0  0  0  0  0  0
  193.1400  177.9290  150.5180 F   0  0  0  0  0  0  0  0  0  0  0  0
  184.2840  178.3910  144.0900 O   0  0  0  0  0  0  0  0  0  0  0  0
  183.4640  179.3890  144.6830 C   0  0  0  0  0  1  0  0  0  0  0  0
  189.5820  177.8720  142.6640 N   0  0  0  0  0  0  0  0  0  0  0  0
  188.2040  178.2910  140.6530 C   0  0  0  0  0  3  0  0  0  0  0  0
  189.9510  176.7760  139.0900 C   0  0  0  0  0  3  0  0  0  0  0  0
  190.1970  176.9380  140.4560 C   0  0  0  0  0  3  0  0  0  0  0  0
  187.9560  178.1250  139.2880 C   0  0  0  0  0  3  0  0  0  0  0  0
  189.3270  177.7000  141.2540 C   0  0  0  0  0  0  0  0  0  0  0  0
  188.8270  177.3680  138.4960 C   0  0  0  0  0  0  0  0  0  0  0  0
  189.1300  177.9770  136.2260 O   0  0  0  0  0  0  0  0  0  0  0  0
  188.5740  177.2040  137.0540 C   0  0  0  0  0  0  0  0  0  0  0  0
  187.9850  174.9090  136.7440 C   0  0  0  0  0  2  0  0  0  0  0  0
  187.7020  176.1630  136.5970 N   0  0  0  0  0  0  0  0  0  0  0  0
  190.2720  179.0720  143.1490 C   0  0  0  0  0  2  0  0  0  0  0  0
  191.7230  178.8000  143.3850 C   0  0  0  0  0  3  0  0  0  0  0  0
  192.2760  179.1300  144.4940 N   0  0  0  0  0  2  0  0  0  0  0  0
  1  4  2  0  0  0  0
  1  8  1  0  0  0  0
  2  3  1  0  0  0  0
  2  9  2  0  0  0  0
  3 11  1  0  0  0  0
  4  2  1  0  0  0  0
  5  9  1  0  0  0  0
  6 21  1  6  0  0  0
  6  4  1  0  0  0  0
  6  7  1  0  0  0  0
  7  3  2  0  0  0  0
  8  5  2  0  0  0  0
 10 12  1  0  0  0  0
 11 10  2  0  0  0  0
 12 13  1  0  0  0  0
 13 14  1  1  0  0  0
 13 16  1  0  0  0  0
 15 16  1  0  0  0  0
 16 18  1  0  0  0  0
 16 17  1  0  0  0  0
 19  8  1  0  0  0  0
 19 20  1  0  0  0  0
 21 32  1  0  0  0  0
 22 26  1  0  0  0  0
 23 24  1  0  0  0  0
 24 26  2  0  0  0  0
 25 22  2  0  0  0  0
 26 21  1  0  0  0  0
 27 23  2  0  0  0  0
 27 25  1  0  0  0  0
 28 29  2  0  0  0  0
 29 27  1  0  0  0  0
 31 30  2  0  0  0  0
 31 29  1  0  0  0  0
 32 33  1  0  0  0  0
 33 34  2  0  0  0  0
M  END
>  <MODEL>
8

>  <REMARK>
 VINA RESULT:      -7.6      2.347      3.496
  Name = 
  11 active torsions:
  status: ('A' for Active; 'I' for Inactive)
    1  A    between atoms: C_1  and  O_11
    2  A    between atoms: N_2  and  C_17
    3  A    between atoms: O_3  and  C_30
    4  A    between atoms: C_8  and  C_9
    5  A    between atoms: C_8  and  O_11
    6  A    between atoms: C_10  and  C_13
    7  A    between atoms: C_10  and  N_21
    8  A    between atoms: N_21  and  C_24
    9  A    between atoms: N_21  and  C_28
   10  A    between atoms: N_22  and  C_26
   11  A    between atoms: C_26  and  C_34
                            x       y       z     vdW  Elec       q    Type
                         _______ _______ _______ _____ _____    ______ ____

>  <TORSDO>
F 11

$$$$
=
 OpenBabel10222421283D

 34 36  0  0  1  0  0  0  0  0999 V2000
  185.8370  178.9170  143.6480 C   0  0  0  0  0  3  0  0  0  0  0  0
  185.0400  178.7680  141.3810 C   0  0  0  0  0  0  0  0  0  0  0  0
  185.6290  178.7930  140.0630 C   0  0  0  0  0  0  0  0  0  0  0  0
  186.0680  178.8960  142.2730 C   0  0  0  0  0  0  0  0  0  0  0  0
  183.4550  178.6580  143.1710 C   0  0  0  0  0  3  0  0  0  0  0  0
  187.3540  179.0080  141.5190 C   0  0  2  0  0  3  0  0  0  0  0  0
  186.9200  178.9240  140.1160 N   0  0  0  0  0  0  0  0  0  0  0  0
  184.5060  178.7950  144.1040 C   0  0  0  0  0  0  0  0  0  0  0  0
  183.7150  178.6430  141.7910 C   0  0  0  0  0  3  0  0  0  0  0  0
  184.9240  177.6240  138.1070 C   0  0  0  0  0  3  0  0  0  0  0  0
  184.8890  178.6860  138.8450 N   0  0  0  0  0  0  0  0  0  0  0  0
  184.1850  177.5690  136.9330 O   0  0  0  0  0  0  0  0  0  0  0  0
  182.9040  176.9550  136.9140 C   0  0  2  0  0  3  0  0  0  0  0  0
  182.9390  175.8200  136.1180 F   0  0  0  0  0  0  0  0  0  0  0  0
  180.6130  177.3360  136.3790 F   0  0  0  0  0  0  0  0  0  0  0  0
  181.8630  177.9310  136.3870 C   0  0  0  0  0  0  0  0  0  0  0  0
  182.1950  178.3160  135.1020 F   0  0  0  0  0  0  0  0  0  0  0  0
  181.8290  179.0520  137.1970 F   0  0  0  0  0  0  0  0  0  0  0  0
  184.1990  178.8080  145.4670 O   0  0  0  0  0  0  0  0  0  0  0  0
  185.1410  178.4470  146.4690 C   0  0  0  0  0  1  0  0  0  0  0  0
  188.2640  177.9060  141.8560 N   0  0  0  0  0  0  0  0  0  0  0  0
  189.9160  178.4370  143.6190 C   0  0  0  0  0  3  0  0  0  0  0  0
  188.5460  176.8300  145.4440 C   0  0  0  0  0  3  0  0  0  0  0  0
  188.0740  176.9600  144.1350 C   0  0  0  0  0  3  0  0  0  0  0  0
  190.3900  178.3040  144.9260 C   0  0  0  0  0  3  0  0  0  0  0  0
  188.7520  177.7670  143.2070 C   0  0  0  0  0  0  0  0  0  0  0  0
  189.7090  177.5010  145.8490 C   0  0  0  0  0  0  0  0  0  0  0  0
  189.4320  177.6300  148.1990 O   0  0  0  0  0  0  0  0  0  0  0  0
  190.2000  177.3700  147.2320 C   0  0  0  0  0  0  0  0  0  0  0  0
  191.9800  175.7810  147.1040 C   0  0  0  0  0  2  0  0  0  0  0  0
  191.5460  176.9420  147.4730 N   0  0  0  0  0  0  0  0  0  0  0  0
  188.6170  176.9100  140.8380 C   0  0  0  0  0  2  0  0  0  0  0  0
  189.7990  177.3550  140.0370 C   0  0  0  0  0  3  0  0  0  0  0  0
  190.9800  177.2900  140.5300 N   0  0  0  0  0  2  0  0  0  0  0  0
  1  8  1  0  0  0  0
  2  9  2  0  0  0  0
  2  4  1  0  0  0  0
  3  7  2  0  0  0  0
  3  2  1  0  0  0  0
  4  1  2  0  0  0  0
  5  8  2  0  0  0  0
  6 21  1  1  0  0  0
  6  4  1  0  0  0  0
  7  6  1  0  0  0  0
  8 19  1  0  0  0  0
  9  5  1  0  0  0  0
 10 11  2  0  0  0  0
 11  3  1  0  0  0  0
 12 10  1  0  0  0  0
 13 14  1  6  0  0  0
 13 12  1  0  0  0  0
 15 16  1  0  0  0  0
 16 13  1  0  0  0  0
 16 18  1  0  0  0  0
 17 16  1  0  0  0  0
 19 20  1  0  0  0  0
 21 26  1  0  0  0  0
 22 25  1  0  0  0  0
 23 27  1  0  0  0  0
 24 23  2  0  0  0  0
 25 27  2  0  0  0  0
 26 22  2  0  0  0  0
 26 24  1  0  0  0  0
 27 29  1  0  0  0  0
 29 31  1  0  0  0  0
 29 28  2  0  0  0  0
 30 31  2  0  0  0  0
 32 21  1  0  0  0  0
 33 34  2  0  0  0  0
 33 32  1  0  0  0  0
M  END
>  <MODEL>
9

>  <REMARK>
 VINA RESULT:      -7.5      5.507      8.325
  Name = 
  11 active torsions:
  status: ('A' for Active; 'I' for Inactive)
    1  A    between atoms: C_1  and  O_11
    2  A    between atoms: N_2  and  C_17
    3  A    between atoms: O_3  and  C_30
    4  A    between atoms: C_8  and  C_9
    5  A    between atoms: C_8  and  O_11
    6  A    between atoms: C_10  and  C_13
    7  A    between atoms: C_10  and  N_21
    8  A    between atoms: N_21  and  C_24
    9  A    between atoms: N_21  and  C_28
   10  A    between atoms: N_22  and  C_26
   11  A    between atoms: C_26  and  C_34
                            x       y       z     vdW  Elec       q    Type
                         _______ _______ _______ _____ _____    ______ ____

>  <TORSDO>
F 11

$$$$
