=
 OpenBabel10222421473D

 31 36  0  0  1  0  0  0  0  0999 V2000
  191.4610  178.4210  144.4080 O   0  0  0  0  0  0  0  0  0  0  0  0
  191.3720  176.8630  142.4670 C   0  0  1  0  0  3  0  0  0  0  0  0
  190.6200  177.7350  143.4830 C   0  0  2  0  0  0  0  0  0  0  0  0
  189.2540  177.3160  143.9840 C   0  0  2  0  0  0  0  0  0  0  0  0
  191.1820  175.6800  143.3700 C   0  0  0  0  0  2  0  0  0  0  0  0
  190.4940  176.5730  144.4030 C   0  0  1  0  0  0  0  0  0  0  0  0
  191.9340  177.0530  146.4460 O   0  0  0  0  0  0  0  0  0  0  0  0
  188.4410  176.6510  143.0620 O   0  0  0  0  0  1  0  0  0  0  0  0
  191.4130  177.3050  145.3260 C   0  0  0  0  0  0  0  0  0  0  0  0
  188.5730  178.2280  144.9940 C   0  0  0  0  0  2  0  0  0  0  0  0
  186.3370  177.7910  146.0820 C   0  0  0  0  0  0  0  0  0  0  0  0
  185.6020  177.0150  146.8110 N   0  0  0  0  0  2  0  0  0  0  0  0
  187.7060  177.4470  145.8640 N   0  0  0  0  0  2  0  0  0  0  0  0
  185.2300  178.6880  144.1030 C   0  0  0  0  0  0  0  0  0  0  0  0
  183.9610  179.0360  144.5900 C   0  0  1  0  0  0  0  0  0  0  0  0
  185.4620  178.2770  142.8040 C   0  0  0  0  0  3  0  0  0  0  0  0
  185.7390  179.0010  145.4070 C   0  0  1  0  0  0  0  0  0  0  0  0
  182.8100  179.0020  143.8250 C   0  0  0  0  0  3  0  0  0  0  0  0
  184.3040  178.2300  141.9860 C   0  0  0  0  0  2  0  0  0  0  0  0
  184.4600  179.3170  145.9370 N   0  0  0  0  0  2  0  0  0  0  0  0
  183.0090  178.5820  142.4850 C   0  0  0  0  0  3  0  0  0  0  0  0
  190.6070  176.6910  141.1600 C   0  0  0  0  0  2  0  0  0  0  0  0
  191.3070  177.3830  140.0930 N   0  0  0  0  0  2  0  0  0  0  0  0
  190.4890  177.2600  138.9000 C   0  0  0  0  0  2  0  0  0  0  0  0
  189.0770  177.7200  139.2030 C   0  0  1  0  0  3  0  0  0  0  0  0
  188.9930  179.0990  139.0140 O   0  0  0  0  0  1  0  0  0  0  0  0
  188.0980  177.0110  138.2760 C   0  0  0  0  0  2  0  0  0  0  0  0
  187.4040  178.0000  137.3500 C   0  0  1  0  0  3  0  0  0  0  0  0
  187.6230  177.6380  136.0200 O   0  0  0  0  0  1  0  0  0  0  0  0
  185.6070  178.9430  138.6120 O   0  0  0  0  0  1  0  0  0  0  0  0
  185.9110  178.0030  137.6260 C   0  0  0  0  0  2  0  0  0  0  0  0
  1  9  1  0  0  0  0
  2 22  1  6  0  0  0
  2  5  1  0  0  0  0
  2  3  1  0  0  0  0
  3  4  1  0  0  0  0
  3  6  1  0  0  0  0
  3  1  1  1  0  0  0
  4  8  1  6  0  0  0
  4  6  1  0  0  0  0
  4 10  1  0  0  0  0
  6  5  1  6  0  0  0
  6  9  1  0  0  0  0
  9  7  2  0  0  0  0
 10 13  1  0  0  0  0
 11 12  2  0  0  0  0
 13 11  1  0  0  0  0
 14 15  1  0  0  0  0
 14 17  1  0  0  0  0
 15 18  1  6  0  0  0
 15 17  1  0  0  0  0
 15 20  1  0  0  0  0
 16 14  2  0  0  0  0
 17 20  1  0  0  0  0
 17 11  1  1  0  0  0
 19 21  1  0  0  0  0
 19 16  1  0  0  0  0
 21 18  2  0  0  0  0
 23 22  1  0  0  0  0
 24 25  1  0  0  0  0
 24 23  1  0  0  0  0
 25 26  1  6  0  0  0
 27 25  1  0  0  0  0
 28 29  1  6  0  0  0
 28 31  1  0  0  0  0
 28 27  1  0  0  0  0
 31 30  1  0  0  0  0
M  END
>  <MODEL>
1

>  <REMARK>
 VINA RESULT:      -7.3      0.000      0.000
  Name = 
  10 active torsions:
  status: ('A' for Active; 'I' for Inactive)
    1  A    between atoms: C_2  and  C_14
    2  A    between atoms: C_3  and  C_18
    3  A    between atoms: C_3  and  C_30
    4  A    between atoms: C_4  and  C_27
    5  A    between atoms: C_9  and  C_10
    6  A    between atoms: C_10  and  N_25
    7  A    between atoms: C_13  and  C_18
    8  A    between atoms: C_13  and  C_26
    9  A    between atoms: N_19  and  C_27
   10  A    between atoms: N_19  and  C_30
                            x       y       z     vdW  Elec       q    Type
                         _______ _______ _______ _____ _____    ______ ____

>  <TORSDO>
F 10

$$$$
=
 OpenBabel10222421473D

 31 36  0  0  1  0  0  0  0  0999 V2000
  188.4300  175.8440  137.4960 O   0  0  0  0  0  0  0  0  0  0  0  0
  190.0430  176.7690  139.1530 C   0  0  1  0  0  3  0  0  0  0  0  0
  188.5970  176.6730  138.6450 C   0  0  2  0  0  0  0  0  0  0  0  0
  187.6630  177.8570  138.7730 C   0  0  2  0  0  0  0  0  0  0  0  0
  190.2240  178.0190  138.3430 C   0  0  0  0  0  2  0  0  0  0  0  0
  188.8050  177.8750  137.7930 C   0  0  1  0  0  0  0  0  0  0  0  0
  188.7330  177.1150  135.3650 O   0  0  0  0  0  0  0  0  0  0  0  0
  187.8370  178.6530  139.9080 O   0  0  0  0  0  1  0  0  0  0  0  0
  188.6680  176.9660  136.6150 C   0  0  0  0  0  0  0  0  0  0  0  0
  186.2470  177.6880  138.2410 C   0  0  0  0  0  2  0  0  0  0  0  0
  184.4600  179.2470  139.1070 C   0  0  0  0  0  0  0  0  0  0  0  0
  183.9390  180.4320  139.1050 N   0  0  0  0  0  2  0  0  0  0  0  0
  185.5610  178.9720  138.2390 N   0  0  0  0  0  2  0  0  0  0  0  0
  184.3800  178.4630  141.4150 C   0  0  0  0  0  0  0  0  0  0  0  0
  183.0200  178.5870  141.7370 C   0  0  1  0  0  0  0  0  0  0  0  0
  185.3980  178.6000  142.3400 C   0  0  0  0  0  3  0  0  0  0  0  0
  183.9660  178.1950  140.0690 C   0  0  1  0  0  0  0  0  0  0  0  0
  182.5550  178.8620  143.0090 C   0  0  0  0  0  3  0  0  0  0  0  0
  184.9600  178.8830  143.6600 C   0  0  0  0  0  2  0  0  0  0  0  0
  182.5850  178.3570  140.3580 N   0  0  0  0  0  2  0  0  0  0  0  0
  183.5720  179.0120  143.9850 C   0  0  0  0  0  3  0  0  0  0  0  0
  190.1220  177.0600  140.6470 C   0  0  0  0  0  2  0  0  0  0  0  0
  191.5100  177.2430  141.0330 N   0  0  0  0  0  2  0  0  0  0  0  0
  191.5120  177.6500  142.4260 C   0  0  0  0  0  2  0  0  0  0  0  0
  190.6580  176.6940  143.2360 C   0  0  1  0  0  3  0  0  0  0  0  0
  191.4650  175.6790  143.7480 O   0  0  0  0  0  1  0  0  0  0  0  0
  189.9890  177.4480  144.3770 C   0  0  0  0  0  2  0  0  0  0  0  0
  188.4740  177.4370  144.2290 C   0  0  1  0  0  3  0  0  0  0  0  0
  188.0740  176.2900  143.5390 O   0  0  0  0  0  1  0  0  0  0  0  0
  188.7560  177.0830  146.5760 O   0  0  0  0  0  1  0  0  0  0  0  0
  187.8230  177.4420  145.6010 C   0  0  0  0  0  2  0  0  0  0  0  0
  2 22  1  1  0  0  0
  3  1  1  6  0  0  0
  3  4  1  0  0  0  0
  3  2  1  0  0  0  0
  4  8  1  1  0  0  0
  5  2  1  0  0  0  0
  6  5  1  1  0  0  0
  6  3  1  0  0  0  0
  6  4  1  0  0  0  0
  7  9  2  0  0  0  0
  9  1  1  0  0  0  0
  9  6  1  0  0  0  0
 10  4  1  0  0  0  0
 12 11  2  0  0  0  0
 13 10  1  0  0  0  0
 13 11  1  0  0  0  0
 14 15  1  0  0  0  0
 14 16  2  0  0  0  0
 15 18  1  1  0  0  0
 16 19  1  0  0  0  0
 17 11  1  6  0  0  0
 17 20  1  0  0  0  0
 17 14  1  0  0  0  0
 17 15  1  0  0  0  0
 18 21  2  0  0  0  0
 19 21  1  0  0  0  0
 20 15  1  0  0  0  0
 22 23  1  0  0  0  0
 23 24  1  0  0  0  0
 24 25  1  0  0  0  0
 25 26  1  1  0  0  0
 25 27  1  0  0  0  0
 28 29  1  1  0  0  0
 28 27  1  0  0  0  0
 28 31  1  0  0  0  0
 31 30  1  0  0  0  0
M  END
>  <MODEL>
2

>  <REMARK>
 VINA RESULT:      -7.3      2.407      6.093
  Name = 
  10 active torsions:
  status: ('A' for Active; 'I' for Inactive)
    1  A    between atoms: C_2  and  C_14
    2  A    between atoms: C_3  and  C_18
    3  A    between atoms: C_3  and  C_30
    4  A    between atoms: C_4  and  C_27
    5  A    between atoms: C_9  and  C_10
    6  A    between atoms: C_10  and  N_25
    7  A    between atoms: C_13  and  C_18
    8  A    between atoms: C_13  and  C_26
    9  A    between atoms: N_19  and  C_27
   10  A    between atoms: N_19  and  C_30
                            x       y       z     vdW  Elec       q    Type
                         _______ _______ _______ _____ _____    ______ ____

>  <TORSDO>
F 10

$$$$
=
 OpenBabel10222421473D

 31 36  0  0  1  0  0  0  0  0999 V2000
  187.7770  176.4410  138.3540 O   0  0  0  0  0  0  0  0  0  0  0  0
  189.7250  176.8540  136.8590 C   0  0  1  0  0  3  0  0  0  0  0  0
  189.1820  176.6700  138.2840 C   0  0  2  0  0  0  0  0  0  0  0  0
  189.8100  177.4160  139.4420 C   0  0  2  0  0  0  0  0  0  0  0  0
  189.5870  178.3400  137.0190 C   0  0  0  0  0  2  0  0  0  0  0  0
  188.9860  178.1390  138.4110 C   0  0  1  0  0  0  0  0  0  0  0  0
  186.4800  178.5720  138.5030 O   0  0  0  0  0  0  0  0  0  0  0  0
  191.1900  177.6260  139.3580 O   0  0  0  0  0  1  0  0  0  0  0  0
  187.5180  177.8610  138.4370 C   0  0  0  0  0  0  0  0  0  0  0  0
  189.2150  177.1870  140.8230 C   0  0  0  0  0  2  0  0  0  0  0  0
  190.4390  176.5230  142.9290 C   0  0  0  0  0  0  0  0  0  0  0  0
  191.1250  175.6300  143.5660 N   0  0  0  0  0  2  0  0  0  0  0  0
  190.0500  176.2660  141.5780 N   0  0  0  0  0  2  0  0  0  0  0  0
  188.7360  177.6050  144.2960 C   0  0  0  0  0  0  0  0  0  0  0  0
  189.4190  177.8640  145.4940 C   0  0  1  0  0  0  0  0  0  0  0  0
  187.3790  177.3470  144.2330 C   0  0  0  0  0  3  0  0  0  0  0  0
  189.9890  177.7850  143.6240 C   0  0  1  0  0  0  0  0  0  0  0  0
  188.8100  177.8850  146.7350 C   0  0  0  0  0  3  0  0  0  0  0  0
  186.7180  177.3610  145.4880 C   0  0  0  0  0  2  0  0  0  0  0  0
  190.7130  178.0070  144.8250 N   0  0  0  0  0  2  0  0  0  0  0  0
  187.4180  177.6220  146.7100 C   0  0  0  0  0  3  0  0  0  0  0  0
  191.1870  176.4440  136.7300 C   0  0  0  0  0  2  0  0  0  0  0  0
  191.2890  174.9960  136.7610 N   0  0  0  0  0  2  0  0  0  0  0  0
  192.3200  174.6650  137.7290 C   0  0  0  0  0  2  0  0  0  0  0  0
  193.5750  175.4590  137.4250 C   0  0  1  0  0  3  0  0  0  0  0  0
  193.9180  176.2200  138.5420 O   0  0  0  0  0  1  0  0  0  0  0  0
  194.7120  174.5060  137.0800 C   0  0  0  0  0  2  0  0  0  0  0  0
  195.6800  174.3630  138.2460 C   0  0  1  0  0  3  0  0  0  0  0  0
  195.3680  173.2190  138.9840 O   0  0  0  0  0  1  0  0  0  0  0  0
  197.8600  175.3370  138.1450 O   0  0  0  0  0  1  0  0  0  0  0  0
  197.1010  174.2430  137.7240 C   0  0  0  0  0  2  0  0  0  0  0  0
  1  9  1  0  0  0  0
  2 22  1  1  0  0  0
  2  5  1  0  0  0  0
  2  3  1  0  0  0  0
  3  1  1  1  0  0  0
  3  6  1  0  0  0  0
  3  4  1  0  0  0  0
  4  8  1  6  0  0  0
  4 10  1  0  0  0  0
  6  5  1  6  0  0  0
  6  9  1  0  0  0  0
  6  4  1  0  0  0  0
  9  7  2  0  0  0  0
 10 13  1  0  0  0  0
 11 12  2  0  0  0  0
 13 11  1  0  0  0  0
 14 15  1  0  0  0  0
 15 18  1  6  0  0  0
 16 14  2  0  0  0  0
 16 19  1  0  0  0  0
 17 11  1  1  0  0  0
 17 14  1  0  0  0  0
 17 20  1  0  0  0  0
 17 15  1  0  0  0  0
 19 21  1  0  0  0  0
 20 15  1  0  0  0  0
 21 18  2  0  0  0  0
 22 23  1  0  0  0  0
 23 24  1  0  0  0  0
 25 24  1  0  0  0  0
 25 26  1  1  0  0  0
 27 25  1  0  0  0  0
 27 28  1  0  0  0  0
 28 29  1  6  0  0  0
 31 30  1  0  0  0  0
 31 28  1  0  0  0  0
M  END
>  <MODEL>
3

>  <REMARK>
 VINA RESULT:      -7.2      3.745      6.672
  Name = 
  10 active torsions:
  status: ('A' for Active; 'I' for Inactive)
    1  A    between atoms: C_2  and  C_14
    2  A    between atoms: C_3  and  C_18
    3  A    between atoms: C_3  and  C_30
    4  A    between atoms: C_4  and  C_27
    5  A    between atoms: C_9  and  C_10
    6  A    between atoms: C_10  and  N_25
    7  A    between atoms: C_13  and  C_18
    8  A    between atoms: C_13  and  C_26
    9  A    between atoms: N_19  and  C_27
   10  A    between atoms: N_19  and  C_30
                            x       y       z     vdW  Elec       q    Type
                         _______ _______ _______ _____ _____    ______ ____

>  <TORSDO>
F 10

$$$$
=
 OpenBabel10222421473D

 31 36  0  0  1  0  0  0  0  0999 V2000
  189.6630  177.9690  137.0970 O   0  0  0  0  0  0  0  0  0  0  0  0
  187.1810  177.9710  137.2940 C   0  0  1  0  0  3  0  0  0  0  0  0
  188.5500  178.0530  137.9840 C   0  0  2  0  0  0  0  0  0  0  0  0
  188.7400  177.4810  139.3730 C   0  0  2  0  0  0  0  0  0  0  0  0
  187.1570  176.4950  137.5580 C   0  0  0  0  0  2  0  0  0  0  0  0
  188.5500  176.5790  138.1830 C   0  0  1  0  0  0  0  0  0  0  0  0
  190.3820  175.6070  136.7080 O   0  0  0  0  0  0  0  0  0  0  0  0
  187.6410  177.5780  140.2300 O   0  0  0  0  0  1  0  0  0  0  0  0
  189.6870  176.5280  137.2150 C   0  0  0  0  0  0  0  0  0  0  0  0
  190.1270  177.5940  139.9890 C   0  0  0  0  0  2  0  0  0  0  0  0
  190.2910  176.4600  142.2380 C   0  0  0  0  0  0  0  0  0  0  0  0
  190.4800  175.3690  142.9080 N   0  0  0  0  0  2  0  0  0  0  0  0
  190.4000  176.4270  140.8140 N   0  0  0  0  0  2  0  0  0  0  0  0
  188.6890  177.5550  143.7140 C   0  0  0  0  0  0  0  0  0  0  0  0
  189.4610  177.8430  144.8500 C   0  0  1  0  0  0  0  0  0  0  0  0
  187.3340  177.2850  143.7610 C   0  0  0  0  0  3  0  0  0  0  0  0
  189.8840  177.7310  142.9430 C   0  0  1  0  0  0  0  0  0  0  0  0
  188.9500  177.8830  146.1340 C   0  0  0  0  0  3  0  0  0  0  0  0
  186.7720  177.3180  145.0640 C   0  0  0  0  0  2  0  0  0  0  0  0
  190.6970  177.9820  144.0790 N   0  0  0  0  0  2  0  0  0  0  0  0
  187.5620  177.6090  146.2210 C   0  0  0  0  0  3  0  0  0  0  0  0
  186.0860  178.6910  138.0730 C   0  0  0  0  0  2  0  0  0  0  0  0
  184.9650  177.7910  138.2790 N   0  0  0  0  0  2  0  0  0  0  0  0
  183.7660  178.6080  138.3050 C   0  0  0  0  0  2  0  0  0  0  0  0
  183.5030  179.0790  139.7220 C   0  0  1  0  0  3  0  0  0  0  0  0
  182.1720  179.4790  139.8330 O   0  0  0  0  0  1  0  0  0  0  0  0
  183.7860  177.9450  140.6990 C   0  0  0  0  0  2  0  0  0  0  0  0
  184.6260  178.4280  141.8720 C   0  0  1  0  0  3  0  0  0  0  0  0
  185.3450  179.5670  141.5030 O   0  0  0  0  0  1  0  0  0  0  0  0
  184.3300  179.7360  143.8500 O   0  0  0  0  0  1  0  0  0  0  0  0
  183.7250  178.7680  143.0460 C   0  0  0  0  0  2  0  0  0  0  0  0
  1  9  1  0  0  0  0
  2  5  1  0  0  0  0
  2  3  1  0  0  0  0
  2 22  1  1  0  0  0
  3  1  1  6  0  0  0
  3  6  1  0  0  0  0
  3  4  1  0  0  0  0
  4 10  1  0  0  0  0
  4  8  1  1  0  0  0
  6  5  1  6  0  0  0
  6  4  1  0  0  0  0
  7  9  2  0  0  0  0
  9  6  1  0  0  0  0
 10 13  1  0  0  0  0
 11 12  2  0  0  0  0
 13 11  1  0  0  0  0
 14 16  2  0  0  0  0
 14 15  1  0  0  0  0
 15 18  1  6  0  0  0
 16 19  1  0  0  0  0
 17 11  1  1  0  0  0
 17 14  1  0  0  0  0
 17 20  1  0  0  0  0
 17 15  1  0  0  0  0
 18 21  2  0  0  0  0
 19 21  1  0  0  0  0
 20 15  1  0  0  0  0
 22 23  1  0  0  0  0
 23 24  1  0  0  0  0
 24 25  1  0  0  0  0
 25 26  1  6  0  0  0
 25 27  1  0  0  0  0
 27 28  1  0  0  0  0
 28 29  1  6  0  0  0
 28 31  1  0  0  0  0
 31 30  1  0  0  0  0
M  END
>  <MODEL>
4

>  <REMARK>
 VINA RESULT:      -7.2      2.813      6.075
  Name = 
  10 active torsions:
  status: ('A' for Active; 'I' for Inactive)
    1  A    between atoms: C_2  and  C_14
    2  A    between atoms: C_3  and  C_18
    3  A    between atoms: C_3  and  C_30
    4  A    between atoms: C_4  and  C_27
    5  A    between atoms: C_9  and  C_10
    6  A    between atoms: C_10  and  N_25
    7  A    between atoms: C_13  and  C_18
    8  A    between atoms: C_13  and  C_26
    9  A    between atoms: N_19  and  C_27
   10  A    between atoms: N_19  and  C_30
                            x       y       z     vdW  Elec       q    Type
                         _______ _______ _______ _____ _____    ______ ____

>  <TORSDO>
F 10

$$$$
=
 OpenBabel10222421473D

 31 36  0  0  1  0  0  0  0  0999 V2000
  184.6180  178.0960  146.6570 O   0  0  0  0  0  0  0  0  0  0  0  0
  183.4220  178.9300  144.6380 C   0  0  1  0  0  3  0  0  0  0  0  0
  184.5560  178.0830  145.2320 C   0  0  2  0  0  0  0  0  0  0  0  0
  185.8710  177.9430  144.4940 C   0  0  2  0  0  0  0  0  0  0  0  0
  184.3790  180.0760  144.4910 C   0  0  0  0  0  2  0  0  0  0  0  0
  185.4830  179.2440  145.1440 C   0  0  1  0  0  0  0  0  0  0  0  0
  186.0250  179.9720  147.5220 O   0  0  0  0  0  0  0  0  0  0  0  0
  185.7900  177.9260  143.0980 O   0  0  0  0  0  1  0  0  0  0  0  0
  185.4870  179.2520  146.6390 C   0  0  0  0  0  0  0  0  0  0  0  0
  186.9500  177.0930  145.1470 C   0  0  0  0  0  2  0  0  0  0  0  0
  189.2450  177.6630  144.2630 C   0  0  0  0  0  0  0  0  0  0  0  0
  190.2990  178.4090  144.3420 N   0  0  0  0  0  2  0  0  0  0  0  0
  188.1970  177.8400  145.2180 N   0  0  0  0  0  2  0  0  0  0  0  0
  188.9900  177.3270  141.8620 C   0  0  0  0  0  0  0  0  0  0  0  0
  190.1820  176.6750  141.5120 C   0  0  1  0  0  0  0  0  0  0  0  0
  188.3020  178.1670  141.0070 C   0  0  0  0  0  3  0  0  0  0  0  0
  189.0880  176.6740  143.1340 C   0  0  1  0  0  0  0  0  0  0  0  0
  190.7960  176.8080  140.2810 C   0  0  0  0  0  3  0  0  0  0  0  0
  188.9010  178.3280  139.7310 C   0  0  0  0  0  2  0  0  0  0  0  0
  190.3180  176.0370  142.8220 N   0  0  0  0  0  2  0  0  0  0  0  0
  190.1190  177.6650  139.3780 C   0  0  0  0  0  3  0  0  0  0  0  0
  182.9560  178.4190  143.2800 C   0  0  0  0  0  2  0  0  0  0  0  0
  181.9590  179.3240  142.7370 N   0  0  0  0  0  2  0  0  0  0  0  0
  181.1220  178.5450  141.8420 C   0  0  0  0  0  2  0  0  0  0  0  0
  181.9140  178.1680  140.6050 C   0  0  1  0  0  3  0  0  0  0  0  0
  181.2800  177.1070  139.9600 O   0  0  0  0  0  1  0  0  0  0  0  0
  182.0010  179.3660  139.6690 C   0  0  0  0  0  2  0  0  0  0  0  0
  183.3520  179.4200  138.9700 C   0  0  1  0  0  3  0  0  0  0  0  0
  183.7690  180.7470  138.8460 O   0  0  0  0  0  1  0  0  0  0  0  0
  185.2370  179.5380  140.4350 O   0  0  0  0  0  1  0  0  0  0  0  0
  184.3810  178.6500  139.7810 C   0  0  0  0  0  2  0  0  0  0  0  0
  2 22  1  6  0  0  0
  2  3  1  0  0  0  0
  3  1  1  1  0  0  0
  4  8  1  6  0  0  0
  4  6  1  0  0  0  0
  4 10  1  0  0  0  0
  4  3  1  0  0  0  0
  5  2  1  0  0  0  0
  6  5  1  6  0  0  0
  6  3  1  0  0  0  0
  6  9  1  0  0  0  0
  9  1  1  0  0  0  0
  9  7  2  0  0  0  0
 10 13  1  0  0  0  0
 11 12  2  0  0  0  0
 11 13  1  0  0  0  0
 14 17  1  0  0  0  0
 15 18  1  6  0  0  0
 15 14  1  0  0  0  0
 15 20  1  0  0  0  0
 15 17  1  0  0  0  0
 16 14  2  0  0  0  0
 17 11  1  1  0  0  0
 19 16  1  0  0  0  0
 20 17  1  0  0  0  0
 21 19  1  0  0  0  0
 21 18  2  0  0  0  0
 23 22  1  0  0  0  0
 24 23  1  0  0  0  0
 25 26  1  6  0  0  0
 25 24  1  0  0  0  0
 27 25  1  0  0  0  0
 28 29  1  1  0  0  0
 28 27  1  0  0  0  0
 28 31  1  0  0  0  0
 31 30  1  0  0  0  0
M  END
>  <MODEL>
5

>  <REMARK>
 VINA RESULT:      -7.1      2.707      6.317
  Name = 
  10 active torsions:
  status: ('A' for Active; 'I' for Inactive)
    1  A    between atoms: C_2  and  C_14
    2  A    between atoms: C_3  and  C_18
    3  A    between atoms: C_3  and  C_30
    4  A    between atoms: C_4  and  C_27
    5  A    between atoms: C_9  and  C_10
    6  A    between atoms: C_10  and  N_25
    7  A    between atoms: C_13  and  C_18
    8  A    between atoms: C_13  and  C_26
    9  A    between atoms: N_19  and  C_27
   10  A    between atoms: N_19  and  C_30
                            x       y       z     vdW  Elec       q    Type
                         _______ _______ _______ _____ _____    ______ ____

>  <TORSDO>
F 10

$$$$
=
 OpenBabel10222421473D

 31 36  0  0  1  0  0  0  0  0999 V2000
  189.9550  175.7230  142.7990 O   0  0  0  0  0  0  0  0  0  0  0  0
  188.4690  176.8470  144.4500 C   0  0  1  0  0  3  0  0  0  0  0  0
  188.8190  176.5640  142.9830 C   0  0  2  0  0  0  0  0  0  0  0  0
  188.5700  177.6170  141.9230 C   0  0  2  0  0  0  0  0  0  0  0  0
  189.2730  178.1110  144.3790 C   0  0  0  0  0  2  0  0  0  0  0  0
  189.6680  177.7850  142.9390 C   0  0  1  0  0  0  0  0  0  0  0  0
  192.0860  177.0270  142.7000 O   0  0  0  0  0  0  0  0  0  0  0  0
  187.4480  178.4270  142.1160 O   0  0  0  0  0  1  0  0  0  0  0  0
  190.8390  176.8680  142.7920 C   0  0  0  0  0  0  0  0  0  0  0  0
  188.9480  177.2670  140.4910 C   0  0  0  0  0  2  0  0  0  0  0  0
  188.8550  178.4880  138.2840 C   0  0  0  0  0  0  0  0  0  0  0  0
  188.9050  179.6130  137.6470 N   0  0  0  0  0  2  0  0  0  0  0  0
  189.0650  178.4810  139.6970 N   0  0  0  0  0  2  0  0  0  0  0  0
  187.1360  177.2050  137.1250 C   0  0  0  0  0  0  0  0  0  0  0  0
  187.6250  177.1480  135.8110 C   0  0  1  0  0  0  0  0  0  0  0  0
  185.7900  177.2090  137.4370 C   0  0  0  0  0  3  0  0  0  0  0  0
  188.5020  177.2120  137.5590 C   0  0  1  0  0  0  0  0  0  0  0  0
  186.8140  177.0960  134.6920 C   0  0  0  0  0  3  0  0  0  0  0  0
  184.9240  177.1560  136.3140 C   0  0  0  0  0  2  0  0  0  0  0  0
  189.0240  177.2000  136.2380 N   0  0  0  0  0  2  0  0  0  0  0  0
  185.4250  177.1020  134.9740 C   0  0  0  0  0  3  0  0  0  0  0  0
  186.9880  177.1430  144.6550 C   0  0  0  0  0  2  0  0  0  0  0  0
  186.8010  177.8400  145.9150 N   0  0  0  0  0  2  0  0  0  0  0  0
  186.0190  179.0300  145.6300 C   0  0  0  0  0  2  0  0  0  0  0  0
  184.6690  178.6270  145.0710 C   0  0  1  0  0  3  0  0  0  0  0  0
  183.6810  178.9000  146.0170 O   0  0  0  0  0  1  0  0  0  0  0  0
  184.3910  179.4080  143.7930 C   0  0  0  0  0  2  0  0  0  0  0  0
  183.4530  178.6390  142.8730 C   0  0  1  0  0  3  0  0  0  0  0  0
  182.1900  179.2350  142.8790 O   0  0  0  0  0  1  0  0  0  0  0  0
  183.5330  177.5350  140.7550 O   0  0  0  0  0  1  0  0  0  0  0  0
  184.0000  178.6490  141.4560 C   0  0  0  0  0  2  0  0  0  0  0  0
  2 22  1  6  0  0  0
  3  1  1  6  0  0  0
  3  2  1  0  0  0  0
  4  8  1  1  0  0  0
  4  6  1  0  0  0  0
  4  3  1  0  0  0  0
  5  2  1  0  0  0  0
  6  3  1  0  0  0  0
  6  5  1  1  0  0  0
  7  9  2  0  0  0  0
  9  1  1  0  0  0  0
  9  6  1  0  0  0  0
 10  4  1  0  0  0  0
 11 13  1  0  0  0  0
 12 11  2  0  0  0  0
 13 10  1  0  0  0  0
 14 16  2  0  0  0  0
 14 17  1  0  0  0  0
 15 18  1  6  0  0  0
 15 20  1  0  0  0  0
 15 14  1  0  0  0  0
 15 17  1  0  0  0  0
 17 11  1  6  0  0  0
 18 21  2  0  0  0  0
 19 16  1  0  0  0  0
 20 17  1  0  0  0  0
 21 19  1  0  0  0  0
 22 23  1  0  0  0  0
 24 23  1  0  0  0  0
 25 24  1  0  0  0  0
 25 26  1  1  0  0  0
 27 25  1  0  0  0  0
 28 29  1  6  0  0  0
 28 27  1  0  0  0  0
 30 31  1  0  0  0  0
 31 28  1  0  0  0  0
M  END
>  <MODEL>
6

>  <REMARK>
 VINA RESULT:      -7.1      2.404      6.633
  Name = 
  10 active torsions:
  status: ('A' for Active; 'I' for Inactive)
    1  A    between atoms: C_2  and  C_14
    2  A    between atoms: C_3  and  C_18
    3  A    between atoms: C_3  and  C_30
    4  A    between atoms: C_4  and  C_27
    5  A    between atoms: C_9  and  C_10
    6  A    between atoms: C_10  and  N_25
    7  A    between atoms: C_13  and  C_18
    8  A    between atoms: C_13  and  C_26
    9  A    between atoms: N_19  and  C_27
   10  A    between atoms: N_19  and  C_30
                            x       y       z     vdW  Elec       q    Type
                         _______ _______ _______ _____ _____    ______ ____

>  <TORSDO>
F 10

$$$$
=
 OpenBabel10222421473D

 31 36  0  0  1  0  0  0  0  0999 V2000
  190.1190  175.8260  142.4170 O   0  0  0  0  0  0  0  0  0  0  0  0
  188.2470  176.8130  143.7300 C   0  0  1  0  0  3  0  0  0  0  0  0
  188.9110  176.5820  142.3650 C   0  0  2  0  0  0  0  0  0  0  0  0
  188.8100  177.6330  141.2800 C   0  0  2  0  0  0  0  0  0  0  0  0
  188.9550  178.1320  143.8300 C   0  0  0  0  0  2  0  0  0  0  0  0
  189.6600  177.8600  142.5010 C   0  0  1  0  0  0  0  0  0  0  0  0
  192.1240  177.2780  142.7630 O   0  0  0  0  0  0  0  0  0  0  0  0
  187.6160  178.3590  141.2400 O   0  0  0  0  0  1  0  0  0  0  0  0
  190.9000  177.0310  142.5950 C   0  0  0  0  0  0  0  0  0  0  0  0
  189.4980  177.3360  139.9550 C   0  0  0  0  0  2  0  0  0  0  0  0
  188.5490  178.4100  137.8770 C   0  0  0  0  0  0  0  0  0  0  0  0
  188.4070  179.4760  137.1570 N   0  0  0  0  0  2  0  0  0  0  0  0
  189.3550  178.4710  139.0560 N   0  0  0  0  0  2  0  0  0  0  0  0
  186.3920  177.3480  137.4700 C   0  0  0  0  0  0  0  0  0  0  0  0
  186.4650  177.0140  136.1090 C   0  0  1  0  0  0  0  0  0  0  0  0
  185.2120  177.6640  138.1150 C   0  0  0  0  0  3  0  0  0  0  0  0
  187.8100  177.1430  137.5230 C   0  0  1  0  0  0  0  0  0  0  0  0
  185.3660  176.9700  135.2700 C   0  0  0  0  0  3  0  0  0  0  0  0
  184.0600  177.6290  137.2870 C   0  0  0  0  0  2  0  0  0  0  0  0
  187.9180  176.8440  136.1390 N   0  0  0  0  0  2  0  0  0  0  0  0
  184.1370  177.2920  135.8980 C   0  0  0  0  0  3  0  0  0  0  0  0
  186.7380  177.0000  143.6260 C   0  0  0  0  0  2  0  0  0  0  0  0
  186.3370  178.1570  144.4070 N   0  0  0  0  0  2  0  0  0  0  0  0
  185.9890  177.6730  145.7310 C   0  0  0  0  0  2  0  0  0  0  0  0
  186.6240  178.5630  146.7810 C   0  0  1  0  0  3  0  0  0  0  0  0
  185.6230  179.2500  147.4670 O   0  0  0  0  0  1  0  0  0  0  0  0
  187.4290  177.7120  147.7540 C   0  0  0  0  0  2  0  0  0  0  0  0
  188.9220  177.9620  147.5970 C   0  0  1  0  0  3  0  0  0  0  0  0
  189.4580  178.4090  148.8070 O   0  0  0  0  0  1  0  0  0  0  0  0
  190.9700  176.9210  146.9400 O   0  0  0  0  0  1  0  0  0  0  0  0
  189.6190  176.6750  147.1910 C   0  0  0  0  0  2  0  0  0  0  0  0
  1  9  1  0  0  0  0
  2 22  1  6  0  0  0
  2  5  1  0  0  0  0
  3  1  1  6  0  0  0
  3  6  1  0  0  0  0
  3  2  1  0  0  0  0
  4  8  1  6  0  0  0
  4  3  1  0  0  0  0
  4  6  1  0  0  0  0
  6  9  1  0  0  0  0
  6  5  1  1  0  0  0
  9  7  2  0  0  0  0
 10  4  1  0  0  0  0
 11 13  1  0  0  0  0
 12 11  2  0  0  0  0
 13 10  1  0  0  0  0
 14 17  1  0  0  0  0
 14 16  2  0  0  0  0
 15 18  1  1  0  0  0
 15 20  1  0  0  0  0
 15 14  1  0  0  0  0
 15 17  1  0  0  0  0
 17 11  1  6  0  0  0
 18 21  2  0  0  0  0
 19 16  1  0  0  0  0
 20 17  1  0  0  0  0
 21 19  1  0  0  0  0
 22 23  1  0  0  0  0
 23 24  1  0  0  0  0
 24 25  1  0  0  0  0
 25 26  1  1  0  0  0
 25 27  1  0  0  0  0
 28 27  1  0  0  0  0
 28 29  1  1  0  0  0
 30 31  1  0  0  0  0
 31 28  1  0  0  0  0
M  END
>  <MODEL>
7

>  <REMARK>
 VINA RESULT:      -7.0      2.437      7.365
  Name = 
  10 active torsions:
  status: ('A' for Active; 'I' for Inactive)
    1  A    between atoms: C_2  and  C_14
    2  A    between atoms: C_3  and  C_18
    3  A    between atoms: C_3  and  C_30
    4  A    between atoms: C_4  and  C_27
    5  A    between atoms: C_9  and  C_10
    6  A    between atoms: C_10  and  N_25
    7  A    between atoms: C_13  and  C_18
    8  A    between atoms: C_13  and  C_26
    9  A    between atoms: N_19  and  C_27
   10  A    between atoms: N_19  and  C_30
                            x       y       z     vdW  Elec       q    Type
                         _______ _______ _______ _____ _____    ______ ____

>  <TORSDO>
F 10

$$$$
=
 OpenBabel10222421473D

 31 36  0  0  1  0  0  0  0  0999 V2000
  191.3360  178.4570  144.1510 O   0  0  0  0  0  0  0  0  0  0  0  0
  191.2590  176.8130  142.2830 C   0  0  1  0  0  3  0  0  0  0  0  0
  190.5000  177.6820  143.2960 C   0  0  2  0  0  0  0  0  0  0  0  0
  189.1860  177.2040  143.8770 C   0  0  2  0  0  0  0  0  0  0  0  0
  191.1830  175.6620  143.2420 C   0  0  0  0  0  2  0  0  0  0  0  0
  190.4860  176.5560  144.2680 C   0  0  1  0  0  0  0  0  0  0  0  0
  191.9820  177.2120  146.2200 O   0  0  0  0  0  0  0  0  0  0  0  0
  188.3760  176.4510  143.0220 O   0  0  0  0  0  1  0  0  0  0  0  0
  191.3980  177.3820  145.1170 C   0  0  0  0  0  0  0  0  0  0  0  0
  188.4940  178.1170  144.8800 C   0  0  0  0  0  2  0  0  0  0  0  0
  186.3010  177.6960  146.0570 C   0  0  0  0  0  0  0  0  0  0  0  0
  185.5850  176.9160  146.8010 N   0  0  0  0  0  2  0  0  0  0  0  0
  187.6530  177.3310  145.7700 N   0  0  0  0  0  2  0  0  0  0  0  0
  185.2030  178.6790  144.1150 C   0  0  0  0  0  0  0  0  0  0  0  0
  183.9260  178.9900  144.6070 C   0  0  1  0  0  0  0  0  0  0  0  0
  185.4500  178.3360  142.7990 C   0  0  0  0  0  3  0  0  0  0  0  0
  185.6970  178.9310  145.4370 C   0  0  1  0  0  0  0  0  0  0  0  0
  182.7830  178.9820  143.8300 C   0  0  0  0  0  3  0  0  0  0  0  0
  184.3000  178.3170  141.9690 C   0  0  0  0  0  2  0  0  0  0  0  0
  184.4110  179.2080  145.9710 N   0  0  0  0  0  2  0  0  0  0  0  0
  182.9980  178.6320  142.4730 C   0  0  0  0  0  3  0  0  0  0  0  0
  190.4490  176.5380  141.0220 C   0  0  0  0  0  2  0  0  0  0  0  0
  190.3490  177.7540  140.2340 N   0  0  0  0  0  2  0  0  0  0  0  0
  188.9760  177.8480  139.7730 C   0  0  0  0  0  2  0  0  0  0  0  0
  188.9540  177.9650  138.2620 C   0  0  1  0  0  3  0  0  0  0  0  0
  188.6870  179.2870  137.9070 O   0  0  0  0  0  1  0  0  0  0  0  0
  190.3030  177.5400  137.6970 C   0  0  0  0  0  2  0  0  0  0  0  0
  190.1450  176.4080  136.6920 C   0  0  1  0  0  3  0  0  0  0  0  0
  191.3620  176.1680  136.0510 O   0  0  0  0  0  1  0  0  0  0  0  0
  190.7810  174.5810  138.0950 O   0  0  0  0  0  1  0  0  0  0  0  0
  189.7030  175.1430  137.4070 C   0  0  0  0  0  2  0  0  0  0  0  0
  1  9  1  0  0  0  0
  2 22  1  6  0  0  0
  2  5  1  0  0  0  0
  2  3  1  0  0  0  0
  3  4  1  0  0  0  0
  3  1  1  1  0  0  0
  3  6  1  0  0  0  0
  4  8  1  6  0  0  0
  4  6  1  0  0  0  0
  4 10  1  0  0  0  0
  6  5  1  6  0  0  0
  6  9  1  0  0  0  0
  9  7  2  0  0  0  0
 10 13  1  0  0  0  0
 11 12  2  0  0  0  0
 13 11  1  0  0  0  0
 14 15  1  0  0  0  0
 14 17  1  0  0  0  0
 15 18  1  6  0  0  0
 15 17  1  0  0  0  0
 15 20  1  0  0  0  0
 16 14  2  0  0  0  0
 17 20  1  0  0  0  0
 17 11  1  1  0  0  0
 19 21  1  0  0  0  0
 19 16  1  0  0  0  0
 21 18  2  0  0  0  0
 23 22  1  0  0  0  0
 24 23  1  0  0  0  0
 25 26  1  1  0  0  0
 25 24  1  0  0  0  0
 27 25  1  0  0  0  0
 28 29  1  1  0  0  0
 28 31  1  0  0  0  0
 28 27  1  0  0  0  0
 31 30  1  0  0  0  0
M  END
>  <MODEL>
8

>  <REMARK>
 VINA RESULT:      -7.0      1.371      1.868
  Name = 
  10 active torsions:
  status: ('A' for Active; 'I' for Inactive)
    1  A    between atoms: C_2  and  C_14
    2  A    between atoms: C_3  and  C_18
    3  A    between atoms: C_3  and  C_30
    4  A    between atoms: C_4  and  C_27
    5  A    between atoms: C_9  and  C_10
    6  A    between atoms: C_10  and  N_25
    7  A    between atoms: C_13  and  C_18
    8  A    between atoms: C_13  and  C_26
    9  A    between atoms: N_19  and  C_27
   10  A    between atoms: N_19  and  C_30
                            x       y       z     vdW  Elec       q    Type
                         _______ _______ _______ _____ _____    ______ ____

>  <TORSDO>
F 10

$$$$
=
 OpenBabel10222421473D

 31 36  0  0  1  0  0  0  0  0999 V2000
  182.9980  176.9950  140.3520 O   0  0  0  0  0  0  0  0  0  0  0  0
  184.2940  178.4230  138.7770 C   0  0  1  0  0  3  0  0  0  0  0  0
  184.1180  177.8630  140.1960 C   0  0  2  0  0  0  0  0  0  0  0  0
  184.5090  178.6950  141.3990 C   0  0  2  0  0  0  0  0  0  0  0  0
  183.5250  179.6460  139.1850 C   0  0  0  0  0  2  0  0  0  0  0  0
  183.3000  179.0470  140.5740 C   0  0  1  0  0  0  0  0  0  0  0  0
  180.9170  178.2410  140.9550 O   0  0  0  0  0  0  0  0  0  0  0  0
  185.6130  179.5350  141.2290 O   0  0  0  0  0  1  0  0  0  0  0  0
  182.1400  178.1110  140.6840 C   0  0  0  0  0  0  0  0  0  0  0  0
  184.3000  178.0750  142.7730 C   0  0  0  0  0  2  0  0  0  0  0  0
  185.2530  178.8840  144.9660 C   0  0  0  0  0  0  0  0  0  0  0  0
  185.3990  179.8530  145.8100 N   0  0  0  0  0  2  0  0  0  0  0  0
  184.4470  179.0910  143.8040 N   0  0  0  0  0  2  0  0  0  0  0  0
  187.3480  177.6610  144.7200 C   0  0  0  0  0  0  0  0  0  0  0  0
  187.7230  177.4190  146.0500 C   0  0  1  0  0  0  0  0  0  0  0  0
  188.2560  177.8300  143.6910 C   0  0  0  0  0  3  0  0  0  0  0  0
  185.9870  177.5800  145.1620 C   0  0  1  0  0  0  0  0  0  0  0  0
  189.0370  177.3290  146.4720 C   0  0  0  0  0  3  0  0  0  0  0  0
  189.6160  177.7440  144.0850 C   0  0  0  0  0  2  0  0  0  0  0  0
  186.3380  177.3770  146.5230 N   0  0  0  0  0  2  0  0  0  0  0  0
  189.9960  177.5010  145.4430 C   0  0  0  0  0  3  0  0  0  0  0  0
  185.7440  178.7630  138.4550 C   0  0  0  0  0  2  0  0  0  0  0  0
  186.3420  177.6740  137.7030 N   0  0  0  0  0  2  0  0  0  0  0  0
  187.1000  178.2740  136.6190 C   0  0  0  0  0  2  0  0  0  0  0  0
  188.5750  178.2720  136.9680 C   0  0  1  0  0  3  0  0  0  0  0  0
  188.9420  179.5420  137.4120 O   0  0  0  0  0  1  0  0  0  0  0  0
  188.8400  177.2460  138.0620 C   0  0  0  0  0  2  0  0  0  0  0  0
  189.5170  177.8880  139.2650 C   0  0  1  0  0  3  0  0  0  0  0  0
  188.6450  177.8890  140.3560 O   0  0  0  0  0  1  0  0  0  0  0  0
  190.4730  176.1660  140.6170 O   0  0  0  0  0  1  0  0  0  0  0  0
  190.7670  177.1070  139.6300 C   0  0  0  0  0  2  0  0  0  0  0  0
  1  9  1  0  0  0  0
  2 22  1  1  0  0  0
  2  5  1  0  0  0  0
  2  3  1  0  0  0  0
  3  1  1  1  0  0  0
  3  6  1  0  0  0  0
  3  4  1  0  0  0  0
  4  8  1  6  0  0  0
  4 10  1  0  0  0  0
  6  5  1  6  0  0  0
  6  9  1  0  0  0  0
  6  4  1  0  0  0  0
  9  7  2  0  0  0  0
 10 13  1  0  0  0  0
 11 12  2  0  0  0  0
 13 11  1  0  0  0  0
 14 17  1  0  0  0  0
 14 15  1  0  0  0  0
 15 18  1  6  0  0  0
 15 20  1  0  0  0  0
 16 19  1  0  0  0  0
 16 14  2  0  0  0  0
 17 11  1  1  0  0  0
 17 15  1  0  0  0  0
 17 20  1  0  0  0  0
 19 21  1  0  0  0  0
 21 18  2  0  0  0  0
 23 22  1  0  0  0  0
 24 25  1  0  0  0  0
 24 23  1  0  0  0  0
 25 26  1  1  0  0  0
 25 27  1  0  0  0  0
 27 28  1  0  0  0  0
 28 31  1  0  0  0  0
 28 29  1  1  0  0  0
 31 30  1  0  0  0  0
M  END
>  <MODEL>
9

>  <REMARK>
 VINA RESULT:      -7.0      2.258      5.976
  Name = 
  10 active torsions:
  status: ('A' for Active; 'I' for Inactive)
    1  A    between atoms: C_2  and  C_14
    2  A    between atoms: C_3  and  C_18
    3  A    between atoms: C_3  and  C_30
    4  A    between atoms: C_4  and  C_27
    5  A    between atoms: C_9  and  C_10
    6  A    between atoms: C_10  and  N_25
    7  A    between atoms: C_13  and  C_18
    8  A    between atoms: C_13  and  C_26
    9  A    between atoms: N_19  and  C_27
   10  A    between atoms: N_19  and  C_30
                            x       y       z     vdW  Elec       q    Type
                         _______ _______ _______ _____ _____    ______ ____

>  <TORSDO>
F 10

$$$$
