=
 OpenBabel10232408533D

 51 54  0  0  1  0  0  0  0  0999 V2000
  189.2060  177.3880  143.1720 C   0  0  0  0  0  0  0  0  0  0  0  0
  187.1660  178.3710  142.1510 C   0  0  0  0  0  0  0  0  0  0  0  0
  187.7060  177.9400  143.6890 S   0  0  0  0  0  0  0  0  0  0  0  0
  189.3210  177.5220  141.7960 C   0  0  0  0  0  2  0  0  0  0  0  0
  190.1170  176.8730  143.9480 C   0  0  0  0  0  0  0  0  0  0  0  0
  188.1680  178.0840  141.2250 C   0  0  0  0  0  0  0  0  0  0  0  0
  191.0260  176.3560  144.7280 C   0  0  0  0  0  3  0  0  0  0  0  0
  185.9770  178.8990  141.8590 C   0  0  0  0  0  2  0  0  0  0  0  0
  191.2610  176.9130  146.0900 C   0  0  2  0  0  3  0  0  0  0  0  0
  192.3830  176.3280  146.6460 F   0  0  0  0  0  0  0  0  0  0  0  0
  190.0640  176.6370  146.9770 C   0  0  0  0  0  2  0  0  0  0  0  0
  189.6450  177.8230  147.6030 O   0  0  0  0  0  0  0  0  0  0  0  0
  187.2770  178.1940  147.2460 C   0  0  0  0  0  1  0  0  0  0  0  0
  188.1450  176.2630  148.2660 F   0  0  0  0  0  0  0  0  0  0  0  0
  188.3610  177.6230  148.1540 C   0  0  0  0  0  0  0  0  0  0  0  0
  188.2580  178.1780  149.4220 F   0  0  0  0  0  0  0  0  0  0  0  0
  184.9460  179.1850  142.8990 C   0  0  0  0  0  2  0  0  0  0  0  0
  182.5240  179.3200  142.4360 C   0  0  1  0  0  3  0  0  0  0  0  0
  182.7110  178.5720  143.7440 C   0  0  0  0  0  2  0  0  0  0  0  0
  183.6990  178.3740  142.6180 C   0  0  2  0  0  3  0  0  0  0  0  0
  181.4350  178.6710  141.6310 C   0  0  0  0  0  0  0  0  0  0  0  0
  181.4640  178.6940  140.2030 N   0  0  0  0  0  2  0  0  0  0  0  0
  180.5030  178.0540  142.2150 O   0  0  0  0  0  0  0  0  0  0  0  0
  182.5170  179.3560  139.4470 C   0  0  0  0  0  2  0  0  0  0  0  0
  182.6720  178.7080  138.0810 C   0  0  0  0  0  2  0  0  0  0  0  0
  184.6480  176.2910  136.3530 C   0  0  2  0  0  3  0  0  0  0  0  0
  185.6300  176.9560  137.2980 C   0  0  0  0  0  2  0  0  0  0  0  0
  184.9620  177.9940  137.9620 O   0  0  0  0  0  0  0  0  0  0  0  0
  183.6430  177.5390  138.1280 C   0  0  2  0  0  3  0  0  0  0  0  0
  183.3190  176.5750  137.0080 C   0  0  0  0  0  2  0  0  0  0  0  0
  186.3390  173.2600  137.3380 C   0  0  0  0  0  2  0  0  0  0  0  0
  184.1180  174.1790  137.3030 C   0  0  0  0  0  2  0  0  0  0  0  0
  184.8950  174.8480  136.2630 N   0  0  0  0  0  0  0  0  0  0  0  0
  186.2860  174.5940  136.6300 C   0  0  0  0  0  2  0  0  0  0  0  0
  184.9280  173.0030  137.8030 C   0  0  0  0  0  2  0  0  0  0  0  0
  188.0300  178.2930  139.7500 C   0  0  0  0  0  2  0  0  0  0  0  0
  189.3700  178.1190  139.0570 C   0  0  0  0  0  2  0  0  0  0  0  0
  189.3460  176.9190  138.2330 N   0  0  0  0  0  2  0  0  0  0  0  0
  189.8650  176.8560  136.9020 C   0  0  0  0  0  0  0  0  0  0  0  0
  188.9810  177.3850  135.6270 S   0  0  0  0  0  0  0  0  0  0  0  0
  191.1730  176.3280  136.6540 N   0  0  0  0  0  2  0  0  0  0  0  0
  191.6790  175.0900  137.1610 C   0  0  0  0  0  0  0  0  0  0  0  0
  190.9670  174.3450  137.8890 O   0  0  0  0  0  0  0  0  0  0  0  0
  193.0770  174.6840  136.8170 C   0  0  2  0  0  3  0  0  0  0  0  0
  193.0740  173.2530  136.3030 C   0  0  0  0  0  1  0  0  0  0  0  0
  194.0180  174.8430  138.0170 C   0  0  2  0  0  3  0  0  0  0  0  0
  193.9490  176.1450  138.5220 O   0  0  0  0  0  1  0  0  0  0  0  0
  196.0220  175.2310  136.8470 O   0  0  0  0  0  0  0  0  0  0  0  0
  195.4400  174.5270  137.6560 C   0  0  0  0  0  0  0  0  0  0  0  0
  196.1400  173.3540  138.2590 C   0  0  0  0  0  2  0  0  0  0  0  0
  195.2460  172.6190  139.0390 O   0  0  0  0  0  1  0  0  0  0  0  0
  1  3  1  0  0  0  0
  1  5  2  0  0  0  0
  2  3  1  0  0  0  0
  4  1  1  0  0  0  0
  5  7  2  0  0  0  0
  6  4  1  0  0  0  0
  6  2  2  0  0  0  0
  7  9  1  0  0  0  0
  8  2  1  0  0  0  0
  8 17  1  0  0  0  0
  9 10  1  1  0  0  0
  9 11  1  0  0  0  0
 11 12  1  0  0  0  0
 12 15  1  0  0  0  0
 13 15  1  0  0  0  0
 15 14  1  0  0  0  0
 15 16  1  0  0  0  0
 18 21  1  6  0  0  0
 18 20  1  0  0  0  0
 18 19  1  0  0  0  0
 20 17  1  1  0  0  0
 20 19  1  0  0  0  0
 21 23  2  0  0  0  0
 22 21  1  0  0  0  0
 24 22  1  0  0  0  0
 25 24  1  0  0  0  0
 26 33  1  1  0  0  0
 26 30  1  0  0  0  0
 26 27  1  0  0  0  0
 27 28  1  0  0  0  0
 28 29  1  0  0  0  0
 29 25  1  6  0  0  0
 30 29  1  0  0  0  0
 31 35  1  0  0  0  0
 32 35  1  0  0  0  0
 33 34  1  0  0  0  0
 33 32  1  0  0  0  0
 34 31  1  0  0  0  0
 36  6  1  0  0  0  0
 37 36  1  0  0  0  0
 38 37  1  0  0  0  0
 39 38  1  0  0  0  0
 40 39  2  0  0  0  0
 41 39  1  0  0  0  0
 41 42  1  0  0  0  0
 42 43  2  0  0  0  0
 44 45  1  1  0  0  0
 44 42  1  0  0  0  0
 44 46  1  0  0  0  0
 46 47  1  6  0  0  0
 48 49  2  0  0  0  0
 49 46  1  0  0  0  0
 49 50  1  0  0  0  0
 50 51  1  0  0  0  0
M  END
>  <MODEL>
1

>  <REMARK>
 VINA RESULT:      -7.8      0.000      0.000
  Name = 
  20 active torsions:
  status: ('A' for Active; 'I' for Inactive)
    1  A    between atoms: C_1  and  N_30
    2  A    between atoms: C_1  and  C_40
    3  A    between atoms: C_4  and  N_8
    4  A    between atoms: C_4  and  N_30
    5  A    between atoms: C_5  and  C_23
    6  A    between atoms: C_5  and  C_44
    7  A    between atoms: C_6  and  C_9
    8  A    between atoms: N_12  and  C_38
    9  A    between atoms: C_13  and  N_18
   10  A    between atoms: C_14  and  C_15
   11  A    between atoms: C_14  and  C_24
   12  A    between atoms: C_15  and  C_17
   13  A    between atoms: C_17  and  C_25
   14  A    between atoms: C_19  and  C_46
   15  A    between atoms: C_19  and  C_49
   16  A    between atoms: C_23  and  O_35
   17  A    between atoms: C_32  and  C_36
   18  A    between atoms: C_32  and  C_38
   19  A    between atoms: C_33  and  O_35
   20  A    between atoms: C_39  and  C_40
                            x       y       z     vdW  Elec       q    Type
                         _______ _______ _______ _____ _____    ______ ____

>  <TORSDO>
F 20

$$$$
=
 OpenBabel10232408533D

 51 54  0  0  1  0  0  0  0  0999 V2000
  188.9670  177.0020  137.2380 C   0  0  0  0  0  0  0  0  0  0  0  0
  190.2820  177.1130  139.3430 C   0  0  0  0  0  0  0  0  0  0  0  0
  188.6770  177.3110  138.8630 S   0  0  0  0  0  0  0  0  0  0  0  0
  190.3130  176.7420  137.0290 C   0  0  0  0  0  2  0  0  0  0  0  0
  188.0620  177.0370  136.3010 C   0  0  0  0  0  0  0  0  0  0  0  0
  191.0510  176.7990  138.2220 C   0  0  0  0  0  0  0  0  0  0  0  0
  187.1540  177.0760  135.3660 C   0  0  0  0  0  3  0  0  0  0  0  0
  190.7490  177.2370  140.5860 C   0  0  0  0  0  2  0  0  0  0  0  0
  185.7790  176.5640  135.6250 C   0  0  2  0  0  3  0  0  0  0  0  0
  185.4050  176.8630  136.9220 F   0  0  0  0  0  0  0  0  0  0  0  0
  185.7390  175.0610  135.4300 C   0  0  0  0  0  2  0  0  0  0  0  0
  184.5210  174.5460  135.9070 O   0  0  0  0  0  0  0  0  0  0  0  0
  186.2730  173.4420  137.1670 C   0  0  0  0  0  1  0  0  0  0  0  0
  184.3500  174.3620  138.1560 F   0  0  0  0  0  0  0  0  0  0  0  0
  184.7790  173.7120  137.0160 C   0  0  0  0  0  0  0  0  0  0  0  0
  184.0880  172.5120  136.9220 F   0  0  0  0  0  0  0  0  0  0  0  0
  189.8720  177.5730  141.7440 C   0  0  0  0  0  2  0  0  0  0  0  0
  190.2880  178.1370  144.1130 C   0  0  1  0  0  3  0  0  0  0  0  0
  191.6290  178.0470  143.4090 C   0  0  0  0  0  2  0  0  0  0  0  0
  190.5170  177.0970  143.0280 C   0  0  2  0  0  3  0  0  0  0  0  0
  190.3860  177.5170  145.4760 C   0  0  0  0  0  0  0  0  0  0  0  0
  189.2190  177.0650  146.1650 N   0  0  0  0  0  2  0  0  0  0  0  0
  191.5160  177.3450  146.0090 O   0  0  0  0  0  0  0  0  0  0  0  0
  187.8780  177.1940  145.6110 C   0  0  0  0  0  2  0  0  0  0  0  0
  186.9990  178.0080  146.5450 C   0  0  0  0  0  2  0  0  0  0  0  0
  184.5880  178.3450  143.9360 C   0  0  2  0  0  3  0  0  0  0  0  0
  183.8800  178.8960  145.1590 C   0  0  0  0  0  2  0  0  0  0  0  0
  184.7220  178.7210  146.2660 O   0  0  0  0  0  0  0  0  0  0  0  0
  186.0270  178.8830  145.7690 C   0  0  2  0  0  3  0  0  0  0  0  0
  186.0430  178.4770  144.3120 C   0  0  0  0  0  2  0  0  0  0  0  0
  184.8530  179.0790  140.4140 C   0  0  0  0  0  2  0  0  0  0  0  0
  183.1750  178.4940  142.0320 C   0  0  0  0  0  2  0  0  0  0  0  0
  184.2760  179.1390  142.7430 N   0  0  0  0  0  0  0  0  0  0  0  0
  185.4040  179.0490  141.8200 C   0  0  0  0  0  2  0  0  0  0  0  0
  183.4030  178.6880  140.5490 C   0  0  0  0  0  2  0  0  0  0  0  0
  192.5330  176.5950  138.2540 C   0  0  0  0  0  2  0  0  0  0  0  0
  192.8870  175.1780  137.8380 C   0  0  0  0  0  2  0  0  0  0  0  0
  193.1660  175.1380  136.4110 N   0  0  0  0  0  2  0  0  0  0  0  0
  194.3760  175.6240  135.8210 C   0  0  0  0  0  0  0  0  0  0  0  0
  194.3520  176.4390  134.3990 S   0  0  0  0  0  0  0  0  0  0  0  0
  195.6360  175.4080  136.4640 N   0  0  0  0  0  2  0  0  0  0  0  0
  196.3730  174.1820  136.4590 C   0  0  0  0  0  0  0  0  0  0  0  0
  195.9400  173.1650  135.8520 O   0  0  0  0  0  0  0  0  0  0  0  0
  197.6760  174.1170  137.1910 C   0  0  2  0  0  3  0  0  0  0  0  0
  198.5400  173.0220  136.5850 C   0  0  0  0  0  1  0  0  0  0  0  0
  197.4640  173.8930  138.6930 C   0  0  2  0  0  3  0  0  0  0  0  0
  196.1200  173.6230  138.9620 O   0  0  0  0  0  1  0  0  0  0  0  0
  198.7300  175.8450  139.0370 O   0  0  0  0  0  0  0  0  0  0  0  0
  197.9030  175.0790  139.5010 C   0  0  0  0  0  0  0  0  0  0  0  0
  197.3520  175.3190  140.8690 C   0  0  0  0  0  2  0  0  0  0  0  0
  198.3550  175.1330  141.8210 O   0  0  0  0  0  1  0  0  0  0  0  0
  1  3  1  0  0  0  0
  2  8  1  0  0  0  0
  3  2  1  0  0  0  0
  4  1  1  0  0  0  0
  4  6  1  0  0  0  0
  5  1  2  0  0  0  0
  6 36  1  0  0  0  0
  6  2  2  0  0  0  0
  7  9  1  0  0  0  0
  7  5  2  0  0  0  0
  8 17  1  0  0  0  0
  9 10  1  1  0  0  0
 11  9  1  0  0  0  0
 11 12  1  0  0  0  0
 12 15  1  0  0  0  0
 15 13  1  0  0  0  0
 15 14  1  0  0  0  0
 16 15  1  0  0  0  0
 18 21  1  1  0  0  0
 19 18  1  0  0  0  0
 20 17  1  6  0  0  0
 20 19  1  0  0  0  0
 20 18  1  0  0  0  0
 21 23  2  0  0  0  0
 21 22  1  0  0  0  0
 24 22  1  0  0  0  0
 24 25  1  0  0  0  0
 26 33  1  6  0  0  0
 26 30  1  0  0  0  0
 26 27  1  0  0  0  0
 27 28  1  0  0  0  0
 29 28  1  0  0  0  0
 29 25  1  1  0  0  0
 30 29  1  0  0  0  0
 31 35  1  0  0  0  0
 31 34  1  0  0  0  0
 32 33  1  0  0  0  0
 34 33  1  0  0  0  0
 35 32  1  0  0  0  0
 37 36  1  0  0  0  0
 38 37  1  0  0  0  0
 39 38  1  0  0  0  0
 39 41  1  0  0  0  0
 40 39  2  0  0  0  0
 42 41  1  0  0  0  0
 42 44  1  0  0  0  0
 43 42  2  0  0  0  0
 44 45  1  6  0  0  0
 44 46  1  0  0  0  0
 46 47  1  6  0  0  0
 46 49  1  0  0  0  0
 48 49  2  0  0  0  0
 49 50  1  0  0  0  0
 50 51  1  0  0  0  0
M  END
>  <MODEL>
2

>  <REMARK>
 VINA RESULT:      -7.6      3.855      7.852
  Name = 
  20 active torsions:
  status: ('A' for Active; 'I' for Inactive)
    1  A    between atoms: C_1  and  N_30
    2  A    between atoms: C_1  and  C_40
    3  A    between atoms: C_4  and  N_8
    4  A    between atoms: C_4  and  N_30
    5  A    between atoms: C_5  and  C_23
    6  A    between atoms: C_5  and  C_44
    7  A    between atoms: C_6  and  C_9
    8  A    between atoms: N_12  and  C_38
    9  A    between atoms: C_13  and  N_18
   10  A    between atoms: C_14  and  C_15
   11  A    between atoms: C_14  and  C_24
   12  A    between atoms: C_15  and  C_17
   13  A    between atoms: C_17  and  C_25
   14  A    between atoms: C_19  and  C_46
   15  A    between atoms: C_19  and  C_49
   16  A    between atoms: C_23  and  O_35
   17  A    between atoms: C_32  and  C_36
   18  A    between atoms: C_32  and  C_38
   19  A    between atoms: C_33  and  O_35
   20  A    between atoms: C_39  and  C_40
                            x       y       z     vdW  Elec       q    Type
                         _______ _______ _______ _____ _____    ______ ____

>  <TORSDO>
F 20

$$$$
=
 OpenBabel10232408533D

 51 54  0  0  1  0  0  0  0  0999 V2000
  188.1420  177.8140  139.1800 C   0  0  0  0  0  0  0  0  0  0  0  0
  189.8390  177.5650  140.9770 C   0  0  0  0  0  0  0  0  0  0  0  0
  188.2020  177.9550  140.8530 S   0  0  0  0  0  0  0  0  0  0  0  0
  189.3880  177.4660  138.6800 C   0  0  0  0  0  2  0  0  0  0  0  0
  187.0840  178.0350  138.4530 C   0  0  0  0  0  0  0  0  0  0  0  0
  190.3410  177.3200  139.7000 C   0  0  0  0  0  0  0  0  0  0  0  0
  186.0230  178.2610  137.7280 C   0  0  0  0  0  3  0  0  0  0  0  0
  190.5440  177.5020  142.1070 C   0  0  0  0  0  2  0  0  0  0  0  0
  184.6760  177.8420  138.2070 C   0  0  2  0  0  3  0  0  0  0  0  0
  183.7900  177.8140  137.1450 F   0  0  0  0  0  0  0  0  0  0  0  0
  184.1690  178.8160  139.2510 C   0  0  0  0  0  2  0  0  0  0  0  0
  183.5760  178.1160  140.3150 O   0  0  0  0  0  0  0  0  0  0  0  0
  181.7430  179.5060  139.5530 C   0  0  0  0  0  1  0  0  0  0  0  0
  181.7620  177.1650  139.3500 F   0  0  0  0  0  0  0  0  0  0  0  0
  182.1720  178.1870  140.1860 C   0  0  0  0  0  0  0  0  0  0  0  0
  181.5380  178.0190  141.4090 F   0  0  0  0  0  0  0  0  0  0  0  0
  189.9460  177.7740  143.4460 C   0  0  0  0  0  2  0  0  0  0  0  0
  191.5400  177.0550  145.1900 C   0  0  1  0  0  3  0  0  0  0  0  0
  191.6530  176.0900  144.0250 C   0  0  0  0  0  2  0  0  0  0  0  0
  190.3030  176.6560  144.4020 C   0  0  2  0  0  3  0  0  0  0  0  0
  191.6140  176.3000  146.4850 C   0  0  0  0  0  0  0  0  0  0  0  0
  190.8530  176.7110  147.6220 N   0  0  0  0  0  2  0  0  0  0  0  0
  192.3200  175.2570  146.5650 O   0  0  0  0  0  0  0  0  0  0  0  0
  189.9890  177.8830  147.6090 C   0  0  0  0  0  2  0  0  0  0  0  0
  188.5420  177.4740  147.8300 C   0  0  0  0  0  2  0  0  0  0  0  0
  185.4030  177.6970  146.1500 C   0  0  2  0  0  3  0  0  0  0  0  0
  185.5090  179.0110  146.8980 C   0  0  0  0  0  2  0  0  0  0  0  0
  186.6790  178.9810  147.6690 O   0  0  0  0  0  0  0  0  0  0  0  0
  187.6030  178.2400  146.9130 C   0  0  2  0  0  3  0  0  0  0  0  0
  186.8430  177.2610  146.0450 C   0  0  0  0  0  2  0  0  0  0  0  0
  183.8480  179.7160  143.5960 C   0  0  0  0  0  2  0  0  0  0  0  0
  185.8410  178.4150  143.9270 C   0  0  0  0  0  2  0  0  0  0  0  0
  184.8110  177.8910  144.8210 N   0  0  0  0  0  0  0  0  0  0  0  0
  183.8260  178.9650  144.9070 C   0  0  0  0  0  2  0  0  0  0  0  0
  185.1770  179.3800  142.9700 C   0  0  0  0  0  2  0  0  0  0  0  0
  191.7710  176.9880  139.4120 C   0  0  0  0  0  2  0  0  0  0  0  0
  191.8830  176.1440  138.1540 C   0  0  0  0  0  2  0  0  0  0  0  0
  193.0320  176.5750  137.3720 N   0  0  0  0  0  2  0  0  0  0  0  0
  193.4800  175.9160  136.1840 C   0  0  0  0  0  0  0  0  0  0  0  0
  192.5570  175.9020  134.8290 S   0  0  0  0  0  0  0  0  0  0  0  0
  194.7480  175.2540  136.1540 N   0  0  0  0  0  2  0  0  0  0  0  0
  194.9590  173.8520  136.3500 C   0  0  0  0  0  0  0  0  0  0  0  0
  193.9920  173.0730  136.5660 O   0  0  0  0  0  0  0  0  0  0  0  0
  196.3550  173.3160  136.2970 C   0  0  2  0  0  3  0  0  0  0  0  0
  196.3680  172.0240  135.4960 C   0  0  0  0  0  1  0  0  0  0  0  0
  196.9280  173.1050  137.7040 C   0  0  2  0  0  3  0  0  0  0  0  0
  196.0230  172.3950  138.4980 O   0  0  0  0  0  1  0  0  0  0  0  0
  198.0160  175.1880  137.8210 O   0  0  0  0  0  0  0  0  0  0  0  0
  197.2580  174.4080  138.3720 C   0  0  0  0  0  0  0  0  0  0  0  0
  196.6850  174.7480  139.7090 C   0  0  0  0  0  2  0  0  0  0  0  0
  195.4340  175.3440  139.5500 O   0  0  0  0  0  1  0  0  0  0  0  0
  1  3  1  0  0  0  0
  2  8  1  0  0  0  0
  3  2  1  0  0  0  0
  4  1  1  0  0  0  0
  4  6  1  0  0  0  0
  5  1  2  0  0  0  0
  6  2  2  0  0  0  0
  7  9  1  0  0  0  0
  7  5  2  0  0  0  0
  8 17  1  0  0  0  0
  9 10  1  6  0  0  0
  9 11  1  0  0  0  0
 11 12  1  0  0  0  0
 13 15  1  0  0  0  0
 14 15  1  0  0  0  0
 15 12  1  0  0  0  0
 15 16  1  0  0  0  0
 18 21  1  1  0  0  0
 19 20  1  0  0  0  0
 19 18  1  0  0  0  0
 20 17  1  6  0  0  0
 20 18  1  0  0  0  0
 21 23  2  0  0  0  0
 21 22  1  0  0  0  0
 24 22  1  0  0  0  0
 24 25  1  0  0  0  0
 26 33  1  6  0  0  0
 26 27  1  0  0  0  0
 27 28  1  0  0  0  0
 29 28  1  0  0  0  0
 29 25  1  1  0  0  0
 30 26  1  0  0  0  0
 30 29  1  0  0  0  0
 31 34  1  0  0  0  0
 32 33  1  0  0  0  0
 33 34  1  0  0  0  0
 35 31  1  0  0  0  0
 35 32  1  0  0  0  0
 36  6  1  0  0  0  0
 37 36  1  0  0  0  0
 38 37  1  0  0  0  0
 39 38  1  0  0  0  0
 40 39  2  0  0  0  0
 41 39  1  0  0  0  0
 41 42  1  0  0  0  0
 42 43  2  0  0  0  0
 44 45  1  1  0  0  0
 44 42  1  0  0  0  0
 44 46  1  0  0  0  0
 46 49  1  0  0  0  0
 46 47  1  1  0  0  0
 48 49  2  0  0  0  0
 49 50  1  0  0  0  0
 51 50  1  0  0  0  0
M  END
>  <MODEL>
3

>  <REMARK>
 VINA RESULT:      -7.5      3.689      7.800
  Name = 
  20 active torsions:
  status: ('A' for Active; 'I' for Inactive)
    1  A    between atoms: C_1  and  N_30
    2  A    between atoms: C_1  and  C_40
    3  A    between atoms: C_4  and  N_8
    4  A    between atoms: C_4  and  N_30
    5  A    between atoms: C_5  and  C_23
    6  A    between atoms: C_5  and  C_44
    7  A    between atoms: C_6  and  C_9
    8  A    between atoms: N_12  and  C_38
    9  A    between atoms: C_13  and  N_18
   10  A    between atoms: C_14  and  C_15
   11  A    between atoms: C_14  and  C_24
   12  A    between atoms: C_15  and  C_17
   13  A    between atoms: C_17  and  C_25
   14  A    between atoms: C_19  and  C_46
   15  A    between atoms: C_19  and  C_49
   16  A    between atoms: C_23  and  O_35
   17  A    between atoms: C_32  and  C_36
   18  A    between atoms: C_32  and  C_38
   19  A    between atoms: C_33  and  O_35
   20  A    between atoms: C_39  and  C_40
                            x       y       z     vdW  Elec       q    Type
                         _______ _______ _______ _____ _____    ______ ____

>  <TORSDO>
F 20

$$$$
=
 OpenBabel10232408533D

 51 54  0  0  1  0  0  0  0  0999 V2000
  190.6280  177.2010  140.6380 C   0  0  0  0  0  0  0  0  0  0  0  0
  189.2680  177.1700  138.5580 C   0  0  0  0  0  0  0  0  0  0  0  0
  189.0640  177.6040  140.1750 S   0  0  0  0  0  0  0  0  0  0  0  0
  191.3420  176.7180  139.5520 C   0  0  0  0  0  3  0  0  0  0  0  0
  191.0920  177.2940  141.8510 C   0  0  0  0  0  0  0  0  0  0  0  0
  190.5720  176.7090  138.3780 C   0  0  0  0  0  0  0  0  0  0  0  0
  191.5520  177.3860  143.0690 C   0  0  0  0  0  3  0  0  0  0  0  0
  188.3420  177.2500  137.6030 C   0  0  0  0  0  3  0  0  0  0  0  0
  191.1690  178.5350  143.9370 C   0  0  2  0  0  3  0  0  0  0  0  0
  192.2790  179.3190  144.1900 F   0  0  0  0  0  0  0  0  0  0  0  0
  190.6080  178.0280  145.2510 C   0  0  0  0  0  2  0  0  0  0  0  0
  189.2550  178.3870  145.3670 O   0  0  0  0  0  0  0  0  0  0  0  0
  187.0700  177.6040  146.0650 C   0  0  0  0  0  1  0  0  0  0  0  0
  188.4410  176.4370  144.5550 F   0  0  0  0  0  0  0  0  0  0  0  0
  188.4990  177.2370  145.6800 C   0  0  0  0  0  0  0  0  0  0  0  0
  189.0900  176.5000  146.6980 F   0  0  0  0  0  0  0  0  0  0  0  0
  186.9620  177.7560  137.8610 C   0  0  0  0  0  2  0  0  0  0  0  0
  184.7150  176.8790  137.3310 C   0  0  1  0  0  3  0  0  0  0  0  0
  185.7380  175.8510  136.8830 C   0  0  0  0  0  2  0  0  0  0  0  0
  186.0420  177.3240  136.7390 C   0  0  2  0  0  3  0  0  0  0  0  0
  183.6160  176.9800  136.3140 C   0  0  0  0  0  0  0  0  0  0  0  0
  182.3380  177.5140  136.6620 N   0  0  0  0  0  2  0  0  0  0  0  0
  183.8300  176.6340  135.1200 O   0  0  0  0  0  0  0  0  0  0  0  0
  182.0130  177.9660  138.0070 C   0  0  0  0  0  2  0  0  0  0  0  0
  182.3840  179.4300  138.1760 C   0  0  0  0  0  2  0  0  0  0  0  0
  184.1840  178.1420  140.9740 C   0  0  2  0  0  3  0  0  0  0  0  0
  185.0620  179.2680  140.4640 C   0  0  0  0  0  2  0  0  0  0  0  0
  184.4770  179.7830  139.2990 O   0  0  0  0  0  0  0  0  0  0  0  0
  183.0910  179.6740  139.5000 C   0  0  2  0  0  3  0  0  0  0  0  0
  182.8270  178.5100  140.4290 C   0  0  0  0  0  2  0  0  0  0  0  0
  184.6130  179.6440  144.2260 C   0  0  0  0  0  2  0  0  0  0  0  0
  182.8870  178.6140  142.9080 C   0  0  0  0  0  2  0  0  0  0  0  0
  184.1730  178.1020  142.4400 N   0  0  0  0  0  0  0  0  0  0  0  0
  185.1490  179.0670  142.9360 C   0  0  0  0  0  2  0  0  0  0  0  0
  183.1300  179.3740  144.1930 C   0  0  0  0  0  2  0  0  0  0  0  0
  191.1060  176.1940  137.0790 C   0  0  0  0  0  2  0  0  0  0  0  0
  191.7940  174.8540  137.2750 C   0  0  0  0  0  2  0  0  0  0  0  0
  191.7510  174.0910  136.0370 N   0  0  0  0  0  2  0  0  0  0  0  0
  192.8130  173.2480  135.5820 C   0  0  0  0  0  0  0  0  0  0  0  0
  192.5050  171.9200  134.6730 S   0  0  0  0  0  0  0  0  0  0  0  0
  194.1730  173.5490  135.9140 N   0  0  0  0  0  2  0  0  0  0  0  0
  194.9260  172.9410  136.9670 C   0  0  0  0  0  0  0  0  0  0  0  0
  194.4160  172.0530  137.7030 O   0  0  0  0  0  0  0  0  0  0  0  0
  196.3400  173.3760  137.1900 C   0  0  2  0  0  3  0  0  0  0  0  0
  197.2470  172.1550  137.1990 C   0  0  0  0  0  1  0  0  0  0  0  0
  196.4800  174.1830  138.4860 C   0  0  2  0  0  3  0  0  0  0  0  0
  195.3890  175.0430  138.6460 O   0  0  0  0  0  1  0  0  0  0  0  0
  198.2070  175.4090  137.4630 O   0  0  0  0  0  0  0  0  0  0  0  0
  197.7490  174.9830  138.5100 C   0  0  0  0  0  0  0  0  0  0  0  0
  198.4640  175.2460  139.7950 C   0  0  0  0  0  2  0  0  0  0  0  0
  197.5910  175.0660  140.8680 O   0  0  0  0  0  1  0  0  0  0  0  0
  1  5  2  0  0  0  0
  2  3  1  0  0  0  0
  3  1  1  0  0  0  0
  4  1  1  0  0  0  0
  5  7  2  0  0  0  0
  6  2  1  0  0  0  0
  6  4  2  0  0  0  0
  7  9  1  0  0  0  0
  8 17  1  0  0  0  0
  8  2  2  0  0  0  0
  9 10  1  1  0  0  0
  9 11  1  0  0  0  0
 11 12  1  0  0  0  0
 12 15  1  0  0  0  0
 14 15  1  0  0  0  0
 15 13  1  0  0  0  0
 15 16  1  0  0  0  0
 18 21  1  6  0  0  0
 19 18  1  0  0  0  0
 20 19  1  0  0  0  0
 20 18  1  0  0  0  0
 20 17  1  1  0  0  0
 21 22  1  0  0  0  0
 22 24  1  0  0  0  0
 23 21  2  0  0  0  0
 24 25  1  0  0  0  0
 26 30  1  1  0  0  0
 26 33  1  0  0  0  0
 27 26  1  0  0  0  0
 28 29  1  0  0  0  0
 28 27  1  0  0  0  0
 29 25  1  6  0  0  0
 29 30  1  0  0  0  0
 32 35  1  0  0  0  0
 33 32  1  0  0  0  0
 33 34  1  0  0  0  0
 34 31  1  0  0  0  0
 35 31  1  0  0  0  0
 36 37  1  0  0  0  0
 36  6  1  0  0  0  0
 38 37  1  0  0  0  0
 39 41  1  0  0  0  0
 39 38  1  0  0  0  0
 40 39  2  0  0  0  0
 41 42  1  0  0  0  0
 42 44  1  0  0  0  0
 42 43  2  0  0  0  0
 44 45  1  1  0  0  0
 44 46  1  0  0  0  0
 46 49  1  0  0  0  0
 46 47  1  6  0  0  0
 48 49  2  0  0  0  0
 49 50  1  0  0  0  0
 50 51  1  0  0  0  0
M  END
>  <MODEL>
4

>  <REMARK>
 VINA RESULT:      -7.3      2.318      4.693
  Name = 
  20 active torsions:
  status: ('A' for Active; 'I' for Inactive)
    1  A    between atoms: C_1  and  N_30
    2  A    between atoms: C_1  and  C_40
    3  A    between atoms: C_4  and  N_8
    4  A    between atoms: C_4  and  N_30
    5  A    between atoms: C_5  and  C_23
    6  A    between atoms: C_5  and  C_44
    7  A    between atoms: C_6  and  C_9
    8  A    between atoms: N_12  and  C_38
    9  A    between atoms: C_13  and  N_18
   10  A    between atoms: C_14  and  C_15
   11  A    between atoms: C_14  and  C_24
   12  A    between atoms: C_15  and  C_17
   13  A    between atoms: C_17  and  C_25
   14  A    between atoms: C_19  and  C_46
   15  A    between atoms: C_19  and  C_49
   16  A    between atoms: C_23  and  O_35
   17  A    between atoms: C_32  and  C_36
   18  A    between atoms: C_32  and  C_38
   19  A    between atoms: C_33  and  O_35
   20  A    between atoms: C_39  and  C_40
                            x       y       z     vdW  Elec       q    Type
                         _______ _______ _______ _____ _____    ______ ____

>  <TORSDO>
F 20

$$$$
=
 OpenBabel10232408533D

 51 54  0  0  1  0  0  0  0  0999 V2000
  188.6880  177.4330  138.0660 C   0  0  0  0  0  0  0  0  0  0  0  0
  190.0170  177.3570  140.1640 C   0  0  0  0  0  0  0  0  0  0  0  0
  188.4230  177.6650  139.7080 S   0  0  0  0  0  0  0  0  0  0  0  0
  190.0180  177.1150  137.8330 C   0  0  0  0  0  2  0  0  0  0  0  0
  187.7820  177.5670  137.1400 C   0  0  0  0  0  0  0  0  0  0  0  0
  190.7630  177.0670  139.0210 C   0  0  0  0  0  0  0  0  0  0  0  0
  186.8720  177.7060  136.2150 C   0  0  0  0  0  3  0  0  0  0  0  0
  190.4950  177.3860  141.4080 C   0  0  0  0  0  2  0  0  0  0  0  0
  185.4740  177.2530  136.4550 C   0  0  2  0  0  3  0  0  0  0  0  0
  185.2700  177.0640  137.8100 F   0  0  0  0  0  0  0  0  0  0  0  0
  185.2190  175.9480  135.7270 C   0  0  0  0  0  2  0  0  0  0  0  0
  184.6820  174.9990  136.6140 O   0  0  0  0  0  0  0  0  0  0  0  0
  186.2460  173.5960  135.4050 C   0  0  0  0  0  1  0  0  0  0  0  0
  186.5870  174.3040  137.6200 F   0  0  0  0  0  0  0  0  0  0  0  0
  185.5900  173.9260  136.7420 C   0  0  0  0  0  0  0  0  0  0  0  0
  184.9730  172.7940  137.2580 F   0  0  0  0  0  0  0  0  0  0  0  0
  189.6420  177.7020  142.5900 C   0  0  0  0  0  2  0  0  0  0  0  0
  189.8680  178.0200  145.0290 C   0  0  1  0  0  3  0  0  0  0  0  0
  191.2380  178.2050  144.4040 C   0  0  0  0  0  2  0  0  0  0  0  0
  190.2940  177.1650  143.8470 C   0  0  2  0  0  3  0  0  0  0  0  0
  189.9960  177.2560  146.3150 C   0  0  0  0  0  0  0  0  0  0  0  0
  189.0010  177.3610  147.3350 N   0  0  0  0  0  2  0  0  0  0  0  0
  190.9670  176.4700  146.4860 O   0  0  0  0  0  0  0  0  0  0  0  0
  187.8320  178.2190  147.2100 C   0  0  0  0  0  2  0  0  0  0  0  0
  186.7790  177.5520  146.3410 C   0  0  0  0  0  2  0  0  0  0  0  0
  184.4320  178.2990  143.7590 C   0  0  2  0  0  3  0  0  0  0  0  0
  183.8320  178.9440  144.9930 C   0  0  0  0  0  2  0  0  0  0  0  0
  184.6440  178.6240  146.0910 O   0  0  0  0  0  0  0  0  0  0  0  0
  185.9540  178.5790  145.5820 C   0  0  2  0  0  3  0  0  0  0  0  0
  185.8920  178.1910  144.1220 C   0  0  0  0  0  2  0  0  0  0  0  0
  184.9310  179.1010  140.2770 C   0  0  0  0  0  2  0  0  0  0  0  0
  183.1340  178.6050  141.7930 C   0  0  0  0  0  2  0  0  0  0  0  0
  184.2420  179.1450  142.5760 N   0  0  0  0  0  0  0  0  0  0  0  0
  185.4060  178.9940  141.7080 C   0  0  0  0  0  2  0  0  0  0  0  0
  183.4520  178.8180  140.3290 C   0  0  0  0  0  2  0  0  0  0  0  0
  192.2320  176.7850  139.0300 C   0  0  0  0  0  2  0  0  0  0  0  0
  192.6350  176.0040  137.7920 C   0  0  0  0  0  2  0  0  0  0  0  0
  194.0840  175.8800  137.7370 N   0  0  0  0  0  2  0  0  0  0  0  0
  194.7800  175.0780  136.7780 C   0  0  0  0  0  0  0  0  0  0  0  0
  194.3520  175.0950  135.1960 S   0  0  0  0  0  0  0  0  0  0  0  0
  195.8690  174.2420  137.1830 N   0  0  0  0  0  2  0  0  0  0  0  0
  197.2550  174.5890  137.1100 C   0  0  0  0  0  0  0  0  0  0  0  0
  197.6220  175.7120  136.6700 O   0  0  0  0  0  0  0  0  0  0  0  0
  198.2750  173.5940  137.5660 C   0  0  2  0  0  3  0  0  0  0  0  0
  199.4540  174.3290  138.1860 C   0  0  0  0  0  1  0  0  0  0  0  0
  198.7270  172.6870  136.4150 C   0  0  2  0  0  3  0  0  0  0  0  0
  198.8650  173.4260  135.2370 O   0  0  0  0  0  1  0  0  0  0  0  0
  197.3010  171.3890  135.0680 O   0  0  0  0  0  0  0  0  0  0  0  0
  197.7640  171.5600  136.1830 C   0  0  0  0  0  0  0  0  0  0  0  0
  197.3540  170.6610  137.3030 C   0  0  0  0  0  2  0  0  0  0  0  0
  195.9630  170.5630  137.3470 O   0  0  0  0  0  1  0  0  0  0  0  0
  1  3  1  0  0  0  0
  2  8  1  0  0  0  0
  3  2  1  0  0  0  0
  4  1  1  0  0  0  0
  4  6  1  0  0  0  0
  5  1  2  0  0  0  0
  6 36  1  0  0  0  0
  6  2  2  0  0  0  0
  7  9  1  0  0  0  0
  7  5  2  0  0  0  0
  8 17  1  0  0  0  0
  9 10  1  1  0  0  0
 11  9  1  0  0  0  0
 11 12  1  0  0  0  0
 12 15  1  0  0  0  0
 13 15  1  0  0  0  0
 15 16  1  0  0  0  0
 15 14  1  0  0  0  0
 18 21  1  1  0  0  0
 19 18  1  0  0  0  0
 20 17  1  6  0  0  0
 20 19  1  0  0  0  0
 20 18  1  0  0  0  0
 21 23  2  0  0  0  0
 21 22  1  0  0  0  0
 24 22  1  0  0  0  0
 25 24  1  0  0  0  0
 26 33  1  6  0  0  0
 26 30  1  0  0  0  0
 26 27  1  0  0  0  0
 27 28  1  0  0  0  0
 29 28  1  0  0  0  0
 29 25  1  1  0  0  0
 30 29  1  0  0  0  0
 31 35  1  0  0  0  0
 31 34  1  0  0  0  0
 32 33  1  0  0  0  0
 34 33  1  0  0  0  0
 35 32  1  0  0  0  0
 37 36  1  0  0  0  0
 38 37  1  0  0  0  0
 39 41  1  0  0  0  0
 39 38  1  0  0  0  0
 40 39  2  0  0  0  0
 42 41  1  0  0  0  0
 42 44  1  0  0  0  0
 43 42  2  0  0  0  0
 44 45  1  6  0  0  0
 46 47  1  6  0  0  0
 46 44  1  0  0  0  0
 48 49  2  0  0  0  0
 49 46  1  0  0  0  0
 49 50  1  0  0  0  0
 50 51  1  0  0  0  0
M  END
>  <MODEL>
5

>  <REMARK>
 VINA RESULT:      -7.3      3.874      7.829
  Name = 
  20 active torsions:
  status: ('A' for Active; 'I' for Inactive)
    1  A    between atoms: C_1  and  N_30
    2  A    between atoms: C_1  and  C_40
    3  A    between atoms: C_4  and  N_8
    4  A    between atoms: C_4  and  N_30
    5  A    between atoms: C_5  and  C_23
    6  A    between atoms: C_5  and  C_44
    7  A    between atoms: C_6  and  C_9
    8  A    between atoms: N_12  and  C_38
    9  A    between atoms: C_13  and  N_18
   10  A    between atoms: C_14  and  C_15
   11  A    between atoms: C_14  and  C_24
   12  A    between atoms: C_15  and  C_17
   13  A    between atoms: C_17  and  C_25
   14  A    between atoms: C_19  and  C_46
   15  A    between atoms: C_19  and  C_49
   16  A    between atoms: C_23  and  O_35
   17  A    between atoms: C_32  and  C_36
   18  A    between atoms: C_32  and  C_38
   19  A    between atoms: C_33  and  O_35
   20  A    between atoms: C_39  and  C_40
                            x       y       z     vdW  Elec       q    Type
                         _______ _______ _______ _____ _____    ______ ____

>  <TORSDO>
F 20

$$$$
=
 OpenBabel10232408533D

 51 54  0  0  1  0  0  0  0  0999 V2000
  187.0270  178.1910  139.5380 C   0  0  0  0  0  0  0  0  0  0  0  0
  189.0390  177.8400  140.9510 C   0  0  0  0  0  0  0  0  0  0  0  0
  187.3910  178.1210  141.1750 S   0  0  0  0  0  0  0  0  0  0  0  0
  188.1730  178.0020  138.7800 C   0  0  0  0  0  2  0  0  0  0  0  0
  185.8430  178.4260  139.0480 C   0  0  0  0  0  0  0  0  0  0  0  0
  189.3060  177.7980  139.5830 C   0  0  0  0  0  0  0  0  0  0  0  0
  184.6550  178.6640  138.5630 C   0  0  0  0  0  3  0  0  0  0  0  0
  189.9460  177.6850  141.9170 C   0  0  0  0  0  2  0  0  0  0  0  0
  183.4430  178.0890  139.2110 C   0  0  2  0  0  3  0  0  0  0  0  0
  183.8200  177.1630  140.1660 F   0  0  0  0  0  0  0  0  0  0  0  0
  182.5730  177.4080  138.1730 C   0  0  0  0  0  2  0  0  0  0  0  0
  182.6870  176.0130  138.2910 O   0  0  0  0  0  0  0  0  0  0  0  0
  180.3010  176.2970  137.9730 C   0  0  0  0  0  1  0  0  0  0  0  0
  181.3510  174.1970  138.0760 F   0  0  0  0  0  0  0  0  0  0  0  0
  181.4200  175.4730  138.6020 C   0  0  0  0  0  0  0  0  0  0  0  0
  181.2280  175.3810  139.9740 F   0  0  0  0  0  0  0  0  0  0  0  0
  189.5940  177.7390  143.3660 C   0  0  0  0  0  2  0  0  0  0  0  0
  191.3680  177.0130  144.9240 C   0  0  1  0  0  3  0  0  0  0  0  0
  191.6060  176.3290  143.5910 C   0  0  0  0  0  2  0  0  0  0  0  0
  190.1930  176.5460  144.0810 C   0  0  2  0  0  3  0  0  0  0  0  0
  191.6370  176.0510  146.0450 C   0  0  0  0  0  0  0  0  0  0  0  0
  191.0420  176.2350  147.3310 N   0  0  0  0  0  2  0  0  0  0  0  0
  192.3580  175.0370  145.8430 O   0  0  0  0  0  0  0  0  0  0  0  0
  190.1710  177.3600  147.6420 C   0  0  0  0  0  2  0  0  0  0  0  0
  188.7150  176.9620  147.4720 C   0  0  0  0  0  2  0  0  0  0  0  0
  185.5960  178.2000  146.2600 C   0  0  2  0  0  3  0  0  0  0  0  0
  185.9270  179.1210  147.4180 C   0  0  0  0  0  2  0  0  0  0  0  0
  187.1030  178.6550  148.0230 O   0  0  0  0  0  0  0  0  0  0  0  0
  187.8760  178.1290  146.9750 C   0  0  2  0  0  3  0  0  0  0  0  0
  186.9470  177.6470  145.8830 C   0  0  0  0  0  2  0  0  0  0  0  0
  184.1300  178.4230  142.9710 C   0  0  0  0  0  2  0  0  0  0  0  0
  183.5450  178.8640  145.2600 C   0  0  0  0  0  2  0  0  0  0  0  0
  184.9990  178.9450  145.1460 N   0  0  0  0  0  0  0  0  0  0  0  0
  185.3050  178.2420  143.9040 C   0  0  0  0  0  2  0  0  0  0  0  0
  182.9730  178.8000  143.8610 C   0  0  0  0  0  2  0  0  0  0  0  0
  190.6720  177.6110  139.0020 C   0  0  0  0  0  2  0  0  0  0  0  0
  190.9710  176.1360  138.7990 C   0  0  0  0  0  2  0  0  0  0  0  0
  191.2170  175.8720  137.3890 N   0  0  0  0  0  2  0  0  0  0  0  0
  191.4100  174.5630  136.8450 C   0  0  0  0  0  0  0  0  0  0  0  0
  190.2190  173.8160  136.0040 S   0  0  0  0  0  0  0  0  0  0  0  0
  192.6540  173.8770  137.0250 N   0  0  0  0  0  2  0  0  0  0  0  0
  193.8800  174.1900  136.3560 C   0  0  0  0  0  0  0  0  0  0  0  0
  193.9460  175.1410  135.5310 O   0  0  0  0  0  0  0  0  0  0  0  0
  195.0940  173.3670  136.6490 C   0  0  2  0  0  3  0  0  0  0  0  0
  194.6680  171.9580  137.0310 C   0  0  0  0  0  1  0  0  0  0  0  0
  195.9530  174.0060  137.7470 C   0  0  2  0  0  3  0  0  0  0  0  0
  195.2820  175.0890  138.3230 O   0  0  0  0  0  1  0  0  0  0  0  0
  197.4380  175.6490  136.9540 O   0  0  0  0  0  0  0  0  0  0  0  0
  197.2790  174.4690  137.2190 C   0  0  0  0  0  0  0  0  0  0  0  0
  198.3940  173.5000  136.9970 C   0  0  0  0  0  2  0  0  0  0  0  0
  199.5120  173.8880  137.7360 O   0  0  0  0  0  1  0  0  0  0  0  0
  1  3  1  0  0  0  0
  2  3  1  0  0  0  0
  2  8  1  0  0  0  0
  4  1  1  0  0  0  0
  4  6  1  0  0  0  0
  5  1  2  0  0  0  0
  6  2  2  0  0  0  0
  7  5  2  0  0  0  0
  7  9  1  0  0  0  0
  8 17  1  0  0  0  0
  9 10  1  1  0  0  0
 11 12  1  0  0  0  0
 11  9  1  0  0  0  0
 12 15  1  0  0  0  0
 13 15  1  0  0  0  0
 14 15  1  0  0  0  0
 15 16  1  0  0  0  0
 18 21  1  1  0  0  0
 19 20  1  0  0  0  0
 19 18  1  0  0  0  0
 20 17  1  6  0  0  0
 20 18  1  0  0  0  0
 21 22  1  0  0  0  0
 22 24  1  0  0  0  0
 23 21  2  0  0  0  0
 25 24  1  0  0  0  0
 26 33  1  6  0  0  0
 26 27  1  0  0  0  0
 27 28  1  0  0  0  0
 29 25  1  1  0  0  0
 29 28  1  0  0  0  0
 30 26  1  0  0  0  0
 30 29  1  0  0  0  0
 31 35  1  0  0  0  0
 31 34  1  0  0  0  0
 33 32  1  0  0  0  0
 34 33  1  0  0  0  0
 35 32  1  0  0  0  0
 36  6  1  0  0  0  0
 37 36  1  0  0  0  0
 38 37  1  0  0  0  0
 39 41  1  0  0  0  0
 39 38  1  0  0  0  0
 40 39  2  0  0  0  0
 42 44  1  0  0  0  0
 42 41  1  0  0  0  0
 43 42  2  0  0  0  0
 44 45  1  1  0  0  0
 44 46  1  0  0  0  0
 46 47  1  6  0  0  0
 48 49  2  0  0  0  0
 49 46  1  0  0  0  0
 50 49  1  0  0  0  0
 50 51  1  0  0  0  0
M  END
>  <MODEL>
6

>  <REMARK>
 VINA RESULT:      -7.2      3.565      7.961
  Name = 
  20 active torsions:
  status: ('A' for Active; 'I' for Inactive)
    1  A    between atoms: C_1  and  N_30
    2  A    between atoms: C_1  and  C_40
    3  A    between atoms: C_4  and  N_8
    4  A    between atoms: C_4  and  N_30
    5  A    between atoms: C_5  and  C_23
    6  A    between atoms: C_5  and  C_44
    7  A    between atoms: C_6  and  C_9
    8  A    between atoms: N_12  and  C_38
    9  A    between atoms: C_13  and  N_18
   10  A    between atoms: C_14  and  C_15
   11  A    between atoms: C_14  and  C_24
   12  A    between atoms: C_15  and  C_17
   13  A    between atoms: C_17  and  C_25
   14  A    between atoms: C_19  and  C_46
   15  A    between atoms: C_19  and  C_49
   16  A    between atoms: C_23  and  O_35
   17  A    between atoms: C_32  and  C_36
   18  A    between atoms: C_32  and  C_38
   19  A    between atoms: C_33  and  O_35
   20  A    between atoms: C_39  and  C_40
                            x       y       z     vdW  Elec       q    Type
                         _______ _______ _______ _____ _____    ______ ____

>  <TORSDO>
F 20

$$$$
=
 OpenBabel10232408533D

 51 54  0  0  1  0  0  0  0  0999 V2000
  190.6980  177.2050  142.8270 C   0  0  0  0  0  0  0  0  0  0  0  0
  190.4930  177.4350  140.3620 C   0  0  0  0  0  0  0  0  0  0  0  0
  189.4690  177.2090  141.6820 S   0  0  0  0  0  0  0  0  0  0  0  0
  191.9300  177.3750  142.2130 C   0  0  0  0  0  3  0  0  0  0  0  0
  190.5230  177.0320  144.1060 C   0  0  0  0  0  0  0  0  0  0  0  0
  191.8080  177.5110  140.8210 C   0  0  0  0  0  0  0  0  0  0  0  0
  190.3430  176.8540  145.3860 C   0  0  0  0  0  3  0  0  0  0  0  0
  190.1180  177.5240  139.0860 C   0  0  0  0  0  3  0  0  0  0  0  0
  189.1660  177.4530  146.0750 C   0  0  2  0  0  3  0  0  0  0  0  0
  188.9540  176.8110  147.2820 F   0  0  0  0  0  0  0  0  0  0  0  0
  187.9290  177.3090  145.2110 C   0  0  0  0  0  2  0  0  0  0  0  0
  187.1590  178.4820  145.2730 O   0  0  0  0  0  0  0  0  0  0  0  0
  186.2640  178.9520  147.4760 C   0  0  0  0  0  1  0  0  0  0  0  0
  184.9360  178.8140  145.5430 F   0  0  0  0  0  0  0  0  0  0  0  0
  186.0590  178.2650  146.1310 C   0  0  0  0  0  0  0  0  0  0  0  0
  185.8220  176.9100  146.3220 F   0  0  0  0  0  0  0  0  0  0  0  0
  188.6910  177.4370  138.6590 C   0  0  0  0  0  2  0  0  0  0  0  0
  188.1710  175.6780  137.0040 C   0  0  1  0  0  3  0  0  0  0  0  0
  189.6340  176.0510  136.8490 C   0  0  0  0  0  2  0  0  0  0  0  0
  188.6190  177.1200  137.1800 C   0  0  2  0  0  3  0  0  0  0  0  0
  187.5530  175.4730  135.6520 C   0  0  0  0  0  0  0  0  0  0  0  0
  186.1350  175.3980  135.4940 N   0  0  0  0  0  2  0  0  0  0  0  0
  188.2870  175.4120  134.6270 O   0  0  0  0  0  0  0  0  0  0  0  0
  185.2130  175.4900  136.6170 C   0  0  0  0  0  2  0  0  0  0  0  0
  184.3560  176.7390  136.4950 C   0  0  0  0  0  2  0  0  0  0  0  0
  184.4160  179.3040  138.9740 C   0  0  2  0  0  3  0  0  0  0  0  0
  182.9390  179.0370  138.7630 C   0  0  0  0  0  2  0  0  0  0  0  0
  182.8080  178.0980  137.7300 O   0  0  0  0  0  0  0  0  0  0  0  0
  183.9200  177.2480  137.8590 C   0  0  2  0  0  3  0  0  0  0  0  0
  185.0540  178.0260  138.4880 C   0  0  0  0  0  2  0  0  0  0  0  0
  184.2880  178.4150  142.4680 C   0  0  0  0  0  2  0  0  0  0  0  0
  185.9180  178.7900  140.7420 C   0  0  0  0  0  2  0  0  0  0  0  0
  184.7140  179.5390  140.3910 N   0  0  0  0  0  0  0  0  0  0  0  0
  183.6590  178.9260  141.1920 C   0  0  0  0  0  2  0  0  0  0  0  0
  185.7600  178.2970  142.1640 C   0  0  0  0  0  2  0  0  0  0  0  0
  192.9990  177.6650  139.9280 C   0  0  0  0  0  2  0  0  0  0  0  0
  193.3610  176.3380  139.2840 C   0  0  0  0  0  2  0  0  0  0  0  0
  193.4000  176.4880  137.8370 N   0  0  0  0  0  2  0  0  0  0  0  0
  193.9340  175.5020  136.9480 C   0  0  0  0  0  0  0  0  0  0  0  0
  192.9970  174.2830  136.3810 S   0  0  0  0  0  0  0  0  0  0  0  0
  195.3030  175.5610  136.5340 N   0  0  0  0  0  2  0  0  0  0  0  0
  196.3880  174.8570  137.1460 C   0  0  0  0  0  0  0  0  0  0  0  0
  196.1950  174.0960  138.1330 O   0  0  0  0  0  0  0  0  0  0  0  0
  197.7680  175.0350  136.5970 C   0  0  2  0  0  3  0  0  0  0  0  0
  197.7260  174.9160  135.0810 C   0  0  0  0  0  1  0  0  0  0  0  0
  198.7480  174.0270  137.2080 C   0  0  2  0  0  3  0  0  0  0  0  0
  199.9390  174.6630  137.5710 O   0  0  0  0  0  1  0  0  0  0  0  0
  200.0880  172.9320  135.6140 O   0  0  0  0  0  0  0  0  0  0  0  0
  199.0550  172.9030  136.2620 C   0  0  0  0  0  0  0  0  0  0  0  0
  198.1040  171.7640  136.0930 C   0  0  0  0  0  2  0  0  0  0  0  0
  197.7610  171.2440  137.3420 O   0  0  0  0  0  1  0  0  0  0  0  0
  1  5  2  0  0  0  0
  2  6  1  0  0  0  0
  2  3  1  0  0  0  0
  3  1  1  0  0  0  0
  4  1  1  0  0  0  0
  5  7  2  0  0  0  0
  6  4  2  0  0  0  0
  7  9  1  0  0  0  0
  8  2  2  0  0  0  0
  9 10  1  1  0  0  0
 11 12  1  0  0  0  0
 11  9  1  0  0  0  0
 12 15  1  0  0  0  0
 14 15  1  0  0  0  0
 15 16  1  0  0  0  0
 15 13  1  0  0  0  0
 17  8  1  0  0  0  0
 18 21  1  6  0  0  0
 18 20  1  0  0  0  0
 19 18  1  0  0  0  0
 19 20  1  0  0  0  0
 20 17  1  1  0  0  0
 22 21  1  0  0  0  0
 22 24  1  0  0  0  0
 23 21  2  0  0  0  0
 25 24  1  0  0  0  0
 26 30  1  1  0  0  0
 26 33  1  0  0  0  0
 27 26  1  0  0  0  0
 28 29  1  0  0  0  0
 28 27  1  0  0  0  0
 29 25  1  6  0  0  0
 29 30  1  0  0  0  0
 32 35  1  0  0  0  0
 33 32  1  0  0  0  0
 33 34  1  0  0  0  0
 34 31  1  0  0  0  0
 35 31  1  0  0  0  0
 36  6  1  0  0  0  0
 37 36  1  0  0  0  0
 38 37  1  0  0  0  0
 39 38  1  0  0  0  0
 40 39  2  0  0  0  0
 41 39  1  0  0  0  0
 41 42  1  0  0  0  0
 42 43  2  0  0  0  0
 44 45  1  6  0  0  0
 44 42  1  0  0  0  0
 44 46  1  0  0  0  0
 46 47  1  6  0  0  0
 48 49  2  0  0  0  0
 49 46  1  0  0  0  0
 50 49  1  0  0  0  0
 50 51  1  0  0  0  0
M  END
>  <MODEL>
7

>  <REMARK>
 VINA RESULT:      -6.9      2.522      5.144
  Name = 
  20 active torsions:
  status: ('A' for Active; 'I' for Inactive)
    1  A    between atoms: C_1  and  N_30
    2  A    between atoms: C_1  and  C_40
    3  A    between atoms: C_4  and  N_8
    4  A    between atoms: C_4  and  N_30
    5  A    between atoms: C_5  and  C_23
    6  A    between atoms: C_5  and  C_44
    7  A    between atoms: C_6  and  C_9
    8  A    between atoms: N_12  and  C_38
    9  A    between atoms: C_13  and  N_18
   10  A    between atoms: C_14  and  C_15
   11  A    between atoms: C_14  and  C_24
   12  A    between atoms: C_15  and  C_17
   13  A    between atoms: C_17  and  C_25
   14  A    between atoms: C_19  and  C_46
   15  A    between atoms: C_19  and  C_49
   16  A    between atoms: C_23  and  O_35
   17  A    between atoms: C_32  and  C_36
   18  A    between atoms: C_32  and  C_38
   19  A    between atoms: C_33  and  O_35
   20  A    between atoms: C_39  and  C_40
                            x       y       z     vdW  Elec       q    Type
                         _______ _______ _______ _____ _____    ______ ____

>  <TORSDO>
F 20

$$$$
=
 OpenBabel10232408533D

 51 54  0  0  1  0  0  0  0  0999 V2000
  190.6320  175.2780  136.0600 C   0  0  0  0  0  0  0  0  0  0  0  0
  188.3560  175.7000  136.9610 C   0  0  0  0  0  0  0  0  0  0  0  0
  189.1880  174.4350  136.2200 S   0  0  0  0  0  0  0  0  0  0  0  0
  190.5010  176.5590  136.5740 C   0  0  0  0  0  2  0  0  0  0  0  0
  191.7100  174.8070  135.5000 C   0  0  0  0  0  0  0  0  0  0  0  0
  189.2160  176.7910  137.0880 C   0  0  0  0  0  0  0  0  0  0  0  0
  192.7870  174.3330  134.9360 C   0  0  0  0  0  3  0  0  0  0  0  0
  187.0840  175.6720  137.3620 C   0  0  0  0  0  2  0  0  0  0  0  0
  193.1820  172.9110  135.1370 C   0  0  2  0  0  3  0  0  0  0  0  0
  192.5070  172.3870  136.2240 F   0  0  0  0  0  0  0  0  0  0  0  0
  194.6740  172.8160  135.3850 C   0  0  0  0  0  2  0  0  0  0  0  0
  194.9190  172.5070  136.7330 O   0  0  0  0  0  0  0  0  0  0  0  0
  196.2280  173.4420  138.5470 C   0  0  0  0  0  1  0  0  0  0  0  0
  195.7960  174.5860  136.5400 F   0  0  0  0  0  0  0  0  0  0  0  0
  195.2220  173.6980  137.4290 C   0  0  0  0  0  0  0  0  0  0  0  0
  194.0790  174.2900  137.9480 F   0  0  0  0  0  0  0  0  0  0  0  0
  186.2160  174.4710  137.2000 C   0  0  0  0  0  2  0  0  0  0  0  0
  183.7540  174.6650  137.2510 C   0  0  1  0  0  3  0  0  0  0  0  0
  184.1200  173.6080  136.2250 C   0  0  0  0  0  2  0  0  0  0  0  0
  184.9920  174.8320  136.3850 C   0  0  2  0  0  3  0  0  0  0  0  0
  182.6230  175.5060  136.7330 C   0  0  0  0  0  0  0  0  0  0  0  0
  182.2140  176.6910  137.4170 N   0  0  0  0  0  2  0  0  0  0  0  0
  182.0510  175.1950  135.6520 O   0  0  0  0  0  0  0  0  0  0  0  0
  182.8380  177.1410  138.6530 C   0  0  0  0  0  2  0  0  0  0  0  0
  184.0920  177.9430  138.3490 C   0  0  0  0  0  2  0  0  0  0  0  0
  184.7540  178.3670  141.8290 C   0  0  2  0  0  3  0  0  0  0  0  0
  185.9650  178.9780  141.1520 C   0  0  0  0  0  2  0  0  0  0  0  0
  185.8400  178.7770  139.7700 O   0  0  0  0  0  0  0  0  0  0  0  0
  184.4610  178.8560  139.5070 C   0  0  2  0  0  3  0  0  0  0  0  0
  183.7070  178.4240  140.7450 C   0  0  0  0  0  2  0  0  0  0  0  0
  182.8360  178.8810  144.8420 C   0  0  0  0  0  2  0  0  0  0  0  0
  185.1310  178.7150  144.1490 C   0  0  0  0  0  2  0  0  0  0  0  0
  184.3480  179.1550  142.9980 N   0  0  0  0  0  0  0  0  0  0  0  0
  182.9730  178.8020  143.3390 C   0  0  0  0  0  2  0  0  0  0  0  0
  184.2450  178.7950  145.3720 C   0  0  0  0  0  2  0  0  0  0  0  0
  188.8130  178.1130  137.6610 C   0  0  0  0  0  2  0  0  0  0  0  0
  189.0900  178.1560  139.1540 C   0  0  0  0  0  2  0  0  0  0  0  0
  190.0090  177.0880  139.5160 N   0  0  0  0  0  2  0  0  0  0  0  0
  191.1410  177.2670  140.3720 C   0  0  0  0  0  0  0  0  0  0  0  0
  192.6670  177.1050  139.7960 S   0  0  0  0  0  0  0  0  0  0  0  0
  190.9640  177.5930  141.7540 N   0  0  0  0  0  2  0  0  0  0  0  0
  190.6070  176.6700  142.7870 C   0  0  0  0  0  0  0  0  0  0  0  0
  190.4240  175.4480  142.5330 O   0  0  0  0  0  0  0  0  0  0  0  0
  190.4500  177.1740  144.1860 C   0  0  2  0  0  3  0  0  0  0  0  0
  191.3910  176.4110  145.1060 C   0  0  0  0  0  1  0  0  0  0  0  0
  188.9960  177.0660  144.6620 C   0  0  2  0  0  3  0  0  0  0  0  0
  188.1390  177.7050  143.7610 O   0  0  0  0  0  1  0  0  0  0  0  0
  189.6600  178.4110  146.4740 O   0  0  0  0  0  0  0  0  0  0  0  0
  188.8110  177.6580  146.0280 C   0  0  0  0  0  0  0  0  0  0  0  0
  187.6100  177.3220  146.8510 C   0  0  0  0  0  2  0  0  0  0  0  0
  187.9450  177.3420  148.2050 O   0  0  0  0  0  1  0  0  0  0  0  0
  1  3  1  0  0  0  0
  1  4  1  0  0  0  0
  2  6  2  0  0  0  0
  2  8  1  0  0  0  0
  3  2  1  0  0  0  0
  4  6  1  0  0  0  0
  5  1  2  0  0  0  0
  6 36  1  0  0  0  0
  7  9  1  0  0  0  0
  7  5  2  0  0  0  0
  9 11  1  0  0  0  0
  9 10  1  1  0  0  0
 11 12  1  0  0  0  0
 12 15  1  0  0  0  0
 14 15  1  0  0  0  0
 15 16  1  0  0  0  0
 15 13  1  0  0  0  0
 17  8  1  0  0  0  0
 18 21  1  6  0  0  0
 19 20  1  0  0  0  0
 19 18  1  0  0  0  0
 20 17  1  1  0  0  0
 20 18  1  0  0  0  0
 21 22  1  0  0  0  0
 22 24  1  0  0  0  0
 23 21  2  0  0  0  0
 25 24  1  0  0  0  0
 26 30  1  6  0  0  0
 26 33  1  0  0  0  0
 27 26  1  0  0  0  0
 28 27  1  0  0  0  0
 29 25  1  6  0  0  0
 29 28  1  0  0  0  0
 29 30  1  0  0  0  0
 31 35  1  0  0  0  0
 32 35  1  0  0  0  0
 33 34  1  0  0  0  0
 33 32  1  0  0  0  0
 34 31  1  0  0  0  0
 36 37  1  0  0  0  0
 37 38  1  0  0  0  0
 38 39  1  0  0  0  0
 39 41  1  0  0  0  0
 40 39  2  0  0  0  0
 41 42  1  0  0  0  0
 42 44  1  0  0  0  0
 43 42  2  0  0  0  0
 44 46  1  0  0  0  0
 44 45  1  1  0  0  0
 46 47  1  6  0  0  0
 46 49  1  0  0  0  0
 49 48  2  0  0  0  0
 49 50  1  0  0  0  0
 50 51  1  0  0  0  0
M  END
>  <MODEL>
8

>  <REMARK>
 VINA RESULT:      -6.5      3.583      8.427
  Name = 
  20 active torsions:
  status: ('A' for Active; 'I' for Inactive)
    1  A    between atoms: C_1  and  N_30
    2  A    between atoms: C_1  and  C_40
    3  A    between atoms: C_4  and  N_8
    4  A    between atoms: C_4  and  N_30
    5  A    between atoms: C_5  and  C_23
    6  A    between atoms: C_5  and  C_44
    7  A    between atoms: C_6  and  C_9
    8  A    between atoms: N_12  and  C_38
    9  A    between atoms: C_13  and  N_18
   10  A    between atoms: C_14  and  C_15
   11  A    between atoms: C_14  and  C_24
   12  A    between atoms: C_15  and  C_17
   13  A    between atoms: C_17  and  C_25
   14  A    between atoms: C_19  and  C_46
   15  A    between atoms: C_19  and  C_49
   16  A    between atoms: C_23  and  O_35
   17  A    between atoms: C_32  and  C_36
   18  A    between atoms: C_32  and  C_38
   19  A    between atoms: C_33  and  O_35
   20  A    between atoms: C_39  and  C_40
                            x       y       z     vdW  Elec       q    Type
                         _______ _______ _______ _____ _____    ______ ____

>  <TORSDO>
F 20

$$$$
=
 OpenBabel10232408533D

 51 54  0  0  1  0  0  0  0  0999 V2000
  191.0100  177.2470  140.3790 C   0  0  0  0  0  0  0  0  0  0  0  0
  189.9740  177.2390  138.1210 C   0  0  0  0  0  0  0  0  0  0  0  0
  189.5930  177.7980  139.6660 S   0  0  0  0  0  0  0  0  0  0  0  0
  191.8100  176.6150  139.4370 C   0  0  0  0  0  3  0  0  0  0  0  0
  191.3020  177.3650  141.6430 C   0  0  0  0  0  0  0  0  0  0  0  0
  191.2230  176.6190  138.1630 C   0  0  0  0  0  0  0  0  0  0  0  0
  191.5890  177.4820  142.9100 C   0  0  0  0  0  3  0  0  0  0  0  0
  189.2120  177.3630  137.0340 C   0  0  0  0  0  3  0  0  0  0  0  0
  191.2290  178.7210  143.6560 C   0  0  2  0  0  3  0  0  0  0  0  0
  192.3670  179.2800  144.2090 F   0  0  0  0  0  0  0  0  0  0  0  0
  190.2470  178.3950  144.7630 C   0  0  0  0  0  2  0  0  0  0  0  0
  188.9660  178.1860  144.2230 O   0  0  0  0  0  0  0  0  0  0  0  0
  188.9520  177.2370  146.4530 C   0  0  0  0  0  1  0  0  0  0  0  0
  187.1580  178.4620  145.5570 F   0  0  0  0  0  0  0  0  0  0  0  0
  188.1510  177.5720  145.1990 C   0  0  0  0  0  0  0  0  0  0  0  0
  187.5420  176.4260  144.7060 F   0  0  0  0  0  0  0  0  0  0  0  0
  187.8840  178.0410  137.0550 C   0  0  0  0  0  2  0  0  0  0  0  0
  185.6380  177.0130  137.0220 C   0  0  1  0  0  3  0  0  0  0  0  0
  186.6620  175.9080  136.8430 C   0  0  0  0  0  2  0  0  0  0  0  0
  186.8990  177.2600  136.2110 C   0  0  2  0  0  3  0  0  0  0  0  0
  184.4620  176.7680  136.1210 C   0  0  0  0  0  0  0  0  0  0  0  0
  183.3260  176.0330  136.5780 N   0  0  0  0  0  2  0  0  0  0  0  0
  184.4490  177.2570  134.9580 O   0  0  0  0  0  0  0  0  0  0  0  0
  183.2430  175.4610  137.9140 C   0  0  0  0  0  2  0  0  0  0  0  0
  181.9500  175.8840  138.5900 C   0  0  0  0  0  2  0  0  0  0  0  0
  182.8830  178.8220  140.3880 C   0  0  2  0  0  3  0  0  0  0  0  0
  181.5810  178.3950  141.0380 C   0  0  0  0  0  2  0  0  0  0  0  0
  181.0840  177.2900  140.3350 O   0  0  0  0  0  0  0  0  0  0  0  0
  182.2190  176.5730  139.9190 C   0  0  2  0  0  3  0  0  0  0  0  0
  183.3690  177.5420  139.7560 C   0  0  0  0  0  2  0  0  0  0  0  0
  184.8050  178.4900  143.4230 C   0  0  0  0  0  2  0  0  0  0  0  0
  185.1600  178.7870  141.0640 C   0  0  0  0  0  2  0  0  0  0  0  0
  183.8370  179.3150  141.3870 N   0  0  0  0  0  0  0  0  0  0  0  0
  183.5100  178.7100  142.6750 C   0  0  0  0  0  2  0  0  0  0  0  0
  185.8800  178.5110  142.3660 C   0  0  0  0  0  2  0  0  0  0  0  0
  191.8710  175.9620  136.9850 C   0  0  0  0  0  2  0  0  0  0  0  0
  191.8810  174.4530  137.1510 C   0  0  0  0  0  2  0  0  0  0  0  0
  192.0200  173.8140  135.8510 N   0  0  0  0  0  2  0  0  0  0  0  0
  193.1150  172.9650  135.4930 C   0  0  0  0  0  0  0  0  0  0  0  0
  192.8840  171.3670  135.2120 S   0  0  0  0  0  0  0  0  0  0  0  0
  194.4380  173.4970  135.3710 N   0  0  0  0  0  2  0  0  0  0  0  0
  195.5660  173.1080  136.1610 C   0  0  0  0  0  0  0  0  0  0  0  0
  195.4620  172.2240  137.0530 O   0  0  0  0  0  0  0  0  0  0  0  0
  196.8850  173.7700  135.9140 C   0  0  2  0  0  3  0  0  0  0  0  0
  197.9820  172.9850  136.6170 C   0  0  0  0  0  1  0  0  0  0  0  0
  196.8700  175.2350  136.3660 C   0  0  2  0  0  3  0  0  0  0  0  0
  195.8560  175.4460  137.3050 O   0  0  0  0  0  1  0  0  0  0  0  0
  197.5530  176.2680  134.3670 O   0  0  0  0  0  0  0  0  0  0  0  0
  196.6780  176.1730  135.2110 C   0  0  0  0  0  0  0  0  0  0  0  0
  195.4410  177.0030  135.0960 C   0  0  0  0  0  2  0  0  0  0  0  0
  195.7630  178.2660  134.5980 O   0  0  0  0  0  1  0  0  0  0  0  0
  1  5  2  0  0  0  0
  2  6  1  0  0  0  0
  2  3  1  0  0  0  0
  3  1  1  0  0  0  0
  4  1  1  0  0  0  0
  5  7  2  0  0  0  0
  6  4  2  0  0  0  0
  7  9  1  0  0  0  0
  8 17  1  0  0  0  0
  8  2  2  0  0  0  0
  9 10  1  1  0  0  0
  9 11  1  0  0  0  0
 12 11  1  0  0  0  0
 12 15  1  0  0  0  0
 15 14  1  0  0  0  0
 15 13  1  0  0  0  0
 16 15  1  0  0  0  0
 18 21  1  6  0  0  0
 19 18  1  0  0  0  0
 20 19  1  0  0  0  0
 20 18  1  0  0  0  0
 20 17  1  1  0  0  0
 21 22  1  0  0  0  0
 22 24  1  0  0  0  0
 23 21  2  0  0  0  0
 24 25  1  0  0  0  0
 26 30  1  1  0  0  0
 26 27  1  0  0  0  0
 26 33  1  0  0  0  0
 28 27  1  0  0  0  0
 29 25  1  6  0  0  0
 29 28  1  0  0  0  0
 30 29  1  0  0  0  0
 32 33  1  0  0  0  0
 32 35  1  0  0  0  0
 33 34  1  0  0  0  0
 34 31  1  0  0  0  0
 35 31  1  0  0  0  0
 36 37  1  0  0  0  0
 36  6  1  0  0  0  0
 38 37  1  0  0  0  0
 39 38  1  0  0  0  0
 40 39  2  0  0  0  0
 41 39  1  0  0  0  0
 41 42  1  0  0  0  0
 42 43  2  0  0  0  0
 44 42  1  0  0  0  0
 44 46  1  0  0  0  0
 44 45  1  1  0  0  0
 46 47  1  1  0  0  0
 48 49  2  0  0  0  0
 49 46  1  0  0  0  0
 50 49  1  0  0  0  0
 51 50  1  0  0  0  0
M  END
>  <MODEL>
9

>  <REMARK>
 VINA RESULT:      -6.5      2.506      5.119
  Name = 
  20 active torsions:
  status: ('A' for Active; 'I' for Inactive)
    1  A    between atoms: C_1  and  N_30
    2  A    between atoms: C_1  and  C_40
    3  A    between atoms: C_4  and  N_8
    4  A    between atoms: C_4  and  N_30
    5  A    between atoms: C_5  and  C_23
    6  A    between atoms: C_5  and  C_44
    7  A    between atoms: C_6  and  C_9
    8  A    between atoms: N_12  and  C_38
    9  A    between atoms: C_13  and  N_18
   10  A    between atoms: C_14  and  C_15
   11  A    between atoms: C_14  and  C_24
   12  A    between atoms: C_15  and  C_17
   13  A    between atoms: C_17  and  C_25
   14  A    between atoms: C_19  and  C_46
   15  A    between atoms: C_19  and  C_49
   16  A    between atoms: C_23  and  O_35
   17  A    between atoms: C_32  and  C_36
   18  A    between atoms: C_32  and  C_38
   19  A    between atoms: C_33  and  O_35
   20  A    between atoms: C_39  and  C_40
                            x       y       z     vdW  Elec       q    Type
                         _______ _______ _______ _____ _____    ______ ____

>  <TORSDO>
F 20

$$$$
