=
 OpenBabel10232407433D

 36 38  0  0  1  0  0  0  0  0999 V2000
  190.6720  176.1900  143.7590 C   0  0  0  0  0  2  0  0  0  0  0  0
  189.6460  176.7050  142.7780 C   0  0  0  0  0  0  0  0  0  0  0  0
  190.4800  177.6900  143.5700 C   0  0  0  0  0  2  0  0  0  0  0  0
  190.0480  176.5050  141.3300 C   0  0  0  0  0  2  0  0  0  0  0  0
  190.5040  177.7650  140.7670 N   0  0  0  0  0  2  0  0  0  0  0  0
  188.7950  175.9390  135.2640 N   0  0  0  0  0  1  0  0  0  0  0  0
  188.2040  177.5480  137.8200 C   0  0  1  0  0  3  0  0  0  0  0  0
  190.4690  177.1230  138.3580 C   0  0  0  0  0  0  0  0  0  0  0  0
  188.6030  178.0560  139.1790 C   0  0  0  0  0  0  0  0  0  0  0  0
  187.8610  178.7190  136.9170 C   0  0  0  0  0  1  0  0  0  0  0  0
  191.7120  176.5880  138.2480 N   0  0  0  0  0  0  0  0  0  0  0  0
  187.7980  178.5650  140.0030 O   0  0  0  0  0  0  0  0  0  0  0  0
  189.7920  176.1730  136.2560 C   0  0  0  0  0  0  0  0  0  0  0  0
  189.5040  176.9310  137.3930 C   0  0  0  0  0  0  0  0  0  0  0  0
  189.9840  177.8560  139.4670 N   0  0  0  0  0  0  0  0  0  0  0  0
  191.4380  174.8560  134.9890 N   0  0  0  0  0  1  0  0  0  0  0  0
  192.0340  175.8540  137.1440 C   0  0  0  0  0  3  0  0  0  0  0  0
  191.0860  175.6360  136.1270 C   0  0  0  0  0  0  0  0  0  0  0  0
  188.1950  176.4560  143.1960 C   0  0  0  0  0  2  0  0  0  0  0  0
  187.5910  177.6180  143.6920 O   0  0  0  0  0  0  0  0  0  0  0  0
  186.8400  177.2090  144.6980 O   0  0  0  0  0  0  0  0  0  0  0  0
  187.0310  178.1650  145.7070 C   0  0  1  0  0  3  0  0  0  0  0  0
  185.5730  179.4310  147.1500 O   0  0  0  0  0  1  0  0  0  0  0  0
  185.8300  179.1080  145.8160 C   0  0  2  0  0  3  0  0  0  0  0  0
  184.5860  178.4830  145.2000 C   0  0  0  0  0  2  0  0  0  0  0  0
  184.0800  179.2810  144.0050 C   0  0  0  0  0  2  0  0  0  0  0  0
  183.9640  178.4060  142.7670 C   0  0  0  0  0  2  0  0  0  0  0  0
  184.8410  178.9510  141.6530 C   0  0  0  0  0  2  0  0  0  0  0  0
  184.0370  179.0830  140.3730 C   0  0  0  0  0  3  0  0  0  0  0  0
  183.8290  177.8180  139.8270 O   0  0  0  0  0  1  0  0  0  0  0  0
  184.7340  179.8720  139.4570 O   0  0  0  0  0  1  0  0  0  0  0  0
  187.3700  177.5030  147.0410 C   0  0  0  0  0  2  0  0  0  0  0  0
  188.7910  177.8010  147.4900 C   0  0  0  0  0  2  0  0  0  0  0  0
  189.6860  176.6260  147.1480 C   0  0  0  0  0  2  0  0  0  0  0  0
  191.1380  176.9700  147.4280 C   0  0  0  0  0  2  0  0  0  0  0  0
  192.0040  175.7290  147.3200 C   0  0  0  0  0  1  0  0  0  0  0  0
  2 19  1  0  0  0  0
  2  3  1  0  0  0  0
  2  1  1  0  0  0  0
  3  1  1  0  0  0  0
  4  2  1  0  0  0  0
  5  4  1  0  0  0  0
  6 13  1  0  0  0  0
  7 10  1  6  0  0  0
  7  9  1  0  0  0  0
  8 15  1  0  0  0  0
  9 15  1  0  0  0  0
  9 12  2  0  0  0  0
 11  8  1  0  0  0  0
 13 14  1  0  0  0  0
 14  7  1  0  0  0  0
 14  8  2  0  0  0  0
 15  5  1  0  0  0  0
 16 18  1  0  0  0  0
 17 11  2  0  0  0  0
 18 13  2  0  0  0  0
 18 17  1  0  0  0  0
 19 20  1  0  0  0  0
 20 21  1  0  0  0  0
 21 22  1  0  0  0  0
 22 24  1  0  0  0  0
 22 32  1  1  0  0  0
 24 23  1  1  0  0  0
 25 24  1  0  0  0  0
 26 25  1  0  0  0  0
 27 26  1  0  0  0  0
 28 27  1  0  0  0  0
 29 28  1  0  0  0  0
 30 29  1  0  0  0  0
 31 29  1  0  0  0  0
 32 33  1  0  0  0  0
 34 35  1  0  0  0  0
 34 33  1  0  0  0  0
 36 35  1  0  0  0  0
M  END
>  <MODEL>
1

>  <REMARK>
 VINA RESULT:      -7.4      0.000      0.000
  Name = 
  17 active torsions:
  status: ('A' for Active; 'I' for Inactive)
    1  A    between atoms: N_4  and  C_10
    2  A    between atoms: N_4  and  N_31
    3  A    between atoms: O_6  and  C_20
    4  A    between atoms: O_6  and  O_32
    5  A    between atoms: C_7  and  C_22
    6  A    between atoms: C_7  and  C_30
    7  A    between atoms: C_8  and  C_24
    8  A    between atoms: C_8  and  C_29
    9  A    between atoms: C_10  and  C_17
   10  A    between atoms: C_11  and  C_29
   11  A    between atoms: C_14  and  C_19
   12  A    between atoms: C_14  and  C_25
   13  A    between atoms: C_15  and  C_25
   14  A    between atoms: C_17  and  C_20
   15  A    between atoms: C_19  and  C_30
   16  A    between atoms: C_22  and  C_24
   17  A    between atoms: C_30  and  O_32
                            x       y       z     vdW  Elec       q    Type
                         _______ _______ _______ _____ _____    ______ ____

>  <TORSDO>
F 17

$$$$
=
 OpenBabel10232407433D

 36 38  0  0  1  0  0  0  0  0999 V2000
  191.3670  177.7580  144.4580 C   0  0  0  0  0  2  0  0  0  0  0  0
  190.6080  177.6830  143.1550 C   0  0  0  0  0  0  0  0  0  0  0  0
  191.2790  178.9810  143.5520 C   0  0  0  0  0  2  0  0  0  0  0  0
  191.3170  176.8650  142.0940 C   0  0  0  0  0  2  0  0  0  0  0  0
  191.7240  177.7260  140.9960 N   0  0  0  0  0  2  0  0  0  0  0  0
  189.1240  177.1440  135.5710 N   0  0  0  0  0  1  0  0  0  0  0  0
  191.5430  176.6610  137.4120 C   0  0  1  0  0  3  0  0  0  0  0  0
  190.0930  177.3570  139.1470 C   0  0  0  0  0  0  0  0  0  0  0  0
  192.2160  176.7510  138.7540 C   0  0  0  0  0  0  0  0  0  0  0  0
  191.5110  175.2140  136.9520 C   0  0  0  0  0  1  0  0  0  0  0  0
  188.9730  177.8550  139.7300 N   0  0  0  0  0  0  0  0  0  0  0  0
  193.4500  176.5780  138.9360 O   0  0  0  0  0  0  0  0  0  0  0  0
  189.0590  177.3660  136.9770 C   0  0  0  0  0  0  0  0  0  0  0  0
  190.1630  177.1100  137.7930 C   0  0  0  0  0  0  0  0  0  0  0  0
  191.3200  177.1060  139.8050 N   0  0  0  0  0  0  0  0  0  0  0  0
  186.7300  178.1380  136.8010 N   0  0  0  0  0  1  0  0  0  0  0  0
  187.8700  178.1030  138.9670 C   0  0  0  0  0  3  0  0  0  0  0  0
  187.8880  177.8600  137.5810 C   0  0  0  0  0  0  0  0  0  0  0  0
  189.0920  177.5520  143.3170 C   0  0  0  0  0  2  0  0  0  0  0  0
  188.6870  177.8040  144.6340 O   0  0  0  0  0  0  0  0  0  0  0  0
  187.3680  177.7550  144.6010 O   0  0  0  0  0  0  0  0  0  0  0  0
  186.9490  178.4640  145.7370 C   0  0  1  0  0  3  0  0  0  0  0  0
  184.7240  178.4930  146.6640 O   0  0  0  0  0  1  0  0  0  0  0  0
  185.5010  178.9400  145.5940 C   0  0  2  0  0  3  0  0  0  0  0  0
  184.8900  178.4490  144.2880 C   0  0  0  0  0  2  0  0  0  0  0  0
  183.4600  178.9420  144.1070 C   0  0  0  0  0  2  0  0  0  0  0  0
  183.0080  178.8050  142.6630 C   0  0  0  0  0  2  0  0  0  0  0  0
  184.1870  178.4490  141.7730 C   0  0  0  0  0  2  0  0  0  0  0  0
  183.8450  178.7210  140.3200 C   0  0  0  0  0  3  0  0  0  0  0  0
  184.6320  179.7710  139.8500 O   0  0  0  0  0  1  0  0  0  0  0  0
  182.4990  179.0690  140.2090 O   0  0  0  0  0  1  0  0  0  0  0  0
  187.1660  177.6490  147.0110 C   0  0  0  0  0  2  0  0  0  0  0  0
  187.7880  178.4750  148.1260 C   0  0  0  0  0  2  0  0  0  0  0  0
  189.1840  177.9590  148.4180 C   0  0  0  0  0  2  0  0  0  0  0  0
  189.5170  176.7930  147.5050 C   0  0  0  0  0  2  0  0  0  0  0  0
  191.0110  176.5260  147.5150 C   0  0  0  0  0  1  0  0  0  0  0  0
  2 19  1  0  0  0  0
  2  3  1  0  0  0  0
  2  1  1  0  0  0  0
  3  1  1  0  0  0  0
  4  2  1  0  0  0  0
  5  4  1  0  0  0  0
  6 13  1  0  0  0  0
  7 10  1  1  0  0  0
  7 14  1  0  0  0  0
  7  9  1  0  0  0  0
  8 11  1  0  0  0  0
  8 15  1  0  0  0  0
  9 12  2  0  0  0  0
  9 15  1  0  0  0  0
 13 18  2  0  0  0  0
 13 14  1  0  0  0  0
 14  8  2  0  0  0  0
 15  5  1  0  0  0  0
 16 18  1  0  0  0  0
 17 11  2  0  0  0  0
 18 17  1  0  0  0  0
 19 20  1  0  0  0  0
 21 20  1  0  0  0  0
 21 22  1  0  0  0  0
 22 32  1  1  0  0  0
 24 22  1  0  0  0  0
 24 23  1  1  0  0  0
 25 24  1  0  0  0  0
 26 25  1  0  0  0  0
 27 26  1  0  0  0  0
 28 27  1  0  0  0  0
 29 28  1  0  0  0  0
 30 29  1  0  0  0  0
 31 29  1  0  0  0  0
 32 33  1  0  0  0  0
 33 34  1  0  0  0  0
 35 36  1  0  0  0  0
 35 34  1  0  0  0  0
M  END
>  <MODEL>
2

>  <REMARK>
 VINA RESULT:      -7.1      1.540      2.531
  Name = 
  17 active torsions:
  status: ('A' for Active; 'I' for Inactive)
    1  A    between atoms: N_4  and  C_10
    2  A    between atoms: N_4  and  N_31
    3  A    between atoms: O_6  and  C_20
    4  A    between atoms: O_6  and  O_32
    5  A    between atoms: C_7  and  C_22
    6  A    between atoms: C_7  and  C_30
    7  A    between atoms: C_8  and  C_24
    8  A    between atoms: C_8  and  C_29
    9  A    between atoms: C_10  and  C_17
   10  A    between atoms: C_11  and  C_29
   11  A    between atoms: C_14  and  C_19
   12  A    between atoms: C_14  and  C_25
   13  A    between atoms: C_15  and  C_25
   14  A    between atoms: C_17  and  C_20
   15  A    between atoms: C_19  and  C_30
   16  A    between atoms: C_22  and  C_24
   17  A    between atoms: C_30  and  O_32
                            x       y       z     vdW  Elec       q    Type
                         _______ _______ _______ _____ _____    ______ ____

>  <TORSDO>
F 17

$$$$
=
 OpenBabel10232407433D

 36 38  0  0  1  0  0  0  0  0999 V2000
  191.2840  177.4070  143.3550 C   0  0  0  0  0  2  0  0  0  0  0  0
  189.7990  177.6540  143.2340 C   0  0  0  0  0  0  0  0  0  0  0  0
  190.6600  178.6470  143.9850 C   0  0  0  0  0  2  0  0  0  0  0  0
  189.3720  178.0650  141.8390 C   0  0  0  0  0  2  0  0  0  0  0  0
  189.1960  176.8840  141.0090 N   0  0  0  0  0  2  0  0  0  0  0  0
  189.5200  176.4000  134.9930 N   0  0  0  0  0  1  0  0  0  0  0  0
  188.2720  177.7190  137.4780 C   0  0  1  0  0  3  0  0  0  0  0  0
  190.0060  176.6310  138.6650 C   0  0  0  0  0  0  0  0  0  0  0  0
  188.1820  177.8990  138.9690 C   0  0  0  0  0  0  0  0  0  0  0  0
  188.5480  179.0570  136.8170 C   0  0  0  0  0  1  0  0  0  0  0  0
  191.0630  175.8070  138.8780 N   0  0  0  0  0  0  0  0  0  0  0  0
  187.2280  178.4790  139.5510 O   0  0  0  0  0  0  0  0  0  0  0  0
  190.0600  176.2130  136.2980 C   0  0  0  0  0  0  0  0  0  0  0  0
  189.4910  176.8470  137.4050 C   0  0  0  0  0  0  0  0  0  0  0  0
  189.2670  177.2980  139.6710 N   0  0  0  0  0  0  0  0  0  0  0  0
  191.7930  174.7030  135.4220 N   0  0  0  0  0  1  0  0  0  0  0  0
  191.6540  175.1820  137.8200 C   0  0  0  0  0  3  0  0  0  0  0  0
  191.1700  175.3750  136.5120 C   0  0  0  0  0  0  0  0  0  0  0  0
  188.9320  176.6740  144.0280 C   0  0  0  0  0  2  0  0  0  0  0  0
  187.5660  176.9310  143.8550 O   0  0  0  0  0  0  0  0  0  0  0  0
  187.3530  178.0720  144.4840 O   0  0  0  0  0  0  0  0  0  0  0  0
  186.0870  177.9320  145.0730 C   0  0  1  0  0  3  0  0  0  0  0  0
  185.1720  178.6700  147.1770 O   0  0  0  0  0  1  0  0  0  0  0  0
  186.1820  177.8980  146.6000 C   0  0  2  0  0  3  0  0  0  0  0  0
  187.5380  178.4040  147.0750 C   0  0  0  0  0  2  0  0  0  0  0  0
  188.1200  177.5260  148.1760 C   0  0  0  0  0  2  0  0  0  0  0  0
  189.1030  176.5130  147.6110 C   0  0  0  0  0  2  0  0  0  0  0  0
  190.4500  177.1690  147.3640 C   0  0  0  0  0  2  0  0  0  0  0  0
  191.5620  176.1480  147.5100 C   0  0  0  0  0  3  0  0  0  0  0  0
  192.5380  176.6480  148.3720 O   0  0  0  0  0  1  0  0  0  0  0  0
  192.1360  175.8910  146.2650 O   0  0  0  0  0  1  0  0  0  0  0  0
  185.1230  179.0080  144.5770 C   0  0  0  0  0  2  0  0  0  0  0  0
  184.8820  178.9240  143.0790 C   0  0  0  0  0  2  0  0  0  0  0  0
  183.4020  178.7220  142.8160 C   0  0  0  0  0  2  0  0  0  0  0  0
  182.6160  178.8270  144.1110 C   0  0  0  0  0  2  0  0  0  0  0  0
  181.1260  178.7910  143.8290 C   0  0  0  0  0  1  0  0  0  0  0  0
  1  3  1  0  0  0  0
  2  1  1  0  0  0  0
  2  3  1  0  0  0  0
  2 19  1  0  0  0  0
  4  2  1  0  0  0  0
  5  4  1  0  0  0  0
  6 13  1  0  0  0  0
  7 10  1  6  0  0  0
  7  9  1  0  0  0  0
  8 11  1  0  0  0  0
  8 15  1  0  0  0  0
  9 12  2  0  0  0  0
  9 15  1  0  0  0  0
 13 18  2  0  0  0  0
 13 14  1  0  0  0  0
 14  7  1  0  0  0  0
 14  8  2  0  0  0  0
 15  5  1  0  0  0  0
 16 18  1  0  0  0  0
 17 11  2  0  0  0  0
 18 17  1  0  0  0  0
 20 19  1  0  0  0  0
 20 21  1  0  0  0  0
 21 22  1  0  0  0  0
 22 32  1  1  0  0  0
 22 24  1  0  0  0  0
 24 25  1  0  0  0  0
 24 23  1  1  0  0  0
 25 26  1  0  0  0  0
 27 26  1  0  0  0  0
 28 29  1  0  0  0  0
 28 27  1  0  0  0  0
 29 30  1  0  0  0  0
 31 29  1  0  0  0  0
 33 32  1  0  0  0  0
 34 33  1  0  0  0  0
 34 35  1  0  0  0  0
 36 35  1  0  0  0  0
M  END
>  <MODEL>
3

>  <REMARK>
 VINA RESULT:      -7.1      1.786      5.045
  Name = 
  17 active torsions:
  status: ('A' for Active; 'I' for Inactive)
    1  A    between atoms: N_4  and  C_10
    2  A    between atoms: N_4  and  N_31
    3  A    between atoms: O_6  and  C_20
    4  A    between atoms: O_6  and  O_32
    5  A    between atoms: C_7  and  C_22
    6  A    between atoms: C_7  and  C_30
    7  A    between atoms: C_8  and  C_24
    8  A    between atoms: C_8  and  C_29
    9  A    between atoms: C_10  and  C_17
   10  A    between atoms: C_11  and  C_29
   11  A    between atoms: C_14  and  C_19
   12  A    between atoms: C_14  and  C_25
   13  A    between atoms: C_15  and  C_25
   14  A    between atoms: C_17  and  C_20
   15  A    between atoms: C_19  and  C_30
   16  A    between atoms: C_22  and  C_24
   17  A    between atoms: C_30  and  O_32
                            x       y       z     vdW  Elec       q    Type
                         _______ _______ _______ _____ _____    ______ ____

>  <TORSDO>
F 17

$$$$
=
 OpenBabel10232407433D

 36 38  0  0  1  0  0  0  0  0999 V2000
  184.4330  179.9400  144.2040 C   0  0  0  0  0  2  0  0  0  0  0  0
  184.8750  178.5180  143.9520 C   0  0  0  0  0  0  0  0  0  0  0  0
  183.4690  178.7840  144.4460 C   0  0  0  0  0  2  0  0  0  0  0  0
  185.0100  178.1860  142.4790 C   0  0  0  0  0  2  0  0  0  0  0  0
  185.1330  179.4110  141.7060 N   0  0  0  0  0  2  0  0  0  0  0  0
  183.9980  176.5840  136.4860 N   0  0  0  0  0  1  0  0  0  0  0  0
  182.9550  178.0520  138.9820 C   0  0  1  0  0  3  0  0  0  0  0  0
  185.2270  178.5950  139.3520 C   0  0  0  0  0  0  0  0  0  0  0  0
  183.1910  178.7930  140.2690 C   0  0  0  0  0  0  0  0  0  0  0  0
  182.1280  178.9110  138.0420 C   0  0  0  0  0  1  0  0  0  0  0  0
  186.5720  178.5820  139.1710 N   0  0  0  0  0  0  0  0  0  0  0  0
  182.2960  179.0190  141.1250 O   0  0  0  0  0  0  0  0  0  0  0  0
  184.8710  177.2750  137.3760 C   0  0  0  0  0  0  0  0  0  0  0  0
  184.3670  177.9580  138.4850 C   0  0  0  0  0  0  0  0  0  0  0  0
  184.5520  179.1760  140.4520 N   0  0  0  0  0  0  0  0  0  0  0  0
  186.8350  176.6000  136.0570 N   0  0  0  0  0  1  0  0  0  0  0  0
  187.1000  177.9380  138.0900 C   0  0  0  0  0  3  0  0  0  0  0  0
  186.2630  177.2770  137.1710 C   0  0  0  0  0  0  0  0  0  0  0  0
  185.9230  178.0010  144.9390 C   0  0  0  0  0  2  0  0  0  0  0  0
  186.8380  177.1390  144.3210 O   0  0  0  0  0  0  0  0  0  0  0  0
  187.8990  177.8860  144.0770 O   0  0  0  0  0  0  0  0  0  0  0  0
  188.9870  177.0020  144.1350 C   0  0  1  0  0  3  0  0  0  0  0  0
  190.2560  175.4020  142.8540 O   0  0  0  0  0  1  0  0  0  0  0  0
  189.3160  176.4300  142.7540 C   0  0  2  0  0  3  0  0  0  0  0  0
  189.8490  177.5130  141.8260 C   0  0  0  0  0  2  0  0  0  0  0  0
  190.9830  177.0020  140.9470 C   0  0  0  0  0  2  0  0  0  0  0  0
  190.6300  177.1120  139.4730 C   0  0  0  0  0  2  0  0  0  0  0  0
  191.7790  176.6080  138.6160 C   0  0  0  0  0  2  0  0  0  0  0  0
  191.2530  175.7250  137.5010 C   0  0  0  0  0  3  0  0  0  0  0  0
  190.0620  176.2610  137.0130 O   0  0  0  0  0  1  0  0  0  0  0  0
  191.0140  174.4400  137.9890 O   0  0  0  0  0  1  0  0  0  0  0  0
  190.2000  177.6580  144.7930 C   0  0  0  0  0  2  0  0  0  0  0  0
  190.6160  176.9530  146.0730 C   0  0  0  0  0  2  0  0  0  0  0  0
  189.4090  176.7910  146.9760 C   0  0  0  0  0  2  0  0  0  0  0  0
  189.3140  177.9570  147.9440 C   0  0  0  0  0  2  0  0  0  0  0  0
  187.9320  178.0120  148.5700 C   0  0  0  0  0  1  0  0  0  0  0  0
  1  3  1  0  0  0  0
  2  1  1  0  0  0  0
  2  3  1  0  0  0  0
  2 19  1  0  0  0  0
  4  2  1  0  0  0  0
  5  4  1  0  0  0  0
  6 13  1  0  0  0  0
  7 10  1  6  0  0  0
  7  9  1  0  0  0  0
  8 15  1  0  0  0  0
  9 15  1  0  0  0  0
  9 12  2  0  0  0  0
 11  8  1  0  0  0  0
 13 14  1  0  0  0  0
 14  7  1  0  0  0  0
 14  8  2  0  0  0  0
 15  5  1  0  0  0  0
 16 18  1  0  0  0  0
 17 11  2  0  0  0  0
 18 13  2  0  0  0  0
 18 17  1  0  0  0  0
 20 19  1  0  0  0  0
 21 22  1  0  0  0  0
 21 20  1  0  0  0  0
 22 32  1  6  0  0  0
 24 23  1  1  0  0  0
 24 22  1  0  0  0  0
 25 24  1  0  0  0  0
 26 25  1  0  0  0  0
 27 26  1  0  0  0  0
 28 27  1  0  0  0  0
 29 31  1  0  0  0  0
 29 28  1  0  0  0  0
 30 29  1  0  0  0  0
 32 33  1  0  0  0  0
 33 34  1  0  0  0  0
 34 35  1  0  0  0  0
 35 36  1  0  0  0  0
M  END
>  <MODEL>
4

>  <REMARK>
 VINA RESULT:      -6.9      2.550      5.637
  Name = 
  17 active torsions:
  status: ('A' for Active; 'I' for Inactive)
    1  A    between atoms: N_4  and  C_10
    2  A    between atoms: N_4  and  N_31
    3  A    between atoms: O_6  and  C_20
    4  A    between atoms: O_6  and  O_32
    5  A    between atoms: C_7  and  C_22
    6  A    between atoms: C_7  and  C_30
    7  A    between atoms: C_8  and  C_24
    8  A    between atoms: C_8  and  C_29
    9  A    between atoms: C_10  and  C_17
   10  A    between atoms: C_11  and  C_29
   11  A    between atoms: C_14  and  C_19
   12  A    between atoms: C_14  and  C_25
   13  A    between atoms: C_15  and  C_25
   14  A    between atoms: C_17  and  C_20
   15  A    between atoms: C_19  and  C_30
   16  A    between atoms: C_22  and  C_24
   17  A    between atoms: C_30  and  O_32
                            x       y       z     vdW  Elec       q    Type
                         _______ _______ _______ _____ _____    ______ ____

>  <TORSDO>
F 17

$$$$
=
 OpenBabel10232407433D

 36 38  0  0  1  0  0  0  0  0999 V2000
  189.4810  176.5600  138.4390 C   0  0  0  0  0  2  0  0  0  0  0  0
  188.5830  177.7700  138.5360 C   0  0  0  0  0  0  0  0  0  0  0  0
  189.6690  177.7320  137.4820 C   0  0  0  0  0  2  0  0  0  0  0  0
  187.1720  177.5090  138.0490 C   0  0  0  0  0  2  0  0  0  0  0  0
  186.4520  178.7660  137.9280 N   0  0  0  0  0  2  0  0  0  0  0  0
  181.5040  175.7810  139.7020 N   0  0  0  0  0  1  0  0  0  0  0  0
  183.6600  177.9030  140.2680 C   0  0  1  0  0  3  0  0  0  0  0  0
  184.2410  177.6150  137.9930 C   0  0  0  0  0  0  0  0  0  0  0  0
  184.8690  178.6960  139.8540 C   0  0  0  0  0  0  0  0  0  0  0  0
  182.5290  178.8490  140.6340 C   0  0  0  0  0  1  0  0  0  0  0  0
  184.2300  177.0750  136.7480 N   0  0  0  0  0  0  0  0  0  0  0  0
  185.5760  179.3690  140.6500 O   0  0  0  0  0  0  0  0  0  0  0  0
  182.4060  176.2290  138.6930 C   0  0  0  0  0  0  0  0  0  0  0  0
  183.3560  177.2150  138.9710 C   0  0  0  0  0  0  0  0  0  0  0  0
  185.1720  178.5700  138.4670 N   0  0  0  0  0  0  0  0  0  0  0  0
  181.4300  174.6750  137.0550 N   0  0  0  0  0  1  0  0  0  0  0  0
  183.3070  176.1200  136.4360 C   0  0  0  0  0  3  0  0  0  0  0  0
  182.3770  175.6820  137.3970 C   0  0  0  0  0  0  0  0  0  0  0  0
  188.8000  178.6140  139.7940 C   0  0  0  0  0  2  0  0  0  0  0  0
  189.3420  177.8570  140.8410 O   0  0  0  0  0  0  0  0  0  0  0  0
  188.5240  178.0470  141.8590 O   0  0  0  0  0  0  0  0  0  0  0  0
  188.9200  177.1090  142.8240 C   0  0  1  0  0  3  0  0  0  0  0  0
  191.2000  176.6030  143.4210 O   0  0  0  0  0  1  0  0  0  0  0  0
  190.1900  177.5590  143.5510 C   0  0  2  0  0  3  0  0  0  0  0  0
  189.9160  177.8060  145.0290 C   0  0  0  0  0  2  0  0  0  0  0  0
  190.8880  177.0460  145.9220 C   0  0  0  0  0  2  0  0  0  0  0  0
  190.2380  176.6600  147.2410 C   0  0  0  0  0  2  0  0  0  0  0  0
  188.7460  176.9410  147.1950 C   0  0  0  0  0  2  0  0  0  0  0  0
  188.3350  177.7790  148.3900 C   0  0  0  0  0  3  0  0  0  0  0  0
  187.2700  178.6040  148.0310 O   0  0  0  0  0  1  0  0  0  0  0  0
  189.4080  178.5680  148.8050 O   0  0  0  0  0  1  0  0  0  0  0  0
  187.7810  176.7950  143.7920 C   0  0  0  0  0  2  0  0  0  0  0  0
  186.5530  177.6540  143.5390 C   0  0  0  0  0  2  0  0  0  0  0  0
  185.8430  177.9200  144.8530 C   0  0  0  0  0  2  0  0  0  0  0  0
  185.0110  179.1870  144.7560 C   0  0  0  0  0  2  0  0  0  0  0  0
  183.6090  178.8620  144.2740 C   0  0  0  0  0  1  0  0  0  0  0  0
  1  2  1  0  0  0  0
  2 19  1  0  0  0  0
  3  1  1  0  0  0  0
  3  2  1  0  0  0  0
  4  2  1  0  0  0  0
  5  4  1  0  0  0  0
  5 15  1  0  0  0  0
  7 10  1  6  0  0  0
  8 15  1  0  0  0  0
  8 14  1  0  0  0  0
  9  7  1  0  0  0  0
  9 12  2  0  0  0  0
 11  8  2  0  0  0  0
 13 14  2  0  0  0  0
 13  6  1  0  0  0  0
 14  7  1  0  0  0  0
 15  9  1  0  0  0  0
 16 18  1  0  0  0  0
 17 11  1  0  0  0  0
 17 18  2  0  0  0  0
 18 13  1  0  0  0  0
 19 20  1  0  0  0  0
 20 21  1  0  0  0  0
 21 22  1  0  0  0  0
 22 24  1  0  0  0  0
 22 32  1  1  0  0  0
 24 23  1  1  0  0  0
 24 25  1  0  0  0  0
 25 26  1  0  0  0  0
 26 27  1  0  0  0  0
 28 27  1  0  0  0  0
 28 29  1  0  0  0  0
 29 31  1  0  0  0  0
 30 29  1  0  0  0  0
 33 32  1  0  0  0  0
 33 34  1  0  0  0  0
 35 34  1  0  0  0  0
 36 35  1  0  0  0  0
M  END
>  <MODEL>
5

>  <REMARK>
 VINA RESULT:      -6.9      3.092      6.614
  Name = 
  17 active torsions:
  status: ('A' for Active; 'I' for Inactive)
    1  A    between atoms: N_4  and  C_10
    2  A    between atoms: N_4  and  N_31
    3  A    between atoms: O_6  and  C_20
    4  A    between atoms: O_6  and  O_32
    5  A    between atoms: C_7  and  C_22
    6  A    between atoms: C_7  and  C_30
    7  A    between atoms: C_8  and  C_24
    8  A    between atoms: C_8  and  C_29
    9  A    between atoms: C_10  and  C_17
   10  A    between atoms: C_11  and  C_29
   11  A    between atoms: C_14  and  C_19
   12  A    between atoms: C_14  and  C_25
   13  A    between atoms: C_15  and  C_25
   14  A    between atoms: C_17  and  C_20
   15  A    between atoms: C_19  and  C_30
   16  A    between atoms: C_22  and  C_24
   17  A    between atoms: C_30  and  O_32
                            x       y       z     vdW  Elec       q    Type
                         _______ _______ _______ _____ _____    ______ ____

>  <TORSDO>
F 17

$$$$
=
 OpenBabel10232407433D

 36 38  0  0  1  0  0  0  0  0999 V2000
  184.7910  179.5580  143.0660 C   0  0  0  0  0  2  0  0  0  0  0  0
  185.0990  178.7940  141.8000 C   0  0  0  0  0  0  0  0  0  0  0  0
  184.6630  178.0390  143.0370 C   0  0  0  0  0  2  0  0  0  0  0  0
  184.0480  178.9710  140.7230 C   0  0  0  0  0  2  0  0  0  0  0  0
  184.6080  179.7100  139.6030 N   0  0  0  0  0  2  0  0  0  0  0  0
  185.5680  174.9010  136.0690 N   0  0  0  0  0  1  0  0  0  0  0  0
  183.6200  176.9680  137.2540 C   0  0  1  0  0  3  0  0  0  0  0  0
  185.5760  178.0820  137.9810 C   0  0  0  0  0  0  0  0  0  0  0  0
  183.3390  178.1840  138.0930 C   0  0  0  0  0  0  0  0  0  0  0  0
  183.1160  177.1960  135.8400 C   0  0  0  0  0  1  0  0  0  0  0  0
  186.8970  178.2850  138.2170 N   0  0  0  0  0  0  0  0  0  0  0  0
  182.1870  178.5290  138.4690 O   0  0  0  0  0  0  0  0  0  0  0  0
  186.0250  176.0530  136.7740 C   0  0  0  0  0  0  0  0  0  0  0  0
  185.1190  176.9900  137.2760 C   0  0  0  0  0  0  0  0  0  0  0  0
  184.5200  178.8870  138.4710 N   0  0  0  0  0  0  0  0  0  0  0  0
  188.3680  175.3520  136.5070 N   0  0  0  0  0  1  0  0  0  0  0  0
  187.8120  177.3990  137.7300 C   0  0  0  0  0  3  0  0  0  0  0  0
  187.3970  176.2710  136.9970 C   0  0  0  0  0  0  0  0  0  0  0  0
  186.5800  178.7920  141.4130 C   0  0  0  0  0  2  0  0  0  0  0  0
  187.4000  178.4650  142.4990 O   0  0  0  0  0  0  0  0  0  0  0  0
  187.9330  177.2980  142.1860 O   0  0  0  0  0  0  0  0  0  0  0  0
  188.9560  177.1010  143.1250 C   0  0  1  0  0  3  0  0  0  0  0  0
  190.4790  176.2290  141.4710 O   0  0  0  0  0  1  0  0  0  0  0  0
  190.3380  177.1930  142.4720 C   0  0  2  0  0  3  0  0  0  0  0  0
  191.4440  177.0140  143.5040 C   0  0  0  0  0  2  0  0  0  0  0  0
  191.6800  175.5460  143.8360 C   0  0  0  0  0  2  0  0  0  0  0  0
  192.0320  175.3630  145.3030 C   0  0  0  0  0  2  0  0  0  0  0  0
  191.7360  176.6350  146.0790 C   0  0  0  0  0  2  0  0  0  0  0  0
  191.6200  176.3280  147.5600 C   0  0  0  0  0  3  0  0  0  0  0  0
  191.9770  177.4580  148.2950 O   0  0  0  0  0  1  0  0  0  0  0  0
  192.4720  175.2750  147.8930 O   0  0  0  0  0  1  0  0  0  0  0  0
  188.8130  178.0530  144.3110 C   0  0  0  0  0  2  0  0  0  0  0  0
  188.3740  177.3370  145.5780 C   0  0  0  0  0  2  0  0  0  0  0  0
  186.8590  177.3110  145.6440 C   0  0  0  0  0  2  0  0  0  0  0  0
  186.3410  178.5480  146.3580 C   0  0  0  0  0  2  0  0  0  0  0  0
  184.8900  178.3570  146.7580 C   0  0  0  0  0  1  0  0  0  0  0  0
  2  3  1  0  0  0  0
  2  1  1  0  0  0  0
  3  1  1  0  0  0  0
  4  2  1  0  0  0  0
  5  4  1  0  0  0  0
  6 13  1  0  0  0  0
  7 10  1  6  0  0  0
  7 14  1  0  0  0  0
  7  9  1  0  0  0  0
  8 11  1  0  0  0  0
  8 15  1  0  0  0  0
  9 12  2  0  0  0  0
  9 15  1  0  0  0  0
 13 18  2  0  0  0  0
 13 14  1  0  0  0  0
 14  8  2  0  0  0  0
 15  5  1  0  0  0  0
 16 18  1  0  0  0  0
 17 11  2  0  0  0  0
 18 17  1  0  0  0  0
 19  2  1  0  0  0  0
 19 20  1  0  0  0  0
 21 20  1  0  0  0  0
 21 22  1  0  0  0  0
 22 32  1  1  0  0  0
 24 23  1  6  0  0  0
 24 22  1  0  0  0  0
 24 25  1  0  0  0  0
 25 26  1  0  0  0  0
 26 27  1  0  0  0  0
 27 28  1  0  0  0  0
 28 29  1  0  0  0  0
 29 31  1  0  0  0  0
 29 30  1  0  0  0  0
 32 33  1  0  0  0  0
 33 34  1  0  0  0  0
 34 35  1  0  0  0  0
 35 36  1  0  0  0  0
M  END
>  <MODEL>
6

>  <REMARK>
 VINA RESULT:      -6.6      2.887      6.243
  Name = 
  17 active torsions:
  status: ('A' for Active; 'I' for Inactive)
    1  A    between atoms: N_4  and  C_10
    2  A    between atoms: N_4  and  N_31
    3  A    between atoms: O_6  and  C_20
    4  A    between atoms: O_6  and  O_32
    5  A    between atoms: C_7  and  C_22
    6  A    between atoms: C_7  and  C_30
    7  A    between atoms: C_8  and  C_24
    8  A    between atoms: C_8  and  C_29
    9  A    between atoms: C_10  and  C_17
   10  A    between atoms: C_11  and  C_29
   11  A    between atoms: C_14  and  C_19
   12  A    between atoms: C_14  and  C_25
   13  A    between atoms: C_15  and  C_25
   14  A    between atoms: C_17  and  C_20
   15  A    between atoms: C_19  and  C_30
   16  A    between atoms: C_22  and  C_24
   17  A    between atoms: C_30  and  O_32
                            x       y       z     vdW  Elec       q    Type
                         _______ _______ _______ _____ _____    ______ ____

>  <TORSDO>
F 17

$$$$
=
 OpenBabel10232407433D

 36 38  0  0  1  0  0  0  0  0999 V2000
  188.5750  176.1680  138.2830 C   0  0  0  0  0  2  0  0  0  0  0  0
  189.1600  177.5580  138.1990 C   0  0  0  0  0  0  0  0  0  0  0  0
  190.0590  176.3570  137.9940 C   0  0  0  0  0  2  0  0  0  0  0  0
  188.7510  178.3050  136.9450 C   0  0  0  0  0  2  0  0  0  0  0  0
  187.5500  179.0820  137.2030 N   0  0  0  0  0  2  0  0  0  0  0  0
  181.9970  177.1460  138.6010 N   0  0  0  0  0  1  0  0  0  0  0  0
  184.4500  177.0340  136.7450 C   0  0  1  0  0  3  0  0  0  0  0  0
  185.5140  178.3170  138.4230 C   0  0  0  0  0  0  0  0  0  0  0  0
  185.8450  177.4590  136.3780 C   0  0  0  0  0  0  0  0  0  0  0  0
  184.3960  175.5230  136.8860 C   0  0  0  0  0  1  0  0  0  0  0  0
  185.6420  179.0490  139.5590 N   0  0  0  0  0  0  0  0  0  0  0  0
  186.3710  177.2510  135.2540 O   0  0  0  0  0  0  0  0  0  0  0  0
  183.2310  177.7720  138.9420 C   0  0  0  0  0  0  0  0  0  0  0  0
  184.3370  177.6800  138.0940 C   0  0  0  0  0  0  0  0  0  0  0  0
  186.5030  178.1740  137.4210 N   0  0  0  0  0  0  0  0  0  0  0  0
  182.2750  178.6390  141.0360 N   0  0  0  0  0  1  0  0  0  0  0  0
  184.5880  179.1490  140.4190 C   0  0  0  0  0  3  0  0  0  0  0  0
  183.3670  178.5110  140.1320 C   0  0  0  0  0  0  0  0  0  0  0  0
  189.2080  178.3020  139.5350 C   0  0  0  0  0  2  0  0  0  0  0  0
  188.5470  177.5940  140.5470 O   0  0  0  0  0  0  0  0  0  0  0  0
  189.5060  177.1660  141.3470 O   0  0  0  0  0  0  0  0  0  0  0  0
  189.2510  177.7780  142.5830 C   0  0  1  0  0  3  0  0  0  0  0  0
  188.4630  175.5400  143.0120 O   0  0  0  0  0  1  0  0  0  0  0  0
  188.4920  176.8390  143.5240 C   0  0  2  0  0  3  0  0  0  0  0  0
  187.0660  177.3250  143.7480 C   0  0  0  0  0  2  0  0  0  0  0  0
  186.6930  177.3360  145.2250 C   0  0  0  0  0  2  0  0  0  0  0  0
  186.0550  178.6560  145.6230 C   0  0  0  0  0  2  0  0  0  0  0  0
  184.5450  178.5120  145.6950 C   0  0  0  0  0  2  0  0  0  0  0  0
  183.9210  178.8820  144.3620 C   0  0  0  0  0  3  0  0  0  0  0  0
  184.1750  180.2250  144.0920 O   0  0  0  0  0  1  0  0  0  0  0  0
  182.5420  178.6740  144.4120 O   0  0  0  0  0  1  0  0  0  0  0  0
  190.5350  178.3140  143.2120 C   0  0  0  0  0  2  0  0  0  0  0  0
  190.5660  178.1190  144.7190 C   0  0  0  0  0  2  0  0  0  0  0  0
  191.5870  177.0550  145.0700 C   0  0  0  0  0  2  0  0  0  0  0  0
  191.3480  176.5380  146.4780 C   0  0  0  0  0  2  0  0  0  0  0  0
  189.9530  176.9100  146.9460 C   0  0  0  0  0  1  0  0  0  0  0  0
  2  1  1  0  0  0  0
  2 19  1  0  0  0  0
  3  2  1  0  0  0  0
  3  1  1  0  0  0  0
  4  5  1  0  0  0  0
  4  2  1  0  0  0  0
  5 15  1  0  0  0  0
  6 13  1  0  0  0  0
  7 10  1  1  0  0  0
  7 14  1  0  0  0  0
  8 11  1  0  0  0  0
  9  7  1  0  0  0  0
  9 15  1  0  0  0  0
 11 17  2  0  0  0  0
 12  9  2  0  0  0  0
 13 18  2  0  0  0  0
 14  8  2  0  0  0  0
 14 13  1  0  0  0  0
 15  8  1  0  0  0  0
 18 17  1  0  0  0  0
 18 16  1  0  0  0  0
 19 20  1  0  0  0  0
 20 21  1  0  0  0  0
 21 22  1  0  0  0  0
 22 32  1  1  0  0  0
 22 24  1  0  0  0  0
 24 23  1  6  0  0  0
 24 25  1  0  0  0  0
 25 26  1  0  0  0  0
 26 27  1  0  0  0  0
 27 28  1  0  0  0  0
 29 31  1  0  0  0  0
 29 28  1  0  0  0  0
 30 29  1  0  0  0  0
 32 33  1  0  0  0  0
 33 34  1  0  0  0  0
 34 35  1  0  0  0  0
 35 36  1  0  0  0  0
M  END
>  <MODEL>
7

>  <REMARK>
 VINA RESULT:      -6.5      2.964      5.353
  Name = 
  17 active torsions:
  status: ('A' for Active; 'I' for Inactive)
    1  A    between atoms: N_4  and  C_10
    2  A    between atoms: N_4  and  N_31
    3  A    between atoms: O_6  and  C_20
    4  A    between atoms: O_6  and  O_32
    5  A    between atoms: C_7  and  C_22
    6  A    between atoms: C_7  and  C_30
    7  A    between atoms: C_8  and  C_24
    8  A    between atoms: C_8  and  C_29
    9  A    between atoms: C_10  and  C_17
   10  A    between atoms: C_11  and  C_29
   11  A    between atoms: C_14  and  C_19
   12  A    between atoms: C_14  and  C_25
   13  A    between atoms: C_15  and  C_25
   14  A    between atoms: C_17  and  C_20
   15  A    between atoms: C_19  and  C_30
   16  A    between atoms: C_22  and  C_24
   17  A    between atoms: C_30  and  O_32
                            x       y       z     vdW  Elec       q    Type
                         _______ _______ _______ _____ _____    ______ ____

>  <TORSDO>
F 17

$$$$
=
 OpenBabel10232407433D

 36 38  0  0  1  0  0  0  0  0999 V2000
  184.7900  179.7510  143.8280 C   0  0  0  0  0  2  0  0  0  0  0  0
  185.0510  178.3900  143.2280 C   0  0  0  0  0  0  0  0  0  0  0  0
  184.0790  178.5210  144.3800 C   0  0  0  0  0  2  0  0  0  0  0  0
  184.4350  178.2130  141.8540 C   0  0  0  0  0  2  0  0  0  0  0  0
  184.5900  179.4360  141.0830 N   0  0  0  0  0  2  0  0  0  0  0  0
  183.3800  176.5670  135.9020 N   0  0  0  0  0  1  0  0  0  0  0  0
  182.3850  178.1630  138.3390 C   0  0  1  0  0  3  0  0  0  0  0  0
  184.6800  178.5590  138.7510 C   0  0  0  0  0  0  0  0  0  0  0  0
  182.6420  178.9170  139.6140 C   0  0  0  0  0  0  0  0  0  0  0  0
  181.6400  179.0520  137.3600 C   0  0  0  0  0  1  0  0  0  0  0  0
  186.0250  178.4500  138.6020 N   0  0  0  0  0  0  0  0  0  0  0  0
  181.7460  179.2230  140.4440 O   0  0  0  0  0  0  0  0  0  0  0  0
  184.2790  177.2180  136.7970 C   0  0  0  0  0  0  0  0  0  0  0  0
  183.7980  177.9600  137.8780 C   0  0  0  0  0  0  0  0  0  0  0  0
  184.0210  179.2100  139.8210 N   0  0  0  0  0  0  0  0  0  0  0  0
  186.2210  176.3800  135.5410 N   0  0  0  0  0  1  0  0  0  0  0  0
  186.5310  177.7460  137.5500 C   0  0  0  0  0  3  0  0  0  0  0  0
  185.6720  177.1210  136.6260 C   0  0  0  0  0  0  0  0  0  0  0  0
  186.4540  177.8420  143.4990 C   0  0  0  0  0  2  0  0  0  0  0  0
  187.1820  177.6680  142.3150 O   0  0  0  0  0  0  0  0  0  0  0  0
  188.1830  176.8730  142.6430 O   0  0  0  0  0  0  0  0  0  0  0  0
  189.3120  177.4370  142.0300 C   0  0  1  0  0  3  0  0  0  0  0  0
  190.2000  175.3340  142.8070 O   0  0  0  0  0  1  0  0  0  0  0  0
  190.5450  176.5470  142.2070 C   0  0  2  0  0  3  0  0  0  0  0  0
  191.6040  177.2440  143.0510 C   0  0  0  0  0  2  0  0  0  0  0  0
  191.0020  178.3170  143.9480 C   0  0  0  0  0  2  0  0  0  0  0  0
  190.5420  177.7330  145.2740 C   0  0  0  0  0  2  0  0  0  0  0  0
  191.6070  176.8120  145.8430 C   0  0  0  0  0  2  0  0  0  0  0  0
  191.2540  176.4210  147.2650 C   0  0  0  0  0  3  0  0  0  0  0  0
  190.2210  177.2360  147.7240 O   0  0  0  0  0  1  0  0  0  0  0  0
  192.3680  176.5790  148.0900 O   0  0  0  0  0  1  0  0  0  0  0  0
  189.0410  177.7640  140.5620 C   0  0  0  0  0  2  0  0  0  0  0  0
  189.8780  176.9170  139.6170 C   0  0  0  0  0  2  0  0  0  0  0  0
  190.0790  177.6650  138.3130 C   0  0  0  0  0  2  0  0  0  0  0  0
  190.5680  176.7180  137.2320 C   0  0  0  0  0  2  0  0  0  0  0  0
  191.7970  175.9660  137.7060 C   0  0  0  0  0  1  0  0  0  0  0  0
  1  3  1  0  0  0  0
  2 19  1  0  0  0  0
  2  1  1  0  0  0  0
  2  3  1  0  0  0  0
  4  2  1  0  0  0  0
  5  4  1  0  0  0  0
  6 13  1  0  0  0  0
  7 10  1  6  0  0  0
  7  9  1  0  0  0  0
  8 15  1  0  0  0  0
  9 15  1  0  0  0  0
  9 12  2  0  0  0  0
 11  8  1  0  0  0  0
 13 14  1  0  0  0  0
 14  7  1  0  0  0  0
 14  8  2  0  0  0  0
 15  5  1  0  0  0  0
 16 18  1  0  0  0  0
 17 11  2  0  0  0  0
 18 13  2  0  0  0  0
 18 17  1  0  0  0  0
 20 21  1  0  0  0  0
 20 19  1  0  0  0  0
 22 32  1  6  0  0  0
 22 24  1  0  0  0  0
 22 21  1  0  0  0  0
 24 23  1  1  0  0  0
 24 25  1  0  0  0  0
 25 26  1  0  0  0  0
 26 27  1  0  0  0  0
 27 28  1  0  0  0  0
 28 29  1  0  0  0  0
 29 30  1  0  0  0  0
 29 31  1  0  0  0  0
 33 32  1  0  0  0  0
 34 33  1  0  0  0  0
 35 36  1  0  0  0  0
 35 34  1  0  0  0  0
M  END
>  <MODEL>
8

>  <REMARK>
 VINA RESULT:      -6.5      2.883      6.925
  Name = 
  17 active torsions:
  status: ('A' for Active; 'I' for Inactive)
    1  A    between atoms: N_4  and  C_10
    2  A    between atoms: N_4  and  N_31
    3  A    between atoms: O_6  and  C_20
    4  A    between atoms: O_6  and  O_32
    5  A    between atoms: C_7  and  C_22
    6  A    between atoms: C_7  and  C_30
    7  A    between atoms: C_8  and  C_24
    8  A    between atoms: C_8  and  C_29
    9  A    between atoms: C_10  and  C_17
   10  A    between atoms: C_11  and  C_29
   11  A    between atoms: C_14  and  C_19
   12  A    between atoms: C_14  and  C_25
   13  A    between atoms: C_15  and  C_25
   14  A    between atoms: C_17  and  C_20
   15  A    between atoms: C_19  and  C_30
   16  A    between atoms: C_22  and  C_24
   17  A    between atoms: C_30  and  O_32
                            x       y       z     vdW  Elec       q    Type
                         _______ _______ _______ _____ _____    ______ ____

>  <TORSDO>
F 17

$$$$
=
 OpenBabel10232407433D

 36 38  0  0  1  0  0  0  0  0999 V2000
  190.6770  177.8590  144.5320 C   0  0  0  0  0  2  0  0  0  0  0  0
  190.0890  177.7600  143.1440 C   0  0  0  0  0  0  0  0  0  0  0  0
  190.7360  179.0550  143.5880 C   0  0  0  0  0  2  0  0  0  0  0  0
  190.9060  176.8940  142.2070 C   0  0  0  0  0  2  0  0  0  0  0  0
  191.5280  177.7210  141.1870 N   0  0  0  0  0  2  0  0  0  0  0  0
  190.2490  176.4480  135.4180 N   0  0  0  0  0  1  0  0  0  0  0  0
  192.2910  176.5340  137.7190 C   0  0  1  0  0  3  0  0  0  0  0  0
  190.4110  176.9650  139.0890 C   0  0  0  0  0  0  0  0  0  0  0  0
  192.6470  176.8030  139.1550 C   0  0  0  0  0  0  0  0  0  0  0  0
  192.6410  175.1000  137.3650 C   0  0  0  0  0  1  0  0  0  0  0  0
  189.1210  177.2350  139.4100 N   0  0  0  0  0  0  0  0  0  0  0  0
  193.8280  176.8970  139.5820 O   0  0  0  0  0  0  0  0  0  0  0  0
  189.8570  176.6930  136.7660 C   0  0  0  0  0  0  0  0  0  0  0  0
  190.8020  176.6970  137.7950 C   0  0  0  0  0  0  0  0  0  0  0  0
  191.5050  176.9950  139.9870 N   0  0  0  0  0  0  0  0  0  0  0  0
  187.5060  176.9570  136.0920 N   0  0  0  0  0  1  0  0  0  0  0  0
  188.1680  177.2250  138.4340 C   0  0  0  0  0  3  0  0  0  0  0  0
  188.5140  176.9500  137.0980 C   0  0  0  0  0  0  0  0  0  0  0  0
  188.5610  177.6670  143.1140 C   0  0  0  0  0  2  0  0  0  0  0  0
  188.0330  177.3970  144.3820 O   0  0  0  0  0  0  0  0  0  0  0  0
  187.4110  178.5070  144.7360 O   0  0  0  0  0  0  0  0  0  0  0  0
  186.1200  178.1000  145.1030 C   0  0  1  0  0  3  0  0  0  0  0  0
  184.8310  178.4300  147.1140 O   0  0  0  0  0  1  0  0  0  0  0  0
  186.0120  177.8780  146.6140 C   0  0  2  0  0  3  0  0  0  0  0  0
  187.2030  178.4880  147.3420 C   0  0  0  0  0  2  0  0  0  0  0  0
  188.0370  177.4320  148.0550 C   0  0  0  0  0  2  0  0  0  0  0  0
  189.5230  177.6580  147.8290 C   0  0  0  0  0  2  0  0  0  0  0  0
  190.2290  176.3330  147.6030 C   0  0  0  0  0  2  0  0  0  0  0  0
  191.7030  176.5660  147.3330 C   0  0  0  0  0  3  0  0  0  0  0  0
  192.2600  175.4110  146.7850 O   0  0  0  0  0  1  0  0  0  0  0  0
  192.3600  176.8730  148.5250 O   0  0  0  0  0  1  0  0  0  0  0  0
  185.0630  179.0750  144.5850 C   0  0  0  0  0  2  0  0  0  0  0  0
  184.1890  178.4600  143.5050 C   0  0  0  0  0  2  0  0  0  0  0  0
  185.0520  178.0570  142.3250 C   0  0  0  0  0  2  0  0  0  0  0  0
  184.5520  178.7200  141.0540 C   0  0  0  0  0  2  0  0  0  0  0  0
  183.0360  178.6850  141.0030 C   0  0  0  0  0  1  0  0  0  0  0  0
  2  3  1  0  0  0  0
  2  1  1  0  0  0  0
  3  1  1  0  0  0  0
  4  2  1  0  0  0  0
  5  4  1  0  0  0  0
  6 13  1  0  0  0  0
  7 10  1  1  0  0  0
  7 14  1  0  0  0  0
  7  9  1  0  0  0  0
  8 11  1  0  0  0  0
  8 15  1  0  0  0  0
  9 12  2  0  0  0  0
  9 15  1  0  0  0  0
 13 18  2  0  0  0  0
 13 14  1  0  0  0  0
 14  8  2  0  0  0  0
 15  5  1  0  0  0  0
 16 18  1  0  0  0  0
 17 11  2  0  0  0  0
 18 17  1  0  0  0  0
 19  2  1  0  0  0  0
 19 20  1  0  0  0  0
 20 21  1  0  0  0  0
 21 22  1  0  0  0  0
 22 32  1  1  0  0  0
 22 24  1  0  0  0  0
 24 23  1  1  0  0  0
 24 25  1  0  0  0  0
 25 26  1  0  0  0  0
 27 26  1  0  0  0  0
 28 27  1  0  0  0  0
 29 28  1  0  0  0  0
 29 31  1  0  0  0  0
 30 29  1  0  0  0  0
 33 32  1  0  0  0  0
 34 33  1  0  0  0  0
 35 34  1  0  0  0  0
 36 35  1  0  0  0  0
M  END
>  <MODEL>
9

>  <REMARK>
 VINA RESULT:      -6.5      2.135      5.462
  Name = 
  17 active torsions:
  status: ('A' for Active; 'I' for Inactive)
    1  A    between atoms: N_4  and  C_10
    2  A    between atoms: N_4  and  N_31
    3  A    between atoms: O_6  and  C_20
    4  A    between atoms: O_6  and  O_32
    5  A    between atoms: C_7  and  C_22
    6  A    between atoms: C_7  and  C_30
    7  A    between atoms: C_8  and  C_24
    8  A    between atoms: C_8  and  C_29
    9  A    between atoms: C_10  and  C_17
   10  A    between atoms: C_11  and  C_29
   11  A    between atoms: C_14  and  C_19
   12  A    between atoms: C_14  and  C_25
   13  A    between atoms: C_15  and  C_25
   14  A    between atoms: C_17  and  C_20
   15  A    between atoms: C_19  and  C_30
   16  A    between atoms: C_22  and  C_24
   17  A    between atoms: C_30  and  O_32
                            x       y       z     vdW  Elec       q    Type
                         _______ _______ _______ _____ _____    ______ ____

>  <TORSDO>
F 17

$$$$
