=
 OpenBabel10232410513D

 49 53  0  0  1  0  0  0  0  0999 V2000
  189.9900  177.3980  143.4500 C   0  0  2  0  0  3  0  0  0  0  0  0
  189.3150  177.7340  145.8300 C   0  0  0  0  0  3  0  0  0  0  0  0
  189.5560  177.6020  147.2000 C   0  0  0  0  0  3  0  0  0  0  0  0
  191.4430  176.6750  145.3930 C   0  0  0  0  0  3  0  0  0  0  0  0
  191.6470  176.5630  146.7700 C   0  0  0  0  0  3  0  0  0  0  0  0
  190.7070  177.0250  147.6370 N   0  0  0  0  0  0  0  0  0  0  0  0
  190.2660  177.2700  144.9190 C   0  0  0  0  0  0  0  0  0  0  0  0
  186.8920  178.7810  141.7540 C   0  0  0  0  0  3  0  0  0  0  0  0
  187.5110  177.1750  143.9560 C   0  0  0  0  0  3  0  0  0  0  0  0
  188.2260  178.4850  142.0490 C   0  0  0  0  0  3  0  0  0  0  0  0
  188.5420  177.6780  143.1470 C   0  0  0  0  0  0  0  0  0  0  0  0
  186.1780  177.4700  143.6610 C   0  0  0  0  0  3  0  0  0  0  0  0
  185.8660  178.2740  142.5590 C   0  0  0  0  0  0  0  0  0  0  0  0
  184.4450  178.6080  142.2500 C   0  0  0  0  0  2  0  0  0  0  0  0
  185.6840  178.7090  138.2890 O   0  0  0  0  0  1  0  0  0  0  0  0
  183.4160  177.9430  138.1470 C   0  0  2  0  0  3  0  0  0  0  0  0
  184.3640  179.0750  138.5590 C   0  0  1  0  0  3  0  0  0  0  0  0
  184.2250  179.4510  139.9730 N   0  0  0  0  0  2  0  0  0  0  0  0
  183.1660  177.9660  136.7580 O   0  0  0  0  0  0  0  0  0  0  0  0
  183.2290  175.6620  136.9680 O   0  0  0  0  0  0  0  0  0  0  0  0
  182.1130  178.0060  138.9530 C   0  0  2  0  0  3  0  0  0  0  0  0
  181.5430  175.8890  137.3910 P   0  0  1  0  0  4  0  0  0  0  0  0
  182.4070  177.5550  140.7010 S   0  0  0  0  0  0  0  0  0  0  0  0
  184.1050  178.2570  140.8100 C   0  0  2  0  0  3  0  0  0  0  0  0
  182.7230  176.6970  136.2710 C   0  0  0  0  0  2  0  0  0  0  0  0
  180.9960  177.2310  138.3940 N   0  0  0  0  0  2  0  0  0  0  0  0
  180.4980  175.2540  136.5040 O   0  0  0  0  0  0  0  0  0  0  0  0
  190.1200  175.0290  142.9460 O   0  0  0  0  0  1  0  0  0  0  0  0
  190.6340  176.2830  142.6130 C   0  0  1  0  0  3  0  0  0  0  0  0
  190.4500  176.5310  141.1790 C   0  0  0  0  0  0  0  0  0  0  0  0
  190.3050  176.7270  139.9980 C   0  0  0  0  0  0  0  0  0  0  0  0
  189.5990  175.8110  135.8950 C   0  0  0  0  0  2  0  0  0  0  0  0
  190.1350  176.9560  138.5630 C   0  0  1  0  0  0  0  0  0  0  0  0
  191.0010  176.2720  136.2930 C   0  0  1  0  0  3  0  0  0  0  0  0
  188.7390  176.4950  138.1430 C   0  0  0  0  0  2  0  0  0  0  0  0
  190.2800  178.3090  138.3070 F   0  0  0  0  0  0  0  0  0  0  0  0
  188.5450  176.6300  136.6320 C   0  0  2  0  0  3  0  0  0  0  0  0
  191.2060  176.1700  137.8050 C   0  0  0  0  0  2  0  0  0  0  0  0
  187.1640  176.1440  136.2370 C   0  0  0  0  0  2  0  0  0  0  0  0
  186.5140  175.6020  137.3460 O   0  0  0  0  0  1  0  0  0  0  0  0
  192.0780  175.4990  135.5370 C   0  0  0  0  0  2  0  0  0  0  0  0
  192.4700  173.9020  136.3250 S   0  0  0  0  0  0  0  0  0  0  0  0
  194.2340  174.0740  135.9410 C   0  0  0  0  0  2  0  0  0  0  0  0
  194.8720  175.0260  136.9310 C   0  0  0  0  0  2  0  0  0  0  0  0
  194.8170  174.4480  138.2610 N   0  0  0  0  0  2  0  0  0  0  0  0
  196.1070  173.8230  138.5070 C   0  0  0  0  0  2  0  0  0  0  0  0
  196.0300  175.4530  140.2380 O   0  0  0  0  0  1  0  0  0  0  0  0
  196.9020  174.6490  139.5040 C   0  0  0  0  0  3  0  0  0  0  0  0
  197.8170  175.4560  138.8280 O   0  0  0  0  0  1  0  0  0  0  0  0
  1 29  1  6  0  0  0
  1  7  1  0  0  0  0
  2  3  1  0  0  0  0
  3  6  2  0  0  0  0
  4  5  2  0  0  0  0
  5  6  1  0  0  0  0
  7  4  1  0  0  0  0
  7  2  2  0  0  0  0
  8 10  2  0  0  0  0
  8 13  1  0  0  0  0
 10 11  1  0  0  0  0
 11  1  1  0  0  0  0
 11  9  2  0  0  0  0
 12  9  1  0  0  0  0
 13 12  2  0  0  0  0
 14 13  1  0  0  0  0
 16 19  1  6  0  0  0
 16 17  1  0  0  0  0
 16 21  1  0  0  0  0
 17 15  1  1  0  0  0
 17 18  1  0  0  0  0
 18 24  1  0  0  0  0
 20 22  1  0  0  0  0
 21 26  1  6  0  0  0
 21 23  1  0  0  0  0
 22 27  2  6  0  0  0
 22 26  1  0  0  0  0
 23 24  1  0  0  0  0
 24 14  1  1  0  0  0
 25 19  1  0  0  0  0
 25 20  1  0  0  0  0
 29 28  1  1  0  0  0
 30 29  1  0  0  0  0
 31 30  3  0  0  0  0
 32 34  1  0  0  0  0
 32 37  1  0  0  0  0
 33 36  1  6  0  0  0
 33 31  1  0  0  0  0
 34 41  1  6  0  0  0
 34 38  1  0  0  0  0
 35 33  1  0  0  0  0
 37 39  1  1  0  0  0
 37 35  1  0  0  0  0
 38 33  1  0  0  0  0
 39 40  1  0  0  0  0
 41 42  1  0  0  0  0
 43 42  1  0  0  0  0
 43 44  1  0  0  0  0
 44 45  1  0  0  0  0
 45 46  1  0  0  0  0
 46 48  1  0  0  0  0
 48 47  1  0  0  0  0
 49 48  1  0  0  0  0
M  END
>  <MODEL>
1

>  <REMARK>
 VINA RESULT:      -8.2      0.000      0.000
  Name = 
  15 active torsions:
  status: ('A' for Active; 'I' for Inactive)
    1  A    between atoms: N_2  and  C_6
    2  A    between atoms: N_2  and  C_21
    3  A    between atoms: S_3  and  C_23
    4  A    between atoms: S_3  and  C_34
    5  A    between atoms: C_6  and  C_34
    6  A    between atoms: C_8  and  C_40
    7  A    between atoms: C_11  and  C_23
    8  A    between atoms: C_17  and  C_43
    9  A    between atoms: C_19  and  C_47
   10  A    between atoms: C_20  and  C_45
   11  A    between atoms: C_21  and  C_24
   12  A    between atoms: C_28  and  C_31
   13  A    between atoms: C_28  and  C_38
   14  A    between atoms: C_42  and  C_47
   15  A    between atoms: C_45  and  C_47
                            x       y       z     vdW  Elec       q    Type
                         _______ _______ _______ _____ _____    ______ ____

>  <TORSDO>
F 15

$$$$
=
 OpenBabel10232410513D

 49 53  0  0  1  0  0  0  0  0999 V2000
  188.3840  176.8530  145.6670 C   0  0  2  0  0  3  0  0  0  0  0  0
  190.7950  176.2210  145.8210 C   0  0  0  0  0  3  0  0  0  0  0  0
  192.0160  176.2110  146.5010 C   0  0  0  0  0  3  0  0  0  0  0  0
  189.8180  177.4260  147.6730 C   0  0  0  0  0  3  0  0  0  0  0  0
  191.0540  177.3930  148.3210 C   0  0  0  0  0  3  0  0  0  0  0  0
  192.1190  176.7920  147.7260 N   0  0  0  0  0  0  0  0  0  0  0  0
  189.6860  176.8300  146.4120 C   0  0  0  0  0  0  0  0  0  0  0  0
  189.4940  178.8220  142.6210 C   0  0  0  0  0  3  0  0  0  0  0  0
  187.8650  176.6230  143.1910 C   0  0  0  0  0  3  0  0  0  0  0  0
  189.3480  178.3850  143.9410 C   0  0  0  0  0  3  0  0  0  0  0  0
  188.5380  177.2820  144.2320 C   0  0  0  0  0  0  0  0  0  0  0  0
  188.0120  177.0590  141.8720 C   0  0  0  0  0  3  0  0  0  0  0  0
  188.8270  178.1590  141.5850 C   0  0  0  0  0  0  0  0  0  0  0  0
  188.9720  178.6420  140.1800 C   0  0  0  0  0  2  0  0  0  0  0  0
  190.7730  175.2120  138.6870 O   0  0  0  0  0  1  0  0  0  0  0  0
  188.9100  175.5520  137.2160 C   0  0  2  0  0  3  0  0  0  0  0  0
  190.2290  176.1060  137.7630 C   0  0  1  0  0  3  0  0  0  0  0  0
  190.0810  177.4340  138.3760 N   0  0  0  0  0  2  0  0  0  0  0  0
  189.1370  174.5990  136.2000 O   0  0  0  0  0  0  0  0  0  0  0  0
  187.3290  173.5200  137.1590 O   0  0  0  0  0  0  0  0  0  0  0  0
  188.0040  176.6890  136.7270 C   0  0  2  0  0  3  0  0  0  0  0  0
  186.4280  174.5960  136.1080 P   0  0  1  0  0  4  0  0  0  0  0  0
  187.3760  177.6720  138.1360 S   0  0  0  0  0  0  0  0  0  0  0  0
  188.8710  177.4880  139.1960 C   0  0  2  0  0  3  0  0  0  0  0  0
  188.0200  173.7250  136.0220 C   0  0  0  0  0  2  0  0  0  0  0  0
  186.9010  176.2730  135.8480 N   0  0  0  0  0  2  0  0  0  0  0  0
  185.5600  173.9780  135.0370 O   0  0  0  0  0  0  0  0  0  0  0  0
  187.7380  178.5820  147.2410 O   0  0  0  0  0  1  0  0  0  0  0  0
  187.2540  177.5440  146.4430 C   0  0  1  0  0  3  0  0  0  0  0  0
  186.2280  178.0570  145.5290 C   0  0  0  0  0  0  0  0  0  0  0  0
  185.3830  178.4870  144.7840 C   0  0  0  0  0  0  0  0  0  0  0  0
  182.0220  178.4760  142.1610 C   0  0  0  0  0  2  0  0  0  0  0  0
  184.3570  179.0180  143.8850 C   0  0  1  0  0  0  0  0  0  0  0  0
  183.3940  178.7900  141.5630 C   0  0  1  0  0  3  0  0  0  0  0  0
  182.9760  178.7090  144.4630 C   0  0  0  0  0  2  0  0  0  0  0  0
  184.5250  180.3880  143.7750 F   0  0  0  0  0  0  0  0  0  0  0  0
  181.8670  179.1630  143.5140 C   0  0  2  0  0  3  0  0  0  0  0  0
  184.5180  178.3670  142.5110 C   0  0  0  0  0  2  0  0  0  0  0  0
  180.5090  178.8240  144.0970 C   0  0  0  0  0  2  0  0  0  0  0  0
  179.9820  177.7020  143.4570 O   0  0  0  0  0  1  0  0  0  0  0  0
  183.5620  178.1510  140.1880 C   0  0  0  0  0  2  0  0  0  0  0  0
  183.2760  179.3350  138.8310 S   0  0  0  0  0  0  0  0  0  0  0  0
  181.8370  178.4050  138.2390 C   0  0  0  0  0  2  0  0  0  0  0  0
  182.0820  177.9540  136.8140 C   0  0  0  0  0  2  0  0  0  0  0  0
  181.3650  176.7170  136.5680 N   0  0  0  0  0  2  0  0  0  0  0  0
  181.3710  175.9670  137.8130 C   0  0  0  0  0  2  0  0  0  0  0  0
  183.4790  175.0120  138.3580 O   0  0  0  0  0  1  0  0  0  0  0  0
  182.2830  174.7600  137.6870 C   0  0  0  0  0  3  0  0  0  0  0  0
  182.5520  174.5060  136.3420 O   0  0  0  0  0  1  0  0  0  0  0  0
  1  7  1  0  0  0  0
  1 29  1  1  0  0  0
  2  7  2  0  0  0  0
  2  3  1  0  0  0  0
  3  6  2  0  0  0  0
  4  5  2  0  0  0  0
  6  5  1  0  0  0  0
  7  4  1  0  0  0  0
  8 10  1  0  0  0  0
  9 11  1  0  0  0  0
 10 11  2  0  0  0  0
 11  1  1  0  0  0  0
 12  9  2  0  0  0  0
 13 12  1  0  0  0  0
 13  8  2  0  0  0  0
 14 13  1  0  0  0  0
 16 19  1  6  0  0  0
 16 17  1  0  0  0  0
 17 18  1  0  0  0  0
 17 15  1  1  0  0  0
 18 24  1  0  0  0  0
 21 26  1  1  0  0  0
 21 16  1  0  0  0  0
 21 23  1  0  0  0  0
 22 27  2  6  0  0  0
 22 20  1  0  0  0  0
 23 24  1  0  0  0  0
 24 14  1  1  0  0  0
 25 19  1  0  0  0  0
 25 20  1  0  0  0  0
 26 22  1  0  0  0  0
 29 28  1  6  0  0  0
 30 29  1  0  0  0  0
 31 30  3  0  0  0  0
 32 37  1  0  0  0  0
 33 36  1  6  0  0  0
 33 35  1  0  0  0  0
 33 31  1  0  0  0  0
 34 41  1  6  0  0  0
 34 32  1  0  0  0  0
 34 38  1  0  0  0  0
 37 39  1  1  0  0  0
 37 35  1  0  0  0  0
 38 33  1  0  0  0  0
 40 39  1  0  0  0  0
 42 41  1  0  0  0  0
 43 42  1  0  0  0  0
 44 43  1  0  0  0  0
 45 44  1  0  0  0  0
 45 46  1  0  0  0  0
 48 46  1  0  0  0  0
 48 47  1  0  0  0  0
 49 48  1  0  0  0  0
M  END
>  <MODEL>
2

>  <REMARK>
 VINA RESULT:      -7.8      3.357      7.936
  Name = 
  15 active torsions:
  status: ('A' for Active; 'I' for Inactive)
    1  A    between atoms: N_2  and  C_6
    2  A    between atoms: N_2  and  C_21
    3  A    between atoms: S_3  and  C_23
    4  A    between atoms: S_3  and  C_34
    5  A    between atoms: C_6  and  C_34
    6  A    between atoms: C_8  and  C_40
    7  A    between atoms: C_11  and  C_23
    8  A    between atoms: C_17  and  C_43
    9  A    between atoms: C_19  and  C_47
   10  A    between atoms: C_20  and  C_45
   11  A    between atoms: C_21  and  C_24
   12  A    between atoms: C_28  and  C_31
   13  A    between atoms: C_28  and  C_38
   14  A    between atoms: C_42  and  C_47
   15  A    between atoms: C_45  and  C_47
                            x       y       z     vdW  Elec       q    Type
                         _______ _______ _______ _____ _____    ______ ____

>  <TORSDO>
F 15

$$$$
=
 OpenBabel10232410513D

 49 53  0  0  1  0  0  0  0  0999 V2000
  188.2160  177.7620  143.8970 C   0  0  2  0  0  3  0  0  0  0  0  0
  189.5170  177.3220  145.9830 C   0  0  0  0  0  3  0  0  0  0  0  0
  189.6330  177.3260  147.3750 C   0  0  0  0  0  3  0  0  0  0  0  0
  187.2690  178.1810  146.2070 C   0  0  0  0  0  3  0  0  0  0  0  0
  187.4240  178.1670  147.5940 C   0  0  0  0  0  3  0  0  0  0  0  0
  188.5930  177.7440  148.1450 N   0  0  0  0  0  0  0  0  0  0  0  0
  188.3260  177.7500  145.3930 C   0  0  0  0  0  0  0  0  0  0  0  0
  184.4430  178.1470  143.8530 C   0  0  0  0  0  3  0  0  0  0  0  0
  186.5920  178.5630  142.1150 C   0  0  0  0  0  3  0  0  0  0  0  0
  185.7460  177.8760  144.2780 C   0  0  0  0  0  3  0  0  0  0  0  0
  186.8270  178.0870  143.4140 C   0  0  0  0  0  0  0  0  0  0  0  0
  185.2890  178.8360  141.6900 C   0  0  0  0  0  3  0  0  0  0  0  0
  184.2130  178.6280  142.5590 C   0  0  0  0  0  0  0  0  0  0  0  0
  182.8170  178.8980  142.1050 C   0  0  0  0  0  2  0  0  0  0  0  0
  182.4270  180.6980  138.3840 O   0  0  0  0  0  1  0  0  0  0  0  0
  182.1120  178.3680  137.9140 C   0  0  2  0  0  3  0  0  0  0  0  0
  181.6020  179.6060  138.6590 C   0  0  1  0  0  3  0  0  0  0  0  0
  181.5060  179.4010  140.1110 N   0  0  0  0  0  2  0  0  0  0  0  0
  181.6970  178.3760  136.5650 O   0  0  0  0  0  0  0  0  0  0  0  0
  183.7980  177.4860  136.1800 O   0  0  0  0  0  0  0  0  0  0  0  0
  181.6720  177.0850  138.6300 C   0  0  2  0  0  3  0  0  0  0  0  0
  182.9720  175.9840  136.5450 P   0  0  1  0  0  4  0  0  0  0  0  0
  182.5580  176.8890  140.2180 S   0  0  0  0  0  0  0  0  0  0  0  0
  182.6820  178.6850  140.6050 C   0  0  2  0  0  3  0  0  0  0  0  0
  182.5260  177.5510  135.7430 C   0  0  0  0  0  2  0  0  0  0  0  0
  181.7660  175.8590  137.8240 N   0  0  0  0  0  2  0  0  0  0  0  0
  182.9040  174.9310  135.4640 O   0  0  0  0  0  0  0  0  0  0  0  0
  188.0720  175.4080  143.3260 O   0  0  0  0  0  1  0  0  0  0  0  0
  188.8750  176.5460  143.2310 C   0  0  1  0  0  3  0  0  0  0  0  0
  189.1830  176.8200  141.8230 C   0  0  0  0  0  0  0  0  0  0  0  0
  189.4280  177.0400  140.6630 C   0  0  0  0  0  0  0  0  0  0  0  0
  190.1470  176.2050  136.5460 C   0  0  0  0  0  2  0  0  0  0  0  0
  189.7170  177.3010  139.2530 C   0  0  1  0  0  0  0  0  0  0  0  0
  191.3130  176.7340  137.3810 C   0  0  1  0  0  3  0  0  0  0  0  0
  188.5640  176.7730  138.3990 C   0  0  0  0  0  2  0  0  0  0  0  0
  189.8500  178.6680  139.0700 F   0  0  0  0  0  0  0  0  0  0  0  0
  188.8610  176.9410  136.9080 C   0  0  2  0  0  3  0  0  0  0  0  0
  191.0230  176.6000  138.8770 C   0  0  0  0  0  2  0  0  0  0  0  0
  187.7160  176.3870  136.0820 C   0  0  0  0  0  2  0  0  0  0  0  0
  186.8700  175.6250  136.8880 O   0  0  0  0  0  1  0  0  0  0  0  0
  192.6230  176.0470  137.0090 C   0  0  0  0  0  2  0  0  0  0  0  0
  192.3930  174.7440  135.7550 S   0  0  0  0  0  0  0  0  0  0  0  0
  194.1500  174.7770  135.3070 C   0  0  0  0  0  2  0  0  0  0  0  0
  194.7270  176.1360  135.6430 C   0  0  0  0  0  2  0  0  0  0  0  0
  196.1240  175.9900  136.0110 N   0  0  0  0  0  2  0  0  0  0  0  0
  196.3240  174.5970  136.3740 C   0  0  0  0  0  2  0  0  0  0  0  0
  195.9220  174.8700  138.7020 O   0  0  0  0  0  1  0  0  0  0  0  0
  196.8990  174.5030  137.7760 C   0  0  0  0  0  3  0  0  0  0  0  0
  197.9950  175.3570  137.8980 O   0  0  0  0  0  1  0  0  0  0  0  0
  1 29  1  1  0  0  0
  1  7  1  0  0  0  0
  2  3  1  0  0  0  0
  3  6  2  0  0  0  0
  4  5  2  0  0  0  0
  5  6  1  0  0  0  0
  7  2  2  0  0  0  0
  7  4  1  0  0  0  0
  8 10  1  0  0  0  0
  9 11  1  0  0  0  0
 11  1  1  0  0  0  0
 11 10  2  0  0  0  0
 12  9  2  0  0  0  0
 12 13  1  0  0  0  0
 13  8  2  0  0  0  0
 14 13  1  0  0  0  0
 16 19  1  6  0  0  0
 16 21  1  0  0  0  0
 16 17  1  0  0  0  0
 17 15  1  1  0  0  0
 17 18  1  0  0  0  0
 18 24  1  0  0  0  0
 20 22  1  0  0  0  0
 21 26  1  6  0  0  0
 21 23  1  0  0  0  0
 22 27  2  6  0  0  0
 22 26  1  0  0  0  0
 23 24  1  0  0  0  0
 24 14  1  1  0  0  0
 25 20  1  0  0  0  0
 25 19  1  0  0  0  0
 29 28  1  6  0  0  0
 30 29  1  0  0  0  0
 31 30  3  0  0  0  0
 32 37  1  0  0  0  0
 32 34  1  0  0  0  0
 33 36  1  6  0  0  0
 33 31  1  0  0  0  0
 34 41  1  6  0  0  0
 34 38  1  0  0  0  0
 35 33  1  0  0  0  0
 37 39  1  6  0  0  0
 37 35  1  0  0  0  0
 38 33  1  0  0  0  0
 39 40  1  0  0  0  0
 42 41  1  0  0  0  0
 43 44  1  0  0  0  0
 43 42  1  0  0  0  0
 44 45  1  0  0  0  0
 45 46  1  0  0  0  0
 46 48  1  0  0  0  0
 48 49  1  0  0  0  0
 48 47  1  0  0  0  0
M  END
>  <MODEL>
3

>  <REMARK>
 VINA RESULT:      -7.8      1.508      2.027
  Name = 
  15 active torsions:
  status: ('A' for Active; 'I' for Inactive)
    1  A    between atoms: N_2  and  C_6
    2  A    between atoms: N_2  and  C_21
    3  A    between atoms: S_3  and  C_23
    4  A    between atoms: S_3  and  C_34
    5  A    between atoms: C_6  and  C_34
    6  A    between atoms: C_8  and  C_40
    7  A    between atoms: C_11  and  C_23
    8  A    between atoms: C_17  and  C_43
    9  A    between atoms: C_19  and  C_47
   10  A    between atoms: C_20  and  C_45
   11  A    between atoms: C_21  and  C_24
   12  A    between atoms: C_28  and  C_31
   13  A    between atoms: C_28  and  C_38
   14  A    between atoms: C_42  and  C_47
   15  A    between atoms: C_45  and  C_47
                            x       y       z     vdW  Elec       q    Type
                         _______ _______ _______ _____ _____    ______ ____

>  <TORSDO>
F 15

$$$$
=
 OpenBabel10232410513D

 49 53  0  0  1  0  0  0  0  0999 V2000
  188.9590  177.1870  140.5320 C   0  0  2  0  0  3  0  0  0  0  0  0
  190.0110  178.4470  142.4130 C   0  0  0  0  0  3  0  0  0  0  0  0
  190.3350  178.5800  143.7660 C   0  0  0  0  0  3  0  0  0  0  0  0
  188.9580  176.3300  142.9140 C   0  0  0  0  0  3  0  0  0  0  0  0
  189.3020  176.4990  144.2570 C   0  0  0  0  0  3  0  0  0  0  0  0
  189.9780  177.6120  144.6510 N   0  0  0  0  0  0  0  0  0  0  0  0
  189.3200  177.3130  141.9830 C   0  0  0  0  0  0  0  0  0  0  0  0
  191.0680  176.3300  137.4980 C   0  0  0  0  0  3  0  0  0  0  0  0
  191.4610  177.2730  140.1000 C   0  0  0  0  0  3  0  0  0  0  0  0
  189.9710  176.5290  138.3410 C   0  0  0  0  0  3  0  0  0  0  0  0
  190.1610  177.0060  139.6430 C   0  0  0  0  0  0  0  0  0  0  0  0
  192.5570  177.0750  139.2570 C   0  0  0  0  0  3  0  0  0  0  0  0
  192.3630  176.6030  137.9550 C   0  0  0  0  0  0  0  0  0  0  0  0
  193.5320  176.3700  137.0570 C   0  0  0  0  0  2  0  0  0  0  0  0
  195.9210  174.0370  139.5230 O   0  0  0  0  0  1  0  0  0  0  0  0
  195.5300  172.6260  137.6250 C   0  0  2  0  0  3  0  0  0  0  0  0
  196.1280  173.9360  138.1460 C   0  0  1  0  0  3  0  0  0  0  0  0
  195.5850  175.1220  137.4680 N   0  0  0  0  0  2  0  0  0  0  0  0
  196.3980  171.5380  137.8620 O   0  0  0  0  0  0  0  0  0  0  0  0
  194.4310  170.3910  138.2810 O   0  0  0  0  0  0  0  0  0  0  0  0
  195.1720  172.7450  136.1380 C   0  0  2  0  0  3  0  0  0  0  0  0
  194.4580  170.1810  136.5410 P   0  0  1  0  0  4  0  0  0  0  0  0
  193.7440  173.8640  135.9000 S   0  0  0  0  0  0  0  0  0  0  0  0
  194.1380  174.9970  137.2980 C   0  0  2  0  0  3  0  0  0  0  0  0
  195.7060  170.2870  137.8570 C   0  0  0  0  0  2  0  0  0  0  0  0
  194.9560  171.4670  135.4440 N   0  0  0  0  0  2  0  0  0  0  0  0
  194.5460  168.7740  135.9980 O   0  0  0  0  0  0  0  0  0  0  0  0
  187.2170  177.8030  138.9600 O   0  0  0  0  0  1  0  0  0  0  0  0
  187.9490  178.2430  140.0640 C   0  0  1  0  0  3  0  0  0  0  0  0
  187.0350  178.6130  141.1510 C   0  0  0  0  0  0  0  0  0  0  0  0
  186.2770  178.9090  142.0410 C   0  0  0  0  0  0  0  0  0  0  0  0
  183.4860  178.3400  145.2110 C   0  0  0  0  0  2  0  0  0  0  0  0
  185.3520  179.2620  143.1170 C   0  0  1  0  0  0  0  0  0  0  0  0
  182.9750  178.9650  143.9140 C   0  0  1  0  0  3  0  0  0  0  0  0
  185.8430  178.6400  144.4250 C   0  0  0  0  0  2  0  0  0  0  0  0
  185.3120  180.6410  143.2390 F   0  0  0  0  0  0  0  0  0  0  0  0
  184.8580  178.9040  145.5640 C   0  0  2  0  0  3  0  0  0  0  0  0
  183.9600  178.7350  142.7660 C   0  0  0  0  0  2  0  0  0  0  0  0
  185.3540  178.2560  146.8430 C   0  0  0  0  0  2  0  0  0  0  0  0
  186.6810  177.8540  146.6910 O   0  0  0  0  0  1  0  0  0  0  0  0
  181.5830  178.4520  143.5580 C   0  0  0  0  0  2  0  0  0  0  0  0
  180.5250  179.7520  142.8400 S   0  0  0  0  0  0  0  0  0  0  0  0
  180.3280  178.8260  141.2940 C   0  0  0  0  0  2  0  0  0  0  0  0
  181.0410  179.5590  140.1770 C   0  0  0  0  0  2  0  0  0  0  0  0
  181.5110  178.6010  139.1930 N   0  0  0  0  0  2  0  0  0  0  0  0
  182.3980  179.3170  138.2920 C   0  0  0  0  0  2  0  0  0  0  0  0
  183.8870  177.8380  139.4100 O   0  0  0  0  0  1  0  0  0  0  0  0
  183.8440  178.9790  138.6100 C   0  0  0  0  0  3  0  0  0  0  0  0
  184.4420  180.0420  139.2880 O   0  0  0  0  0  1  0  0  0  0  0  0
  1 29  1  6  0  0  0
  1  7  1  0  0  0  0
  2  3  1  0  0  0  0
  3  6  2  0  0  0  0
  4  5  2  0  0  0  0
  5  6  1  0  0  0  0
  7  2  2  0  0  0  0
  7  4  1  0  0  0  0
  8 13  2  0  0  0  0
  8 10  1  0  0  0  0
 10 11  2  0  0  0  0
 11  9  1  0  0  0  0
 11  1  1  0  0  0  0
 12  9  2  0  0  0  0
 13 12  1  0  0  0  0
 14 13  1  0  0  0  0
 16 19  1  6  0  0  0
 16 17  1  0  0  0  0
 17 15  1  1  0  0  0
 18 17  1  0  0  0  0
 21 26  1  1  0  0  0
 21 16  1  0  0  0  0
 22 27  2  1  0  0  0
 22 20  1  0  0  0  0
 23 21  1  0  0  0  0
 23 24  1  0  0  0  0
 24 14  1  6  0  0  0
 24 18  1  0  0  0  0
 25 19  1  0  0  0  0
 25 20  1  0  0  0  0
 26 22  1  0  0  0  0
 29 28  1  6  0  0  0
 29 30  1  0  0  0  0
 30 31  3  0  0  0  0
 31 33  1  0  0  0  0
 32 37  1  0  0  0  0
 33 36  1  1  0  0  0
 33 35  1  0  0  0  0
 34 41  1  6  0  0  0
 34 32  1  0  0  0  0
 35 37  1  0  0  0  0
 37 39  1  1  0  0  0
 38 33  1  0  0  0  0
 38 34  1  0  0  0  0
 40 39  1  0  0  0  0
 42 41  1  0  0  0  0
 43 42  1  0  0  0  0
 44 43  1  0  0  0  0
 45 44  1  0  0  0  0
 46 48  1  0  0  0  0
 46 45  1  0  0  0  0
 48 49  1  0  0  0  0
 48 47  1  0  0  0  0
M  END
>  <MODEL>
4

>  <REMARK>
 VINA RESULT:      -7.8      3.431     10.629
  Name = 
  15 active torsions:
  status: ('A' for Active; 'I' for Inactive)
    1  A    between atoms: N_2  and  C_6
    2  A    between atoms: N_2  and  C_21
    3  A    between atoms: S_3  and  C_23
    4  A    between atoms: S_3  and  C_34
    5  A    between atoms: C_6  and  C_34
    6  A    between atoms: C_8  and  C_40
    7  A    between atoms: C_11  and  C_23
    8  A    between atoms: C_17  and  C_43
    9  A    between atoms: C_19  and  C_47
   10  A    between atoms: C_20  and  C_45
   11  A    between atoms: C_21  and  C_24
   12  A    between atoms: C_28  and  C_31
   13  A    between atoms: C_28  and  C_38
   14  A    between atoms: C_42  and  C_47
   15  A    between atoms: C_45  and  C_47
                            x       y       z     vdW  Elec       q    Type
                         _______ _______ _______ _____ _____    ______ ____

>  <TORSDO>
F 15

$$$$
=
 OpenBabel10232410513D

 49 53  0  0  1  0  0  0  0  0999 V2000
  188.3400  176.8720  145.6250 C   0  0  2  0  0  3  0  0  0  0  0  0
  190.7420  176.2220  145.8380 C   0  0  0  0  0  3  0  0  0  0  0  0
  191.9440  176.2020  146.5490 C   0  0  0  0  0  3  0  0  0  0  0  0
  189.7260  177.4310  147.6680 C   0  0  0  0  0  3  0  0  0  0  0  0
  190.9460  177.3880  148.3470 C   0  0  0  0  0  3  0  0  0  0  0  0
  192.0210  176.7800  147.7770 N   0  0  0  0  0  0  0  0  0  0  0  0
  189.6230  176.8380  146.4020 C   0  0  0  0  0  0  0  0  0  0  0  0
  188.0790  177.1020  141.8480 C   0  0  0  0  0  3  0  0  0  0  0  0
  189.3090  178.5000  143.9320 C   0  0  0  0  0  3  0  0  0  0  0  0
  187.9110  176.6750  143.1680 C   0  0  0  0  0  3  0  0  0  0  0  0
  188.5210  177.3730  144.2170 C   0  0  0  0  0  0  0  0  0  0  0  0
  189.4750  178.9270  142.6130 C   0  0  0  0  0  3  0  0  0  0  0  0
  188.8600  178.2280  141.5680 C   0  0  0  0  0  0  0  0  0  0  0  0
  189.0490  178.6680  140.1550 C   0  0  0  0  0  2  0  0  0  0  0  0
  190.4740  175.1560  138.4610 O   0  0  0  0  0  1  0  0  0  0  0  0
  188.4740  175.6050  137.2180 C   0  0  2  0  0  3  0  0  0  0  0  0
  189.8760  176.0840  137.6070 C   0  0  1  0  0  3  0  0  0  0  0  0
  189.8730  177.4140  138.2330 N   0  0  0  0  0  2  0  0  0  0  0  0
  188.5290  174.6480  136.1820 O   0  0  0  0  0  0  0  0  0  0  0  0
  186.7890  173.6630  137.3450 O   0  0  0  0  0  0  0  0  0  0  0  0
  187.5800  176.7930  136.8380 C   0  0  2  0  0  3  0  0  0  0  0  0
  185.8320  174.7920  136.4060 P   0  0  1  0  0  4  0  0  0  0  0  0
  187.1760  177.8000  138.3110 S   0  0  0  0  0  0  0  0  0  0  0  0
  188.7710  177.5270  139.1890 C   0  0  2  0  0  3  0  0  0  0  0  0
  187.3530  173.8370  136.1350 C   0  0  0  0  0  2  0  0  0  0  0  0
  186.3620  176.4430  136.0940 N   0  0  0  0  0  2  0  0  0  0  0  0
  184.8120  174.2280  135.4450 O   0  0  0  0  0  0  0  0  0  0  0  0
  187.6200  178.5030  147.2700 O   0  0  0  0  0  1  0  0  0  0  0  0
  187.1760  177.5030  146.4030 C   0  0  1  0  0  3  0  0  0  0  0  0
  186.1690  178.0500  145.4870 C   0  0  0  0  0  0  0  0  0  0  0  0
  185.3370  178.4910  144.7340 C   0  0  0  0  0  0  0  0  0  0  0  0
  181.9970  178.4670  142.0850 C   0  0  0  0  0  2  0  0  0  0  0  0
  184.3220  179.0160  143.8200 C   0  0  1  0  0  0  0  0  0  0  0  0
  183.3760  178.7620  141.4930 C   0  0  1  0  0  3  0  0  0  0  0  0
  182.9340  178.7250  144.3910 C   0  0  0  0  0  2  0  0  0  0  0  0
  184.5010  180.3830  143.6920 F   0  0  0  0  0  0  0  0  0  0  0  0
  181.8360  179.1750  143.4260 C   0  0  2  0  0  3  0  0  0  0  0  0
  184.4890  178.3440  142.4560 C   0  0  0  0  0  2  0  0  0  0  0  0
  180.4710  178.8530  144.0020 C   0  0  0  0  0  2  0  0  0  0  0  0
  180.0290  177.6190  143.5250 O   0  0  0  0  0  1  0  0  0  0  0  0
  183.5500  178.1030  140.1290 C   0  0  0  0  0  2  0  0  0  0  0  0
  182.3710  176.7380  139.8600 S   0  0  0  0  0  0  0  0  0  0  0  0
  181.5700  177.6170  138.4910 C   0  0  0  0  0  2  0  0  0  0  0  0
  182.4810  178.7230  138.0040 C   0  0  0  0  0  2  0  0  0  0  0  0
  181.7040  179.9320  137.7960 N   0  0  0  0  0  2  0  0  0  0  0  0
  180.4240  179.7330  138.4550 C   0  0  0  0  0  2  0  0  0  0  0  0
  180.6470  182.0990  138.5470 O   0  0  0  0  0  1  0  0  0  0  0  0
  179.9820  181.0200  139.1300 C   0  0  0  0  0  3  0  0  0  0  0  0
  180.2860  180.9710  140.4910 O   0  0  0  0  0  1  0  0  0  0  0  0
  1  7  1  0  0  0  0
  1 29  1  1  0  0  0
  2  7  2  0  0  0  0
  2  3  1  0  0  0  0
  3  6  2  0  0  0  0
  4  5  2  0  0  0  0
  6  5  1  0  0  0  0
  7  4  1  0  0  0  0
  8 10  1  0  0  0  0
  9 11  1  0  0  0  0
 10 11  2  0  0  0  0
 11  1  1  0  0  0  0
 12  9  2  0  0  0  0
 13  8  2  0  0  0  0
 13 12  1  0  0  0  0
 14 13  1  0  0  0  0
 16 19  1  6  0  0  0
 16 17  1  0  0  0  0
 17 18  1  0  0  0  0
 17 15  1  1  0  0  0
 18 24  1  0  0  0  0
 21 26  1  1  0  0  0
 21 16  1  0  0  0  0
 21 23  1  0  0  0  0
 22 27  2  6  0  0  0
 22 20  1  0  0  0  0
 23 24  1  0  0  0  0
 24 14  1  1  0  0  0
 25 19  1  0  0  0  0
 25 20  1  0  0  0  0
 26 22  1  0  0  0  0
 29 28  1  1  0  0  0
 30 29  1  0  0  0  0
 31 30  3  0  0  0  0
 32 37  1  0  0  0  0
 33 36  1  6  0  0  0
 33 35  1  0  0  0  0
 33 31  1  0  0  0  0
 34 41  1  6  0  0  0
 34 32  1  0  0  0  0
 34 38  1  0  0  0  0
 37 39  1  1  0  0  0
 37 35  1  0  0  0  0
 38 33  1  0  0  0  0
 40 39  1  0  0  0  0
 42 41  1  0  0  0  0
 43 42  1  0  0  0  0
 44 43  1  0  0  0  0
 45 44  1  0  0  0  0
 45 46  1  0  0  0  0
 46 48  1  0  0  0  0
 47 48  1  0  0  0  0
 48 49  1  0  0  0  0
M  END
>  <MODEL>
5

>  <REMARK>
 VINA RESULT:      -7.8      3.502      8.367
  Name = 
  15 active torsions:
  status: ('A' for Active; 'I' for Inactive)
    1  A    between atoms: N_2  and  C_6
    2  A    between atoms: N_2  and  C_21
    3  A    between atoms: S_3  and  C_23
    4  A    between atoms: S_3  and  C_34
    5  A    between atoms: C_6  and  C_34
    6  A    between atoms: C_8  and  C_40
    7  A    between atoms: C_11  and  C_23
    8  A    between atoms: C_17  and  C_43
    9  A    between atoms: C_19  and  C_47
   10  A    between atoms: C_20  and  C_45
   11  A    between atoms: C_21  and  C_24
   12  A    between atoms: C_28  and  C_31
   13  A    between atoms: C_28  and  C_38
   14  A    between atoms: C_42  and  C_47
   15  A    between atoms: C_45  and  C_47
                            x       y       z     vdW  Elec       q    Type
                         _______ _______ _______ _____ _____    ______ ____

>  <TORSDO>
F 15

$$$$
=
 OpenBabel10232410513D

 49 53  0  0  1  0  0  0  0  0999 V2000
  188.0680  177.6780  144.0650 C   0  0  2  0  0  3  0  0  0  0  0  0
  189.3900  177.2200  146.1340 C   0  0  0  0  0  3  0  0  0  0  0  0
  189.5360  177.2490  147.5230 C   0  0  0  0  0  3  0  0  0  0  0  0
  187.1950  178.1990  146.3830 C   0  0  0  0  0  3  0  0  0  0  0  0
  187.3790  178.2100  147.7670 C   0  0  0  0  0  3  0  0  0  0  0  0
  188.5370  177.7390  148.3040 N   0  0  0  0  0  0  0  0  0  0  0  0
  188.2100  177.6960  145.5580 C   0  0  0  0  0  0  0  0  0  0  0  0
  185.1580  178.6060  141.8160 C   0  0  0  0  0  3  0  0  0  0  0  0
  185.5770  177.9250  144.4950 C   0  0  0  0  0  3  0  0  0  0  0  0
  186.4480  178.3110  142.2680 C   0  0  0  0  0  3  0  0  0  0  0  0
  186.6630  177.9660  143.6070 C   0  0  0  0  0  0  0  0  0  0  0  0
  184.2880  178.2170  144.0430 C   0  0  0  0  0  3  0  0  0  0  0  0
  184.0760  178.5580  142.7030 C   0  0  0  0  0  0  0  0  0  0  0  0
  182.7050  178.8910  142.2190 C   0  0  0  0  0  2  0  0  0  0  0  0
  182.6700  180.7620  138.5130 O   0  0  0  0  0  1  0  0  0  0  0  0
  182.0980  178.4910  137.9980 C   0  0  2  0  0  3  0  0  0  0  0  0
  181.7110  179.7740  138.7420 C   0  0  1  0  0  3  0  0  0  0  0  0
  181.5380  179.5670  140.1870 N   0  0  0  0  0  2  0  0  0  0  0  0
  181.7370  178.5620  136.6350 O   0  0  0  0  0  0  0  0  0  0  0  0
  183.7310  177.4320  136.3130 O   0  0  0  0  0  0  0  0  0  0  0  0
  181.4830  177.2620  138.6790 C   0  0  2  0  0  3  0  0  0  0  0  0
  182.7190  176.0350  136.6260 P   0  0  1  0  0  4  0  0  0  0  0  0
  182.2800  176.9460  140.2950 S   0  0  0  0  0  0  0  0  0  0  0  0
  182.6010  178.7100  140.7120 C   0  0  2  0  0  3  0  0  0  0  0  0
  182.4930  177.6530  135.8310 C   0  0  0  0  0  2  0  0  0  0  0  0
  181.4610  176.0420  137.8590 N   0  0  0  0  0  2  0  0  0  0  0  0
  182.5680  175.0090  135.5280 O   0  0  0  0  0  0  0  0  0  0  0  0
  187.8810  175.3650  143.3590 O   0  0  0  0  0  1  0  0  0  0  0  0
  188.7390  176.4640  143.4060 C   0  0  1  0  0  3  0  0  0  0  0  0
  189.2040  176.7910  142.0540 C   0  0  0  0  0  0  0  0  0  0  0  0
  189.5890  177.0500  140.9410 C   0  0  0  0  0  0  0  0  0  0  0  0
  189.7780  176.9130  136.6850 C   0  0  0  0  0  2  0  0  0  0  0  0
  190.0610  177.3550  139.5900 C   0  0  1  0  0  0  0  0  0  0  0  0
  190.9360  176.2990  137.4710 C   0  0  1  0  0  3  0  0  0  0  0  0
  188.9140  177.9660  138.7840 C   0  0  0  0  0  2  0  0  0  0  0  0
  191.1080  178.2590  139.6760 F   0  0  0  0  0  0  0  0  0  0  0  0
  189.3320  178.2180  137.3350 C   0  0  2  0  0  3  0  0  0  0  0  0
  190.5470  176.0640  138.9320 C   0  0  0  0  0  2  0  0  0  0  0  0
  188.1710  178.7990  136.5510 C   0  0  0  0  0  2  0  0  0  0  0  0
  187.1120  179.0910  137.4110 O   0  0  0  0  0  1  0  0  0  0  0  0
  191.4340  175.0130  136.8190 C   0  0  0  0  0  2  0  0  0  0  0  0
  191.3670  175.0850  134.9980 S   0  0  0  0  0  0  0  0  0  0  0  0
  190.3300  173.6000  134.9150 C   0  0  0  0  0  2  0  0  0  0  0  0
  188.8960  174.0040  134.6450 C   0  0  0  0  0  2  0  0  0  0  0  0
  188.0010  173.1400  135.3920 N   0  0  0  0  0  2  0  0  0  0  0  0
  187.9460  173.6580  136.7490 C   0  0  0  0  0  2  0  0  0  0  0  0
  185.6640  173.7170  136.0810 O   0  0  0  0  0  1  0  0  0  0  0  0
  186.5540  174.1880  137.0460 C   0  0  0  0  0  3  0  0  0  0  0  0
  186.5630  175.5830  137.0250 O   0  0  0  0  0  1  0  0  0  0  0  0
  1 29  1  1  0  0  0
  1  7  1  0  0  0  0
  2  3  1  0  0  0  0
  3  6  2  0  0  0  0
  4  5  2  0  0  0  0
  5  6  1  0  0  0  0
  7  2  2  0  0  0  0
  7  4  1  0  0  0  0
  8 10  2  0  0  0  0
  8 13  1  0  0  0  0
 10 11  1  0  0  0  0
 11  1  1  0  0  0  0
 11  9  2  0  0  0  0
 12  9  1  0  0  0  0
 13 12  2  0  0  0  0
 14 13  1  0  0  0  0
 16 19  1  6  0  0  0
 16 21  1  0  0  0  0
 16 17  1  0  0  0  0
 17 15  1  1  0  0  0
 17 18  1  0  0  0  0
 18 24  1  0  0  0  0
 20 22  1  0  0  0  0
 21 26  1  6  0  0  0
 21 23  1  0  0  0  0
 22 27  2  6  0  0  0
 22 26  1  0  0  0  0
 23 24  1  0  0  0  0
 24 14  1  1  0  0  0
 25 20  1  0  0  0  0
 25 19  1  0  0  0  0
 29 28  1  6  0  0  0
 30 29  1  0  0  0  0
 31 30  3  0  0  0  0
 32 37  1  0  0  0  0
 32 34  1  0  0  0  0
 33 36  1  1  0  0  0
 33 31  1  0  0  0  0
 34 41  1  6  0  0  0
 34 38  1  0  0  0  0
 35 33  1  0  0  0  0
 37 39  1  6  0  0  0
 37 35  1  0  0  0  0
 38 33  1  0  0  0  0
 39 40  1  0  0  0  0
 42 41  1  0  0  0  0
 43 42  1  0  0  0  0
 44 43  1  0  0  0  0
 44 45  1  0  0  0  0
 45 46  1  0  0  0  0
 46 48  1  0  0  0  0
 47 48  1  0  0  0  0
 49 48  1  0  0  0  0
M  END
>  <MODEL>
6

>  <REMARK>
 VINA RESULT:      -7.7      2.974      3.902
  Name = 
  15 active torsions:
  status: ('A' for Active; 'I' for Inactive)
    1  A    between atoms: N_2  and  C_6
    2  A    between atoms: N_2  and  C_21
    3  A    between atoms: S_3  and  C_23
    4  A    between atoms: S_3  and  C_34
    5  A    between atoms: C_6  and  C_34
    6  A    between atoms: C_8  and  C_40
    7  A    between atoms: C_11  and  C_23
    8  A    between atoms: C_17  and  C_43
    9  A    between atoms: C_19  and  C_47
   10  A    between atoms: C_20  and  C_45
   11  A    between atoms: C_21  and  C_24
   12  A    between atoms: C_28  and  C_31
   13  A    between atoms: C_28  and  C_38
   14  A    between atoms: C_42  and  C_47
   15  A    between atoms: C_45  and  C_47
                            x       y       z     vdW  Elec       q    Type
                         _______ _______ _______ _____ _____    ______ ____

>  <TORSDO>
F 15

$$$$
=
 OpenBabel10232410513D

 49 53  0  0  1  0  0  0  0  0999 V2000
  188.8350  177.1770  140.5400 C   0  0  2  0  0  3  0  0  0  0  0  0
  189.9350  175.9900  142.4430 C   0  0  0  0  0  3  0  0  0  0  0  0
  190.7630  175.9880  143.5680 C   0  0  0  0  0  3  0  0  0  0  0  0
  190.3240  178.3630  142.2080 C   0  0  0  0  0  3  0  0  0  0  0  0
  191.1440  178.3200  143.3380 C   0  0  0  0  0  3  0  0  0  0  0  0
  191.3440  177.1430  143.9880 N   0  0  0  0  0  0  0  0  0  0  0  0
  189.7110  177.1860  141.7580 C   0  0  0  0  0  0  0  0  0  0  0  0
  191.5270  176.3130  138.0120 C   0  0  0  0  0  3  0  0  0  0  0  0
  188.8080  175.8000  138.4060 C   0  0  0  0  0  3  0  0  0  0  0  0
  190.8730  176.8350  139.1320 C   0  0  0  0  0  3  0  0  0  0  0  0
  189.5130  176.5780  139.3360 C   0  0  0  0  0  0  0  0  0  0  0  0
  189.4620  175.2760  137.2870 C   0  0  0  0  0  3  0  0  0  0  0  0
  190.8230  175.5320  137.0890 C   0  0  0  0  0  0  0  0  0  0  0  0
  191.5220  174.9920  135.8870 C   0  0  0  0  0  2  0  0  0  0  0  0
  194.7870  177.5460  136.1120 O   0  0  0  0  0  1  0  0  0  0  0  0
  195.7860  175.3700  135.9890 C   0  0  2  0  0  3  0  0  0  0  0  0
  194.9090  176.4180  135.2980 C   0  0  1  0  0  3  0  0  0  0  0  0
  193.5770  175.9070  134.9450 N   0  0  0  0  0  2  0  0  0  0  0  0
  197.1580  175.6650  135.8290 O   0  0  0  0  0  0  0  0  0  0  0  0
  197.3170  174.8830  138.0010 O   0  0  0  0  0  0  0  0  0  0  0  0
  195.4520  173.9610  135.4800 C   0  0  2  0  0  3  0  0  0  0  0  0
  197.4380  173.3350  137.1870 P   0  0  1  0  0  4  0  0  0  0  0  0
  193.8030  173.4320  136.0660 S   0  0  0  0  0  0  0  0  0  0  0  0
  193.0310  175.1040  136.0400 C   0  0  2  0  0  3  0  0  0  0  0  0
  197.9630  175.0380  136.8300 C   0  0  0  0  0  2  0  0  0  0  0  0
  196.4650  172.9370  135.7730 N   0  0  0  0  0  2  0  0  0  0  0  0
  198.7090  172.5390  137.3640 O   0  0  0  0  0  0  0  0  0  0  0  0
  187.4950  178.5430  139.0490 O   0  0  0  0  0  1  0  0  0  0  0  0
  188.1210  178.5140  140.2960 C   0  0  1  0  0  3  0  0  0  0  0  0
  187.1390  178.7840  141.3510 C   0  0  0  0  0  0  0  0  0  0  0  0
  186.3280  179.0150  142.2130 C   0  0  0  0  0  0  0  0  0  0  0  0
  183.3970  178.2550  145.2140 C   0  0  0  0  0  2  0  0  0  0  0  0
  185.3410  179.3030  143.2540 C   0  0  1  0  0  0  0  0  0  0  0  0
  182.9350  178.9180  143.9170 C   0  0  1  0  0  3  0  0  0  0  0  0
  185.7820  178.6420  144.5610 C   0  0  0  0  0  2  0  0  0  0  0  0
  185.2600  180.6750  143.4260 F   0  0  0  0  0  0  0  0  0  0  0  0
  184.7350  178.8370  145.6580 C   0  0  2  0  0  3  0  0  0  0  0  0
  183.9820  178.7570  142.8130 C   0  0  0  0  0  2  0  0  0  0  0  0
  185.1830  178.1520  146.9340 C   0  0  0  0  0  2  0  0  0  0  0  0
  186.5510  178.3460  147.1260 O   0  0  0  0  0  1  0  0  0  0  0  0
  181.5770  178.3870  143.4710 C   0  0  0  0  0  2  0  0  0  0  0  0
  180.4360  179.7200  142.9770 S   0  0  0  0  0  0  0  0  0  0  0  0
  180.1160  178.9380  141.3730 C   0  0  0  0  0  2  0  0  0  0  0  0
  181.0230  179.5510  140.3260 C   0  0  0  0  0  2  0  0  0  0  0  0
  181.9130  178.5320  139.8010 N   0  0  0  0  0  2  0  0  0  0  0  0
  182.4070  179.0170  138.5230 C   0  0  0  0  0  2  0  0  0  0  0  0
  184.3280  177.6750  138.9280 O   0  0  0  0  0  1  0  0  0  0  0  0
  183.9230  178.9340  138.4870 C   0  0  0  0  0  3  0  0  0  0  0  0
  184.4710  179.9130  139.3160 O   0  0  0  0  0  1  0  0  0  0  0  0
  1 29  1  6  0  0  0
  1  7  1  0  0  0  0
  2  3  1  0  0  0  0
  3  6  2  0  0  0  0
  4  5  2  0  0  0  0
  5  6  1  0  0  0  0
  7  4  1  0  0  0  0
  7  2  2  0  0  0  0
  8 10  1  0  0  0  0
  9 11  1  0  0  0  0
 10 11  2  0  0  0  0
 11  1  1  0  0  0  0
 12  9  2  0  0  0  0
 13 12  1  0  0  0  0
 13  8  2  0  0  0  0
 14 13  1  0  0  0  0
 16 19  1  6  0  0  0
 17 16  1  0  0  0  0
 17 15  1  1  0  0  0
 18 17  1  0  0  0  0
 18 24  1  0  0  0  0
 19 25  1  0  0  0  0
 21 26  1  1  0  0  0
 21 16  1  0  0  0  0
 21 23  1  0  0  0  0
 22 27  2  6  0  0  0
 22 20  1  0  0  0  0
 24 14  1  6  0  0  0
 24 23  1  0  0  0  0
 25 20  1  0  0  0  0
 26 22  1  0  0  0  0
 29 28  1  6  0  0  0
 29 30  1  0  0  0  0
 30 31  3  0  0  0  0
 31 33  1  0  0  0  0
 32 37  1  0  0  0  0
 33 36  1  1  0  0  0
 33 35  1  0  0  0  0
 34 41  1  6  0  0  0
 34 32  1  0  0  0  0
 35 37  1  0  0  0  0
 37 39  1  1  0  0  0
 38 33  1  0  0  0  0
 38 34  1  0  0  0  0
 39 40  1  0  0  0  0
 42 41  1  0  0  0  0
 43 42  1  0  0  0  0
 44 43  1  0  0  0  0
 45 44  1  0  0  0  0
 46 45  1  0  0  0  0
 48 46  1  0  0  0  0
 48 47  1  0  0  0  0
 48 49  1  0  0  0  0
M  END
>  <MODEL>
7

>  <REMARK>
 VINA RESULT:      -7.5      3.461     10.749
  Name = 
  15 active torsions:
  status: ('A' for Active; 'I' for Inactive)
    1  A    between atoms: N_2  and  C_6
    2  A    between atoms: N_2  and  C_21
    3  A    between atoms: S_3  and  C_23
    4  A    between atoms: S_3  and  C_34
    5  A    between atoms: C_6  and  C_34
    6  A    between atoms: C_8  and  C_40
    7  A    between atoms: C_11  and  C_23
    8  A    between atoms: C_17  and  C_43
    9  A    between atoms: C_19  and  C_47
   10  A    between atoms: C_20  and  C_45
   11  A    between atoms: C_21  and  C_24
   12  A    between atoms: C_28  and  C_31
   13  A    between atoms: C_28  and  C_38
   14  A    between atoms: C_42  and  C_47
   15  A    between atoms: C_45  and  C_47
                            x       y       z     vdW  Elec       q    Type
                         _______ _______ _______ _____ _____    ______ ____

>  <TORSDO>
F 15

$$$$
=
 OpenBabel10232410513D

 49 53  0  0  1  0  0  0  0  0999 V2000
  190.0830  176.0710  138.0670 C   0  0  2  0  0  3  0  0  0  0  0  0
  191.1570  174.0750  137.0180 C   0  0  0  0  0  3  0  0  0  0  0  0
  192.2690  173.4310  136.4700 C   0  0  0  0  0  3  0  0  0  0  0  0
  192.5280  176.0240  137.4140 C   0  0  0  0  0  3  0  0  0  0  0  0
  193.6160  175.3460  136.8600 C   0  0  0  0  0  3  0  0  0  0  0  0
  193.4650  174.0750  136.4030 N   0  0  0  0  0  0  0  0  0  0  0  0
  191.2870  175.3800  137.4970 C   0  0  0  0  0  0  0  0  0  0  0  0
  186.6850  174.7980  136.9640 C   0  0  0  0  0  3  0  0  0  0  0  0
  188.6900  176.4800  135.9830 C   0  0  0  0  0  3  0  0  0  0  0  0
  187.8380  175.0240  137.7200 C   0  0  0  0  0  3  0  0  0  0  0  0
  188.8430  175.8680  137.2370 C   0  0  0  0  0  0  0  0  0  0  0  0
  187.5370  176.2560  135.2270 C   0  0  0  0  0  3  0  0  0  0  0  0
  186.5320  175.4140  135.7160 C   0  0  0  0  0  0  0  0  0  0  0  0
  185.3070  175.1550  134.9050 C   0  0  0  0  0  2  0  0  0  0  0  0
  181.8500  173.2250  136.1540 O   0  0  0  0  0  1  0  0  0  0  0  0
  181.6140  175.4340  137.0560 C   0  0  2  0  0  3  0  0  0  0  0  0
  181.7410  174.5700  135.7970 C   0  0  1  0  0  3  0  0  0  0  0  0
  182.8770  174.9590  134.9490 N   0  0  0  0  0  2  0  0  0  0  0  0
  180.2910  175.4310  137.5470 O   0  0  0  0  0  0  0  0  0  0  0  0
  181.3310  175.4180  139.6150 O   0  0  0  0  0  0  0  0  0  0  0  0
  182.1100  176.8610  136.7870 C   0  0  2  0  0  3  0  0  0  0  0  0
  181.3500  177.1520  139.3540 P   0  0  1  0  0  4  0  0  0  0  0  0
  183.9250  176.8880  136.5640 S   0  0  0  0  0  0  0  0  0  0  0  0
  184.0570  175.2330  135.7680 C   0  0  2  0  0  3  0  0  0  0  0  0
  180.2300  175.7860  138.9310 C   0  0  0  0  0  2  0  0  0  0  0  0
  181.6900  177.8630  137.7780 N   0  0  0  0  0  2  0  0  0  0  0  0
  180.5920  178.0240  140.3260 O   0  0  0  0  0  0  0  0  0  0  0  0
  189.5790  178.4250  137.7740 O   0  0  0  0  0  1  0  0  0  0  0  0
  190.3610  177.5190  138.4930 C   0  0  1  0  0  3  0  0  0  0  0  0
  190.1310  177.6960  139.9310 C   0  0  0  0  0  0  0  0  0  0  0  0
  189.9500  177.8480  141.1130 C   0  0  0  0  0  0  0  0  0  0  0  0
  189.1830  176.8140  145.1770 C   0  0  0  0  0  2  0  0  0  0  0  0
  189.7400  178.0390  142.5490 C   0  0  1  0  0  0  0  0  0  0  0  0
  188.1090  177.6010  144.4250 C   0  0  1  0  0  3  0  0  0  0  0  0
  190.8020  177.2540  143.3200 C   0  0  0  0  0  2  0  0  0  0  0  0
  189.8480  179.3880  142.8410 F   0  0  0  0  0  0  0  0  0  0  0  0
  190.5690  177.3470  144.8280 C   0  0  2  0  0  3  0  0  0  0  0  0
  188.3400  177.5420  142.9140 C   0  0  0  0  0  2  0  0  0  0  0  0
  191.6180  176.5420  145.5690 C   0  0  0  0  0  2  0  0  0  0  0  0
  191.3030  176.4800  146.9270 O   0  0  0  0  0  1  0  0  0  0  0  0
  186.7080  177.1180  144.7880 C   0  0  0  0  0  2  0  0  0  0  0  0
  185.9780  178.0710  146.1600 S   0  0  0  0  0  0  0  0  0  0  0  0
  185.1140  179.1800  145.0150 C   0  0  0  0  0  2  0  0  0  0  0  0
  184.7040  178.4050  143.7810 C   0  0  0  0  0  2  0  0  0  0  0  0
  184.9270  179.2210  142.6010 N   0  0  0  0  0  2  0  0  0  0  0  0
  184.1570  178.6260  141.5220 C   0  0  0  0  0  2  0  0  0  0  0  0
  186.2750  178.8660  140.4670 O   0  0  0  0  0  1  0  0  0  0  0  0
  184.9070  178.7680  140.2090 C   0  0  0  0  0  3  0  0  0  0  0  0
  184.4800  179.9150  139.5390 O   0  0  0  0  0  1  0  0  0  0  0  0
  1 29  1  6  0  0  0
  2  7  1  0  0  0  0
  3  2  2  0  0  0  0
  4  7  2  0  0  0  0
  5  4  1  0  0  0  0
  6  3  1  0  0  0  0
  6  5  2  0  0  0  0
  7  1  1  0  0  0  0
  8 10  1  0  0  0  0
  9 11  1  0  0  0  0
 11 10  2  0  0  0  0
 11  1  1  0  0  0  0
 12 13  1  0  0  0  0
 12  9  2  0  0  0  0
 13  8  2  0  0  0  0
 14 13  1  0  0  0  0
 16 19  1  6  0  0  0
 17 15  1  1  0  0  0
 17 16  1  0  0  0  0
 18 24  1  0  0  0  0
 18 17  1  0  0  0  0
 19 25  1  0  0  0  0
 21 23  1  1  0  0  0
 21 16  1  0  0  0  0
 21 26  1  0  0  0  0
 22 20  1  0  0  0  0
 22 27  2  6  0  0  0
 24 14  1  6  0  0  0
 24 23  1  0  0  0  0
 25 20  1  0  0  0  0
 26 22  1  0  0  0  0
 29 28  1  6  0  0  0
 29 30  1  0  0  0  0
 30 31  3  0  0  0  0
 31 33  1  0  0  0  0
 33 36  1  1  0  0  0
 33 38  1  0  0  0  0
 33 35  1  0  0  0  0
 34 41  1  6  0  0  0
 34 32  1  0  0  0  0
 35 37  1  0  0  0  0
 37 32  1  0  0  0  0
 37 39  1  1  0  0  0
 38 34  1  0  0  0  0
 39 40  1  0  0  0  0
 41 42  1  0  0  0  0
 43 42  1  0  0  0  0
 44 43  1  0  0  0  0
 45 44  1  0  0  0  0
 46 45  1  0  0  0  0
 48 47  1  0  0  0  0
 48 46  1  0  0  0  0
 49 48  1  0  0  0  0
M  END
>  <MODEL>
8

>  <REMARK>
 VINA RESULT:      -7.4      3.168      8.223
  Name = 
  15 active torsions:
  status: ('A' for Active; 'I' for Inactive)
    1  A    between atoms: N_2  and  C_6
    2  A    between atoms: N_2  and  C_21
    3  A    between atoms: S_3  and  C_23
    4  A    between atoms: S_3  and  C_34
    5  A    between atoms: C_6  and  C_34
    6  A    between atoms: C_8  and  C_40
    7  A    between atoms: C_11  and  C_23
    8  A    between atoms: C_17  and  C_43
    9  A    between atoms: C_19  and  C_47
   10  A    between atoms: C_20  and  C_45
   11  A    between atoms: C_21  and  C_24
   12  A    between atoms: C_28  and  C_31
   13  A    between atoms: C_28  and  C_38
   14  A    between atoms: C_42  and  C_47
   15  A    between atoms: C_45  and  C_47
                            x       y       z     vdW  Elec       q    Type
                         _______ _______ _______ _____ _____    ______ ____

>  <TORSDO>
F 15

$$$$
=
 OpenBabel10232410513D

 49 53  0  0  1  0  0  0  0  0999 V2000
  188.5530  177.5520  144.2420 C   0  0  2  0  0  3  0  0  0  0  0  0
  190.4570  176.9220  145.7300 C   0  0  0  0  0  3  0  0  0  0  0  0
  191.0670  176.8870  146.9860 C   0  0  0  0  0  3  0  0  0  0  0  0
  188.5620  178.0430  146.7250 C   0  0  0  0  0  3  0  0  0  0  0  0
  189.2040  177.9870  147.9640 C   0  0  0  0  0  3  0  0  0  0  0  0
  190.4330  177.4150  148.0670 N   0  0  0  0  0  0  0  0  0  0  0  0
  189.1940  177.5020  145.5980 C   0  0  0  0  0  0  0  0  0  0  0  0
  185.0070  178.0300  145.4980 C   0  0  0  0  0  3  0  0  0  0  0  0
  186.5000  178.6400  143.2150 C   0  0  0  0  0  3  0  0  0  0  0  0
  186.3550  177.6690  145.4300 C   0  0  0  0  0  3  0  0  0  0  0  0
  187.1090  177.9760  144.2910 C   0  0  0  0  0  0  0  0  0  0  0  0
  185.1520  179.0020  143.2850 C   0  0  0  0  0  3  0  0  0  0  0  0
  184.4040  178.6970  144.4260 C   0  0  0  0  0  0  0  0  0  0  0  0
  182.9590  179.0630  144.4980 C   0  0  0  0  0  2  0  0  0  0  0  0
  179.9820  180.7510  142.1470 O   0  0  0  0  0  1  0  0  0  0  0  0
  181.0150  179.1570  140.6840 C   0  0  2  0  0  3  0  0  0  0  0  0
  180.2350  179.3880  141.9820 C   0  0  1  0  0  3  0  0  0  0  0  0
  180.9270  178.8580  143.1660 N   0  0  0  0  0  2  0  0  0  0  0  0
  180.1550  179.1600  139.5640 O   0  0  0  0  0  0  0  0  0  0  0  0
  181.9180  180.2490  138.5340 O   0  0  0  0  0  0  0  0  0  0  0  0
  181.8300  177.8600  140.7630 C   0  0  2  0  0  3  0  0  0  0  0  0
  182.4640  178.6070  138.2550 P   0  0  1  0  0  4  0  0  0  0  0  0
  183.2180  178.0350  141.9400 S   0  0  0  0  0  0  0  0  0  0  0  0
  182.3550  179.1690  143.1060 C   0  0  2  0  0  3  0  0  0  0  0  0
  180.8540  179.4440  138.3500 C   0  0  0  0  0  2  0  0  0  0  0  0
  182.3020  177.3420  139.4700 N   0  0  0  0  0  2  0  0  0  0  0  0
  182.6040  178.1400  136.8250 O   0  0  0  0  0  0  0  0  0  0  0  0
  187.7500  175.4460  143.3450 O   0  0  0  0  0  1  0  0  0  0  0  0
  188.8450  176.3100  143.3870 C   0  0  1  0  0  3  0  0  0  0  0  0
  189.2310  176.6900  142.0240 C   0  0  0  0  0  0  0  0  0  0  0  0
  189.5380  177.0050  140.9010 C   0  0  0  0  0  0  0  0  0  0  0  0
  189.5310  176.9640  136.6380 C   0  0  0  0  0  2  0  0  0  0  0  0
  189.9000  177.3890  139.5370 C   0  0  1  0  0  0  0  0  0  0  0  0
  190.7930  176.4860  137.3550 C   0  0  1  0  0  3  0  0  0  0  0  0
  188.6480  177.8650  138.8000 C   0  0  0  0  0  2  0  0  0  0  0  0
  190.8310  178.4130  139.5940 F   0  0  0  0  0  0  0  0  0  0  0  0
  188.9590  178.1920  137.3390 C   0  0  2  0  0  3  0  0  0  0  0  0
  190.5090  176.1790  138.8270 C   0  0  0  0  0  2  0  0  0  0  0  0
  187.6990  178.6380  136.6240 C   0  0  0  0  0  2  0  0  0  0  0  0
  187.2720  177.6430  135.7430 O   0  0  0  0  0  1  0  0  0  0  0  0
  191.4130  175.2830  136.6510 C   0  0  0  0  0  2  0  0  0  0  0  0
  192.4540  175.7660  135.2340 S   0  0  0  0  0  0  0  0  0  0  0  0
  193.9450  175.0990  136.0210 C   0  0  0  0  0  2  0  0  0  0  0  0
  193.7690  175.1170  137.5250 C   0  0  0  0  0  2  0  0  0  0  0  0
  195.0650  174.9860  138.1640 N   0  0  0  0  0  2  0  0  0  0  0  0
  195.9230  174.2630  137.2400 C   0  0  0  0  0  2  0  0  0  0  0  0
  197.5750  175.0550  138.7580 O   0  0  0  0  0  1  0  0  0  0  0  0
  197.3680  174.6940  137.4260 C   0  0  0  0  0  3  0  0  0  0  0  0
  197.6460  175.7860  136.6030 O   0  0  0  0  0  1  0  0  0  0  0  0
  1 29  1  1  0  0  0
  1 11  1  0  0  0  0
  1  7  1  0  0  0  0
  2  3  1  0  0  0  0
  3  6  2  0  0  0  0
  4  5  2  0  0  0  0
  5  6  1  0  0  0  0
  7  2  2  0  0  0  0
  7  4  1  0  0  0  0
  9 12  2  0  0  0  0
  9 11  1  0  0  0  0
 10  8  1  0  0  0  0
 11 10  2  0  0  0  0
 12 13  1  0  0  0  0
 13 14  1  0  0  0  0
 13  8  2  0  0  0  0
 16 19  1  6  0  0  0
 16 21  1  0  0  0  0
 16 17  1  0  0  0  0
 17 15  1  1  0  0  0
 17 18  1  0  0  0  0
 21 26  1  6  0  0  0
 21 23  1  0  0  0  0
 22 27  2  6  0  0  0
 22 20  1  0  0  0  0
 22 26  1  0  0  0  0
 23 24  1  0  0  0  0
 24 18  1  0  0  0  0
 24 14  1  1  0  0  0
 25 20  1  0  0  0  0
 25 19  1  0  0  0  0
 29 28  1  6  0  0  0
 30 29  1  0  0  0  0
 31 30  3  0  0  0  0
 32 37  1  0  0  0  0
 32 34  1  0  0  0  0
 33 36  1  1  0  0  0
 33 31  1  0  0  0  0
 34 41  1  6  0  0  0
 34 38  1  0  0  0  0
 35 33  1  0  0  0  0
 37 39  1  6  0  0  0
 37 35  1  0  0  0  0
 38 33  1  0  0  0  0
 40 39  1  0  0  0  0
 42 43  1  0  0  0  0
 42 41  1  0  0  0  0
 43 44  1  0  0  0  0
 44 45  1  0  0  0  0
 46 48  1  0  0  0  0
 46 45  1  0  0  0  0
 48 47  1  0  0  0  0
 49 48  1  0  0  0  0
M  END
>  <MODEL>
9

>  <REMARK>
 VINA RESULT:      -7.3      2.153      2.745
  Name = 
  15 active torsions:
  status: ('A' for Active; 'I' for Inactive)
    1  A    between atoms: N_2  and  C_6
    2  A    between atoms: N_2  and  C_21
    3  A    between atoms: S_3  and  C_23
    4  A    between atoms: S_3  and  C_34
    5  A    between atoms: C_6  and  C_34
    6  A    between atoms: C_8  and  C_40
    7  A    between atoms: C_11  and  C_23
    8  A    between atoms: C_17  and  C_43
    9  A    between atoms: C_19  and  C_47
   10  A    between atoms: C_20  and  C_45
   11  A    between atoms: C_21  and  C_24
   12  A    between atoms: C_28  and  C_31
   13  A    between atoms: C_28  and  C_38
   14  A    between atoms: C_42  and  C_47
   15  A    between atoms: C_45  and  C_47
                            x       y       z     vdW  Elec       q    Type
                         _______ _______ _______ _____ _____    ______ ____

>  <TORSDO>
F 15

$$$$
