=
 OpenBabel10232408383D

 28 31  0  0  1  0  0  0  0  0999 V2000
  190.7470  176.5850  145.1940 O   0  0  0  0  0  0  0  0  0  0  0  0
  186.6370  177.8140  145.3040 C   0  0  2  0  0  3  0  0  0  0  0  0
  188.8880  177.5460  142.1920 C   0  0  0  0  0  1  0  0  0  0  0  0
  186.8250  177.9850  146.8000 C   0  0  0  0  0  0  0  0  0  0  0  0
  189.9300  176.2420  147.8440 O   0  0  0  0  0  1  0  0  0  0  0  0
  187.6920  177.1660  144.6190 O   0  0  0  0  0  0  0  0  0  0  0  0
  189.6930  177.8390  143.4500 C   0  0  0  0  0  0  0  0  0  0  0  0
  188.8490  177.9720  144.6910 C   0  0  2  0  0  3  0  0  0  0  0  0
  189.7830  177.4390  145.7730 C   0  0  1  0  0  3  0  0  0  0  0  0
  191.8320  176.7270  143.1680 O   0  0  0  0  0  1  0  0  0  0  0  0
  190.4810  179.1270  143.2490 C   0  0  0  0  0  1  0  0  0  0  0  0
  188.2200  178.0760  148.8670 C   0  0  0  0  0  1  0  0  0  0  0  0
  185.8660  178.4750  147.4570 O   0  0  0  0  0  0  0  0  0  0  0  0
  190.5860  176.6590  143.7980 C   0  0  1  0  0  3  0  0  0  0  0  0
  188.0350  177.6120  147.4950 N   0  0  0  0  0  0  0  0  0  0  0  0
  189.0260  176.7190  146.8880 C   0  0  2  0  0  3  0  0  0  0  0  0
  186.1780  179.1060  144.6200 C   0  0  0  0  0  2  0  0  0  0  0  0
  183.8580  178.3140  141.9140 C   0  0  0  0  0  0  0  0  0  0  0  0
  179.9820  177.8650  139.7000 N   0  0  0  0  0  1  0  0  0  0  0  0
  183.5610  177.8900  140.6370 C   0  0  0  0  0  3  0  0  0  0  0  0
  180.8010  178.5430  141.8240 N   0  0  0  0  0  0  0  0  0  0  0  0
  181.0810  178.0790  140.5760 C   0  0  0  0  0  0  0  0  0  0  0  0
  182.3230  177.8050  140.0960 N   0  0  0  0  0  0  0  0  0  0  0  0
  185.0190  178.8530  143.7180 C   0  0  0  0  0  0  0  0  0  0  0  0
  181.5770  178.8520  142.8880 C   0  0  0  0  0  3  0  0  0  0  0  0
  182.9500  178.7550  142.9440 C   0  0  0  0  0  0  0  0  0  0  0  0
  183.6960  179.0890  144.0520 C   0  0  0  0  0  3  0  0  0  0  0  0
  185.1370  178.3880  142.4190 C   0  0  0  0  0  3  0  0  0  0  0  0
  2 17  1  6  0  0  0
  2  4  1  0  0  0  0
  3  7  1  0  0  0  0
  4 13  2  0  0  0  0
  4 15  1  0  0  0  0
  6  2  1  0  0  0  0
  7 14  1  0  0  0  0
  7  8  1  0  0  0  0
  8  6  1  6  0  0  0
  8  9  1  0  0  0  0
  9  1  1  6  0  0  0
  9 16  1  0  0  0  0
 11  7  1  0  0  0  0
 14 10  1  6  0  0  0
 14  1  1  0  0  0  0
 15 12  1  0  0  0  0
 16 15  1  0  0  0  0
 16  5  1  1  0  0  0
 18 28  2  0  0  0  0
 18 26  1  0  0  0  0
 19 22  1  0  0  0  0
 20 18  1  0  0  0  0
 21 25  1  0  0  0  0
 22 21  2  0  0  0  0
 23 22  1  0  0  0  0
 23 20  2  0  0  0  0
 24 27  2  0  0  0  0
 24 17  1  0  0  0  0
 25 26  2  0  0  0  0
 26 27  1  0  0  0  0
 28 24  1  0  0  0  0
M  END
>  <MODEL>
1

>  <REMARK>
 VINA RESULT:      -8.9      0.000      0.000
  Name = 
  2 active torsions:
  status: ('A' for Active; 'I' for Inactive)
    1  A    between atoms: C_2  and  C_3
    2  A    between atoms: C_3  and  C_22
                            x       y       z     vdW  Elec       q    Type
                         _______ _______ _______ _____ _____    ______ ____

>  <TORSDO>
F 2

$$$$
=
 OpenBabel10232408383D

 28 31  0  0  1  0  0  0  0  0999 V2000
  189.6550  177.1520  146.0060 O   0  0  0  0  0  0  0  0  0  0  0  0
  187.9070  177.5040  142.1040 C   0  0  2  0  0  3  0  0  0  0  0  0
  191.6440  177.1000  142.9350 C   0  0  0  0  0  1  0  0  0  0  0  0
  186.6580  178.0010  142.8100 C   0  0  0  0  0  0  0  0  0  0  0  0
  186.8920  177.1760  146.4200 O   0  0  0  0  0  1  0  0  0  0  0  0
  188.9150  176.9660  142.9370 O   0  0  0  0  0  0  0  0  0  0  0  0
  190.8860  177.7930  144.0580 C   0  0  0  0  0  0  0  0  0  0  0  0
  189.4210  177.9910  143.7660 C   0  0  2  0  0  3  0  0  0  0  0  0
  188.8000  177.8850  145.1550 C   0  0  1  0  0  3  0  0  0  0  0  0
  191.9550  177.1140  146.1280 O   0  0  0  0  0  1  0  0  0  0  0  0
  191.5230  179.1520  144.3240 C   0  0  0  0  0  1  0  0  0  0  0  0
  185.4080  178.7820  144.8220 C   0  0  0  0  0  1  0  0  0  0  0  0
  185.7020  178.4020  142.0920 O   0  0  0  0  0  0  0  0  0  0  0  0
  190.8470  176.9160  145.2970 C   0  0  1  0  0  3  0  0  0  0  0  0
  186.5180  178.0300  144.2470 N   0  0  0  0  0  0  0  0  0  0  0  0
  187.4070  177.2580  145.1210 C   0  0  2  0  0  3  0  0  0  0  0  0
  188.4430  178.5130  141.0830 C   0  0  0  0  0  2  0  0  0  0  0  0
  190.3180  176.8920  138.4010 C   0  0  0  0  0  0  0  0  0  0  0  0
  191.1610  174.9390  134.4510 N   0  0  0  0  0  1  0  0  0  0  0  0
  191.4750  176.4090  137.8320 C   0  0  0  0  0  3  0  0  0  0  0  0
  189.3480  175.8530  135.6840 N   0  0  0  0  0  0  0  0  0  0  0  0
  190.6770  175.5670  135.6310 C   0  0  0  0  0  0  0  0  0  0  0  0
  191.5810  175.8350  136.6110 N   0  0  0  0  0  0  0  0  0  0  0  0
  188.9390  177.8250  139.8570 C   0  0  0  0  0  0  0  0  0  0  0  0
  188.5660  176.4330  136.6230 C   0  0  0  0  0  2  0  0  0  0  0  0
  188.9860  176.9040  137.8470 C   0  0  0  0  0  0  0  0  0  0  0  0
  188.1490  177.4930  138.7680 C   0  0  0  0  0  3  0  0  0  0  0  0
  190.2610  177.4740  139.6480 C   0  0  0  0  0  2  0  0  0  0  0  0
  2 17  1  1  0  0  0
  2  4  1  0  0  0  0
  2  6  1  0  0  0  0
  3  7  1  0  0  0  0
  4 15  1  0  0  0  0
  7 11  1  0  0  0  0
  7 14  1  0  0  0  0
  8  6  1  6  0  0  0
  8  7  1  0  0  0  0
  8  9  1  0  0  0  0
  9  1  1  1  0  0  0
 13  4  2  0  0  0  0
 14  1  1  0  0  0  0
 14 10  1  1  0  0  0
 15 12  1  0  0  0  0
 15 16  1  0  0  0  0
 16  9  1  0  0  0  0
 16  5  1  1  0  0  0
 18 28  1  0  0  0  0
 19 22  1  0  0  0  0
 20 18  1  0  0  0  0
 21 25  1  0  0  0  0
 22 21  2  0  0  0  0
 22 23  1  0  0  0  0
 23 20  2  0  0  0  0
 24 17  1  0  0  0  0
 25 26  1  0  0  0  0
 26 18  2  0  0  0  0
 26 27  1  0  0  0  0
 27 24  2  0  0  0  0
 28 24  1  0  0  0  0
M  END
>  <MODEL>
2

>  <REMARK>
 VINA RESULT:      -8.8      4.300      6.188
  Name = 
  2 active torsions:
  status: ('A' for Active; 'I' for Inactive)
    1  A    between atoms: C_2  and  C_3
    2  A    between atoms: C_3  and  C_22
                            x       y       z     vdW  Elec       q    Type
                         _______ _______ _______ _____ _____    ______ ____

>  <TORSDO>
F 2

$$$$
=
 OpenBabel10232408383D

 28 31  0  0  1  0  0  0  0  0999 V2000
  189.6590  177.1800  146.1260 O   0  0  0  0  0  0  0  0  0  0  0  0
  187.9510  177.3930  142.1960 C   0  0  2  0  0  3  0  0  0  0  0  0
  191.6720  176.9540  143.0780 C   0  0  0  0  0  1  0  0  0  0  0  0
  186.7060  177.9440  142.8680 C   0  0  0  0  0  0  0  0  0  0  0  0
  186.8940  177.2750  146.5130 O   0  0  0  0  0  1  0  0  0  0  0  0
  188.9410  176.8730  143.0610 O   0  0  0  0  0  0  0  0  0  0  0  0
  190.9190  177.7110  144.1620 C   0  0  0  0  0  0  0  0  0  0  0  0
  189.4600  177.9240  143.8490 C   0  0  2  0  0  3  0  0  0  0  0  0
  188.8260  177.8910  145.2360 C   0  0  1  0  0  3  0  0  0  0  0  0
  191.9570  177.1030  146.2700 O   0  0  0  0  0  1  0  0  0  0  0  0
  191.5800  179.0670  144.3740 C   0  0  0  0  0  1  0  0  0  0  0  0
  185.4550  178.8380  144.8330 C   0  0  0  0  0  1  0  0  0  0  0  0
  185.7640  178.3310  142.1240 O   0  0  0  0  0  0  0  0  0  0  0  0
  190.8520  176.8900  145.4380 C   0  0  1  0  0  3  0  0  0  0  0  0
  186.5550  178.0390  144.3010 N   0  0  0  0  0  0  0  0  0  0  0  0
  187.4220  177.2900  145.2160 C   0  0  2  0  0  3  0  0  0  0  0  0
  188.5150  178.3460  141.1370 C   0  0  0  0  0  2  0  0  0  0  0  0
  188.9660  176.6850  137.9160 C   0  0  0  0  0  0  0  0  0  0  0  0
  190.8790  174.2240  134.6900 N   0  0  0  0  0  1  0  0  0  0  0  0
  188.5500  176.3230  136.6540 C   0  0  0  0  0  3  0  0  0  0  0  0
  191.3160  175.0030  136.8900 N   0  0  0  0  0  0  0  0  0  0  0  0
  190.4630  174.9610  135.8320 C   0  0  0  0  0  0  0  0  0  0  0  0
  189.2450  175.5630  135.7750 N   0  0  0  0  0  0  0  0  0  0  0  0
  188.9710  177.5980  139.9300 C   0  0  0  0  0  0  0  0  0  0  0  0
  191.2480  175.5920  138.1070 C   0  0  0  0  0  2  0  0  0  0  0  0
  190.2010  176.3500  138.5810 C   0  0  0  0  0  0  0  0  0  0  0  0
  190.1770  176.9240  139.8320 C   0  0  0  0  0  3  0  0  0  0  0  0
  188.2180  177.4570  138.7770 C   0  0  0  0  0  2  0  0  0  0  0  0
  2 17  1  1  0  0  0
  2  4  1  0  0  0  0
  2  6  1  0  0  0  0
  3  7  1  0  0  0  0
  4 15  1  0  0  0  0
  7 11  1  0  0  0  0
  7 14  1  0  0  0  0
  8  6  1  6  0  0  0
  8  7  1  0  0  0  0
  8  9  1  0  0  0  0
  9  1  1  1  0  0  0
 13  4  2  0  0  0  0
 14  1  1  0  0  0  0
 14 10  1  1  0  0  0
 15 12  1  0  0  0  0
 15 16  1  0  0  0  0
 16  9  1  0  0  0  0
 16  5  1  1  0  0  0
 18 26  2  0  0  0  0
 18 28  1  0  0  0  0
 19 22  1  0  0  0  0
 20 18  1  0  0  0  0
 21 25  1  0  0  0  0
 22 21  2  0  0  0  0
 23 22  1  0  0  0  0
 23 20  2  0  0  0  0
 24 17  1  0  0  0  0
 25 26  1  0  0  0  0
 26 27  1  0  0  0  0
 27 24  2  0  0  0  0
 28 24  1  0  0  0  0
M  END
>  <MODEL>
3

>  <REMARK>
 VINA RESULT:      -8.8      4.249      6.187
  Name = 
  2 active torsions:
  status: ('A' for Active; 'I' for Inactive)
    1  A    between atoms: C_2  and  C_3
    2  A    between atoms: C_3  and  C_22
                            x       y       z     vdW  Elec       q    Type
                         _______ _______ _______ _____ _____    ______ ____

>  <TORSDO>
F 2

$$$$
=
 OpenBabel10232408383D

 28 31  0  0  1  0  0  0  0  0999 V2000
  190.5720  176.5370  145.1770 O   0  0  0  0  0  0  0  0  0  0  0  0
  186.5000  177.8680  145.4180 C   0  0  2  0  0  3  0  0  0  0  0  0
  188.6570  177.5890  142.2420 C   0  0  0  0  0  1  0  0  0  0  0  0
  186.7330  178.0110  146.9110 C   0  0  0  0  0  0  0  0  0  0  0  0
  189.8200  176.1750  147.8440 O   0  0  0  0  0  1  0  0  0  0  0  0
  187.5180  177.2040  144.6950 O   0  0  0  0  0  0  0  0  0  0  0  0
  189.5040  177.8430  143.4800 C   0  0  0  0  0  0  0  0  0  0  0  0
  188.6970  177.9790  144.7470 C   0  0  2  0  0  3  0  0  0  0  0  0
  189.6470  177.4060  145.7940 C   0  0  1  0  0  3  0  0  0  0  0  0
  191.6050  176.6820  143.1230 O   0  0  0  0  0  1  0  0  0  0  0  0
  190.3180  179.1140  143.2760 C   0  0  0  0  0  1  0  0  0  0  0  0
  188.1860  178.0360  148.9390 C   0  0  0  0  0  1  0  0  0  0  0  0
  185.8050  178.5160  147.6010 O   0  0  0  0  0  0  0  0  0  0  0  0
  190.3740  176.6360  143.7870 C   0  0  1  0  0  3  0  0  0  0  0  0
  187.9510  177.5980  147.5670 N   0  0  0  0  0  0  0  0  0  0  0  0
  188.9020  176.6890  146.9190 C   0  0  2  0  0  3  0  0  0  0  0  0
  186.0560  179.1810  144.7660 C   0  0  0  0  0  2  0  0  0  0  0  0
  182.8750  178.7880  143.0150 C   0  0  0  0  0  0  0  0  0  0  0  0
  179.9840  177.8410  139.7180 N   0  0  0  0  0  1  0  0  0  0  0  0
  181.5000  178.8270  142.9460 C   0  0  0  0  0  3  0  0  0  0  0  0
  182.3200  177.8750  140.1410 N   0  0  0  0  0  0  0  0  0  0  0  0
  181.0620  178.0860  140.6120 C   0  0  0  0  0  0  0  0  0  0  0  0
  180.7490  178.5080  141.8660 N   0  0  0  0  0  0  0  0  0  0  0  0
  184.9310  178.9540  143.8140 C   0  0  0  0  0  0  0  0  0  0  0  0
  183.5470  178.0010  140.6980 C   0  0  0  0  0  2  0  0  0  0  0  0
  183.8110  178.4100  141.9860 C   0  0  0  0  0  0  0  0  0  0  0  0
  185.0810  178.5160  142.5090 C   0  0  0  0  0  3  0  0  0  0  0  0
  183.5960  179.1180  144.1410 C   0  0  0  0  0  2  0  0  0  0  0  0
  2 17  1  6  0  0  0
  2  4  1  0  0  0  0
  3  7  1  0  0  0  0
  4 15  1  0  0  0  0
  4 13  2  0  0  0  0
  6  2  1  0  0  0  0
  7 14  1  0  0  0  0
  7  8  1  0  0  0  0
  8  6  1  6  0  0  0
  8  9  1  0  0  0  0
  9  1  1  6  0  0  0
  9 16  1  0  0  0  0
 11  7  1  0  0  0  0
 14 10  1  6  0  0  0
 14  1  1  0  0  0  0
 15 12  1  0  0  0  0
 16 15  1  0  0  0  0
 16  5  1  1  0  0  0
 18 28  1  0  0  0  0
 19 22  1  0  0  0  0
 20 18  1  0  0  0  0
 21 22  2  0  0  0  0
 21 25  1  0  0  0  0
 22 23  1  0  0  0  0
 23 20  2  0  0  0  0
 24 28  1  0  0  0  0
 24 17  1  0  0  0  0
 25 26  1  0  0  0  0
 26 27  1  0  0  0  0
 26 18  2  0  0  0  0
 27 24  2  0  0  0  0
M  END
>  <MODEL>
4

>  <REMARK>
 VINA RESULT:      -8.7      0.154      1.293
  Name = 
  2 active torsions:
  status: ('A' for Active; 'I' for Inactive)
    1  A    between atoms: C_2  and  C_3
    2  A    between atoms: C_3  and  C_22
                            x       y       z     vdW  Elec       q    Type
                         _______ _______ _______ _____ _____    ______ ____

>  <TORSDO>
F 2

$$$$
=
 OpenBabel10232408383D

 28 31  0  0  1  0  0  0  0  0999 V2000
  190.5490  176.5710  145.2700 O   0  0  0  0  0  0  0  0  0  0  0  0
  186.4790  177.9100  145.0460 C   0  0  2  0  0  3  0  0  0  0  0  0
  188.9790  177.6140  142.1340 C   0  0  0  0  0  1  0  0  0  0  0  0
  186.5430  178.0590  146.5550 C   0  0  0  0  0  0  0  0  0  0  0  0
  189.5000  176.2210  147.8370 O   0  0  0  0  0  1  0  0  0  0  0  0
  187.5710  177.2410  144.4440 O   0  0  0  0  0  0  0  0  0  0  0  0
  189.6820  177.8710  143.4590 C   0  0  0  0  0  0  0  0  0  0  0  0
  188.7380  178.0140  144.6260 C   0  0  2  0  0  3  0  0  0  0  0  0
  189.5620  177.4440  145.7760 C   0  0  1  0  0  3  0  0  0  0  0  0
  191.8070  176.7060  143.3450 O   0  0  0  0  0  1  0  0  0  0  0  0
  190.5170  179.1400  143.3430 C   0  0  0  0  0  1  0  0  0  0  0  0
  187.7580  178.0910  148.7340 C   0  0  0  0  0  1  0  0  0  0  0  0
  185.5440  178.5680  147.1340 O   0  0  0  0  0  0  0  0  0  0  0  0
  190.5100  176.6650  143.8670 C   0  0  1  0  0  3  0  0  0  0  0  0
  187.6780  177.6470  147.3450 N   0  0  0  0  0  0  0  0  0  0  0  0
  188.6940  176.7330  146.8130 C   0  0  2  0  0  3  0  0  0  0  0  0
  186.1140  179.2210  144.3430 C   0  0  0  0  0  2  0  0  0  0  0  0
  184.7870  178.8020  140.9660 C   0  0  0  0  0  0  0  0  0  0  0  0
  181.8450  177.9820  137.6800 N   0  0  0  0  0  1  0  0  0  0  0  0
  184.8980  178.8240  139.5930 C   0  0  0  0  0  3  0  0  0  0  0  0
  181.9640  178.0300  140.0520 N   0  0  0  0  0  0  0  0  0  0  0  0
  182.6050  178.1950  138.8630 C   0  0  0  0  0  0  0  0  0  0  0  0
  183.9080  178.5490  138.7110 N   0  0  0  0  0  0  0  0  0  0  0  0
  185.3200  178.9640  143.1060 C   0  0  0  0  0  0  0  0  0  0  0  0
  182.3630  178.1480  141.3390 C   0  0  0  0  0  2  0  0  0  0  0  0
  183.6270  178.4940  141.7640 C   0  0  0  0  0  0  0  0  0  0  0  0
  183.9820  178.6070  143.0900 C   0  0  0  0  0  3  0  0  0  0  0  0
  185.8240  179.0950  141.8240 C   0  0  0  0  0  2  0  0  0  0  0  0
  2 17  1  6  0  0  0
  2  4  1  0  0  0  0
  3  7  1  0  0  0  0
  4 13  2  0  0  0  0
  4 15  1  0  0  0  0
  6  2  1  0  0  0  0
  7 14  1  0  0  0  0
  7  8  1  0  0  0  0
  8  6  1  6  0  0  0
  8  9  1  0  0  0  0
  9  1  1  6  0  0  0
  9 16  1  0  0  0  0
 11  7  1  0  0  0  0
 14 10  1  1  0  0  0
 14  1  1  0  0  0  0
 15 12  1  0  0  0  0
 16 15  1  0  0  0  0
 16  5  1  1  0  0  0
 18 26  2  0  0  0  0
 18 28  1  0  0  0  0
 19 22  1  0  0  0  0
 20 18  1  0  0  0  0
 21 25  1  0  0  0  0
 22 21  2  0  0  0  0
 23 22  1  0  0  0  0
 23 20  2  0  0  0  0
 24 17  1  0  0  0  0
 25 26  1  0  0  0  0
 26 27  1  0  0  0  0
 27 24  2  0  0  0  0
 28 24  1  0  0  0  0
M  END
>  <MODEL>
5

>  <REMARK>
 VINA RESULT:      -8.2      0.994      1.169
  Name = 
  2 active torsions:
  status: ('A' for Active; 'I' for Inactive)
    1  A    between atoms: C_2  and  C_3
    2  A    between atoms: C_3  and  C_22
                            x       y       z     vdW  Elec       q    Type
                         _______ _______ _______ _____ _____    ______ ____

>  <TORSDO>
F 2

$$$$
=
 OpenBabel10232408383D

 28 31  0  0  1  0  0  0  0  0999 V2000
  188.8940  176.3340  135.6880 O   0  0  0  0  0  0  0  0  0  0  0  0
  189.4500  176.9470  139.8980 C   0  0  2  0  0  3  0  0  0  0  0  0
  186.2310  177.5600  137.8780 C   0  0  0  0  0  1  0  0  0  0  0  0
  190.9400  176.8670  139.6180 C   0  0  0  0  0  0  0  0  0  0  0  0
  191.4690  175.4070  136.2480 O   0  0  0  0  0  1  0  0  0  0  0  0
  188.6000  176.5850  138.8270 O   0  0  0  0  0  0  0  0  0  0  0  0
  187.4770  177.7270  137.0210 C   0  0  0  0  0  0  0  0  0  0  0  0
  188.7640  177.5150  137.7770 C   0  0  2  0  0  3  0  0  0  0  0  0
  189.6740  176.9280  136.7030 C   0  0  1  0  0  3  0  0  0  0  0  0
  186.8770  176.9900  134.7880 O   0  0  0  0  0  1  0  0  0  0  0  0
  187.4840  179.1260  136.4190 C   0  0  0  0  0  1  0  0  0  0  0  0
  192.9100  176.7720  138.0900 C   0  0  0  0  0  1  0  0  0  0  0  0
  191.7270  177.0930  140.5770 O   0  0  0  0  0  0  0  0  0  0  0  0
  187.5480  176.6380  135.9640 C   0  0  1  0  0  3  0  0  0  0  0  0
  191.4870  176.5440  138.3210 N   0  0  0  0  0  0  0  0  0  0  0  0
  190.6700  175.9210  137.2760 C   0  0  2  0  0  3  0  0  0  0  0  0
  189.0500  178.2660  140.5670 C   0  0  0  0  0  2  0  0  0  0  0  0
  187.8240  177.7590  143.9690 C   0  0  0  0  0  0  0  0  0  0  0  0
  187.8650  177.4140  148.4410 N   0  0  0  0  0  1  0  0  0  0  0  0
  186.8290  177.5220  144.8910 C   0  0  0  0  0  3  0  0  0  0  0  0
  189.3490  177.8030  146.6290 N   0  0  0  0  0  0  0  0  0  0  0  0
  188.0760  177.5580  147.0430 C   0  0  0  0  0  0  0  0  0  0  0  0
  186.9910  177.4430  146.2330 N   0  0  0  0  0  0  0  0  0  0  0  0
  188.8400  178.0830  142.0320 C   0  0  0  0  0  0  0  0  0  0  0  0
  189.9010  177.9920  145.4080 C   0  0  0  0  0  3  0  0  0  0  0  0
  189.2300  177.9750  144.2060 C   0  0  0  0  0  0  0  0  0  0  0  0
  189.8380  178.1790  142.9870 C   0  0  0  0  0  3  0  0  0  0  0  0
  187.6080  177.8350  142.6110 C   0  0  0  0  0  3  0  0  0  0  0  0
  1 14  1  0  0  0  0
  2 17  1  6  0  0  0
  4  2  1  0  0  0  0
  4 13  2  0  0  0  0
  6  2  1  0  0  0  0
  7  8  1  0  0  0  0
  7  3  1  0  0  0  0
  8  6  1  1  0  0  0
  9  1  1  6  0  0  0
  9 16  1  0  0  0  0
  9  8  1  0  0  0  0
 11  7  1  0  0  0  0
 12 15  1  0  0  0  0
 14 10  1  6  0  0  0
 14  7  1  0  0  0  0
 15  4  1  0  0  0  0
 16  5  1  6  0  0  0
 16 15  1  0  0  0  0
 17 24  1  0  0  0  0
 18 26  1  0  0  0  0
 18 20  1  0  0  0  0
 20 23  2  0  0  0  0
 21 22  2  0  0  0  0
 22 19  1  0  0  0  0
 23 22  1  0  0  0  0
 24 28  1  0  0  0  0
 24 27  2  0  0  0  0
 25 21  1  0  0  0  0
 26 25  2  0  0  0  0
 27 26  1  0  0  0  0
 28 18  2  0  0  0  0
M  END
>  <MODEL>
6

>  <REMARK>
 VINA RESULT:      -7.7      4.626      8.143
  Name = 
  2 active torsions:
  status: ('A' for Active; 'I' for Inactive)
    1  A    between atoms: C_2  and  C_3
    2  A    between atoms: C_3  and  C_22
                            x       y       z     vdW  Elec       q    Type
                         _______ _______ _______ _____ _____    ______ ____

>  <TORSDO>
F 2

$$$$
=
 OpenBabel10232408383D

 28 31  0  0  1  0  0  0  0  0999 V2000
  190.0550  177.0100  146.1760 O   0  0  0  0  0  0  0  0  0  0  0  0
  187.4950  177.7030  142.8030 C   0  0  2  0  0  3  0  0  0  0  0  0
  191.3320  177.4030  142.7700 C   0  0  0  0  0  1  0  0  0  0  0  0
  186.4160  178.0520  143.8130 C   0  0  0  0  0  0  0  0  0  0  0  0
  187.4470  176.8430  147.1660 O   0  0  0  0  0  1  0  0  0  0  0  0
  188.6740  177.1280  143.3340 O   0  0  0  0  0  0  0  0  0  0  0  0
  190.8180  177.9270  144.1020 C   0  0  0  0  0  0  0  0  0  0  0  0
  189.3190  178.0800  144.1540 C   0  0  2  0  0  3  0  0  0  0  0  0
  189.0170  177.7880  145.6200 C   0  0  1  0  0  3  0  0  0  0  0  0
  192.3270  177.0780  145.8020 O   0  0  0  0  0  1  0  0  0  0  0  0
  191.4600  179.2780  144.3880 C   0  0  0  0  0  1  0  0  0  0  0  0
  185.6110  178.5390  146.1230 C   0  0  0  0  0  1  0  0  0  0  0  0
  185.3170  178.4810  143.3670 O   0  0  0  0  0  0  0  0  0  0  0  0
  191.0720  176.9160  145.2070 C   0  0  1  0  0  3  0  0  0  0  0  0
  186.5900  177.9140  145.2390 N   0  0  0  0  0  0  0  0  0  0  0  0
  187.6670  177.0970  145.8070 C   0  0  2  0  0  3  0  0  0  0  0  0
  187.7700  178.8460  141.8210 C   0  0  0  0  0  2  0  0  0  0  0  0
  189.0940  177.5830  138.6610 C   0  0  0  0  0  0  0  0  0  0  0  0
  189.1720  176.1710  134.4040 N   0  0  0  0  0  1  0  0  0  0  0  0
  190.1180  177.1690  137.8390 C   0  0  0  0  0  3  0  0  0  0  0  0
  187.6330  176.9280  136.0460 N   0  0  0  0  0  0  0  0  0  0  0  0
  188.9220  176.6390  135.7230 C   0  0  0  0  0  0  0  0  0  0  0  0
  189.9910  176.7640  136.5530 N   0  0  0  0  0  0  0  0  0  0  0  0
  188.0210  178.3240  140.4470 C   0  0  0  0  0  0  0  0  0  0  0  0
  187.0460  177.3830  137.1770 C   0  0  0  0  0  2  0  0  0  0  0  0
  187.6880  177.6810  138.3580 C   0  0  0  0  0  0  0  0  0  0  0  0
  187.0440  178.1500  139.4820 C   0  0  0  0  0  3  0  0  0  0  0  0
  189.2750  177.9920  139.9640 C   0  0  0  0  0  2  0  0  0  0  0  0
  2 17  1  1  0  0  0
  2  6  1  0  0  0  0
  2  4  1  0  0  0  0
  3  7  1  0  0  0  0
  4 15  1  0  0  0  0
  7  8  1  0  0  0  0
  7 11  1  0  0  0  0
  7 14  1  0  0  0  0
  8  6  1  6  0  0  0
  8  9  1  0  0  0  0
  9 16  1  0  0  0  0
  9  1  1  6  0  0  0
 13  4  2  0  0  0  0
 14 10  1  1  0  0  0
 14  1  1  0  0  0  0
 15 16  1  0  0  0  0
 15 12  1  0  0  0  0
 16  5  1  1  0  0  0
 18 28  1  0  0  0  0
 19 22  1  0  0  0  0
 20 18  1  0  0  0  0
 21 25  1  0  0  0  0
 22 21  2  0  0  0  0
 22 23  1  0  0  0  0
 23 20  2  0  0  0  0
 24 17  1  0  0  0  0
 25 26  1  0  0  0  0
 26 18  2  0  0  0  0
 26 27  1  0  0  0  0
 27 24  2  0  0  0  0
 28 24  1  0  0  0  0
M  END
>  <MODEL>
7

>  <REMARK>
 VINA RESULT:      -7.7      3.716      5.120
  Name = 
  2 active torsions:
  status: ('A' for Active; 'I' for Inactive)
    1  A    between atoms: C_2  and  C_3
    2  A    between atoms: C_3  and  C_22
                            x       y       z     vdW  Elec       q    Type
                         _______ _______ _______ _____ _____    ______ ____

>  <TORSDO>
F 2

$$$$
=
 OpenBabel10232408383D

 28 31  0  0  1  0  0  0  0  0999 V2000
  188.7900  175.5200  135.4590 O   0  0  0  0  0  0  0  0  0  0  0  0
  189.1040  176.9460  139.4940 C   0  0  2  0  0  3  0  0  0  0  0  0
  185.9870  177.0610  137.2380 C   0  0  0  0  0  1  0  0  0  0  0  0
  190.6080  176.8600  139.3080 C   0  0  0  0  0  0  0  0  0  0  0  0
  191.3500  174.7970  136.3150 O   0  0  0  0  0  1  0  0  0  0  0  0
  188.3210  176.3600  138.4720 O   0  0  0  0  0  0  0  0  0  0  0  0
  187.2740  177.0980  136.4270 C   0  0  0  0  0  0  0  0  0  0  0  0
  188.5220  177.0760  137.2720 C   0  0  2  0  0  3  0  0  0  0  0  0
  189.5010  176.3210  136.3780 C   0  0  1  0  0  3  0  0  0  0  0  0
  186.8120  175.9280  134.3520 O   0  0  0  0  0  1  0  0  0  0  0  0
  187.2850  178.3560  135.5670 C   0  0  0  0  0  1  0  0  0  0  0  0
  192.6600  176.5340  137.9270 C   0  0  0  0  0  1  0  0  0  0  0  0
  191.3370  177.2900  140.2430 O   0  0  0  0  0  0  0  0  0  0  0  0
  187.4250  175.8290  135.6050 C   0  0  1  0  0  3  0  0  0  0  0  0
  191.2310  176.3110  138.1270 N   0  0  0  0  0  0  0  0  0  0  0  0
  190.4850  175.4740  137.1830 C   0  0  2  0  0  3  0  0  0  0  0  0
  188.6410  178.3560  139.8740 C   0  0  0  0  0  2  0  0  0  0  0  0
  186.2240  178.6750  142.5930 C   0  0  0  0  0  0  0  0  0  0  0  0
  184.4850  178.4130  146.7200 N   0  0  0  0  0  1  0  0  0  0  0  0
  185.0090  179.0590  143.1150 C   0  0  0  0  0  3  0  0  0  0  0  0
  186.4720  177.8650  145.5400 N   0  0  0  0  0  0  0  0  0  0  0  0
  185.2200  178.3960  145.5030 C   0  0  0  0  0  0  0  0  0  0  0  0
  184.6150  178.9150  144.4020 N   0  0  0  0  0  0  0  0  0  0  0  0
  187.8630  178.3410  141.1460 C   0  0  0  0  0  0  0  0  0  0  0  0
  187.4280  177.6920  144.5990 C   0  0  0  0  0  3  0  0  0  0  0  0
  187.3320  178.0500  143.2730 C   0  0  0  0  0  0  0  0  0  0  0  0
  188.3390  177.8580  142.3540 C   0  0  0  0  0  3  0  0  0  0  0  0
  186.5810  178.8490  141.2740 C   0  0  0  0  0  3  0  0  0  0  0  0
  1 14  1  0  0  0  0
  2 17  1  6  0  0  0
  4  2  1  0  0  0  0
  4 13  2  0  0  0  0
  6  2  1  0  0  0  0
  7  3  1  0  0  0  0
  7  8  1  0  0  0  0
  8  6  1  1  0  0  0
  9  1  1  6  0  0  0
  9 16  1  0  0  0  0
  9  8  1  0  0  0  0
 11  7  1  0  0  0  0
 12 15  1  0  0  0  0
 14 10  1  6  0  0  0
 14  7  1  0  0  0  0
 15  4  1  0  0  0  0
 16  5  1  6  0  0  0
 16 15  1  0  0  0  0
 17 24  1  0  0  0  0
 18 20  1  0  0  0  0
 18 26  1  0  0  0  0
 20 23  2  0  0  0  0
 22 21  2  0  0  0  0
 22 19  1  0  0  0  0
 23 22  1  0  0  0  0
 24 28  1  0  0  0  0
 24 27  2  0  0  0  0
 25 21  1  0  0  0  0
 26 25  2  0  0  0  0
 27 26  1  0  0  0  0
 28 18  2  0  0  0  0
M  END
>  <MODEL>
8

>  <REMARK>
 VINA RESULT:      -7.7      4.988      7.623
  Name = 
  2 active torsions:
  status: ('A' for Active; 'I' for Inactive)
    1  A    between atoms: C_2  and  C_3
    2  A    between atoms: C_3  and  C_22
                            x       y       z     vdW  Elec       q    Type
                         _______ _______ _______ _____ _____    ______ ____

>  <TORSDO>
F 2

$$$$
=
 OpenBabel10232408383D

 28 31  0  0  1  0  0  0  0  0999 V2000
  189.1380  176.0700  135.6870 O   0  0  0  0  0  0  0  0  0  0  0  0
  191.5400  176.3500  139.2310 C   0  0  2  0  0  3  0  0  0  0  0  0
  187.8790  177.4680  138.8250 C   0  0  0  0  0  1  0  0  0  0  0  0
  192.7360  176.1090  138.3270 C   0  0  0  0  0  0  0  0  0  0  0  0
  191.5510  174.8070  135.0600 O   0  0  0  0  0  1  0  0  0  0  0  0
  190.2700  176.1600  138.6380 O   0  0  0  0  0  0  0  0  0  0  0  0
  188.6410  177.5370  137.5100 C   0  0  0  0  0  0  0  0  0  0  0  0
  190.0870  177.1270  137.6260 C   0  0  2  0  0  3  0  0  0  0  0  0
  190.3530  176.5020  136.2600 C   0  0  1  0  0  3  0  0  0  0  0  0
  187.0400  177.0170  135.7620 O   0  0  0  0  0  1  0  0  0  0  0  0
  188.5750  178.9600  136.9700 C   0  0  0  0  0  1  0  0  0  0  0  0
  193.8170  175.8740  136.0900 C   0  0  0  0  0  1  0  0  0  0  0  0
  193.8830  176.1800  138.8460 O   0  0  0  0  0  0  0  0  0  0  0  0
  188.0990  176.5150  136.5250 C   0  0  1  0  0  3  0  0  0  0  0  0
  192.6180  175.8040  136.9200 N   0  0  0  0  0  0  0  0  0  0  0  0
  191.3530  175.3490  136.3360 C   0  0  2  0  0  3  0  0  0  0  0  0
  191.6510  177.6640  140.0110 C   0  0  0  0  0  2  0  0  0  0  0  0
  189.7880  177.4310  143.1430 C   0  0  0  0  0  0  0  0  0  0  0  0
  188.9910  176.9290  147.5290 N   0  0  0  0  0  1  0  0  0  0  0  0
  188.6300  177.4750  143.8880 C   0  0  0  0  0  3  0  0  0  0  0  0
  190.8000  176.9140  145.9910 N   0  0  0  0  0  0  0  0  0  0  0  0
  189.4620  177.0520  146.1940 C   0  0  0  0  0  0  0  0  0  0  0  0
  188.5400  177.3020  145.2270 N   0  0  0  0  0  0  0  0  0  0  0  0
  191.1590  177.5010  141.4090 C   0  0  0  0  0  0  0  0  0  0  0  0
  191.5760  176.9690  144.8840 C   0  0  0  0  0  3  0  0  0  0  0  0
  191.1360  177.2010  143.6000 C   0  0  0  0  0  0  0  0  0  0  0  0
  191.9700  177.2540  142.5040 C   0  0  0  0  0  3  0  0  0  0  0  0
  189.8300  177.6190  141.7790 C   0  0  0  0  0  3  0  0  0  0  0  0
  1 14  1  0  0  0  0
  2 17  1  6  0  0  0
  4 13  2  0  0  0  0
  4  2  1  0  0  0  0
  6  2  1  0  0  0  0
  7  8  1  0  0  0  0
  7  3  1  0  0  0  0
  8  6  1  1  0  0  0
  9  1  1  1  0  0  0
  9 16  1  0  0  0  0
  9  8  1  0  0  0  0
 11  7  1  0  0  0  0
 12 15  1  0  0  0  0
 14 10  1  6  0  0  0
 14  7  1  0  0  0  0
 15  4  1  0  0  0  0
 16  5  1  6  0  0  0
 16 15  1  0  0  0  0
 17 24  1  0  0  0  0
 18 26  1  0  0  0  0
 18 20  1  0  0  0  0
 20 23  2  0  0  0  0
 21 22  2  0  0  0  0
 22 19  1  0  0  0  0
 23 22  1  0  0  0  0
 24 28  1  0  0  0  0
 24 27  2  0  0  0  0
 25 21  1  0  0  0  0
 26 25  2  0  0  0  0
 27 26  1  0  0  0  0
 28 18  2  0  0  0  0
M  END
>  <MODEL>
9

>  <REMARK>
 VINA RESULT:      -7.5      5.427      9.116
  Name = 
  2 active torsions:
  status: ('A' for Active; 'I' for Inactive)
    1  A    between atoms: C_2  and  C_3
    2  A    between atoms: C_3  and  C_22
                            x       y       z     vdW  Elec       q    Type
                         _______ _______ _______ _____ _____    ______ ____

>  <TORSDO>
F 2

$$$$
