=
 OpenBabel10222421463D

 31 33  0  0  1  0  0  0  0  0999 V2000
  188.3810  177.0280  142.6080 C   0  0  2  0  0  3  0  0  0  0  0  0
  185.3840  178.9600  146.9480 N   0  0  0  0  0  1  0  0  0  0  0  0
  186.9100  177.8120  144.6500 N   0  0  0  0  0  0  0  0  0  0  0  0
  188.0160  177.2050  144.1040 C   0  0  0  0  0  0  0  0  0  0  0  0
  187.3050  177.8010  145.9560 C   0  0  0  0  0  0  0  0  0  0  0  0
  189.3180  177.2330  147.1480 C   0  0  0  0  0  3  0  0  0  0  0  0
  186.7160  178.3550  147.0310 C   0  0  0  0  0  0  0  0  0  0  0  0
  187.4250  178.3370  148.1810 N   0  0  0  0  0  0  0  0  0  0  0  0
  188.5450  177.2680  146.0570 C   0  0  0  0  0  0  0  0  0  0  0  0
  189.0200  176.8880  144.8500 N   0  0  0  0  0  2  0  0  0  0  0  0
  188.7080  177.7780  148.2690 C   0  0  0  0  0  3  0  0  0  0  0  0
  189.8160  176.4290  142.5390 C   0  0  0  0  0  2  0  0  0  0  0  0
  191.3080  178.3410  142.8750 O   0  0  0  0  0  1  0  0  0  0  0  0
  191.0550  177.2840  142.1400 C   0  0  2  0  0  3  0  0  0  0  0  0
  192.2550  176.6450  138.4860 C   0  0  0  0  0  0  0  0  0  0  0  0
  191.6330  177.3280  140.7620 C   0  0  0  0  0  0  0  0  0  0  0  0
  190.8390  176.5550  139.4040 S   0  0  0  0  0  0  0  0  0  0  0  0
  193.3320  177.1260  139.2650 N   0  0  0  0  0  0  0  0  0  0  0  0
  192.9630  177.4960  140.4920 N   0  0  0  0  0  0  0  0  0  0  0  0
  192.3790  175.6480  137.3220 C   0  0  0  0  0  2  0  0  0  0  0  0
  193.8890  175.0780  137.4020 C   0  0  0  0  0  0  0  0  0  0  0  0
  194.0240  173.8990  137.8630 O   0  0  0  0  0  1  0  0  0  0  0  0
  195.0420  175.5160  136.7700 O   0  0  0  0  0  0  0  0  0  0  0  0
  188.1840  178.3010  141.8540 N   0  0  0  0  0  2  0  0  0  0  0  0
  187.2530  178.1530  140.6200 C   0  0  2  0  0  3  0  0  0  0  0  0
  187.8720  178.7210  139.5350 O   0  0  0  0  0  0  0  0  0  0  0  0
  187.4720  177.9830  138.4640 C   0  0  0  0  0  1  0  0  0  0  0  0
  185.8390  178.8760  140.4620 C   0  0  0  0  0  2  0  0  0  0  0  0
  185.3520  179.3320  141.8050 N   0  0  0  0  0  2  0  0  0  0  0  0
  183.7970  179.1490  143.6130 C   0  0  0  0  0  1  0  0  0  0  0  0
  184.2360  178.5230  142.2850 C   0  0  0  0  0  2  0  0  0  0  0  0
  1 12  1  1  0  0  0
  1  4  1  0  0  0  0
  2  7  1  0  0  0  0
  3  5  1  0  0  0  0
  4  3  2  0  0  0  0
  4 10  1  0  0  0  0
  5  9  2  0  0  0  0
  5  7  1  0  0  0  0
  6 11  2  0  0  0  0
  7  8  2  0  0  0  0
  8 11  1  0  0  0  0
  9  6  1  0  0  0  0
 10  9  1  0  0  0  0
 14 12  1  0  0  0  0
 14 13  1  6  0  0  0
 15 18  2  0  0  0  0
 15 17  1  0  0  0  0
 16 14  1  0  0  0  0
 17 16  1  0  0  0  0
 18 19  1  0  0  0  0
 19 16  2  0  0  0  0
 20 21  1  0  0  0  0
 20 15  1  0  0  0  0
 21 22  1  0  0  0  0
 23 21  2  0  0  0  0
 24  1  1  0  0  0  0
 25 28  1  1  0  0  0
 25 24  1  0  0  0  0
 26 25  1  0  0  0  0
 27 26  1  0  0  0  0
 28 29  1  0  0  0  0
 29 31  1  0  0  0  0
 31 30  1  0  0  0  0
M  END
>  <MODEL>
1

>  <REMARK>
 VINA RESULT:      -7.3      0.000      0.000
  Name = 
  12 active torsions:
  status: ('A' for Active; 'I' for Inactive)
    1  A    between atoms: C_4  and  C_5
    2  A    between atoms: C_5  and  C_8
    3  A    between atoms: C_6  and  C_7
    4  A    between atoms: C_6  and  C_21
    5  A    between atoms: C_10  and  N_24
    6  A    between atoms: O_11  and  C_27
    7  A    between atoms: C_15  and  C_29
    8  A    between atoms: C_16  and  N_24
    9  A    between atoms: C_16  and  C_27
   10  A    between atoms: C_21  and  C_29
   11  A    between atoms: C_27  and  N_30
   12  A    between atoms: C_29  and  N_30
                            x       y       z     vdW  Elec       q    Type
                         _______ _______ _______ _____ _____    ______ ____

>  <TORSDO>
F 12

$$$$
=
 OpenBabel10222421463D

 31 33  0  0  1  0  0  0  0  0999 V2000
  188.7380  177.5460  140.1400 C   0  0  2  0  0  3  0  0  0  0  0  0
  186.8360  177.2840  145.4180 N   0  0  0  0  0  1  0  0  0  0  0  0
  187.9230  177.5340  142.6460 N   0  0  0  0  0  0  0  0  0  0  0  0
  187.8330  177.9380  141.3340 C   0  0  0  0  0  0  0  0  0  0  0  0
  186.7470  178.0640  143.0940 C   0  0  0  0  0  0  0  0  0  0  0  0
  184.8420  179.1400  142.0910 C   0  0  0  0  0  3  0  0  0  0  0  0
  186.1570  177.9370  144.2960 C   0  0  0  0  0  0  0  0  0  0  0  0
  184.9030  178.4280  144.4050 N   0  0  0  0  0  0  0  0  0  0  0  0
  186.0880  178.6530  142.0700 C   0  0  0  0  0  0  0  0  0  0  0  0
  186.7850  178.5640  140.9150 N   0  0  0  0  0  2  0  0  0  0  0  0
  184.2350  179.0380  143.3340 C   0  0  0  0  0  3  0  0  0  0  0  0
  189.9520  176.7530  140.7060 C   0  0  0  0  0  2  0  0  0  0  0  0
  192.2410  177.5900  140.4750 O   0  0  0  0  0  1  0  0  0  0  0  0
  191.2130  177.4630  141.2810 C   0  0  2  0  0  3  0  0  0  0  0  0
  191.4230  177.1580  145.1620 C   0  0  0  0  0  0  0  0  0  0  0  0
  191.5490  177.5250  142.7370 C   0  0  0  0  0  0  0  0  0  0  0  0
  191.2750  176.1620  143.8050 S   0  0  0  0  0  0  0  0  0  0  0  0
  191.5360  178.5150  144.7830 N   0  0  0  0  0  0  0  0  0  0  0  0
  191.6090  178.6830  143.4610 N   0  0  0  0  0  0  0  0  0  0  0  0
  190.7660  176.6510  146.4560 C   0  0  0  0  0  2  0  0  0  0  0  0
  191.9840  176.1280  147.3820 C   0  0  0  0  0  0  0  0  0  0  0  0
  192.6870  175.1800  146.9070 O   0  0  0  0  0  0  0  0  0  0  0  0
  192.6010  176.7320  148.4650 O   0  0  0  0  0  1  0  0  0  0  0  0
  189.0860  178.7410  139.3150 N   0  0  0  0  0  2  0  0  0  0  0  0
  189.2470  178.4250  137.8030 C   0  0  2  0  0  3  0  0  0  0  0  0
  188.5960  179.3940  137.0820 O   0  0  0  0  0  0  0  0  0  0  0  0
  187.4380  178.8160  136.6620 C   0  0  0  0  0  1  0  0  0  0  0  0
  188.6160  177.1550  137.0710 C   0  0  0  0  0  2  0  0  0  0  0  0
  189.6920  176.1470  136.7930 N   0  0  0  0  0  2  0  0  0  0  0  0
  191.7380  175.3560  137.7470 C   0  0  0  0  0  1  0  0  0  0  0  0
  191.0000  176.6050  137.2520 C   0  0  0  0  0  2  0  0  0  0  0  0
  1 12  1  1  0  0  0
  1  4  1  0  0  0  0
  3  5  1  0  0  0  0
  4  3  2  0  0  0  0
  5  7  1  0  0  0  0
  6 11  2  0  0  0  0
  7  8  2  0  0  0  0
  7  2  1  0  0  0  0
  9  6  1  0  0  0  0
  9  5  2  0  0  0  0
 10  4  1  0  0  0  0
 10  9  1  0  0  0  0
 11  8  1  0  0  0  0
 12 14  1  0  0  0  0
 14 13  1  6  0  0  0
 14 16  1  0  0  0  0
 15 20  1  0  0  0  0
 16 19  2  0  0  0  0
 16 17  1  0  0  0  0
 17 15  1  0  0  0  0
 18 15  2  0  0  0  0
 19 18  1  0  0  0  0
 20 21  1  0  0  0  0
 21 23  1  0  0  0  0
 22 21  2  0  0  0  0
 24  1  1  0  0  0  0
 25 28  1  1  0  0  0
 25 24  1  0  0  0  0
 26 25  1  0  0  0  0
 27 26  1  0  0  0  0
 29 28  1  0  0  0  0
 29 31  1  0  0  0  0
 31 30  1  0  0  0  0
M  END
>  <MODEL>
2

>  <REMARK>
 VINA RESULT:      -7.2      2.601      5.817
  Name = 
  12 active torsions:
  status: ('A' for Active; 'I' for Inactive)
    1  A    between atoms: C_4  and  C_5
    2  A    between atoms: C_5  and  C_8
    3  A    between atoms: C_6  and  C_7
    4  A    between atoms: C_6  and  C_21
    5  A    between atoms: C_10  and  N_24
    6  A    between atoms: O_11  and  C_27
    7  A    between atoms: C_15  and  C_29
    8  A    between atoms: C_16  and  N_24
    9  A    between atoms: C_16  and  C_27
   10  A    between atoms: C_21  and  C_29
   11  A    between atoms: C_27  and  N_30
   12  A    between atoms: C_29  and  N_30
                            x       y       z     vdW  Elec       q    Type
                         _______ _______ _______ _____ _____    ______ ____

>  <TORSDO>
F 12

$$$$
=
 OpenBabel10222421463D

 31 33  0  0  1  0  0  0  0  0999 V2000
  188.2690  177.5900  142.2210 C   0  0  2  0  0  3  0  0  0  0  0  0
  191.7230  176.8250  146.5830 N   0  0  0  0  0  1  0  0  0  0  0  0
  189.9260  177.3640  144.2580 N   0  0  0  0  0  0  0  0  0  0  0  0
  188.7000  177.6550  143.7080 C   0  0  0  0  0  0  0  0  0  0  0  0
  189.5700  177.4260  145.5740 C   0  0  0  0  0  0  0  0  0  0  0  0
  187.5100  177.6620  146.7980 C   0  0  0  0  0  3  0  0  0  0  0  0
  190.2930  177.1300  146.6700 C   0  0  0  0  0  0  0  0  0  0  0  0
  189.6260  177.1130  147.8440 N   0  0  0  0  0  0  0  0  0  0  0  0
  188.2460  177.6820  145.6810 C   0  0  0  0  0  0  0  0  0  0  0  0
  187.6680  177.8210  144.4660 N   0  0  0  0  0  2  0  0  0  0  0  0
  188.2530  177.3830  147.9370 C   0  0  0  0  0  3  0  0  0  0  0  0
  189.5430  177.3160  141.3710 C   0  0  0  0  0  2  0  0  0  0  0  0
  190.5020  176.2600  139.3810 O   0  0  0  0  0  1  0  0  0  0  0  0
  189.4680  176.9020  139.8710 C   0  0  2  0  0  3  0  0  0  0  0  0
  187.5390  178.1290  136.7130 C   0  0  0  0  0  0  0  0  0  0  0  0
  188.6220  177.5960  138.8520 C   0  0  0  0  0  0  0  0  0  0  0  0
  187.7740  176.7090  137.6000 S   0  0  0  0  0  0  0  0  0  0  0  0
  188.2210  179.2140  137.3070 N   0  0  0  0  0  0  0  0  0  0  0  0
  188.7930  178.8970  138.4700 N   0  0  0  0  0  0  0  0  0  0  0  0
  187.2850  177.9590  135.2070 C   0  0  0  0  0  2  0  0  0  0  0  0
  185.9130  177.1120  135.0930 C   0  0  0  0  0  0  0  0  0  0  0  0
  186.0060  175.9520  134.5780 O   0  0  0  0  0  0  0  0  0  0  0  0
  184.7000  177.2900  135.7400 O   0  0  0  0  0  1  0  0  0  0  0  0
  187.4930  178.8050  141.8340 N   0  0  0  0  0  2  0  0  0  0  0  0
  186.0460  178.4930  141.3630 C   0  0  2  0  0  3  0  0  0  0  0  0
  185.6030  179.5370  140.5910 O   0  0  0  0  0  0  0  0  0  0  0  0
  184.7410  178.9850  139.6940 C   0  0  0  0  0  1  0  0  0  0  0  0
  184.7810  178.3910  142.3300 C   0  0  0  0  0  2  0  0  0  0  0  0
  184.8320  179.4940  143.3450 N   0  0  0  0  0  2  0  0  0  0  0  0
  182.7200  178.7930  144.2220 C   0  0  0  0  0  1  0  0  0  0  0  0
  184.1710  179.1190  144.5910 C   0  0  0  0  0  2  0  0  0  0  0  0
  1 12  1  6  0  0  0
  1  4  1  0  0  0  0
  2  7  1  0  0  0  0
  3  5  1  0  0  0  0
  4  3  2  0  0  0  0
  4 10  1  0  0  0  0
  5  9  2  0  0  0  0
  5  7  1  0  0  0  0
  6 11  2  0  0  0  0
  7  8  2  0  0  0  0
  8 11  1  0  0  0  0
  9  6  1  0  0  0  0
 10  9  1  0  0  0  0
 14 13  1  6  0  0  0
 14 12  1  0  0  0  0
 15 18  2  0  0  0  0
 15 17  1  0  0  0  0
 16 14  1  0  0  0  0
 17 16  1  0  0  0  0
 18 19  1  0  0  0  0
 19 16  2  0  0  0  0
 20 15  1  0  0  0  0
 21 20  1  0  0  0  0
 21 23  1  0  0  0  0
 22 21  2  0  0  0  0
 24  1  1  0  0  0  0
 25 24  1  0  0  0  0
 25 28  1  1  0  0  0
 26 25  1  0  0  0  0
 27 26  1  0  0  0  0
 28 29  1  0  0  0  0
 29 31  1  0  0  0  0
 30 31  1  0  0  0  0
M  END
>  <MODEL>
3

>  <REMARK>
 VINA RESULT:      -7.1      2.747      4.255
  Name = 
  12 active torsions:
  status: ('A' for Active; 'I' for Inactive)
    1  A    between atoms: C_4  and  C_5
    2  A    between atoms: C_5  and  C_8
    3  A    between atoms: C_6  and  C_7
    4  A    between atoms: C_6  and  C_21
    5  A    between atoms: C_10  and  N_24
    6  A    between atoms: O_11  and  C_27
    7  A    between atoms: C_15  and  C_29
    8  A    between atoms: C_16  and  N_24
    9  A    between atoms: C_16  and  C_27
   10  A    between atoms: C_21  and  C_29
   11  A    between atoms: C_27  and  N_30
   12  A    between atoms: C_29  and  N_30
                            x       y       z     vdW  Elec       q    Type
                         _______ _______ _______ _____ _____    ______ ____

>  <TORSDO>
F 12

$$$$
=
 OpenBabel10222421463D

 31 33  0  0  1  0  0  0  0  0999 V2000
  185.6190  179.0740  141.3980 C   0  0  2  0  0  3  0  0  0  0  0  0
  190.6110  176.6450  142.2540 N   0  0  0  0  0  1  0  0  0  0  0  0
  187.8990  177.8110  141.7880 N   0  0  0  0  0  0  0  0  0  0  0  0
  186.9370  178.3730  140.9820 C   0  0  0  0  0  0  0  0  0  0  0  0
  188.8420  177.5720  140.8300 C   0  0  0  0  0  0  0  0  0  0  0  0
  189.1100  178.1060  138.4980 C   0  0  0  0  0  3  0  0  0  0  0  0
  190.1020  177.1210  140.9650 C   0  0  0  0  0  0  0  0  0  0  0  0
  190.8720  177.1470  139.8560 N   0  0  0  0  0  0  0  0  0  0  0  0
  188.4050  178.0250  139.6320 C   0  0  0  0  0  0  0  0  0  0  0  0
  187.1670  178.5610  139.7260 N   0  0  0  0  0  2  0  0  0  0  0  0
  190.4030  177.6180  138.6210 C   0  0  0  0  0  3  0  0  0  0  0  0
  184.8310  178.0940  142.3150 C   0  0  0  0  0  2  0  0  0  0  0  0
  183.1420  179.2050  143.6970 O   0  0  0  0  0  1  0  0  0  0  0  0
  184.2650  178.5260  143.7000 C   0  0  2  0  0  3  0  0  0  0  0  0
  186.6130  178.2050  146.7960 C   0  0  0  0  0  0  0  0  0  0  0  0
  185.1020  178.7070  144.9260 C   0  0  0  0  0  0  0  0  0  0  0  0
  186.6160  177.8520  145.1440 S   0  0  0  0  0  0  0  0  0  0  0  0
  185.4070  178.8370  147.1750 N   0  0  0  0  0  0  0  0  0  0  0  0
  184.6100  179.1040  146.1390 N   0  0  0  0  0  0  0  0  0  0  0  0
  187.4470  177.2780  147.6950 C   0  0  0  0  0  2  0  0  0  0  0  0
  188.9680  177.8150  147.5730 C   0  0  0  0  0  0  0  0  0  0  0  0
  189.4270  178.4410  148.5820 O   0  0  0  0  0  1  0  0  0  0  0  0
  189.9740  177.4490  146.6940 O   0  0  0  0  0  0  0  0  0  0  0  0
  184.8740  179.5680  140.2020 N   0  0  0  0  0  2  0  0  0  0  0  0
  183.6170  178.7220  139.8620 C   0  0  2  0  0  3  0  0  0  0  0  0
  183.5020  178.6380  138.4970 O   0  0  0  0  0  0  0  0  0  0  0  0
  184.1660  177.5030  138.1470 C   0  0  0  0  0  1  0  0  0  0  0  0
  182.1160  179.1650  140.1750 C   0  0  0  0  0  2  0  0  0  0  0  0
  181.4560  179.6390  138.9150 N   0  0  0  0  0  2  0  0  0  0  0  0
  181.5030  181.9510  138.3010 C   0  0  0  0  0  1  0  0  0  0  0  0
  180.7420  180.8960  139.1120 C   0  0  0  0  0  2  0  0  0  0  0  0
  1 12  1  6  0  0  0
  4  1  1  0  0  0  0
  4  3  2  0  0  0  0
  5  7  1  0  0  0  0
  5  3  1  0  0  0  0
  6 11  2  0  0  0  0
  6  9  1  0  0  0  0
  7  2  1  0  0  0  0
  8  7  2  0  0  0  0
  9 10  1  0  0  0  0
  9  5  2  0  0  0  0
 10  4  1  0  0  0  0
 11  8  1  0  0  0  0
 12 14  1  0  0  0  0
 14 13  1  6  0  0  0
 14 16  1  0  0  0  0
 15 18  2  0  0  0  0
 15 20  1  0  0  0  0
 16 17  1  0  0  0  0
 16 19  2  0  0  0  0
 17 15  1  0  0  0  0
 19 18  1  0  0  0  0
 21 20  1  0  0  0  0
 21 22  1  0  0  0  0
 23 21  2  0  0  0  0
 24  1  1  0  0  0  0
 25 28  1  6  0  0  0
 25 24  1  0  0  0  0
 26 25  1  0  0  0  0
 27 26  1  0  0  0  0
 29 31  1  0  0  0  0
 29 28  1  0  0  0  0
 30 31  1  0  0  0  0
M  END
>  <MODEL>
4

>  <REMARK>
 VINA RESULT:      -7.1      3.719      7.651
  Name = 
  12 active torsions:
  status: ('A' for Active; 'I' for Inactive)
    1  A    between atoms: C_4  and  C_5
    2  A    between atoms: C_5  and  C_8
    3  A    between atoms: C_6  and  C_7
    4  A    between atoms: C_6  and  C_21
    5  A    between atoms: C_10  and  N_24
    6  A    between atoms: O_11  and  C_27
    7  A    between atoms: C_15  and  C_29
    8  A    between atoms: C_16  and  N_24
    9  A    between atoms: C_16  and  C_27
   10  A    between atoms: C_21  and  C_29
   11  A    between atoms: C_27  and  N_30
   12  A    between atoms: C_29  and  N_30
                            x       y       z     vdW  Elec       q    Type
                         _______ _______ _______ _____ _____    ______ ____

>  <TORSDO>
F 12

$$$$
=
 OpenBabel10222421463D

 31 33  0  0  1  0  0  0  0  0999 V2000
  188.8100  177.4070  141.8180 C   0  0  2  0  0  3  0  0  0  0  0  0
  191.8930  176.6470  146.4510 N   0  0  0  0  0  1  0  0  0  0  0  0
  190.3000  177.1810  143.9810 N   0  0  0  0  0  0  0  0  0  0  0  0
  189.1310  177.5020  143.3310 C   0  0  0  0  0  0  0  0  0  0  0  0
  189.8480  177.2980  145.2630 C   0  0  0  0  0  0  0  0  0  0  0  0
  187.7140  177.6530  146.3190 C   0  0  0  0  0  3  0  0  0  0  0  0
  190.4740  177.0090  146.4190 C   0  0  0  0  0  0  0  0  0  0  0  0
  189.7210  177.0550  147.5390 N   0  0  0  0  0  0  0  0  0  0  0  0
  188.5320  177.6090  145.2610 C   0  0  0  0  0  0  0  0  0  0  0  0
  188.0530  177.7310  144.0030 N   0  0  0  0  0  2  0  0  0  0  0  0
  188.3570  177.3820  147.5190 C   0  0  0  0  0  3  0  0  0  0  0  0
  190.1340  177.0610  141.0750 C   0  0  0  0  0  2  0  0  0  0  0  0
  189.0980  176.6530  138.8930 O   0  0  0  0  0  1  0  0  0  0  0  0
  190.2110  176.9500  139.5230 C   0  0  2  0  0  3  0  0  0  0  0  0
  193.2630  175.3430  137.7060 C   0  0  0  0  0  0  0  0  0  0  0  0
  191.4610  176.6310  138.7670 C   0  0  0  0  0  0  0  0  0  0  0  0
  191.5780  175.2220  137.7310 S   0  0  0  0  0  0  0  0  0  0  0  0
  193.7100  176.3530  138.5870 N   0  0  0  0  0  0  0  0  0  0  0  0
  192.7100  177.0400  139.1430 N   0  0  0  0  0  0  0  0  0  0  0  0
  194.0350  174.0580  137.3670 C   0  0  0  0  0  2  0  0  0  0  0  0
  195.4520  174.1910  138.1340 C   0  0  0  0  0  0  0  0  0  0  0  0
  195.6940  173.3180  139.0280 O   0  0  0  0  0  1  0  0  0  0  0  0
  196.5920  174.8960  137.7830 O   0  0  0  0  0  0  0  0  0  0  0  0
  188.1130  178.6370  141.3390 N   0  0  0  0  0  2  0  0  0  0  0  0
  186.6210  178.4020  140.9740 C   0  0  2  0  0  3  0  0  0  0  0  0
  186.4200  178.8020  139.6780 O   0  0  0  0  0  0  0  0  0  0  0  0
  185.0930  178.6110  139.4420 C   0  0  0  0  0  1  0  0  0  0  0  0
  185.3950  179.1830  141.6320 C   0  0  0  0  0  2  0  0  0  0  0  0
  184.9230  178.4470  142.8500 N   0  0  0  0  0  2  0  0  0  0  0  0
  183.6330  179.0370  144.7760 C   0  0  0  0  0  1  0  0  0  0  0  0
  183.5830  178.8630  143.2540 C   0  0  0  0  0  2  0  0  0  0  0  0
  1 12  1  6  0  0  0
  1  4  1  0  0  0  0
  3  5  1  0  0  0  0
  4  3  2  0  0  0  0
  4 10  1  0  0  0  0
  5  7  1  0  0  0  0
  6 11  2  0  0  0  0
  7  2  1  0  0  0  0
  7  8  2  0  0  0  0
  9  5  2  0  0  0  0
  9  6  1  0  0  0  0
 10  9  1  0  0  0  0
 11  8  1  0  0  0  0
 14 13  1  1  0  0  0
 14 12  1  0  0  0  0
 15 17  1  0  0  0  0
 15 18  2  0  0  0  0
 16 19  2  0  0  0  0
 16 14  1  0  0  0  0
 17 16  1  0  0  0  0
 18 19  1  0  0  0  0
 20 15  1  0  0  0  0
 20 21  1  0  0  0  0
 21 22  1  0  0  0  0
 23 21  2  0  0  0  0
 24  1  1  0  0  0  0
 25 24  1  0  0  0  0
 25 28  1  1  0  0  0
 26 25  1  0  0  0  0
 27 26  1  0  0  0  0
 28 29  1  0  0  0  0
 29 31  1  0  0  0  0
 31 30  1  0  0  0  0
M  END
>  <MODEL>
5

>  <REMARK>
 VINA RESULT:      -7.1      1.795      2.447
  Name = 
  12 active torsions:
  status: ('A' for Active; 'I' for Inactive)
    1  A    between atoms: C_4  and  C_5
    2  A    between atoms: C_5  and  C_8
    3  A    between atoms: C_6  and  C_7
    4  A    between atoms: C_6  and  C_21
    5  A    between atoms: C_10  and  N_24
    6  A    between atoms: O_11  and  C_27
    7  A    between atoms: C_15  and  C_29
    8  A    between atoms: C_16  and  N_24
    9  A    between atoms: C_16  and  C_27
   10  A    between atoms: C_21  and  C_29
   11  A    between atoms: C_27  and  N_30
   12  A    between atoms: C_29  and  N_30
                            x       y       z     vdW  Elec       q    Type
                         _______ _______ _______ _____ _____    ______ ____

>  <TORSDO>
F 12

$$$$
=
 OpenBabel10222421463D

 31 33  0  0  1  0  0  0  0  0999 V2000
  188.8180  177.5190  142.7650 C   0  0  2  0  0  3  0  0  0  0  0  0
  183.3910  178.9070  143.1780 N   0  0  0  0  0  1  0  0  0  0  0  0
  186.2390  178.0370  142.9420 N   0  0  0  0  0  0  0  0  0  0  0  0
  187.4540  177.6830  143.4820 C   0  0  0  0  0  0  0  0  0  0  0  0
  185.5450  178.1900  144.1070 C   0  0  0  0  0  0  0  0  0  0  0  0
  186.0820  178.1850  146.4540 C   0  0  0  0  0  3  0  0  0  0  0  0
  184.2930  178.6430  144.3020 C   0  0  0  0  0  0  0  0  0  0  0  0
  183.9230  178.8570  145.5830 N   0  0  0  0  0  0  0  0  0  0  0  0
  186.3640  177.9760  145.1630 C   0  0  0  0  0  0  0  0  0  0  0  0
  187.6150  177.6570  144.7620 N   0  0  0  0  0  2  0  0  0  0  0  0
  184.7840  178.6270  146.6660 C   0  0  0  0  0  3  0  0  0  0  0  0
  188.5310  177.1370  141.2840 C   0  0  0  0  0  2  0  0  0  0  0  0
  188.2660  178.6120  139.3480 O   0  0  0  0  0  1  0  0  0  0  0  0
  189.1180  177.9440  140.0890 C   0  0  2  0  0  3  0  0  0  0  0  0
  192.0930  176.4270  138.0770 C   0  0  0  0  0  0  0  0  0  0  0  0
  190.4120  177.6180  139.4140 C   0  0  0  0  0  0  0  0  0  0  0  0
  190.4620  176.8100  137.8590 S   0  0  0  0  0  0  0  0  0  0  0  0
  192.5290  176.7910  139.3720 N   0  0  0  0  0  0  0  0  0  0  0  0
  191.5980  177.4420  140.0710 N   0  0  0  0  0  0  0  0  0  0  0  0
  192.6310  175.2380  137.2640 C   0  0  0  0  0  2  0  0  0  0  0  0
  194.2410  175.3660  137.3260 C   0  0  0  0  0  0  0  0  0  0  0  0
  194.7870  176.0690  136.4170 O   0  0  0  0  0  0  0  0  0  0  0  0
  195.1150  175.1080  138.3710 O   0  0  0  0  0  1  0  0  0  0  0  0
  189.7040  176.5750  143.5080 N   0  0  0  0  0  2  0  0  0  0  0  0
  190.7320  177.2850  144.4300 C   0  0  2  0  0  3  0  0  0  0  0  0
  191.7210  177.8240  143.6470 O   0  0  0  0  0  0  0  0  0  0  0  0
  191.7450  179.1490  143.9560 C   0  0  0  0  0  1  0  0  0  0  0  0
  191.6740  176.5370  145.4790 C   0  0  0  0  0  2  0  0  0  0  0  0
  191.3170  176.9650  146.8720 N   0  0  0  0  0  2  0  0  0  0  0  0
  189.3900  177.7580  148.0470 C   0  0  0  0  0  1  0  0  0  0  0  0
  189.9500  176.5930  147.2220 C   0  0  0  0  0  2  0  0  0  0  0  0
  1 12  1  6  0  0  0
  1  4  1  0  0  0  0
  1 24  1  0  0  0  0
  2  7  1  0  0  0  0
  3  4  2  0  0  0  0
  3  5  1  0  0  0  0
  4 10  1  0  0  0  0
  5  7  2  0  0  0  0
  5  9  1  0  0  0  0
  6 11  1  0  0  0  0
  7  8  1  0  0  0  0
  8 11  2  0  0  0  0
  9  6  2  0  0  0  0
 10  9  1  0  0  0  0
 14 13  1  6  0  0  0
 14 12  1  0  0  0  0
 15 18  2  0  0  0  0
 16 19  2  0  0  0  0
 16 14  1  0  0  0  0
 17 15  1  0  0  0  0
 17 16  1  0  0  0  0
 18 19  1  0  0  0  0
 20 21  1  0  0  0  0
 20 15  1  0  0  0  0
 21 23  1  0  0  0  0
 22 21  2  0  0  0  0
 24 25  1  0  0  0  0
 25 28  1  1  0  0  0
 26 27  1  0  0  0  0
 26 25  1  0  0  0  0
 28 29  1  0  0  0  0
 29 31  1  0  0  0  0
 31 30  1  0  0  0  0
M  END
>  <MODEL>
6

>  <REMARK>
 VINA RESULT:      -7.0      1.634      4.087
  Name = 
  12 active torsions:
  status: ('A' for Active; 'I' for Inactive)
    1  A    between atoms: C_4  and  C_5
    2  A    between atoms: C_5  and  C_8
    3  A    between atoms: C_6  and  C_7
    4  A    between atoms: C_6  and  C_21
    5  A    between atoms: C_10  and  N_24
    6  A    between atoms: O_11  and  C_27
    7  A    between atoms: C_15  and  C_29
    8  A    between atoms: C_16  and  N_24
    9  A    between atoms: C_16  and  C_27
   10  A    between atoms: C_21  and  C_29
   11  A    between atoms: C_27  and  N_30
   12  A    between atoms: C_29  and  N_30
                            x       y       z     vdW  Elec       q    Type
                         _______ _______ _______ _____ _____    ______ ____

>  <TORSDO>
F 12

$$$$
=
 OpenBabel10222421463D

 31 33  0  0  1  0  0  0  0  0999 V2000
  187.6900  178.2270  141.0560 C   0  0  2  0  0  3  0  0  0  0  0  0
  187.7180  177.4200  146.6140 N   0  0  0  0  0  1  0  0  0  0  0  0
  187.6660  177.7170  143.6410 N   0  0  0  0  0  0  0  0  0  0  0  0
  188.2770  177.7580  142.4100 C   0  0  0  0  0  0  0  0  0  0  0  0
  188.7630  177.4150  144.3950 C   0  0  0  0  0  0  0  0  0  0  0  0
  191.1310  177.2350  144.0050 C   0  0  0  0  0  3  0  0  0  0  0  0
  188.8840  177.3340  145.7320 C   0  0  0  0  0  0  0  0  0  0  0  0
  190.1380  177.1890  146.2140 N   0  0  0  0  0  0  0  0  0  0  0  0
  189.8600  177.3530  143.6060 C   0  0  0  0  0  0  0  0  0  0  0  0
  189.5530  177.5890  142.3110 N   0  0  0  0  0  2  0  0  0  0  0  0
  191.2640  177.1250  145.3820 C   0  0  0  0  0  3  0  0  0  0  0  0
  188.8770  178.6830  140.1580 C   0  0  0  0  0  2  0  0  0  0  0  0
  188.1280  178.9070  137.8370 O   0  0  0  0  0  1  0  0  0  0  0  0
  188.9680  178.3090  138.6490 C   0  0  2  0  0  3  0  0  0  0  0  0
  191.1060  175.2230  137.5950 C   0  0  0  0  0  0  0  0  0  0  0  0
  189.5150  177.0140  138.1390 C   0  0  0  0  0  0  0  0  0  0  0  0
  190.8160  176.1750  138.9620 S   0  0  0  0  0  0  0  0  0  0  0  0
  190.3150  175.6500  136.5050 N   0  0  0  0  0  0  0  0  0  0  0  0
  189.4560  176.6180  136.8310 N   0  0  0  0  0  0  0  0  0  0  0  0
  192.5060  174.5990  137.4830 C   0  0  0  0  0  2  0  0  0  0  0  0
  193.5410  175.8080  137.7640 C   0  0  0  0  0  0  0  0  0  0  0  0
  194.4160  175.6040  138.6650 O   0  0  0  0  0  1  0  0  0  0  0  0
  193.8520  176.9130  136.9880 O   0  0  0  0  0  0  0  0  0  0  0  0
  186.6170  179.2450  141.2600 N   0  0  0  0  0  2  0  0  0  0  0  0
  185.2430  178.8250  140.6700 C   0  0  2  0  0  3  0  0  0  0  0  0
  184.7810  179.8420  139.8730 O   0  0  0  0  0  0  0  0  0  0  0  0
  183.8780  179.2640  139.0360 C   0  0  0  0  0  1  0  0  0  0  0  0
  183.9170  178.6080  141.5300 C   0  0  0  0  0  2  0  0  0  0  0  0
  184.2830  178.2720  142.9450 N   0  0  0  0  0  2  0  0  0  0  0  0
  184.3820  178.9090  145.2490 C   0  0  0  0  0  1  0  0  0  0  0  0
  183.7550  179.2490  143.8920 C   0  0  0  0  0  2  0  0  0  0  0  0
  1 12  1  6  0  0  0
  1 24  1  0  0  0  0
  1  4  1  0  0  0  0
  3  5  1  0  0  0  0
  4  3  2  0  0  0  0
  5  7  1  0  0  0  0
  6 11  2  0  0  0  0
  7  8  2  0  0  0  0
  7  2  1  0  0  0  0
  9  6  1  0  0  0  0
  9  5  2  0  0  0  0
 10  4  1  0  0  0  0
 10  9  1  0  0  0  0
 11  8  1  0  0  0  0
 14 13  1  1  0  0  0
 14 12  1  0  0  0  0
 15 17  1  0  0  0  0
 16 14  1  0  0  0  0
 16 17  1  0  0  0  0
 18 19  1  0  0  0  0
 18 15  2  0  0  0  0
 19 16  2  0  0  0  0
 20 15  1  0  0  0  0
 20 21  1  0  0  0  0
 21 22  1  0  0  0  0
 23 21  2  0  0  0  0
 25 24  1  0  0  0  0
 25 28  1  1  0  0  0
 26 25  1  0  0  0  0
 27 26  1  0  0  0  0
 28 29  1  0  0  0  0
 29 31  1  0  0  0  0
 31 30  1  0  0  0  0
M  END
>  <MODEL>
7

>  <REMARK>
 VINA RESULT:      -7.0      2.158      2.948
  Name = 
  12 active torsions:
  status: ('A' for Active; 'I' for Inactive)
    1  A    between atoms: C_4  and  C_5
    2  A    between atoms: C_5  and  C_8
    3  A    between atoms: C_6  and  C_7
    4  A    between atoms: C_6  and  C_21
    5  A    between atoms: C_10  and  N_24
    6  A    between atoms: O_11  and  C_27
    7  A    between atoms: C_15  and  C_29
    8  A    between atoms: C_16  and  N_24
    9  A    between atoms: C_16  and  C_27
   10  A    between atoms: C_21  and  C_29
   11  A    between atoms: C_27  and  N_30
   12  A    between atoms: C_29  and  N_30
                            x       y       z     vdW  Elec       q    Type
                         _______ _______ _______ _____ _____    ______ ____

>  <TORSDO>
F 12

$$$$
=
 OpenBabel10222421463D

 31 33  0  0  1  0  0  0  0  0999 V2000
  188.7460  176.8370  143.4640 C   0  0  2  0  0  3  0  0  0  0  0  0
  187.0000  178.5270  138.4000 N   0  0  0  0  0  1  0  0  0  0  0  0
  187.9610  177.7590  141.1230 N   0  0  0  0  0  0  0  0  0  0  0  0
  188.9130  177.2670  141.9840 C   0  0  0  0  0  0  0  0  0  0  0  0
  188.7020  177.7330  139.9770 C   0  0  0  0  0  0  0  0  0  0  0  0
  190.8670  176.8960  139.3370 C   0  0  0  0  0  3  0  0  0  0  0  0
  188.3270  177.9920  138.7110 C   0  0  0  0  0  0  0  0  0  0  0  0
  189.2320  177.7150  137.7470 N   0  0  0  0  0  0  0  0  0  0  0  0
  189.9270  177.2190  140.2330 C   0  0  0  0  0  0  0  0  0  0  0  0
  190.0670  176.9000  141.5390 N   0  0  0  0  0  2  0  0  0  0  0  0
  190.4990  177.1840  138.0310 C   0  0  0  0  0  3  0  0  0  0  0  0
  188.0660  178.0130  144.2240 C   0  0  0  0  0  2  0  0  0  0  0  0
  186.3840  176.9180  145.6270 O   0  0  0  0  0  1  0  0  0  0  0  0
  186.6220  177.9070  144.7980 C   0  0  2  0  0  3  0  0  0  0  0  0
  183.0550  178.9390  143.6100 C   0  0  0  0  0  0  0  0  0  0  0  0
  185.4090  178.4600  144.1200 C   0  0  0  0  0  0  0  0  0  0  0  0
  183.9820  178.9280  145.0230 S   0  0  0  0  0  0  0  0  0  0  0  0
  183.8020  178.4560  142.5120 N   0  0  0  0  0  0  0  0  0  0  0  0
  185.0780  178.2110  142.8170 N   0  0  0  0  0  0  0  0  0  0  0  0
  181.5360  178.7770  143.7880 C   0  0  0  0  0  2  0  0  0  0  0  0
  180.9040  179.0060  142.3180 C   0  0  0  0  0  0  0  0  0  0  0  0
  180.2570  178.0270  141.8240 O   0  0  0  0  0  1  0  0  0  0  0  0
  180.6680  180.1810  141.6230 O   0  0  0  0  0  0  0  0  0  0  0  0
  190.0430  176.3720  144.0370 N   0  0  0  0  0  2  0  0  0  0  0  0
  190.5430  177.2390  145.2240 C   0  0  2  0  0  3  0  0  0  0  0  0
  191.8590  177.5620  145.0060 O   0  0  0  0  0  0  0  0  0  0  0  0
  191.8350  178.5900  144.1140 C   0  0  0  0  0  1  0  0  0  0  0  0
  190.6980  176.7170  146.7240 C   0  0  0  0  0  2  0  0  0  0  0  0
  189.3710  176.7830  147.4200 N   0  0  0  0  0  2  0  0  0  0  0  0
  187.7530  178.0360  148.6590 C   0  0  0  0  0  1  0  0  0  0  0  0
  189.1940  178.0420  148.1390 C   0  0  0  0  0  2  0  0  0  0  0  0
  1 24  1  0  0  0  0
  1 12  1  1  0  0  0
  2  7  1  0  0  0  0
  3  4  2  0  0  0  0
  4  1  1  0  0  0  0
  5  9  1  0  0  0  0
  5  3  1  0  0  0  0
  6  9  2  0  0  0  0
  7  5  2  0  0  0  0
  8 11  2  0  0  0  0
  8  7  1  0  0  0  0
  9 10  1  0  0  0  0
 10  4  1  0  0  0  0
 11  6  1  0  0  0  0
 12 14  1  0  0  0  0
 14 13  1  6  0  0  0
 15 20  1  0  0  0  0
 15 17  1  0  0  0  0
 16 14  1  0  0  0  0
 16 17  1  0  0  0  0
 18 19  1  0  0  0  0
 18 15  2  0  0  0  0
 19 16  2  0  0  0  0
 21 20  1  0  0  0  0
 22 21  1  0  0  0  0
 23 21  2  0  0  0  0
 24 25  1  0  0  0  0
 25 28  1  1  0  0  0
 26 25  1  0  0  0  0
 27 26  1  0  0  0  0
 28 29  1  0  0  0  0
 29 31  1  0  0  0  0
 31 30  1  0  0  0  0
M  END
>  <MODEL>
8

>  <REMARK>
 VINA RESULT:      -7.0      3.640      8.515
  Name = 
  12 active torsions:
  status: ('A' for Active; 'I' for Inactive)
    1  A    between atoms: C_4  and  C_5
    2  A    between atoms: C_5  and  C_8
    3  A    between atoms: C_6  and  C_7
    4  A    between atoms: C_6  and  C_21
    5  A    between atoms: C_10  and  N_24
    6  A    between atoms: O_11  and  C_27
    7  A    between atoms: C_15  and  C_29
    8  A    between atoms: C_16  and  N_24
    9  A    between atoms: C_16  and  C_27
   10  A    between atoms: C_21  and  C_29
   11  A    between atoms: C_27  and  N_30
   12  A    between atoms: C_29  and  N_30
                            x       y       z     vdW  Elec       q    Type
                         _______ _______ _______ _____ _____    ______ ____

>  <TORSDO>
F 12

$$$$
=
 OpenBabel10222421463D

 31 33  0  0  1  0  0  0  0  0999 V2000
  187.3950  178.0020  141.1700 C   0  0  2  0  0  3  0  0  0  0  0  0
  182.5760  179.2160  143.7870 N   0  0  0  0  0  1  0  0  0  0  0  0
  185.0920  178.4420  142.3750 N   0  0  0  0  0  0  0  0  0  0  0  0
  186.4060  178.0330  142.3620 C   0  0  0  0  0  0  0  0  0  0  0  0
  184.8910  178.4070  143.7240 C   0  0  0  0  0  0  0  0  0  0  0  0
  186.2660  178.0610  145.6700 C   0  0  0  0  0  3  0  0  0  0  0  0
  183.8210  178.8040  144.4380 C   0  0  0  0  0  0  0  0  0  0  0  0
  183.9670  178.8170  145.7810 N   0  0  0  0  0  0  0  0  0  0  0  0
  186.0350  178.0520  144.3520 C   0  0  0  0  0  0  0  0  0  0  0  0
  187.0320  177.8180  143.4690 N   0  0  0  0  0  2  0  0  0  0  0  0
  185.1600  178.4430  146.4150 C   0  0  0  0  0  3  0  0  0  0  0  0
  188.7280  178.6520  141.6440 C   0  0  0  0  0  2  0  0  0  0  0  0
  190.3050  177.0110  140.7400 O   0  0  0  0  0  1  0  0  0  0  0  0
  190.0620  177.8510  141.7180 C   0  0  2  0  0  3  0  0  0  0  0  0
  191.2190  177.0010  145.3430 C   0  0  0  0  0  0  0  0  0  0  0  0
  190.7930  177.5600  142.9900 C   0  0  0  0  0  0  0  0  0  0  0  0
  190.2000  176.3820  144.1450 S   0  0  0  0  0  0  0  0  0  0  0  0
  191.8800  178.1660  144.8920 N   0  0  0  0  0  0  0  0  0  0  0  0
  191.6360  178.4410  143.6090 N   0  0  0  0  0  0  0  0  0  0  0  0
  190.8090  176.7220  146.7980 C   0  0  0  0  0  2  0  0  0  0  0  0
  192.0780  175.9750  147.4670 C   0  0  0  0  0  0  0  0  0  0  0  0
  192.6500  175.0890  146.7550 O   0  0  0  0  0  0  0  0  0  0  0  0
  192.8540  176.3400  148.5560 O   0  0  0  0  0  1  0  0  0  0  0  0
  186.7860  178.6120  139.9510 N   0  0  0  0  0  2  0  0  0  0  0  0
  187.4010  178.0930  138.6230 C   0  0  2  0  0  3  0  0  0  0  0  0
  188.3880  178.9610  138.2300 O   0  0  0  0  0  0  0  0  0  0  0  0
  189.3040  178.1950  137.5770 C   0  0  0  0  0  1  0  0  0  0  0  0
  186.6200  178.0130  137.2340 C   0  0  0  0  0  2  0  0  0  0  0  0
  185.6630  176.8580  137.2590 N   0  0  0  0  0  2  0  0  0  0  0  0
  183.4220  176.0450  137.4510 C   0  0  0  0  0  1  0  0  0  0  0  0
  184.3200  177.2710  137.6530 C   0  0  0  0  0  2  0  0  0  0  0  0
  1 12  1  1  0  0  0
  1  4  1  0  0  0  0
  2  7  1  0  0  0  0
  3  5  1  0  0  0  0
  4  3  2  0  0  0  0
  4 10  1  0  0  0  0
  5  9  2  0  0  0  0
  5  7  1  0  0  0  0
  6 11  2  0  0  0  0
  7  8  2  0  0  0  0
  8 11  1  0  0  0  0
  9  6  1  0  0  0  0
 10  9  1  0  0  0  0
 12 14  1  0  0  0  0
 14 13  1  1  0  0  0
 14 16  1  0  0  0  0
 15 20  1  0  0  0  0
 16 19  2  0  0  0  0
 16 17  1  0  0  0  0
 17 15  1  0  0  0  0
 18 15  2  0  0  0  0
 19 18  1  0  0  0  0
 20 21  1  0  0  0  0
 21 23  1  0  0  0  0
 22 21  2  0  0  0  0
 24  1  1  0  0  0  0
 25 28  1  6  0  0  0
 25 24  1  0  0  0  0
 26 25  1  0  0  0  0
 27 26  1  0  0  0  0
 28 29  1  0  0  0  0
 29 31  1  0  0  0  0
 30 31  1  0  0  0  0
M  END
>  <MODEL>
9

>  <REMARK>
 VINA RESULT:      -7.0      2.985      5.135
  Name = 
  12 active torsions:
  status: ('A' for Active; 'I' for Inactive)
    1  A    between atoms: C_4  and  C_5
    2  A    between atoms: C_5  and  C_8
    3  A    between atoms: C_6  and  C_7
    4  A    between atoms: C_6  and  C_21
    5  A    between atoms: C_10  and  N_24
    6  A    between atoms: O_11  and  C_27
    7  A    between atoms: C_15  and  C_29
    8  A    between atoms: C_16  and  N_24
    9  A    between atoms: C_16  and  C_27
   10  A    between atoms: C_21  and  C_29
   11  A    between atoms: C_27  and  N_30
   12  A    between atoms: C_29  and  N_30
                            x       y       z     vdW  Elec       q    Type
                         _______ _______ _______ _____ _____    ______ ____

>  <TORSDO>
F 12

$$$$
