=
 OpenBabel10232411153D

 33 37  0  0  1  0  0  0  0  0999 V2000
  189.7950  176.4420  140.5020 N   0  0  0  0  0  2  0  0  0  0  0  0
  188.4240  178.4600  139.7210 C   0  0  2  0  0  3  0  0  0  0  0  0
  186.1680  178.5940  139.0760 N   0  0  0  0  0  0  0  0  0  0  0  0
  189.8070  176.9790  138.1650 C   0  0  0  0  0  0  0  0  0  0  0  0
  187.7070  179.1380  137.3700 N   0  0  0  0  0  2  0  0  0  0  0  0
  187.5520  178.2440  140.9600 C   0  0  0  0  0  3  0  0  0  0  0  0
  187.3860  178.7100  138.6840 C   0  0  0  0  0  0  0  0  0  0  0  0
  189.6650  177.8580  137.0300 N   0  0  0  0  0  0  0  0  0  0  0  0
  186.1090  178.2080  140.4680 C   0  0  0  0  0  3  0  0  0  0  0  0
  189.3130  177.2520  139.4120 C   0  0  1  0  0  3  0  0  0  0  0  0
  189.1030  179.1980  136.9960 C   0  0  0  0  0  2  0  0  0  0  0  0
  191.0090  173.6940  137.3170 C   0  0  0  0  0  3  0  0  0  0  0  0
  192.3070  174.3790  137.5930 C   0  0  1  0  0  3  0  0  0  0  0  0
  193.1440  174.4250  136.3280 C   0  0  0  0  0  1  0  0  0  0  0  0
  190.5860  175.7420  137.9010 C   0  0  0  0  0  0  0  0  0  0  0  0
  191.8770  175.7210  137.9460 N   0  0  0  0  0  0  0  0  0  0  0  0
  190.0190  174.5010  137.5020 N   0  0  0  0  0  0  0  0  0  0  0  0
  191.2340  178.2700  141.3140 C   0  0  0  0  0  2  0  0  0  0  0  0
  192.1580  177.0810  141.0810 C   0  0  0  0  0  2  0  0  0  0  0  0
  190.7320  176.8620  141.5410 C   0  0  0  0  0  0  0  0  0  0  0  0
  190.4160  176.4740  142.9990 C   0  0  2  0  0  3  0  0  0  0  0  0
  188.5870  178.0980  145.8370 C   0  0  0  0  0  3  0  0  0  0  0  0
  189.2090  177.2210  143.5810 C   0  0  1  0  0  3  0  0  0  0  0  0
  186.2680  178.3460  146.2770 O   0  0  0  0  0  1  0  0  0  0  0  0
  186.8370  177.1000  144.3140 C   0  0  0  0  0  2  0  0  0  0  0  0
  187.9770  176.3220  143.6710 C   0  0  0  0  0  2  0  0  0  0  0  0
  189.5100  177.9430  144.8750 C   0  0  0  0  0  3  0  0  0  0  0  0
  187.2170  177.4750  145.7460 C   0  0  1  0  0  3  0  0  0  0  0  0
  191.6140  176.3070  143.9470 C   0  0  0  0  0  2  0  0  0  0  0  0
  191.9190  174.9050  144.1840 N   0  0  0  0  0  2  0  0  0  0  0  0
  192.3810  174.8020  145.5580 C   0  0  0  0  0  2  0  0  0  0  0  0
  191.9390  176.0250  146.3420 C   0  0  0  0  0  2  0  0  0  0  0  0
  192.5930  176.0580  147.5750 O   0  0  0  0  0  1  0  0  0  0  0  0
  1 20  1  0  0  0  0
  2  6  1  1  0  0  0
  3  9  1  0  0  0  0
  4 10  1  0  0  0  0
  5  7  1  0  0  0  0
  7  3  2  0  0  0  0
  7  2  1  0  0  0  0
  8  4  2  0  0  0  0
  9  6  2  0  0  0  0
 10  2  1  0  0  0  0
 10  1  1  1  0  0  0
 11  8  1  0  0  0  0
 11  5  1  0  0  0  0
 12 17  2  0  0  0  0
 12 13  1  0  0  0  0
 13 14  1  6  0  0  0
 13 16  1  0  0  0  0
 15 16  2  0  0  0  0
 15  4  1  0  0  0  0
 17 15  1  0  0  0  0
 18 20  1  0  0  0  0
 19 18  1  0  0  0  0
 19 20  1  0  0  0  0
 20 21  1  0  0  0  0
 21 29  1  1  0  0  0
 23 21  1  1  0  0  0
 23 26  1  0  0  0  0
 23 27  1  0  0  0  0
 25 28  1  0  0  0  0
 26 25  1  0  0  0  0
 27 22  2  0  0  0  0
 28 22  1  0  0  0  0
 28 24  1  6  0  0  0
 29 30  1  0  0  0  0
 30 31  1  0  0  0  0
 31 32  1  0  0  0  0
 32 33  1  0  0  0  0
M  END
>  <MODEL>
1

>  <REMARK>
 VINA RESULT:      -6.3      0.000      0.000
  Name = 
  9 active torsions:
  status: ('A' for Active; 'I' for Inactive)
    1  A    between atoms: C_5  and  C_9
    2  A    between atoms: C_6  and  C_8
    3  A    between atoms: C_8  and  N_30
    4  A    between atoms: C_9  and  C_17
    5  A    between atoms: C_9  and  C_32
    6  A    between atoms: C_13  and  C_26
    7  A    between atoms: C_17  and  N_30
    8  A    between atoms: N_24  and  C_27
    9  A    between atoms: N_24  and  C_32
                            x       y       z     vdW  Elec       q    Type
                         _______ _______ _______ _____ _____    ______ ____

>  <TORSDO>
F 9

$$$$
=
 OpenBabel10232411153D

 33 37  0  0  1  0  0  0  0  0999 V2000
  188.8580  176.8150  139.1500 N   0  0  0  0  0  2  0  0  0  0  0  0
  191.1360  176.6580  137.9890 C   0  0  2  0  0  3  0  0  0  0  0  0
  192.4820  174.7820  137.5520 N   0  0  0  0  0  0  0  0  0  0  0  0
  190.8290  177.0900  140.4880 C   0  0  0  0  0  0  0  0  0  0  0  0
  193.4650  176.3780  138.9890 N   0  0  0  0  0  2  0  0  0  0  0  0
  190.4440  175.8020  136.9260 C   0  0  0  0  0  3  0  0  0  0  0  0
  192.3920  175.8880  138.1990 C   0  0  0  0  0  0  0  0  0  0  0  0
  192.2180  177.4110  140.7090 N   0  0  0  0  0  2  0  0  0  0  0  0
  191.2860  174.5400  136.7760 C   0  0  0  0  0  3  0  0  0  0  0  0
  190.2950  176.8080  139.2600 C   0  0  0  0  0  0  0  0  0  0  0  0
  193.2640  177.6090  139.7200 C   0  0  0  0  0  2  0  0  0  0  0  0
  188.7410  176.4220  143.3420 C   0  0  0  0  0  3  0  0  0  0  0  0
  188.9740  177.8850  143.5320 C   0  0  1  0  0  3  0  0  0  0  0  0
  189.7380  178.1220  144.8210 C   0  0  0  0  0  1  0  0  0  0  0  0
  189.9780  177.1310  141.7050 C   0  0  0  0  0  0  0  0  0  0  0  0
  189.8180  178.2110  142.3940 N   0  0  0  0  0  0  0  0  0  0  0  0
  189.3300  176.0010  142.2750 N   0  0  0  0  0  0  0  0  0  0  0  0
  188.0580  178.2810  137.3380 C   0  0  0  0  0  2  0  0  0  0  0  0
  188.7680  179.1920  138.3330 C   0  0  0  0  0  2  0  0  0  0  0  0
  188.0220  177.9660  138.8170 C   0  0  0  0  0  0  0  0  0  0  0  0
  186.6520  178.0900  139.5110 C   0  0  2  0  0  3  0  0  0  0  0  0
  183.2110  179.3750  138.7700 C   0  0  0  0  0  3  0  0  0  0  0  0
  185.5050  178.4080  138.5430 C   0  0  1  0  0  3  0  0  0  0  0  0
  181.6410  178.7890  137.0910 O   0  0  0  0  0  1  0  0  0  0  0  0
  183.6710  177.5210  137.1190 C   0  0  0  0  0  2  0  0  0  0  0  0
  184.8380  177.1380  138.0190 C   0  0  0  0  0  2  0  0  0  0  0  0
  184.5150  179.4140  139.0870 C   0  0  0  0  0  3  0  0  0  0  0  0
  182.6180  178.2690  137.9370 C   0  0  1  0  0  3  0  0  0  0  0  0
  186.6190  178.8410  140.8510 C   0  0  0  0  0  2  0  0  0  0  0  0
  185.8430  178.1230  141.8490 N   0  0  0  0  0  2  0  0  0  0  0  0
  185.2260  179.1260  142.7020 C   0  0  0  0  0  2  0  0  0  0  0  0
  184.6760  178.4680  143.9550 C   0  0  0  0  0  2  0  0  0  0  0  0
  185.7200  178.1800  144.8350 O   0  0  0  0  0  1  0  0  0  0  0  0
  1 10  1  0  0  0  0
  2  6  1  6  0  0  0
  2  7  1  0  0  0  0
  2 10  1  0  0  0  0
  3  7  2  0  0  0  0
  4  8  1  0  0  0  0
  4 15  1  0  0  0  0
  5 11  1  0  0  0  0
  7  5  1  0  0  0  0
  9  6  2  0  0  0  0
  9  3  1  0  0  0  0
 10  4  2  0  0  0  0
 11  8  1  0  0  0  0
 12 13  1  0  0  0  0
 13 14  1  1  0  0  0
 15 17  1  0  0  0  0
 15 16  2  0  0  0  0
 16 13  1  0  0  0  0
 17 12  2  0  0  0  0
 18 19  1  0  0  0  0
 18 20  1  0  0  0  0
 19 20  1  0  0  0  0
 20  1  1  0  0  0  0
 20 21  1  0  0  0  0
 21 29  1  1  0  0  0
 22 27  2  0  0  0  0
 23 27  1  0  0  0  0
 23 21  1  1  0  0  0
 25 28  1  0  0  0  0
 25 26  1  0  0  0  0
 26 23  1  0  0  0  0
 28 24  1  6  0  0  0
 28 22  1  0  0  0  0
 29 30  1  0  0  0  0
 30 31  1  0  0  0  0
 31 32  1  0  0  0  0
 32 33  1  0  0  0  0
M  END
>  <MODEL>
2

>  <REMARK>
 VINA RESULT:      -5.9      2.712      6.586
  Name = 
  9 active torsions:
  status: ('A' for Active; 'I' for Inactive)
    1  A    between atoms: C_5  and  C_9
    2  A    between atoms: C_6  and  C_8
    3  A    between atoms: C_8  and  N_30
    4  A    between atoms: C_9  and  C_17
    5  A    between atoms: C_9  and  C_32
    6  A    between atoms: C_13  and  C_26
    7  A    between atoms: C_17  and  N_30
    8  A    between atoms: N_24  and  C_27
    9  A    between atoms: N_24  and  C_32
                            x       y       z     vdW  Elec       q    Type
                         _______ _______ _______ _____ _____    ______ ____

>  <TORSDO>
F 9

$$$$
=
 OpenBabel10232411153D

 33 37  0  0  1  0  0  0  0  0999 V2000
  184.1240  177.7500  142.0190 N   0  0  0  0  0  2  0  0  0  0  0  0
  182.1290  179.2360  142.6310 C   0  0  2  0  0  3  0  0  0  0  0  0
  179.9820  178.6470  143.3850 N   0  0  0  0  0  0  0  0  0  0  0  0
  182.6120  178.3890  140.2700 C   0  0  0  0  0  0  0  0  0  0  0  0
  180.0170  179.7660  141.3050 N   0  0  0  0  0  2  0  0  0  0  0  0
  182.2500  178.6740  144.0500 C   0  0  0  0  0  3  0  0  0  0  0  0
  180.6550  179.1830  142.4310 C   0  0  0  0  0  0  0  0  0  0  0  0
  181.6180  179.2330  139.6520 N   0  0  0  0  0  0  0  0  0  0  0  0
  180.8590  178.1870  144.4390 C   0  0  0  0  0  3  0  0  0  0  0  0
  182.9120  178.4120  141.6050 C   0  0  1  0  0  3  0  0  0  0  0  0
  180.8500  180.3090  140.2560 C   0  0  0  0  0  2  0  0  0  0  0  0
  183.8320  175.7250  138.1800 C   0  0  0  0  0  3  0  0  0  0  0  0
  184.7690  176.8160  137.7780 C   0  0  1  0  0  3  0  0  0  0  0  0
  184.5710  177.1520  136.3120 C   0  0  0  0  0  1  0  0  0  0  0  0
  183.3440  177.4990  139.3340 C   0  0  0  0  0  0  0  0  0  0  0  0
  184.3200  177.9260  138.6020 N   0  0  0  0  0  0  0  0  0  0  0  0
  183.0110  176.1390  139.0850 N   0  0  0  0  0  0  0  0  0  0  0  0
  185.1640  179.8300  142.8330 C   0  0  0  0  0  2  0  0  0  0  0  0
  185.8210  179.5290  141.4910 C   0  0  0  0  0  2  0  0  0  0  0  0
  185.3780  178.3980  142.3950 C   0  0  0  0  0  0  0  0  0  0  0  0
  186.4000  177.5790  143.2070 C   0  0  2  0  0  3  0  0  0  0  0  0
  188.3380  177.6700  146.4120 C   0  0  0  0  0  3  0  0  0  0  0  0
  186.7330  178.1970  144.5700 C   0  0  1  0  0  3  0  0  0  0  0  0
  187.7570  178.4400  148.5800 O   0  0  0  0  0  1  0  0  0  0  0  0
  186.0290  178.5510  146.9270 C   0  0  0  0  0  2  0  0  0  0  0  0
  185.6110  177.9730  145.5830 C   0  0  0  0  0  2  0  0  0  0  0  0
  188.0940  177.8030  145.0980 C   0  0  0  0  0  3  0  0  0  0  0  0
  187.2530  177.7990  147.4500 C   0  0  1  0  0  3  0  0  0  0  0  0
  187.5920  176.9960  142.4320 C   0  0  0  0  0  2  0  0  0  0  0  0
  188.3210  178.0300  141.7130 N   0  0  0  0  0  2  0  0  0  0  0  0
  189.1980  177.3480  140.7750 C   0  0  0  0  0  2  0  0  0  0  0  0
  189.2170  178.0940  139.4530 C   0  0  0  0  0  2  0  0  0  0  0  0
  187.9160  178.4490  139.0920 O   0  0  0  0  0  1  0  0  0  0  0  0
  1 20  1  0  0  0  0
  2  6  1  1  0  0  0
  3  9  1  0  0  0  0
  4 10  1  0  0  0  0
  5  7  1  0  0  0  0
  6  9  2  0  0  0  0
  7  2  1  0  0  0  0
  7  3  2  0  0  0  0
  8 11  1  0  0  0  0
  8  4  2  0  0  0  0
 10  1  1  6  0  0  0
 10  2  1  0  0  0  0
 11  5  1  0  0  0  0
 12 17  2  0  0  0  0
 13 14  1  6  0  0  0
 13 12  1  0  0  0  0
 13 16  1  0  0  0  0
 15  4  1  0  0  0  0
 16 15  2  0  0  0  0
 17 15  1  0  0  0  0
 19 20  1  0  0  0  0
 19 18  1  0  0  0  0
 20 18  1  0  0  0  0
 20 21  1  0  0  0  0
 21 29  1  6  0  0  0
 22 28  1  0  0  0  0
 23 21  1  6  0  0  0
 23 27  1  0  0  0  0
 23 26  1  0  0  0  0
 25 28  1  0  0  0  0
 26 25  1  0  0  0  0
 27 22  2  0  0  0  0
 28 24  1  1  0  0  0
 30 29  1  0  0  0  0
 31 30  1  0  0  0  0
 32 31  1  0  0  0  0
 33 32  1  0  0  0  0
M  END
>  <MODEL>
3

>  <REMARK>
 VINA RESULT:      -5.8      3.833      6.552
  Name = 
  9 active torsions:
  status: ('A' for Active; 'I' for Inactive)
    1  A    between atoms: C_5  and  C_9
    2  A    between atoms: C_6  and  C_8
    3  A    between atoms: C_8  and  N_30
    4  A    between atoms: C_9  and  C_17
    5  A    between atoms: C_9  and  C_32
    6  A    between atoms: C_13  and  C_26
    7  A    between atoms: C_17  and  N_30
    8  A    between atoms: N_24  and  C_27
    9  A    between atoms: N_24  and  C_32
                            x       y       z     vdW  Elec       q    Type
                         _______ _______ _______ _____ _____    ______ ____

>  <TORSDO>
F 9

$$$$
=
 OpenBabel10232411153D

 33 37  0  0  1  0  0  0  0  0999 V2000
  187.6520  176.5650  138.0560 N   0  0  0  0  0  2  0  0  0  0  0  0
  185.6360  177.7400  137.0010 C   0  0  2  0  0  3  0  0  0  0  0  0
  183.3460  177.5480  137.4970 N   0  0  0  0  0  0  0  0  0  0  0  0
  186.6410  175.5590  136.1280 C   0  0  0  0  0  0  0  0  0  0  0  0
  183.9340  176.8690  135.3130 N   0  0  0  0  0  2  0  0  0  0  0  0
  185.3830  178.3640  138.3760 C   0  0  0  0  0  3  0  0  0  0  0  0
  184.2540  177.3470  136.6100 C   0  0  0  0  0  0  0  0  0  0  0  0
  185.8650  175.5670  134.9120 N   0  0  0  0  0  0  0  0  0  0  0  0
  183.9190  178.0970  138.7060 C   0  0  0  0  0  3  0  0  0  0  0  0
  186.6080  176.5580  137.0630 C   0  0  1  0  0  3  0  0  0  0  0  0
  185.0210  176.6290  134.3900 C   0  0  0  0  0  2  0  0  0  0  0  0
  188.2290  172.4280  136.9190 C   0  0  0  0  0  3  0  0  0  0  0  0
  189.2510  173.0080  135.9980 C   0  0  1  0  0  3  0  0  0  0  0  0
  189.3760  172.1440  134.7570 C   0  0  0  0  0  1  0  0  0  0  0  0
  187.5400  174.3880  136.2880 C   0  0  0  0  0  0  0  0  0  0  0  0
  188.6570  174.2870  135.6470 N   0  0  0  0  0  0  0  0  0  0  0  0
  187.2420  173.2430  137.0770 N   0  0  0  0  0  0  0  0  0  0  0  0
  188.8880  178.6640  137.6870 C   0  0  0  0  0  2  0  0  0  0  0  0
  189.2890  177.7350  136.5470 C   0  0  0  0  0  2  0  0  0  0  0  0
  188.9740  177.1720  137.9170 C   0  0  0  0  0  0  0  0  0  0  0  0
  190.0950  176.6870  138.8570 C   0  0  2  0  0  3  0  0  0  0  0  0
  191.6970  177.4650  142.1530 C   0  0  0  0  0  3  0  0  0  0  0  0
  190.2230  177.5250  140.1360 C   0  0  1  0  0  3  0  0  0  0  0  0
  190.8280  178.4460  144.1320 O   0  0  0  0  0  1  0  0  0  0  0  0
  189.2630  178.1080  142.3530 C   0  0  0  0  0  2  0  0  0  0  0  0
  189.0440  177.3010  141.0810 C   0  0  0  0  0  2  0  0  0  0  0  0
  191.5640  177.3840  140.8200 C   0  0  0  0  0  3  0  0  0  0  0  0
  190.5110  177.5970  143.0740 C   0  0  1  0  0  3  0  0  0  0  0  0
  191.4190  176.2720  138.1990 C   0  0  0  0  0  2  0  0  0  0  0  0
  191.5280  174.8270  138.0780 N   0  0  0  0  0  2  0  0  0  0  0  0
  192.5230  174.5650  137.0510 C   0  0  0  0  0  2  0  0  0  0  0  0
  193.8540  174.2280  137.6990 C   0  0  0  0  0  2  0  0  0  0  0  0
  194.7060  175.3320  137.6310 O   0  0  0  0  0  1  0  0  0  0  0  0
  2 10  1  0  0  0  0
  2  6  1  1  0  0  0
  3  9  1  0  0  0  0
  4 15  1  0  0  0  0
  4 10  1  0  0  0  0
  5  7  1  0  0  0  0
  6  9  2  0  0  0  0
  7  2  1  0  0  0  0
  7  3  2  0  0  0  0
  8  4  2  0  0  0  0
 10  1  1  6  0  0  0
 11  8  1  0  0  0  0
 11  5  1  0  0  0  0
 12 17  2  0  0  0  0
 13 14  1  6  0  0  0
 13 12  1  0  0  0  0
 15 17  1  0  0  0  0
 16 13  1  0  0  0  0
 16 15  2  0  0  0  0
 18 20  1  0  0  0  0
 19 18  1  0  0  0  0
 19 20  1  0  0  0  0
 20  1  1  0  0  0  0
 20 21  1  0  0  0  0
 21 29  1  6  0  0  0
 22 28  1  0  0  0  0
 23 21  1  6  0  0  0
 23 27  1  0  0  0  0
 23 26  1  0  0  0  0
 25 28  1  0  0  0  0
 26 25  1  0  0  0  0
 27 22  2  0  0  0  0
 28 24  1  1  0  0  0
 30 29  1  0  0  0  0
 31 32  1  0  0  0  0
 31 30  1  0  0  0  0
 33 32  1  0  0  0  0
M  END
>  <MODEL>
4

>  <REMARK>
 VINA RESULT:      -5.8      3.250      4.915
  Name = 
  9 active torsions:
  status: ('A' for Active; 'I' for Inactive)
    1  A    between atoms: C_5  and  C_9
    2  A    between atoms: C_6  and  C_8
    3  A    between atoms: C_8  and  N_30
    4  A    between atoms: C_9  and  C_17
    5  A    between atoms: C_9  and  C_32
    6  A    between atoms: C_13  and  C_26
    7  A    between atoms: C_17  and  N_30
    8  A    between atoms: N_24  and  C_27
    9  A    between atoms: N_24  and  C_32
                            x       y       z     vdW  Elec       q    Type
                         _______ _______ _______ _____ _____    ______ ____

>  <TORSDO>
F 9

$$$$
=
 OpenBabel10232411153D

 33 37  0  0  1  0  0  0  0  0999 V2000
  184.8070  177.9330  141.7270 N   0  0  0  0  0  2  0  0  0  0  0  0
  182.6540  179.2190  141.2020 C   0  0  2  0  0  3  0  0  0  0  0  0
  180.6390  178.4680  140.2550 N   0  0  0  0  0  0  0  0  0  0  0  0
  184.6320  179.0210  139.5970 C   0  0  0  0  0  0  0  0  0  0  0  0
  181.7740  180.0950  138.9750 N   0  0  0  0  0  2  0  0  0  0  0  0
  181.9570  178.3020  142.2100 C   0  0  0  0  0  3  0  0  0  0  0  0
  181.6590  179.2320  140.0950 C   0  0  0  0  0  0  0  0  0  0  0  0
  184.1170  180.0050  138.6760 N   0  0  0  0  0  0  0  0  0  0  0  0
  180.7300  177.7400  141.5010 C   0  0  0  0  0  3  0  0  0  0  0  0
  184.0280  178.6900  140.7800 C   0  0  1  0  0  3  0  0  0  0  0  0
  182.9760  180.8890  138.8500 C   0  0  0  0  0  2  0  0  0  0  0  0
  187.3240  177.1670  138.0920 C   0  0  0  0  0  3  0  0  0  0  0  0
  188.1000  178.0200  139.0410 C   0  0  1  0  0  3  0  0  0  0  0  0
  189.0200  178.9450  138.2670 C   0  0  0  0  0  1  0  0  0  0  0  0
  185.9210  178.4050  139.1940 C   0  0  0  0  0  0  0  0  0  0  0  0
  187.0510  178.7950  139.6840 N   0  0  0  0  0  0  0  0  0  0  0  0
  186.0590  177.4020  138.1960 N   0  0  0  0  0  0  0  0  0  0  0  0
  184.6870  179.2320  143.8180 C   0  0  0  0  0  2  0  0  0  0  0  0
  185.6480  179.9880  142.9090 C   0  0  0  0  0  2  0  0  0  0  0  0
  185.5690  178.4770  142.8490 C   0  0  0  0  0  0  0  0  0  0  0  0
  186.6710  177.5960  143.4690 C   0  0  2  0  0  3  0  0  0  0  0  0
  189.0980  177.7240  146.3200 C   0  0  0  0  0  3  0  0  0  0  0  0
  187.0770  178.0320  144.8830 C   0  0  1  0  0  3  0  0  0  0  0  0
  188.7640  177.8630  148.6650 O   0  0  0  0  0  1  0  0  0  0  0  0
  186.7840  177.7090  147.3290 C   0  0  0  0  0  2  0  0  0  0  0  0
  186.2900  177.2800  145.9550 C   0  0  0  0  0  2  0  0  0  0  0  0
  188.5700  178.0060  145.1180 C   0  0  0  0  0  3  0  0  0  0  0  0
  188.2500  177.3090  147.4940 C   0  0  1  0  0  3  0  0  0  0  0  0
  187.8250  177.1770  142.5450 C   0  0  0  0  0  2  0  0  0  0  0  0
  188.4200  175.9190  142.9670 N   0  0  0  0  0  2  0  0  0  0  0  0
  189.8280  175.9820  142.6130 C   0  0  0  0  0  2  0  0  0  0  0  0
  190.1330  177.3120  141.9490 C   0  0  0  0  0  2  0  0  0  0  0  0
  191.3930  177.2630  141.3480 O   0  0  0  0  0  1  0  0  0  0  0  0
  1 20  1  0  0  0  0
  2  6  1  1  0  0  0
  3  9  1  0  0  0  0
  4 10  1  0  0  0  0
  5  7  1  0  0  0  0
  7  3  2  0  0  0  0
  7  2  1  0  0  0  0
  8 11  1  0  0  0  0
  8  4  2  0  0  0  0
  9  6  2  0  0  0  0
 10  2  1  0  0  0  0
 10  1  1  1  0  0  0
 11  5  1  0  0  0  0
 12 17  2  0  0  0  0
 12 13  1  0  0  0  0
 13 14  1  6  0  0  0
 13 16  1  0  0  0  0
 15  4  1  0  0  0  0
 15 16  2  0  0  0  0
 17 15  1  0  0  0  0
 19 18  1  0  0  0  0
 20 19  1  0  0  0  0
 20 21  1  0  0  0  0
 20 18  1  0  0  0  0
 21 29  1  6  0  0  0
 22 28  1  0  0  0  0
 23 21  1  6  0  0  0
 23 27  1  0  0  0  0
 23 26  1  0  0  0  0
 25 28  1  0  0  0  0
 26 25  1  0  0  0  0
 27 22  2  0  0  0  0
 28 24  1  1  0  0  0
 29 30  1  0  0  0  0
 31 30  1  0  0  0  0
 32 31  1  0  0  0  0
 33 32  1  0  0  0  0
M  END
>  <MODEL>
5

>  <REMARK>
 VINA RESULT:      -5.8      3.085      5.164
  Name = 
  9 active torsions:
  status: ('A' for Active; 'I' for Inactive)
    1  A    between atoms: C_5  and  C_9
    2  A    between atoms: C_6  and  C_8
    3  A    between atoms: C_8  and  N_30
    4  A    between atoms: C_9  and  C_17
    5  A    between atoms: C_9  and  C_32
    6  A    between atoms: C_13  and  C_26
    7  A    between atoms: C_17  and  N_30
    8  A    between atoms: N_24  and  C_27
    9  A    between atoms: N_24  and  C_32
                            x       y       z     vdW  Elec       q    Type
                         _______ _______ _______ _____ _____    ______ ____

>  <TORSDO>
F 9

$$$$
=
 OpenBabel10232411153D

 33 37  0  0  1  0  0  0  0  0999 V2000
  189.0400  178.0790  144.1570 N   0  0  0  0  0  2  0  0  0  0  0  0
  191.2240  177.2780  145.2300 C   0  0  2  0  0  3  0  0  0  0  0  0
  192.0410  175.0970  145.5460 N   0  0  0  0  0  0  0  0  0  0  0  0
  189.0690  177.7210  146.5280 C   0  0  0  0  0  0  0  0  0  0  0  0
  191.6440  176.2920  147.5440 N   0  0  0  0  0  2  0  0  0  0  0  0
  191.5860  176.6930  143.8630 C   0  0  0  0  0  3  0  0  0  0  0  0
  191.6270  176.1640  146.1300 C   0  0  0  0  0  0  0  0  0  0  0  0
  189.7010  177.6070  147.8200 N   0  0  0  0  0  2  0  0  0  0  0  0
  191.9820  175.2420  144.1080 C   0  0  0  0  0  3  0  0  0  0  0  0
  189.7400  177.6410  145.3390 C   0  0  0  0  0  0  0  0  0  0  0  0
  191.1190  177.5080  148.1220 C   0  0  0  0  0  2  0  0  0  0  0  0
  185.7290  178.9360  147.0980 C   0  0  0  0  0  3  0  0  0  0  0  0
  185.4500  177.8950  146.0650 C   0  0  1  0  0  3  0  0  0  0  0  0
  184.8970  178.5480  144.8120 C   0  0  0  0  0  1  0  0  0  0  0  0
  187.6080  177.9830  146.5700 C   0  0  0  0  0  0  0  0  0  0  0  0
  186.7770  177.3650  145.7980 N   0  0  0  0  0  0  0  0  0  0  0  0
  186.9880  178.9730  147.3810 N   0  0  0  0  0  0  0  0  0  0  0  0
  187.3260  176.7050  143.0400 C   0  0  0  0  0  2  0  0  0  0  0  0
  188.5250  175.7880  143.2550 C   0  0  0  0  0  2  0  0  0  0  0  0
  188.7300  177.2640  142.9850 C   0  0  0  0  0  0  0  0  0  0  0  0
  189.2150  177.7630  141.6100 C   0  0  2  0  0  3  0  0  0  0  0  0
  185.7610  179.1630  141.2310 C   0  0  0  0  0  3  0  0  0  0  0  0
  188.1600  178.5750  140.8480 C   0  0  1  0  0  3  0  0  0  0  0  0
  184.4720  179.6720  139.3040 O   0  0  0  0  0  1  0  0  0  0  0  0
  186.6160  178.6850  138.9040 C   0  0  0  0  0  2  0  0  0  0  0  0
  187.7060  177.8620  139.5760 C   0  0  0  0  0  2  0  0  0  0  0  0
  187.0070  179.0310  141.7140 C   0  0  0  0  0  3  0  0  0  0  0  0
  185.3970  178.7680  139.8230 C   0  0  1  0  0  3  0  0  0  0  0  0
  190.0320  176.7750  140.7630 C   0  0  0  0  0  2  0  0  0  0  0  0
  191.1580  177.4270  140.1140 N   0  0  0  0  0  2  0  0  0  0  0  0
  191.2650  176.8540  138.7830 C   0  0  0  0  0  2  0  0  0  0  0  0
  192.7170  176.5390  138.4730 C   0  0  0  0  0  2  0  0  0  0  0  0
  193.5370  177.0500  139.4800 O   0  0  0  0  0  1  0  0  0  0  0  0
  1 10  1  0  0  0  0
  2  6  1  6  0  0  0
  2 10  1  0  0  0  0
  2  7  1  0  0  0  0
  3  7  2  0  0  0  0
  4 15  1  0  0  0  0
  4  8  1  0  0  0  0
  5 11  1  0  0  0  0
  6  9  2  0  0  0  0
  7  5  1  0  0  0  0
  8 11  1  0  0  0  0
  9  3  1  0  0  0  0
 10  4  2  0  0  0  0
 12 17  2  0  0  0  0
 13 14  1  6  0  0  0
 13 12  1  0  0  0  0
 15 17  1  0  0  0  0
 16 13  1  0  0  0  0
 16 15  2  0  0  0  0
 18 19  1  0  0  0  0
 20 18  1  0  0  0  0
 20 19  1  0  0  0  0
 20  1  1  0  0  0  0
 21 29  1  6  0  0  0
 21 20  1  0  0  0  0
 22 27  2  0  0  0  0
 23 21  1  1  0  0  0
 23 27  1  0  0  0  0
 25 26  1  0  0  0  0
 25 28  1  0  0  0  0
 26 23  1  0  0  0  0
 28 24  1  6  0  0  0
 28 22  1  0  0  0  0
 30 29  1  0  0  0  0
 31 30  1  0  0  0  0
 32 31  1  0  0  0  0
 32 33  1  0  0  0  0
M  END
>  <MODEL>
6

>  <REMARK>
 VINA RESULT:      -5.8      3.098      7.798
  Name = 
  9 active torsions:
  status: ('A' for Active; 'I' for Inactive)
    1  A    between atoms: C_5  and  C_9
    2  A    between atoms: C_6  and  C_8
    3  A    between atoms: C_8  and  N_30
    4  A    between atoms: C_9  and  C_17
    5  A    between atoms: C_9  and  C_32
    6  A    between atoms: C_13  and  C_26
    7  A    between atoms: C_17  and  N_30
    8  A    between atoms: N_24  and  C_27
    9  A    between atoms: N_24  and  C_32
                            x       y       z     vdW  Elec       q    Type
                         _______ _______ _______ _____ _____    ______ ____

>  <TORSDO>
F 9

$$$$
=
 OpenBabel10232411153D

 33 37  0  0  1  0  0  0  0  0999 V2000
  189.4400  177.0810  144.1630 N   0  0  0  0  0  2  0  0  0  0  0  0
  191.6080  176.5720  145.4290 C   0  0  2  0  0  3  0  0  0  0  0  0
  192.4030  174.5420  146.3090 N   0  0  0  0  0  0  0  0  0  0  0  0
  189.4470  177.3520  146.5450 C   0  0  0  0  0  0  0  0  0  0  0  0
  192.0010  176.2180  147.9230 N   0  0  0  0  0  2  0  0  0  0  0  0
  191.9760  175.6490  144.2640 C   0  0  0  0  0  3  0  0  0  0  0  0
  191.9940  175.7270  146.5920 C   0  0  0  0  0  0  0  0  0  0  0  0
  190.0680  177.5740  147.8290 N   0  0  0  0  0  2  0  0  0  0  0  0
  192.3560  174.3080  144.8820 C   0  0  0  0  0  3  0  0  0  0  0  0
  190.1270  176.9610  145.4240 C   0  0  0  0  0  0  0  0  0  0  0  0
  191.4830  177.5470  148.1600 C   0  0  0  0  0  2  0  0  0  0  0  0
  186.0260  178.2870  147.1550 C   0  0  0  0  0  3  0  0  0  0  0  0
  185.9300  177.8880  145.7190 C   0  0  1  0  0  3  0  0  0  0  0  0
  185.5450  179.0880  144.8750 C   0  0  0  0  0  1  0  0  0  0  0  0
  187.9880  177.6260  146.5020 C   0  0  0  0  0  0  0  0  0  0  0  0
  187.2970  177.4950  145.4190 N   0  0  0  0  0  0  0  0  0  0  0  0
  187.2290  178.1280  147.5940 N   0  0  0  0  0  0  0  0  0  0  0  0
  191.1810  178.3340  142.9490 C   0  0  0  0  0  2  0  0  0  0  0  0
  190.2990  179.3810  143.6190 C   0  0  0  0  0  2  0  0  0  0  0  0
  189.7010  178.0790  143.1290 C   0  0  0  0  0  0  0  0  0  0  0  0
  188.8540  178.0260  141.8420 C   0  0  2  0  0  3  0  0  0  0  0  0
  189.2000  177.9550  138.1120 C   0  0  0  0  0  3  0  0  0  0  0  0
  189.6950  177.9380  140.5620 C   0  0  1  0  0  3  0  0  0  0  0  0
  190.7940  176.9080  136.7000 O   0  0  0  0  0  1  0  0  0  0  0  0
  191.0410  176.5000  139.0460 C   0  0  0  0  0  2  0  0  0  0  0  0
  190.2750  176.5390  140.3610 C   0  0  0  0  0  2  0  0  0  0  0  0
  188.9870  178.4660  139.3350 C   0  0  0  0  0  3  0  0  0  0  0  0
  190.0780  176.7510  137.8850 C   0  0  1  0  0  3  0  0  0  0  0  0
  187.6360  178.9600  141.7740 C   0  0  0  0  0  2  0  0  0  0  0  0
  186.3920  178.2140  141.6740 N   0  0  0  0  0  2  0  0  0  0  0  0
  185.3670  179.1610  141.2690 C   0  0  0  0  0  2  0  0  0  0  0  0
  184.8900  178.8340  139.8660 C   0  0  0  0  0  2  0  0  0  0  0  0
  184.4830  180.0040  139.2200 O   0  0  0  0  0  1  0  0  0  0  0  0
  1 10  1  0  0  0  0
  2  6  1  6  0  0  0
  2  7  1  0  0  0  0
  3  7  2  0  0  0  0
  4  8  1  0  0  0  0
  5 11  1  0  0  0  0
  6  9  2  0  0  0  0
  7  5  1  0  0  0  0
  8 11  1  0  0  0  0
  9  3  1  0  0  0  0
 10  2  1  0  0  0  0
 10  4  2  0  0  0  0
 12 17  2  0  0  0  0
 13 14  1  6  0  0  0
 13 12  1  0  0  0  0
 15  4  1  0  0  0  0
 15 17  1  0  0  0  0
 16 13  1  0  0  0  0
 16 15  2  0  0  0  0
 18 20  1  0  0  0  0
 18 19  1  0  0  0  0
 20 19  1  0  0  0  0
 20  1  1  0  0  0  0
 21 29  1  6  0  0  0
 21 20  1  0  0  0  0
 22 27  2  0  0  0  0
 23 21  1  1  0  0  0
 25 26  1  0  0  0  0
 26 23  1  0  0  0  0
 27 23  1  0  0  0  0
 28 24  1  6  0  0  0
 28 22  1  0  0  0  0
 28 25  1  0  0  0  0
 30 29  1  0  0  0  0
 31 30  1  0  0  0  0
 32 31  1  0  0  0  0
 33 32  1  0  0  0  0
M  END
>  <MODEL>
7

>  <REMARK>
 VINA RESULT:      -5.8      3.583      8.453
  Name = 
  9 active torsions:
  status: ('A' for Active; 'I' for Inactive)
    1  A    between atoms: C_5  and  C_9
    2  A    between atoms: C_6  and  C_8
    3  A    between atoms: C_8  and  N_30
    4  A    between atoms: C_9  and  C_17
    5  A    between atoms: C_9  and  C_32
    6  A    between atoms: C_13  and  C_26
    7  A    between atoms: C_17  and  N_30
    8  A    between atoms: N_24  and  C_27
    9  A    between atoms: N_24  and  C_32
                            x       y       z     vdW  Elec       q    Type
                         _______ _______ _______ _____ _____    ______ ____

>  <TORSDO>
F 9

$$$$
=
 OpenBabel10232411153D

 33 37  0  0  1  0  0  0  0  0999 V2000
  187.4520  178.3480  138.7620 N   0  0  0  0  0  2  0  0  0  0  0  0
  187.9390  176.6520  136.9050 C   0  0  2  0  0  3  0  0  0  0  0  0
  188.1950  176.9770  134.5910 N   0  0  0  0  0  0  0  0  0  0  0  0
  185.5930  177.2400  137.7290 C   0  0  0  0  0  0  0  0  0  0  0  0
  186.3660  175.6090  135.1900 N   0  0  0  0  0  2  0  0  0  0  0  0
  189.2450  177.4130  136.6640 C   0  0  0  0  0  3  0  0  0  0  0  0
  187.4760  176.4350  135.5070 C   0  0  0  0  0  0  0  0  0  0  0  0
  184.9560  176.1690  137.0010 N   0  0  0  0  0  0  0  0  0  0  0  0
  189.2970  177.7130  135.1700 C   0  0  0  0  0  3  0  0  0  0  0  0
  186.9460  177.4460  137.7580 C   0  0  1  0  0  3  0  0  0  0  0  0
  185.5830  175.0730  136.2810 C   0  0  0  0  0  2  0  0  0  0  0  0
  183.6930  179.9050  139.2240 C   0  0  0  0  0  3  0  0  0  0  0  0
  182.9860  178.7280  139.8090 C   0  0  1  0  0  3  0  0  0  0  0  0
  181.5480  178.6970  139.3240 C   0  0  0  0  0  1  0  0  0  0  0  0
  184.6680  178.1030  138.5060 C   0  0  0  0  0  0  0  0  0  0  0  0
  183.7210  177.6120  139.2350 N   0  0  0  0  0  0  0  0  0  0  0  0
  184.6680  179.5240  138.4700 N   0  0  0  0  0  0  0  0  0  0  0  0
  189.7410  178.1570  139.6550 C   0  0  0  0  0  2  0  0  0  0  0  0
  189.1380  176.7600  139.7430 C   0  0  0  0  0  2  0  0  0  0  0  0
  188.2620  177.9830  139.9210 C   0  0  0  0  0  0  0  0  0  0  0  0
  187.7620  178.4090  141.3150 C   0  0  2  0  0  3  0  0  0  0  0  0
  187.9740  177.0110  144.7850 C   0  0  0  0  0  3  0  0  0  0  0  0
  188.5380  177.7560  142.4670 C   0  0  1  0  0  3  0  0  0  0  0  0
  189.7680  176.9130  146.3350 O   0  0  0  0  0  1  0  0  0  0  0  0
  190.2210  178.0410  144.2730 C   0  0  0  0  0  2  0  0  0  0  0  0
  189.5340  178.7260  143.1000 C   0  0  0  0  0  2  0  0  0  0  0  0
  187.6500  177.0730  143.4840 C   0  0  0  0  0  3  0  0  0  0  0  0
  189.1870  177.7060  145.3470 C   0  0  1  0  0  3  0  0  0  0  0  0
  186.2410  178.5020  141.5070 C   0  0  0  0  0  2  0  0  0  0  0  0
  185.8370  179.8230  141.9640 N   0  0  0  0  0  2  0  0  0  0  0  0
  185.0110  179.6240  143.1430 C   0  0  0  0  0  2  0  0  0  0  0  0
  184.2590  178.3100  143.0290 C   0  0  0  0  0  2  0  0  0  0  0  0
  182.9620  178.4630  143.5230 O   0  0  0  0  0  1  0  0  0  0  0  0
  1 20  1  0  0  0  0
  2  6  1  6  0  0  0
  2 10  1  0  0  0  0
  3  9  1  0  0  0  0
  3  7  2  0  0  0  0
  4 10  1  0  0  0  0
  4 15  1  0  0  0  0
  5  7  1  0  0  0  0
  5 11  1  0  0  0  0
  7  2  1  0  0  0  0
  8  4  2  0  0  0  0
  9  6  2  0  0  0  0
 10  1  1  1  0  0  0
 11  8  1  0  0  0  0
 12 13  1  0  0  0  0
 13 14  1  6  0  0  0
 15 16  2  0  0  0  0
 16 13  1  0  0  0  0
 17 15  1  0  0  0  0
 17 12  2  0  0  0  0
 18 19  1  0  0  0  0
 18 20  1  0  0  0  0
 19 20  1  0  0  0  0
 20 21  1  0  0  0  0
 21 29  1  1  0  0  0
 22 28  1  0  0  0  0
 23 21  1  6  0  0  0
 23 26  1  0  0  0  0
 23 27  1  0  0  0  0
 25 28  1  0  0  0  0
 26 25  1  0  0  0  0
 27 22  2  0  0  0  0
 28 24  1  1  0  0  0
 29 30  1  0  0  0  0
 30 31  1  0  0  0  0
 32 31  1  0  0  0  0
 32 33  1  0  0  0  0
M  END
>  <MODEL>
8

>  <REMARK>
 VINA RESULT:      -5.6      2.999      6.108
  Name = 
  9 active torsions:
  status: ('A' for Active; 'I' for Inactive)
    1  A    between atoms: C_5  and  C_9
    2  A    between atoms: C_6  and  C_8
    3  A    between atoms: C_8  and  N_30
    4  A    between atoms: C_9  and  C_17
    5  A    between atoms: C_9  and  C_32
    6  A    between atoms: C_13  and  C_26
    7  A    between atoms: C_17  and  N_30
    8  A    between atoms: N_24  and  C_27
    9  A    between atoms: N_24  and  C_32
                            x       y       z     vdW  Elec       q    Type
                         _______ _______ _______ _____ _____    ______ ____

>  <TORSDO>
F 9

$$$$
=
 OpenBabel10232411153D

 33 37  0  0  1  0  0  0  0  0999 V2000
  187.9970  177.1310  138.5970 N   0  0  0  0  0  2  0  0  0  0  0  0
  186.7760  178.7860  140.1230 C   0  0  2  0  0  3  0  0  0  0  0  0
  185.5970  178.4110  142.1220 N   0  0  0  0  0  0  0  0  0  0  0  0
  185.7020  177.6300  138.1150 C   0  0  0  0  0  0  0  0  0  0  0  0
  184.2810  179.2620  140.3560 N   0  0  0  0  0  2  0  0  0  0  0  0
  187.7780  178.3970  141.2120 C   0  0  0  0  0  3  0  0  0  0  0  0
  185.5040  178.7880  140.8980 C   0  0  0  0  0  0  0  0  0  0  0  0
  184.5110  178.4430  138.1510 N   0  0  0  0  0  0  0  0  0  0  0  0
  186.9570  178.0370  142.4450 C   0  0  0  0  0  3  0  0  0  0  0  0
  186.7710  177.8020  138.9510 C   0  0  1  0  0  3  0  0  0  0  0  0
  184.2530  179.6250  138.9570 C   0  0  0  0  0  2  0  0  0  0  0  0
  186.0050  175.6930  135.0960 C   0  0  0  0  0  3  0  0  0  0  0  0
  185.6340  174.6130  136.0580 C   0  0  1  0  0  3  0  0  0  0  0  0
  186.7700  173.6150  136.1750 C   0  0  0  0  0  1  0  0  0  0  0  0
  185.7170  176.5940  137.0510 C   0  0  0  0  0  0  0  0  0  0  0  0
  185.4950  175.3470  137.3050 N   0  0  0  0  0  0  0  0  0  0  0  0
  186.0470  176.8380  135.6900 N   0  0  0  0  0  0  0  0  0  0  0  0
  188.9860  179.2310  137.7700 C   0  0  0  0  0  2  0  0  0  0  0  0
  188.9590  178.2810  136.5780 C   0  0  0  0  0  2  0  0  0  0  0  0
  189.1700  177.7450  137.9780 C   0  0  0  0  0  0  0  0  0  0  0  0
  190.5620  177.2870  138.4550 C   0  0  2  0  0  3  0  0  0  0  0  0
  191.5130  173.9730  136.9900 C   0  0  0  0  0  3  0  0  0  0  0  0
  191.3060  176.4250  137.4280 C   0  0  1  0  0  3  0  0  0  0  0  0
  193.4700  173.2590  135.8530 O   0  0  0  0  0  1  0  0  0  0  0  0
  193.4860  175.5130  136.6580 C   0  0  0  0  0  2  0  0  0  0  0  0
  192.8150  176.4350  137.6660 C   0  0  0  0  0  2  0  0  0  0  0  0
  190.7400  175.0300  137.2850 C   0  0  0  0  0  3  0  0  0  0  0  0
  193.0130  174.0770  136.8840 C   0  0  1  0  0  3  0  0  0  0  0  0
  190.6760  176.8270  139.9170 C   0  0  0  0  0  2  0  0  0  0  0  0
  191.5960  177.6630  140.6720 N   0  0  0  0  0  2  0  0  0  0  0  0
  191.4280  177.3120  142.0730 C   0  0  0  0  0  2  0  0  0  0  0  0
  190.4430  176.1640  142.2010 C   0  0  0  0  0  2  0  0  0  0  0  0
  190.7250  175.4260  143.3520 O   0  0  0  0  0  1  0  0  0  0  0  0
  2  7  1  0  0  0  0
  2  6  1  1  0  0  0
  3  9  1  0  0  0  0
  4  8  2  0  0  0  0
  4 10  1  0  0  0  0
  5  7  1  0  0  0  0
  6  9  2  0  0  0  0
  7  3  2  0  0  0  0
  8 11  1  0  0  0  0
 10  1  1  6  0  0  0
 10  2  1  0  0  0  0
 11  5  1  0  0  0  0
 12 17  2  0  0  0  0
 12 13  1  0  0  0  0
 13 14  1  1  0  0  0
 13 16  1  0  0  0  0
 15 16  2  0  0  0  0
 15  4  1  0  0  0  0
 17 15  1  0  0  0  0
 18 20  1  0  0  0  0
 19 18  1  0  0  0  0
 19 20  1  0  0  0  0
 20 21  1  0  0  0  0
 20  1  1  0  0  0  0
 21 29  1  1  0  0  0
 22 27  2  0  0  0  0
 23 26  1  0  0  0  0
 23 21  1  1  0  0  0
 25 28  1  0  0  0  0
 25 26  1  0  0  0  0
 27 23  1  0  0  0  0
 28 24  1  6  0  0  0
 28 22  1  0  0  0  0
 29 30  1  0  0  0  0
 30 31  1  0  0  0  0
 31 32  1  0  0  0  0
 32 33  1  0  0  0  0
M  END
>  <MODEL>
9

>  <REMARK>
 VINA RESULT:      -5.6      3.191      6.085
  Name = 
  9 active torsions:
  status: ('A' for Active; 'I' for Inactive)
    1  A    between atoms: C_5  and  C_9
    2  A    between atoms: C_6  and  C_8
    3  A    between atoms: C_8  and  N_30
    4  A    between atoms: C_9  and  C_17
    5  A    between atoms: C_9  and  C_32
    6  A    between atoms: C_13  and  C_26
    7  A    between atoms: C_17  and  N_30
    8  A    between atoms: N_24  and  C_27
    9  A    between atoms: N_24  and  C_32
                            x       y       z     vdW  Elec       q    Type
                         _______ _______ _______ _____ _____    ______ ____

>  <TORSDO>
F 9

$$$$
