=
 OpenBabel10232411593D

 41 49  0  0  1  0  0  0  0  0999 V2000
  185.8710  178.3800  141.6010 C   0  0  0  0  0  0  0  0  0  0  0  0
  186.9030  178.2990  142.4420 C   0  0  0  0  0  3  0  0  0  0  0  0
  184.4720  178.6370  144.3580 C   0  0  0  0  0  0  0  0  0  0  0  0
  183.6570  178.3060  140.6490 C   0  0  1  0  0  3  0  0  0  0  0  0
  184.3720  179.1390  138.2490 C   0  0  0  0  0  2  0  0  0  0  0  0
  184.0090  179.1120  143.0290 C   0  0  1  0  0  3  0  0  0  0  0  0
  183.5120  178.6450  145.2610 C   0  0  0  0  0  2  0  0  0  0  0  0
  184.4380  178.1200  141.9550 C   0  0  2  0  0  3  0  0  0  0  0  0
  182.2320  179.1280  144.6890 C   0  0  0  0  0  2  0  0  0  0  0  0
  186.0910  178.7550  140.1830 C   0  0  0  0  0  2  0  0  0  0  0  0
  185.8200  178.1580  144.6980 C   0  0  0  0  0  3  0  0  0  0  0  0
  184.3700  180.1170  139.2620 O   0  0  0  0  0  0  0  0  0  0  0  0
  182.4900  179.1790  143.1920 C   0  0  0  0  0  2  0  0  0  0  0  0
  186.8900  177.9970  143.8950 C   0  0  2  0  0  3  0  0  0  0  0  0
  184.6850  178.8040  139.6540 C   0  0  2  0  0  0  0  0  0  0  0  0
  190.6390  176.4100  145.5460 C   0  0  2  0  0  3  0  0  0  0  0  0
  191.4230  177.0560  147.6400 C   0  0  0  0  0  2  0  0  0  0  0  0
  188.1700  177.5350  144.5000 C   0  0  0  0  0  0  0  0  0  0  0  0
  189.4950  176.7900  146.3560 N   0  0  0  0  0  0  0  0  0  0  0  0
  188.2580  177.2410  145.8030 C   0  0  0  0  0  3  0  0  0  0  0  0
  189.3900  177.4300  143.6650 C   0  0  0  0  0  3  0  0  0  0  0  0
  189.9130  177.1800  147.6740 C   0  0  0  0  0  2  0  0  0  0  0  0
  191.8230  176.9060  146.2410 N   0  0  0  0  0  2  0  0  0  0  0  0
  190.5490  176.9560  144.1340 C   0  0  0  0  0  0  0  0  0  0  0  0
  191.6380  176.8210  143.2170 N   0  0  0  0  0  2  0  0  0  0  0  0
  191.6720  177.4630  141.9130 C   0  0  0  0  0  1  0  0  0  0  0  0
  183.1140  176.9590  140.1940 C   0  0  0  0  0  2  0  0  0  0  0  0
  181.6080  177.0310  139.9800 C   0  0  0  0  0  2  0  0  0  0  0  0
  181.1220  175.9010  139.0830 C   0  0  0  0  0  2  0  0  0  0  0  0
  185.1420  172.5310  137.1060 C   0  0  0  0  0  2  0  0  0  0  0  0
  184.4650  173.4200  137.9640 O   0  0  0  0  0  0  0  0  0  0  0  0
  182.7430  172.1430  136.3840 C   0  0  0  0  0  2  0  0  0  0  0  0
  182.7550  173.6630  136.2120 C   0  0  1  0  0  3  0  0  0  0  0  0
  181.9740  175.8100  137.8330 C   0  0  1  0  0  3  0  0  0  0  0  0
  184.1610  171.5630  136.4410 C   0  0  0  0  0  2  0  0  0  0  0  0
  182.1910  174.3230  137.4860 C   0  0  2  0  0  0  0  0  0  0  0  0
  181.1900  175.2200  136.7390 C   0  0  0  0  0  2  0  0  0  0  0  0
  183.7140  174.3060  137.1570 C   0  0  1  0  0  0  0  0  0  0  0  0
  184.4580  175.4750  136.5570 C   0  0  0  0  0  0  0  0  0  0  0  0
  185.2910  176.1140  137.2530 O   0  0  0  0  0  1  0  0  0  0  0  0
  184.2640  175.8240  135.2260 O   0  0  0  0  0  0  0  0  0  0  0  0
  1  2  2  0  0  0  0
  2 14  1  0  0  0  0
  3 11  2  0  0  0  0
  3  7  1  0  0  0  0
  4 27  1  6  0  0  0
  4  8  1  0  0  0  0
  5 12  1  0  0  0  0
  6 13  1  1  0  0  0
  6  3  1  0  0  0  0
  8  1  1  6  0  0  0
  8  6  1  0  0  0  0
  9  7  1  0  0  0  0
 10  1  1  0  0  0  0
 12 15  1  0  0  0  0
 13  9  1  0  0  0  0
 14 18  1  1  0  0  0
 14 11  1  0  0  0  0
 15  5  1  6  0  0  0
 15 10  1  0  0  0  0
 15  4  1  0  0  0  0
 16 24  1  6  0  0  0
 16 23  1  0  0  0  0
 16 19  1  0  0  0  0
 17 22  1  0  0  0  0
 18 20  2  0  0  0  0
 19 22  1  0  0  0  0
 20 19  1  0  0  0  0
 21 24  2  0  0  0  0
 21 18  1  0  0  0  0
 23 17  1  0  0  0  0
 25 24  1  0  0  0  0
 26 25  1  0  0  0  0
 28 27  1  0  0  0  0
 29 28  1  0  0  0  0
 30 31  1  0  0  0  0
 32 35  1  0  0  0  0
 33 32  1  1  0  0  0
 33 38  1  0  0  0  0
 33 36  1  0  0  0  0
 34 29  1  1  0  0  0
 35 30  1  0  0  0  0
 36 37  1  6  0  0  0
 36 34  1  0  0  0  0
 37 34  1  0  0  0  0
 38 39  1  6  0  0  0
 38 36  1  0  0  0  0
 38 31  1  0  0  0  0
 39 40  1  0  0  0  0
 41 39  2  0  0  0  0
M  END
>  <MODEL>
1

>  <REMARK>
 VINA RESULT:      -9.3      0.000      0.000
  Name = 
  7 active torsions:
  status: ('A' for Active; 'I' for Inactive)
    1  A    between atoms: C_7  and  C_30
    2  A    between atoms: C_8  and  C_32
    3  A    between atoms: C_12  and  C_17
    4  A    between atoms: C_12  and  C_32
    5  A    between atoms: N_15  and  C_41
    6  A    between atoms: C_17  and  C_25
    7  A    between atoms: C_24  and  C_35
                            x       y       z     vdW  Elec       q    Type
                         _______ _______ _______ _____ _____    ______ ____

>  <TORSDO>
F 7

$$$$
=
 OpenBabel10232411593D

 41 49  0  0  1  0  0  0  0  0999 V2000
  188.1580  178.2420  140.3340 C   0  0  0  0  0  0  0  0  0  0  0  0
  188.3550  178.3250  141.6510 C   0  0  0  0  0  3  0  0  0  0  0  0
  185.2640  178.5990  141.3940 C   0  0  0  0  0  0  0  0  0  0  0  0
  187.1630  177.8850  138.1670 C   0  0  1  0  0  3  0  0  0  0  0  0
  189.2980  178.5770  136.7790 C   0  0  0  0  0  2  0  0  0  0  0  0
  185.8110  178.9160  140.0510 C   0  0  1  0  0  3  0  0  0  0  0  0
  183.9470  178.5940  141.4170 C   0  0  0  0  0  2  0  0  0  0  0  0
  186.8630  177.8820  139.6710 C   0  0  2  0  0  3  0  0  0  0  0  0
  183.3800  178.9080  140.0830 C   0  0  0  0  0  2  0  0  0  0  0  0
  189.2710  178.5150  139.3940 C   0  0  0  0  0  2  0  0  0  0  0  0
  186.0370  178.2750  142.6030 C   0  0  0  0  0  3  0  0  0  0  0  0
  188.6040  179.6320  137.4010 O   0  0  0  0  0  0  0  0  0  0  0  0
  184.5780  178.8570  139.1490 C   0  0  0  0  0  2  0  0  0  0  0  0
  187.3700  178.1460  142.7470 C   0  0  2  0  0  3  0  0  0  0  0  0
  188.5870  178.3900  138.0610 C   0  0  2  0  0  0  0  0  0  0  0  0
  189.0310  177.0460  146.6630 C   0  0  2  0  0  3  0  0  0  0  0  0
  188.2890  178.0440  148.6300 C   0  0  0  0  0  2  0  0  0  0  0  0
  187.9150  177.8550  144.1030 C   0  0  0  0  0  0  0  0  0  0  0  0
  187.6590  177.4750  146.4580 N   0  0  0  0  0  0  0  0  0  0  0  0
  187.1130  177.7660  145.1700 C   0  0  0  0  0  3  0  0  0  0  0  0
  189.3760  177.6980  144.2970 C   0  0  0  0  0  3  0  0  0  0  0  0
  187.1330  178.0830  147.6490 C   0  0  0  0  0  2  0  0  0  0  0  0
  189.4970  177.7090  147.8780 N   0  0  0  0  0  2  0  0  0  0  0  0
  189.9180  177.3680  145.4740 C   0  0  0  0  0  0  0  0  0  0  0  0
  191.3320  177.1610  145.5270 N   0  0  0  0  0  2  0  0  0  0  0  0
  191.9550  176.0640  146.2500 C   0  0  0  0  0  1  0  0  0  0  0  0
  187.0830  176.4620  137.6370 C   0  0  0  0  0  2  0  0  0  0  0  0
  186.6500  176.4550  136.1770 C   0  0  0  0  0  2  0  0  0  0  0  0
  185.3720  177.2550  135.9750 C   0  0  0  0  0  2  0  0  0  0  0  0
  181.3670  175.5210  139.4940 C   0  0  0  0  0  2  0  0  0  0  0  0
  182.6500  175.7580  138.9650 O   0  0  0  0  0  0  0  0  0  0  0  0
  180.8800  177.4550  137.9290 C   0  0  0  0  0  2  0  0  0  0  0  0
  181.5580  176.5430  136.9060 C   0  0  1  0  0  3  0  0  0  0  0  0
  184.1700  176.3340  135.9170 C   0  0  1  0  0  3  0  0  0  0  0  0
  180.4230  176.6810  139.1710 C   0  0  0  0  0  2  0  0  0  0  0  0
  183.0480  176.9210  136.7970 C   0  0  2  0  0  0  0  0  0  0  0  0
  183.0480  177.0200  135.2620 C   0  0  0  0  0  2  0  0  0  0  0  0
  182.5610  175.6510  137.5570 C   0  0  1  0  0  0  0  0  0  0  0  0
  182.5960  174.2580  136.9770 C   0  0  0  0  0  0  0  0  0  0  0  0
  183.4950  173.4510  137.3340 O   0  0  0  0  0  1  0  0  0  0  0  0
  181.6150  173.8430  136.0840 O   0  0  0  0  0  0  0  0  0  0  0  0
  1  2  2  0  0  0  0
  2 14  1  0  0  0  0
  3  7  1  0  0  0  0
  3 11  2  0  0  0  0
  4 27  1  1  0  0  0
  4  8  1  0  0  0  0
  5 12  1  0  0  0  0
  6 13  1  6  0  0  0
  6  3  1  0  0  0  0
  8  6  1  0  0  0  0
  8  1  1  1  0  0  0
  9  7  1  0  0  0  0
 10  1  1  0  0  0  0
 11 14  1  0  0  0  0
 12 15  1  0  0  0  0
 13  9  1  0  0  0  0
 14 18  1  1  0  0  0
 15  5  1  6  0  0  0
 15  4  1  0  0  0  0
 15 10  1  0  0  0  0
 16 24  1  6  0  0  0
 16 23  1  0  0  0  0
 18 21  1  0  0  0  0
 18 20  2  0  0  0  0
 19 16  1  0  0  0  0
 19 22  1  0  0  0  0
 20 19  1  0  0  0  0
 21 24  2  0  0  0  0
 22 17  1  0  0  0  0
 23 17  1  0  0  0  0
 24 25  1  0  0  0  0
 25 26  1  0  0  0  0
 28 27  1  0  0  0  0
 29 28  1  0  0  0  0
 31 30  1  0  0  0  0
 32 35  1  0  0  0  0
 33 38  1  0  0  0  0
 33 32  1  1  0  0  0
 34 29  1  1  0  0  0
 34 36  1  0  0  0  0
 35 30  1  0  0  0  0
 36 37  1  6  0  0  0
 36 33  1  0  0  0  0
 36 38  1  0  0  0  0
 37 34  1  0  0  0  0
 38 39  1  6  0  0  0
 38 31  1  0  0  0  0
 39 40  1  0  0  0  0
 41 39  2  0  0  0  0
M  END
>  <MODEL>
2

>  <REMARK>
 VINA RESULT:      -9.2      2.031      3.663
  Name = 
  7 active torsions:
  status: ('A' for Active; 'I' for Inactive)
    1  A    between atoms: C_7  and  C_30
    2  A    between atoms: C_8  and  C_32
    3  A    between atoms: C_12  and  C_17
    4  A    between atoms: C_12  and  C_32
    5  A    between atoms: N_15  and  C_41
    6  A    between atoms: C_17  and  C_25
    7  A    between atoms: C_24  and  C_35
                            x       y       z     vdW  Elec       q    Type
                         _______ _______ _______ _____ _____    ______ ____

>  <TORSDO>
F 7

$$$$
=
 OpenBabel10232411593D

 41 49  0  0  1  0  0  0  0  0999 V2000
  185.7620  178.4280  141.4980 C   0  0  0  0  0  0  0  0  0  0  0  0
  186.8310  178.3840  142.2940 C   0  0  0  0  0  3  0  0  0  0  0  0
  184.4770  178.6880  144.3090 C   0  0  0  0  0  0  0  0  0  0  0  0
  183.5110  178.2850  140.6440 C   0  0  1  0  0  3  0  0  0  0  0  0
  184.1000  179.1020  138.2050 C   0  0  0  0  0  2  0  0  0  0  0  0
  183.9450  179.1320  142.9960 C   0  0  1  0  0  3  0  0  0  0  0  0
  183.5580  178.6840  145.2530 C   0  0  0  0  0  2  0  0  0  0  0  0
  184.3530  178.1370  141.9180 C   0  0  2  0  0  3  0  0  0  0  0  0
  182.2420  179.1260  144.7320 C   0  0  0  0  0  2  0  0  0  0  0  0
  185.9110  178.7890  140.0670 C   0  0  0  0  0  2  0  0  0  0  0  0
  185.8510  178.2470  144.5970 C   0  0  0  0  0  3  0  0  0  0  0  0
  184.1170  180.0940  139.2040 O   0  0  0  0  0  0  0  0  0  0  0  0
  182.4340  179.1630  143.2240 C   0  0  0  0  0  2  0  0  0  0  0  0
  186.8880  178.1020  143.7500 C   0  0  2  0  0  3  0  0  0  0  0  0
  184.4820  178.7940  139.6000 C   0  0  2  0  0  0  0  0  0  0  0  0
  190.8170  177.1080  145.4460 C   0  0  2  0  0  3  0  0  0  0  0  0
  192.0620  175.3010  144.6730 C   0  0  0  0  0  2  0  0  0  0  0  0
  188.2050  177.6800  144.3040 C   0  0  0  0  0  0  0  0  0  0  0  0
  190.4510  176.8720  144.0610 N   0  0  0  0  0  0  0  0  0  0  0  0
  189.1940  177.2610  143.5050 C   0  0  0  0  0  3  0  0  0  0  0  0
  188.4290  177.6830  145.7690 C   0  0  0  0  0  3  0  0  0  0  0  0
  191.2040  175.7760  143.5160 C   0  0  0  0  0  2  0  0  0  0  0  0
  191.5490  175.9260  145.8910 N   0  0  0  0  0  2  0  0  0  0  0  0
  189.6090  177.3820  146.3220 C   0  0  0  0  0  0  0  0  0  0  0  0
  189.7340  177.4980  147.7420 N   0  0  0  0  0  2  0  0  0  0  0  0
  188.6910  178.0400  148.5960 C   0  0  0  0  0  1  0  0  0  0  0  0
  182.9840  176.9190  140.2300 C   0  0  0  0  0  2  0  0  0  0  0  0
  181.4840  176.9770  139.9740 C   0  0  0  0  0  2  0  0  0  0  0  0
  181.0350  175.8440  139.0610 C   0  0  0  0  0  2  0  0  0  0  0  0
  185.1330  172.5220  137.1660 C   0  0  0  0  0  2  0  0  0  0  0  0
  184.4270  173.3990  138.0110 O   0  0  0  0  0  0  0  0  0  0  0  0
  182.7570  172.1180  136.3810 C   0  0  0  0  0  2  0  0  0  0  0  0
  182.7600  173.6380  136.2190 C   0  0  1  0  0  3  0  0  0  0  0  0
  181.9190  175.7680  137.8330 C   0  0  1  0  0  3  0  0  0  0  0  0
  184.1780  171.5500  136.4710 C   0  0  0  0  0  2  0  0  0  0  0  0
  182.1580  174.2850  137.4820 C   0  0  2  0  0  0  0  0  0  0  0  0
  181.1680  175.1790  136.7160 C   0  0  0  0  0  2  0  0  0  0  0  0
  183.6890  174.2840  137.1910 C   0  0  1  0  0  0  0  0  0  0  0  0
  184.4370  175.4640  136.6170 C   0  0  0  0  0  0  0  0  0  0  0  0
  185.2430  176.1080  137.3400 O   0  0  0  0  0  1  0  0  0  0  0  0
  184.2770  175.8170  135.2830 O   0  0  0  0  0  0  0  0  0  0  0  0
  1  2  2  0  0  0  0
  2 14  1  0  0  0  0
  3 11  2  0  0  0  0
  3  7  1  0  0  0  0
  4 27  1  6  0  0  0
  4  8  1  0  0  0  0
  5 12  1  0  0  0  0
  6 13  1  1  0  0  0
  6  3  1  0  0  0  0
  8  1  1  6  0  0  0
  8  6  1  0  0  0  0
  9  7  1  0  0  0  0
 10  1  1  0  0  0  0
 12 15  1  0  0  0  0
 13  9  1  0  0  0  0
 14 18  1  1  0  0  0
 14 11  1  0  0  0  0
 15  5  1  6  0  0  0
 15 10  1  0  0  0  0
 15  4  1  0  0  0  0
 16 23  1  1  0  0  0
 16 24  1  0  0  0  0
 17 23  1  0  0  0  0
 18 21  1  0  0  0  0
 19 16  1  0  0  0  0
 20 19  1  0  0  0  0
 20 18  2  0  0  0  0
 21 24  2  0  0  0  0
 22 19  1  0  0  0  0
 22 17  1  0  0  0  0
 24 25  1  0  0  0  0
 25 26  1  0  0  0  0
 28 27  1  0  0  0  0
 29 28  1  0  0  0  0
 30 31  1  0  0  0  0
 32 35  1  0  0  0  0
 33 32  1  1  0  0  0
 33 38  1  0  0  0  0
 33 36  1  0  0  0  0
 34 29  1  1  0  0  0
 35 30  1  0  0  0  0
 36 37  1  6  0  0  0
 36 34  1  0  0  0  0
 37 34  1  0  0  0  0
 38 39  1  6  0  0  0
 38 36  1  0  0  0  0
 38 31  1  0  0  0  0
 39 40  1  0  0  0  0
 41 39  2  0  0  0  0
M  END
>  <MODEL>
3

>  <REMARK>
 VINA RESULT:      -9.1      0.728      1.831
  Name = 
  7 active torsions:
  status: ('A' for Active; 'I' for Inactive)
    1  A    between atoms: C_7  and  C_30
    2  A    between atoms: C_8  and  C_32
    3  A    between atoms: C_12  and  C_17
    4  A    between atoms: C_12  and  C_32
    5  A    between atoms: N_15  and  C_41
    6  A    between atoms: C_17  and  C_25
    7  A    between atoms: C_24  and  C_35
                            x       y       z     vdW  Elec       q    Type
                         _______ _______ _______ _____ _____    ______ ____

>  <TORSDO>
F 7

$$$$
=
 OpenBabel10232411593D

 41 49  0  0  1  0  0  0  0  0999 V2000
  184.1210  178.9400  140.5850 C   0  0  0  0  0  0  0  0  0  0  0  0
  185.2480  178.9360  141.2990 C   0  0  0  0  0  3  0  0  0  0  0  0
  183.0440  178.6610  143.4810 C   0  0  0  0  0  0  0  0  0  0  0  0
  181.8440  178.6100  139.8630 C   0  0  1  0  0  3  0  0  0  0  0  0
  182.1300  179.8060  137.5280 C   0  0  0  0  0  2  0  0  0  0  0  0
  182.3580  179.1970  142.2780 C   0  0  1  0  0  3  0  0  0  0  0  0
  182.2110  178.4130  144.4710 C   0  0  0  0  0  2  0  0  0  0  0  0
  182.7970  178.4120  141.0480 C   0  0  2  0  0  3  0  0  0  0  0  0
  180.8130  178.7400  144.0990 C   0  0  0  0  0  2  0  0  0  0  0  0
  184.1090  179.4990  139.2110 C   0  0  0  0  0  2  0  0  0  0  0  0
  184.4800  178.3740  143.6170 C   0  0  0  0  0  3  0  0  0  0  0  0
  182.1050  180.6540  138.6520 O   0  0  0  0  0  0  0  0  0  0  0  0
  180.8770  178.9960  142.6030 C   0  0  0  0  0  2  0  0  0  0  0  0
  185.4570  178.4790  142.6950 C   0  0  2  0  0  3  0  0  0  0  0  0
  182.6580  179.3750  138.8400 C   0  0  2  0  0  0  0  0  0  0  0  0
  189.5860  177.7900  144.0260 C   0  0  2  0  0  3  0  0  0  0  0  0
  191.0860  176.5400  142.7600 C   0  0  0  0  0  2  0  0  0  0  0  0
  186.8560  178.1690  143.1020 C   0  0  0  0  0  0  0  0  0  0  0  0
  189.1920  177.8940  142.6320 N   0  0  0  0  0  0  0  0  0  0  0  0
  187.8570  178.1850  142.2140 C   0  0  0  0  0  3  0  0  0  0  0  0
  187.1550  177.7950  144.5040 C   0  0  0  0  0  3  0  0  0  0  0  0
  190.0960  177.1580  141.7920 C   0  0  0  0  0  2  0  0  0  0  0  0
  190.5390  176.6860  144.1080 N   0  0  0  0  0  2  0  0  0  0  0  0
  188.3990  177.5740  144.9450 C   0  0  0  0  0  0  0  0  0  0  0  0
  188.5790  177.3020  146.3370 N   0  0  0  0  0  2  0  0  0  0  0  0
  187.6100  177.6670  147.3570 C   0  0  0  0  0  1  0  0  0  0  0  0
  181.4580  177.2510  139.2980 C   0  0  0  0  0  2  0  0  0  0  0  0
  182.5380  176.2190  139.5950 C   0  0  0  0  0  2  0  0  0  0  0  0
  183.0580  175.5790  138.3150 C   0  0  0  0  0  2  0  0  0  0  0  0
  188.3180  174.9950  136.4680 C   0  0  0  0  0  2  0  0  0  0  0  0
  187.2160  174.9880  137.3450 O   0  0  0  0  0  0  0  0  0  0  0  0
  186.4040  174.8070  134.8160 C   0  0  0  0  0  2  0  0  0  0  0  0
  185.9020  176.0480  135.5570 C   0  0  1  0  0  3  0  0  0  0  0  0
  184.1070  176.4590  137.6680 C   0  0  1  0  0  3  0  0  0  0  0  0
  187.8960  174.5590  135.0630 C   0  0  0  0  0  2  0  0  0  0  0  0
  184.9070  175.6180  136.6520 C   0  0  2  0  0  0  0  0  0  0  0  0
  183.8120  176.6150  136.2380 C   0  0  0  0  0  2  0  0  0  0  0  0
  186.3660  176.0570  136.9740 C   0  0  1  0  0  0  0  0  0  0  0  0
  186.7410  177.4300  137.4780 C   0  0  0  0  0  0  0  0  0  0  0  0
  187.1010  177.5840  138.6750 O   0  0  0  0  0  1  0  0  0  0  0  0
  186.7340  178.5200  136.6170 O   0  0  0  0  0  0  0  0  0  0  0  0
  1  2  2  0  0  0  0
  2 14  1  0  0  0  0
  3 11  2  0  0  0  0
  3  7  1  0  0  0  0
  4 27  1  6  0  0  0
  4  8  1  0  0  0  0
  5 12  1  0  0  0  0
  6 13  1  1  0  0  0
  6  3  1  0  0  0  0
  8  1  1  6  0  0  0
  8  6  1  0  0  0  0
  9  7  1  0  0  0  0
 10  1  1  0  0  0  0
 12 15  1  0  0  0  0
 13  9  1  0  0  0  0
 14 18  1  1  0  0  0
 14 11  1  0  0  0  0
 15  5  1  6  0  0  0
 15 10  1  0  0  0  0
 15  4  1  0  0  0  0
 16 23  1  6  0  0  0
 16 24  1  0  0  0  0
 17 23  1  0  0  0  0
 18 21  1  0  0  0  0
 19 16  1  0  0  0  0
 20 19  1  0  0  0  0
 20 18  2  0  0  0  0
 21 24  2  0  0  0  0
 22 19  1  0  0  0  0
 22 17  1  0  0  0  0
 24 25  1  0  0  0  0
 25 26  1  0  0  0  0
 27 28  1  0  0  0  0
 29 28  1  0  0  0  0
 30 31  1  0  0  0  0
 32 35  1  0  0  0  0
 33 32  1  6  0  0  0
 33 36  1  0  0  0  0
 33 38  1  0  0  0  0
 34 29  1  1  0  0  0
 35 30  1  0  0  0  0
 36 37  1  6  0  0  0
 36 38  1  0  0  0  0
 36 34  1  0  0  0  0
 37 34  1  0  0  0  0
 38 31  1  0  0  0  0
 38 39  1  1  0  0  0
 39 40  1  0  0  0  0
 41 39  2  0  0  0  0
M  END
>  <MODEL>
4

>  <REMARK>
 VINA RESULT:      -9.1      1.972      3.151
  Name = 
  7 active torsions:
  status: ('A' for Active; 'I' for Inactive)
    1  A    between atoms: C_7  and  C_30
    2  A    between atoms: C_8  and  C_32
    3  A    between atoms: C_12  and  C_17
    4  A    between atoms: C_12  and  C_32
    5  A    between atoms: N_15  and  C_41
    6  A    between atoms: C_17  and  C_25
    7  A    between atoms: C_24  and  C_35
                            x       y       z     vdW  Elec       q    Type
                         _______ _______ _______ _____ _____    ______ ____

>  <TORSDO>
F 7

$$$$
=
 OpenBabel10232411593D

 41 49  0  0  1  0  0  0  0  0999 V2000
  184.4200  178.8630  140.3240 C   0  0  0  0  0  0  0  0  0  0  0  0
  185.6560  178.8240  140.8260 C   0  0  0  0  0  3  0  0  0  0  0  0
  183.8690  178.6590  143.3700 C   0  0  0  0  0  0  0  0  0  0  0  0
  182.0410  178.6110  140.0250 C   0  0  1  0  0  3  0  0  0  0  0  0
  181.9480  179.7680  137.6560 C   0  0  0  0  0  2  0  0  0  0  0  0
  182.9980  179.2060  142.2990 C   0  0  1  0  0  3  0  0  0  0  0  0
  183.2180  178.4540  144.4970 C   0  0  0  0  0  2  0  0  0  0  0  0
  183.1830  178.3910  141.0260 C   0  0  2  0  0  3  0  0  0  0  0  0
  181.7880  178.8290  144.3740 C   0  0  0  0  0  2  0  0  0  0  0  0
  184.1830  179.4060  138.9650 C   0  0  0  0  0  2  0  0  0  0  0  0
  185.2950  178.3190  143.2540 C   0  0  0  0  0  3  0  0  0  0  0  0
  182.1530  180.6290  138.7510 O   0  0  0  0  0  0  0  0  0  0  0  0
  181.5930  179.0660  142.8860 C   0  0  0  0  0  2  0  0  0  0  0  0
  186.0940  178.3760  142.1710 C   0  0  2  0  0  3  0  0  0  0  0  0
  182.6850  179.3320  138.8600 C   0  0  2  0  0  0  0  0  0  0  0  0
  190.2810  177.0900  142.5170 C   0  0  2  0  0  3  0  0  0  0  0  0
  191.6530  177.8420  144.2390 C   0  0  0  0  0  2  0  0  0  0  0  0
  187.5310  178.0170  142.3280 C   0  0  0  0  0  0  0  0  0  0  0  0
  189.4370  177.4120  143.6540 N   0  0  0  0  0  0  0  0  0  0  0  0
  188.0580  177.7640  143.5320 C   0  0  0  0  0  3  0  0  0  0  0  0
  188.4180  177.9730  141.1420 C   0  0  0  0  0  3  0  0  0  0  0  0
  190.2300  177.8650  144.7630 C   0  0  0  0  0  2  0  0  0  0  0  0
  191.5870  177.6820  142.7870 N   0  0  0  0  0  2  0  0  0  0  0  0
  189.6980  177.5900  141.2090 C   0  0  0  0  0  0  0  0  0  0  0  0
  190.4380  177.5050  139.9880 N   0  0  0  0  0  2  0  0  0  0  0  0
  190.1630  176.5250  138.9510 C   0  0  0  0  0  1  0  0  0  0  0  0
  181.5120  177.2610  139.5630 C   0  0  0  0  0  2  0  0  0  0  0  0
  182.5670  176.1790  139.7470 C   0  0  0  0  0  2  0  0  0  0  0  0
  182.7580  175.3700  138.4720 C   0  0  0  0  0  2  0  0  0  0  0  0
  187.8370  174.2820  136.3640 C   0  0  0  0  0  2  0  0  0  0  0  0
  186.8170  174.4990  137.3110 O   0  0  0  0  0  0  0  0  0  0  0  0
  185.7850  173.7450  134.9750 C   0  0  0  0  0  2  0  0  0  0  0  0
  185.3450  175.1320  135.4450 C   0  0  1  0  0  3  0  0  0  0  0  0
  183.7430  176.0570  137.5480 C   0  0  1  0  0  3  0  0  0  0  0  0
  187.2950  173.5370  135.1420 C   0  0  0  0  0  2  0  0  0  0  0  0
  184.4520  174.9870  136.6920 C   0  0  2  0  0  0  0  0  0  0  0  0
  183.3220  175.8780  136.1520 C   0  0  0  0  0  2  0  0  0  0  0  0
  185.9330  175.4650  136.7750 C   0  0  1  0  0  0  0  0  0  0  0  0
  186.3450  176.9120  136.9070 C   0  0  0  0  0  0  0  0  0  0  0  0
  186.8560  177.3240  137.9820 O   0  0  0  0  0  1  0  0  0  0  0  0
  186.2050  177.7840  135.8350 O   0  0  0  0  0  0  0  0  0  0  0  0
  1  2  2  0  0  0  0
  2 14  1  0  0  0  0
  3  7  1  0  0  0  0
  4 27  1  6  0  0  0
  4  8  1  0  0  0  0
  5 12  1  0  0  0  0
  6 13  1  1  0  0  0
  6  3  1  0  0  0  0
  8  1  1  6  0  0  0
  8  6  1  0  0  0  0
  9  7  1  0  0  0  0
 10  1  1  0  0  0  0
 11  3  2  0  0  0  0
 12 15  1  0  0  0  0
 13  9  1  0  0  0  0
 14 18  1  1  0  0  0
 14 11  1  0  0  0  0
 15  5  1  6  0  0  0
 15 10  1  0  0  0  0
 15  4  1  0  0  0  0
 16 24  1  6  0  0  0
 16 23  1  0  0  0  0
 16 19  1  0  0  0  0
 17 22  1  0  0  0  0
 18 20  2  0  0  0  0
 19 22  1  0  0  0  0
 20 19  1  0  0  0  0
 21 24  2  0  0  0  0
 21 18  1  0  0  0  0
 23 17  1  0  0  0  0
 25 24  1  0  0  0  0
 26 25  1  0  0  0  0
 27 28  1  0  0  0  0
 29 28  1  0  0  0  0
 30 31  1  0  0  0  0
 32 35  1  0  0  0  0
 33 32  1  1  0  0  0
 33 36  1  0  0  0  0
 33 38  1  0  0  0  0
 34 29  1  1  0  0  0
 35 30  1  0  0  0  0
 36 37  1  6  0  0  0
 36 38  1  0  0  0  0
 36 34  1  0  0  0  0
 37 34  1  0  0  0  0
 38 39  1  1  0  0  0
 38 31  1  0  0  0  0
 39 40  1  0  0  0  0
 41 39  2  0  0  0  0
M  END
>  <MODEL>
5

>  <REMARK>
 VINA RESULT:      -9.0      1.845      2.496
  Name = 
  7 active torsions:
  status: ('A' for Active; 'I' for Inactive)
    1  A    between atoms: C_7  and  C_30
    2  A    between atoms: C_8  and  C_32
    3  A    between atoms: C_12  and  C_17
    4  A    between atoms: C_12  and  C_32
    5  A    between atoms: N_15  and  C_41
    6  A    between atoms: C_17  and  C_25
    7  A    between atoms: C_24  and  C_35
                            x       y       z     vdW  Elec       q    Type
                         _______ _______ _______ _____ _____    ______ ____

>  <TORSDO>
F 7

$$$$
=
 OpenBabel10232411593D

 41 49  0  0  1  0  0  0  0  0999 V2000
  188.5400  178.1110  140.2800 C   0  0  0  0  0  0  0  0  0  0  0  0
  188.9190  178.1790  141.5570 C   0  0  0  0  0  3  0  0  0  0  0  0
  185.8210  178.4350  141.7370 C   0  0  0  0  0  0  0  0  0  0  0  0
  187.2540  177.7760  138.2670 C   0  0  1  0  0  3  0  0  0  0  0  0
  189.1710  178.4990  136.6050 C   0  0  0  0  0  2  0  0  0  0  0  0
  186.1740  178.7740  140.3350 C   0  0  1  0  0  3  0  0  0  0  0  0
  184.5190  178.4210  141.9430 C   0  0  0  0  0  2  0  0  0  0  0  0
  187.1670  177.7510  139.7980 C   0  0  2  0  0  3  0  0  0  0  0  0
  183.7710  178.7480  140.7060 C   0  0  0  0  0  2  0  0  0  0  0  0
  189.5090  178.4040  139.1970 C   0  0  0  0  0  2  0  0  0  0  0  0
  186.7560  178.1010  142.8220 C   0  0  0  0  0  3  0  0  0  0  0  0
  188.5650  179.5410  137.3320 O   0  0  0  0  0  0  0  0  0  0  0  0
  184.8270  178.7180  139.6130 C   0  0  0  0  0  2  0  0  0  0  0  0
  188.0970  177.9790  142.7770 C   0  0  2  0  0  3  0  0  0  0  0  0
  188.6470  178.2920  137.9710 C   0  0  2  0  0  0  0  0  0  0  0  0
  190.2040  177.3270  146.5760 C   0  0  2  0  0  3  0  0  0  0  0  0
  191.9340  175.7820  146.7650 C   0  0  0  0  0  2  0  0  0  0  0  0
  188.8270  177.6750  144.0390 C   0  0  0  0  0  0  0  0  0  0  0  0
  190.8270  177.1900  145.2720 N   0  0  0  0  0  0  0  0  0  0  0  0
  190.1490  177.4700  144.0460 C   0  0  0  0  0  3  0  0  0  0  0  0
  188.0830  177.5550  145.3160 C   0  0  0  0  0  3  0  0  0  0  0  0
  191.9220  176.2610  145.3270 C   0  0  0  0  0  2  0  0  0  0  0  0
  190.6800  176.2080  147.3840 N   0  0  0  0  0  2  0  0  0  0  0  0
  188.6900  177.3530  146.4900 C   0  0  0  0  0  0  0  0  0  0  0  0
  187.8800  177.3360  147.6690 N   0  0  0  0  0  2  0  0  0  0  0  0
  188.2320  178.0380  148.8920 C   0  0  0  0  0  1  0  0  0  0  0  0
  187.1080  176.3580  137.7340 C   0  0  0  0  0  2  0  0  0  0  0  0
  186.5050  176.3690  136.3360 C   0  0  0  0  0  2  0  0  0  0  0  0
  185.2940  177.2880  136.2630 C   0  0  0  0  0  2  0  0  0  0  0  0
  181.3170  175.6860  139.8740 C   0  0  0  0  0  2  0  0  0  0  0  0
  182.5910  175.8450  139.2950 O   0  0  0  0  0  0  0  0  0  0  0  0
  180.9320  177.7500  138.4530 C   0  0  0  0  0  2  0  0  0  0  0  0
  181.4790  176.8490  137.3450 C   0  0  1  0  0  3  0  0  0  0  0  0
  184.0140  176.4780  136.2120 C   0  0  1  0  0  3  0  0  0  0  0  0
  180.4660  176.9410  139.6700 C   0  0  0  0  0  2  0  0  0  0  0  0
  182.9900  177.1040  137.1820 C   0  0  2  0  0  0  0  0  0  0  0  0
  182.9290  177.2990  135.6580 C   0  0  0  0  0  2  0  0  0  0  0  0
  182.4280  175.8350  137.8900 C   0  0  1  0  0  0  0  0  0  0  0  0
  182.3120  174.4830  137.2280 C   0  0  0  0  0  0  0  0  0  0  0  0
  181.2980  174.2090  136.5320 O   0  0  0  0  0  0  0  0  0  0  0  0
  183.3380  173.5530  137.3440 O   0  0  0  0  0  1  0  0  0  0  0  0
  1  2  2  0  0  0  0
  2 14  1  0  0  0  0
  3  7  1  0  0  0  0
  3 11  2  0  0  0  0
  4 27  1  1  0  0  0
  4  8  1  0  0  0  0
  5 12  1  0  0  0  0
  6 13  1  6  0  0  0
  6  3  1  0  0  0  0
  8  1  1  1  0  0  0
  8  6  1  0  0  0  0
  9  7  1  0  0  0  0
 10  1  1  0  0  0  0
 12 15  1  0  0  0  0
 13  9  1  0  0  0  0
 14 11  1  0  0  0  0
 14 18  1  1  0  0  0
 15  5  1  6  0  0  0
 15  4  1  0  0  0  0
 15 10  1  0  0  0  0
 16 24  1  6  0  0  0
 16 23  1  0  0  0  0
 17 23  1  0  0  0  0
 18 20  2  0  0  0  0
 18 21  1  0  0  0  0
 19 22  1  0  0  0  0
 19 16  1  0  0  0  0
 20 19  1  0  0  0  0
 21 24  2  0  0  0  0
 22 17  1  0  0  0  0
 24 25  1  0  0  0  0
 25 26  1  0  0  0  0
 28 27  1  0  0  0  0
 29 28  1  0  0  0  0
 31 30  1  0  0  0  0
 32 35  1  0  0  0  0
 33 38  1  0  0  0  0
 33 32  1  1  0  0  0
 34 29  1  1  0  0  0
 34 36  1  0  0  0  0
 35 30  1  0  0  0  0
 36 37  1  6  0  0  0
 36 33  1  0  0  0  0
 36 38  1  0  0  0  0
 37 34  1  0  0  0  0
 38 39  1  6  0  0  0
 38 31  1  0  0  0  0
 39 41  1  0  0  0  0
 40 39  2  0  0  0  0
M  END
>  <MODEL>
6

>  <REMARK>
 VINA RESULT:      -9.0      2.063      3.950
  Name = 
  7 active torsions:
  status: ('A' for Active; 'I' for Inactive)
    1  A    between atoms: C_7  and  C_30
    2  A    between atoms: C_8  and  C_32
    3  A    between atoms: C_12  and  C_17
    4  A    between atoms: C_12  and  C_32
    5  A    between atoms: N_15  and  C_41
    6  A    between atoms: C_17  and  C_25
    7  A    between atoms: C_24  and  C_35
                            x       y       z     vdW  Elec       q    Type
                         _______ _______ _______ _____ _____    ______ ____

>  <TORSDO>
F 7

$$$$
=
 OpenBabel10232411593D

 41 49  0  0  1  0  0  0  0  0999 V2000
  188.1990  178.1450  140.2970 C   0  0  0  0  0  0  0  0  0  0  0  0
  188.3880  178.2380  141.6140 C   0  0  0  0  0  3  0  0  0  0  0  0
  185.2950  178.4720  141.3370 C   0  0  0  0  0  0  0  0  0  0  0  0
  187.2220  177.7630  138.1260 C   0  0  1  0  0  3  0  0  0  0  0  0
  189.3570  178.4730  136.7460 C   0  0  0  0  0  2  0  0  0  0  0  0
  185.8460  178.7880  139.9950 C   0  0  1  0  0  3  0  0  0  0  0  0
  183.9780  178.4500  141.3520 C   0  0  0  0  0  2  0  0  0  0  0  0
  186.9130  177.7650  139.6280 C   0  0  2  0  0  3  0  0  0  0  0  0
  183.4150  178.7490  140.0130 C   0  0  0  0  0  2  0  0  0  0  0  0
  189.3150  178.4270  139.3610 C   0  0  0  0  0  2  0  0  0  0  0  0
  186.0650  178.1640  142.5530 C   0  0  0  0  0  3  0  0  0  0  0  0
  188.6460  179.5230  137.3580 O   0  0  0  0  0  0  0  0  0  0  0  0
  184.6190  178.7080  139.0860 C   0  0  0  0  0  2  0  0  0  0  0  0
  187.3980  178.0530  142.7050 C   0  0  2  0  0  3  0  0  0  0  0  0
  188.6400  178.2850  138.0260 C   0  0  2  0  0  0  0  0  0  0  0  0
  189.0470  176.9970  146.6380 C   0  0  2  0  0  3  0  0  0  0  0  0
  188.2910  178.0090  148.5930 C   0  0  0  0  0  2  0  0  0  0  0  0
  187.9380  177.7770  144.0660 C   0  0  0  0  0  0  0  0  0  0  0  0
  187.6740  177.4180  146.4230 N   0  0  0  0  0  0  0  0  0  0  0  0
  187.1310  177.6940  145.1300 C   0  0  0  0  0  3  0  0  0  0  0  0
  189.3990  177.6280  144.2680 C   0  0  0  0  0  3  0  0  0  0  0  0
  187.1390  178.0340  147.6060 C   0  0  0  0  0  2  0  0  0  0  0  0
  189.5040  177.6720  147.8490 N   0  0  0  0  0  2  0  0  0  0  0  0
  189.9370  177.3110  145.4510 C   0  0  0  0  0  0  0  0  0  0  0  0
  191.3520  177.1110  145.5120 N   0  0  0  0  0  2  0  0  0  0  0  0
  191.9800  176.0710  146.3090 C   0  0  0  0  0  1  0  0  0  0  0  0
  187.1640  176.3350  137.6030 C   0  0  0  0  0  2  0  0  0  0  0  0
  186.0740  176.1920  136.5500 C   0  0  0  0  0  2  0  0  0  0  0  0
  185.8650  174.7340  136.1650 C   0  0  0  0  0  2  0  0  0  0  0  0
  181.8950  171.0750  134.6580 C   0  0  0  0  0  2  0  0  0  0  0  0
  182.7550  172.1890  134.6050 O   0  0  0  0  0  0  0  0  0  0  0  0
  183.7410  170.3160  136.2210 C   0  0  0  0  0  2  0  0  0  0  0  0
  183.4430  171.6510  136.9040 C   0  0  1  0  0  3  0  0  0  0  0  0
  184.5640  174.2140  136.7410 C   0  0  1  0  0  3  0  0  0  0  0  0
  182.5950  169.8770  135.3010 C   0  0  0  0  0  2  0  0  0  0  0  0
  184.4210  172.7200  136.3810 C   0  0  2  0  0  0  0  0  0  0  0  0
  184.8450  173.2090  137.7760 C   0  0  0  0  0  2  0  0  0  0  0  0
  182.9320  172.6570  135.9280 C   0  0  1  0  0  0  0  0  0  0  0  0
  181.8440  173.5420  136.4880 C   0  0  0  0  0  0  0  0  0  0  0  0
  181.3700  173.3090  137.6310 O   0  0  0  0  0  1  0  0  0  0  0  0
  181.3920  174.6410  135.7680 O   0  0  0  0  0  0  0  0  0  0  0  0
  1  2  2  0  0  0  0
  2 14  1  0  0  0  0
  3  7  1  0  0  0  0
  3 11  2  0  0  0  0
  4 27  1  1  0  0  0
  4  8  1  0  0  0  0
  5 12  1  0  0  0  0
  6 13  1  6  0  0  0
  6  3  1  0  0  0  0
  8  6  1  0  0  0  0
  8  1  1  1  0  0  0
  9  7  1  0  0  0  0
 10  1  1  0  0  0  0
 11 14  1  0  0  0  0
 12 15  1  0  0  0  0
 13  9  1  0  0  0  0
 14 18  1  1  0  0  0
 15  5  1  6  0  0  0
 15  4  1  0  0  0  0
 15 10  1  0  0  0  0
 16 24  1  6  0  0  0
 16 23  1  0  0  0  0
 18 21  1  0  0  0  0
 18 20  2  0  0  0  0
 19 16  1  0  0  0  0
 19 22  1  0  0  0  0
 20 19  1  0  0  0  0
 21 24  2  0  0  0  0
 22 17  1  0  0  0  0
 23 17  1  0  0  0  0
 24 25  1  0  0  0  0
 25 26  1  0  0  0  0
 28 27  1  0  0  0  0
 29 28  1  0  0  0  0
 30 35  1  0  0  0  0
 31 30  1  0  0  0  0
 31 38  1  0  0  0  0
 33 32  1  6  0  0  0
 34 29  1  6  0  0  0
 34 37  1  0  0  0  0
 35 32  1  0  0  0  0
 36 34  1  0  0  0  0
 36 33  1  0  0  0  0
 36 37  1  1  0  0  0
 38 36  1  0  0  0  0
 38 39  1  1  0  0  0
 38 33  1  0  0  0  0
 39 40  1  0  0  0  0
 41 39  2  0  0  0  0
M  END
>  <MODEL>
7

>  <REMARK>
 VINA RESULT:      -8.8      2.110      3.503
  Name = 
  7 active torsions:
  status: ('A' for Active; 'I' for Inactive)
    1  A    between atoms: C_7  and  C_30
    2  A    between atoms: C_8  and  C_32
    3  A    between atoms: C_12  and  C_17
    4  A    between atoms: C_12  and  C_32
    5  A    between atoms: N_15  and  C_41
    6  A    between atoms: C_17  and  C_25
    7  A    between atoms: C_24  and  C_35
                            x       y       z     vdW  Elec       q    Type
                         _______ _______ _______ _____ _____    ______ ____

>  <TORSDO>
F 7

$$$$
=
 OpenBabel10232411593D

 41 49  0  0  1  0  0  0  0  0999 V2000
  191.5630  176.6480  139.4670 C   0  0  0  0  0  0  0  0  0  0  0  0
  191.1970  177.0890  140.6710 C   0  0  0  0  0  3  0  0  0  0  0  0
  188.7520  177.8250  138.8900 C   0  0  0  0  0  0  0  0  0  0  0  0
  191.5290  175.8360  137.1960 C   0  0  1  0  0  3  0  0  0  0  0  0
  194.1500  175.6780  136.9320 C   0  0  0  0  0  2  0  0  0  0  0  0
  189.8860  177.6160  137.9540 C   0  0  1  0  0  3  0  0  0  0  0  0
  187.6170  178.0640  138.2640 C   0  0  0  0  0  2  0  0  0  0  0  0
  190.6320  176.3430  138.3330 C   0  0  2  0  0  3  0  0  0  0  0  0
  187.7960  178.0560  136.7920 C   0  0  0  0  0  2  0  0  0  0  0  0
  192.9960  176.4180  139.1600 C   0  0  0  0  0  2  0  0  0  0  0  0
  188.7990  177.7480  140.3580 C   0  0  0  0  0  3  0  0  0  0  0  0
  193.6110  176.9790  136.9310 O   0  0  0  0  0  0  0  0  0  0  0  0
  189.2000  177.5090  136.5910 C   0  0  0  0  0  2  0  0  0  0  0  0
  189.8360  177.4310  141.1560 C   0  0  2  0  0  3  0  0  0  0  0  0
  192.9410  176.0200  137.7110 C   0  0  2  0  0  0  0  0  0  0  0  0
  189.1300  177.7820  145.4780 C   0  0  2  0  0  3  0  0  0  0  0  0
  190.5450  176.7860  147.0330 C   0  0  0  0  0  2  0  0  0  0  0  0
  189.6370  177.4720  142.6320 C   0  0  0  0  0  0  0  0  0  0  0  0
  190.4490  177.6760  144.8800 N   0  0  0  0  0  0  0  0  0  0  0  0
  190.6690  177.6290  143.4690 C   0  0  0  0  0  3  0  0  0  0  0  0
  188.2800  177.2970  143.2020 C   0  0  0  0  0  3  0  0  0  0  0  0
  191.3790  177.0850  145.8030 C   0  0  0  0  0  2  0  0  0  0  0  0
  189.1390  176.9260  146.6600 N   0  0  0  0  0  2  0  0  0  0  0  0
  188.0270  177.3930  144.5120 C   0  0  0  0  0  0  0  0  0  0  0  0
  186.6680  177.2880  144.9420 N   0  0  0  0  0  2  0  0  0  0  0  0
  185.7530  178.4170  144.9880 C   0  0  0  0  0  1  0  0  0  0  0  0
  191.2570  174.3580  136.9640 C   0  0  0  0  0  2  0  0  0  0  0  0
  189.7640  174.0680  137.0400 C   0  0  0  0  0  2  0  0  0  0  0  0
  189.1100  174.1710  135.6690 C   0  0  0  0  0  2  0  0  0  0  0  0
  184.0930  176.0270  137.3470 C   0  0  0  0  0  2  0  0  0  0  0  0
  185.4520  175.6600  137.3980 O   0  0  0  0  0  0  0  0  0  0  0  0
  184.7230  176.2190  134.8990 C   0  0  0  0  0  2  0  0  0  0  0  0
  185.2070  174.7840  135.1130 C   0  0  1  0  0  3  0  0  0  0  0  0
  187.6920  173.6390  135.7150 C   0  0  1  0  0  3  0  0  0  0  0  0
  183.7520  176.6640  135.9980 C   0  0  0  0  0  2  0  0  0  0  0  0
  186.7150  174.7990  135.4290 C   0  0  2  0  0  0  0  0  0  0  0  0
  187.0820  173.7350  134.3810 C   0  0  0  0  0  2  0  0  0  0  0  0
  185.6330  174.5620  136.5250 C   0  0  1  0  0  0  0  0  0  0  0  0
  185.2610  173.2000  137.0600 C   0  0  0  0  0  0  0  0  0  0  0  0
  185.7650  172.7890  138.1390 O   0  0  0  0  0  1  0  0  0  0  0  0
  184.3310  172.4120  136.3920 O   0  0  0  0  0  0  0  0  0  0  0  0
  1  2  2  0  0  0  0
  2 14  1  0  0  0  0
  3 11  2  0  0  0  0
  4 27  1  1  0  0  0
  4 15  1  0  0  0  0
  4  8  1  0  0  0  0
  6 13  1  6  0  0  0
  6  8  1  0  0  0  0
  6  3  1  0  0  0  0
  7  3  1  0  0  0  0
  8  1  1  1  0  0  0
  9  7  1  0  0  0  0
 10  1  1  0  0  0  0
 11 14  1  0  0  0  0
 12  5  1  0  0  0  0
 12 15  1  0  0  0  0
 13  9  1  0  0  0  0
 14 18  1  1  0  0  0
 15  5  1  6  0  0  0
 15 10  1  0  0  0  0
 16 24  1  6  0  0  0
 16 23  1  0  0  0  0
 18 21  1  0  0  0  0
 18 20  2  0  0  0  0
 19 16  1  0  0  0  0
 19 22  1  0  0  0  0
 20 19  1  0  0  0  0
 21 24  2  0  0  0  0
 22 17  1  0  0  0  0
 23 17  1  0  0  0  0
 24 25  1  0  0  0  0
 25 26  1  0  0  0  0
 27 28  1  0  0  0  0
 29 28  1  0  0  0  0
 30 31  1  0  0  0  0
 32 35  1  0  0  0  0
 33 32  1  1  0  0  0
 33 36  1  0  0  0  0
 33 38  1  0  0  0  0
 34 29  1  6  0  0  0
 35 30  1  0  0  0  0
 36 37  1  6  0  0  0
 36 34  1  0  0  0  0
 36 38  1  0  0  0  0
 37 34  1  0  0  0  0
 38 39  1  1  0  0  0
 38 31  1  0  0  0  0
 39 40  1  0  0  0  0
 41 39  2  0  0  0  0
M  END
>  <MODEL>
8

>  <REMARK>
 VINA RESULT:      -8.7      3.193      6.124
  Name = 
  7 active torsions:
  status: ('A' for Active; 'I' for Inactive)
    1  A    between atoms: C_7  and  C_30
    2  A    between atoms: C_8  and  C_32
    3  A    between atoms: C_12  and  C_17
    4  A    between atoms: C_12  and  C_32
    5  A    between atoms: N_15  and  C_41
    6  A    between atoms: C_17  and  C_25
    7  A    between atoms: C_24  and  C_35
                            x       y       z     vdW  Elec       q    Type
                         _______ _______ _______ _____ _____    ______ ____

>  <TORSDO>
F 7

$$$$
=
 OpenBabel10232411593D

 41 49  0  0  1  0  0  0  0  0999 V2000
  188.3980  178.1630  140.1870 C   0  0  0  0  0  0  0  0  0  0  0  0
  188.7710  178.2340  141.4660 C   0  0  0  0  0  3  0  0  0  0  0  0
  185.6660  178.3680  141.6410 C   0  0  0  0  0  0  0  0  0  0  0  0
  187.1300  177.7970  138.1690 C   0  0  1  0  0  3  0  0  0  0  0  0
  189.0210  178.6100  136.5170 C   0  0  0  0  0  2  0  0  0  0  0  0
  186.0080  178.7330  140.2430 C   0  0  1  0  0  3  0  0  0  0  0  0
  184.3650  178.3010  141.8440 C   0  0  0  0  0  2  0  0  0  0  0  0
  187.0410  177.7550  139.6990 C   0  0  2  0  0  3  0  0  0  0  0  0
  183.6070  178.6110  140.6070 C   0  0  0  0  0  2  0  0  0  0  0  0
  189.3580  178.5040  139.1090 C   0  0  0  0  0  2  0  0  0  0  0  0
  186.6110  178.0600  142.7250 C   0  0  0  0  0  3  0  0  0  0  0  0
  188.3740  179.6220  137.2530 O   0  0  0  0  0  0  0  0  0  0  0  0
  184.6660  178.6310  139.5170 C   0  0  0  0  0  2  0  0  0  0  0  0
  187.9550  177.9910  142.6820 C   0  0  2  0  0  3  0  0  0  0  0  0
  188.5030  178.3700  137.8810 C   0  0  2  0  0  0  0  0  0  0  0  0
  190.0800  177.3860  146.4790 C   0  0  2  0  0  3  0  0  0  0  0  0
  191.8590  175.8960  146.6620 C   0  0  0  0  0  2  0  0  0  0  0  0
  188.6940  177.7030  143.9430 C   0  0  0  0  0  0  0  0  0  0  0  0
  190.7080  177.2750  145.1750 N   0  0  0  0  0  0  0  0  0  0  0  0
  190.0220  177.5400  143.9490 C   0  0  0  0  0  3  0  0  0  0  0  0
  187.9540  177.5530  145.2180 C   0  0  0  0  0  3  0  0  0  0  0  0
  191.8320  176.3820  145.2250 C   0  0  0  0  0  2  0  0  0  0  0  0
  190.5910  176.2790  147.2820 N   0  0  0  0  0  2  0  0  0  0  0  0
  188.5660  177.3640  146.3930 C   0  0  0  0  0  0  0  0  0  0  0  0
  187.7570  177.3160  147.5710 N   0  0  0  0  0  2  0  0  0  0  0  0
  188.0040  178.1330  148.7470 C   0  0  0  0  0  1  0  0  0  0  0  0
  187.0410  176.3800  137.6220 C   0  0  0  0  0  2  0  0  0  0  0  0
  186.0500  176.3110  136.4680 C   0  0  0  0  0  2  0  0  0  0  0  0
  185.7610  174.8690  136.0740 C   0  0  0  0  0  2  0  0  0  0  0  0
  181.6040  171.3200  134.8280 C   0  0  0  0  0  2  0  0  0  0  0  0
  182.4880  172.4110  134.7200 O   0  0  0  0  0  0  0  0  0  0  0  0
  183.5270  170.5100  136.2680 C   0  0  0  0  0  2  0  0  0  0  0  0
  183.3100  171.8510  136.9700 C   0  0  1  0  0  3  0  0  0  0  0  0
  184.4860  174.3830  136.7330 C   0  0  1  0  0  3  0  0  0  0  0  0
  182.3120  170.1020  135.4250 C   0  0  0  0  0  2  0  0  0  0  0  0
  184.2810  172.8940  136.3830 C   0  0  2  0  0  0  0  0  0  0  0  0
  184.8070  173.3690  137.7470 C   0  0  0  0  0  2  0  0  0  0  0  0
  182.7640  172.8720  136.0290 C   0  0  1  0  0  0  0  0  0  0  0  0
  181.7390  173.7850  136.6580 C   0  0  0  0  0  0  0  0  0  0  0  0
  181.1730  173.4490  137.7320 O   0  0  0  0  0  1  0  0  0  0  0  0
  181.4460  175.0150  136.0830 O   0  0  0  0  0  0  0  0  0  0  0  0
  1  2  2  0  0  0  0
  2 14  1  0  0  0  0
  3  7  1  0  0  0  0
  3 11  2  0  0  0  0
  4 27  1  6  0  0  0
  4  8  1  0  0  0  0
  5 12  1  0  0  0  0
  6 13  1  6  0  0  0
  6  3  1  0  0  0  0
  8  1  1  1  0  0  0
  8  6  1  0  0  0  0
  9  7  1  0  0  0  0
 10  1  1  0  0  0  0
 12 15  1  0  0  0  0
 13  9  1  0  0  0  0
 14 11  1  0  0  0  0
 14 18  1  1  0  0  0
 15  5  1  6  0  0  0
 15  4  1  0  0  0  0
 15 10  1  0  0  0  0
 16 24  1  6  0  0  0
 16 23  1  0  0  0  0
 17 23  1  0  0  0  0
 18 20  2  0  0  0  0
 18 21  1  0  0  0  0
 19 22  1  0  0  0  0
 19 16  1  0  0  0  0
 20 19  1  0  0  0  0
 21 24  2  0  0  0  0
 22 17  1  0  0  0  0
 24 25  1  0  0  0  0
 25 26  1  0  0  0  0
 28 27  1  0  0  0  0
 29 28  1  0  0  0  0
 30 35  1  0  0  0  0
 31 30  1  0  0  0  0
 31 38  1  0  0  0  0
 33 32  1  6  0  0  0
 34 29  1  6  0  0  0
 34 37  1  0  0  0  0
 35 32  1  0  0  0  0
 36 34  1  0  0  0  0
 36 33  1  0  0  0  0
 36 37  1  1  0  0  0
 38 36  1  0  0  0  0
 38 39  1  1  0  0  0
 38 33  1  0  0  0  0
 39 40  1  0  0  0  0
 41 39  2  0  0  0  0
M  END
>  <MODEL>
9

>  <REMARK>
 VINA RESULT:      -8.7      2.067      3.666
  Name = 
  7 active torsions:
  status: ('A' for Active; 'I' for Inactive)
    1  A    between atoms: C_7  and  C_30
    2  A    between atoms: C_8  and  C_32
    3  A    between atoms: C_12  and  C_17
    4  A    between atoms: C_12  and  C_32
    5  A    between atoms: N_15  and  C_41
    6  A    between atoms: C_17  and  C_25
    7  A    between atoms: C_24  and  C_35
                            x       y       z     vdW  Elec       q    Type
                         _______ _______ _______ _____ _____    ______ ____

>  <TORSDO>
F 7

$$$$
