=
 OpenBabel10232411313D

 27 30  0  0  1  0  0  0  0  0999 V2000
  190.5070  176.9920  145.6500 C   0  0  1  0  0  0  0  0  0  0  0  0
  189.8990  177.7720  146.8090 C   0  0  0  0  0  2  0  0  0  0  0  0
  187.6370  177.5120  143.1560 C   0  0  0  0  0  3  0  0  0  0  0  0
  191.9090  177.0990  145.5980 O   0  0  0  0  0  0  0  0  0  0  0  0
  185.4590  178.2650  147.0850 Cl  0  0  0  0  0  0  0  0  0  0  0  0
  186.2830  177.8470  143.1710 C   0  0  0  0  0  3  0  0  0  0  0  0
  188.4180  177.4360  146.8980 C   0  0  0  0  0  2  0  0  0  0  0  0
  185.6370  178.0810  144.3830 C   0  0  0  0  0  3  0  0  0  0  0  0
  187.7030  177.6440  145.5860 C   0  0  0  0  0  0  0  0  0  0  0  0
  186.3350  177.9780  145.5890 C   0  0  0  0  0  0  0  0  0  0  0  0
  191.3890  175.8170  145.8850 C   0  0  1  0  0  3  0  0  0  0  0  0
  188.3600  177.4120  144.3500 C   0  0  0  0  0  0  0  0  0  0  0  0
  189.8350  177.0740  144.2740 C   0  0  1  0  0  3  0  0  0  0  0  0
  191.6090  175.5030  147.3560 C   0  0  0  0  0  2  0  0  0  0  0  0
  193.0990  176.1990  149.0040 C   0  0  0  0  0  1  0  0  0  0  0  0
  193.0200  175.6280  147.6720 N   0  0  0  0  0  2  0  0  0  0  0  0
  190.5580  177.9570  143.3490 N   0  0  0  0  0  0  0  0  0  0  0  0
  192.2020  177.5360  141.5390 C   0  0  0  0  0  3  0  0  0  0  0  0
  193.8310  177.1290  139.7700 N   0  0  0  0  0  1  0  0  0  0  0  0
  190.1680  176.9700  139.7490 C   0  0  0  0  0  0  0  0  0  0  0  0
  189.8500  177.3100  141.0650 C   0  0  0  0  0  3  0  0  0  0  0  0
  192.4830  177.1920  140.2160 C   0  0  0  0  0  0  0  0  0  0  0  0
  191.4680  176.9170  139.3540 N   0  0  0  0  0  0  0  0  0  0  0  0
  190.8740  177.5990  141.9820 C   0  0  0  0  0  0  0  0  0  0  0  0
  188.8920  176.6110  138.6070 Cl  0  0  0  0  0  0  0  0  0  0  0  0
  190.9580  179.2010  143.8660 C   0  0  0  0  0  0  0  0  0  0  0  0
  191.3010  180.2690  144.3100 C   0  0  0  0  0  3  0  0  0  0  0  0
  1 11  1  0  0  0  0
  1  2  1  1  0  0  0
  2  7  1  0  0  0  0
  3  6  2  0  0  0  0
  3 12  1  0  0  0  0
  4  1  1  0  0  0  0
  4 11  1  0  0  0  0
  6  8  1  0  0  0  0
  8 10  2  0  0  0  0
  9 10  1  0  0  0  0
  9  7  1  0  0  0  0
 10  5  1  0  0  0  0
 11 14  1  1  0  0  0
 12  9  2  0  0  0  0
 13 17  1  6  0  0  0
 13 12  1  0  0  0  0
 13  1  1  0  0  0  0
 14 16  1  0  0  0  0
 16 15  1  0  0  0  0
 17 26  1  0  0  0  0
 18 24  1  0  0  0  0
 19 22  1  0  0  0  0
 20 21  1  0  0  0  0
 21 24  2  0  0  0  0
 22 18  2  0  0  0  0
 23 20  2  0  0  0  0
 23 22  1  0  0  0  0
 24 17  1  0  0  0  0
 25 20  1  0  0  0  0
 26 27  3  0  0  0  0
M  END
>  <MODEL>
1

>  <REMARK>
 VINA RESULT:      -7.9      0.000      0.000
  Name = 
  5 active torsions:
  status: ('A' for Active; 'I' for Inactive)
    1  A    between atoms: C_13  and  N_27
    2  A    between atoms: C_18  and  N_27
    3  A    between atoms: N_21  and  C_25
    4  A    between atoms: C_23  and  C_25
    5  A    between atoms: C_26  and  N_27
                            x       y       z     vdW  Elec       q    Type
                         _______ _______ _______ _____ _____    ______ ____

>  <TORSDO>
F 5

$$$$
=
 OpenBabel10232411313D

 27 30  0  0  1  0  0  0  0  0999 V2000
  190.3130  176.9860  145.5680 C   0  0  1  0  0  0  0  0  0  0  0  0
  189.7750  177.7810  146.7500 C   0  0  0  0  0  2  0  0  0  0  0  0
  187.3630  177.5940  143.1890 C   0  0  0  0  0  3  0  0  0  0  0  0
  191.7150  177.0530  145.4600 O   0  0  0  0  0  0  0  0  0  0  0  0
  185.3650  178.4040  147.2020 Cl  0  0  0  0  0  0  0  0  0  0  0  0
  186.0220  177.9680  143.2580 C   0  0  0  0  0  3  0  0  0  0  0  0
  188.2890  177.4890  146.8970 C   0  0  0  0  0  2  0  0  0  0  0  0
  185.4310  178.2200  144.4950 C   0  0  0  0  0  3  0  0  0  0  0  0
  187.5290  177.7200  145.6150 C   0  0  0  0  0  0  0  0  0  0  0  0
  186.1730  178.0940  145.6720 C   0  0  0  0  0  0  0  0  0  0  0  0
  191.1690  175.7860  145.7670 C   0  0  1  0  0  3  0  0  0  0  0  0
  188.1300  177.4710  144.3540 C   0  0  0  0  0  0  0  0  0  0  0  0
  189.5900  177.0910  144.2200 C   0  0  1  0  0  3  0  0  0  0  0  0
  191.4380  175.4630  147.2280 C   0  0  0  0  0  2  0  0  0  0  0  0
  193.0790  175.9410  148.8080 C   0  0  0  0  0  1  0  0  0  0  0  0
  192.8700  175.4390  147.4630 N   0  0  0  0  0  2  0  0  0  0  0  0
  190.3020  177.9540  143.2670 N   0  0  0  0  0  0  0  0  0  0  0  0
  189.3860  177.4730  141.0110 C   0  0  0  0  0  3  0  0  0  0  0  0
  188.4700  177.0000  138.8010 N   0  0  0  0  0  1  0  0  0  0  0  0
  191.9350  177.1180  139.9930 C   0  0  0  0  0  0  0  0  0  0  0  0
  191.7730  177.4410  141.3420 C   0  0  0  0  0  3  0  0  0  0  0  0
  189.5860  177.1510  139.6680 C   0  0  0  0  0  0  0  0  0  0  0  0
  190.8470  176.9820  139.1890 N   0  0  0  0  0  0  0  0  0  0  0  0
  190.4850  177.6230  141.8690 C   0  0  0  0  0  0  0  0  0  0  0  0
  193.5410  176.8900  139.3360 Cl  0  0  0  0  0  0  0  0  0  0  0  0
  190.8290  179.1480  143.7880 C   0  0  0  0  0  0  0  0  0  0  0  0
  191.2820  180.1730  144.2340 C   0  0  0  0  0  3  0  0  0  0  0  0
  1 11  1  0  0  0  0
  1  2  1  1  0  0  0
  2  7  1  0  0  0  0
  3  6  2  0  0  0  0
  3 12  1  0  0  0  0
  4  1  1  0  0  0  0
  4 11  1  0  0  0  0
  6  8  1  0  0  0  0
  8 10  2  0  0  0  0
  9 10  1  0  0  0  0
  9  7  1  0  0  0  0
 10  5  1  0  0  0  0
 11 14  1  1  0  0  0
 12  9  2  0  0  0  0
 13 17  1  6  0  0  0
 13 12  1  0  0  0  0
 13  1  1  0  0  0  0
 14 16  1  0  0  0  0
 16 15  1  0  0  0  0
 17 26  1  0  0  0  0
 18 24  1  0  0  0  0
 19 22  1  0  0  0  0
 20 21  1  0  0  0  0
 21 24  2  0  0  0  0
 22 18  2  0  0  0  0
 23 22  1  0  0  0  0
 23 20  2  0  0  0  0
 24 17  1  0  0  0  0
 25 20  1  0  0  0  0
 26 27  3  0  0  0  0
M  END
>  <MODEL>
2

>  <REMARK>
 VINA RESULT:      -7.5      1.128      1.694
  Name = 
  5 active torsions:
  status: ('A' for Active; 'I' for Inactive)
    1  A    between atoms: C_13  and  N_27
    2  A    between atoms: C_18  and  N_27
    3  A    between atoms: N_21  and  C_25
    4  A    between atoms: C_23  and  C_25
    5  A    between atoms: C_26  and  N_27
                            x       y       z     vdW  Elec       q    Type
                         _______ _______ _______ _____ _____    ______ ____

>  <TORSDO>
F 5

$$$$
=
 OpenBabel10232411313D

 27 30  0  0  1  0  0  0  0  0999 V2000
  191.0070  176.4280  144.7840 C   0  0  1  0  0  0  0  0  0  0  0  0
  191.2770  177.0030  146.1690 C   0  0  0  0  0  2  0  0  0  0  0  0
  187.3720  177.6190  144.4630 C   0  0  0  0  0  3  0  0  0  0  0  0
  192.1440  176.4500  143.9550 O   0  0  0  0  0  0  0  0  0  0  0  0
  187.8770  177.7280  148.9890 Cl  0  0  0  0  0  0  0  0  0  0  0  0
  186.3290  178.0340  145.2900 C   0  0  0  0  0  3  0  0  0  0  0  0
  190.0580  176.7570  147.0450 C   0  0  0  0  0  2  0  0  0  0  0  0
  186.5060  178.0680  146.6720 C   0  0  0  0  0  3  0  0  0  0  0  0
  188.7860  177.2660  146.4140 C   0  0  0  0  0  0  0  0  0  0  0  0
  187.7230  177.6830  147.2390 C   0  0  0  0  0  0  0  0  0  0  0  0
  191.6620  175.1750  144.3250 C   0  0  1  0  0  3  0  0  0  0  0  0
  188.6050  177.2380  145.0070 C   0  0  0  0  0  0  0  0  0  0  0  0
  189.7140  176.8240  144.0620 C   0  0  1  0  0  3  0  0  0  0  0  0
  192.6000  174.5630  145.3540 C   0  0  0  0  0  2  0  0  0  0  0  0
  191.6630  172.5900  144.5470 C   0  0  0  0  0  1  0  0  0  0  0  0
  192.9100  173.1970  144.9740 N   0  0  0  0  0  2  0  0  0  0  0  0
  189.9430  177.8220  143.0080 N   0  0  0  0  0  0  0  0  0  0  0  0
  190.5640  176.9240  140.7790 C   0  0  0  0  0  3  0  0  0  0  0  0
  191.1920  176.0390  138.5940 N   0  0  0  0  0  1  0  0  0  0  0  0
  188.1760  177.8090  139.6970 C   0  0  0  0  0  0  0  0  0  0  0  0
  188.4430  178.0350  141.0480 C   0  0  0  0  0  3  0  0  0  0  0  0
  190.2640  176.7160  139.4330 C   0  0  0  0  0  0  0  0  0  0  0  0
  189.0840  177.1590  138.9220 N   0  0  0  0  0  0  0  0  0  0  0  0
  189.6510  177.5900  141.6090 C   0  0  0  0  0  0  0  0  0  0  0  0
  186.6700  178.3650  138.9990 Cl  0  0  0  0  0  0  0  0  0  0  0  0
  190.4900  179.0480  143.4240 C   0  0  0  0  0  0  0  0  0  0  0  0
  190.9580  180.1000  143.7810 C   0  0  0  0  0  3  0  0  0  0  0  0
  1  2  1  1  0  0  0
  2  7  1  0  0  0  0
  3 12  2  0  0  0  0
  3  6  1  0  0  0  0
  4 11  1  0  0  0  0
  4  1  1  0  0  0  0
  6  8  2  0  0  0  0
  8 10  1  0  0  0  0
  9  7  1  0  0  0  0
  9 10  2  0  0  0  0
 10  5  1  0  0  0  0
 11  1  1  0  0  0  0
 11 14  1  1  0  0  0
 12  9  1  0  0  0  0
 13 17  1  6  0  0  0
 13  1  1  0  0  0  0
 13 12  1  0  0  0  0
 15 16  1  0  0  0  0
 16 14  1  0  0  0  0
 17 26  1  0  0  0  0
 18 24  1  0  0  0  0
 19 22  1  0  0  0  0
 20 21  1  0  0  0  0
 21 24  2  0  0  0  0
 22 18  2  0  0  0  0
 23 22  1  0  0  0  0
 23 20  2  0  0  0  0
 24 17  1  0  0  0  0
 25 20  1  0  0  0  0
 26 27  3  0  0  0  0
M  END
>  <MODEL>
3

>  <REMARK>
 VINA RESULT:      -6.5      1.767      2.279
  Name = 
  5 active torsions:
  status: ('A' for Active; 'I' for Inactive)
    1  A    between atoms: C_13  and  N_27
    2  A    between atoms: C_18  and  N_27
    3  A    between atoms: N_21  and  C_25
    4  A    between atoms: C_23  and  C_25
    5  A    between atoms: C_26  and  N_27
                            x       y       z     vdW  Elec       q    Type
                         _______ _______ _______ _____ _____    ______ ____

>  <TORSDO>
F 5

$$$$
=
 OpenBabel10232411313D

 27 30  0  0  1  0  0  0  0  0999 V2000
  186.5930  177.3310  137.4460 C   0  0  1  0  0  0  0  0  0  0  0  0
  185.5590  177.2530  136.3300 C   0  0  0  0  0  2  0  0  0  0  0  0
  188.1380  173.8570  136.9240 C   0  0  0  0  0  3  0  0  0  0  0  0
  187.0970  178.6320  137.6310 O   0  0  0  0  0  0  0  0  0  0  0  0
  184.0890  173.2660  134.9230 Cl  0  0  0  0  0  0  0  0  0  0  0  0
  187.8030  172.6390  136.3340 C   0  0  0  0  0  3  0  0  0  0  0  0
  184.9370  175.8640  136.3390 C   0  0  0  0  0  2  0  0  0  0  0  0
  186.5610  172.4800  135.7190 C   0  0  0  0  0  3  0  0  0  0  0  0
  185.9740  174.7710  136.2840 C   0  0  0  0  0  0  0  0  0  0  0  0
  185.6450  173.5340  135.6950 C   0  0  0  0  0  0  0  0  0  0  0  0
  186.3300  178.1000  138.6920 C   0  0  1  0  0  3  0  0  0  0  0  0
  187.2400  174.9310  136.9030 C   0  0  0  0  0  0  0  0  0  0  0  0
  187.6680  176.2410  137.5330 C   0  0  1  0  0  3  0  0  0  0  0  0
  184.9690  178.7760  138.7180 C   0  0  0  0  0  2  0  0  0  0  0  0
  185.6340  178.9080  140.9450 C   0  0  0  0  0  1  0  0  0  0  0  0
  184.8470  179.5740  139.9230 N   0  0  0  0  0  2  0  0  0  0  0  0
  188.9710  176.6970  137.0320 N   0  0  0  0  0  0  0  0  0  0  0  0
  191.4320  176.5370  137.3080 C   0  0  0  0  0  3  0  0  0  0  0  0
  193.8520  176.3740  137.5640 N   0  0  0  0  0  1  0  0  0  0  0  0
  191.2250  177.1570  139.9980 C   0  0  0  0  0  0  0  0  0  0  0  0
  190.0690  177.0880  139.2170 C   0  0  0  0  0  3  0  0  0  0  0  0
  192.5660  176.6150  138.1180 C   0  0  0  0  0  0  0  0  0  0  0  0
  192.4400  176.9210  139.4370 N   0  0  0  0  0  0  0  0  0  0  0  0
  190.1620  176.7750  137.8520 C   0  0  0  0  0  0  0  0  0  0  0  0
  191.1070  177.5460  141.7000 Cl  0  0  0  0  0  0  0  0  0  0  0  0
  189.0150  177.0810  135.6810 C   0  0  0  0  0  0  0  0  0  0  0  0
  189.0530  177.4090  134.5200 C   0  0  0  0  0  3  0  0  0  0  0  0
  1  2  1  6  0  0  0
  1 13  1  0  0  0  0
  1  4  1  0  0  0  0
  1 11  1  0  0  0  0
  2  7  1  0  0  0  0
  4 11  1  0  0  0  0
  5 10  1  0  0  0  0
  6  3  2  0  0  0  0
  8  6  1  0  0  0  0
  9  7  1  0  0  0  0
  9 12  2  0  0  0  0
 10  8  2  0  0  0  0
 10  9  1  0  0  0  0
 11 14  1  6  0  0  0
 12  3  1  0  0  0  0
 12 13  1  0  0  0  0
 13 17  1  6  0  0  0
 14 16  1  0  0  0  0
 16 15  1  0  0  0  0
 17 24  1  0  0  0  0
 18 24  2  0  0  0  0
 18 22  1  0  0  0  0
 19 22  1  0  0  0  0
 20 25  1  0  0  0  0
 21 20  2  0  0  0  0
 22 23  2  0  0  0  0
 23 20  1  0  0  0  0
 24 21  1  0  0  0  0
 26 17  1  0  0  0  0
 27 26  3  0  0  0  0
M  END
>  <MODEL>
4

>  <REMARK>
 VINA RESULT:      -6.5      5.256      8.491
  Name = 
  5 active torsions:
  status: ('A' for Active; 'I' for Inactive)
    1  A    between atoms: C_13  and  N_27
    2  A    between atoms: C_18  and  N_27
    3  A    between atoms: N_21  and  C_25
    4  A    between atoms: C_23  and  C_25
    5  A    between atoms: C_26  and  N_27
                            x       y       z     vdW  Elec       q    Type
                         _______ _______ _______ _____ _____    ______ ____

>  <TORSDO>
F 5

$$$$
=
 OpenBabel10232411313D

 27 30  0  0  1  0  0  0  0  0999 V2000
  188.3320  175.6880  136.9540 C   0  0  1  0  0  0  0  0  0  0  0  0
  188.8190  175.8080  135.5160 C   0  0  0  0  0  2  0  0  0  0  0  0
  191.6600  176.5370  138.6670 C   0  0  0  0  0  3  0  0  0  0  0  0
  186.9930  176.0940  137.1110 O   0  0  0  0  0  0  0  0  0  0  0  0
  193.1550  175.2250  134.5700 Cl  0  0  0  0  0  0  0  0  0  0  0  0
  193.0200  176.5520  138.3640 C   0  0  0  0  0  3  0  0  0  0  0  0
  190.1950  175.1660  135.4130 C   0  0  0  0  0  2  0  0  0  0  0  0
  193.4580  176.1540  137.1010 C   0  0  0  0  0  3  0  0  0  0  0  0
  191.1620  175.7180  136.4290 C   0  0  0  0  0  0  0  0  0  0  0  0
  192.5400  175.7340  136.1350 C   0  0  0  0  0  0  0  0  0  0  0  0
  187.2630  174.7250  137.3320 C   0  0  1  0  0  3  0  0  0  0  0  0
  190.7200  176.1300  137.7130 C   0  0  0  0  0  0  0  0  0  0  0  0
  189.2520  176.1610  138.0850 C   0  0  1  0  0  3  0  0  0  0  0  0
  186.7300  173.9130  136.1630 C   0  0  0  0  0  2  0  0  0  0  0  0
  185.2700  173.0090  137.7350 C   0  0  0  0  0  1  0  0  0  0  0  0
  186.1740  172.6650  136.6530 N   0  0  0  0  0  2  0  0  0  0  0  0
  188.8470  177.4650  138.6290 N   0  0  0  0  0  0  0  0  0  0  0  0
  187.2420  178.4580  140.2400 C   0  0  0  0  0  3  0  0  0  0  0  0
  185.6570  179.4450  141.8100 N   0  0  0  0  0  1  0  0  0  0  0  0
  188.5230  177.2250  142.3610 C   0  0  0  0  0  0  0  0  0  0  0  0
  189.0010  177.0320  141.0640 C   0  0  0  0  0  3  0  0  0  0  0  0
  186.7910  178.6280  141.5490 C   0  0  0  0  0  0  0  0  0  0  0  0
  187.4350  178.0120  142.5760 N   0  0  0  0  0  0  0  0  0  0  0  0
  188.3590  177.6520  139.9800 C   0  0  0  0  0  0  0  0  0  0  0  0
  189.3240  176.4520  143.7110 Cl  0  0  0  0  0  0  0  0  0  0  0  0
  188.9420  178.5580  137.7520 C   0  0  0  0  0  0  0  0  0  0  0  0
  189.0230  179.4970  136.9990 C   0  0  0  0  0  3  0  0  0  0  0  0
  1  2  1  6  0  0  0
  1  4  1  0  0  0  0
  1 11  1  0  0  0  0
  1 13  1  0  0  0  0
  4 11  1  0  0  0  0
  5 10  1  0  0  0  0
  6  3  1  0  0  0  0
  7  2  1  0  0  0  0
  7  9  1  0  0  0  0
  8  6  2  0  0  0  0
  9 12  1  0  0  0  0
 10  9  2  0  0  0  0
 10  8  1  0  0  0  0
 11 14  1  6  0  0  0
 12 13  1  0  0  0  0
 12  3  2  0  0  0  0
 13 17  1  6  0  0  0
 14 16  1  0  0  0  0
 16 15  1  0  0  0  0
 17 24  1  0  0  0  0
 18 22  1  0  0  0  0
 20 23  1  0  0  0  0
 20 25  1  0  0  0  0
 21 20  2  0  0  0  0
 22 19  1  0  0  0  0
 22 23  2  0  0  0  0
 24 18  2  0  0  0  0
 24 21  1  0  0  0  0
 26 17  1  0  0  0  0
 27 26  3  0  0  0  0
M  END
>  <MODEL>
5

>  <REMARK>
 VINA RESULT:      -6.4      4.511      8.996
  Name = 
  5 active torsions:
  status: ('A' for Active; 'I' for Inactive)
    1  A    between atoms: C_13  and  N_27
    2  A    between atoms: C_18  and  N_27
    3  A    between atoms: N_21  and  C_25
    4  A    between atoms: C_23  and  C_25
    5  A    between atoms: C_26  and  N_27
                            x       y       z     vdW  Elec       q    Type
                         _______ _______ _______ _____ _____    ______ ____

>  <TORSDO>
F 5

$$$$
=
 OpenBabel10232411313D

 27 30  0  0  1  0  0  0  0  0999 V2000
  181.9980  179.1490  140.0520 C   0  0  1  0  0  0  0  0  0  0  0  0
  181.2370  178.7390  141.3070 C   0  0  0  0  0  2  0  0  0  0  0  0
  185.5240  178.3400  141.3360 C   0  0  0  0  0  3  0  0  0  0  0  0
  181.2800  178.8890  138.8710 O   0  0  0  0  0  0  0  0  0  0  0  0
  183.2930  178.7860  145.2830 Cl  0  0  0  0  0  0  0  0  0  0  0  0
  186.1800  178.1600  142.5530 C   0  0  0  0  0  3  0  0  0  0  0  0
  182.0020  179.2360  142.5250 C   0  0  0  0  0  2  0  0  0  0  0  0
  185.4780  178.2930  143.7500 C   0  0  0  0  0  3  0  0  0  0  0  0
  183.4430  178.7930  142.5180 C   0  0  0  0  0  0  0  0  0  0  0  0
  184.1180  178.6120  143.7410 C   0  0  0  0  0  0  0  0  0  0  0  0
  181.5120  180.2490  139.1770 C   0  0  1  0  0  3  0  0  0  0  0  0
  184.1590  178.6510  141.3000 C   0  0  0  0  0  0  0  0  0  0  0  0
  183.4900  178.8070  139.9510 C   0  0  1  0  0  3  0  0  0  0  0  0
  180.2170  180.8850  139.6560 C   0  0  0  0  0  2  0  0  0  0  0  0
  181.0780  182.2570  137.9830 C   0  0  0  0  0  1  0  0  0  0  0  0
  179.9930  182.1260  138.9380 N   0  0  0  0  0  2  0  0  0  0  0  0
  183.7420  177.6570  139.0720 N   0  0  0  0  0  0  0  0  0  0  0  0
  185.8990  178.4160  138.1060 C   0  0  0  0  0  3  0  0  0  0  0  0
  188.0200  179.1740  137.1700 N   0  0  0  0  0  1  0  0  0  0  0  0
  185.4490  176.9430  135.8060 C   0  0  0  0  0  0  0  0  0  0  0  0
  184.5010  176.9230  136.8310 C   0  0  0  0  0  3  0  0  0  0  0  0
  186.8240  178.4130  137.0620 C   0  0  0  0  0  0  0  0  0  0  0  0
  186.5830  177.6810  135.9410 N   0  0  0  0  0  0  0  0  0  0  0  0
  184.7190  177.6660  138.0030 C   0  0  0  0  0  0  0  0  0  0  0  0
  185.1770  176.0180  134.3460 Cl  0  0  0  0  0  0  0  0  0  0  0  0
  182.9610  176.5140  139.3080 C   0  0  0  0  0  0  0  0  0  0  0  0
  182.2890  175.5320  139.5110 C   0  0  0  0  0  3  0  0  0  0  0  0
  1  2  1  1  0  0  0
  2  7  1  0  0  0  0
  3  6  1  0  0  0  0
  4 11  1  0  0  0  0
  4  1  1  0  0  0  0
  6  8  2  0  0  0  0
  9  7  1  0  0  0  0
  9 10  2  0  0  0  0
 10  8  1  0  0  0  0
 10  5  1  0  0  0  0
 11 14  1  1  0  0  0
 11  1  1  0  0  0  0
 12  3  2  0  0  0  0
 12  9  1  0  0  0  0
 13 17  1  6  0  0  0
 13  1  1  0  0  0  0
 13 12  1  0  0  0  0
 15 16  1  0  0  0  0
 16 14  1  0  0  0  0
 17 26  1  0  0  0  0
 20 23  2  0  0  0  0
 20 21  1  0  0  0  0
 21 24  2  0  0  0  0
 22 19  1  0  0  0  0
 22 18  2  0  0  0  0
 23 22  1  0  0  0  0
 24 18  1  0  0  0  0
 24 17  1  0  0  0  0
 25 20  1  0  0  0  0
 26 27  3  0  0  0  0
M  END
>  <MODEL>
6

>  <REMARK>
 VINA RESULT:      -6.3      6.025      9.000
  Name = 
  5 active torsions:
  status: ('A' for Active; 'I' for Inactive)
    1  A    between atoms: C_13  and  N_27
    2  A    between atoms: C_18  and  N_27
    3  A    between atoms: N_21  and  C_25
    4  A    between atoms: C_23  and  C_25
    5  A    between atoms: C_26  and  N_27
                            x       y       z     vdW  Elec       q    Type
                         _______ _______ _______ _____ _____    ______ ____

>  <TORSDO>
F 5

$$$$
=
 OpenBabel10232411313D

 27 30  0  0  1  0  0  0  0  0999 V2000
  187.3380  177.9820  142.7080 C   0  0  1  0  0  0  0  0  0  0  0  0
  186.5180  177.3020  143.7980 C   0  0  0  0  0  2  0  0  0  0  0  0
  190.6910  178.0200  144.5730 C   0  0  0  0  0  3  0  0  0  0  0  0
  186.9180  177.6290  141.4120 O   0  0  0  0  0  0  0  0  0  0  0  0
  187.8080  177.5960  148.0740 Cl  0  0  0  0  0  0  0  0  0  0  0  0
  191.1630  177.9290  145.8820 C   0  0  0  0  0  3  0  0  0  0  0  0
  186.9130  177.8920  145.1430 C   0  0  0  0  0  2  0  0  0  0  0  0
  190.2650  177.7920  146.9390 C   0  0  0  0  0  3  0  0  0  0  0  0
  188.4010  177.8360  145.3800 C   0  0  0  0  0  0  0  0  0  0  0  0
  188.8900  177.7500  146.6980 C   0  0  0  0  0  0  0  0  0  0  0  0
  186.7260  178.9780  141.7880 C   0  0  1  0  0  3  0  0  0  0  0  0
  189.3180  177.9700  144.3050 C   0  0  0  0  0  0  0  0  0  0  0  0
  188.8620  178.0430  142.8630 C   0  0  1  0  0  3  0  0  0  0  0  0
  185.2490  179.2230  142.0460 C   0  0  0  0  0  2  0  0  0  0  0  0
  183.4630  178.3710  140.8180 C   0  0  0  0  0  1  0  0  0  0  0  0
  184.5480  179.3350  140.7800 N   0  0  0  0  0  2  0  0  0  0  0  0
  189.5510  177.0620  142.0140 N   0  0  0  0  0  0  0  0  0  0  0  0
  189.1930  178.3120  139.9000 C   0  0  0  0  0  3  0  0  0  0  0  0
  188.8270  179.5490  137.8300 N   0  0  0  0  0  1  0  0  0  0  0  0
  190.8800  176.5940  138.5350 C   0  0  0  0  0  0  0  0  0  0  0  0
  190.6530  176.3950  139.8980 C   0  0  0  0  0  3  0  0  0  0  0  0
  189.4430  178.4810  138.5380 C   0  0  0  0  0  0  0  0  0  0  0  0
  190.2760  177.6260  137.8870 N   0  0  0  0  0  0  0  0  0  0  0  0
  189.7990  177.2600  140.6010 C   0  0  0  0  0  0  0  0  0  0  0  0
  191.9430  175.5150  137.6590 Cl  0  0  0  0  0  0  0  0  0  0  0  0
  189.9630  175.8770  142.6460 C   0  0  0  0  0  0  0  0  0  0  0  0
  190.3170  174.8600  143.1890 C   0  0  0  0  0  3  0  0  0  0  0  0
  1 13  1  0  0  0  0
  1  2  1  1  0  0  0
  2  7  1  0  0  0  0
  3  6  1  0  0  0  0
  4 11  1  0  0  0  0
  4  1  1  0  0  0  0
  6  8  2  0  0  0  0
  7  9  1  0  0  0  0
  9 10  2  0  0  0  0
 10  8  1  0  0  0  0
 10  5  1  0  0  0  0
 11 14  1  1  0  0  0
 11  1  1  0  0  0  0
 12  3  2  0  0  0  0
 12  9  1  0  0  0  0
 13 17  1  6  0  0  0
 13 12  1  0  0  0  0
 16 15  1  0  0  0  0
 16 14  1  0  0  0  0
 17 26  1  0  0  0  0
 18 24  1  0  0  0  0
 19 22  1  0  0  0  0
 20 21  1  0  0  0  0
 21 24  2  0  0  0  0
 22 18  2  0  0  0  0
 23 20  2  0  0  0  0
 23 22  1  0  0  0  0
 24 17  1  0  0  0  0
 25 20  1  0  0  0  0
 26 27  3  0  0  0  0
M  END
>  <MODEL>
7

>  <REMARK>
 VINA RESULT:      -6.2      2.639      5.240
  Name = 
  5 active torsions:
  status: ('A' for Active; 'I' for Inactive)
    1  A    between atoms: C_13  and  N_27
    2  A    between atoms: C_18  and  N_27
    3  A    between atoms: N_21  and  C_25
    4  A    between atoms: C_23  and  C_25
    5  A    between atoms: C_26  and  N_27
                            x       y       z     vdW  Elec       q    Type
                         _______ _______ _______ _____ _____    ______ ____

>  <TORSDO>
F 5

$$$$
=
 OpenBabel10232411313D

 27 30  0  0  1  0  0  0  0  0999 V2000
  182.8600  177.2720  138.2050 C   0  0  1  0  0  0  0  0  0  0  0  0
  181.6930  177.0320  137.2550 C   0  0  0  0  0  2  0  0  0  0  0  0
  182.2050  180.9980  138.8490 C   0  0  0  0  0  3  0  0  0  0  0  0
  183.1460  176.1530  139.0090 O   0  0  0  0  0  0  0  0  0  0  0  0
  179.9820  180.4400  134.9120 Cl  0  0  0  0  0  0  0  0  0  0  0  0
  181.5280  182.0610  138.2520 C   0  0  0  0  0  3  0  0  0  0  0  0
  181.5900  178.2130  136.3020 C   0  0  0  0  0  2  0  0  0  0  0  0
  180.8460  181.8680  137.0510 C   0  0  0  0  0  3  0  0  0  0  0  0
  181.5180  179.5320  137.0290 C   0  0  0  0  0  0  0  0  0  0  0  0
  180.8410  180.6140  136.4350 C   0  0  0  0  0  0  0  0  0  0  0  0
  184.1360  176.5190  138.0690 C   0  0  1  0  0  3  0  0  0  0  0  0
  182.2060  179.7300  138.2550 C   0  0  0  0  0  0  0  0  0  0  0  0
  182.9320  178.6040  138.9600 C   0  0  1  0  0  3  0  0  0  0  0  0
  184.1370  175.5190  136.9250 C   0  0  0  0  0  2  0  0  0  0  0  0
  184.9000  173.3780  137.4310 C   0  0  0  0  0  1  0  0  0  0  0  0
  185.3300  174.6960  137.0020 N   0  0  0  0  0  2  0  0  0  0  0  0
  182.5220  178.4750  140.3650 N   0  0  0  0  0  0  0  0  0  0  0  0
  182.9820  178.8140  142.7800 C   0  0  0  0  0  3  0  0  0  0  0  0
  183.4170  179.1540  145.1560 N   0  0  0  0  0  1  0  0  0  0  0  0
  185.6990  178.4920  142.3640 C   0  0  0  0  0  0  0  0  0  0  0  0
  184.8230  178.4010  141.2800 C   0  0  0  0  0  3  0  0  0  0  0  0
  183.8870  178.8990  143.8390 C   0  0  0  0  0  0  0  0  0  0  0  0
  185.2180  178.7360  143.6110 N   0  0  0  0  0  0  0  0  0  0  0  0
  183.4420  178.5620  141.4800 C   0  0  0  0  0  0  0  0  0  0  0  0
  187.4190  178.2920  142.1140 Cl  0  0  0  0  0  0  0  0  0  0  0  0
  181.1550  178.2400  140.5920 C   0  0  0  0  0  0  0  0  0  0  0  0
  179.9820  178.0390  140.7870 C   0  0  0  0  0  3  0  0  0  0  0  0
  1  2  1  6  0  0  0
  1 13  1  0  0  0  0
  1  4  1  0  0  0  0
  5 10  1  0  0  0  0
  6  3  2  0  0  0  0
  7  9  1  0  0  0  0
  7  2  1  0  0  0  0
  8  6  1  0  0  0  0
  9 12  2  0  0  0  0
 10  9  1  0  0  0  0
 10  8  2  0  0  0  0
 11 14  1  6  0  0  0
 11  1  1  0  0  0  0
 11  4  1  0  0  0  0
 12  3  1  0  0  0  0
 12 13  1  0  0  0  0
 13 17  1  1  0  0  0
 14 16  1  0  0  0  0
 16 15  1  0  0  0  0
 17 26  1  0  0  0  0
 17 24  1  0  0  0  0
 18 22  1  0  0  0  0
 20 23  1  0  0  0  0
 21 24  1  0  0  0  0
 21 20  2  0  0  0  0
 22 19  1  0  0  0  0
 23 22  2  0  0  0  0
 24 18  2  0  0  0  0
 25 20  1  0  0  0  0
 26 27  3  0  0  0  0
M  END
>  <MODEL>
8

>  <REMARK>
 VINA RESULT:      -6.1      6.843     10.266
  Name = 
  5 active torsions:
  status: ('A' for Active; 'I' for Inactive)
    1  A    between atoms: C_13  and  N_27
    2  A    between atoms: C_18  and  N_27
    3  A    between atoms: N_21  and  C_25
    4  A    between atoms: C_23  and  C_25
    5  A    between atoms: C_26  and  N_27
                            x       y       z     vdW  Elec       q    Type
                         _______ _______ _______ _____ _____    ______ ____

>  <TORSDO>
F 5

$$$$
=
 OpenBabel10232411313D

 27 30  0  0  1  0  0  0  0  0999 V2000
  190.9070  176.2960  137.9010 C   0  0  1  0  0  0  0  0  0  0  0  0
  189.9660  177.1170  137.0290 C   0  0  0  0  0  2  0  0  0  0  0  0
  190.6760  173.0200  135.9150 C   0  0  0  0  0  3  0  0  0  0  0  0
  191.9530  177.0640  138.4450 O   0  0  0  0  0  0  0  0  0  0  0  0
  186.8320  175.0670  134.5760 Cl  0  0  0  0  0  0  0  0  0  0  0  0
  189.8210  172.4080  134.9980 C   0  0  0  0  0  3  0  0  0  0  0  0
  188.7720  176.2520  136.6530 C   0  0  0  0  0  2  0  0  0  0  0  0
  188.6530  173.0550  134.5950 C   0  0  0  0  0  3  0  0  0  0  0  0
  189.1860  174.9420  136.0310 C   0  0  0  0  0  0  0  0  0  0  0  0
  188.3280  174.3130  135.1080 C   0  0  0  0  0  0  0  0  0  0  0  0
  191.0160  176.5390  139.3640 C   0  0  1  0  0  3  0  0  0  0  0  0
  190.3770  174.2850  136.4350 C   0  0  0  0  0  0  0  0  0  0  0  0
  191.3540  174.9160  137.4050 C   0  0  1  0  0  3  0  0  0  0  0  0
  190.1220  177.6610  139.8660 C   0  0  0  0  0  2  0  0  0  0  0  0
  188.2320  178.1590  141.1320 C   0  0  0  0  0  1  0  0  0  0  0  0
  189.2640  177.1590  140.9240 N   0  0  0  0  0  2  0  0  0  0  0  0
  192.7260  174.9270  136.8790 N   0  0  0  0  0  0  0  0  0  0  0  0
  194.6290  175.0380  138.4670 C   0  0  0  0  0  3  0  0  0  0  0  0
  196.4980  175.1660  140.0290 N   0  0  0  0  0  1  0  0  0  0  0  0
  195.2720  172.3930  137.9680 C   0  0  0  0  0  0  0  0  0  0  0  0
  194.1840  172.9710  137.3110 C   0  0  0  0  0  3  0  0  0  0  0  0
  195.7090  174.4280  139.1060 C   0  0  0  0  0  0  0  0  0  0  0  0
  196.0060  173.1260  138.8460 N   0  0  0  0  0  0  0  0  0  0  0  0
  193.8490  174.3130  137.5560 C   0  0  0  0  0  0  0  0  0  0  0  0
  195.6900  170.7220  137.6610 Cl  0  0  0  0  0  0  0  0  0  0  0  0
  192.9150  175.5920  135.6560 C   0  0  0  0  0  0  0  0  0  0  0  0
  193.0780  176.1630  134.6060 C   0  0  0  0  0  3  0  0  0  0  0  0
  1  2  1  6  0  0  0
  1  4  1  0  0  0  0
  1 11  1  0  0  0  0
  3 12  1  0  0  0  0
  4 11  1  0  0  0  0
  5 10  1  0  0  0  0
  6  3  2  0  0  0  0
  7  2  1  0  0  0  0
  8  6  1  0  0  0  0
  8 10  2  0  0  0  0
  9 12  2  0  0  0  0
  9  7  1  0  0  0  0
 10  9  1  0  0  0  0
 11 14  1  6  0  0  0
 12 13  1  0  0  0  0
 13 17  1  6  0  0  0
 13  1  1  0  0  0  0
 14 16  1  0  0  0  0
 16 15  1  0  0  0  0
 17 24  1  0  0  0  0
 18 22  1  0  0  0  0
 20 23  1  0  0  0  0
 21 24  1  0  0  0  0
 21 20  2  0  0  0  0
 22 19  1  0  0  0  0
 23 22  2  0  0  0  0
 24 18  2  0  0  0  0
 25 20  1  0  0  0  0
 26 17  1  0  0  0  0
 27 26  3  0  0  0  0
M  END
>  <MODEL>
9

>  <REMARK>
 VINA RESULT:      -5.7      5.334      8.573
  Name = 
  5 active torsions:
  status: ('A' for Active; 'I' for Inactive)
    1  A    between atoms: C_13  and  N_27
    2  A    between atoms: C_18  and  N_27
    3  A    between atoms: N_21  and  C_25
    4  A    between atoms: C_23  and  C_25
    5  A    between atoms: C_26  and  N_27
                            x       y       z     vdW  Elec       q    Type
                         _______ _______ _______ _____ _____    ______ ____

>  <TORSDO>
F 5

$$$$
