=
 OpenBabel10222421293D

 34 37  0  0  1  0  0  0  0  0999 V2000
  188.9150  178.0910  141.2940 C   0  0  0  0  0  3  0  0  0  0  0  0
  190.8270  176.7050  145.3580 C   0  0  0  0  0  0  0  0  0  0  0  0
  189.7470  177.4960  144.9120 C   0  0  0  0  0  0  0  0  0  0  0  0
  188.5540  178.3910  142.7680 C   0  0  0  0  0  3  0  0  0  0  0  0
  191.4950  176.3000  143.1280 N   0  0  0  0  0  0  0  0  0  0  0  0
  191.6670  176.1320  144.4430 N   0  0  0  0  0  0  0  0  0  0  0  0
  189.5960  177.6500  143.5340 C   0  0  0  0  0  0  0  0  0  0  0  0
  191.1240  176.4390  147.0680 Cl  0  0  0  0  0  0  0  0  0  0  0  0
  190.4680  177.0610  142.6790 C   0  0  0  0  0  0  0  0  0  0  0  0
  190.1540  177.3120  141.3260 N   0  0  0  0  0  0  0  0  0  0  0  0
  188.8130  178.1770  145.8670 C   0  0  0  0  0  2  0  0  0  0  0  0
  187.5970  177.3080  146.1710 C   0  0  0  0  0  2  0  0  0  0  0  0
  186.0440  177.8190  144.1980 C   0  0  0  0  0  3  0  0  0  0  0  0
  184.2960  179.0260  145.9790 N   0  0  0  0  0  2  0  0  0  0  0  0
  186.3480  177.9220  145.6380 C   0  0  0  0  0  0  0  0  0  0  0  0
  185.5040  178.4850  146.4520 N   0  0  0  0  0  0  0  0  0  0  0  0
  184.9030  178.3120  143.7180 C   0  0  0  0  0  0  0  0  0  0  0  0
  183.9790  178.9510  144.6130 N   0  0  0  0  0  0  0  0  0  0  0  0
  184.6080  178.1850  142.3320 N   0  0  0  0  0  1  0  0  0  0  0  0
  181.6400  178.4440  144.1660 C   0  0  0  0  0  1  0  0  0  0  0  0
  182.7220  179.5060  144.1330 C   0  0  0  0  0  2  0  0  0  0  0  0
  190.6490  176.4990  140.2230 C   0  0  0  0  0  2  0  0  0  0  0  0
  191.0400  177.3670  139.0340 C   0  0  0  0  0  2  0  0  0  0  0  0
  189.0520  178.5640  138.0770 C   0  0  1  0  0  3  0  0  0  0  0  0
  189.1050  176.1050  138.1020 C   0  0  0  0  0  2  0  0  0  0  0  0
  189.2730  179.4200  136.9980 O   0  0  0  0  0  1  0  0  0  0  0  0
  187.6590  176.5220  137.9080 C   0  0  0  0  0  2  0  0  0  0  0  0
  186.6310  178.7590  137.9600 N   0  0  0  0  0  0  0  0  0  0  0  0
  187.6860  178.0010  138.0040 C   0  0  0  0  0  0  0  0  0  0  0  0
  189.9680  177.3550  137.9540 C   0  0  2  0  0  3  0  0  0  0  0  0
  185.3140  178.2680  137.9170 N   0  0  0  0  0  2  0  0  0  0  0  0
  184.2420  178.8190  138.6880 C   0  0  0  0  0  0  0  0  0  0  0  0
  183.0140  178.1750  138.7150 O   0  0  0  0  0  0  0  0  0  0  0  0
  184.3880  179.9090  139.3040 O   0  0  0  0  0  1  0  0  0  0  0  0
  1 10  1  0  0  0  0
  1  4  2  0  0  0  0
  2  8  1  0  0  0  0
  3  2  1  0  0  0  0
  3 11  1  0  0  0  0
  4  7  1  0  0  0  0
  5  6  1  0  0  0  0
  6  2  2  0  0  0  0
  7  3  2  0  0  0  0
  9  5  2  0  0  0  0
  9  7  1  0  0  0  0
 10  9  1  0  0  0  0
 11 12  1  0  0  0  0
 13 15  1  0  0  0  0
 14 16  1  0  0  0  0
 15 12  1  0  0  0  0
 15 16  2  0  0  0  0
 17 13  2  0  0  0  0
 17 18  1  0  0  0  0
 18 14  1  0  0  0  0
 19 17  1  0  0  0  0
 21 20  1  0  0  0  0
 21 18  1  0  0  0  0
 22 10  1  0  0  0  0
 23 22  1  0  0  0  0
 24 26  1  6  0  0  0
 27 29  1  0  0  0  0
 27 25  1  0  0  0  0
 28 29  2  0  0  0  0
 29 24  1  0  0  0  0
 30 24  1  0  0  0  0
 30 25  1  0  0  0  0
 30 23  1  1  0  0  0
 31 28  1  0  0  0  0
 31 32  1  0  0  0  0
 32 33  2  0  0  0  0
 32 34  1  0  0  0  0
M  END
>  <MODEL>
1

>  <REMARK>
 VINA RESULT:      -9.0      0.000      0.000
  Name = 
  8 active torsions:
  status: ('A' for Active; 'I' for Inactive)
    1  A    between atoms: N_3  and  N_22
    2  A    between atoms: C_7  and  C_11
    3  A    between atoms: C_11  and  C_13
    4  A    between atoms: C_12  and  C_13
    5  A    between atoms: C_18  and  C_28
    6  A    between atoms: C_18  and  N_32
    7  A    between atoms: N_27  and  C_30
    8  A    between atoms: C_28  and  C_29
                            x       y       z     vdW  Elec       q    Type
                         _______ _______ _______ _____ _____    ______ ____

>  <TORSDO>
F 8

$$$$
=
 OpenBabel10222421293D

 34 37  0  0  1  0  0  0  0  0999 V2000
  189.5330  178.0280  140.3340 C   0  0  0  0  0  3  0  0  0  0  0  0
  184.9840  178.9040  139.5400 C   0  0  0  0  0  0  0  0  0  0  0  0
  185.8820  178.8780  140.6280 C   0  0  0  0  0  0  0  0  0  0  0  0
  188.3690  178.4110  141.2780 C   0  0  0  0  0  3  0  0  0  0  0  0
  186.6950  178.2140  138.0660 N   0  0  0  0  0  0  0  0  0  0  0  0
  185.4270  178.5680  138.2910 N   0  0  0  0  0  0  0  0  0  0  0  0
  187.1990  178.5050  140.3590 C   0  0  0  0  0  0  0  0  0  0  0  0
  183.3000  179.3540  139.7530 Cl  0  0  0  0  0  0  0  0  0  0  0  0
  187.5740  178.1770  139.0970 C   0  0  0  0  0  0  0  0  0  0  0  0
  188.9410  177.8390  139.0080 N   0  0  0  0  0  0  0  0  0  0  0  0
  185.4480  179.2030  142.0250 C   0  0  0  0  0  2  0  0  0  0  0  0
  185.1900  177.9380  142.8370 C   0  0  0  0  0  2  0  0  0  0  0  0
  185.4620  178.7400  145.2560 C   0  0  0  0  0  3  0  0  0  0  0  0
  187.7380  177.1680  145.4460 N   0  0  0  0  0  2  0  0  0  0  0  0
  185.9590  177.9490  144.1140 C   0  0  0  0  0  0  0  0  0  0  0  0
  187.0250  177.2140  144.2350 N   0  0  0  0  0  0  0  0  0  0  0  0
  186.1080  178.7120  146.4210 C   0  0  0  0  0  0  0  0  0  0  0  0
  187.2950  177.9150  146.5510 N   0  0  0  0  0  0  0  0  0  0  0  0
  185.6050  179.4580  147.5240 N   0  0  0  0  0  1  0  0  0  0  0  0
  189.4630  177.4190  147.5420 C   0  0  0  0  0  1  0  0  0  0  0  0
  188.0350  177.8560  147.8030 C   0  0  0  0  0  2  0  0  0  0  0  0
  189.6900  177.8480  137.7590 C   0  0  0  0  0  2  0  0  0  0  0  0
  189.8640  176.4350  137.2140 C   0  0  0  0  0  2  0  0  0  0  0  0
  192.2310  176.4360  138.0480 C   0  0  1  0  0  3  0  0  0  0  0  0
  191.2030  174.3350  137.2870 C   0  0  0  0  0  2  0  0  0  0  0  0
  192.4530  176.8630  139.3580 O   0  0  0  0  0  1  0  0  0  0  0  0
  192.7050  174.1250  137.2910 C   0  0  0  0  0  2  0  0  0  0  0  0
  194.5320  175.7240  137.7070 N   0  0  0  0  0  0  0  0  0  0  0  0
  193.2610  175.4500  137.6570 C   0  0  0  0  0  0  0  0  0  0  0  0
  190.9230  175.6620  137.9870 C   0  0  2  0  0  3  0  0  0  0  0  0
  195.5430  174.8270  137.3200 N   0  0  0  0  0  2  0  0  0  0  0  0
  196.3270  174.0750  138.2520 C   0  0  0  0  0  0  0  0  0  0  0  0
  197.4120  173.3400  137.7990 O   0  0  0  0  0  0  0  0  0  0  0  0
  196.0130  174.0370  139.4720 O   0  0  0  0  0  1  0  0  0  0  0  0
  1  4  2  0  0  0  0
  2  8  1  0  0  0  0
  2  3  1  0  0  0  0
  3 11  1  0  0  0  0
  5  6  1  0  0  0  0
  5  9  2  0  0  0  0
  6  2  2  0  0  0  0
  7  3  2  0  0  0  0
  7  4  1  0  0  0  0
  9  7  1  0  0  0  0
 10  9  1  0  0  0  0
 10  1  1  0  0  0  0
 11 12  1  0  0  0  0
 12 15  1  0  0  0  0
 13 17  2  0  0  0  0
 14 18  1  0  0  0  0
 15 16  2  0  0  0  0
 15 13  1  0  0  0  0
 16 14  1  0  0  0  0
 17 18  1  0  0  0  0
 17 19  1  0  0  0  0
 18 21  1  0  0  0  0
 20 21  1  0  0  0  0
 22 10  1  0  0  0  0
 23 22  1  0  0  0  0
 24 26  1  1  0  0  0
 25 27  1  0  0  0  0
 25 30  1  0  0  0  0
 27 29  1  0  0  0  0
 29 28  2  0  0  0  0
 29 24  1  0  0  0  0
 30 23  1  6  0  0  0
 30 24  1  0  0  0  0
 31 28  1  0  0  0  0
 31 32  1  0  0  0  0
 32 34  1  0  0  0  0
 33 32  2  0  0  0  0
M  END
>  <MODEL>
2

>  <REMARK>
 VINA RESULT:      -8.7      4.052      6.758
  Name = 
  8 active torsions:
  status: ('A' for Active; 'I' for Inactive)
    1  A    between atoms: N_3  and  N_22
    2  A    between atoms: C_7  and  C_11
    3  A    between atoms: C_11  and  C_13
    4  A    between atoms: C_12  and  C_13
    5  A    between atoms: C_18  and  C_28
    6  A    between atoms: C_18  and  N_32
    7  A    between atoms: N_27  and  C_30
    8  A    between atoms: C_28  and  C_29
                            x       y       z     vdW  Elec       q    Type
                         _______ _______ _______ _____ _____    ______ ____

>  <TORSDO>
F 8

$$$$
=
 OpenBabel10222421293D

 34 37  0  0  1  0  0  0  0  0999 V2000
  187.3700  178.4800  140.2910 C   0  0  0  0  0  3  0  0  0  0  0  0
  183.8400  178.7790  143.3800 C   0  0  0  0  0  0  0  0  0  0  0  0
  185.2500  178.7160  143.3870 C   0  0  0  0  0  0  0  0  0  0  0  0
  187.3440  178.5290  141.8370 C   0  0  0  0  0  3  0  0  0  0  0  0
  183.8090  178.5970  141.0250 N   0  0  0  0  0  0  0  0  0  0  0  0
  183.1680  178.7170  142.1910 N   0  0  0  0  0  0  0  0  0  0  0  0
  185.8890  178.5920  142.1540 C   0  0  0  0  0  0  0  0  0  0  0  0
  182.9220  178.9330  144.8690 Cl  0  0  0  0  0  0  0  0  0  0  0  0
  185.1630  178.5280  141.0090 C   0  0  0  0  0  0  0  0  0  0  0  0
  185.9730  178.4180  139.8590 N   0  0  0  0  0  0  0  0  0  0  0  0
  186.0400  178.7460  144.6600 C   0  0  0  0  0  2  0  0  0  0  0  0
  186.2690  177.3410  145.2070 C   0  0  0  0  0  2  0  0  0  0  0  0
  188.8050  177.1590  144.8890 C   0  0  0  0  0  3  0  0  0  0  0  0
  189.0760  177.1070  147.6470 N   0  0  0  0  0  2  0  0  0  0  0  0
  187.6360  177.2020  145.7870 C   0  0  0  0  0  0  0  0  0  0  0  0
  187.7930  177.1860  147.0770 N   0  0  0  0  0  0  0  0  0  0  0  0
  190.0360  177.0960  145.3960 C   0  0  0  0  0  0  0  0  0  0  0  0
  190.2110  177.0580  146.8210 N   0  0  0  0  0  0  0  0  0  0  0  0
  191.1590  177.0800  144.5220 N   0  0  0  0  0  1  0  0  0  0  0  0
  191.9560  175.5360  147.5740 C   0  0  0  0  0  1  0  0  0  0  0  0
  191.5350  176.9850  147.4200 C   0  0  0  0  0  2  0  0  0  0  0  0
  185.5070  178.7370  138.5160 C   0  0  0  0  0  2  0  0  0  0  0  0
  185.3210  177.4730  137.6850 C   0  0  0  0  0  2  0  0  0  0  0  0
  187.4840  176.2260  137.4330 C   0  0  1  0  0  3  0  0  0  0  0  0
  187.2820  178.5140  136.5540 C   0  0  0  0  0  2  0  0  0  0  0  0
  187.4570  175.0240  136.7240 O   0  0  0  0  0  1  0  0  0  0  0  0
  188.7630  178.2060  136.6690 C   0  0  0  0  0  2  0  0  0  0  0  0
  189.9080  176.2510  137.6350 N   0  0  0  0  0  0  0  0  0  0  0  0
  188.8120  176.8630  137.2940 C   0  0  0  0  0  0  0  0  0  0  0  0
  186.5220  177.2110  136.7870 C   0  0  2  0  0  3  0  0  0  0  0  0
  191.1870  176.8280  137.5450 N   0  0  0  0  0  2  0  0  0  0  0  0
  192.3990  176.0880  137.7240 C   0  0  0  0  0  0  0  0  0  0  0  0
  193.6110  176.7590  137.7850 O   0  0  0  0  0  1  0  0  0  0  0  0
  192.3800  174.8290  137.7800 O   0  0  0  0  0  0  0  0  0  0  0  0
  1  4  2  0  0  0  0
  2  3  1  0  0  0  0
  2  8  1  0  0  0  0
  3 11  1  0  0  0  0
  4  7  1  0  0  0  0
  5  6  1  0  0  0  0
  6  2  2  0  0  0  0
  7  3  2  0  0  0  0
  9  5  2  0  0  0  0
  9  7  1  0  0  0  0
 10  1  1  0  0  0  0
 10  9  1  0  0  0  0
 11 12  1  0  0  0  0
 12 15  1  0  0  0  0
 13 17  2  0  0  0  0
 13 15  1  0  0  0  0
 15 16  2  0  0  0  0
 16 14  1  0  0  0  0
 17 18  1  0  0  0  0
 18 21  1  0  0  0  0
 18 14  1  0  0  0  0
 19 17  1  0  0  0  0
 21 20  1  0  0  0  0
 22 10  1  0  0  0  0
 23 22  1  0  0  0  0
 24 26  1  6  0  0  0
 25 27  1  0  0  0  0
 25 30  1  0  0  0  0
 27 29  1  0  0  0  0
 29 24  1  0  0  0  0
 29 28  2  0  0  0  0
 30 24  1  0  0  0  0
 30 23  1  1  0  0  0
 31 28  1  0  0  0  0
 31 32  1  0  0  0  0
 32 34  2  0  0  0  0
 32 33  1  0  0  0  0
M  END
>  <MODEL>
3

>  <REMARK>
 VINA RESULT:      -8.7      2.895      6.101
  Name = 
  8 active torsions:
  status: ('A' for Active; 'I' for Inactive)
    1  A    between atoms: N_3  and  N_22
    2  A    between atoms: C_7  and  C_11
    3  A    between atoms: C_11  and  C_13
    4  A    between atoms: C_12  and  C_13
    5  A    between atoms: C_18  and  C_28
    6  A    between atoms: C_18  and  N_32
    7  A    between atoms: N_27  and  C_30
    8  A    between atoms: C_28  and  C_29
                            x       y       z     vdW  Elec       q    Type
                         _______ _______ _______ _____ _____    ______ ____

>  <TORSDO>
F 8

$$$$
=
 OpenBabel10222421293D

 34 37  0  0  1  0  0  0  0  0999 V2000
  185.8560  178.1790  143.4570 C   0  0  0  0  0  3  0  0  0  0  0  0
  181.4390  178.8430  141.9940 C   0  0  0  0  0  0  0  0  0  0  0  0
  182.6810  178.4380  141.4600 C   0  0  0  0  0  0  0  0  0  0  0  0
  185.1890  178.0340  142.0690 C   0  0  0  0  0  3  0  0  0  0  0  0
  182.4240  179.1890  144.1130 N   0  0  0  0  0  0  0  0  0  0  0  0
  181.3560  179.2050  143.3100 N   0  0  0  0  0  0  0  0  0  0  0  0
  183.7750  178.4310  142.3250 C   0  0  0  0  0  0  0  0  0  0  0  0
  179.9890  178.8960  141.0050 Cl  0  0  0  0  0  0  0  0  0  0  0  0
  183.6280  178.8100  143.6190 C   0  0  0  0  0  0  0  0  0  0  0  0
  184.8330  178.7280  144.3490 N   0  0  0  0  0  0  0  0  0  0  0  0
  182.8410  178.0620  140.0180 C   0  0  0  0  0  2  0  0  0  0  0  0
  183.6720  179.0930  139.2620 C   0  0  0  0  0  2  0  0  0  0  0  0
  184.5200  177.4290  137.5060 C   0  0  0  0  0  3  0  0  0  0  0  0
  187.1020  178.2740  138.0560 N   0  0  0  0  0  2  0  0  0  0  0  0
  184.8030  178.4470  138.5350 C   0  0  0  0  0  0  0  0  0  0  0  0
  186.0240  178.8310  138.7650 N   0  0  0  0  0  0  0  0  0  0  0  0
  185.5170  176.8880  136.8080 C   0  0  0  0  0  0  0  0  0  0  0  0
  186.8680  177.2970  137.0740 N   0  0  0  0  0  0  0  0  0  0  0  0
  185.2310  175.9250  135.8000 N   0  0  0  0  0  1  0  0  0  0  0  0
  188.9060  177.8380  135.8590 C   0  0  0  0  0  1  0  0  0  0  0  0
  187.9890  176.7310  136.3390 C   0  0  0  0  0  2  0  0  0  0  0  0
  184.8890  178.6740  145.8030 C   0  0  0  0  0  2  0  0  0  0  0  0
  185.9500  177.6870  146.2760 C   0  0  0  0  0  2  0  0  0  0  0  0
  188.4310  177.5910  145.9080 C   0  0  1  0  0  3  0  0  0  0  0  0
  187.5410  178.4670  148.0280 C   0  0  0  0  0  2  0  0  0  0  0  0
  188.9520  178.3070  144.8300 O   0  0  0  0  0  1  0  0  0  0  0  0
  188.9970  178.1110  148.2640 C   0  0  0  0  0  2  0  0  0  0  0  0
  190.6180  176.9890  146.7870 N   0  0  0  0  0  0  0  0  0  0  0  0
  189.4390  177.5000  146.9870 C   0  0  0  0  0  0  0  0  0  0  0  0
  187.2840  178.3770  146.5260 C   0  0  2  0  0  3  0  0  0  0  0  0
  191.5960  176.8590  147.7890 N   0  0  0  0  0  2  0  0  0  0  0  0
  192.5530  175.7960  147.8220 C   0  0  0  0  0  0  0  0  0  0  0  0
  193.3750  175.6460  148.9290 O   0  0  0  0  0  1  0  0  0  0  0  0
  192.6900  175.0250  146.8350 O   0  0  0  0  0  0  0  0  0  0  0  0
  1 10  1  0  0  0  0
  2  6  1  0  0  0  0
  3  2  2  0  0  0  0
  3  7  1  0  0  0  0
  4  7  1  0  0  0  0
  4  1  2  0  0  0  0
  6  5  2  0  0  0  0
  7  9  2  0  0  0  0
  8  2  1  0  0  0  0
  9  5  1  0  0  0  0
  9 10  1  0  0  0  0
 10 22  1  0  0  0  0
 11  3  1  0  0  0  0
 12 11  1  0  0  0  0
 13 15  1  0  0  0  0
 14 16  1  0  0  0  0
 15 16  2  0  0  0  0
 15 12  1  0  0  0  0
 17 18  1  0  0  0  0
 17 13  2  0  0  0  0
 18 14  1  0  0  0  0
 19 17  1  0  0  0  0
 20 21  1  0  0  0  0
 21 18  1  0  0  0  0
 22 23  1  0  0  0  0
 24 26  1  6  0  0  0
 24 30  1  0  0  0  0
 24 29  1  0  0  0  0
 25 27  1  0  0  0  0
 28 29  2  0  0  0  0
 28 31  1  0  0  0  0
 29 27  1  0  0  0  0
 30 23  1  1  0  0  0
 30 25  1  0  0  0  0
 31 32  1  0  0  0  0
 32 33  1  0  0  0  0
 34 32  2  0  0  0  0
M  END
>  <MODEL>
4

>  <REMARK>
 VINA RESULT:      -8.6      4.338      9.184
  Name = 
  8 active torsions:
  status: ('A' for Active; 'I' for Inactive)
    1  A    between atoms: N_3  and  N_22
    2  A    between atoms: C_7  and  C_11
    3  A    between atoms: C_11  and  C_13
    4  A    between atoms: C_12  and  C_13
    5  A    between atoms: C_18  and  C_28
    6  A    between atoms: C_18  and  N_32
    7  A    between atoms: N_27  and  C_30
    8  A    between atoms: C_28  and  C_29
                            x       y       z     vdW  Elec       q    Type
                         _______ _______ _______ _____ _____    ______ ____

>  <TORSDO>
F 8

$$$$
=
 OpenBabel10222421293D

 34 37  0  0  1  0  0  0  0  0999 V2000
  189.4810  177.2420  140.8870 C   0  0  0  0  0  3  0  0  0  0  0  0
  185.3120  178.7240  142.4740 C   0  0  0  0  0  0  0  0  0  0  0  0
  186.3920  177.9300  142.9170 C   0  0  0  0  0  0  0  0  0  0  0  0
  188.7230  176.9860  142.2110 C   0  0  0  0  0  3  0  0  0  0  0  0
  186.3710  179.0610  140.3890 N   0  0  0  0  0  0  0  0  0  0  0  0
  185.3420  179.2640  141.2190 N   0  0  0  0  0  0  0  0  0  0  0  0
  187.4490  177.7390  142.0280 C   0  0  0  0  0  0  0  0  0  0  0  0
  183.9220  179.0350  143.5000 Cl  0  0  0  0  0  0  0  0  0  0  0  0
  187.4150  178.2970  140.7920 C   0  0  0  0  0  0  0  0  0  0  0  0
  188.5710  178.0110  140.0360 N   0  0  0  0  0  0  0  0  0  0  0  0
  186.4010  177.2840  144.2700 C   0  0  0  0  0  2  0  0  0  0  0  0
  186.9600  178.2250  145.3320 C   0  0  0  0  0  2  0  0  0  0  0  0
  189.5100  178.0400  145.1550 C   0  0  0  0  0  3  0  0  0  0  0  0
  189.5020  176.6320  147.5430 N   0  0  0  0  0  2  0  0  0  0  0  0
  188.2580  177.7240  145.8680 C   0  0  0  0  0  0  0  0  0  0  0  0
  188.2850  177.0700  146.9920 N   0  0  0  0  0  0  0  0  0  0  0  0
  190.6810  177.6490  145.6550 C   0  0  0  0  0  0  0  0  0  0  0  0
  190.7120  176.9100  146.8860 N   0  0  0  0  0  0  0  0  0  0  0  0
  191.8850  177.9810  144.9720 N   0  0  0  0  0  1  0  0  0  0  0  0
  192.3370  175.0980  146.9150 C   0  0  0  0  0  1  0  0  0  0  0  0
  191.9680  176.4600  147.4670 C   0  0  0  0  0  2  0  0  0  0  0  0
  188.9840  178.7880  138.8750 C   0  0  0  0  0  2  0  0  0  0  0  0
  189.6260  177.8980  137.8180 C   0  0  0  0  0  2  0  0  0  0  0  0
  187.2850  178.0770  136.9290 C   0  0  1  0  0  3  0  0  0  0  0  0
  188.2660  175.8620  137.3560 C   0  0  0  0  0  2  0  0  0  0  0  0
  187.1080  178.7200  135.7030 O   0  0  0  0  0  1  0  0  0  0  0  0
  186.7620  175.6800  137.2750 C   0  0  0  0  0  2  0  0  0  0  0  0
  184.9670  177.3550  137.0810 N   0  0  0  0  0  0  0  0  0  0  0  0
  186.2320  177.0560  137.1200 C   0  0  0  0  0  0  0  0  0  0  0  0
  188.5820  177.2820  136.8960 C   0  0  2  0  0  3  0  0  0  0  0  0
  183.9340  176.4230  137.2830 N   0  0  0  0  0  2  0  0  0  0  0  0
  183.1410  176.3720  138.4730 C   0  0  0  0  0  0  0  0  0  0  0  0
  182.2560  175.3210  138.6640 O   0  0  0  0  0  0  0  0  0  0  0  0
  183.2050  177.2970  139.3270 O   0  0  0  0  0  1  0  0  0  0  0  0
  1  4  2  0  0  0  0
  2  3  1  0  0  0  0
  2  8  1  0  0  0  0
  3 11  1  0  0  0  0
  5  9  2  0  0  0  0
  5  6  1  0  0  0  0
  6  2  2  0  0  0  0
  7  4  1  0  0  0  0
  7  3  2  0  0  0  0
  9  7  1  0  0  0  0
 10  9  1  0  0  0  0
 10  1  1  0  0  0  0
 11 12  1  0  0  0  0
 12 15  1  0  0  0  0
 13 17  2  0  0  0  0
 13 15  1  0  0  0  0
 15 16  2  0  0  0  0
 16 14  1  0  0  0  0
 17 18  1  0  0  0  0
 18 21  1  0  0  0  0
 18 14  1  0  0  0  0
 19 17  1  0  0  0  0
 20 21  1  0  0  0  0
 22 10  1  0  0  0  0
 23 22  1  0  0  0  0
 24 26  1  6  0  0  0
 24 29  1  0  0  0  0
 27 25  1  0  0  0  0
 28 29  2  0  0  0  0
 28 31  1  0  0  0  0
 29 27  1  0  0  0  0
 30 24  1  0  0  0  0
 30 25  1  0  0  0  0
 30 23  1  1  0  0  0
 31 32  1  0  0  0  0
 32 33  2  0  0  0  0
 32 34  1  0  0  0  0
M  END
>  <MODEL>
5

>  <REMARK>
 VINA RESULT:      -8.6      2.523      4.838
  Name = 
  8 active torsions:
  status: ('A' for Active; 'I' for Inactive)
    1  A    between atoms: N_3  and  N_22
    2  A    between atoms: C_7  and  C_11
    3  A    between atoms: C_11  and  C_13
    4  A    between atoms: C_12  and  C_13
    5  A    between atoms: C_18  and  C_28
    6  A    between atoms: C_18  and  N_32
    7  A    between atoms: N_27  and  C_30
    8  A    between atoms: C_28  and  C_29
                            x       y       z     vdW  Elec       q    Type
                         _______ _______ _______ _____ _____    ______ ____

>  <TORSDO>
F 8

$$$$
=
 OpenBabel10222421293D

 34 37  0  0  1  0  0  0  0  0999 V2000
  181.5800  178.8400  143.0810 C   0  0  0  0  0  3  0  0  0  0  0  0
  186.0190  178.9460  141.5410 C   0  0  0  0  0  0  0  0  0  0  0  0
  185.3240  178.7610  142.7550 C   0  0  0  0  0  0  0  0  0  0  0  0
  182.9360  178.6880  143.8100 C   0  0  0  0  0  3  0  0  0  0  0  0
  183.9850  179.2970  140.3910 N   0  0  0  0  0  0  0  0  0  0  0  0
  185.3180  179.2090  140.3960 N   0  0  0  0  0  0  0  0  0  0  0  0
  183.9340  178.8580  142.7150 C   0  0  0  0  0  0  0  0  0  0  0  0
  187.7700  178.8500  141.4620 Cl  0  0  0  0  0  0  0  0  0  0  0  0
  183.2980  179.1280  141.5480 C   0  0  0  0  0  0  0  0  0  0  0  0
  181.8960  179.1760  141.6920 N   0  0  0  0  0  0  0  0  0  0  0  0
  186.0390  178.5030  144.0470 C   0  0  0  0  0  2  0  0  0  0  0  0
  186.7450  177.1510  144.0340 C   0  0  0  0  0  2  0  0  0  0  0  0
  187.7650  177.5410  146.3520 C   0  0  0  0  0  3  0  0  0  0  0  0
  190.2030  176.6890  145.3440 N   0  0  0  0  0  2  0  0  0  0  0  0
  187.9300  177.1510  144.9390 C   0  0  0  0  0  0  0  0  0  0  0  0
  189.0830  176.7470  144.4960 N   0  0  0  0  0  0  0  0  0  0  0  0
  188.8030  177.4890  147.1860 C   0  0  0  0  0  0  0  0  0  0  0  0
  190.0830  177.0600  146.6940 N   0  0  0  0  0  0  0  0  0  0  0  0
  188.6290  177.8430  148.5530 N   0  0  0  0  0  1  0  0  0  0  0  0
  192.1210  175.8180  147.1710 C   0  0  0  0  0  1  0  0  0  0  0  0
  191.2450  176.9910  147.5660 C   0  0  0  0  0  2  0  0  0  0  0  0
  180.9690  179.0400  140.5770 C   0  0  0  0  0  2  0  0  0  0  0  0
  180.6530  177.5740  140.3020 C   0  0  0  0  0  2  0  0  0  0  0  0
  182.3710  176.3760  138.9190 C   0  0  1  0  0  3  0  0  0  0  0  0
  181.3020  178.4120  138.0470 C   0  0  0  0  0  2  0  0  0  0  0  0
  182.1100  175.0500  138.5740 O   0  0  0  0  0  1  0  0  0  0  0  0
  182.5650  178.1870  137.2390 C   0  0  0  0  0  2  0  0  0  0  0  0
  184.3620  176.5270  137.5290 N   0  0  0  0  0  0  0  0  0  0  0  0
  183.2070  177.0130  137.8780 C   0  0  0  0  0  0  0  0  0  0  0  0
  181.0710  177.1660  138.8960 C   0  0  2  0  0  3  0  0  0  0  0  0
  185.2010  177.1150  136.5650 N   0  0  0  0  0  2  0  0  0  0  0  0
  186.4690  177.6990  136.8760 C   0  0  0  0  0  0  0  0  0  0  0  0
  187.1580  178.4030  135.9000 O   0  0  0  0  0  0  0  0  0  0  0  0
  186.9870  177.5420  138.0140 O   0  0  0  0  0  1  0  0  0  0  0  0
  1  4  2  0  0  0  0
  2  3  1  0  0  0  0
  3 11  1  0  0  0  0
  5  6  1  0  0  0  0
  5  9  2  0  0  0  0
  6  2  2  0  0  0  0
  7  3  2  0  0  0  0
  7  4  1  0  0  0  0
  8  2  1  0  0  0  0
  9 10  1  0  0  0  0
  9  7  1  0  0  0  0
 10  1  1  0  0  0  0
 12 11  1  0  0  0  0
 12 15  1  0  0  0  0
 13 17  2  0  0  0  0
 14 18  1  0  0  0  0
 15 13  1  0  0  0  0
 16 15  2  0  0  0  0
 16 14  1  0  0  0  0
 17 19  1  0  0  0  0
 18 17  1  0  0  0  0
 18 21  1  0  0  0  0
 20 21  1  0  0  0  0
 22 10  1  0  0  0  0
 23 22  1  0  0  0  0
 24 26  1  6  0  0  0
 25 30  1  0  0  0  0
 27 29  1  0  0  0  0
 27 25  1  0  0  0  0
 28 29  2  0  0  0  0
 29 24  1  0  0  0  0
 30 24  1  0  0  0  0
 30 23  1  1  0  0  0
 31 32  1  0  0  0  0
 31 28  1  0  0  0  0
 32 34  1  0  0  0  0
 33 32  2  0  0  0  0
M  END
>  <MODEL>
6

>  <REMARK>
 VINA RESULT:      -8.5      3.055      6.716
  Name = 
  8 active torsions:
  status: ('A' for Active; 'I' for Inactive)
    1  A    between atoms: N_3  and  N_22
    2  A    between atoms: C_7  and  C_11
    3  A    between atoms: C_11  and  C_13
    4  A    between atoms: C_12  and  C_13
    5  A    between atoms: C_18  and  C_28
    6  A    between atoms: C_18  and  N_32
    7  A    between atoms: N_27  and  C_30
    8  A    between atoms: C_28  and  C_29
                            x       y       z     vdW  Elec       q    Type
                         _______ _______ _______ _____ _____    ______ ____

>  <TORSDO>
F 8

$$$$
=
 OpenBabel10222421293D

 34 37  0  0  1  0  0  0  0  0999 V2000
  188.4920  177.3990  141.2070 C   0  0  0  0  0  3  0  0  0  0  0  0
  189.8490  177.2840  145.7050 C   0  0  0  0  0  0  0  0  0  0  0  0
  188.6510  177.2440  144.9600 C   0  0  0  0  0  0  0  0  0  0  0  0
  187.6950  177.3150  142.5300 C   0  0  0  0  0  3  0  0  0  0  0  0
  191.1130  177.5240  143.7250 N   0  0  0  0  0  0  0  0  0  0  0  0
  191.0430  177.4230  145.0560 N   0  0  0  0  0  0  0  0  0  0  0  0
  188.7590  177.3500  143.5740 C   0  0  0  0  0  0  0  0  0  0  0  0
  189.8430  177.1610  147.4570 Cl  0  0  0  0  0  0  0  0  0  0  0  0
  189.9750  177.4940  142.9900 C   0  0  0  0  0  0  0  0  0  0  0  0
  189.8950  177.5730  141.5830 N   0  0  0  0  0  0  0  0  0  0  0  0
  187.3090  177.1260  145.6180 C   0  0  0  0  0  2  0  0  0  0  0  0
  186.7270  178.4970  145.9440 C   0  0  0  0  0  2  0  0  0  0  0  0
  185.4280  178.7840  143.7530 C   0  0  0  0  0  3  0  0  0  0  0  0
  183.0960  178.9560  145.2410 N   0  0  0  0  0  2  0  0  0  0  0  0
  185.4390  178.7220  145.2270 C   0  0  0  0  0  0  0  0  0  0  0  0
  184.3280  178.7960  145.8980 N   0  0  0  0  0  0  0  0  0  0  0  0
  184.2770  178.9250  143.0970 C   0  0  0  0  0  0  0  0  0  0  0  0
  183.0510  179.0260  143.8380 N   0  0  0  0  0  0  0  0  0  0  0  0
  184.2750  178.9590  141.6750 N   0  0  0  0  0  1  0  0  0  0  0  0
  180.6460  178.7300  144.0750 C   0  0  0  0  0  1  0  0  0  0  0  0
  181.7710  179.1840  143.1650 C   0  0  0  0  0  2  0  0  0  0  0  0
  191.0260  177.3210  140.7000 C   0  0  0  0  0  2  0  0  0  0  0  0
  190.6240  176.4220  139.5370 C   0  0  0  0  0  2  0  0  0  0  0  0
  191.7650  175.1720  137.6830 C   0  0  1  0  0  3  0  0  0  0  0  0
  192.9930  176.9000  138.9310 C   0  0  0  0  0  2  0  0  0  0  0  0
  191.2080  175.2620  136.4070 O   0  0  0  0  0  1  0  0  0  0  0  0
  194.0230  176.0370  138.2270 C   0  0  0  0  0  2  0  0  0  0  0  0
  193.7360  173.9640  136.9270 N   0  0  0  0  0  0  0  0  0  0  0  0
  193.2260  174.9650  137.5830 C   0  0  0  0  0  0  0  0  0  0  0  0
  191.6200  176.5120  138.3890 C   0  0  2  0  0  3  0  0  0  0  0  0
  195.1160  173.7140  136.8280 N   0  0  0  0  0  2  0  0  0  0  0  0
  195.8840  173.1110  137.8750 C   0  0  0  0  0  0  0  0  0  0  0  0
  197.2650  173.0500  137.7650 O   0  0  0  0  0  0  0  0  0  0  0  0
  195.3140  172.5940  138.8730 O   0  0  0  0  0  1  0  0  0  0  0  0
  1 10  1  0  0  0  0
  1  4  2  0  0  0  0
  2  8  1  0  0  0  0
  3 11  1  0  0  0  0
  3  2  2  0  0  0  0
  4  7  1  0  0  0  0
  5  6  2  0  0  0  0
  6  2  1  0  0  0  0
  7  3  1  0  0  0  0
  9  7  2  0  0  0  0
  9  5  1  0  0  0  0
 10  9  1  0  0  0  0
 11 12  1  0  0  0  0
 13 15  1  0  0  0  0
 14 16  1  0  0  0  0
 15 16  2  0  0  0  0
 15 12  1  0  0  0  0
 17 13  2  0  0  0  0
 17 18  1  0  0  0  0
 18 14  1  0  0  0  0
 19 17  1  0  0  0  0
 21 18  1  0  0  0  0
 21 20  1  0  0  0  0
 22 10  1  0  0  0  0
 23 22  1  0  0  0  0
 24 26  1  6  0  0  0
 24 30  1  0  0  0  0
 27 25  1  0  0  0  0
 28 29  2  0  0  0  0
 29 24  1  0  0  0  0
 29 27  1  0  0  0  0
 30 25  1  0  0  0  0
 30 23  1  1  0  0  0
 31 28  1  0  0  0  0
 31 32  1  0  0  0  0
 32 34  1  0  0  0  0
 33 32  2  0  0  0  0
M  END
>  <MODEL>
7

>  <REMARK>
 VINA RESULT:      -8.4      3.510      5.262
  Name = 
  8 active torsions:
  status: ('A' for Active; 'I' for Inactive)
    1  A    between atoms: N_3  and  N_22
    2  A    between atoms: C_7  and  C_11
    3  A    between atoms: C_11  and  C_13
    4  A    between atoms: C_12  and  C_13
    5  A    between atoms: C_18  and  C_28
    6  A    between atoms: C_18  and  N_32
    7  A    between atoms: N_27  and  C_30
    8  A    between atoms: C_28  and  C_29
                            x       y       z     vdW  Elec       q    Type
                         _______ _______ _______ _____ _____    ______ ____

>  <TORSDO>
F 8

$$$$
=
 OpenBabel10222421293D

 34 37  0  0  1  0  0  0  0  0999 V2000
  189.6990  176.0570  137.4150 C   0  0  0  0  0  3  0  0  0  0  0  0
  191.4500  177.6500  141.4750 C   0  0  0  0  0  0  0  0  0  0  0  0
  190.1890  177.4240  140.8830 C   0  0  0  0  0  0  0  0  0  0  0  0
  189.0220  176.5920  138.6990 C   0  0  0  0  0  3  0  0  0  0  0  0
  192.5420  176.9480  139.5020 N   0  0  0  0  0  0  0  0  0  0  0  0
  192.5870  177.4020  140.7580 N   0  0  0  0  0  0  0  0  0  0  0  0
  190.1770  176.9480  139.5720 C   0  0  0  0  0  0  0  0  0  0  0  0
  191.5960  178.2500  143.1190 Cl  0  0  0  0  0  0  0  0  0  0  0  0
  191.3410  176.7290  138.9120 C   0  0  0  0  0  0  0  0  0  0  0  0
  191.1390  176.2370  137.6050 N   0  0  0  0  0  0  0  0  0  0  0  0
  188.9080  177.7090  141.6080 C   0  0  0  0  0  2  0  0  0  0  0  0
  188.5280  176.5630  142.5400 C   0  0  0  0  0  2  0  0  0  0  0  0
  186.8220  177.5930  144.1500 C   0  0  0  0  0  3  0  0  0  0  0  0
  188.7130  177.3960  146.1670 N   0  0  0  0  0  2  0  0  0  0  0  0
  188.1760  177.0660  143.8980 C   0  0  0  0  0  0  0  0  0  0  0  0
  189.0400  176.9760  144.8660 N   0  0  0  0  0  0  0  0  0  0  0  0
  186.4760  177.9900  145.3740 C   0  0  0  0  0  0  0  0  0  0  0  0
  187.4350  177.9100  146.4400 N   0  0  0  0  0  0  0  0  0  0  0  0
  185.1590  178.4750  145.6120 N   0  0  0  0  0  1  0  0  0  0  0  0
  188.1720  177.8700  148.7600 C   0  0  0  0  0  1  0  0  0  0  0  0
  187.1020  178.3350  147.7910 C   0  0  0  0  0  2  0  0  0  0  0  0
  192.1670  175.5440  136.8400 C   0  0  0  0  0  2  0  0  0  0  0  0
  192.2620  174.0790  137.2480 C   0  0  0  0  0  2  0  0  0  0  0  0
  194.6670  174.1090  137.9660 C   0  0  1  0  0  3  0  0  0  0  0  0
  194.1030  173.8710  135.5830 C   0  0  0  0  0  2  0  0  0  0  0  0
  195.0860  173.1200  138.8560 O   0  0  0  0  0  1  0  0  0  0  0  0
  195.5550  174.3060  135.6610 C   0  0  0  0  0  2  0  0  0  0  0  0
  196.9090  174.9790  137.6050 N   0  0  0  0  0  0  0  0  0  0  0  0
  195.7960  174.5280  137.1070 C   0  0  0  0  0  0  0  0  0  0  0  0
  193.6530  173.5160  136.9980 C   0  0  2  0  0  3  0  0  0  0  0  0
  197.9970  175.4130  136.8270 N   0  0  0  0  0  2  0  0  0  0  0  0
  199.0910  174.5660  136.4620 C   0  0  0  0  0  0  0  0  0  0  0  0
  200.2020  175.1110  135.8350 O   0  0  0  0  0  0  0  0  0  0  0  0
  199.0350  173.3220  136.6610 O   0  0  0  0  0  1  0  0  0  0  0  0
  1 10  1  0  0  0  0
  1  4  2  0  0  0  0
  2  8  1  0  0  0  0
  3  2  1  0  0  0  0
  3 11  1  0  0  0  0
  4  7  1  0  0  0  0
  5  6  1  0  0  0  0
  6  2  2  0  0  0  0
  7  3  2  0  0  0  0
  9  5  2  0  0  0  0
  9  7  1  0  0  0  0
 10  9  1  0  0  0  0
 11 12  1  0  0  0  0
 12 15  1  0  0  0  0
 13 17  2  0  0  0  0
 14 18  1  0  0  0  0
 15 13  1  0  0  0  0
 15 16  2  0  0  0  0
 16 14  1  0  0  0  0
 17 19  1  0  0  0  0
 17 18  1  0  0  0  0
 18 21  1  0  0  0  0
 21 20  1  0  0  0  0
 22 23  1  0  0  0  0
 22 10  1  0  0  0  0
 24 26  1  1  0  0  0
 25 27  1  0  0  0  0
 25 30  1  0  0  0  0
 27 29  1  0  0  0  0
 29 28  2  0  0  0  0
 29 24  1  0  0  0  0
 30 23  1  1  0  0  0
 30 24  1  0  0  0  0
 31 28  1  0  0  0  0
 32 34  1  0  0  0  0
 32 31  1  0  0  0  0
 33 32  2  0  0  0  0
M  END
>  <MODEL>
8

>  <REMARK>
 VINA RESULT:      -8.3      5.018      7.412
  Name = 
  8 active torsions:
  status: ('A' for Active; 'I' for Inactive)
    1  A    between atoms: N_3  and  N_22
    2  A    between atoms: C_7  and  C_11
    3  A    between atoms: C_11  and  C_13
    4  A    between atoms: C_12  and  C_13
    5  A    between atoms: C_18  and  C_28
    6  A    between atoms: C_18  and  N_32
    7  A    between atoms: N_27  and  C_30
    8  A    between atoms: C_28  and  C_29
                            x       y       z     vdW  Elec       q    Type
                         _______ _______ _______ _____ _____    ______ ____

>  <TORSDO>
F 8

$$$$
=
 OpenBabel10222421293D

 34 37  0  0  1  0  0  0  0  0999 V2000
  185.9810  178.0430  142.7510 C   0  0  0  0  0  3  0  0  0  0  0  0
  189.8150  177.5820  140.0720 C   0  0  0  0  0  0  0  0  0  0  0  0
  189.3550  177.1700  141.3410 C   0  0  0  0  0  0  0  0  0  0  0  0
  187.3310  177.3260  142.9850 C   0  0  0  0  0  3  0  0  0  0  0  0
  187.8170  178.7880  139.7010 N   0  0  0  0  0  0  0  0  0  0  0  0
  189.0230  178.3810  139.2940 N   0  0  0  0  0  0  0  0  0  0  0  0
  188.0910  177.6100  141.7350 C   0  0  0  0  0  0  0  0  0  0  0  0
  191.3890  177.0950  139.4650 Cl  0  0  0  0  0  0  0  0  0  0  0  0
  187.3580  178.4080  140.9190 C   0  0  0  0  0  0  0  0  0  0  0  0
  186.1050  178.7440  141.4730 N   0  0  0  0  0  0  0  0  0  0  0  0
  190.1900  176.3220  142.2510 C   0  0  0  0  0  2  0  0  0  0  0  0
  191.1680  177.1690  143.0590 C   0  0  0  0  0  2  0  0  0  0  0  0
  191.6060  176.7620  145.5510 C   0  0  0  0  0  3  0  0  0  0  0  0
  189.2280  178.0720  146.1090 N   0  0  0  0  0  2  0  0  0  0  0  0
  190.7360  177.2850  144.4810 C   0  0  0  0  0  0  0  0  0  0  0  0
  189.6300  177.9040  144.7730 N   0  0  0  0  0  0  0  0  0  0  0  0
  191.2590  176.9120  146.8290 C   0  0  0  0  0  0  0  0  0  0  0  0
  190.0290  177.5790  147.1520 N   0  0  0  0  0  0  0  0  0  0  0  0
  192.1180  176.4250  147.8540 N   0  0  0  0  0  1  0  0  0  0  0  0
  188.1180  178.0320  148.5900 C   0  0  0  0  0  1  0  0  0  0  0  0
  189.6090  177.7630  148.5330 C   0  0  0  0  0  2  0  0  0  0  0  0
  184.9800  179.2250  140.6810 C   0  0  0  0  0  2  0  0  0  0  0  0
  183.7470  178.3560  140.8930 C   0  0  0  0  0  2  0  0  0  0  0  0
  182.7230  176.4370  139.6400 C   0  0  1  0  0  3  0  0  0  0  0  0
  184.2000  178.0150  138.4670 C   0  0  0  0  0  2  0  0  0  0  0  0
  181.3300  176.3650  139.5980 O   0  0  0  0  0  1  0  0  0  0  0  0
  184.1130  176.7620  137.6150 C   0  0  0  0  0  2  0  0  0  0  0  0
  183.0380  174.5960  138.0830 N   0  0  0  0  0  0  0  0  0  0  0  0
  183.2970  175.8240  138.4230 C   0  0  0  0  0  0  0  0  0  0  0  0
  183.1520  177.8950  139.5700 C   0  0  2  0  0  3  0  0  0  0  0  0
  183.5820  173.9650  136.9500 N   0  0  0  0  0  2  0  0  0  0  0  0
  184.7540  173.1450  136.9930 C   0  0  0  0  0  0  0  0  0  0  0  0
  185.3210  172.6960  135.8090 O   0  0  0  0  0  0  0  0  0  0  0  0
  185.2480  172.7880  138.0960 O   0  0  0  0  0  1  0  0  0  0  0  0
  1  4  2  0  0  0  0
  2  3  1  0  0  0  0
  3  7  2  0  0  0  0
  3 11  1  0  0  0  0
  5  9  2  0  0  0  0
  6  5  1  0  0  0  0
  6  2  2  0  0  0  0
  7  4  1  0  0  0  0
  8  2  1  0  0  0  0
  9 10  1  0  0  0  0
  9  7  1  0  0  0  0
 10  1  1  0  0  0  0
 11 12  1  0  0  0  0
 12 15  1  0  0  0  0
 13 17  2  0  0  0  0
 14 18  1  0  0  0  0
 15 16  2  0  0  0  0
 15 13  1  0  0  0  0
 16 14  1  0  0  0  0
 17 18  1  0  0  0  0
 17 19  1  0  0  0  0
 18 21  1  0  0  0  0
 21 20  1  0  0  0  0
 22 23  1  0  0  0  0
 22 10  1  0  0  0  0
 24 26  1  6  0  0  0
 25 30  1  0  0  0  0
 27 29  1  0  0  0  0
 27 25  1  0  0  0  0
 28 29  2  0  0  0  0
 29 24  1  0  0  0  0
 30 24  1  0  0  0  0
 30 23  1  1  0  0  0
 31 32  1  0  0  0  0
 31 28  1  0  0  0  0
 32 34  1  0  0  0  0
 33 32  2  0  0  0  0
M  END
>  <MODEL>
9

>  <REMARK>
 VINA RESULT:      -8.2      3.179      5.954
  Name = 
  8 active torsions:
  status: ('A' for Active; 'I' for Inactive)
    1  A    between atoms: N_3  and  N_22
    2  A    between atoms: C_7  and  C_11
    3  A    between atoms: C_11  and  C_13
    4  A    between atoms: C_12  and  C_13
    5  A    between atoms: C_18  and  C_28
    6  A    between atoms: C_18  and  N_32
    7  A    between atoms: N_27  and  C_30
    8  A    between atoms: C_28  and  C_29
                            x       y       z     vdW  Elec       q    Type
                         _______ _______ _______ _____ _____    ______ ____

>  <TORSDO>
F 8

$$$$
