=
 OpenBabel10232409293D

 53 55  0  0  1  0  0  0  0  0999 V2000
  186.0950  178.5010  142.8330 C   0  0  1  0  0  3  0  0  0  0  0  0
  184.6270  178.1340  142.8480 C   0  0  1  0  0  3  0  0  0  0  0  0
  185.1700  179.0510  143.9280 C   0  0  1  0  0  3  0  0  0  0  0  0
  185.2200  178.2990  145.2510 C   0  0  0  0  0  2  0  0  0  0  0  0
  186.0600  179.0810  146.2410 C   0  0  0  0  0  2  0  0  0  0  0  0
  186.9630  178.1500  147.0390 C   0  0  1  0  0  3  0  0  0  0  0  0
  186.6900  176.7060  146.6620 C   0  0  0  0  0  1  0  0  0  0  0  0
  188.9990  178.1880  145.5300 C   0  0  0  0  0  1  0  0  0  0  0  0
  188.4660  178.4730  146.9290 C   0  0  2  0  0  3  0  0  0  0  0  0
  189.1590  178.1430  149.1620 O   0  0  0  0  0  0  0  0  0  0  0  0
  190.5430  177.0130  147.6570 C   0  0  0  0  0  1  0  0  0  0  0  0
  189.3810  177.8920  147.9880 C   0  0  0  0  0  0  0  0  0  0  0  0
  186.9300  177.2830  143.2230 C   0  0  0  0  0  2  0  0  0  0  0  0
  188.0840  177.1170  142.2860 C   0  0  0  0  0  0  0  0  0  0  0  0
  190.3070  177.3200  140.6750 C   0  0  1  0  0  3  0  0  0  0  0  0
  189.0350  177.3350  140.0720 O   0  0  0  0  0  0  0  0  0  0  0  0
  189.1470  176.3970  142.6690 C   0  0  0  0  0  3  0  0  0  0  0  0
  188.1480  177.9150  141.0030 C   0  0  0  0  0  2  0  0  0  0  0  0
  190.3490  176.2540  141.7750 C   0  0  0  0  0  2  0  0  0  0  0  0
  191.3230  174.4200  136.2590 O   0  0  0  0  0  0  0  0  0  0  0  0
  190.1490  175.4930  138.4400 O   0  0  0  0  0  0  0  0  0  0  0  0
  193.5140  174.9920  135.7630 N   0  0  0  0  0  2  0  0  0  0  0  0
  192.3220  175.9660  137.7080 N   0  0  0  0  0  2  0  0  0  0  0  0
  191.2170  176.1460  138.5980 C   0  0  0  0  0  0  0  0  0  0  0  0
  192.3380  175.0990  136.5650 C   0  0  0  0  0  0  0  0  0  0  0  0
  191.3430  177.0760  139.6770 N   0  0  0  0  0  2  0  0  0  0  0  0
  194.7500  175.7050  136.0740 C   0  0  2  0  0  3  0  0  0  0  0  0
  195.3930  176.2280  134.8000 C   0  0  0  0  0  1  0  0  0  0  0  0
  195.7260  174.7980  136.8260 C   0  0  1  0  0  3  0  0  0  0  0  0
  197.1510  175.0690  136.3670 C   0  0  0  0  0  2  0  0  0  0  0  0
  197.9070  175.5670  137.4310 O   0  0  0  0  0  1  0  0  0  0  0  0
  195.6230  174.9920  138.2100 O   0  0  0  0  0  0  0  0  0  0  0  0
  195.6140  173.7040  138.7550 C   0  0  0  0  0  2  0  0  0  0  0  0
  195.0510  172.7190  137.7460 C   0  0  0  0  0  2  0  0  0  0  0  0
  196.9510  171.1850  137.2410 O   0  0  0  0  0  0  0  0  0  0  0  0
  195.7310  171.3990  137.8670 C   0  0  0  0  0  0  0  0  0  0  0  0
  195.1860  170.4680  138.5140 O   0  0  0  0  0  1  0  0  0  0  0  0
  183.8910  178.9570  141.8100 C   0  0  0  0  0  2  0  0  0  0  0  0
  183.7400  178.1520  140.5290 C   0  0  0  0  0  2  0  0  0  0  0  0
  183.3990  180.0080  138.8550 C   0  0  0  0  0  1  0  0  0  0  0  0
  184.3270  178.8980  139.3370 C   0  0  2  0  0  3  0  0  0  0  0  0
  183.0280  174.8230  136.8160 C   0  0  0  0  0  1  0  0  0  0  0  0
  185.3940  175.6260  136.7820 C   0  0  0  0  0  0  0  0  0  0  0  0
  186.8000  178.7890  137.8790 O   0  0  0  0  0  0  0  0  0  0  0  0
  185.9540  177.8760  137.6750 C   0  0  0  0  0  0  0  0  0  0  0  0
  187.6060  176.6690  136.2190 C   0  0  0  0  0  1  0  0  0  0  0  0
  184.6330  177.9670  138.2430 N   0  0  0  0  0  0  0  0  0  0  0  0
  186.3080  176.7300  136.8850 N   0  0  0  0  0  0  0  0  0  0  0  0
  184.0830  175.6600  137.5310 C   0  0  1  0  0  3  0  0  0  0  0  0
  183.5820  177.1040  137.6830 C   0  0  1  0  0  3  0  0  0  0  0  0
  185.7240  174.5930  136.1260 O   0  0  0  0  0  0  0  0  0  0  0  0
  182.4290  177.1360  138.4800 O   0  0  0  0  0  0  0  0  0  0  0  0
  181.4010  177.5110  137.6110 C   0  0  0  0  0  1  0  0  0  0  0  0
  1  2  1  0  0  0  0
  1 13  1  1  0  0  0
  1  3  1  0  0  0  0
  2 38  1  6  0  0  0
  2  3  1  0  0  0  0
  3  4  1  1  0  0  0
  4  5  1  0  0  0  0
  5  6  1  0  0  0  0
  6  7  1  6  0  0  0
  9  8  1  6  0  0  0
  9  6  1  0  0  0  0
  9 12  1  0  0  0  0
 11 12  1  0  0  0  0
 12 10  2  0  0  0  0
 14 17  2  0  0  0  0
 14 13  1  0  0  0  0
 15 26  1  6  0  0  0
 15 19  1  0  0  0  0
 16 15  1  0  0  0  0
 16 18  1  0  0  0  0
 18 14  1  0  0  0  0
 19 17  1  0  0  0  0
 20 25  2  0  0  0  0
 21 24  2  0  0  0  0
 22 27  1  0  0  0  0
 22 25  1  0  0  0  0
 23 24  1  0  0  0  0
 24 26  1  0  0  0  0
 25 23  1  0  0  0  0
 27 28  1  6  0  0  0
 27 29  1  0  0  0  0
 29 30  1  6  0  0  0
 29 32  1  0  0  0  0
 30 31  1  0  0  0  0
 32 33  1  0  0  0  0
 34 36  1  0  0  0  0
 34 33  1  0  0  0  0
 35 36  2  0  0  0  0
 36 37  1  0  0  0  0
 39 38  1  0  0  0  0
 41 40  1  6  0  0  0
 41 39  1  0  0  0  0
 43 48  1  0  0  0  0
 43 49  1  0  0  0  0
 45 44  2  0  0  0  0
 45 47  1  0  0  0  0
 46 48  1  0  0  0  0
 47 41  1  0  0  0  0
 48 45  1  0  0  0  0
 49 42  1  6  0  0  0
 49 50  1  0  0  0  0
 50 47  1  0  0  0  0
 50 52  1  1  0  0  0
 51 43  2  0  0  0  0
 53 52  1  0  0  0  0
M  END
>  <MODEL>
1

>  <REMARK>
 VINA RESULT:      -7.3      0.000      0.000
  Name = 
  20 active torsions:
  status: ('A' for Active; 'I' for Inactive)
    1  A    between atoms: C_1  and  C_30
    2  A    between atoms: C_2  and  N_37
    3  A    between atoms: N_5  and  C_42
    4  A    between atoms: C_6  and  C_14
    5  A    between atoms: C_6  and  C_22
    6  A    between atoms: C_7  and  C_48
    7  A    between atoms: C_7  and  O_53
    8  A    between atoms: C_8  and  C_17
    9  A    between atoms: O_13  and  C_47
   10  A    between atoms: C_14  and  C_52
   11  A    between atoms: C_17  and  C_42
   12  A    between atoms: C_17  and  O_53
   13  A    between atoms: C_21  and  C_30
   14  A    between atoms: C_22  and  C_27
   15  A    between atoms: C_25  and  C_39
   16  A    between atoms: N_35  and  C_50
   17  A    between atoms: C_36  and  C_52
   18  A    between atoms: C_38  and  C_48
   19  A    between atoms: C_39  and  C_40
   20  A    between atoms: C_40  and  C_50
                            x       y       z     vdW  Elec       q    Type
                         _______ _______ _______ _____ _____    ______ ____

>  <TORSDO>
F 20

$$$$
=
 OpenBabel10232409293D

 53 55  0  0  1  0  0  0  0  0999 V2000
  186.7160  178.0820  142.9670 C   0  0  1  0  0  3  0  0  0  0  0  0
  185.2550  177.7560  143.1840 C   0  0  1  0  0  3  0  0  0  0  0  0
  185.9890  178.5840  144.2220 C   0  0  1  0  0  3  0  0  0  0  0  0
  186.2100  177.7450  145.4730 C   0  0  0  0  0  2  0  0  0  0  0  0
  187.3030  178.3750  146.3130 C   0  0  0  0  0  2  0  0  0  0  0  0
  188.6040  177.5930  146.1840 C   0  0  1  0  0  3  0  0  0  0  0  0
  189.6100  178.3820  145.3670 C   0  0  0  0  0  1  0  0  0  0  0  0
  188.7120  178.0040  148.6830 C   0  0  0  0  0  1  0  0  0  0  0  0
  189.2140  177.1470  147.5270 C   0  0  2  0  0  3  0  0  0  0  0  0
  191.3720  177.7520  148.2700 O   0  0  0  0  0  0  0  0  0  0  0  0
  191.4410  175.9020  146.8440 C   0  0  0  0  0  1  0  0  0  0  0  0
  190.7190  176.9810  147.5850 C   0  0  0  0  0  0  0  0  0  0  0  0
  187.5530  176.8170  143.1480 C   0  0  0  0  0  2  0  0  0  0  0  0
  188.6810  176.7890  142.1670 C   0  0  0  0  0  0  0  0  0  0  0  0
  190.7900  177.2580  140.4600 C   0  0  1  0  0  3  0  0  0  0  0  0
  189.5050  177.0870  139.9110 O   0  0  0  0  0  0  0  0  0  0  0  0
  189.8470  176.2280  142.5140 C   0  0  0  0  0  3  0  0  0  0  0  0
  188.5840  177.5620  140.8700 C   0  0  0  0  0  2  0  0  0  0  0  0
  191.0200  176.2300  141.5730 C   0  0  0  0  0  2  0  0  0  0  0  0
  191.5040  175.5160  135.4200 O   0  0  0  0  0  0  0  0  0  0  0  0
  190.4340  176.1340  137.8200 O   0  0  0  0  0  0  0  0  0  0  0  0
  193.7690  175.8650  135.0730 N   0  0  0  0  0  2  0  0  0  0  0  0
  192.6740  176.4540  137.2190 N   0  0  0  0  0  2  0  0  0  0  0  0
  191.5810  176.5540  138.1360 C   0  0  0  0  0  0  0  0  0  0  0  0
  192.5980  175.9300  135.8870 C   0  0  0  0  0  0  0  0  0  0  0  0
  191.8090  177.1350  139.4230 N   0  0  0  0  0  2  0  0  0  0  0  0
  195.0870  176.2750  135.5520 C   0  0  2  0  0  3  0  0  0  0  0  0
  195.5100  177.5740  134.8840 C   0  0  0  0  0  1  0  0  0  0  0  0
  196.1260  175.1830  135.2920 C   0  0  1  0  0  3  0  0  0  0  0  0
  197.5090  175.6700  135.6970 C   0  0  0  0  0  2  0  0  0  0  0  0
  198.4850  174.9990  134.9570 O   0  0  0  0  0  1  0  0  0  0  0  0
  195.8060  174.0120  135.9910 O   0  0  0  0  0  0  0  0  0  0  0  0
  195.9010  174.3620  137.3420 C   0  0  0  0  0  2  0  0  0  0  0  0
  196.1570  173.1220  138.1810 C   0  0  0  0  0  2  0  0  0  0  0  0
  196.6280  170.9700  137.0130 O   0  0  0  0  0  0  0  0  0  0  0  0
  197.0860  172.1960  137.4750 C   0  0  0  0  0  0  0  0  0  0  0  0
  198.2950  172.5120  137.3230 O   0  0  0  0  0  1  0  0  0  0  0  0
  184.4020  178.6670  142.3230 C   0  0  0  0  0  2  0  0  0  0  0  0
  183.7330  177.8570  141.2240 C   0  0  0  0  0  2  0  0  0  0  0  0
  182.9880  179.5800  139.5390 C   0  0  0  0  0  1  0  0  0  0  0  0
  183.9880  178.4720  139.8540 C   0  0  2  0  0  3  0  0  0  0  0  0
  185.4230  177.0670  135.3140 C   0  0  0  0  0  1  0  0  0  0  0  0
  183.4180  176.0250  136.3810 C   0  0  0  0  0  0  0  0  0  0  0  0
  182.2650  176.1730  139.8210 O   0  0  0  0  0  0  0  0  0  0  0  0
  182.9570  176.4070  138.7920 C   0  0  0  0  0  0  0  0  0  0  0  0
  181.7930  174.5390  137.5830 C   0  0  0  0  0  1  0  0  0  0  0  0
  183.9620  177.4400  138.8100 N   0  0  0  0  0  0  0  0  0  0  0  0
  182.7350  175.6540  137.5900 N   0  0  0  0  0  0  0  0  0  0  0  0
  184.3370  177.2250  136.3710 C   0  0  1  0  0  3  0  0  0  0  0  0
  184.9830  177.4250  137.7500 C   0  0  1  0  0  3  0  0  0  0  0  0
  183.1880  175.3930  135.3070 O   0  0  0  0  0  0  0  0  0  0  0  0
  185.7390  178.6060  137.7660 O   0  0  0  0  0  0  0  0  0  0  0  0
  187.0690  178.1810  137.7390 C   0  0  0  0  0  1  0  0  0  0  0  0
  1 13  1  1  0  0  0
  1  2  1  0  0  0  0
  1  3  1  0  0  0  0
  2 38  1  6  0  0  0
  2  3  1  0  0  0  0
  3  4  1  1  0  0  0
  4  5  1  0  0  0  0
  6  7  1  1  0  0  0
  6  5  1  0  0  0  0
  6  9  1  0  0  0  0
  9 12  1  0  0  0  0
  9  8  1  1  0  0  0
 11 12  1  0  0  0  0
 12 10  2  0  0  0  0
 14 17  2  0  0  0  0
 14 13  1  0  0  0  0
 15 26  1  6  0  0  0
 15 19  1  0  0  0  0
 16 15  1  0  0  0  0
 16 18  1  0  0  0  0
 18 14  1  0  0  0  0
 19 17  1  0  0  0  0
 20 25  2  0  0  0  0
 21 24  2  0  0  0  0
 22 27  1  0  0  0  0
 22 25  1  0  0  0  0
 23 24  1  0  0  0  0
 24 26  1  0  0  0  0
 25 23  1  0  0  0  0
 27 28  1  6  0  0  0
 29 27  1  0  0  0  0
 29 30  1  1  0  0  0
 29 32  1  0  0  0  0
 31 30  1  0  0  0  0
 32 33  1  0  0  0  0
 33 34  1  0  0  0  0
 35 36  2  0  0  0  0
 36 34  1  0  0  0  0
 37 36  1  0  0  0  0
 39 38  1  0  0  0  0
 41 40  1  6  0  0  0
 41 39  1  0  0  0  0
 43 48  1  0  0  0  0
 45 47  1  0  0  0  0
 45 44  2  0  0  0  0
 46 48  1  0  0  0  0
 47 41  1  0  0  0  0
 48 45  1  0  0  0  0
 49 42  1  6  0  0  0
 49 43  1  0  0  0  0
 49 50  1  0  0  0  0
 50 52  1  6  0  0  0
 50 47  1  0  0  0  0
 51 43  2  0  0  0  0
 53 52  1  0  0  0  0
M  END
>  <MODEL>
2

>  <REMARK>
 VINA RESULT:      -7.0      1.362      2.283
  Name = 
  20 active torsions:
  status: ('A' for Active; 'I' for Inactive)
    1  A    between atoms: C_1  and  C_30
    2  A    between atoms: C_2  and  N_37
    3  A    between atoms: N_5  and  C_42
    4  A    between atoms: C_6  and  C_14
    5  A    between atoms: C_6  and  C_22
    6  A    between atoms: C_7  and  C_48
    7  A    between atoms: C_7  and  O_53
    8  A    between atoms: C_8  and  C_17
    9  A    between atoms: O_13  and  C_47
   10  A    between atoms: C_14  and  C_52
   11  A    between atoms: C_17  and  C_42
   12  A    between atoms: C_17  and  O_53
   13  A    between atoms: C_21  and  C_30
   14  A    between atoms: C_22  and  C_27
   15  A    between atoms: C_25  and  C_39
   16  A    between atoms: N_35  and  C_50
   17  A    between atoms: C_36  and  C_52
   18  A    between atoms: C_38  and  C_48
   19  A    between atoms: C_39  and  C_40
   20  A    between atoms: C_40  and  C_50
                            x       y       z     vdW  Elec       q    Type
                         _______ _______ _______ _____ _____    ______ ____

>  <TORSDO>
F 20

$$$$
=
 OpenBabel10232409293D

 53 55  0  0  1  0  0  0  0  0999 V2000
  186.9490  178.6830  141.5010 C   0  0  1  0  0  3  0  0  0  0  0  0
  185.6650  178.0650  140.9930 C   0  0  1  0  0  3  0  0  0  0  0  0
  185.6050  179.0430  142.1500 C   0  0  1  0  0  3  0  0  0  0  0  0
  185.2860  178.2890  143.4330 C   0  0  0  0  0  2  0  0  0  0  0  0
  185.1020  179.2790  144.5650 C   0  0  0  0  0  2  0  0  0  0  0  0
  186.0540  178.9730  145.7140 C   0  0  1  0  0  3  0  0  0  0  0  0
  185.2700  178.6520  146.9730 C   0  0  0  0  0  1  0  0  0  0  0  0
  186.5110  176.4800  145.6780 C   0  0  0  0  0  1  0  0  0  0  0  0
  187.0830  177.8670  145.4100 C   0  0  2  0  0  3  0  0  0  0  0  0
  189.3730  178.4360  145.3250 O   0  0  0  0  0  0  0  0  0  0  0  0
  188.7550  177.6730  147.4450 C   0  0  0  0  0  1  0  0  0  0  0  0
  188.4620  178.0140  146.0190 C   0  0  0  0  0  0  0  0  0  0  0  0
  187.7720  177.6230  142.2300 C   0  0  0  0  0  2  0  0  0  0  0  0
  189.0530  177.3630  141.5050 C   0  0  0  0  0  0  0  0  0  0  0  0
  191.2940  177.3300  139.9050 C   0  0  1  0  0  3  0  0  0  0  0  0
  190.2370  176.4500  139.6020 O   0  0  0  0  0  0  0  0  0  0  0  0
  190.2210  177.5560  142.1340 C   0  0  0  0  0  3  0  0  0  0  0  0
  189.0470  177.0820  140.0180 C   0  0  0  0  0  2  0  0  0  0  0  0
  191.5290  177.3580  141.4190 C   0  0  0  0  0  2  0  0  0  0  0  0
  192.9660  174.9290  135.3890 O   0  0  0  0  0  0  0  0  0  0  0  0
  191.4390  175.9780  137.3530 O   0  0  0  0  0  0  0  0  0  0  0  0
  195.2680  174.8820  135.6560 N   0  0  0  0  0  2  0  0  0  0  0  0
  193.7780  175.8770  137.3720 N   0  0  0  0  0  2  0  0  0  0  0  0
  192.5210  176.2500  137.9430 C   0  0  0  0  0  0  0  0  0  0  0  0
  193.9570  175.2210  136.1090 C   0  0  0  0  0  0  0  0  0  0  0  0
  192.5070  176.9330  139.2000 N   0  0  0  0  0  2  0  0  0  0  0  0
  196.4680  175.1370  136.4490 C   0  0  2  0  0  3  0  0  0  0  0  0
  197.6060  175.5960  135.5520 C   0  0  0  0  0  1  0  0  0  0  0  0
  196.8800  173.8880  137.2310 C   0  0  1  0  0  3  0  0  0  0  0  0
  196.6900  174.1180  138.7220 C   0  0  0  0  0  2  0  0  0  0  0  0
  195.5200  173.4910  139.1560 O   0  0  0  0  0  1  0  0  0  0  0  0
  196.1370  172.7730  136.8190 O   0  0  0  0  0  0  0  0  0  0  0  0
  197.0530  171.7170  136.7960 C   0  0  0  0  0  2  0  0  0  0  0  0
  196.3230  170.4030  136.5810 C   0  0  0  0  0  2  0  0  0  0  0  0
  196.7650  168.5880  138.2330 O   0  0  0  0  0  0  0  0  0  0  0  0
  196.0590  169.7320  137.8840 C   0  0  0  0  0  0  0  0  0  0  0  0
  195.1750  170.1840  138.6570 O   0  0  0  0  0  1  0  0  0  0  0  0
  185.2390  178.7660  139.7170 C   0  0  0  0  0  2  0  0  0  0  0  0
  183.9880  178.1040  139.1610 C   0  0  0  0  0  2  0  0  0  0  0  0
  182.7340  177.8240  136.9900 C   0  0  0  0  0  1  0  0  0  0  0  0
  184.1040  177.8820  137.6580 C   0  0  2  0  0  3  0  0  0  0  0  0
  187.7220  175.7280  135.0290 C   0  0  0  0  0  1  0  0  0  0  0  0
  185.9230  174.3410  136.0700 C   0  0  0  0  0  0  0  0  0  0  0  0
  183.4300  175.2370  138.5520 O   0  0  0  0  0  0  0  0  0  0  0  0
  184.3750  175.3570  137.7260 C   0  0  0  0  0  0  0  0  0  0  0  0
  184.5320  172.8580  137.5400 C   0  0  0  0  0  1  0  0  0  0  0  0
  184.8720  176.6630  137.3720 N   0  0  0  0  0  0  0  0  0  0  0  0
  184.9530  174.1910  137.1200 N   0  0  0  0  0  0  0  0  0  0  0  0
  186.3040  175.7210  135.5860 C   0  0  1  0  0  3  0  0  0  0  0  0
  186.1890  176.7460  136.7230 C   0  0  1  0  0  3  0  0  0  0  0  0
  186.3990  173.3140  135.4990 O   0  0  0  0  0  0  0  0  0  0  0  0
  186.4280  178.0390  136.2370 O   0  0  0  0  0  0  0  0  0  0  0  0
  187.5540  178.4830  136.9340 C   0  0  0  0  0  1  0  0  0  0  0  0
  1  3  1  0  0  0  0
  1 13  1  1  0  0  0
  2 38  1  6  0  0  0
  2  1  1  0  0  0  0
  2  3  1  0  0  0  0
  3  4  1  1  0  0  0
  4  5  1  0  0  0  0
  5  6  1  0  0  0  0
  6  7  1  1  0  0  0
  9  8  1  1  0  0  0
  9  6  1  0  0  0  0
  9 12  1  0  0  0  0
 10 12  2  0  0  0  0
 12 11  1  0  0  0  0
 14 17  2  0  0  0  0
 14 13  1  0  0  0  0
 15 26  1  6  0  0  0
 15 19  1  0  0  0  0
 16 15  1  0  0  0  0
 16 18  1  0  0  0  0
 18 14  1  0  0  0  0
 19 17  1  0  0  0  0
 20 25  2  0  0  0  0
 21 24  2  0  0  0  0
 22 25  1  0  0  0  0
 22 27  1  0  0  0  0
 23 24  1  0  0  0  0
 24 26  1  0  0  0  0
 25 23  1  0  0  0  0
 27 28  1  6  0  0  0
 27 29  1  0  0  0  0
 29 30  1  1  0  0  0
 30 31  1  0  0  0  0
 32 29  1  0  0  0  0
 33 32  1  0  0  0  0
 34 33  1  0  0  0  0
 34 36  1  0  0  0  0
 36 35  2  0  0  0  0
 36 37  1  0  0  0  0
 39 38  1  0  0  0  0
 41 40  1  1  0  0  0
 41 39  1  0  0  0  0
 43 48  1  0  0  0  0
 45 44  2  0  0  0  0
 47 41  1  0  0  0  0
 47 45  1  0  0  0  0
 48 46  1  0  0  0  0
 48 45  1  0  0  0  0
 49 42  1  1  0  0  0
 49 43  1  0  0  0  0
 49 50  1  0  0  0  0
 50 52  1  6  0  0  0
 50 47  1  0  0  0  0
 51 43  2  0  0  0  0
 52 53  1  0  0  0  0
M  END
>  <MODEL>
3

>  <REMARK>
 VINA RESULT:      -6.7      1.566      2.622
  Name = 
  20 active torsions:
  status: ('A' for Active; 'I' for Inactive)
    1  A    between atoms: C_1  and  C_30
    2  A    between atoms: C_2  and  N_37
    3  A    between atoms: N_5  and  C_42
    4  A    between atoms: C_6  and  C_14
    5  A    between atoms: C_6  and  C_22
    6  A    between atoms: C_7  and  C_48
    7  A    between atoms: C_7  and  O_53
    8  A    between atoms: C_8  and  C_17
    9  A    between atoms: O_13  and  C_47
   10  A    between atoms: C_14  and  C_52
   11  A    between atoms: C_17  and  C_42
   12  A    between atoms: C_17  and  O_53
   13  A    between atoms: C_21  and  C_30
   14  A    between atoms: C_22  and  C_27
   15  A    between atoms: C_25  and  C_39
   16  A    between atoms: N_35  and  C_50
   17  A    between atoms: C_36  and  C_52
   18  A    between atoms: C_38  and  C_48
   19  A    between atoms: C_39  and  C_40
   20  A    between atoms: C_40  and  C_50
                            x       y       z     vdW  Elec       q    Type
                         _______ _______ _______ _____ _____    ______ ____

>  <TORSDO>
F 20

$$$$
=
 OpenBabel10232409293D

 53 55  0  0  1  0  0  0  0  0999 V2000
  188.1580  177.3380  135.1080 C   0  0  1  0  0  3  0  0  0  0  0  0
  187.8950  175.9800  135.7190 C   0  0  1  0  0  3  0  0  0  0  0  0
  187.3030  176.3050  134.3600 C   0  0  1  0  0  3  0  0  0  0  0  0
  185.7990  176.4940  134.4960 C   0  0  0  0  0  2  0  0  0  0  0  0
  185.2560  175.4950  135.4970 C   0  0  0  0  0  2  0  0  0  0  0  0
  184.3530  176.1820  136.5130 C   0  0  1  0  0  3  0  0  0  0  0  0
  183.1260  176.7510  135.8240 C   0  0  0  0  0  1  0  0  0  0  0  0
  183.7310  173.8490  137.2860 C   0  0  0  0  0  1  0  0  0  0  0  0
  183.9500  175.2970  137.7090 C   0  0  2  0  0  3  0  0  0  0  0  0
  181.7460  175.1980  138.5500 O   0  0  0  0  0  0  0  0  0  0  0  0
  182.9510  176.9580  139.5020 C   0  0  0  0  0  1  0  0  0  0  0  0
  182.8140  175.7860  138.5840 C   0  0  0  0  0  0  0  0  0  0  0  0
  187.3830  178.4040  135.8790 C   0  0  0  0  0  2  0  0  0  0  0  0
  187.7110  178.3400  137.3360 C   0  0  0  0  0  0  0  0  0  0  0  0
  188.3620  178.7500  139.9800 C   0  0  1  0  0  3  0  0  0  0  0  0
  189.3510  178.2460  139.1140 O   0  0  0  0  0  0  0  0  0  0  0  0
  186.7410  178.0770  138.2220 C   0  0  0  0  0  3  0  0  0  0  0  0
  189.0760  178.7670  137.8320 C   0  0  0  0  0  2  0  0  0  0  0  0
  187.0240  178.0590  139.6990 C   0  0  0  0  0  2  0  0  0  0  0  0
  191.1070  175.4120  143.1840 O   0  0  0  0  0  0  0  0  0  0  0  0
  189.9330  176.5700  141.0470 O   0  0  0  0  0  0  0  0  0  0  0  0
  190.8010  176.3480  145.2820 N   0  0  0  0  0  2  0  0  0  0  0  0
  189.8170  177.3650  143.2460 N   0  0  0  0  0  2  0  0  0  0  0  0
  189.5260  177.4560  141.8480 C   0  0  0  0  0  0  0  0  0  0  0  0
  190.5980  176.3370  143.8690 C   0  0  0  0  0  0  0  0  0  0  0  0
  188.7590  178.5650  141.3710 N   0  0  0  0  0  2  0  0  0  0  0  0
  190.2050  177.3530  146.1580 C   0  0  2  0  0  3  0  0  0  0  0  0
  190.9330  177.3880  147.4930 C   0  0  0  0  0  1  0  0  0  0  0  0
  188.7170  177.0750  146.3740 C   0  0  1  0  0  3  0  0  0  0  0  0
  188.3790  177.1570  147.8550 C   0  0  0  0  0  2  0  0  0  0  0  0
  187.7840  178.3880  148.1410 O   0  0  0  0  0  1  0  0  0  0  0  0
  187.9290  177.9820  145.6520 O   0  0  0  0  0  0  0  0  0  0  0  0
  186.6920  177.3460  145.5040 C   0  0  0  0  0  2  0  0  0  0  0  0
  185.7340  178.2490  144.7470 C   0  0  0  0  0  2  0  0  0  0  0  0
  183.5520  179.4030  145.0990 O   0  0  0  0  0  0  0  0  0  0  0  0
  184.6010  178.6610  145.6220 C   0  0  0  0  0  0  0  0  0  0  0  0
  184.6090  178.3600  146.8440 O   0  0  0  0  0  1  0  0  0  0  0  0
  189.1170  175.1010  135.5390 C   0  0  0  0  0  2  0  0  0  0  0  0
  190.0840  175.3250  136.6910 C   0  0  0  0  0  2  0  0  0  0  0  0
  191.5390  175.6580  134.6580 C   0  0  0  0  0  1  0  0  0  0  0  0
  191.4930  175.5990  136.1810 C   0  0  2  0  0  3  0  0  0  0  0  0
  195.8640  174.6470  138.3360 C   0  0  0  0  0  1  0  0  0  0  0  0
  194.7150  172.8880  136.9840 C   0  0  0  0  0  0  0  0  0  0  0  0
  191.3150  172.7700  135.7140 O   0  0  0  0  0  0  0  0  0  0  0  0
  192.3560  173.2110  136.2730 C   0  0  0  0  0  0  0  0  0  0  0  0
  193.3860  170.9230  136.1650 C   0  0  0  0  0  1  0  0  0  0  0  0
  192.4320  174.5890  136.6880 N   0  0  0  0  0  0  0  0  0  0  0  0
  193.4810  172.3440  136.4860 N   0  0  0  0  0  0  0  0  0  0  0  0
  194.8350  174.3710  137.2460 C   0  0  1  0  0  3  0  0  0  0  0  0
  193.4770  174.9610  137.6540 C   0  0  1  0  0  3  0  0  0  0  0  0
  195.7250  172.1340  137.1260 O   0  0  0  0  0  0  0  0  0  0  0  0
  193.5710  176.3540  137.7800 O   0  0  0  0  0  0  0  0  0  0  0  0
  193.7100  176.5830  139.1510 C   0  0  0  0  0  1  0  0  0  0  0  0
  1  2  1  0  0  0  0
  1 13  1  1  0  0  0
  2 38  1  6  0  0  0
  3  4  1  1  0  0  0
  3  1  1  0  0  0  0
  3  2  1  0  0  0  0
  4  5  1  0  0  0  0
  5  6  1  0  0  0  0
  6  7  1  6  0  0  0
  6  9  1  0  0  0  0
  9  8  1  6  0  0  0
  9 12  1  0  0  0  0
 10 12  2  0  0  0  0
 12 11  1  0  0  0  0
 13 14  1  0  0  0  0
 14 18  1  0  0  0  0
 14 17  2  0  0  0  0
 15 26  1  1  0  0  0
 16 15  1  0  0  0  0
 17 19  1  0  0  0  0
 18 16  1  0  0  0  0
 19 15  1  0  0  0  0
 20 25  2  0  0  0  0
 21 24  2  0  0  0  0
 22 27  1  0  0  0  0
 23 25  1  0  0  0  0
 24 23  1  0  0  0  0
 25 22  1  0  0  0  0
 26 24  1  0  0  0  0
 27 29  1  0  0  0  0
 27 28  1  1  0  0  0
 29 30  1  1  0  0  0
 30 31  1  0  0  0  0
 32 29  1  0  0  0  0
 33 32  1  0  0  0  0
 34 33  1  0  0  0  0
 34 36  1  0  0  0  0
 35 36  2  0  0  0  0
 36 37  1  0  0  0  0
 38 39  1  0  0  0  0
 41 40  1  6  0  0  0
 41 47  1  0  0  0  0
 41 39  1  0  0  0  0
 43 51  2  0  0  0  0
 43 49  1  0  0  0  0
 44 45  2  0  0  0  0
 45 48  1  0  0  0  0
 45 47  1  0  0  0  0
 46 48  1  0  0  0  0
 47 50  1  0  0  0  0
 48 43  1  0  0  0  0
 49 50  1  0  0  0  0
 49 42  1  1  0  0  0
 50 52  1  6  0  0  0
 52 53  1  0  0  0  0
M  END
>  <MODEL>
4

>  <REMARK>
 VINA RESULT:      -6.7      2.391     10.154
  Name = 
  20 active torsions:
  status: ('A' for Active; 'I' for Inactive)
    1  A    between atoms: C_1  and  C_30
    2  A    between atoms: C_2  and  N_37
    3  A    between atoms: N_5  and  C_42
    4  A    between atoms: C_6  and  C_14
    5  A    between atoms: C_6  and  C_22
    6  A    between atoms: C_7  and  C_48
    7  A    between atoms: C_7  and  O_53
    8  A    between atoms: C_8  and  C_17
    9  A    between atoms: O_13  and  C_47
   10  A    between atoms: C_14  and  C_52
   11  A    between atoms: C_17  and  C_42
   12  A    between atoms: C_17  and  O_53
   13  A    between atoms: C_21  and  C_30
   14  A    between atoms: C_22  and  C_27
   15  A    between atoms: C_25  and  C_39
   16  A    between atoms: N_35  and  C_50
   17  A    between atoms: C_36  and  C_52
   18  A    between atoms: C_38  and  C_48
   19  A    between atoms: C_39  and  C_40
   20  A    between atoms: C_40  and  C_50
                            x       y       z     vdW  Elec       q    Type
                         _______ _______ _______ _____ _____    ______ ____

>  <TORSDO>
F 20

$$$$
=
 OpenBabel10232409293D

 53 55  0  0  1  0  0  0  0  0999 V2000
  186.7060  178.9250  141.5990 C   0  0  1  0  0  3  0  0  0  0  0  0
  185.3830  178.3900  141.0980 C   0  0  1  0  0  3  0  0  0  0  0  0
  185.3910  179.3820  142.2460 C   0  0  1  0  0  3  0  0  0  0  0  0
  185.0240  178.6640  143.5370 C   0  0  0  0  0  2  0  0  0  0  0  0
  185.0830  179.6450  144.6900 C   0  0  0  0  0  2  0  0  0  0  0  0
  185.7330  179.0070  145.9110 C   0  0  1  0  0  3  0  0  0  0  0  0
  184.6830  178.3160  146.7620 C   0  0  0  0  0  1  0  0  0  0  0  0
  186.4050  176.6180  145.3960 C   0  0  0  0  0  1  0  0  0  0  0  0
  186.8950  178.0490  145.5850 C   0  0  2  0  0  3  0  0  0  0  0  0
  187.9510  178.3430  147.6770 O   0  0  0  0  0  0  0  0  0  0  0  0
  189.4940  177.8330  145.9980 C   0  0  0  0  0  1  0  0  0  0  0  0
  188.1080  178.0930  146.4920 C   0  0  0  0  0  0  0  0  0  0  0  0
  187.4570  177.8200  142.3390 C   0  0  0  0  0  2  0  0  0  0  0  0
  188.7290  177.4840  141.6280 C   0  0  0  0  0  0  0  0  0  0  0  0
  190.9960  177.3290  140.0720 C   0  0  1  0  0  3  0  0  0  0  0  0
  189.8780  176.5500  139.7150 O   0  0  0  0  0  0  0  0  0  0  0  0
  189.8940  177.5580  142.2870 C   0  0  0  0  0  3  0  0  0  0  0  0
  188.7330  177.2600  140.1320 C   0  0  0  0  0  2  0  0  0  0  0  0
  191.1980  177.2820  141.5900 C   0  0  0  0  0  2  0  0  0  0  0  0
  192.7940  176.0360  135.1690 O   0  0  0  0  0  0  0  0  0  0  0  0
  191.2430  176.8090  137.2390 O   0  0  0  0  0  0  0  0  0  0  0  0
  194.9580  175.3200  135.5890 N   0  0  0  0  0  2  0  0  0  0  0  0
  193.4700  176.1080  137.4100 N   0  0  0  0  0  2  0  0  0  0  0  0
  192.2510  176.6050  137.9700 C   0  0  0  0  0  0  0  0  0  0  0  0
  193.6980  175.8340  136.0210 C   0  0  0  0  0  0  0  0  0  0  0  0
  192.1880  176.8620  139.3750 N   0  0  0  0  0  2  0  0  0  0  0  0
  196.0440  175.0090  136.5150 C   0  0  2  0  0  3  0  0  0  0  0  0
  197.3740  175.4750  135.9450 C   0  0  0  0  0  1  0  0  0  0  0  0
  196.0910  173.5100  136.8150 C   0  0  1  0  0  3  0  0  0  0  0  0
  196.6180  173.2750  138.2230 C   0  0  0  0  0  2  0  0  0  0  0  0
  195.6630  173.6710  139.1610 O   0  0  0  0  0  1  0  0  0  0  0  0
  194.8230  172.9320  136.6750 O   0  0  0  0  0  0  0  0  0  0  0  0
  195.0520  171.7120  136.0310 C   0  0  0  0  0  2  0  0  0  0  0  0
  193.9010  170.7580  136.3040 C   0  0  0  0  0  2  0  0  0  0  0  0
  192.3400  169.8720  134.5730 O   0  0  0  0  0  0  0  0  0  0  0  0
  192.8130  170.9530  135.3050 C   0  0  0  0  0  0  0  0  0  0  0  0
  192.3420  172.1020  135.1040 O   0  0  0  0  0  1  0  0  0  0  0  0
  185.0030  179.1040  139.8160 C   0  0  0  0  0  2  0  0  0  0  0  0
  183.4920  179.2600  139.7440 C   0  0  0  0  0  2  0  0  0  0  0  0
  181.7340  179.5710  137.9610 C   0  0  0  0  0  1  0  0  0  0  0  0
  182.9510  178.7670  138.4080 C   0  0  2  0  0  3  0  0  0  0  0  0
  183.1460  174.3170  136.2150 C   0  0  0  0  0  1  0  0  0  0  0  0
  181.4430  174.7770  137.9840 C   0  0  0  0  0  0  0  0  0  0  0  0
  181.2010  177.5400  140.3280 O   0  0  0  0  0  0  0  0  0  0  0  0
  181.6180  176.8310  139.3720 C   0  0  0  0  0  0  0  0  0  0  0  0
  180.1260  174.9520  140.1130 C   0  0  0  0  0  1  0  0  0  0  0  0
  182.6280  177.3360  138.4770 N   0  0  0  0  0  0  0  0  0  0  0  0
  181.0750  175.5180  139.1590 N   0  0  0  0  0  0  0  0  0  0  0  0
  182.3680  175.3940  136.9620 C   0  0  1  0  0  3  0  0  0  0  0  0
  183.3470  176.3680  137.6340 C   0  0  1  0  0  3  0  0  0  0  0  0
  180.9280  173.6390  137.7690 O   0  0  0  0  0  0  0  0  0  0  0  0
  184.1210  177.0240  136.6660 O   0  0  0  0  0  0  0  0  0  0  0  0
  185.4450  176.7590  137.0240 C   0  0  0  0  0  1  0  0  0  0  0  0
  1  3  1  0  0  0  0
  1 13  1  1  0  0  0
  2 38  1  6  0  0  0
  2  1  1  0  0  0  0
  2  3  1  0  0  0  0
  3  4  1  1  0  0  0
  4  5  1  0  0  0  0
  5  6  1  0  0  0  0
  6  7  1  6  0  0  0
  9  8  1  1  0  0  0
  9  6  1  0  0  0  0
  9 12  1  0  0  0  0
 11 12  1  0  0  0  0
 12 10  2  0  0  0  0
 14 17  2  0  0  0  0
 14 13  1  0  0  0  0
 15 26  1  6  0  0  0
 15 19  1  0  0  0  0
 16 15  1  0  0  0  0
 16 18  1  0  0  0  0
 18 14  1  0  0  0  0
 19 17  1  0  0  0  0
 20 25  2  0  0  0  0
 21 24  2  0  0  0  0
 22 25  1  0  0  0  0
 22 27  1  0  0  0  0
 23 24  1  0  0  0  0
 24 26  1  0  0  0  0
 25 23  1  0  0  0  0
 27 28  1  6  0  0  0
 27 29  1  0  0  0  0
 29 30  1  1  0  0  0
 30 31  1  0  0  0  0
 32 29  1  0  0  0  0
 33 34  1  0  0  0  0
 33 32  1  0  0  0  0
 35 36  2  0  0  0  0
 36 34  1  0  0  0  0
 37 36  1  0  0  0  0
 39 38  1  0  0  0  0
 41 40  1  1  0  0  0
 41 47  1  0  0  0  0
 41 39  1  0  0  0  0
 43 48  1  0  0  0  0
 45 44  2  0  0  0  0
 47 45  1  0  0  0  0
 48 45  1  0  0  0  0
 48 46  1  0  0  0  0
 49 42  1  1  0  0  0
 49 50  1  0  0  0  0
 49 43  1  0  0  0  0
 50 52  1  6  0  0  0
 50 47  1  0  0  0  0
 51 43  2  0  0  0  0
 52 53  1  0  0  0  0
M  END
>  <MODEL>
5

>  <REMARK>
 VINA RESULT:      -6.6      1.938      2.957
  Name = 
  20 active torsions:
  status: ('A' for Active; 'I' for Inactive)
    1  A    between atoms: C_1  and  C_30
    2  A    between atoms: C_2  and  N_37
    3  A    between atoms: N_5  and  C_42
    4  A    between atoms: C_6  and  C_14
    5  A    between atoms: C_6  and  C_22
    6  A    between atoms: C_7  and  C_48
    7  A    between atoms: C_7  and  O_53
    8  A    between atoms: C_8  and  C_17
    9  A    between atoms: O_13  and  C_47
   10  A    between atoms: C_14  and  C_52
   11  A    between atoms: C_17  and  C_42
   12  A    between atoms: C_17  and  O_53
   13  A    between atoms: C_21  and  C_30
   14  A    between atoms: C_22  and  C_27
   15  A    between atoms: C_25  and  C_39
   16  A    between atoms: N_35  and  C_50
   17  A    between atoms: C_36  and  C_52
   18  A    between atoms: C_38  and  C_48
   19  A    between atoms: C_39  and  C_40
   20  A    between atoms: C_40  and  C_50
                            x       y       z     vdW  Elec       q    Type
                         _______ _______ _______ _____ _____    ______ ____

>  <TORSDO>
F 20

$$$$
=
 OpenBabel10232409293D

 53 55  0  0  1  0  0  0  0  0999 V2000
  187.1780  178.8230  141.4800 C   0  0  1  0  0  3  0  0  0  0  0  0
  185.9010  178.2630  140.8950 C   0  0  1  0  0  3  0  0  0  0  0  0
  185.8180  179.2080  142.0790 C   0  0  1  0  0  3  0  0  0  0  0  0
  185.4170  178.4260  143.3220 C   0  0  0  0  0  2  0  0  0  0  0  0
  185.1540  179.3920  144.4590 C   0  0  0  0  0  2  0  0  0  0  0  0
  185.7180  178.8540  145.7680 C   0  0  1  0  0  3  0  0  0  0  0  0
  184.6580  178.0540  146.5050 C   0  0  0  0  0  1  0  0  0  0  0  0
  186.7310  176.6180  145.1360 C   0  0  0  0  0  1  0  0  0  0  0  0
  187.0150  178.0360  145.6140 C   0  0  2  0  0  3  0  0  0  0  0  0
  187.6050  178.4810  147.8570 O   0  0  0  0  0  0  0  0  0  0  0  0
  189.3680  177.4930  146.6840 C   0  0  0  0  0  1  0  0  0  0  0  0
  187.9770  178.0340  146.7840 C   0  0  0  0  0  0  0  0  0  0  0  0
  187.9330  177.7150  142.2120 C   0  0  0  0  0  2  0  0  0  0  0  0
  189.2120  177.3960  141.5050 C   0  0  0  0  0  0  0  0  0  0  0  0
  191.4650  177.2520  139.9290 C   0  0  1  0  0  3  0  0  0  0  0  0
  190.3820  176.4010  139.6360 O   0  0  0  0  0  0  0  0  0  0  0  0
  190.3790  177.5660  142.1410 C   0  0  0  0  0  3  0  0  0  0  0  0
  189.2090  177.0810  140.0260 C   0  0  0  0  0  2  0  0  0  0  0  0
  191.6860  177.3080  141.4440 C   0  0  0  0  0  2  0  0  0  0  0  0
  193.3430  176.0220  135.0400 O   0  0  0  0  0  0  0  0  0  0  0  0
  191.7570  176.7630  137.0940 O   0  0  0  0  0  0  0  0  0  0  0  0
  195.5050  175.3140  135.4850 N   0  0  0  0  0  2  0  0  0  0  0  0
  193.9850  176.0740  137.2920 N   0  0  0  0  0  2  0  0  0  0  0  0
  192.7550  176.5570  137.8380 C   0  0  0  0  0  0  0  0  0  0  0  0
  194.2360  175.8160  135.9040 C   0  0  0  0  0  0  0  0  0  0  0  0
  192.6710  176.7990  139.2450 N   0  0  0  0  0  2  0  0  0  0  0  0
  196.5790  175.0000  136.4240 C   0  0  2  0  0  3  0  0  0  0  0  0
  197.9220  175.4180  135.8480 C   0  0  0  0  0  1  0  0  0  0  0  0
  196.5890  173.5080  136.7610 C   0  0  1  0  0  3  0  0  0  0  0  0
  195.9670  173.2770  138.1300 C   0  0  0  0  0  2  0  0  0  0  0  0
  196.2610  174.3510  138.9730 O   0  0  0  0  0  1  0  0  0  0  0  0
  195.8960  172.7720  135.7900 O   0  0  0  0  0  0  0  0  0  0  0  0
  194.7180  172.3610  136.4210 C   0  0  0  0  0  2  0  0  0  0  0  0
  193.6970  171.9320  135.3820 C   0  0  0  0  0  2  0  0  0  0  0  0
  192.1620  173.1920  136.8900 O   0  0  0  0  0  1  0  0  0  0  0  0
  192.3370  172.4110  135.7560 C   0  0  0  0  0  0  0  0  0  0  0  0
  191.3410  172.0820  135.0600 O   0  0  0  0  0  0  0  0  0  0  0  0
  185.5560  179.0160  139.6240 C   0  0  0  0  0  2  0  0  0  0  0  0
  184.9870  178.0520  138.5950 C   0  0  0  0  0  2  0  0  0  0  0  0
  186.3760  178.3480  136.5100 C   0  0  0  0  0  1  0  0  0  0  0  0
  186.0890  177.4660  137.7210 C   0  0  2  0  0  3  0  0  0  0  0  0
  182.5270  174.1080  136.8990 C   0  0  0  0  0  1  0  0  0  0  0  0
  184.8780  173.3740  137.3170 C   0  0  0  0  0  0  0  0  0  0  0  0
  187.9510  175.3080  137.3650 O   0  0  0  0  0  0  0  0  0  0  0  0
  186.7200  175.0420  137.2990 C   0  0  0  0  0  0  0  0  0  0  0  0
  187.2560  172.5940  137.1380 C   0  0  0  0  0  1  0  0  0  0  0  0
  185.7450  176.1020  137.2980 N   0  0  0  0  0  0  0  0  0  0  0  0
  186.2810  173.6760  137.2390 N   0  0  0  0  0  0  0  0  0  0  0  0
  183.8760  174.4900  137.4960 C   0  0  1  0  0  3  0  0  0  0  0  0
  184.3820  175.7850  136.8430 C   0  0  1  0  0  3  0  0  0  0  0  0
  184.4910  172.1670  137.3140 O   0  0  0  0  0  0  0  0  0  0  0  0
  183.5030  176.8420  137.1160 O   0  0  0  0  0  0  0  0  0  0  0  0
  182.9600  177.1870  135.8760 C   0  0  0  0  0  1  0  0  0  0  0  0
  1  3  1  0  0  0  0
  1 13  1  1  0  0  0
  2 38  1  6  0  0  0
  2  1  1  0  0  0  0
  2  3  1  0  0  0  0
  3  4  1  1  0  0  0
  4  5  1  0  0  0  0
  5  6  1  0  0  0  0
  6  7  1  6  0  0  0
  9  8  1  1  0  0  0
  9  6  1  0  0  0  0
  9 12  1  0  0  0  0
 11 12  1  0  0  0  0
 12 10  2  0  0  0  0
 14 17  2  0  0  0  0
 14 13  1  0  0  0  0
 15 26  1  6  0  0  0
 15 19  1  0  0  0  0
 16 15  1  0  0  0  0
 16 18  1  0  0  0  0
 18 14  1  0  0  0  0
 19 17  1  0  0  0  0
 20 25  2  0  0  0  0
 21 24  2  0  0  0  0
 22 25  1  0  0  0  0
 22 27  1  0  0  0  0
 23 24  1  0  0  0  0
 24 26  1  0  0  0  0
 25 23  1  0  0  0  0
 27 28  1  6  0  0  0
 27 29  1  0  0  0  0
 29 30  1  1  0  0  0
 30 31  1  0  0  0  0
 32 33  1  0  0  0  0
 32 29  1  0  0  0  0
 34 36  1  0  0  0  0
 34 33  1  0  0  0  0
 36 35  1  0  0  0  0
 37 36  2  0  0  0  0
 39 38  1  0  0  0  0
 41 40  1  6  0  0  0
 41 39  1  0  0  0  0
 43 49  1  0  0  0  0
 45 44  2  0  0  0  0
 46 48  1  0  0  0  0
 47 45  1  0  0  0  0
 47 41  1  0  0  0  0
 48 45  1  0  0  0  0
 48 43  1  0  0  0  0
 49 42  1  6  0  0  0
 50 52  1  1  0  0  0
 50 47  1  0  0  0  0
 50 49  1  0  0  0  0
 51 43  2  0  0  0  0
 53 52  1  0  0  0  0
M  END
>  <MODEL>
6

>  <REMARK>
 VINA RESULT:      -6.3      1.737      2.574
  Name = 
  20 active torsions:
  status: ('A' for Active; 'I' for Inactive)
    1  A    between atoms: C_1  and  C_30
    2  A    between atoms: C_2  and  N_37
    3  A    between atoms: N_5  and  C_42
    4  A    between atoms: C_6  and  C_14
    5  A    between atoms: C_6  and  C_22
    6  A    between atoms: C_7  and  C_48
    7  A    between atoms: C_7  and  O_53
    8  A    between atoms: C_8  and  C_17
    9  A    between atoms: O_13  and  C_47
   10  A    between atoms: C_14  and  C_52
   11  A    between atoms: C_17  and  C_42
   12  A    between atoms: C_17  and  O_53
   13  A    between atoms: C_21  and  C_30
   14  A    between atoms: C_22  and  C_27
   15  A    between atoms: C_25  and  C_39
   16  A    between atoms: N_35  and  C_50
   17  A    between atoms: C_36  and  C_52
   18  A    between atoms: C_38  and  C_48
   19  A    between atoms: C_39  and  C_40
   20  A    between atoms: C_40  and  C_50
                            x       y       z     vdW  Elec       q    Type
                         _______ _______ _______ _____ _____    ______ ____

>  <TORSDO>
F 20

$$$$
=
 OpenBabel10232409293D

 53 55  0  0  1  0  0  0  0  0999 V2000
  190.1030  176.4940  142.6360 C   0  0  1  0  0  3  0  0  0  0  0  0
  191.1890  177.5270  142.4350 C   0  0  1  0  0  3  0  0  0  0  0  0
  191.4720  176.3200  143.3100 C   0  0  1  0  0  3  0  0  0  0  0  0
  191.5320  176.7550  144.7670 C   0  0  0  0  0  2  0  0  0  0  0  0
  191.7370  175.5380  145.6460 C   0  0  0  0  0  2  0  0  0  0  0  0
  191.3630  175.8440  147.0910 C   0  0  1  0  0  3  0  0  0  0  0  0
  192.5620  175.6340  147.9970 C   0  0  0  0  0  1  0  0  0  0  0  0
  191.3110  177.9140  148.5530 C   0  0  0  0  0  1  0  0  0  0  0  0
  190.7490  177.2410  147.3070 C   0  0  2  0  0  3  0  0  0  0  0  0
  188.7150  177.9340  146.3290 O   0  0  0  0  0  0  0  0  0  0  0  0
  188.3570  176.7600  148.3170 C   0  0  0  0  0  1  0  0  0  0  0  0
  189.2390  177.3500  147.2630 C   0  0  0  0  0  0  0  0  0  0  0  0
  189.0010  177.0760  143.5180 C   0  0  0  0  0  2  0  0  0  0  0  0
  187.9080  177.6560  142.6790 C   0  0  0  0  0  0  0  0  0  0  0  0
  185.9560  179.1530  141.4410 C   0  0  1  0  0  3  0  0  0  0  0  0
  185.5620  178.1330  142.3280 O   0  0  0  0  0  0  0  0  0  0  0  0
  188.1670  178.0200  141.4150 C   0  0  0  0  0  3  0  0  0  0  0  0
  186.5780  178.0210  143.3000 C   0  0  0  0  0  2  0  0  0  0  0  0
  187.1080  178.6580  140.5590 C   0  0  0  0  0  2  0  0  0  0  0  0
  181.1110  177.5490  139.7390 O   0  0  0  0  0  0  0  0  0  0  0  0
  183.5310  177.6650  140.9300 O   0  0  0  0  0  0  0  0  0  0  0  0
  180.4570  179.2830  138.3470 N   0  0  0  0  0  2  0  0  0  0  0  0
  182.6330  179.3180  139.5370 N   0  0  0  0  0  2  0  0  0  0  0  0
  183.6550  178.7990  140.3920 C   0  0  0  0  0  0  0  0  0  0  0  0
  181.3910  178.6680  139.2350 C   0  0  0  0  0  0  0  0  0  0  0  0
  184.8270  179.5850  140.6250 N   0  0  0  0  0  2  0  0  0  0  0  0
  180.7220  180.5540  137.6780 C   0  0  2  0  0  3  0  0  0  0  0  0
  180.2770  181.7140  138.5540 C   0  0  0  0  0  1  0  0  0  0  0  0
  180.0180  180.6130  136.3220 C   0  0  1  0  0  3  0  0  0  0  0  0
  180.7250  181.6040  135.4080 C   0  0  0  0  0  2  0  0  0  0  0  0
  180.0620  182.8320  135.4340 O   0  0  0  0  0  1  0  0  0  0  0  0
  179.9820  179.3480  135.7210 O   0  0  0  0  0  0  0  0  0  0  0  0
  181.2260  179.2110  135.0960 C   0  0  0  0  0  2  0  0  0  0  0  0
  181.4830  177.7490  134.7700 C   0  0  0  0  0  2  0  0  0  0  0  0
  183.4100  176.1780  134.9450 O   0  0  0  0  0  0  0  0  0  0  0  0
  182.7210  177.2730  135.4470 C   0  0  0  0  0  0  0  0  0  0  0  0
  183.1270  177.8450  136.4920 O   0  0  0  0  0  1  0  0  0  0  0  0
  191.8310  177.3260  141.0760 C   0  0  0  0  0  2  0  0  0  0  0  0
  190.7500  177.1360  140.0220 C   0  0  0  0  0  2  0  0  0  0  0  0
  192.4150  176.8330  138.1500 C   0  0  0  0  0  1  0  0  0  0  0  0
  191.2320  176.2260  138.8990 C   0  0  2  0  0  3  0  0  0  0  0  0
  186.8830  177.6230  136.9540 C   0  0  0  0  0  1  0  0  0  0  0  0
  187.5680  175.2210  136.9140 C   0  0  0  0  0  0  0  0  0  0  0  0
  190.7960  173.7040  137.5940 O   0  0  0  0  0  0  0  0  0  0  0  0
  189.9010  174.5860  137.4880 C   0  0  0  0  0  0  0  0  0  0  0  0
  188.4160  172.9380  136.3110 C   0  0  0  0  0  1  0  0  0  0  0  0
  190.1340  175.9230  137.9720 N   0  0  0  0  0  0  0  0  0  0  0  0
  188.6340  174.2570  136.8960 N   0  0  0  0  0  0  0  0  0  0  0  0
  187.7720  176.5590  137.5860 C   0  0  1  0  0  3  0  0  0  0  0  0
  189.2420  176.9920  137.4960 C   0  0  1  0  0  3  0  0  0  0  0  0
  186.4340  174.9160  136.4370 O   0  0  0  0  0  0  0  0  0  0  0  0
  189.4450  178.1740  138.2230 O   0  0  0  0  0  0  0  0  0  0  0  0
  189.0250  179.1970  137.3700 C   0  0  0  0  0  1  0  0  0  0  0  0
  1  3  1  0  0  0  0
  1 13  1  1  0  0  0
  2 38  1  6  0  0  0
  2  1  1  0  0  0  0
  2  3  1  0  0  0  0
  3  4  1  1  0  0  0
  4  5  1  0  0  0  0
  5  6  1  0  0  0  0
  6  9  1  0  0  0  0
  6  7  1  1  0  0  0
  9  8  1  1  0  0  0
 10 12  2  0  0  0  0
 12  9  1  0  0  0  0
 12 11  1  0  0  0  0
 14 18  1  0  0  0  0
 14 13  1  0  0  0  0
 15 26  1  6  0  0  0
 15 16  1  0  0  0  0
 16 18  1  0  0  0  0
 17 14  2  0  0  0  0
 19 17  1  0  0  0  0
 19 15  1  0  0  0  0
 22 25  1  0  0  0  0
 23 24  1  0  0  0  0
 24 26  1  0  0  0  0
 24 21  2  0  0  0  0
 25 23  1  0  0  0  0
 25 20  2  0  0  0  0
 27 22  1  0  0  0  0
 27 28  1  1  0  0  0
 29 30  1  6  0  0  0
 29 27  1  0  0  0  0
 30 31  1  0  0  0  0
 32 29  1  0  0  0  0
 33 32  1  0  0  0  0
 34 33  1  0  0  0  0
 34 36  1  0  0  0  0
 35 36  2  0  0  0  0
 36 37  1  0  0  0  0
 39 38  1  0  0  0  0
 41 40  1  6  0  0  0
 41 39  1  0  0  0  0
 43 49  1  0  0  0  0
 45 44  2  0  0  0  0
 45 47  1  0  0  0  0
 46 48  1  0  0  0  0
 47 41  1  0  0  0  0
 48 43  1  0  0  0  0
 48 45  1  0  0  0  0
 49 42  1  6  0  0  0
 50 49  1  0  0  0  0
 50 47  1  0  0  0  0
 50 52  1  1  0  0  0
 51 43  2  0  0  0  0
 53 52  1  0  0  0  0
M  END
>  <MODEL>
7

>  <REMARK>
 VINA RESULT:      -6.1      3.035      9.239
  Name = 
  20 active torsions:
  status: ('A' for Active; 'I' for Inactive)
    1  A    between atoms: C_1  and  C_30
    2  A    between atoms: C_2  and  N_37
    3  A    between atoms: N_5  and  C_42
    4  A    between atoms: C_6  and  C_14
    5  A    between atoms: C_6  and  C_22
    6  A    between atoms: C_7  and  C_48
    7  A    between atoms: C_7  and  O_53
    8  A    between atoms: C_8  and  C_17
    9  A    between atoms: O_13  and  C_47
   10  A    between atoms: C_14  and  C_52
   11  A    between atoms: C_17  and  C_42
   12  A    between atoms: C_17  and  O_53
   13  A    between atoms: C_21  and  C_30
   14  A    between atoms: C_22  and  C_27
   15  A    between atoms: C_25  and  C_39
   16  A    between atoms: N_35  and  C_50
   17  A    between atoms: C_36  and  C_52
   18  A    between atoms: C_38  and  C_48
   19  A    between atoms: C_39  and  C_40
   20  A    between atoms: C_40  and  C_50
                            x       y       z     vdW  Elec       q    Type
                         _______ _______ _______ _____ _____    ______ ____

>  <TORSDO>
F 20

$$$$
=
 OpenBabel10232409293D

 53 55  0  0  1  0  0  0  0  0999 V2000
  186.5870  178.1310  138.4970 C   0  0  1  0  0  3  0  0  0  0  0  0
  185.3830  179.0470  138.4750 C   0  0  1  0  0  3  0  0  0  0  0  0
  185.2350  177.6230  137.9760 C   0  0  1  0  0  3  0  0  0  0  0  0
  185.0840  177.6310  136.4610 C   0  0  0  0  0  2  0  0  0  0  0  0
  184.0890  176.5650  136.0500 C   0  0  0  0  0  2  0  0  0  0  0  0
  183.2610  176.1070  137.2440 C   0  0  1  0  0  3  0  0  0  0  0  0
  181.8340  176.6080  137.1140 C   0  0  0  0  0  1  0  0  0  0  0  0
  184.6950  174.0190  137.3370 C   0  0  0  0  0  1  0  0  0  0  0  0
  183.2890  174.5870  137.4930 C   0  0  2  0  0  3  0  0  0  0  0  0
  182.5100  173.4140  135.5970 O   0  0  0  0  0  0  0  0  0  0  0  0
  180.9970  173.2810  137.3730 C   0  0  0  0  0  1  0  0  0  0  0  0
  182.2750  173.7420  136.7490 C   0  0  0  0  0  0  0  0  0  0  0  0
  187.5840  178.5730  137.4280 C   0  0  0  0  0  2  0  0  0  0  0  0
  188.7740  177.6680  137.4140 C   0  0  0  0  0  0  0  0  0  0  0  0
  191.1970  176.3940  137.1160 C   0  0  1  0  0  3  0  0  0  0  0  0
  190.1180  175.9880  136.3070 O   0  0  0  0  0  0  0  0  0  0  0  0
  189.4780  177.4840  138.5400 C   0  0  0  0  0  3  0  0  0  0  0  0
  189.3060  177.1240  136.1070 C   0  0  0  0  0  2  0  0  0  0  0  0
  190.7120  176.6260  138.5510 C   0  0  0  0  0  2  0  0  0  0  0  0
  195.8260  175.0760  139.5200 O   0  0  0  0  0  0  0  0  0  0  0  0
  193.5360  176.3190  138.8140 O   0  0  0  0  0  0  0  0  0  0  0  0
  196.5270  173.2300  138.3060 N   0  0  0  0  0  2  0  0  0  0  0  0
  194.4090  174.4090  137.7790 N   0  0  0  0  0  2  0  0  0  0  0  0
  193.4090  175.4200  137.9380 C   0  0  0  0  0  0  0  0  0  0  0  0
  195.5920  174.2750  138.5770 C   0  0  0  0  0  0  0  0  0  0  0  0
  192.2630  175.4000  137.0830 N   0  0  0  0  0  2  0  0  0  0  0  0
  196.3600  172.2890  137.2010 C   0  0  2  0  0  3  0  0  0  0  0  0
  196.0640  170.8970  137.7350 C   0  0  0  0  0  1  0  0  0  0  0  0
  197.6060  172.2630  136.3150 C   0  0  1  0  0  3  0  0  0  0  0  0
  197.2180  171.9540  134.8760 C   0  0  0  0  0  2  0  0  0  0  0  0
  197.5280  170.6260  134.5750 O   0  0  0  0  0  1  0  0  0  0  0  0
  198.2880  173.4860  136.3750 O   0  0  0  0  0  0  0  0  0  0  0  0
  197.7550  174.2480  135.3310 C   0  0  0  0  0  2  0  0  0  0  0  0
  197.5540  175.6830  135.7870 C   0  0  0  0  0  2  0  0  0  0  0  0
  195.9390  177.5560  135.4720 O   0  0  0  0  0  1  0  0  0  0  0  0
  196.2740  176.2270  135.2540 C   0  0  0  0  0  0  0  0  0  0  0  0
  195.4820  175.4740  134.6310 O   0  0  0  0  0  0  0  0  0  0  0  0
  184.8060  179.1540  139.8730 C   0  0  0  0  0  2  0  0  0  0  0  0
  185.8750  178.8060  140.8980 C   0  0  0  0  0  2  0  0  0  0  0  0
  183.8240  178.2020  142.2360 C   0  0  0  0  0  1  0  0  0  0  0  0
  185.3080  177.9330  142.0100 C   0  0  2  0  0  3  0  0  0  0  0  0
  189.4400  176.9770  144.5910 C   0  0  0  0  0  1  0  0  0  0  0  0
  187.3440  177.6530  145.7720 C   0  0  0  0  0  0  0  0  0  0  0  0
  184.2650  179.0460  144.4440 O   0  0  0  0  0  0  0  0  0  0  0  0
  185.4200  178.5410  144.4740 C   0  0  0  0  0  0  0  0  0  0  0  0
  185.5020  178.8720  146.9620 C   0  0  0  0  0  1  0  0  0  0  0  0
  186.0640  178.1240  143.2540 N   0  0  0  0  0  0  0  0  0  0  0  0
  186.0960  178.3650  145.7290 N   0  0  0  0  0  0  0  0  0  0  0  0
  187.9210  177.0650  144.5050 C   0  0  1  0  0  3  0  0  0  0  0  0
  187.5190  177.9050  143.2840 C   0  0  1  0  0  3  0  0  0  0  0  0
  187.9190  177.4540  146.8830 O   0  0  0  0  0  0  0  0  0  0  0  0
  187.9570  177.2870  142.1040 O   0  0  0  0  0  0  0  0  0  0  0  0
  189.1370  177.9530  141.7670 C   0  0  0  0  0  1  0  0  0  0  0  0
  1 13  1  6  0  0  0
  2  1  1  0  0  0  0
  2 38  1  1  0  0  0
  3  4  1  6  0  0  0
  3  2  1  0  0  0  0
  3  1  1  0  0  0  0
  5  4  1  0  0  0  0
  5  6  1  0  0  0  0
  6  7  1  6  0  0  0
  6  9  1  0  0  0  0
  9  8  1  6  0  0  0
 10 12  2  0  0  0  0
 12 11  1  0  0  0  0
 12  9  1  0  0  0  0
 14 13  1  0  0  0  0
 14 17  2  0  0  0  0
 15 26  1  1  0  0  0
 15 19  1  0  0  0  0
 16 15  1  0  0  0  0
 17 19  1  0  0  0  0
 18 16  1  0  0  0  0
 18 14  1  0  0  0  0
 22 25  1  0  0  0  0
 23 24  1  0  0  0  0
 23 25  1  0  0  0  0
 24 21  2  0  0  0  0
 25 20  2  0  0  0  0
 26 24  1  0  0  0  0
 27 28  1  1  0  0  0
 27 22  1  0  0  0  0
 29 30  1  6  0  0  0
 29 32  1  0  0  0  0
 29 27  1  0  0  0  0
 31 30  1  0  0  0  0
 33 34  1  0  0  0  0
 33 32  1  0  0  0  0
 36 35  1  0  0  0  0
 36 34  1  0  0  0  0
 37 36  2  0  0  0  0
 38 39  1  0  0  0  0
 39 41  1  0  0  0  0
 41 40  1  1  0  0  0
 41 47  1  0  0  0  0
 43 51  2  0  0  0  0
 44 45  2  0  0  0  0
 45 48  1  0  0  0  0
 47 50  1  0  0  0  0
 47 45  1  0  0  0  0
 48 43  1  0  0  0  0
 48 46  1  0  0  0  0
 49 42  1  1  0  0  0
 49 43  1  0  0  0  0
 50 52  1  6  0  0  0
 50 49  1  0  0  0  0
 53 52  1  0  0  0  0
M  END
>  <MODEL>
8

>  <REMARK>
 VINA RESULT:      -6.0      2.432      7.302
  Name = 
  20 active torsions:
  status: ('A' for Active; 'I' for Inactive)
    1  A    between atoms: C_1  and  C_30
    2  A    between atoms: C_2  and  N_37
    3  A    between atoms: N_5  and  C_42
    4  A    between atoms: C_6  and  C_14
    5  A    between atoms: C_6  and  C_22
    6  A    between atoms: C_7  and  C_48
    7  A    between atoms: C_7  and  O_53
    8  A    between atoms: C_8  and  C_17
    9  A    between atoms: O_13  and  C_47
   10  A    between atoms: C_14  and  C_52
   11  A    between atoms: C_17  and  C_42
   12  A    between atoms: C_17  and  O_53
   13  A    between atoms: C_21  and  C_30
   14  A    between atoms: C_22  and  C_27
   15  A    between atoms: C_25  and  C_39
   16  A    between atoms: N_35  and  C_50
   17  A    between atoms: C_36  and  C_52
   18  A    between atoms: C_38  and  C_48
   19  A    between atoms: C_39  and  C_40
   20  A    between atoms: C_40  and  C_50
                            x       y       z     vdW  Elec       q    Type
                         _______ _______ _______ _____ _____    ______ ____

>  <TORSDO>
F 20

$$$$
=
 OpenBabel10232409293D

 53 55  0  0  1  0  0  0  0  0999 V2000
  191.3230  175.0170  136.6360 C   0  0  1  0  0  3  0  0  0  0  0  0
  191.0550  174.8160  135.1610 C   0  0  1  0  0  3  0  0  0  0  0  0
  192.4080  174.4240  135.7260 C   0  0  1  0  0  3  0  0  0  0  0  0
  193.4610  175.4140  135.2490 C   0  0  0  0  0  2  0  0  0  0  0  0
  194.8380  174.8090  135.4310 C   0  0  0  0  0  2  0  0  0  0  0  0
  194.7410  173.4100  136.0270 C   0  0  1  0  0  3  0  0  0  0  0  0
  194.9590  172.3650  134.9480 C   0  0  0  0  0  1  0  0  0  0  0  0
  194.9990  173.5170  138.5460 C   0  0  0  0  0  1  0  0  0  0  0  0
  195.6750  173.1640  137.2270 C   0  0  2  0  0  3  0  0  0  0  0  0
  197.7810  173.4750  136.2040 O   0  0  0  0  0  0  0  0  0  0  0  0
  197.6090  174.6770  138.2000 C   0  0  0  0  0  1  0  0  0  0  0  0
  197.0690  173.7540  137.1550 C   0  0  0  0  0  0  0  0  0  0  0  0
  191.4520  176.5100  136.9330 C   0  0  0  0  0  2  0  0  0  0  0  0
  191.1550  176.7880  138.3710 C   0  0  0  0  0  0  0  0  0  0  0  0
  190.5320  176.7740  141.0530 C   0  0  1  0  0  3  0  0  0  0  0  0
  189.5570  177.2150  140.1370 O   0  0  0  0  0  0  0  0  0  0  0  0
  192.1550  177.1100  139.2030 C   0  0  0  0  0  3  0  0  0  0  0  0
  189.7780  176.5110  138.9340 C   0  0  0  0  0  2  0  0  0  0  0  0
  191.9010  177.3410  140.6670 C   0  0  0  0  0  2  0  0  0  0  0  0
  191.6170  175.6640  146.2050 O   0  0  0  0  0  0  0  0  0  0  0  0
  191.5840  175.6600  143.5050 O   0  0  0  0  0  0  0  0  0  0  0  0
  190.1540  177.0520  147.3470 N   0  0  0  0  0  2  0  0  0  0  0  0
  190.2470  177.0140  144.8690 N   0  0  0  0  0  2  0  0  0  0  0  0
  190.7130  176.5690  143.5920 C   0  0  0  0  0  0  0  0  0  0  0  0
  190.7150  176.5390  146.1380 C   0  0  0  0  0  0  0  0  0  0  0  0
  190.1710  177.1660  142.4110 N   0  0  0  0  0  2  0  0  0  0  0  0
  189.0700  178.0300  147.3620 C   0  0  2  0  0  3  0  0  0  0  0  0
  188.7360  178.4260  148.7910 C   0  0  0  0  0  1  0  0  0  0  0  0
  187.8270  177.4780  146.6610 C   0  0  1  0  0  3  0  0  0  0  0  0
  186.6310  177.5330  147.5990 C   0  0  0  0  0  2  0  0  0  0  0  0
  185.9450  178.7370  147.4250 O   0  0  0  0  0  1  0  0  0  0  0  0
  187.5530  178.1970  145.4900 O   0  0  0  0  0  0  0  0  0  0  0  0
  186.9770  177.2650  144.6210 C   0  0  0  0  0  2  0  0  0  0  0  0
  186.4990  177.9610  143.3590 C   0  0  0  0  0  2  0  0  0  0  0  0
  184.9000  179.5130  144.4770 O   0  0  0  0  0  1  0  0  0  0  0  0
  185.1250  178.5050  143.5500 C   0  0  0  0  0  0  0  0  0  0  0  0
  184.1630  178.0310  142.8920 O   0  0  0  0  0  0  0  0  0  0  0  0
  190.2100  173.5720  134.9680 C   0  0  0  0  0  2  0  0  0  0  0  0
  188.7400  173.9550  134.9080 C   0  0  0  0  0  2  0  0  0  0  0  0
  188.5940  172.5410  136.9920 C   0  0  0  0  0  1  0  0  0  0  0  0
  188.0670  173.7730  136.2630 C   0  0  2  0  0  3  0  0  0  0  0  0
  183.6200  175.4770  137.6640 C   0  0  0  0  0  1  0  0  0  0  0  0
  183.8310  173.2190  136.6140 C   0  0  0  0  0  0  0  0  0  0  0  0
  186.6340  171.7150  134.8620 O   0  0  0  0  0  0  0  0  0  0  0  0
  185.9650  172.5500  135.5300 C   0  0  0  0  0  0  0  0  0  0  0  0
  183.8700  171.2460  135.0650 C   0  0  0  0  0  1  0  0  0  0  0  0
  186.6080  173.7010  136.1120 N   0  0  0  0  0  0  0  0  0  0  0  0
  184.5570  172.3500  135.7290 N   0  0  0  0  0  0  0  0  0  0  0  0
  184.5580  174.3160  137.3570 C   0  0  1  0  0  3  0  0  0  0  0  0
  185.7580  174.8210  136.5420 C   0  0  1  0  0  3  0  0  0  0  0  0
  182.5990  173.0150  136.8290 O   0  0  0  0  0  0  0  0  0  0  0  0
  186.4940  175.7520  137.2890 O   0  0  0  0  0  0  0  0  0  0  0  0
  186.5760  176.8830  136.4720 C   0  0  0  0  0  1  0  0  0  0  0  0
  1 13  1  6  0  0  0
  2 38  1  1  0  0  0
  2  3  1  0  0  0  0
  2  1  1  0  0  0  0
  3  4  1  6  0  0  0
  3  1  1  0  0  0  0
  4  5  1  0  0  0  0
  5  6  1  0  0  0  0
  6  7  1  6  0  0  0
  6  9  1  0  0  0  0
  9  8  1  1  0  0  0
 10 12  2  0  0  0  0
 12  9  1  0  0  0  0
 12 11  1  0  0  0  0
 13 14  1  0  0  0  0
 14 18  1  0  0  0  0
 14 17  2  0  0  0  0
 15 26  1  1  0  0  0
 16 15  1  0  0  0  0
 17 19  1  0  0  0  0
 18 16  1  0  0  0  0
 19 15  1  0  0  0  0
 21 24  2  0  0  0  0
 22 27  1  0  0  0  0
 23 25  1  0  0  0  0
 24 23  1  0  0  0  0
 25 20  2  0  0  0  0
 25 22  1  0  0  0  0
 26 24  1  0  0  0  0
 27 28  1  1  0  0  0
 29 27  1  0  0  0  0
 29 30  1  1  0  0  0
 31 30  1  0  0  0  0
 32 29  1  0  0  0  0
 33 32  1  0  0  0  0
 34 36  1  0  0  0  0
 34 33  1  0  0  0  0
 36 35  1  0  0  0  0
 37 36  2  0  0  0  0
 39 38  1  0  0  0  0
 39 41  1  0  0  0  0
 41 40  1  6  0  0  0
 43 51  2  0  0  0  0
 43 49  1  0  0  0  0
 44 45  2  0  0  0  0
 45 48  1  0  0  0  0
 45 47  1  0  0  0  0
 46 48  1  0  0  0  0
 47 41  1  0  0  0  0
 47 50  1  0  0  0  0
 48 43  1  0  0  0  0
 49 42  1  6  0  0  0
 50 52  1  1  0  0  0
 50 49  1  0  0  0  0
 53 52  1  0  0  0  0
M  END
>  <MODEL>
9

>  <REMARK>
 VINA RESULT:      -6.0      2.864     10.028
  Name = 
  20 active torsions:
  status: ('A' for Active; 'I' for Inactive)
    1  A    between atoms: C_1  and  C_30
    2  A    between atoms: C_2  and  N_37
    3  A    between atoms: N_5  and  C_42
    4  A    between atoms: C_6  and  C_14
    5  A    between atoms: C_6  and  C_22
    6  A    between atoms: C_7  and  C_48
    7  A    between atoms: C_7  and  O_53
    8  A    between atoms: C_8  and  C_17
    9  A    between atoms: O_13  and  C_47
   10  A    between atoms: C_14  and  C_52
   11  A    between atoms: C_17  and  C_42
   12  A    between atoms: C_17  and  O_53
   13  A    between atoms: C_21  and  C_30
   14  A    between atoms: C_22  and  C_27
   15  A    between atoms: C_25  and  C_39
   16  A    between atoms: N_35  and  C_50
   17  A    between atoms: C_36  and  C_52
   18  A    between atoms: C_38  and  C_48
   19  A    between atoms: C_39  and  C_40
   20  A    between atoms: C_40  and  C_50
                            x       y       z     vdW  Elec       q    Type
                         _______ _______ _______ _____ _____    ______ ____

>  <TORSDO>
F 20

$$$$
