=
 OpenBabel10232410093D

 62 63  0  0  1  0  0  0  0  0999 V2000
  189.9580  176.7300  139.0000 C   0  0  1  0  0  3  0  0  0  0  0  0
  189.4190  175.7350  137.9840 C   0  0  0  0  0  2  0  0  0  0  0  0
  190.1170  174.5280  138.0900 O   0  0  0  0  0  1  0  0  0  0  0  0
  191.3980  177.1100  138.6390 C   0  0  2  0  0  3  0  0  0  0  0  0
  191.7690  176.6090  136.2680 N   0  0  0  0  0  1  0  0  0  0  0  0
  191.9560  176.1100  137.6200 C   0  0  1  0  0  3  0  0  0  0  0  0
  193.4270  175.7870  137.8770 C   0  0  0  0  0  2  0  0  0  0  0  0
  193.7190  174.3130  137.6480 C   0  0  0  0  0  2  0  0  0  0  0  0
  194.9720  174.1500  136.8050 C   0  0  0  0  0  2  0  0  0  0  0  0
  196.2060  174.4330  137.6420 C   0  0  0  0  0  2  0  0  0  0  0  0
  197.2740  175.1090  136.8480 C   0  0  0  0  0  0  0  0  0  0  0  0
  197.0070  176.1510  136.1880 O   0  0  0  0  0  0  0  0  0  0  0  0
  197.2770  171.9030  135.2940 C   0  0  0  0  0  1  0  0  0  0  0  0
  198.5830  174.5290  136.8130 N   0  0  0  0  0  0  0  0  0  0  0  0
  200.2270  172.8610  135.6700 C   0  0  0  0  0  2  0  0  0  0  0  0
  199.6230  172.0830  134.5520 C   0  0  0  0  0  2  0  0  0  0  0  0
  198.3680  172.8450  134.8020 C   0  0  2  0  0  3  0  0  0  0  0  0
  198.9560  173.6260  135.9600 C   0  0  0  0  0  0  0  0  0  0  0  0
  192.2470  177.1600  139.8280 N   0  0  0  0  0  2  0  0  0  0  0  0
  191.3850  177.3690  140.9840 C   0  0  0  0  0  2  0  0  0  0  0  0
  192.0600  176.8550  142.2490 C   0  0  0  0  0  2  0  0  0  0  0  0
  191.5160  178.7360  143.5680 O   0  0  0  0  0  0  0  0  0  0  0  0
  191.5100  177.5190  143.4730 C   0  0  0  0  0  0  0  0  0  0  0  0
  190.8760  176.7000  144.5510 C   0  0  0  0  0  2  0  0  0  0  0  0
  189.9620  177.5440  145.4350 C   0  0  2  0  0  3  0  0  0  0  0  0
  191.7420  176.9400  146.9190 O   0  0  0  0  0  1  0  0  0  0  0  0
  190.4150  177.3710  146.8820 C   0  0  0  0  0  2  0  0  0  0  0  0
  188.4930  177.1260  145.2470 C   0  0  2  0  0  3  0  0  0  0  0  0
  188.0670  178.0120  142.9440 O   0  0  0  0  0  0  0  0  0  0  0  0
  188.0090  175.7610  143.3530 O   0  0  0  0  0  1  0  0  0  0  0  0
  188.1740  176.9240  143.8000 C   0  0  0  0  0  0  0  0  0  0  0  0
  187.5200  178.1460  145.8330 C   0  0  0  0  0  2  0  0  0  0  0  0
  186.1030  177.6140  145.7370 C   0  0  0  0  0  2  0  0  0  0  0  0
  185.2020  178.6780  145.7700 O   0  0  0  0  0  1  0  0  0  0  0  0
  188.8450  178.1720  139.0630 S   0  0  0  0  0  0  0  0  0  0  0  0
  189.2900  178.6790  137.3760 C   0  0  0  0  0  2  0  0  0  0  0  0
  186.6950  179.5320  136.5710 O   0  0  0  0  0  0  0  0  0  0  0  0
  187.1680  178.5050  136.0180 C   0  0  0  0  0  0  0  0  0  0  0  0
  188.4390  177.9930  136.4160 N   0  0  0  0  0  2  0  0  0  0  0  0
  186.3820  177.7790  134.9800 C   0  0  0  0  0  2  0  0  0  0  0  0
  185.0990  177.4220  135.4850 O   0  0  0  0  0  0  0  0  0  0  0  0
  184.2170  175.5630  134.4320 O   0  0  0  0  0  0  0  0  0  0  0  0
  184.6430  176.1000  135.4900 C   0  0  0  0  0  0  0  0  0  0  0  0
  185.8040  175.4710  137.4590 F   0  0  0  0  0  0  0  0  0  0  0  0
  184.6100  175.3270  136.7650 C   0  0  1  0  0  3  0  0  0  0  0  0
  183.4140  175.7380  137.6350 C   0  0  1  0  0  3  0  0  0  0  0  0
  181.6940  179.7050  138.1230 C   0  0  1  0  0  3  0  0  0  0  0  0
  181.2800  177.2460  137.4270 C   0  0  0  0  0  2  0  0  0  0  0  0
  184.1120  179.1830  139.0720 C   0  0  0  0  0  2  0  0  0  0  0  0
  184.2450  177.9840  138.1970 C   0  0  0  0  0  2  0  0  0  0  0  0
  183.7900  176.8030  138.6190 C   0  0  0  0  0  2  0  0  0  0  0  0
  182.1680  176.1530  136.7930 C   0  0  2  0  0  3  0  0  0  0  0  0
  182.6170  179.4850  139.3560 C   0  0  2  0  0  3  0  0  0  0  0  0
  181.0690  179.0650  135.8820 O   0  0  0  0  0  1  0  0  0  0  0  0
  181.7660  178.6380  137.0090 C   0  0  1  0  0  3  0  0  0  0  0  0
  180.6690  174.2520  137.5010 N   0  0  0  0  0  1  0  0  0  0  0  0
  181.3280  174.9630  136.4590 C   0  0  0  0  0  0  0  0  0  0  0  0
  181.2280  174.5630  135.2690 O   0  0  0  0  0  0  0  0  0  0  0  0
  180.3010  181.1910  139.0040 C   0  0  0  0  0  1  0  0  0  0  0  0
  180.3700  179.8780  138.5380 O   0  0  0  0  0  0  0  0  0  0  0  0
  182.8790  178.6080  141.3780 C   0  0  0  0  0  1  0  0  0  0  0  0
  182.0690  178.5440  140.2410 O   0  0  0  0  0  0  0  0  0  0  0  0
  1  2  1  6  0  0  0
  1 35  1  0  0  0  0
  2  3  1  0  0  0  0
  4  1  1  0  0  0  0
  4 19  1  1  0  0  0
  6  5  1  6  0  0  0
  6  7  1  0  0  0  0
  6  4  1  0  0  0  0
  8  7  1  0  0  0  0
  9 10  1  0  0  0  0
  9  8  1  0  0  0  0
 11 10  1  0  0  0  0
 12 11  2  0  0  0  0
 14 11  1  0  0  0  0
 15 18  1  0  0  0  0
 16 17  1  0  0  0  0
 16 15  1  0  0  0  0
 17 13  1  1  0  0  0
 17 18  1  0  0  0  0
 18 14  2  0  0  0  0
 19 20  1  0  0  0  0
 20 21  1  0  0  0  0
 21 23  1  0  0  0  0
 23 22  2  0  0  0  0
 23 24  1  0  0  0  0
 25 24  1  6  0  0  0
 25 27  1  0  0  0  0
 27 26  1  0  0  0  0
 28 25  1  0  0  0  0
 28 32  1  6  0  0  0
 29 31  2  0  0  0  0
 30 31  1  0  0  0  0
 31 28  1  0  0  0  0
 33 34  1  0  0  0  0
 33 32  1  0  0  0  0
 36 35  1  0  0  0  0
 38 39  1  0  0  0  0
 38 37  2  0  0  0  0
 39 36  1  0  0  0  0
 40 41  1  0  0  0  0
 40 38  1  0  0  0  0
 41 43  1  0  0  0  0
 42 43  2  0  0  0  0
 43 45  1  0  0  0  0
 45 44  1  1  0  0  0
 46 45  1  6  0  0  0
 46 51  1  0  0  0  0
 47 60  1  1  0  0  0
 47 53  1  0  0  0  0
 49 53  1  0  0  0  0
 50 51  1  0  0  0  0
 50 49  1  0  0  0  0
 52 57  1  1  0  0  0
 52 48  1  0  0  0  0
 52 46  1  0  0  0  0
 53 62  1  6  0  0  0
 55 54  1  6  0  0  0
 55 48  1  0  0  0  0
 55 47  1  0  0  0  0
 57 56  1  0  0  0  0
 58 57  2  0  0  0  0
 60 59  1  0  0  0  0
 62 61  1  0  0  0  0
M  END
>  <MODEL>
1

>  <REMARK>
 VINA RESULT:      -5.3      0.000      0.000
  Name = 
  31 active torsions:
  status: ('A' for Active; 'I' for Inactive)
    1  A    between atoms: C_1  and  C_42
    2  A    between atoms: C_4  and  C_48
    3  A    between atoms: C_6  and  C_25
    4  A    between atoms: C_6  and  C_46
    5  A    between atoms: C_6  and  C_49
    6  A    between atoms: N_7  and  C_28
    7  A    between atoms: C_9  and  C_26
    8  A    between atoms: C_9  and  C_28
    9  A    between atoms: C_14  and  C_47
   10  A    between atoms: C_16  and  C_41
   11  A    between atoms: C_17  and  O_62
   12  A    between atoms: C_23  and  C_25
   13  A    between atoms: C_23  and  C_56
   14  A    between atoms: O_24  and  C_43
   15  A    between atoms: C_26  and  C_32
   16  A    between atoms: C_30  and  S_53
   17  A    between atoms: C_30  and  N_55
   18  A    between atoms: O_31  and  C_47
   19  A    between atoms: O_31  and  C_60
   20  A    between atoms: C_32  and  C_54
   21  A    between atoms: C_36  and  C_59
   22  A    between atoms: C_42  and  C_60
   23  A    between atoms: C_44  and  N_45
   24  A    between atoms: C_44  and  C_56
   25  A    between atoms: N_45  and  C_58
   26  A    between atoms: C_48  and  S_53
   27  A    between atoms: C_48  and  C_58
   28  A    between atoms: C_49  and  C_59
   29  A    between atoms: C_49  and  C_61
   30  A    between atoms: C_50  and  C_54
   31  A    between atoms: C_50  and  C_58
                            x       y       z     vdW  Elec       q    Type
                         _______ _______ _______ _____ _____    ______ ____

>  <TORSDO>
F 31

$$$$
=
 OpenBabel10232410093D

 62 63  0  0  1  0  0  0  0  0999 V2000
  187.5890  175.4110  136.9660 C   0  0  1  0  0  3  0  0  0  0  0  0
  186.4950  174.3680  137.1380 C   0  0  0  0  0  2  0  0  0  0  0  0
  185.6280  174.4090  136.0430 O   0  0  0  0  0  1  0  0  0  0  0  0
  187.5040  176.4420  138.0950 C   0  0  2  0  0  3  0  0  0  0  0  0
  186.8210  177.8640  136.2170 N   0  0  0  0  0  1  0  0  0  0  0  0
  186.6510  177.6350  137.6420 C   0  0  1  0  0  3  0  0  0  0  0  0
  185.1750  177.4490  137.9860 C   0  0  0  0  0  2  0  0  0  0  0  0
  184.8320  178.0890  139.3220 C   0  0  0  0  0  2  0  0  0  0  0  0
  183.4550  178.7270  139.2620 C   0  0  0  0  0  2  0  0  0  0  0  0
  183.5590  180.1410  138.7180 C   0  0  0  0  0  2  0  0  0  0  0  0
  182.2640  180.8750  138.8260 C   0  0  0  0  0  0  0  0  0  0  0  0
  181.2330  180.2780  139.2440 O   0  0  0  0  0  0  0  0  0  0  0  0
  180.8020  181.2250  135.5960 C   0  0  0  0  0  1  0  0  0  0  0  0
  182.2060  182.2430  138.4070 N   0  0  0  0  0  0  0  0  0  0  0  0
  181.0620  184.0460  136.9130 C   0  0  0  0  0  2  0  0  0  0  0  0
  179.9850  183.5110  136.0330 C   0  0  0  0  0  2  0  0  0  0  0  0
  180.2510  182.1790  136.6460 C   0  0  2  0  0  3  0  0  0  0  0  0
  181.3680  182.7000  137.5290 C   0  0  0  0  0  0  0  0  0  0  0  0
  188.8330  176.8890  138.5080 N   0  0  0  0  0  2  0  0  0  0  0  0
  188.6860  177.6490  139.7420 C   0  0  0  0  0  2  0  0  0  0  0  0
  189.2040  176.8430  140.9250 C   0  0  0  0  0  2  0  0  0  0  0  0
  187.9710  178.3000  142.3160 O   0  0  0  0  0  0  0  0  0  0  0  0
  188.4850  177.2000  142.1900 C   0  0  0  0  0  0  0  0  0  0  0  0
  188.3220  176.1820  143.2740 C   0  0  0  0  0  2  0  0  0  0  0  0
  188.5170  176.7980  144.6560 C   0  0  2  0  0  3  0  0  0  0  0  0
  186.6160  177.7460  145.7630 O   0  0  0  0  0  1  0  0  0  0  0  0
  187.5740  177.9920  144.7780 C   0  0  0  0  0  2  0  0  0  0  0  0
  189.9860  177.2130  144.8590 C   0  0  2  0  0  3  0  0  0  0  0  0
  189.7940  176.4360  147.2320 O   0  0  0  0  0  1  0  0  0  0  0  0
  191.7420  176.1450  146.0670 O   0  0  0  0  0  0  0  0  0  0  0  0
  190.5600  176.5720  146.0810 C   0  0  0  0  0  0  0  0  0  0  0  0
  190.1510  178.7270  144.9670 C   0  0  0  0  0  2  0  0  0  0  0  0
  190.8750  179.2490  143.7410 C   0  0  0  0  0  2  0  0  0  0  0  0
  191.5960  178.2130  143.1470 O   0  0  0  0  0  1  0  0  0  0  0  0
  189.2050  174.5690  136.9030 S   0  0  0  0  0  0  0  0  0  0  0  0
  189.9060  175.8460  135.8170 C   0  0  0  0  0  2  0  0  0  0  0  0
  192.5930  176.7850  135.9260 O   0  0  0  0  0  0  0  0  0  0  0  0
  192.3550  175.7800  135.2060 C   0  0  0  0  0  0  0  0  0  0  0  0
  191.0210  175.2940  135.0640 N   0  0  0  0  0  2  0  0  0  0  0  0
  193.4570  175.1200  134.4480 C   0  0  0  0  0  2  0  0  0  0  0  0
  194.3070  174.3970  135.3320 O   0  0  0  0  0  0  0  0  0  0  0  0
  195.7240  175.9750  136.2510 O   0  0  0  0  0  0  0  0  0  0  0  0
  194.9370  175.0050  136.4220 C   0  0  0  0  0  0  0  0  0  0  0  0
  193.4400  173.9580  137.9320 F   0  0  0  0  0  0  0  0  0  0  0  0
  194.7220  174.4740  137.7990 C   0  0  1  0  0  3  0  0  0  0  0  0
  195.7800  173.4240  138.1630 C   0  0  1  0  0  3  0  0  0  0  0  0
  197.3310  170.2080  135.6770 C   0  0  1  0  0  3  0  0  0  0  0  0
  197.8890  172.3200  137.0660 C   0  0  0  0  0  2  0  0  0  0  0  0
  194.8190  170.1400  136.5170 C   0  0  0  0  0  2  0  0  0  0  0  0
  194.8320  171.6010  136.8120 C   0  0  0  0  0  2  0  0  0  0  0  0
  195.2510  172.0310  138.0030 C   0  0  0  0  0  2  0  0  0  0  0  0
  197.1190  173.6200  137.3870 C   0  0  2  0  0  3  0  0  0  0  0  0
  196.2550  169.5580  136.5940 C   0  0  2  0  0  3  0  0  0  0  0  0
  198.2660  172.2080  134.7020 O   0  0  0  0  0  1  0  0  0  0  0  0
  197.4330  171.7480  135.7190 C   0  0  1  0  0  3  0  0  0  0  0  0
  199.2800  174.9110  137.5400 N   0  0  0  0  0  1  0  0  0  0  0  0
  198.0220  174.5670  138.1090 C   0  0  0  0  0  0  0  0  0  0  0  0
  197.6950  175.0340  139.2320 O   0  0  0  0  0  0  0  0  0  0  0  0
  198.4010  168.2650  135.7420 C   0  0  0  0  0  1  0  0  0  0  0  0
  198.5820  169.6350  135.9230 O   0  0  0  0  0  0  0  0  0  0  0  0
  196.0710  168.3430  138.4410 C   0  0  0  0  0  1  0  0  0  0  0  0
  196.7000  169.4780  137.9220 O   0  0  0  0  0  0  0  0  0  0  0  0
  1  2  1  1  0  0  0
  1  4  1  0  0  0  0
  3  2  1  0  0  0  0
  4 19  1  6  0  0  0
  6  5  1  6  0  0  0
  6  7  1  0  0  0  0
  6  4  1  0  0  0  0
  7  8  1  0  0  0  0
  9  8  1  0  0  0  0
 10 11  1  0  0  0  0
 10  9  1  0  0  0  0
 11 12  2  0  0  0  0
 14 11  1  0  0  0  0
 15 18  1  0  0  0  0
 16 17  1  0  0  0  0
 16 15  1  0  0  0  0
 17 13  1  6  0  0  0
 17 18  1  0  0  0  0
 18 14  2  0  0  0  0
 19 20  1  0  0  0  0
 20 21  1  0  0  0  0
 21 23  1  0  0  0  0
 23 22  2  0  0  0  0
 23 24  1  0  0  0  0
 25 24  1  6  0  0  0
 25 27  1  0  0  0  0
 25 28  1  0  0  0  0
 27 26  1  0  0  0  0
 28 32  1  1  0  0  0
 28 31  1  0  0  0  0
 30 31  2  0  0  0  0
 31 29  1  0  0  0  0
 33 32  1  0  0  0  0
 34 33  1  0  0  0  0
 35  1  1  0  0  0  0
 36 35  1  0  0  0  0
 38 37  2  0  0  0  0
 39 38  1  0  0  0  0
 39 36  1  0  0  0  0
 40 38  1  0  0  0  0
 40 41  1  0  0  0  0
 41 43  1  0  0  0  0
 42 43  2  0  0  0  0
 43 45  1  0  0  0  0
 45 44  1  6  0  0  0
 46 45  1  6  0  0  0
 47 55  1  0  0  0  0
 47 60  1  1  0  0  0
 47 53  1  0  0  0  0
 48 52  1  0  0  0  0
 49 53  1  0  0  0  0
 49 50  1  0  0  0  0
 50 51  1  0  0  0  0
 51 46  1  0  0  0  0
 52 57  1  1  0  0  0
 52 46  1  0  0  0  0
 53 62  1  1  0  0  0
 55 54  1  6  0  0  0
 55 48  1  0  0  0  0
 56 57  1  0  0  0  0
 57 58  2  0  0  0  0
 59 60  1  0  0  0  0
 62 61  1  0  0  0  0
M  END
>  <MODEL>
2

>  <REMARK>
 VINA RESULT:      -5.3      2.890     12.414
  Name = 
  31 active torsions:
  status: ('A' for Active; 'I' for Inactive)
    1  A    between atoms: C_1  and  C_42
    2  A    between atoms: C_4  and  C_48
    3  A    between atoms: C_6  and  C_25
    4  A    between atoms: C_6  and  C_46
    5  A    between atoms: C_6  and  C_49
    6  A    between atoms: N_7  and  C_28
    7  A    between atoms: C_9  and  C_26
    8  A    between atoms: C_9  and  C_28
    9  A    between atoms: C_14  and  C_47
   10  A    between atoms: C_16  and  C_41
   11  A    between atoms: C_17  and  O_62
   12  A    between atoms: C_23  and  C_25
   13  A    between atoms: C_23  and  C_56
   14  A    between atoms: O_24  and  C_43
   15  A    between atoms: C_26  and  C_32
   16  A    between atoms: C_30  and  S_53
   17  A    between atoms: C_30  and  N_55
   18  A    between atoms: O_31  and  C_47
   19  A    between atoms: O_31  and  C_60
   20  A    between atoms: C_32  and  C_54
   21  A    between atoms: C_36  and  C_59
   22  A    between atoms: C_42  and  C_60
   23  A    between atoms: C_44  and  N_45
   24  A    between atoms: C_44  and  C_56
   25  A    between atoms: N_45  and  C_58
   26  A    between atoms: C_48  and  S_53
   27  A    between atoms: C_48  and  C_58
   28  A    between atoms: C_49  and  C_59
   29  A    between atoms: C_49  and  C_61
   30  A    between atoms: C_50  and  C_54
   31  A    between atoms: C_50  and  C_58
                            x       y       z     vdW  Elec       q    Type
                         _______ _______ _______ _____ _____    ______ ____

>  <TORSDO>
F 31

$$$$
=
 OpenBabel10232410093D

 62 63  0  0  1  0  0  0  0  0999 V2000
  187.6640  175.4720  136.9090 C   0  0  1  0  0  3  0  0  0  0  0  0
  186.5620  174.4630  137.1920 C   0  0  0  0  0  2  0  0  0  0  0  0
  187.0900  173.1680  137.1680 O   0  0  0  0  0  1  0  0  0  0  0  0
  187.6100  176.6010  137.9430 C   0  0  2  0  0  3  0  0  0  0  0  0
  186.8390  177.7300  135.9060 N   0  0  0  0  0  1  0  0  0  0  0  0
  186.8520  177.8000  137.3580 C   0  0  1  0  0  3  0  0  0  0  0  0
  185.4300  177.9030  137.9050 C   0  0  0  0  0  2  0  0  0  0  0  0
  185.3790  178.7600  139.1590 C   0  0  0  0  0  2  0  0  0  0  0  0
  184.0630  178.5500  139.8880 C   0  0  0  0  0  2  0  0  0  0  0  0
  182.9140  179.0950  139.0580 C   0  0  0  0  0  2  0  0  0  0  0  0
  181.6900  178.2510  139.1830 C   0  0  0  0  0  0  0  0  0  0  0  0
  181.2170  177.9880  140.3220 O   0  0  0  0  0  0  0  0  0  0  0  0
  183.1040  175.1050  138.2890 C   0  0  0  0  0  1  0  0  0  0  0  0
  181.0970  177.7110  137.9950 N   0  0  0  0  0  0  0  0  0  0  0  0
  180.5450  175.6030  136.5670 C   0  0  0  0  0  2  0  0  0  0  0  0
  181.0640  174.3280  137.1400 C   0  0  0  0  0  2  0  0  0  0  0  0
  181.5820  175.1400  138.2770 C   0  0  2  0  0  3  0  0  0  0  0  0
  181.0860  176.4500  137.6960 C   0  0  0  0  0  0  0  0  0  0  0  0
  188.9520  176.9980  138.3650 N   0  0  0  0  0  2  0  0  0  0  0  0
  188.8210  177.7870  139.5830 C   0  0  0  0  0  2  0  0  0  0  0  0
  189.1300  176.9310  140.8040 C   0  0  0  0  0  2  0  0  0  0  0  0
  187.6500  178.3500  141.9750 O   0  0  0  0  0  0  0  0  0  0  0  0
  188.2470  177.2860  141.9610 C   0  0  0  0  0  0  0  0  0  0  0  0
  188.0290  176.3040  143.0680 C   0  0  0  0  0  2  0  0  0  0  0  0
  188.6370  176.7930  144.3800 C   0  0  2  0  0  3  0  0  0  0  0  0
  186.8580  178.1020  145.3060 O   0  0  0  0  0  1  0  0  0  0  0  0
  188.0930  178.1900  144.6600 C   0  0  0  0  0  2  0  0  0  0  0  0
  190.1740  176.7890  144.2960 C   0  0  2  0  0  3  0  0  0  0  0  0
  192.0590  176.0070  145.7460 O   0  0  0  0  0  0  0  0  0  0  0  0
  190.1410  176.8360  146.6790 O   0  0  0  0  0  1  0  0  0  0  0  0
  190.7840  176.5450  145.6390 C   0  0  0  0  0  0  0  0  0  0  0  0
  190.7260  178.0940  143.7280 C   0  0  0  0  0  2  0  0  0  0  0  0
  191.3910  178.8910  144.8330 C   0  0  0  0  0  2  0  0  0  0  0  0
  192.0750  179.9750  144.2820 O   0  0  0  0  0  1  0  0  0  0  0  0
  189.2690  174.6060  136.8960 S   0  0  0  0  0  0  0  0  0  0  0  0
  189.9480  175.7380  135.6460 C   0  0  0  0  0  2  0  0  0  0  0  0
  192.6310  176.6900  135.7000 O   0  0  0  0  0  0  0  0  0  0  0  0
  192.4070  175.6130  135.0880 C   0  0  0  0  0  0  0  0  0  0  0  0
  191.0760  175.1110  134.9760 N   0  0  0  0  0  2  0  0  0  0  0  0
  193.5220  174.8790  134.4240 C   0  0  0  0  0  2  0  0  0  0  0  0
  194.3450  174.2380  135.3930 O   0  0  0  0  0  0  0  0  0  0  0  0
  195.7930  175.9390  135.9890 O   0  0  0  0  0  0  0  0  0  0  0  0
  195.0790  174.9600  136.3390 C   0  0  0  0  0  0  0  0  0  0  0  0
  193.7950  174.1320  138.1510 F   0  0  0  0  0  0  0  0  0  0  0  0
  195.0660  174.5430  137.7710 C   0  0  1  0  0  3  0  0  0  0  0  0
  196.1050  173.4460  138.0420 C   0  0  1  0  0  3  0  0  0  0  0  0
  197.1520  170.0630  135.5140 C   0  0  1  0  0  3  0  0  0  0  0  0
  197.9940  172.1850  136.7340 C   0  0  0  0  0  2  0  0  0  0  0  0
  194.7670  170.1700  136.6660 C   0  0  0  0  0  2  0  0  0  0  0  0
  194.8960  171.6360  136.8960 C   0  0  0  0  0  2  0  0  0  0  0  0
  195.4870  172.0820  138.0060 C   0  0  0  0  0  2  0  0  0  0  0  0
  197.3410  173.5380  137.0960 C   0  0  2  0  0  3  0  0  0  0  0  0
  196.1690  169.5080  136.5850 C   0  0  2  0  0  3  0  0  0  0  0  0
  198.0600  171.9710  134.3480 O   0  0  0  0  0  1  0  0  0  0  0  0
  197.3400  171.5950  135.4810 C   0  0  1  0  0  3  0  0  0  0  0  0
  198.0440  175.3120  138.7450 N   0  0  0  0  0  1  0  0  0  0  0  0
  198.3780  174.4550  137.6590 C   0  0  0  0  0  0  0  0  0  0  0  0
  199.5330  174.5010  137.1580 O   0  0  0  0  0  0  0  0  0  0  0  0
  198.6350  168.8760  134.3670 C   0  0  0  0  0  1  0  0  0  0  0  0
  198.3920  169.4280  135.6250 O   0  0  0  0  0  0  0  0  0  0  0  0
  196.1150  168.4090  138.5120 C   0  0  0  0  0  1  0  0  0  0  0  0
  196.7750  169.4480  137.8490 O   0  0  0  0  0  0  0  0  0  0  0  0
  1  2  1  1  0  0  0
  1  4  1  0  0  0  0
  3  2  1  0  0  0  0
  4 19  1  6  0  0  0
  6  5  1  6  0  0  0
  6  7  1  0  0  0  0
  6  4  1  0  0  0  0
  7  8  1  0  0  0  0
  8  9  1  0  0  0  0
 10 11  1  0  0  0  0
 10  9  1  0  0  0  0
 11 12  2  0  0  0  0
 14 11  1  0  0  0  0
 15 16  1  0  0  0  0
 15 18  1  0  0  0  0
 16 17  1  0  0  0  0
 17 13  1  6  0  0  0
 18 14  2  0  0  0  0
 18 17  1  0  0  0  0
 19 20  1  0  0  0  0
 20 21  1  0  0  0  0
 21 23  1  0  0  0  0
 23 22  2  0  0  0  0
 23 24  1  0  0  0  0
 25 24  1  6  0  0  0
 25 27  1  0  0  0  0
 27 26  1  0  0  0  0
 28 32  1  1  0  0  0
 28 25  1  0  0  0  0
 28 31  1  0  0  0  0
 31 29  2  0  0  0  0
 31 30  1  0  0  0  0
 32 33  1  0  0  0  0
 34 33  1  0  0  0  0
 35  1  1  0  0  0  0
 36 35  1  0  0  0  0
 38 37  2  0  0  0  0
 39 38  1  0  0  0  0
 39 36  1  0  0  0  0
 40 38  1  0  0  0  0
 40 41  1  0  0  0  0
 41 43  1  0  0  0  0
 42 43  2  0  0  0  0
 43 45  1  0  0  0  0
 45 44  1  6  0  0  0
 46 45  1  6  0  0  0
 47 60  1  1  0  0  0
 47 53  1  0  0  0  0
 48 52  1  0  0  0  0
 49 50  1  0  0  0  0
 50 51  1  0  0  0  0
 51 46  1  0  0  0  0
 52 57  1  1  0  0  0
 52 46  1  0  0  0  0
 53 49  1  0  0  0  0
 53 62  1  1  0  0  0
 55 54  1  6  0  0  0
 55 47  1  0  0  0  0
 55 48  1  0  0  0  0
 57 56  1  0  0  0  0
 58 57  2  0  0  0  0
 59 60  1  0  0  0  0
 62 61  1  0  0  0  0
M  END
>  <MODEL>
3

>  <REMARK>
 VINA RESULT:      -4.8      2.684     12.052
  Name = 
  31 active torsions:
  status: ('A' for Active; 'I' for Inactive)
    1  A    between atoms: C_1  and  C_42
    2  A    between atoms: C_4  and  C_48
    3  A    between atoms: C_6  and  C_25
    4  A    between atoms: C_6  and  C_46
    5  A    between atoms: C_6  and  C_49
    6  A    between atoms: N_7  and  C_28
    7  A    between atoms: C_9  and  C_26
    8  A    between atoms: C_9  and  C_28
    9  A    between atoms: C_14  and  C_47
   10  A    between atoms: C_16  and  C_41
   11  A    between atoms: C_17  and  O_62
   12  A    between atoms: C_23  and  C_25
   13  A    between atoms: C_23  and  C_56
   14  A    between atoms: O_24  and  C_43
   15  A    between atoms: C_26  and  C_32
   16  A    between atoms: C_30  and  S_53
   17  A    between atoms: C_30  and  N_55
   18  A    between atoms: O_31  and  C_47
   19  A    between atoms: O_31  and  C_60
   20  A    between atoms: C_32  and  C_54
   21  A    between atoms: C_36  and  C_59
   22  A    between atoms: C_42  and  C_60
   23  A    between atoms: C_44  and  N_45
   24  A    between atoms: C_44  and  C_56
   25  A    between atoms: N_45  and  C_58
   26  A    between atoms: C_48  and  S_53
   27  A    between atoms: C_48  and  C_58
   28  A    between atoms: C_49  and  C_59
   29  A    between atoms: C_49  and  C_61
   30  A    between atoms: C_50  and  C_54
   31  A    between atoms: C_50  and  C_58
                            x       y       z     vdW  Elec       q    Type
                         _______ _______ _______ _____ _____    ______ ____

>  <TORSDO>
F 31

$$$$
=
 OpenBabel10232410093D

 62 63  0  0  1  0  0  0  0  0999 V2000
  190.1410  177.8070  139.4010 C   0  0  1  0  0  3  0  0  0  0  0  0
  191.6200  177.5960  139.6850 C   0  0  0  0  0  2  0  0  0  0  0  0
  191.7900  177.1650  141.0040 O   0  0  0  0  0  1  0  0  0  0  0  0
  189.7600  177.1080  138.0930 C   0  0  2  0  0  3  0  0  0  0  0  0
  190.6090  174.8080  138.1700 N   0  0  0  0  0  1  0  0  0  0  0  0
  190.8810  176.1470  137.6750 C   0  0  1  0  0  3  0  0  0  0  0  0
  191.0900  176.1310  136.1620 C   0  0  0  0  0  2  0  0  0  0  0  0
  192.5160  175.7490  135.8040 C   0  0  0  0  0  2  0  0  0  0  0  0
  192.7070  174.2470  135.9310 C   0  0  0  0  0  2  0  0  0  0  0  0
  194.1380  173.8710  135.5920 C   0  0  0  0  0  2  0  0  0  0  0  0
  194.5830  172.6540  136.3310 C   0  0  0  0  0  0  0  0  0  0  0  0
  193.7380  171.7870  136.6870 O   0  0  0  0  0  0  0  0  0  0  0  0
  195.2460  169.6070  138.0550 C   0  0  0  0  0  1  0  0  0  0  0  0
  195.9690  172.5140  136.6660 N   0  0  0  0  0  0  0  0  0  0  0  0
  197.9550  170.9230  137.2220 C   0  0  0  0  0  2  0  0  0  0  0  0
  197.5820  169.4800  137.2710 C   0  0  0  0  0  2  0  0  0  0  0  0
  196.2010  169.9050  136.9070 C   0  0  2  0  0  3  0  0  0  0  0  0
  196.5550  171.3780  136.8790 C   0  0  0  0  0  0  0  0  0  0  0  0
  189.4920  178.0770  137.0310 N   0  0  0  0  0  2  0  0  0  0  0  0
  188.0480  178.2450  136.9350 C   0  0  0  0  0  2  0  0  0  0  0  0
  187.4310  177.0880  136.1580 C   0  0  0  0  0  2  0  0  0  0  0  0
  185.9540  175.4490  136.9980 O   0  0  0  0  0  0  0  0  0  0  0  0
  186.1460  176.6340  136.7780 C   0  0  0  0  0  0  0  0  0  0  0  0
  185.1230  177.6380  137.2070 C   0  0  0  0  0  2  0  0  0  0  0  0
  183.7200  177.0380  137.2220 C   0  0  2  0  0  3  0  0  0  0  0  0
  182.9450  175.8480  135.2930 O   0  0  0  0  0  1  0  0  0  0  0  0
  183.1530  177.1290  135.8080 C   0  0  0  0  0  2  0  0  0  0  0  0
  182.8300  177.7760  138.2380 C   0  0  2  0  0  3  0  0  0  0  0  0
  181.6990  175.8080  139.2960 O   0  0  0  0  0  0  0  0  0  0  0  0
  183.0520  177.1760  140.5350 O   0  0  0  0  0  1  0  0  0  0  0  0
  182.5350  176.9100  139.4210 C   0  0  0  0  0  0  0  0  0  0  0  0
  181.5130  178.2440  137.6230 C   0  0  0  0  0  2  0  0  0  0  0  0
  181.3890  179.7480  137.7680 C   0  0  0  0  0  2  0  0  0  0  0  0
  180.9760  180.3020  136.5560 O   0  0  0  0  0  1  0  0  0  0  0  0
  189.1740  177.2090  140.8260 S   0  0  0  0  0  0  0  0  0  0  0  0
  187.9570  178.5470  140.6510 C   0  0  0  0  0  2  0  0  0  0  0  0
  185.2960  179.5520  140.7840 O   0  0  0  0  0  0  0  0  0  0  0  0
  185.8050  179.1100  141.8460 C   0  0  0  0  0  0  0  0  0  0  0  0
  187.1540  178.6440  141.8600 N   0  0  0  0  0  2  0  0  0  0  0  0
  185.0240  179.1190  143.1160 C   0  0  0  0  0  2  0  0  0  0  0  0
  185.6620  178.3130  144.1010 O   0  0  0  0  0  0  0  0  0  0  0  0
  184.6310  178.9400  146.0730 O   0  0  0  0  0  0  0  0  0  0  0  0
  185.6960  178.6760  145.4510 C   0  0  0  0  0  0  0  0  0  0  0  0
  186.8250  179.3300  147.4300 F   0  0  0  0  0  0  0  0  0  0  0  0
  187.0040  178.8030  146.1570 C   0  0  1  0  0  3  0  0  0  0  0  0
  187.7400  177.4580  146.2150 C   0  0  1  0  0  3  0  0  0  0  0  0
  192.0320  176.7480  146.1620 C   0  0  1  0  0  3  0  0  0  0  0  0
  189.8080  176.4190  147.4450 C   0  0  0  0  0  2  0  0  0  0  0  0
  190.8170  177.6870  144.0020 C   0  0  0  0  0  2  0  0  0  0  0  0
  189.6390  178.1260  144.8020 C   0  0  0  0  0  2  0  0  0  0  0  0
  188.6400  177.2730  145.0320 C   0  0  0  0  0  2  0  0  0  0  0  0
  188.5080  177.2460  147.5560 C   0  0  2  0  0  3  0  0  0  0  0  0
  191.5410  176.5080  144.7050 C   0  0  2  0  0  3  0  0  0  0  0  0
  191.6210  177.7050  148.3390 O   0  0  0  0  0  1  0  0  0  0  0  0
  191.0000  177.3350  147.1490 C   0  0  1  0  0  3  0  0  0  0  0  0
  187.2670  175.2610  148.4940 N   0  0  0  0  0  1  0  0  0  0  0  0
  187.6180  176.6360  148.5900 C   0  0  0  0  0  0  0  0  0  0  0  0
  187.1490  177.3370  149.5250 O   0  0  0  0  0  0  0  0  0  0  0  0
  192.9280  175.8840  147.9990 C   0  0  0  0  0  1  0  0  0  0  0  0
  192.5820  175.5730  146.6840 O   0  0  0  0  0  0  0  0  0  0  0  0
  190.6940  175.0770  143.2360 C   0  0  0  0  0  1  0  0  0  0  0  0
  190.7960  175.3240  144.6080 O   0  0  0  0  0  0  0  0  0  0  0  0
  1  2  1  1  0  0  0
  1 35  1  0  0  0  0
  2  3  1  0  0  0  0
  4 19  1  6  0  0  0
  4  1  1  0  0  0  0
  6  4  1  0  0  0  0
  6  5  1  6  0  0  0
  7  6  1  0  0  0  0
  8  9  1  0  0  0  0
  8  7  1  0  0  0  0
 10  9  1  0  0  0  0
 10 11  1  0  0  0  0
 11 14  1  0  0  0  0
 11 12  2  0  0  0  0
 14 18  2  0  0  0  0
 15 16  1  0  0  0  0
 17 16  1  0  0  0  0
 17 13  1  1  0  0  0
 18 17  1  0  0  0  0
 18 15  1  0  0  0  0
 20 19  1  0  0  0  0
 21 23  1  0  0  0  0
 21 20  1  0  0  0  0
 23 22  2  0  0  0  0
 23 24  1  0  0  0  0
 24 25  1  0  0  0  0
 25 27  1  6  0  0  0
 25 28  1  0  0  0  0
 26 27  1  0  0  0  0
 28 32  1  6  0  0  0
 28 31  1  0  0  0  0
 29 31  2  0  0  0  0
 31 30  1  0  0  0  0
 32 33  1  0  0  0  0
 34 33  1  0  0  0  0
 36 35  1  0  0  0  0
 36 39  1  0  0  0  0
 37 38  2  0  0  0  0
 38 39  1  0  0  0  0
 38 40  1  0  0  0  0
 40 41  1  0  0  0  0
 41 43  1  0  0  0  0
 43 42  2  0  0  0  0
 43 45  1  0  0  0  0
 45 44  1  1  0  0  0
 46 45  1  1  0  0  0
 46 52  1  0  0  0  0
 47 60  1  1  0  0  0
 47 55  1  0  0  0  0
 48 52  1  0  0  0  0
 49 53  1  0  0  0  0
 49 50  1  0  0  0  0
 50 51  1  0  0  0  0
 51 46  1  0  0  0  0
 52 57  1  1  0  0  0
 53 62  1  1  0  0  0
 53 47  1  0  0  0  0
 55 48  1  0  0  0  0
 55 54  1  1  0  0  0
 56 57  1  0  0  0  0
 57 58  2  0  0  0  0
 60 59  1  0  0  0  0
 61 62  1  0  0  0  0
M  END
>  <MODEL>
4

>  <REMARK>
 VINA RESULT:      -4.1      2.918      8.959
  Name = 
  31 active torsions:
  status: ('A' for Active; 'I' for Inactive)
    1  A    between atoms: C_1  and  C_42
    2  A    between atoms: C_4  and  C_48
    3  A    between atoms: C_6  and  C_25
    4  A    between atoms: C_6  and  C_46
    5  A    between atoms: C_6  and  C_49
    6  A    between atoms: N_7  and  C_28
    7  A    between atoms: C_9  and  C_26
    8  A    between atoms: C_9  and  C_28
    9  A    between atoms: C_14  and  C_47
   10  A    between atoms: C_16  and  C_41
   11  A    between atoms: C_17  and  O_62
   12  A    between atoms: C_23  and  C_25
   13  A    between atoms: C_23  and  C_56
   14  A    between atoms: O_24  and  C_43
   15  A    between atoms: C_26  and  C_32
   16  A    between atoms: C_30  and  S_53
   17  A    between atoms: C_30  and  N_55
   18  A    between atoms: O_31  and  C_47
   19  A    between atoms: O_31  and  C_60
   20  A    between atoms: C_32  and  C_54
   21  A    between atoms: C_36  and  C_59
   22  A    between atoms: C_42  and  C_60
   23  A    between atoms: C_44  and  N_45
   24  A    between atoms: C_44  and  C_56
   25  A    between atoms: N_45  and  C_58
   26  A    between atoms: C_48  and  S_53
   27  A    between atoms: C_48  and  C_58
   28  A    between atoms: C_49  and  C_59
   29  A    between atoms: C_49  and  C_61
   30  A    between atoms: C_50  and  C_54
   31  A    between atoms: C_50  and  C_58
                            x       y       z     vdW  Elec       q    Type
                         _______ _______ _______ _____ _____    ______ ____

>  <TORSDO>
F 31

$$$$
=
 OpenBabel10232410093D

 62 63  0  0  1  0  0  0  0  0999 V2000
  187.5440  178.0110  137.4080 C   0  0  1  0  0  3  0  0  0  0  0  0
  188.8400  178.5780  137.9650 C   0  0  0  0  0  2  0  0  0  0  0  0
  189.6390  179.0470  136.9190 O   0  0  0  0  0  1  0  0  0  0  0  0
  187.8060  177.3590  136.0470 C   0  0  2  0  0  3  0  0  0  0  0  0
  186.5560  178.6100  134.3470 N   0  0  0  0  0  1  0  0  0  0  0  0
  186.5350  177.4260  135.1890 C   0  0  1  0  0  3  0  0  0  0  0  0
  186.3450  176.1670  134.3460 C   0  0  0  0  0  2  0  0  0  0  0  0
  185.0510  175.4520  134.7010 C   0  0  0  0  0  2  0  0  0  0  0  0
  183.9960  176.4560  135.1320 C   0  0  0  0  0  2  0  0  0  0  0  0
  182.6380  176.0540  134.5840 C   0  0  0  0  0  2  0  0  0  0  0  0
  181.5270  176.4800  135.4860 C   0  0  0  0  0  0  0  0  0  0  0  0
  181.0710  175.6790  136.3470 O   0  0  0  0  0  0  0  0  0  0  0  0
  181.1920  178.1920  138.5920 C   0  0  0  0  0  1  0  0  0  0  0  0
  180.9660  177.7880  135.3230 N   0  0  0  0  0  0  0  0  0  0  0  0
  180.6970  180.2050  136.2550 C   0  0  0  0  0  2  0  0  0  0  0  0
  181.3690  180.4280  137.5670 C   0  0  0  0  0  2  0  0  0  0  0  0
  181.8320  179.0150  137.4830 C   0  0  2  0  0  3  0  0  0  0  0  0
  181.1320  178.7610  136.1620 C   0  0  0  0  0  0  0  0  0  0  0  0
  188.2510  175.9750  136.1980 N   0  0  0  0  0  2  0  0  0  0  0  0
  189.5430  175.8480  135.5380 C   0  0  0  0  0  2  0  0  0  0  0  0
  189.9460  174.3820  135.4400 C   0  0  0  0  0  2  0  0  0  0  0  0
  190.2890  173.8130  137.7060 O   0  0  0  0  0  0  0  0  0  0  0  0
  190.7910  173.9660  136.6040 C   0  0  0  0  0  0  0  0  0  0  0  0
  192.2410  173.6560  136.4060 C   0  0  0  0  0  2  0  0  0  0  0  0
  193.1300  174.5680  137.2460 C   0  0  2  0  0  3  0  0  0  0  0  0
  192.3920  176.8250  137.5630 O   0  0  0  0  0  1  0  0  0  0  0  0
  193.0430  175.9760  136.6650 C   0  0  0  0  0  2  0  0  0  0  0  0
  194.5790  174.0480  137.2560 C   0  0  2  0  0  3  0  0  0  0  0  0
  195.0330  175.5260  139.2260 O   0  0  0  0  0  1  0  0  0  0  0  0
  195.9730  173.4430  139.0940 O   0  0  0  0  0  0  0  0  0  0  0  0
  195.2360  174.3180  138.5720 C   0  0  0  0  0  0  0  0  0  0  0  0
  195.4230  174.6630  136.1430 C   0  0  0  0  0  2  0  0  0  0  0  0
  196.2570  173.5840  135.4800 C   0  0  0  0  0  2  0  0  0  0  0  0
  197.6000  173.7620  135.8120 O   0  0  0  0  0  1  0  0  0  0  0  0
  186.8360  176.8480  138.6200 S   0  0  0  0  0  0  0  0  0  0  0  0
  185.2200  177.6780  138.5790 C   0  0  0  0  0  2  0  0  0  0  0  0
  184.4170  180.0750  139.8890 O   0  0  0  0  0  0  0  0  0  0  0  0
  184.2420  178.9900  140.5010 C   0  0  0  0  0  0  0  0  0  0  0  0
  184.6740  177.7590  139.9240 N   0  0  0  0  0  2  0  0  0  0  0  0
  183.6330  178.9840  141.8620 C   0  0  0  0  0  2  0  0  0  0  0  0
  184.6280  179.2050  142.8560 O   0  0  0  0  0  0  0  0  0  0  0  0
  183.3280  178.3820  144.5810 O   0  0  0  0  0  0  0  0  0  0  0  0
  184.4270  178.8680  144.1980 C   0  0  0  0  0  0  0  0  0  0  0  0
  184.9460  179.4260  146.4420 F   0  0  0  0  0  0  0  0  0  0  0  0
  185.4980  179.1310  145.2020 C   0  0  1  0  0  3  0  0  0  0  0  0
  186.4740  177.9520  145.2970 C   0  0  1  0  0  3  0  0  0  0  0  0
  190.4850  177.6520  143.6360 C   0  0  1  0  0  3  0  0  0  0  0  0
  189.0230  177.5650  145.7710 C   0  0  0  0  0  2  0  0  0  0  0  0
  188.3830  177.7160  142.0230 C   0  0  0  0  0  2  0  0  0  0  0  0
  187.5210  178.2860  143.0970 C   0  0  0  0  0  2  0  0  0  0  0  0
  186.8880  177.4690  143.9410 C   0  0  0  0  0  2  0  0  0  0  0  0
  187.7120  178.2620  146.1950 C   0  0  2  0  0  3  0  0  0  0  0  0
  189.5520  176.9030  142.6400 C   0  0  2  0  0  3  0  0  0  0  0  0
  190.7150  179.2310  145.4470 O   0  0  0  0  0  1  0  0  0  0  0  0
  189.7910  178.4360  144.7720 C   0  0  1  0  0  3  0  0  0  0  0  0
  188.4900  177.5770  148.4950 N   0  0  0  0  0  1  0  0  0  0  0  0
  187.4240  177.9500  147.6280 C   0  0  0  0  0  0  0  0  0  0  0  0
  186.2430  177.9790  148.0660 O   0  0  0  0  0  0  0  0  0  0  0  0
  191.6920  177.2440  145.4520 C   0  0  0  0  0  1  0  0  0  0  0  0
  191.4290  176.7690  144.1680 O   0  0  0  0  0  0  0  0  0  0  0  0
  190.1060  174.7690  142.8850 C   0  0  0  0  0  1  0  0  0  0  0  0
  189.0990  175.6910  143.1810 O   0  0  0  0  0  0  0  0  0  0  0  0
  1  2  1  1  0  0  0
  1 35  1  0  0  0  0
  3  2  1  0  0  0  0
  4 19  1  1  0  0  0
  4  1  1  0  0  0  0
  6  5  1  6  0  0  0
  6  4  1  0  0  0  0
  7  8  1  0  0  0  0
  7  6  1  0  0  0  0
  8  9  1  0  0  0  0
 10  9  1  0  0  0  0
 10 11  1  0  0  0  0
 11 12  2  0  0  0  0
 14 11  1  0  0  0  0
 14 18  2  0  0  0  0
 15 16  1  0  0  0  0
 17 16  1  0  0  0  0
 17 13  1  1  0  0  0
 18 15  1  0  0  0  0
 18 17  1  0  0  0  0
 20 19  1  0  0  0  0
 21 20  1  0  0  0  0
 21 23  1  0  0  0  0
 23 22  2  0  0  0  0
 24 23  1  0  0  0  0
 25 24  1  6  0  0  0
 25 28  1  0  0  0  0
 27 25  1  0  0  0  0
 27 26  1  0  0  0  0
 28 32  1  6  0  0  0
 28 31  1  0  0  0  0
 31 30  2  0  0  0  0
 31 29  1  0  0  0  0
 33 34  1  0  0  0  0
 33 32  1  0  0  0  0
 36 35  1  0  0  0  0
 36 39  1  0  0  0  0
 37 38  2  0  0  0  0
 38 40  1  0  0  0  0
 39 38  1  0  0  0  0
 40 41  1  0  0  0  0
 41 43  1  0  0  0  0
 43 42  2  0  0  0  0
 43 45  1  0  0  0  0
 45 44  1  1  0  0  0
 46 45  1  6  0  0  0
 46 52  1  0  0  0  0
 47 60  1  1  0  0  0
 47 55  1  0  0  0  0
 48 52  1  0  0  0  0
 49 53  1  0  0  0  0
 49 50  1  0  0  0  0
 50 51  1  0  0  0  0
 51 46  1  0  0  0  0
 52 57  1  1  0  0  0
 53 62  1  1  0  0  0
 53 47  1  0  0  0  0
 55 54  1  1  0  0  0
 55 48  1  0  0  0  0
 57 58  2  0  0  0  0
 57 56  1  0  0  0  0
 60 59  1  0  0  0  0
 61 62  1  0  0  0  0
M  END
>  <MODEL>
5

>  <REMARK>
 VINA RESULT:      -4.0      2.924     10.952
  Name = 
  31 active torsions:
  status: ('A' for Active; 'I' for Inactive)
    1  A    between atoms: C_1  and  C_42
    2  A    between atoms: C_4  and  C_48
    3  A    between atoms: C_6  and  C_25
    4  A    between atoms: C_6  and  C_46
    5  A    between atoms: C_6  and  C_49
    6  A    between atoms: N_7  and  C_28
    7  A    between atoms: C_9  and  C_26
    8  A    between atoms: C_9  and  C_28
    9  A    between atoms: C_14  and  C_47
   10  A    between atoms: C_16  and  C_41
   11  A    between atoms: C_17  and  O_62
   12  A    between atoms: C_23  and  C_25
   13  A    between atoms: C_23  and  C_56
   14  A    between atoms: O_24  and  C_43
   15  A    between atoms: C_26  and  C_32
   16  A    between atoms: C_30  and  S_53
   17  A    between atoms: C_30  and  N_55
   18  A    between atoms: O_31  and  C_47
   19  A    between atoms: O_31  and  C_60
   20  A    between atoms: C_32  and  C_54
   21  A    between atoms: C_36  and  C_59
   22  A    between atoms: C_42  and  C_60
   23  A    between atoms: C_44  and  N_45
   24  A    between atoms: C_44  and  C_56
   25  A    between atoms: N_45  and  C_58
   26  A    between atoms: C_48  and  S_53
   27  A    between atoms: C_48  and  C_58
   28  A    between atoms: C_49  and  C_59
   29  A    between atoms: C_49  and  C_61
   30  A    between atoms: C_50  and  C_54
   31  A    between atoms: C_50  and  C_58
                            x       y       z     vdW  Elec       q    Type
                         _______ _______ _______ _____ _____    ______ ____

>  <TORSDO>
F 31

$$$$
=
 OpenBabel10232410093D

 62 63  0  0  1  0  0  0  0  0999 V2000
  188.1980  175.6600  136.8640 C   0  0  1  0  0  3  0  0  0  0  0  0
  186.9880  175.0890  137.5870 C   0  0  0  0  0  2  0  0  0  0  0  0
  186.1950  174.3730  136.6860 O   0  0  0  0  0  1  0  0  0  0  0  0
  188.4980  177.0680  137.3880 C   0  0  2  0  0  3  0  0  0  0  0  0
  187.6490  177.9480  135.2620 N   0  0  0  0  0  1  0  0  0  0  0  0
  187.5690  178.0810  136.7070 C   0  0  1  0  0  3  0  0  0  0  0  0
  186.1240  177.9440  137.1820 C   0  0  0  0  0  2  0  0  0  0  0  0
  185.9330  178.5560  138.5600 C   0  0  0  0  0  2  0  0  0  0  0  0
  184.5150  178.3200  139.0500 C   0  0  0  0  0  2  0  0  0  0  0  0
  183.9270  179.6120  139.5890 C   0  0  0  0  0  2  0  0  0  0  0  0
  182.6410  179.9610  138.9150 C   0  0  0  0  0  0  0  0  0  0  0  0
  182.5430  181.0320  138.2570 O   0  0  0  0  0  0  0  0  0  0  0  0
  182.0610  177.9990  135.9980 C   0  0  0  0  0  1  0  0  0  0  0  0
  181.5190  179.0840  139.0700 N   0  0  0  0  0  0  0  0  0  0  0  0
  180.3150  176.8910  138.3410 C   0  0  0  0  0  2  0  0  0  0  0  0
  181.0100  176.1510  137.2490 C   0  0  0  0  0  2  0  0  0  0  0  0
  182.0560  177.2120  137.3010 C   0  0  2  0  0  3  0  0  0  0  0  0
  181.3490  177.9930  138.3910 C   0  0  0  0  0  0  0  0  0  0  0  0
  189.8980  177.4280  137.1700 N   0  0  0  0  0  2  0  0  0  0  0  0
  190.5250  177.5900  138.4740 C   0  0  0  0  0  2  0  0  0  0  0  0
  189.7920  176.7610  139.5210 C   0  0  0  0  0  2  0  0  0  0  0  0
  190.8250  177.8580  141.3390 O   0  0  0  0  0  0  0  0  0  0  0  0
  189.7850  177.4430  140.8550 C   0  0  0  0  0  0  0  0  0  0  0  0
  188.4920  177.6930  141.5640 C   0  0  0  0  0  2  0  0  0  0  0  0
  188.6910  177.8050  143.0730 C   0  0  2  0  0  3  0  0  0  0  0  0
  188.0750  175.4980  143.2480 O   0  0  0  0  0  1  0  0  0  0  0  0
  189.0580  176.4230  143.6040 C   0  0  0  0  0  2  0  0  0  0  0  0
  187.4190  178.3510  143.7450 C   0  0  2  0  0  3  0  0  0  0  0  0
  188.4280  178.1500  146.0280 O   0  0  0  0  0  1  0  0  0  0  0  0
  186.3060  177.3950  145.6240 O   0  0  0  0  0  0  0  0  0  0  0  0
  187.3500  177.9360  145.1790 C   0  0  0  0  0  0  0  0  0  0  0  0
  186.1470  177.8980  143.0330 C   0  0  0  0  0  2  0  0  0  0  0  0
  185.0040  178.8270  143.3890 C   0  0  0  0  0  2  0  0  0  0  0  0
  183.8010  178.1210  143.3590 O   0  0  0  0  0  1  0  0  0  0  0  0
  189.6050  174.5180  137.0700 S   0  0  0  0  0  0  0  0  0  0  0  0
  190.4900  175.2430  135.6580 C   0  0  0  0  0  2  0  0  0  0  0  0
  193.1490  175.8790  134.8620 O   0  0  0  0  0  0  0  0  0  0  0  0
  192.8010  174.6710  134.8170 C   0  0  0  0  0  0  0  0  0  0  0  0
  191.4660  174.2920  135.1500 N   0  0  0  0  0  2  0  0  0  0  0  0
  193.7640  173.6270  134.3630 C   0  0  0  0  0  2  0  0  0  0  0  0
  195.0470  173.8470  134.9380 O   0  0  0  0  0  0  0  0  0  0  0  0
  195.6460  175.8070  136.0070 O   0  0  0  0  0  0  0  0  0  0  0  0
  195.2240  174.6210  136.0890 C   0  0  0  0  0  0  0  0  0  0  0  0
  193.7810  173.3040  137.4300 F   0  0  0  0  0  0  0  0  0  0  0  0
  194.9640  174.0300  137.4330 C   0  0  1  0  0  3  0  0  0  0  0  0
  196.1420  173.1650  137.8990 C   0  0  1  0  0  3  0  0  0  0  0  0
  198.6710  170.5630  135.4970 C   0  0  1  0  0  3  0  0  0  0  0  0
  198.5730  172.5900  137.1050 C   0  0  0  0  0  2  0  0  0  0  0  0
  196.1240  169.9440  135.8890 C   0  0  0  0  0  2  0  0  0  0  0  0
  195.7990  171.3440  136.2820 C   0  0  0  0  0  2  0  0  0  0  0  0
  195.9350  171.7220  137.5540 C   0  0  0  0  0  2  0  0  0  0  0  0
  197.5180  173.6850  137.3780 C   0  0  2  0  0  3  0  0  0  0  0  0
  197.6190  169.6340  136.1700 C   0  0  2  0  0  3  0  0  0  0  0  0
  199.3250  172.7910  134.8380 O   0  0  0  0  0  1  0  0  0  0  0  0
  198.4540  172.0830  135.6640 C   0  0  1  0  0  3  0  0  0  0  0  0
  197.3190  175.1600  139.4140 N   0  0  0  0  0  1  0  0  0  0  0  0
  198.0900  174.7050  138.3080 C   0  0  0  0  0  0  0  0  0  0  0  0
  199.2330  175.1910  138.1010 O   0  0  0  0  0  0  0  0  0  0  0  0
  200.2220  168.9890  135.3000 C   0  0  0  0  0  1  0  0  0  0  0  0
  199.9590  170.2120  135.9140 O   0  0  0  0  0  0  0  0  0  0  0  0
  197.3410  168.2520  137.8830 C   0  0  0  0  0  1  0  0  0  0  0  0
  197.8610  169.5050  137.5460 O   0  0  0  0  0  0  0  0  0  0  0  0
  1 35  1  0  0  0  0
  1  4  1  0  0  0  0
  1  2  1  1  0  0  0
  3  2  1  0  0  0  0
  4 19  1  6  0  0  0
  6  5  1  6  0  0  0
  6  7  1  0  0  0  0
  6  4  1  0  0  0  0
  7  8  1  0  0  0  0
  8  9  1  0  0  0  0
  9 10  1  0  0  0  0
 11 14  1  0  0  0  0
 11 10  1  0  0  0  0
 12 11  2  0  0  0  0
 15 18  1  0  0  0  0
 16 17  1  0  0  0  0
 16 15  1  0  0  0  0
 17 13  1  6  0  0  0
 17 18  1  0  0  0  0
 18 14  2  0  0  0  0
 19 20  1  0  0  0  0
 20 21  1  0  0  0  0
 21 23  1  0  0  0  0
 23 22  2  0  0  0  0
 23 24  1  0  0  0  0
 25 24  1  6  0  0  0
 25 27  1  0  0  0  0
 25 28  1  0  0  0  0
 26 27  1  0  0  0  0
 28 32  1  6  0  0  0
 28 31  1  0  0  0  0
 31 30  2  0  0  0  0
 31 29  1  0  0  0  0
 32 33  1  0  0  0  0
 34 33  1  0  0  0  0
 36 35  1  0  0  0  0
 38 37  2  0  0  0  0
 38 39  1  0  0  0  0
 39 36  1  0  0  0  0
 40 38  1  0  0  0  0
 40 41  1  0  0  0  0
 41 43  1  0  0  0  0
 42 43  2  0  0  0  0
 43 45  1  0  0  0  0
 45 44  1  6  0  0  0
 46 45  1  6  0  0  0
 47 55  1  0  0  0  0
 47 60  1  1  0  0  0
 47 53  1  0  0  0  0
 48 52  1  0  0  0  0
 49 53  1  0  0  0  0
 49 50  1  0  0  0  0
 50 51  1  0  0  0  0
 51 46  1  0  0  0  0
 52 46  1  0  0  0  0
 52 57  1  1  0  0  0
 53 62  1  1  0  0  0
 55 54  1  6  0  0  0
 55 48  1  0  0  0  0
 57 56  1  0  0  0  0
 58 57  2  0  0  0  0
 59 60  1  0  0  0  0
 62 61  1  0  0  0  0
M  END
>  <MODEL>
6

>  <REMARK>
 VINA RESULT:      -3.9      2.763     12.252
  Name = 
  31 active torsions:
  status: ('A' for Active; 'I' for Inactive)
    1  A    between atoms: C_1  and  C_42
    2  A    between atoms: C_4  and  C_48
    3  A    between atoms: C_6  and  C_25
    4  A    between atoms: C_6  and  C_46
    5  A    between atoms: C_6  and  C_49
    6  A    between atoms: N_7  and  C_28
    7  A    between atoms: C_9  and  C_26
    8  A    between atoms: C_9  and  C_28
    9  A    between atoms: C_14  and  C_47
   10  A    between atoms: C_16  and  C_41
   11  A    between atoms: C_17  and  O_62
   12  A    between atoms: C_23  and  C_25
   13  A    between atoms: C_23  and  C_56
   14  A    between atoms: O_24  and  C_43
   15  A    between atoms: C_26  and  C_32
   16  A    between atoms: C_30  and  S_53
   17  A    between atoms: C_30  and  N_55
   18  A    between atoms: O_31  and  C_47
   19  A    between atoms: O_31  and  C_60
   20  A    between atoms: C_32  and  C_54
   21  A    between atoms: C_36  and  C_59
   22  A    between atoms: C_42  and  C_60
   23  A    between atoms: C_44  and  N_45
   24  A    between atoms: C_44  and  C_56
   25  A    between atoms: N_45  and  C_58
   26  A    between atoms: C_48  and  S_53
   27  A    between atoms: C_48  and  C_58
   28  A    between atoms: C_49  and  C_59
   29  A    between atoms: C_49  and  C_61
   30  A    between atoms: C_50  and  C_54
   31  A    between atoms: C_50  and  C_58
                            x       y       z     vdW  Elec       q    Type
                         _______ _______ _______ _____ _____    ______ ____

>  <TORSDO>
F 31

$$$$
=
 OpenBabel10232410093D

 62 63  0  0  1  0  0  0  0  0999 V2000
  189.9130  177.5490  139.6520 C   0  0  1  0  0  3  0  0  0  0  0  0
  191.3300  177.0110  139.7650 C   0  0  0  0  0  2  0  0  0  0  0  0
  191.8870  177.4000  140.9860 O   0  0  0  0  0  1  0  0  0  0  0  0
  189.2570  177.0190  138.3740 C   0  0  2  0  0  3  0  0  0  0  0  0
  189.3800  174.6800  137.6470 N   0  0  0  0  0  1  0  0  0  0  0  0
  190.1330  175.9180  137.7630 C   0  0  1  0  0  3  0  0  0  0  0  0
  190.7090  176.3270  136.4080 C   0  0  0  0  0  2  0  0  0  0  0  0
  192.1910  176.0040  136.3160 C   0  0  0  0  0  2  0  0  0  0  0  0
  192.3890  174.5420  135.9540 C   0  0  0  0  0  2  0  0  0  0  0  0
  193.8190  174.3060  135.5010 C   0  0  0  0  0  2  0  0  0  0  0  0
  194.4400  173.1460  136.2060 C   0  0  0  0  0  0  0  0  0  0  0  0
  193.7270  172.1710  136.5690 O   0  0  0  0  0  0  0  0  0  0  0  0
  195.6520  170.0070  137.3770 C   0  0  0  0  0  1  0  0  0  0  0  0
  195.8420  173.1850  136.5000 N   0  0  0  0  0  0  0  0  0  0  0  0
  198.0790  171.8750  136.7610 C   0  0  0  0  0  2  0  0  0  0  0  0
  197.9470  170.4030  136.5650 C   0  0  0  0  0  2  0  0  0  0  0  0
  196.5030  170.6470  136.2900 C   0  0  2  0  0  3  0  0  0  0  0  0
  196.6120  172.1430  136.5120 C   0  0  0  0  0  0  0  0  0  0  0  0
  189.0330  178.0930  137.4070 N   0  0  0  0  0  2  0  0  0  0  0  0
  187.6020  178.1650  137.1430 C   0  0  0  0  0  2  0  0  0  0  0  0
  187.3420  178.2120  135.6430 C   0  0  0  0  0  2  0  0  0  0  0  0
  187.6830  176.2560  134.3640 O   0  0  0  0  0  0  0  0  0  0  0  0
  186.9400  176.8690  135.1130 C   0  0  0  0  0  0  0  0  0  0  0  0
  185.6620  176.2370  135.5630 C   0  0  0  0  0  2  0  0  0  0  0  0
  185.8930  174.8290  136.1070 C   0  0  2  0  0  3  0  0  0  0  0  0
  187.1850  172.8720  135.6240 O   0  0  0  0  0  1  0  0  0  0  0  0
  186.6730  174.0420  135.0590 C   0  0  0  0  0  2  0  0  0  0  0  0
  184.5500  174.1540  136.4400 C   0  0  2  0  0  3  0  0  0  0  0  0
  182.6330  175.6790  135.9170 O   0  0  0  0  0  0  0  0  0  0  0  0
  183.4710  175.5510  138.0430 O   0  0  0  0  0  1  0  0  0  0  0  0
  183.5270  175.1660  136.8480 C   0  0  0  0  0  0  0  0  0  0  0  0
  184.6850  173.1100  137.5450 C   0  0  0  0  0  2  0  0  0  0  0  0
  184.0380  171.8120  137.1030 C   0  0  0  0  0  2  0  0  0  0  0  0
  183.6810  171.9030  135.7560 O   0  0  0  0  0  1  0  0  0  0  0  0
  188.9870  177.0980  141.1570 S   0  0  0  0  0  0  0  0  0  0  0  0
  187.7430  178.3890  140.8630 C   0  0  0  0  0  2  0  0  0  0  0  0
  185.1190  179.4930  140.9320 O   0  0  0  0  0  0  0  0  0  0  0  0
  185.6130  179.0960  142.0200 C   0  0  0  0  0  0  0  0  0  0  0  0
  186.9440  178.5850  142.0630 N   0  0  0  0  0  2  0  0  0  0  0  0
  184.8330  179.2080  143.2850 C   0  0  0  0  0  2  0  0  0  0  0  0
  185.3680  178.3410  144.2800 O   0  0  0  0  0  0  0  0  0  0  0  0
  184.5750  179.0330  146.3380 O   0  0  0  0  0  0  0  0  0  0  0  0
  185.5600  178.7550  145.6020 C   0  0  0  0  0  0  0  0  0  0  0  0
  186.9130  179.5110  147.3950 F   0  0  0  0  0  0  0  0  0  0  0  0
  186.9420  178.9200  146.1390 C   0  0  1  0  0  3  0  0  0  0  0  0
  187.6900  177.5810  146.1750 C   0  0  1  0  0  3  0  0  0  0  0  0
  191.9890  176.9160  146.2850 C   0  0  1  0  0  3  0  0  0  0  0  0
  189.7140  176.5130  147.4530 C   0  0  0  0  0  2  0  0  0  0  0  0
  190.8600  177.9300  144.1130 C   0  0  0  0  0  2  0  0  0  0  0  0
  189.6420  178.3250  144.8770 C   0  0  0  0  0  2  0  0  0  0  0  0
  188.6440  177.4530  145.0260 C   0  0  0  0  0  2  0  0  0  0  0  0
  188.4000  177.3220  147.5390 C   0  0  2  0  0  3  0  0  0  0  0  0
  191.5650  176.7310  144.7990 C   0  0  2  0  0  3  0  0  0  0  0  0
  191.4710  177.7790  148.4790 O   0  0  0  0  0  1  0  0  0  0  0  0
  190.9070  177.4520  147.2480 C   0  0  1  0  0  3  0  0  0  0  0  0
  186.6880  177.4610  149.3850 N   0  0  0  0  0  1  0  0  0  0  0  0
  187.4730  176.6620  148.5070 C   0  0  0  0  0  0  0  0  0  0  0  0
  187.4070  175.4070  148.5770 O   0  0  0  0  0  0  0  0  0  0  0  0
  192.9020  176.0150  148.0950 C   0  0  0  0  0  1  0  0  0  0  0  0
  192.5290  175.7260  146.7830 O   0  0  0  0  0  0  0  0  0  0  0  0
  191.7780  174.6150  144.1660 C   0  0  0  0  0  1  0  0  0  0  0  0
  190.8380  175.5440  144.6210 O   0  0  0  0  0  0  0  0  0  0  0  0
  1  2  1  1  0  0  0
  1 35  1  0  0  0  0
  2  3  1  0  0  0  0
  4 19  1  6  0  0  0
  4  1  1  0  0  0  0
  6  5  1  6  0  0  0
  6  4  1  0  0  0  0
  7  6  1  0  0  0  0
  8  7  1  0  0  0  0
  9  8  1  0  0  0  0
 10  9  1  0  0  0  0
 10 11  1  0  0  0  0
 11 14  1  0  0  0  0
 11 12  2  0  0  0  0
 14 18  2  0  0  0  0
 16 15  1  0  0  0  0
 17 18  1  0  0  0  0
 17 16  1  0  0  0  0
 17 13  1  1  0  0  0
 18 15  1  0  0  0  0
 20 19  1  0  0  0  0
 21 20  1  0  0  0  0
 22 23  2  0  0  0  0
 23 24  1  0  0  0  0
 23 21  1  0  0  0  0
 24 25  1  0  0  0  0
 25 27  1  6  0  0  0
 25 28  1  0  0  0  0
 27 26  1  0  0  0  0
 28 31  1  0  0  0  0
 28 32  1  1  0  0  0
 29 31  2  0  0  0  0
 31 30  1  0  0  0  0
 33 32  1  0  0  0  0
 34 33  1  0  0  0  0
 36 35  1  0  0  0  0
 36 39  1  0  0  0  0
 37 38  2  0  0  0  0
 38 39  1  0  0  0  0
 38 40  1  0  0  0  0
 40 41  1  0  0  0  0
 41 43  1  0  0  0  0
 43 45  1  0  0  0  0
 43 42  2  0  0  0  0
 45 44  1  1  0  0  0
 46 45  1  1  0  0  0
 46 52  1  0  0  0  0
 47 60  1  1  0  0  0
 47 55  1  0  0  0  0
 48 52  1  0  0  0  0
 49 53  1  0  0  0  0
 49 50  1  0  0  0  0
 50 51  1  0  0  0  0
 51 46  1  0  0  0  0
 52 57  1  1  0  0  0
 53 62  1  1  0  0  0
 53 47  1  0  0  0  0
 55 48  1  0  0  0  0
 55 54  1  1  0  0  0
 57 58  2  0  0  0  0
 57 56  1  0  0  0  0
 60 59  1  0  0  0  0
 61 62  1  0  0  0  0
M  END
>  <MODEL>
7

>  <REMARK>
 VINA RESULT:      -3.6      3.183      9.114
  Name = 
  31 active torsions:
  status: ('A' for Active; 'I' for Inactive)
    1  A    between atoms: C_1  and  C_42
    2  A    between atoms: C_4  and  C_48
    3  A    between atoms: C_6  and  C_25
    4  A    between atoms: C_6  and  C_46
    5  A    between atoms: C_6  and  C_49
    6  A    between atoms: N_7  and  C_28
    7  A    between atoms: C_9  and  C_26
    8  A    between atoms: C_9  and  C_28
    9  A    between atoms: C_14  and  C_47
   10  A    between atoms: C_16  and  C_41
   11  A    between atoms: C_17  and  O_62
   12  A    between atoms: C_23  and  C_25
   13  A    between atoms: C_23  and  C_56
   14  A    between atoms: O_24  and  C_43
   15  A    between atoms: C_26  and  C_32
   16  A    between atoms: C_30  and  S_53
   17  A    between atoms: C_30  and  N_55
   18  A    between atoms: O_31  and  C_47
   19  A    between atoms: O_31  and  C_60
   20  A    between atoms: C_32  and  C_54
   21  A    between atoms: C_36  and  C_59
   22  A    between atoms: C_42  and  C_60
   23  A    between atoms: C_44  and  N_45
   24  A    between atoms: C_44  and  C_56
   25  A    between atoms: N_45  and  C_58
   26  A    between atoms: C_48  and  S_53
   27  A    between atoms: C_48  and  C_58
   28  A    between atoms: C_49  and  C_59
   29  A    between atoms: C_49  and  C_61
   30  A    between atoms: C_50  and  C_54
   31  A    between atoms: C_50  and  C_58
                            x       y       z     vdW  Elec       q    Type
                         _______ _______ _______ _____ _____    ______ ____

>  <TORSDO>
F 31

$$$$
=
 OpenBabel10232410093D

 62 63  0  0  1  0  0  0  0  0999 V2000
  190.5670  177.2630  138.3740 C   0  0  1  0  0  3  0  0  0  0  0  0
  191.6030  176.2740  138.8840 C   0  0  0  0  0  2  0  0  0  0  0  0
  192.7900  176.9480  139.1870 O   0  0  0  0  0  1  0  0  0  0  0  0
  190.1330  176.8750  136.9570 C   0  0  2  0  0  3  0  0  0  0  0  0
  188.1970  175.6630  137.8500 N   0  0  0  0  0  1  0  0  0  0  0  0
  189.3680  175.5460  136.9980 C   0  0  1  0  0  3  0  0  0  0  0  0
  188.9730  175.0680  135.6020 C   0  0  0  0  0  2  0  0  0  0  0  0
  187.4670  175.1210  135.4020 C   0  0  0  0  0  2  0  0  0  0  0  0
  187.0500  176.4960  134.9100 C   0  0  0  0  0  2  0  0  0  0  0  0
  185.5480  176.5370  134.6890 C   0  0  0  0  0  2  0  0  0  0  0  0
  184.8250  175.6150  135.6140 C   0  0  0  0  0  0  0  0  0  0  0  0
  184.7540  175.8830  136.8450 O   0  0  0  0  0  0  0  0  0  0  0  0
  185.5110  172.7980  137.6850 C   0  0  0  0  0  1  0  0  0  0  0  0
  184.2600  174.4090  135.0880 N   0  0  0  0  0  0  0  0  0  0  0  0
  183.3740  172.0020  135.5500 C   0  0  0  0  0  2  0  0  0  0  0  0
  183.4910  171.5750  136.9730 C   0  0  0  0  0  2  0  0  0  0  0  0
  184.0580  172.9250  137.2510 C   0  0  2  0  0  3  0  0  0  0  0  0
  183.9720  173.3670  135.8040 C   0  0  0  0  0  0  0  0  0  0  0  0
  191.2820  176.7790  136.0580 N   0  0  0  0  0  2  0  0  0  0  0  0
  191.7060  175.3860  136.0230 C   0  0  0  0  0  2  0  0  0  0  0  0
  192.5530  175.1210  134.7850 C   0  0  0  0  0  2  0  0  0  0  0  0
  192.7690  172.7750  134.9480 O   0  0  0  0  0  0  0  0  0  0  0  0
  193.3400  173.8540  134.9200 C   0  0  0  0  0  0  0  0  0  0  0  0
  194.8350  173.8960  134.9400 C   0  0  0  0  0  2  0  0  0  0  0  0
  195.3580  174.7120  136.1190 C   0  0  2  0  0  3  0  0  0  0  0  0
  195.6280  176.9800  135.4000 O   0  0  0  0  0  1  0  0  0  0  0  0
  196.3080  175.7730  135.5730 C   0  0  0  0  0  2  0  0  0  0  0  0
  196.0570  173.7960  137.1400 C   0  0  2  0  0  3  0  0  0  0  0  0
  194.7720  175.1160  138.8350 O   0  0  0  0  0  0  0  0  0  0  0  0
  196.6410  173.9460  139.4470 O   0  0  0  0  0  1  0  0  0  0  0  0
  195.8460  174.2880  138.5350 C   0  0  0  0  0  0  0  0  0  0  0  0
  197.5560  173.6730  136.8760 C   0  0  0  0  0  2  0  0  0  0  0  0
  197.8590  172.3110  136.2820 C   0  0  0  0  0  2  0  0  0  0  0  0
  198.7470  171.6270  137.1120 O   0  0  0  0  0  1  0  0  0  0  0  0
  189.1710  177.3160  139.5470 S   0  0  0  0  0  0  0  0  0  0  0  0
  190.2380  176.8550  140.9450 C   0  0  0  0  0  2  0  0  0  0  0  0
  188.6190  175.9120  143.0890 O   0  0  0  0  0  0  0  0  0  0  0  0
  189.0950  177.0730  143.1850 C   0  0  0  0  0  0  0  0  0  0  0  0
  189.8680  177.6260  142.1210 N   0  0  0  0  0  2  0  0  0  0  0  0
  188.8100  177.9060  144.3890 C   0  0  0  0  0  2  0  0  0  0  0  0
  187.4900  177.6620  144.8640 O   0  0  0  0  0  0  0  0  0  0  0  0
  185.8680  179.3060  144.9680 O   0  0  0  0  0  0  0  0  0  0  0  0
  186.3770  178.3330  144.3470 C   0  0  0  0  0  0  0  0  0  0  0  0
  185.1740  176.6150  143.2440 F   0  0  0  0  0  0  0  0  0  0  0  0
  185.7490  177.8680  143.0770 C   0  0  1  0  0  3  0  0  0  0  0  0
  184.7220  178.8830  142.5590 C   0  0  1  0  0  3  0  0  0  0  0  0
  182.1650  178.5570  139.0530 C   0  0  1  0  0  3  0  0  0  0  0  0
  182.2740  178.8730  141.6200 C   0  0  0  0  0  2  0  0  0  0  0  0
  184.7860  178.8140  138.7630 C   0  0  0  0  0  2  0  0  0  0  0  0
  185.0280  178.3860  140.1700 C   0  0  0  0  0  2  0  0  0  0  0  0
  185.0160  179.2930  141.1480 C   0  0  0  0  0  2  0  0  0  0  0  0
  183.2510  178.3880  142.7150 C   0  0  2  0  0  3  0  0  0  0  0  0
  183.3720  179.4380  138.6210 C   0  0  2  0  0  3  0  0  0  0  0  0
  181.2330  176.9660  140.6110 O   0  0  0  0  0  1  0  0  0  0  0  0
  182.2600  177.8920  140.4440 C   0  0  1  0  0  3  0  0  0  0  0  0
  183.3770  179.7140  144.8560 N   0  0  0  0  0  1  0  0  0  0  0  0
  182.7060  178.7440  144.0600 C   0  0  0  0  0  0  0  0  0  0  0  0
  181.6800  178.1690  144.5090 O   0  0  0  0  0  0  0  0  0  0  0  0
  180.0060  178.3520  138.5860 C   0  0  0  0  0  1  0  0  0  0  0  0
  180.9760  179.2850  138.9490 O   0  0  0  0  0  0  0  0  0  0  0  0
  182.5090  181.4660  138.3640 C   0  0  0  0  0  1  0  0  0  0  0  0
  183.3150  180.7070  139.2170 O   0  0  0  0  0  0  0  0  0  0  0  0
  1  2  1  1  0  0  0
  1 35  1  0  0  0  0
  2  3  1  0  0  0  0
  4 19  1  6  0  0  0
  4  6  1  0  0  0  0
  4  1  1  0  0  0  0
  6  5  1  1  0  0  0
  7  6  1  0  0  0  0
  8  7  1  0  0  0  0
  9  8  1  0  0  0  0
 10  9  1  0  0  0  0
 10 11  1  0  0  0  0
 11 12  2  0  0  0  0
 14 11  1  0  0  0  0
 14 18  2  0  0  0  0
 15 18  1  0  0  0  0
 15 16  1  0  0  0  0
 16 17  1  0  0  0  0
 17 13  1  6  0  0  0
 18 17  1  0  0  0  0
 20 19  1  0  0  0  0
 21 23  1  0  0  0  0
 21 20  1  0  0  0  0
 23 24  1  0  0  0  0
 23 22  2  0  0  0  0
 25 24  1  6  0  0  0
 25 28  1  0  0  0  0
 26 27  1  0  0  0  0
 27 25  1  0  0  0  0
 28 32  1  6  0  0  0
 28 31  1  0  0  0  0
 31 29  2  0  0  0  0
 31 30  1  0  0  0  0
 33 32  1  0  0  0  0
 33 34  1  0  0  0  0
 35 36  1  0  0  0  0
 36 39  1  0  0  0  0
 37 38  2  0  0  0  0
 38 40  1  0  0  0  0
 39 38  1  0  0  0  0
 40 41  1  0  0  0  0
 43 41  1  0  0  0  0
 43 42  2  0  0  0  0
 45 44  1  1  0  0  0
 45 43  1  0  0  0  0
 46 52  1  0  0  0  0
 46 45  1  6  0  0  0
 47 60  1  1  0  0  0
 47 55  1  0  0  0  0
 48 52  1  0  0  0  0
 49 50  1  0  0  0  0
 50 51  1  0  0  0  0
 51 46  1  0  0  0  0
 52 57  1  1  0  0  0
 53 49  1  0  0  0  0
 53 47  1  0  0  0  0
 53 62  1  1  0  0  0
 55 54  1  1  0  0  0
 55 48  1  0  0  0  0
 57 58  2  0  0  0  0
 57 56  1  0  0  0  0
 59 60  1  0  0  0  0
 61 62  1  0  0  0  0
M  END
>  <MODEL>
8

>  <REMARK>
 VINA RESULT:      -3.1      2.680      9.061
  Name = 
  31 active torsions:
  status: ('A' for Active; 'I' for Inactive)
    1  A    between atoms: C_1  and  C_42
    2  A    between atoms: C_4  and  C_48
    3  A    between atoms: C_6  and  C_25
    4  A    between atoms: C_6  and  C_46
    5  A    between atoms: C_6  and  C_49
    6  A    between atoms: N_7  and  C_28
    7  A    between atoms: C_9  and  C_26
    8  A    between atoms: C_9  and  C_28
    9  A    between atoms: C_14  and  C_47
   10  A    between atoms: C_16  and  C_41
   11  A    between atoms: C_17  and  O_62
   12  A    between atoms: C_23  and  C_25
   13  A    between atoms: C_23  and  C_56
   14  A    between atoms: O_24  and  C_43
   15  A    between atoms: C_26  and  C_32
   16  A    between atoms: C_30  and  S_53
   17  A    between atoms: C_30  and  N_55
   18  A    between atoms: O_31  and  C_47
   19  A    between atoms: O_31  and  C_60
   20  A    between atoms: C_32  and  C_54
   21  A    between atoms: C_36  and  C_59
   22  A    between atoms: C_42  and  C_60
   23  A    between atoms: C_44  and  N_45
   24  A    between atoms: C_44  and  C_56
   25  A    between atoms: N_45  and  C_58
   26  A    between atoms: C_48  and  S_53
   27  A    between atoms: C_48  and  C_58
   28  A    between atoms: C_49  and  C_59
   29  A    between atoms: C_49  and  C_61
   30  A    between atoms: C_50  and  C_54
   31  A    between atoms: C_50  and  C_58
                            x       y       z     vdW  Elec       q    Type
                         _______ _______ _______ _____ _____    ______ ____

>  <TORSDO>
F 31

$$$$
=
 OpenBabel10232410093D

 62 63  0  0  1  0  0  0  0  0999 V2000
  188.1840  175.6500  136.9350 C   0  0  1  0  0  3  0  0  0  0  0  0
  186.9940  175.0250  137.6450 C   0  0  0  0  0  2  0  0  0  0  0  0
  186.0540  174.5980  136.7040 O   0  0  0  0  0  1  0  0  0  0  0  0
  188.4330  177.0600  137.4810 C   0  0  2  0  0  3  0  0  0  0  0  0
  186.6150  177.3640  135.8630 N   0  0  0  0  0  1  0  0  0  0  0  0
  187.4210  178.0360  136.8680 C   0  0  1  0  0  3  0  0  0  0  0  0
  186.5320  178.6840  137.9290 C   0  0  0  0  0  2  0  0  0  0  0  0
  185.3790  177.7730  138.3170 C   0  0  0  0  0  2  0  0  0  0  0  0
  184.1490  178.5970  138.6550 C   0  0  0  0  0  2  0  0  0  0  0  0
  182.8900  177.8270  138.2980 C   0  0  0  0  0  2  0  0  0  0  0  0
  182.1420  177.3910  139.5130 C   0  0  0  0  0  0  0  0  0  0  0  0
  181.0670  176.7410  139.3940 O   0  0  0  0  0  0  0  0  0  0  0  0
  180.0470  179.7820  141.1220 C   0  0  0  0  0  1  0  0  0  0  0  0
  182.6400  177.7630  140.8040 N   0  0  0  0  0  0  0  0  0  0  0  0
  182.1290  178.6940  143.1830 C   0  0  0  0  0  2  0  0  0  0  0  0
  180.7020  179.0730  143.3920 C   0  0  0  0  0  2  0  0  0  0  0  0
  180.4540  178.6060  142.0000 C   0  0  2  0  0  3  0  0  0  0  0  0
  181.9050  178.2400  141.7580 C   0  0  0  0  0  0  0  0  0  0  0  0
  189.8000  177.5000  137.2120 N   0  0  0  0  0  2  0  0  0  0  0  0
  190.5010  177.5840  138.4860 C   0  0  0  0  0  2  0  0  0  0  0  0
  189.5740  177.1870  139.6270 C   0  0  0  0  0  2  0  0  0  0  0  0
  191.3590  176.8680  141.1400 O   0  0  0  0  0  0  0  0  0  0  0  0
  190.2470  177.3360  140.9580 C   0  0  0  0  0  0  0  0  0  0  0  0
  189.5940  178.1280  142.0450 C   0  0  0  0  0  2  0  0  0  0  0  0
  188.4430  177.3590  142.6870 C   0  0  2  0  0  3  0  0  0  0  0  0
  187.1970  179.0090  141.4780 O   0  0  0  0  0  1  0  0  0  0  0  0
  187.2030  178.2480  142.6480 C   0  0  0  0  0  2  0  0  0  0  0  0
  188.8040  176.9530  144.1270 C   0  0  2  0  0  3  0  0  0  0  0  0
  187.4980  177.7600  146.1060 O   0  0  0  0  0  1  0  0  0  0  0  0
  186.6380  176.1520  144.7220 O   0  0  0  0  0  0  0  0  0  0  0  0
  187.5890  176.9270  144.9980 C   0  0  0  0  0  0  0  0  0  0  0  0
  189.8420  177.8830  144.7490 C   0  0  0  0  0  2  0  0  0  0  0  0
  190.3640  177.2770  146.0370 C   0  0  0  0  0  2  0  0  0  0  0  0
  191.7580  177.2190  145.9950 O   0  0  0  0  0  1  0  0  0  0  0  0
  189.6300  174.5560  137.1280 S   0  0  0  0  0  0  0  0  0  0  0  0
  190.6740  175.6390  136.1080 C   0  0  0  0  0  2  0  0  0  0  0  0
  193.3960  176.4040  135.7750 O   0  0  0  0  0  0  0  0  0  0  0  0
  193.0540  175.2700  135.3500 C   0  0  0  0  0  0  0  0  0  0  0  0
  191.6930  174.8490  135.4360 N   0  0  0  0  0  2  0  0  0  0  0  0
  194.0550  174.3760  134.7010 C   0  0  0  0  0  2  0  0  0  0  0  0
  195.2910  174.4160  135.4050 O   0  0  0  0  0  0  0  0  0  0  0  0
  195.7330  176.1900  136.8200 O   0  0  0  0  0  0  0  0  0  0  0  0
  195.4040  174.9810  136.6790 C   0  0  0  0  0  0  0  0  0  0  0  0
  194.0210  173.3930  137.7660 F   0  0  0  0  0  0  0  0  0  0  0  0
  195.1850  174.1390  137.8910 C   0  0  1  0  0  3  0  0  0  0  0  0
  196.3940  173.2350  138.1670 C   0  0  1  0  0  3  0  0  0  0  0  0
  198.8960  171.1500  135.2810 C   0  0  1  0  0  3  0  0  0  0  0  0
  198.8090  172.8660  137.2180 C   0  0  0  0  0  2  0  0  0  0  0  0
  196.3750  170.4110  135.6280 C   0  0  0  0  0  2  0  0  0  0  0  0
  196.0350  171.7130  136.2680 C   0  0  0  0  0  2  0  0  0  0  0  0
  196.2040  171.8690  137.5820 C   0  0  0  0  0  2  0  0  0  0  0  0
  197.7420  173.8700  137.7070 C   0  0  2  0  0  3  0  0  0  0  0  0
  197.8830  170.0940  135.8100 C   0  0  2  0  0  3  0  0  0  0  0  0
  199.4860  173.4740  135.0020 O   0  0  0  0  0  1  0  0  0  0  0  0
  198.6560  172.6130  135.7150 C   0  0  1  0  0  3  0  0  0  0  0  0
  199.7070  174.6220  139.0980 N   0  0  0  0  0  1  0  0  0  0  0  0
  198.3230  174.7280  138.7840 C   0  0  0  0  0  0  0  0  0  0  0  0
  197.5930  175.5170  139.4390 O   0  0  0  0  0  0  0  0  0  0  0  0
  200.2150  169.3760  135.4700 C   0  0  0  0  0  1  0  0  0  0  0  0
  200.2030  170.7650  135.5950 O   0  0  0  0  0  0  0  0  0  0  0  0
  197.6890  168.4280  137.2630 C   0  0  0  0  0  1  0  0  0  0  0  0
  198.1700  169.7340  137.1360 O   0  0  0  0  0  0  0  0  0  0  0  0
  1 35  1  0  0  0  0
  1  4  1  0  0  0  0
  1  2  1  1  0  0  0
  3  2  1  0  0  0  0
  4 19  1  6  0  0  0
  6  5  1  6  0  0  0
  6  4  1  0  0  0  0
  6  7  1  0  0  0  0
  7  8  1  0  0  0  0
  8  9  1  0  0  0  0
 10  9  1  0  0  0  0
 10 11  1  0  0  0  0
 11 14  1  0  0  0  0
 12 11  2  0  0  0  0
 14 18  2  0  0  0  0
 15 16  1  0  0  0  0
 17 13  1  6  0  0  0
 17 16  1  0  0  0  0
 18 17  1  0  0  0  0
 18 15  1  0  0  0  0
 19 20  1  0  0  0  0
 20 21  1  0  0  0  0
 21 23  1  0  0  0  0
 23 22  2  0  0  0  0
 23 24  1  0  0  0  0
 25 24  1  1  0  0  0
 25 28  1  0  0  0  0
 26 27  1  0  0  0  0
 27 25  1  0  0  0  0
 28 32  1  1  0  0  0
 28 31  1  0  0  0  0
 30 31  2  0  0  0  0
 31 29  1  0  0  0  0
 32 33  1  0  0  0  0
 34 33  1  0  0  0  0
 36 35  1  0  0  0  0
 38 39  1  0  0  0  0
 38 37  2  0  0  0  0
 39 36  1  0  0  0  0
 40 38  1  0  0  0  0
 40 41  1  0  0  0  0
 41 43  1  0  0  0  0
 43 42  2  0  0  0  0
 43 45  1  0  0  0  0
 45 44  1  6  0  0  0
 46 45  1  6  0  0  0
 47 60  1  1  0  0  0
 47 55  1  0  0  0  0
 47 53  1  0  0  0  0
 48 52  1  0  0  0  0
 49 53  1  0  0  0  0
 49 50  1  0  0  0  0
 50 51  1  0  0  0  0
 51 46  1  0  0  0  0
 52 46  1  0  0  0  0
 52 57  1  1  0  0  0
 53 62  1  1  0  0  0
 55 54  1  6  0  0  0
 55 48  1  0  0  0  0
 57 56  1  0  0  0  0
 57 58  2  0  0  0  0
 59 60  1  0  0  0  0
 62 61  1  0  0  0  0
M  END
>  <MODEL>
9

>  <REMARK>
 VINA RESULT:      -2.9      2.677     12.598
  Name = 
  31 active torsions:
  status: ('A' for Active; 'I' for Inactive)
    1  A    between atoms: C_1  and  C_42
    2  A    between atoms: C_4  and  C_48
    3  A    between atoms: C_6  and  C_25
    4  A    between atoms: C_6  and  C_46
    5  A    between atoms: C_6  and  C_49
    6  A    between atoms: N_7  and  C_28
    7  A    between atoms: C_9  and  C_26
    8  A    between atoms: C_9  and  C_28
    9  A    between atoms: C_14  and  C_47
   10  A    between atoms: C_16  and  C_41
   11  A    between atoms: C_17  and  O_62
   12  A    between atoms: C_23  and  C_25
   13  A    between atoms: C_23  and  C_56
   14  A    between atoms: O_24  and  C_43
   15  A    between atoms: C_26  and  C_32
   16  A    between atoms: C_30  and  S_53
   17  A    between atoms: C_30  and  N_55
   18  A    between atoms: O_31  and  C_47
   19  A    between atoms: O_31  and  C_60
   20  A    between atoms: C_32  and  C_54
   21  A    between atoms: C_36  and  C_59
   22  A    between atoms: C_42  and  C_60
   23  A    between atoms: C_44  and  N_45
   24  A    between atoms: C_44  and  C_56
   25  A    between atoms: N_45  and  C_58
   26  A    between atoms: C_48  and  S_53
   27  A    between atoms: C_48  and  C_58
   28  A    between atoms: C_49  and  C_59
   29  A    between atoms: C_49  and  C_61
   30  A    between atoms: C_50  and  C_54
   31  A    between atoms: C_50  and  C_58
                            x       y       z     vdW  Elec       q    Type
                         _______ _______ _______ _____ _____    ______ ____

>  <TORSDO>
F 31

$$$$
