=
 OpenBabel10232410313D

 43 46  0  0  1  0  0  0  0  0999 V2000
  186.5880  177.8620  144.2370 C   0  0  0  0  0  0  0  0  0  0  0  0
  189.1800  176.8250  144.3910 N   0  0  0  0  0  0  0  0  0  0  0  0
  186.7680  178.1200  141.9180 N   0  0  0  0  0  0  0  0  0  0  0  0
  188.7720  177.7010  140.7550 C   0  0  0  0  0  0  0  0  0  0  0  0
  188.5370  177.1340  145.4530 N   0  0  0  0  0  0  0  0  0  0  0  0
  188.6100  177.0720  143.1020 C   0  0  0  0  0  0  0  0  0  0  0  0
  187.1220  177.2330  143.0100 C   0  0  1  0  0  3  0  0  0  0  0  0
  189.3760  177.2240  142.0190 C   0  0  0  0  0  3  0  0  0  0  0  0
  187.5570  178.1750  140.7540 N   0  0  0  0  0  0  0  0  0  0  0  0
  185.1610  178.8940  143.9290 S   0  0  0  0  0  0  0  0  0  0  0  0
  187.2450  177.7750  145.4060 C   0  0  0  0  0  0  0  0  0  0  0  0
  185.7160  179.0950  142.1880 C   0  0  2  0  0  3  0  0  0  0  0  0
  186.7000  178.3930  146.6460 C   0  0  0  0  0  1  0  0  0  0  0  0
  184.5780  178.9110  141.2400 C   0  0  0  0  0  0  0  0  0  0  0  0
  183.6350  178.1220  141.5230 O   0  0  0  0  0  0  0  0  0  0  0  0
  184.5950  179.6030  139.9900 N   0  0  0  0  0  2  0  0  0  0  0  0
  183.5180  179.4980  139.0160 C   0  0  0  0  0  2  0  0  0  0  0  0
  182.5660  177.4600  137.8130 N   0  0  0  0  0  2  0  0  0  0  0  0
  183.6880  178.2650  138.1870 C   0  0  0  0  0  0  0  0  0  0  0  0
  184.8440  177.9180  137.8300 O   0  0  0  0  0  0  0  0  0  0  0  0
  181.1910  177.7920  138.1600 C   0  0  0  0  0  2  0  0  0  0  0  0
  181.6510  175.7420  139.5040 C   0  0  0  0  0  1  0  0  0  0  0  0
  180.6780  176.8770  139.2600 C   0  0  1  0  0  3  0  0  0  0  0  0
  180.5140  177.6380  140.4830 N   0  0  0  0  0  1  0  0  0  0  0  0
  189.6210  177.7870  139.5200 C   0  0  1  0  0  3  0  0  0  0  0  0
  190.9420  177.0750  139.8020 C   0  0  0  0  0  1  0  0  0  0  0  0
  188.9330  177.2150  138.3460 N   0  0  0  0  0  0  0  0  0  0  0  0
  188.0550  178.7050  136.6140 C   0  0  0  0  0  2  0  0  0  0  0  0
  189.0590  179.4790  137.4330 C   0  0  0  0  0  2  0  0  0  0  0  0
  189.2880  178.0000  137.1610 C   0  0  0  0  0  3  0  0  0  0  0  0
  189.4700  175.8770  138.1090 C   0  0  0  0  0  2  0  0  0  0  0  0
  189.4690  175.6120  136.7380 O   0  0  0  0  0  0  0  0  0  0  0  0
  188.3060  174.8690  136.5170 C   0  0  1  0  0  3  0  0  0  0  0  0
  186.5030  176.0230  135.4640 F   0  0  0  0  0  0  0  0  0  0  0  0
  187.6440  175.2870  135.2040 C   0  0  0  0  0  0  0  0  0  0  0  0
  187.3080  174.1740  134.4540 F   0  0  0  0  0  0  0  0  0  0  0  0
  188.5210  176.0720  134.4780 F   0  0  0  0  0  0  0  0  0  0  0  0
  189.7220  172.9840  136.0950 O   0  0  0  0  0  0  0  0  0  0  0  0
  188.6210  173.3990  136.5440 C   0  0  0  0  0  0  0  0  0  0  0  0
  187.6830  172.4600  137.0700 N   0  0  0  0  0  2  0  0  0  0  0  0
  186.3870  172.8590  137.5960 C   0  0  0  0  0  2  0  0  0  0  0  0
  184.2280  173.6520  136.6490 C   0  0  0  0  0  1  0  0  0  0  0  0
  185.3040  172.5890  136.5680 C   0  0  0  0  0  2  0  0  0  0  0  0
  1 11  2  0  0  0  0
  2  5  2  0  0  0  0
  3 12  1  0  0  0  0
  3  7  1  0  0  0  0
  4  8  1  0  0  0  0
  6  2  1  0  0  0  0
  7  6  1  1  0  0  0
  7  1  1  0  0  0  0
  8  6  2  0  0  0  0
  9  4  2  0  0  0  0
  9  3  1  0  0  0  0
 10  1  1  0  0  0  0
 11  5  1  0  0  0  0
 11 13  1  0  0  0  0
 12 14  1  6  0  0  0
 12 10  1  0  0  0  0
 14 15  2  0  0  0  0
 16 14  1  0  0  0  0
 17 16  1  0  0  0  0
 18 21  1  0  0  0  0
 18 19  1  0  0  0  0
 19 17  1  0  0  0  0
 20 19  2  0  0  0  0
 21 23  1  0  0  0  0
 23 22  1  1  0  0  0
 23 24  1  0  0  0  0
 25 26  1  1  0  0  0
 25  4  1  0  0  0  0
 27 25  1  0  0  0  0
 28 30  1  0  0  0  0
 28 29  1  0  0  0  0
 30 29  1  0  0  0  0
 30 27  1  0  0  0  0
 31 27  1  0  0  0  0
 32 31  1  0  0  0  0
 33 39  1  6  0  0  0
 33 32  1  0  0  0  0
 35 34  1  0  0  0  0
 35 33  1  0  0  0  0
 36 35  1  0  0  0  0
 37 35  1  0  0  0  0
 38 39  2  0  0  0  0
 39 40  1  0  0  0  0
 40 41  1  0  0  0  0
 43 42  1  0  0  0  0
 43 41  1  0  0  0  0
M  END
>  <MODEL>
1

>  <REMARK>
 VINA RESULT:      -6.5      0.000      0.000
  Name = 
  15 active torsions:
  status: ('A' for Active; 'I' for Inactive)
    1  A    between atoms: N_1  and  C_42
    2  A    between atoms: C_2  and  C_10
    3  A    between atoms: C_6  and  C_18
    4  A    between atoms: N_7  and  C_35
    5  A    between atoms: N_7  and  C_39
    6  A    between atoms: N_7  and  C_43
    7  A    between atoms: N_9  and  C_17
    8  A    between atoms: C_10  and  N_40
    9  A    between atoms: C_11  and  C_18
   10  A    between atoms: C_12  and  C_42
   11  A    between atoms: C_15  and  C_36
   12  A    between atoms: C_17  and  C_33
   13  A    between atoms: C_18  and  O_32
   14  A    between atoms: C_20  and  C_39
   15  A    between atoms: O_32  and  C_43
                            x       y       z     vdW  Elec       q    Type
                         _______ _______ _______ _____ _____    ______ ____

>  <TORSDO>
F 15

$$$$
=
 OpenBabel10232410313D

 43 46  0  0  1  0  0  0  0  0999 V2000
  186.4610  177.9320  144.1610 C   0  0  0  0  0  0  0  0  0  0  0  0
  189.0130  176.8700  144.5850 N   0  0  0  0  0  0  0  0  0  0  0  0
  186.8930  178.2030  141.8760 N   0  0  0  0  0  0  0  0  0  0  0  0
  189.0070  177.7730  140.9330 C   0  0  0  0  0  0  0  0  0  0  0  0
  188.2620  177.1790  145.5740 N   0  0  0  0  0  0  0  0  0  0  0  0
  188.5870  177.1300  143.2440 C   0  0  0  0  0  0  0  0  0  0  0  0
  187.1190  177.3060  142.9940 C   0  0  1  0  0  3  0  0  0  0  0  0
  189.4670  177.2820  142.2510 C   0  0  0  0  0  3  0  0  0  0  0  0
  187.8040  178.2580  140.8050 N   0  0  0  0  0  0  0  0  0  0  0  0
  185.0850  178.9800  143.7080 S   0  0  0  0  0  0  0  0  0  0  0  0
  186.9880  177.8330  145.3930 C   0  0  0  0  0  0  0  0  0  0  0  0
  185.8270  179.1870  142.0380 C   0  0  2  0  0  3  0  0  0  0  0  0
  186.3180  178.4480  146.5720 C   0  0  0  0  0  1  0  0  0  0  0  0
  184.7960  179.0180  140.9720 C   0  0  0  0  0  0  0  0  0  0  0  0
  184.8540  179.7040  139.9140 O   0  0  0  0  0  0  0  0  0  0  0  0
  183.7180  178.1040  141.1850 N   0  0  0  0  0  2  0  0  0  0  0  0
  182.6820  177.8620  140.1920 C   0  0  0  0  0  2  0  0  0  0  0  0
  180.4810  179.0610  139.7140 N   0  0  0  0  0  2  0  0  0  0  0  0
  181.3840  178.4530  140.6420 C   0  0  0  0  0  0  0  0  0  0  0  0
  181.0910  178.4350  141.8660 O   0  0  0  0  0  0  0  0  0  0  0  0
  180.7220  179.1100  138.2780 C   0  0  0  0  0  2  0  0  0  0  0  0
  181.6940  181.4030  138.4100 C   0  0  0  0  0  1  0  0  0  0  0  0
  180.6300  180.5390  137.7660 C   0  0  1  0  0  3  0  0  0  0  0  0
  180.8110  180.5490  136.3280 N   0  0  0  0  0  1  0  0  0  0  0  0
  189.9840  177.8580  139.7970 C   0  0  1  0  0  3  0  0  0  0  0  0
  191.3650  177.4790  140.3300 C   0  0  0  0  0  1  0  0  0  0  0  0
  189.5820  177.0000  138.6660 N   0  0  0  0  0  0  0  0  0  0  0  0
  188.2480  178.0560  136.9070 C   0  0  0  0  0  2  0  0  0  0  0  0
  188.9980  179.1400  137.6420 C   0  0  0  0  0  2  0  0  0  0  0  0
  189.6500  177.7820  137.4300 C   0  0  0  0  0  3  0  0  0  0  0  0
  190.5770  175.9410  138.5200 C   0  0  0  0  0  2  0  0  0  0  0  0
  191.0020  175.8840  137.1900 O   0  0  0  0  0  0  0  0  0  0  0  0
  191.8450  174.7710  137.1310 C   0  0  1  0  0  3  0  0  0  0  0  0
  192.0710  172.6140  136.1380 F   0  0  0  0  0  0  0  0  0  0  0  0
  191.1550  173.6140  136.4080 C   0  0  0  0  0  0  0  0  0  0  0  0
  190.5920  174.0500  135.2210 F   0  0  0  0  0  0  0  0  0  0  0  0
  190.1600  173.0970  137.2150 F   0  0  0  0  0  0  0  0  0  0  0  0
  193.1480  175.8820  135.4550 O   0  0  0  0  0  0  0  0  0  0  0  0
  193.1470  175.1450  136.4770 C   0  0  0  0  0  0  0  0  0  0  0  0
  194.3890  174.6710  136.9970 N   0  0  0  0  0  2  0  0  0  0  0  0
  194.4700  173.8080  138.1650 C   0  0  0  0  0  2  0  0  0  0  0  0
  196.8850  174.3200  137.8690 C   0  0  0  0  0  1  0  0  0  0  0  0
  195.7940  174.0190  138.8750 C   0  0  0  0  0  2  0  0  0  0  0  0
  1 11  2  0  0  0  0
  2  5  2  0  0  0  0
  3 12  1  0  0  0  0
  3  7  1  0  0  0  0
  4  8  1  0  0  0  0
  6  2  1  0  0  0  0
  7  6  1  1  0  0  0
  7  1  1  0  0  0  0
  8  6  2  0  0  0  0
  9  4  2  0  0  0  0
  9  3  1  0  0  0  0
 10  1  1  0  0  0  0
 11  5  1  0  0  0  0
 11 13  1  0  0  0  0
 12 14  1  6  0  0  0
 12 10  1  0  0  0  0
 14 16  1  0  0  0  0
 15 14  2  0  0  0  0
 17 19  1  0  0  0  0
 17 16  1  0  0  0  0
 18 19  1  0  0  0  0
 19 20  2  0  0  0  0
 21 18  1  0  0  0  0
 23 21  1  0  0  0  0
 23 22  1  1  0  0  0
 24 23  1  0  0  0  0
 25 26  1  1  0  0  0
 25  4  1  0  0  0  0
 27 25  1  0  0  0  0
 28 30  1  0  0  0  0
 28 29  1  0  0  0  0
 30 29  1  0  0  0  0
 30 27  1  0  0  0  0
 31 27  1  0  0  0  0
 32 31  1  0  0  0  0
 33 39  1  6  0  0  0
 33 32  1  0  0  0  0
 34 35  1  0  0  0  0
 35 33  1  0  0  0  0
 35 37  1  0  0  0  0
 36 35  1  0  0  0  0
 38 39  2  0  0  0  0
 39 40  1  0  0  0  0
 40 41  1  0  0  0  0
 41 43  1  0  0  0  0
 42 43  1  0  0  0  0
M  END
>  <MODEL>
2

>  <REMARK>
 VINA RESULT:      -6.4      2.698      4.021
  Name = 
  15 active torsions:
  status: ('A' for Active; 'I' for Inactive)
    1  A    between atoms: N_1  and  C_42
    2  A    between atoms: C_2  and  C_10
    3  A    between atoms: C_6  and  C_18
    4  A    between atoms: N_7  and  C_35
    5  A    between atoms: N_7  and  C_39
    6  A    between atoms: N_7  and  C_43
    7  A    between atoms: N_9  and  C_17
    8  A    between atoms: C_10  and  N_40
    9  A    between atoms: C_11  and  C_18
   10  A    between atoms: C_12  and  C_42
   11  A    between atoms: C_15  and  C_36
   12  A    between atoms: C_17  and  C_33
   13  A    between atoms: C_18  and  O_32
   14  A    between atoms: C_20  and  C_39
   15  A    between atoms: O_32  and  C_43
                            x       y       z     vdW  Elec       q    Type
                         _______ _______ _______ _____ _____    ______ ____

>  <TORSDO>
F 15

$$$$
=
 OpenBabel10232410313D

 43 46  0  0  1  0  0  0  0  0999 V2000
  190.2860  176.2120  137.2730 C   0  0  0  0  0  0  0  0  0  0  0  0
  192.2430  176.6730  139.2170 N   0  0  0  0  0  0  0  0  0  0  0  0
  188.6340  177.1650  138.6290 N   0  0  0  0  0  0  0  0  0  0  0  0
  189.0620  177.8580  140.8390 C   0  0  0  0  0  0  0  0  0  0  0  0
  192.4970  175.9480  138.1940 N   0  0  0  0  0  0  0  0  0  0  0  0
  190.9290  177.2030  139.4200 C   0  0  0  0  0  0  0  0  0  0  0  0
  190.0220  177.3080  138.2300 C   0  0  1  0  0  3  0  0  0  0  0  0
  190.4910  177.5320  140.6370 C   0  0  0  0  0  3  0  0  0  0  0  0
  188.2000  177.6160  139.8900 N   0  0  0  0  0  0  0  0  0  0  0  0
  188.8220  175.6820  136.3940 S   0  0  0  0  0  0  0  0  0  0  0  0
  191.4810  175.5970  137.2320 C   0  0  0  0  0  0  0  0  0  0  0  0
  187.7930  176.3370  137.7710 C   0  0  2  0  0  3  0  0  0  0  0  0
  191.7540  174.5050  136.2570 C   0  0  0  0  0  1  0  0  0  0  0  0
  186.6430  177.1300  137.2460 C   0  0  0  0  0  0  0  0  0  0  0  0
  186.8020  178.3340  136.9030 O   0  0  0  0  0  0  0  0  0  0  0  0
  185.3510  176.5230  137.1810 N   0  0  0  0  0  2  0  0  0  0  0  0
  184.1790  177.2150  136.6640 C   0  0  0  0  0  2  0  0  0  0  0  0
  182.3170  177.6800  138.3460 N   0  0  0  0  0  2  0  0  0  0  0  0
  182.9570  176.7980  137.4180 C   0  0  0  0  0  0  0  0  0  0  0  0
  182.4940  175.6400  137.2490 O   0  0  0  0  0  0  0  0  0  0  0  0
  182.7660  179.0440  138.5910 C   0  0  0  0  0  2  0  0  0  0  0  0
  183.4910  177.8000  140.6280 C   0  0  0  0  0  1  0  0  0  0  0  0
  183.5140  179.1350  139.9120 C   0  0  1  0  0  3  0  0  0  0  0  0
  184.8890  179.5200  139.6620 N   0  0  0  0  0  1  0  0  0  0  0  0
  188.5930  178.3110  142.1900 C   0  0  1  0  0  3  0  0  0  0  0  0
  187.0690  178.2190  142.2200 C   0  0  0  0  0  1  0  0  0  0  0  0
  189.2080  177.5190  143.2740 N   0  0  0  0  0  0  0  0  0  0  0  0
  191.2070  177.4900  144.6860 C   0  0  0  0  0  2  0  0  0  0  0  0
  191.5600  178.1750  143.3870 C   0  0  0  0  0  2  0  0  0  0  0  0
  190.1730  178.3600  143.9850 C   0  0  0  0  0  3  0  0  0  0  0  0
  188.1700  177.1970  144.2490 C   0  0  0  0  0  2  0  0  0  0  0  0
  188.0330  178.2570  145.1490 O   0  0  0  0  0  0  0  0  0  0  0  0
  187.3970  177.7020  146.2630 C   0  0  1  0  0  3  0  0  0  0  0  0
  187.7840  177.0260  148.5170 F   0  0  0  0  0  0  0  0  0  0  0  0
  188.4240  177.3030  147.3230 C   0  0  0  0  0  0  0  0  0  0  0  0
  189.3370  178.3240  147.5210 F   0  0  0  0  0  0  0  0  0  0  0  0
  189.0960  176.1700  146.9070 F   0  0  0  0  0  0  0  0  0  0  0  0
  186.6090  179.2980  147.8660 O   0  0  0  0  0  0  0  0  0  0  0  0
  186.3750  178.6630  146.8040 C   0  0  0  0  0  0  0  0  0  0  0  0
  185.1310  178.8640  146.1310 N   0  0  0  0  0  2  0  0  0  0  0  0
  184.7820  178.1600  144.9070 C   0  0  0  0  0  2  0  0  0  0  0  0
  182.5260  178.9200  144.1870 C   0  0  0  0  0  1  0  0  0  0  0  0
  184.0180  179.0840  143.9770 C   0  0  0  0  0  2  0  0  0  0  0  0
  2  6  1  0  0  0  0
  3  9  1  0  0  0  0
  4 25  1  0  0  0  0
  5  2  2  0  0  0  0
  6  8  2  0  0  0  0
  7  1  1  6  0  0  0
  7  3  1  0  0  0  0
  7  6  1  0  0  0  0
  8  4  1  0  0  0  0
  9  4  2  0  0  0  0
 10  1  1  0  0  0  0
 10 12  1  0  0  0  0
 11  1  2  0  0  0  0
 11  5  1  0  0  0  0
 12 14  1  6  0  0  0
 12  3  1  0  0  0  0
 13 11  1  0  0  0  0
 15 14  2  0  0  0  0
 16 14  1  0  0  0  0
 17 16  1  0  0  0  0
 17 19  1  0  0  0  0
 18 21  1  0  0  0  0
 19 18  1  0  0  0  0
 20 19  2  0  0  0  0
 21 23  1  0  0  0  0
 23 22  1  6  0  0  0
 24 23  1  0  0  0  0
 25 26  1  6  0  0  0
 25 27  1  0  0  0  0
 27 30  1  0  0  0  0
 27 31  1  0  0  0  0
 29 30  1  0  0  0  0
 29 28  1  0  0  0  0
 30 28  1  0  0  0  0
 31 32  1  0  0  0  0
 33 32  1  6  0  0  0
 33 39  1  0  0  0  0
 33 35  1  0  0  0  0
 35 36  1  0  0  0  0
 35 34  1  0  0  0  0
 37 35  1  0  0  0  0
 39 38  2  0  0  0  0
 40 39  1  0  0  0  0
 41 40  1  0  0  0  0
 43 42  1  0  0  0  0
 43 41  1  0  0  0  0
M  END
>  <MODEL>
3

>  <REMARK>
 VINA RESULT:      -6.4      4.309      7.753
  Name = 
  15 active torsions:
  status: ('A' for Active; 'I' for Inactive)
    1  A    between atoms: N_1  and  C_42
    2  A    between atoms: C_2  and  C_10
    3  A    between atoms: C_6  and  C_18
    4  A    between atoms: N_7  and  C_35
    5  A    between atoms: N_7  and  C_39
    6  A    between atoms: N_7  and  C_43
    7  A    between atoms: N_9  and  C_17
    8  A    between atoms: C_10  and  N_40
    9  A    between atoms: C_11  and  C_18
   10  A    between atoms: C_12  and  C_42
   11  A    between atoms: C_15  and  C_36
   12  A    between atoms: C_17  and  C_33
   13  A    between atoms: C_18  and  O_32
   14  A    between atoms: C_20  and  C_39
   15  A    between atoms: O_32  and  C_43
                            x       y       z     vdW  Elec       q    Type
                         _______ _______ _______ _____ _____    ______ ____

>  <TORSDO>
F 15

$$$$
=
 OpenBabel10232410313D

 43 46  0  0  1  0  0  0  0  0999 V2000
  186.0780  178.5340  144.8000 C   0  0  0  0  0  0  0  0  0  0  0  0
  183.3690  179.0810  145.2280 N   0  0  0  0  0  0  0  0  0  0  0  0
  185.7490  178.4350  142.4840 N   0  0  0  0  0  0  0  0  0  0  0  0
  183.6120  178.5850  141.5070 C   0  0  0  0  0  0  0  0  0  0  0  0
  184.1420  178.8060  146.2100 N   0  0  0  0  0  0  0  0  0  0  0  0
  183.8620  179.0430  143.8850 C   0  0  0  0  0  0  0  0  0  0  0  0
  185.3430  179.1550  143.6770 C   0  0  1  0  0  3  0  0  0  0  0  0
  183.0450  178.8460  142.8490 C   0  0  0  0  0  3  0  0  0  0  0  0
  184.8860  178.3350  141.3780 N   0  0  0  0  0  0  0  0  0  0  0  0
  187.6280  177.7980  144.2990 S   0  0  0  0  0  0  0  0  0  0  0  0
  185.5160  178.4090  146.0150 C   0  0  0  0  0  0  0  0  0  0  0  0
  186.9700  177.6420  142.5890 C   0  0  2  0  0  3  0  0  0  0  0  0
  186.2600  177.8000  147.1510 C   0  0  0  0  0  1  0  0  0  0  0  0
  187.9760  178.1000  141.5870 C   0  0  0  0  0  0  0  0  0  0  0  0
  188.4900  179.2490  141.6780 O   0  0  0  0  0  0  0  0  0  0  0  0
  188.3150  177.2380  140.4980 N   0  0  0  0  0  2  0  0  0  0  0  0
  189.3010  177.5950  139.4880 C   0  0  0  0  0  2  0  0  0  0  0  0
  191.5180  176.7170  140.3970 N   0  0  0  0  0  2  0  0  0  0  0  0
  190.4210  176.6040  139.4850 C   0  0  0  0  0  0  0  0  0  0  0  0
  190.4090  175.6640  138.6490 O   0  0  0  0  0  0  0  0  0  0  0  0
  191.6090  177.7560  141.4140 C   0  0  0  0  0  2  0  0  0  0  0  0
  191.5120  178.2040  143.8660 C   0  0  0  0  0  1  0  0  0  0  0  0
  191.7050  177.1430  142.8020 C   0  0  1  0  0  3  0  0  0  0  0  0
  190.6850  176.1240  142.9510 N   0  0  0  0  0  1  0  0  0  0  0  0
  182.6900  178.4510  140.3310 C   0  0  1  0  0  3  0  0  0  0  0  0
  183.2470  179.3030  139.1920 C   0  0  0  0  0  1  0  0  0  0  0  0
  182.5250  177.0410  139.9270 N   0  0  0  0  0  0  0  0  0  0  0  0
  180.3910  175.9160  140.3410 C   0  0  0  0  0  2  0  0  0  0  0  0
  180.1590  177.4060  140.4180 C   0  0  0  0  0  2  0  0  0  0  0  0
  181.1640  176.8500  139.4210 C   0  0  0  0  0  3  0  0  0  0  0  0
  183.4080  176.7850  138.7920 C   0  0  0  0  0  2  0  0  0  0  0  0
  183.0650  175.5660  138.2010 O   0  0  0  0  0  0  0  0  0  0  0  0
  184.2340  175.1300  137.5730 C   0  0  1  0  0  3  0  0  0  0  0  0
  182.8640  173.1860  137.3890 F   0  0  0  0  0  0  0  0  0  0  0  0
  184.1730  173.6240  137.3140 C   0  0  0  0  0  0  0  0  0  0  0  0
  184.9370  172.9410  138.2440 F   0  0  0  0  0  0  0  0  0  0  0  0
  184.6580  173.3560  136.0480 F   0  0  0  0  0  0  0  0  0  0  0  0
  183.5100  176.0780  135.4960 O   0  0  0  0  0  0  0  0  0  0  0  0
  184.4590  175.9080  136.3060 C   0  0  0  0  0  0  0  0  0  0  0  0
  185.7430  176.4570  136.0030 N   0  0  0  0  0  2  0  0  0  0  0  0
  186.8900  176.2940  136.8820 C   0  0  0  0  0  2  0  0  0  0  0  0
  187.8570  174.0090  136.7070 C   0  0  0  0  0  1  0  0  0  0  0  0
  187.9430  175.4370  136.2060 C   0  0  0  0  0  2  0  0  0  0  0  0
  1 11  2  0  0  0  0
  2  5  2  0  0  0  0
  3 12  1  0  0  0  0
  3  7  1  0  0  0  0
  4  8  1  0  0  0  0
  6  2  1  0  0  0  0
  7  6  1  1  0  0  0
  7  1  1  0  0  0  0
  8  6  2  0  0  0  0
  9  4  2  0  0  0  0
  9  3  1  0  0  0  0
 10  1  1  0  0  0  0
 11  5  1  0  0  0  0
 11 13  1  0  0  0  0
 12 14  1  6  0  0  0
 12 10  1  0  0  0  0
 14 15  2  0  0  0  0
 16 14  1  0  0  0  0
 17 16  1  0  0  0  0
 18 21  1  0  0  0  0
 19 17  1  0  0  0  0
 19 18  1  0  0  0  0
 20 19  2  0  0  0  0
 21 23  1  0  0  0  0
 23 24  1  0  0  0  0
 23 22  1  1  0  0  0
 25 26  1  6  0  0  0
 25  4  1  0  0  0  0
 27 25  1  0  0  0  0
 28 29  1  0  0  0  0
 30 27  1  0  0  0  0
 30 28  1  0  0  0  0
 30 29  1  0  0  0  0
 31 27  1  0  0  0  0
 32 31  1  0  0  0  0
 33 39  1  6  0  0  0
 33 32  1  0  0  0  0
 35 34  1  0  0  0  0
 35 33  1  0  0  0  0
 35 36  1  0  0  0  0
 37 35  1  0  0  0  0
 38 39  2  0  0  0  0
 40 39  1  0  0  0  0
 40 41  1  0  0  0  0
 43 42  1  0  0  0  0
 43 41  1  0  0  0  0
M  END
>  <MODEL>
4

>  <REMARK>
 VINA RESULT:      -6.3      2.475      6.242
  Name = 
  15 active torsions:
  status: ('A' for Active; 'I' for Inactive)
    1  A    between atoms: N_1  and  C_42
    2  A    between atoms: C_2  and  C_10
    3  A    between atoms: C_6  and  C_18
    4  A    between atoms: N_7  and  C_35
    5  A    between atoms: N_7  and  C_39
    6  A    between atoms: N_7  and  C_43
    7  A    between atoms: N_9  and  C_17
    8  A    between atoms: C_10  and  N_40
    9  A    between atoms: C_11  and  C_18
   10  A    between atoms: C_12  and  C_42
   11  A    between atoms: C_15  and  C_36
   12  A    between atoms: C_17  and  C_33
   13  A    between atoms: C_18  and  O_32
   14  A    between atoms: C_20  and  C_39
   15  A    between atoms: O_32  and  C_43
                            x       y       z     vdW  Elec       q    Type
                         _______ _______ _______ _____ _____    ______ ____

>  <TORSDO>
F 15

$$$$
=
 OpenBabel10232410313D

 43 46  0  0  1  0  0  0  0  0999 V2000
  186.6090  177.8780  144.3230 C   0  0  0  0  0  0  0  0  0  0  0  0
  189.2000  176.8420  144.4990 N   0  0  0  0  0  0  0  0  0  0  0  0
  186.8140  178.1450  142.0060 N   0  0  0  0  0  0  0  0  0  0  0  0
  188.8310  177.7330  140.8630 C   0  0  0  0  0  0  0  0  0  0  0  0
  188.5450  177.1460  145.5560 N   0  0  0  0  0  0  0  0  0  0  0  0
  188.6430  177.0930  143.2050 C   0  0  0  0  0  0  0  0  0  0  0  0
  187.1570  177.2540  143.0980 C   0  0  1  0  0  3  0  0  0  0  0  0
  189.4210  177.2510  142.1310 C   0  0  0  0  0  3  0  0  0  0  0  0
  187.6150  178.2050  140.8510 N   0  0  0  0  0  0  0  0  0  0  0  0
  185.1840  178.9100  144.0040 S   0  0  0  0  0  0  0  0  0  0  0  0
  187.2540  177.7870  145.4980 C   0  0  0  0  0  0  0  0  0  0  0  0
  185.7590  179.1190  142.2690 C   0  0  2  0  0  3  0  0  0  0  0  0
  186.6960  178.3990  146.7350 C   0  0  0  0  0  1  0  0  0  0  0  0
  184.6310  178.9380  141.3090 C   0  0  0  0  0  0  0  0  0  0  0  0
  183.6240  178.2490  141.6300 O   0  0  0  0  0  0  0  0  0  0  0  0
  184.7280  179.5150  140.0050 N   0  0  0  0  0  2  0  0  0  0  0  0
  183.6680  179.4060  139.0130 C   0  0  0  0  0  2  0  0  0  0  0  0
  182.7580  177.3790  137.7590 N   0  0  0  0  0  2  0  0  0  0  0  0
  183.8660  178.1830  138.1760 C   0  0  0  0  0  0  0  0  0  0  0  0
  185.0330  177.8430  137.8490 O   0  0  0  0  0  0  0  0  0  0  0  0
  181.3730  177.7040  138.0680 C   0  0  0  0  0  2  0  0  0  0  0  0
  181.7530  175.5730  139.3070 C   0  0  0  0  0  1  0  0  0  0  0  0
  180.8150  176.7450  139.1080 C   0  0  1  0  0  3  0  0  0  0  0  0
  180.6460  177.4430  140.3670 N   0  0  0  0  0  1  0  0  0  0  0  0
  189.6920  177.8240  139.6380 C   0  0  1  0  0  3  0  0  0  0  0  0
  190.9950  177.0770  139.9170 C   0  0  0  0  0  1  0  0  0  0  0  0
  189.0030  177.2910  138.4470 N   0  0  0  0  0  0  0  0  0  0  0  0
  188.1700  178.5460  136.5180 C   0  0  0  0  0  2  0  0  0  0  0  0
  188.9050  179.5070  137.4210 C   0  0  0  0  0  2  0  0  0  0  0  0
  189.4020  178.0770  137.2770 C   0  0  0  0  0  3  0  0  0  0  0  0
  189.4960  175.9380  138.2010 C   0  0  0  0  0  2  0  0  0  0  0  0
  188.5470  175.2230  137.4670 O   0  0  0  0  0  0  0  0  0  0  0  0
  189.2890  174.3130  136.7100 C   0  0  1  0  0  3  0  0  0  0  0  0
  187.1800  173.3630  136.1270 F   0  0  0  0  0  0  0  0  0  0  0  0
  188.4820  173.0380  136.4620 C   0  0  0  0  0  0  0  0  0  0  0  0
  188.4760  172.2400  137.5930 F   0  0  0  0  0  0  0  0  0  0  0  0
  189.0460  172.3340  135.4160 F   0  0  0  0  0  0  0  0  0  0  0  0
  188.8800  175.4000  134.6160 O   0  0  0  0  0  0  0  0  0  0  0  0
  189.7350  174.9540  135.4250 C   0  0  0  0  0  0  0  0  0  0  0  0
  191.1220  175.0600  135.1040 N   0  0  0  0  0  2  0  0  0  0  0  0
  192.1690  174.5590  135.9810 C   0  0  0  0  0  2  0  0  0  0  0  0
  193.5940  175.3750  137.8490 C   0  0  0  0  0  1  0  0  0  0  0  0
  193.0150  175.7110  136.4890 C   0  0  0  0  0  2  0  0  0  0  0  0
  1 11  2  0  0  0  0
  2  5  2  0  0  0  0
  3 12  1  0  0  0  0
  3  7  1  0  0  0  0
  4  8  1  0  0  0  0
  6  2  1  0  0  0  0
  7  6  1  1  0  0  0
  7  1  1  0  0  0  0
  8  6  2  0  0  0  0
  9  4  2  0  0  0  0
  9  3  1  0  0  0  0
 10  1  1  0  0  0  0
 11  5  1  0  0  0  0
 11 13  1  0  0  0  0
 12 14  1  6  0  0  0
 12 10  1  0  0  0  0
 14 15  2  0  0  0  0
 16 14  1  0  0  0  0
 17 16  1  0  0  0  0
 18 21  1  0  0  0  0
 18 19  1  0  0  0  0
 19 17  1  0  0  0  0
 20 19  2  0  0  0  0
 21 23  1  0  0  0  0
 23 22  1  1  0  0  0
 23 24  1  0  0  0  0
 25 26  1  1  0  0  0
 25  4  1  0  0  0  0
 27 25  1  0  0  0  0
 28 30  1  0  0  0  0
 28 29  1  0  0  0  0
 30 29  1  0  0  0  0
 30 27  1  0  0  0  0
 31 27  1  0  0  0  0
 32 31  1  0  0  0  0
 33 39  1  6  0  0  0
 33 32  1  0  0  0  0
 34 35  1  0  0  0  0
 35 33  1  0  0  0  0
 35 36  1  0  0  0  0
 37 35  1  0  0  0  0
 38 39  2  0  0  0  0
 40 39  1  0  0  0  0
 40 41  1  0  0  0  0
 41 43  1  0  0  0  0
 43 42  1  0  0  0  0
M  END
>  <MODEL>
5

>  <REMARK>
 VINA RESULT:      -6.3      1.526      2.576
  Name = 
  15 active torsions:
  status: ('A' for Active; 'I' for Inactive)
    1  A    between atoms: N_1  and  C_42
    2  A    between atoms: C_2  and  C_10
    3  A    between atoms: C_6  and  C_18
    4  A    between atoms: N_7  and  C_35
    5  A    between atoms: N_7  and  C_39
    6  A    between atoms: N_7  and  C_43
    7  A    between atoms: N_9  and  C_17
    8  A    between atoms: C_10  and  N_40
    9  A    between atoms: C_11  and  C_18
   10  A    between atoms: C_12  and  C_42
   11  A    between atoms: C_15  and  C_36
   12  A    between atoms: C_17  and  C_33
   13  A    between atoms: C_18  and  O_32
   14  A    between atoms: C_20  and  C_39
   15  A    between atoms: O_32  and  C_43
                            x       y       z     vdW  Elec       q    Type
                         _______ _______ _______ _____ _____    ______ ____

>  <TORSDO>
F 15

$$$$
=
 OpenBabel10232410313D

 43 46  0  0  1  0  0  0  0  0999 V2000
  187.0870  178.0400  142.1030 C   0  0  0  0  0  0  0  0  0  0  0  0
  186.4820  178.9370  139.5240 N   0  0  0  0  0  0  0  0  0  0  0  0
  189.1540  177.2050  141.3890 N   0  0  0  0  0  0  0  0  0  0  0  0
  189.8010  177.2100  139.1250 C   0  0  0  0  0  0  0  0  0  0  0  0
  185.5900  178.9370  140.4410 N   0  0  0  0  0  0  0  0  0  0  0  0
  187.7870  178.4100  139.7850 C   0  0  0  0  0  0  0  0  0  0  0  0
  188.2350  178.3140  141.2120 C   0  0  1  0  0  3  0  0  0  0  0  0
  188.5620  177.9520  138.7990 C   0  0  0  0  0  3  0  0  0  0  0  0
  190.0200  176.8200  140.3490 N   0  0  0  0  0  0  0  0  0  0  0  0
  187.5250  177.0440  143.5220 S   0  0  0  0  0  0  0  0  0  0  0  0
  185.8350  178.3770  141.7490 C   0  0  0  0  0  0  0  0  0  0  0  0
  188.9630  176.3870  142.5820 C   0  0  2  0  0  3  0  0  0  0  0  0
  184.6800  178.1170  142.6510 C   0  0  0  0  0  1  0  0  0  0  0  0
  190.1970  176.3940  143.4220 C   0  0  0  0  0  0  0  0  0  0  0  0
  191.0100  175.4300  143.3680 O   0  0  0  0  0  0  0  0  0  0  0  0
  190.4210  177.4830  144.3200 N   0  0  0  0  0  2  0  0  0  0  0  0
  191.6060  177.5820  145.1590 C   0  0  0  0  0  2  0  0  0  0  0  0
  190.1760  177.1290  147.2230 N   0  0  0  0  0  2  0  0  0  0  0  0
  191.3710  176.9000  146.4690 C   0  0  0  0  0  0  0  0  0  0  0  0
  192.2510  176.1280  146.9280 O   0  0  0  0  0  0  0  0  0  0  0  0
  189.0920  177.9870  146.7640 C   0  0  0  0  0  2  0  0  0  0  0  0
  187.8300  177.5530  148.8710 C   0  0  0  0  0  1  0  0  0  0  0  0
  187.7650  177.5420  147.3580 C   0  0  1  0  0  3  0  0  0  0  0  0
  186.7140  178.4370  146.9170 N   0  0  0  0  0  1  0  0  0  0  0  0
  190.7120  176.7740  138.0150 C   0  0  1  0  0  3  0  0  0  0  0  0
  192.1440  176.7810  138.5460 C   0  0  0  0  0  1  0  0  0  0  0  0
  190.3320  175.4490  137.4870 N   0  0  0  0  0  0  0  0  0  0  0  0
  188.8150  175.7000  135.5820 C   0  0  0  0  0  2  0  0  0  0  0  0
  189.7420  176.8910  135.6040 C   0  0  0  0  0  2  0  0  0  0  0  0
  190.2600  175.5240  136.0260 C   0  0  0  0  0  3  0  0  0  0  0  0
  191.4130  174.5130  137.7820 C   0  0  0  0  0  2  0  0  0  0  0  0
  191.8990  173.9740  136.5890 O   0  0  0  0  0  0  0  0  0  0  0  0
  193.2200  173.6130  136.8700 C   0  0  1  0  0  3  0  0  0  0  0  0
  192.8320  171.3390  136.2640 F   0  0  0  0  0  0  0  0  0  0  0  0
  193.6470  172.4260  136.0060 C   0  0  0  0  0  0  0  0  0  0  0  0
  194.9610  172.0830  136.2680 F   0  0  0  0  0  0  0  0  0  0  0  0
  193.5260  172.7640  134.6720 F   0  0  0  0  0  0  0  0  0  0  0  0
  193.9980  175.5370  135.6740 O   0  0  0  0  0  0  0  0  0  0  0  0
  194.1280  174.7970  136.6850 C   0  0  0  0  0  0  0  0  0  0  0  0
  195.1450  175.0960  137.6430 N   0  0  0  0  0  2  0  0  0  0  0  0
  195.3640  174.2850  138.8290 C   0  0  0  0  0  2  0  0  0  0  0  0
  197.6860  174.4770  137.9580 C   0  0  0  0  0  1  0  0  0  0  0  0
  196.8350  174.2930  139.1990 C   0  0  0  0  0  2  0  0  0  0  0  0
  1 10  1  0  0  0  0
  2  6  1  0  0  0  0
  2  5  2  0  0  0  0
  3 12  1  0  0  0  0
  4  9  2  0  0  0  0
  5 11  1  0  0  0  0
  7  6  1  6  0  0  0
  7  3  1  0  0  0  0
  7  1  1  0  0  0  0
  8  4  1  0  0  0  0
  8  6  2  0  0  0  0
  9  3  1  0  0  0  0
 11  1  2  0  0  0  0
 11 13  1  0  0  0  0
 12 14  1  1  0  0  0
 12 10  1  0  0  0  0
 14 16  1  0  0  0  0
 15 14  2  0  0  0  0
 16 17  1  0  0  0  0
 17 19  1  0  0  0  0
 19 20  2  0  0  0  0
 19 18  1  0  0  0  0
 21 18  1  0  0  0  0
 21 23  1  0  0  0  0
 23 22  1  1  0  0  0
 24 23  1  0  0  0  0
 25 26  1  1  0  0  0
 25  4  1  0  0  0  0
 27 31  1  0  0  0  0
 27 25  1  0  0  0  0
 28 29  1  0  0  0  0
 28 30  1  0  0  0  0
 29 30  1  0  0  0  0
 30 27  1  0  0  0  0
 32 31  1  0  0  0  0
 33 32  1  6  0  0  0
 35 34  1  0  0  0  0
 35 36  1  0  0  0  0
 35 33  1  0  0  0  0
 37 35  1  0  0  0  0
 38 39  2  0  0  0  0
 39 33  1  0  0  0  0
 39 40  1  0  0  0  0
 40 41  1  0  0  0  0
 41 43  1  0  0  0  0
 42 43  1  0  0  0  0
M  END
>  <MODEL>
6

>  <REMARK>
 VINA RESULT:      -6.3      4.001      7.095
  Name = 
  15 active torsions:
  status: ('A' for Active; 'I' for Inactive)
    1  A    between atoms: N_1  and  C_42
    2  A    between atoms: C_2  and  C_10
    3  A    between atoms: C_6  and  C_18
    4  A    between atoms: N_7  and  C_35
    5  A    between atoms: N_7  and  C_39
    6  A    between atoms: N_7  and  C_43
    7  A    between atoms: N_9  and  C_17
    8  A    between atoms: C_10  and  N_40
    9  A    between atoms: C_11  and  C_18
   10  A    between atoms: C_12  and  C_42
   11  A    between atoms: C_15  and  C_36
   12  A    between atoms: C_17  and  C_33
   13  A    between atoms: C_18  and  O_32
   14  A    between atoms: C_20  and  C_39
   15  A    between atoms: O_32  and  C_43
                            x       y       z     vdW  Elec       q    Type
                         _______ _______ _______ _____ _____    ______ ____

>  <TORSDO>
F 15

$$$$
=
 OpenBabel10232410313D

 43 46  0  0  1  0  0  0  0  0999 V2000
  186.3120  178.4940  144.7530 C   0  0  0  0  0  0  0  0  0  0  0  0
  183.6270  179.0250  145.3240 N   0  0  0  0  0  0  0  0  0  0  0  0
  185.8670  178.4220  142.4550 N   0  0  0  0  0  0  0  0  0  0  0  0
  183.6820  178.5760  141.5900 C   0  0  0  0  0  0  0  0  0  0  0  0
  184.4500  178.7420  146.2620 N   0  0  0  0  0  0  0  0  0  0  0  0
  184.0510  179.0060  143.9580 C   0  0  0  0  0  0  0  0  0  0  0  0
  185.5190  179.1260  143.6760 C   0  0  1  0  0  3  0  0  0  0  0  0
  183.1830  178.8170  142.9610 C   0  0  0  0  0  3  0  0  0  0  0  0
  184.9480  178.3330  141.3930 N   0  0  0  0  0  0  0  0  0  0  0  0
  187.8380  177.7710  144.1650 S   0  0  0  0  0  0  0  0  0  0  0  0
  185.8130  178.3520  145.9920 C   0  0  0  0  0  0  0  0  0  0  0  0
  187.0940  177.6330  142.4880 C   0  0  2  0  0  3  0  0  0  0  0  0
  186.6160  177.7320  147.0820 C   0  0  0  0  0  1  0  0  0  0  0  0
  188.0470  178.1080  141.4420 C   0  0  0  0  0  0  0  0  0  0  0  0
  188.0620  179.3210  141.0970 O   0  0  0  0  0  0  0  0  0  0  0  0
  188.9070  177.1610  140.8040 N   0  0  0  0  0  2  0  0  0  0  0  0
  189.8800  177.5390  139.7900 C   0  0  0  0  0  2  0  0  0  0  0  0
  192.2840  176.7590  139.4350 N   0  0  0  0  0  2  0  0  0  0  0  0
  191.2690  177.2960  140.2890 C   0  0  0  0  0  0  0  0  0  0  0  0
  191.5440  177.5490  141.4900 O   0  0  0  0  0  0  0  0  0  0  0  0
  192.0660  176.4550  138.0270 C   0  0  0  0  0  2  0  0  0  0  0  0
  193.8510  176.5320  136.2860 C   0  0  0  0  0  1  0  0  0  0  0  0
  193.2710  175.7390  137.4390 C   0  0  1  0  0  3  0  0  0  0  0  0
  194.2830  175.5750  138.4640 N   0  0  0  0  0  1  0  0  0  0  0  0
  182.7020  178.4510  140.4600 C   0  0  1  0  0  3  0  0  0  0  0  0
  183.2240  179.2780  139.2870 C   0  0  0  0  0  1  0  0  0  0  0  0
  182.4840  177.0420  140.0800 N   0  0  0  0  0  0  0  0  0  0  0  0
  180.3670  175.8440  140.3520 C   0  0  0  0  0  2  0  0  0  0  0  0
  180.1150  177.3090  140.6170 C   0  0  0  0  0  2  0  0  0  0  0  0
  181.1240  176.8980  139.5560 C   0  0  0  0  0  3  0  0  0  0  0  0
  183.3730  176.7270  138.9650 C   0  0  0  0  0  2  0  0  0  0  0  0
  183.1090  175.4330  138.5110 O   0  0  0  0  0  0  0  0  0  0  0  0
  184.1950  175.1110  137.6930 C   0  0  1  0  0  3  0  0  0  0  0  0
  184.8610  172.9250  138.3750 F   0  0  0  0  0  0  0  0  0  0  0  0
  184.2020  173.6160  137.3750 C   0  0  0  0  0  0  0  0  0  0  0  0
  184.8320  173.3790  136.1660 F   0  0  0  0  0  0  0  0  0  0  0  0
  182.9000  173.1560  137.3040 F   0  0  0  0  0  0  0  0  0  0  0  0
  183.1180  176.0060  135.7500 O   0  0  0  0  0  0  0  0  0  0  0  0
  184.1660  175.9500  136.4450 C   0  0  0  0  0  0  0  0  0  0  0  0
  185.3190  176.6840  136.0310 N   0  0  0  0  0  2  0  0  0  0  0  0
  186.5690  176.6620  136.7730 C   0  0  0  0  0  2  0  0  0  0  0  0
  187.8410  178.7900  136.9670 C   0  0  0  0  0  1  0  0  0  0  0  0
  186.7290  177.9490  137.5600 C   0  0  0  0  0  2  0  0  0  0  0  0
  1 11  2  0  0  0  0
  2  5  2  0  0  0  0
  3 12  1  0  0  0  0
  3  7  1  0  0  0  0
  4  8  1  0  0  0  0
  6  2  1  0  0  0  0
  7  6  1  1  0  0  0
  7  1  1  0  0  0  0
  8  6  2  0  0  0  0
  9  4  2  0  0  0  0
  9  3  1  0  0  0  0
 10  1  1  0  0  0  0
 11  5  1  0  0  0  0
 11 13  1  0  0  0  0
 12 14  1  6  0  0  0
 12 10  1  0  0  0  0
 15 14  2  0  0  0  0
 16 14  1  0  0  0  0
 17 19  1  0  0  0  0
 17 16  1  0  0  0  0
 18 19  1  0  0  0  0
 19 20  2  0  0  0  0
 21 18  1  0  0  0  0
 23 22  1  6  0  0  0
 23 21  1  0  0  0  0
 23 24  1  0  0  0  0
 25 26  1  6  0  0  0
 25  4  1  0  0  0  0
 27 25  1  0  0  0  0
 28 29  1  0  0  0  0
 30 27  1  0  0  0  0
 30 28  1  0  0  0  0
 30 29  1  0  0  0  0
 31 27  1  0  0  0  0
 32 31  1  0  0  0  0
 33 39  1  6  0  0  0
 33 32  1  0  0  0  0
 35 33  1  0  0  0  0
 35 34  1  0  0  0  0
 36 35  1  0  0  0  0
 37 35  1  0  0  0  0
 38 39  2  0  0  0  0
 40 39  1  0  0  0  0
 40 41  1  0  0  0  0
 41 43  1  0  0  0  0
 42 43  1  0  0  0  0
M  END
>  <MODEL>
7

>  <REMARK>
 VINA RESULT:      -6.1      2.784      6.723
  Name = 
  15 active torsions:
  status: ('A' for Active; 'I' for Inactive)
    1  A    between atoms: N_1  and  C_42
    2  A    between atoms: C_2  and  C_10
    3  A    between atoms: C_6  and  C_18
    4  A    between atoms: N_7  and  C_35
    5  A    between atoms: N_7  and  C_39
    6  A    between atoms: N_7  and  C_43
    7  A    between atoms: N_9  and  C_17
    8  A    between atoms: C_10  and  N_40
    9  A    between atoms: C_11  and  C_18
   10  A    between atoms: C_12  and  C_42
   11  A    between atoms: C_15  and  C_36
   12  A    between atoms: C_17  and  C_33
   13  A    between atoms: C_18  and  O_32
   14  A    between atoms: C_20  and  C_39
   15  A    between atoms: O_32  and  C_43
                            x       y       z     vdW  Elec       q    Type
                         _______ _______ _______ _____ _____    ______ ____

>  <TORSDO>
F 15

$$$$
=
 OpenBabel10232410313D

 43 46  0  0  1  0  0  0  0  0999 V2000
  186.7420  178.2400  145.2530 C   0  0  0  0  0  0  0  0  0  0  0  0
  184.0890  178.9350  145.8010 N   0  0  0  0  0  0  0  0  0  0  0  0
  186.3600  178.3770  142.9470 N   0  0  0  0  0  0  0  0  0  0  0  0
  184.2200  178.7660  142.0450 C   0  0  0  0  0  0  0  0  0  0  0  0
  184.8610  178.5180  146.7330 N   0  0  0  0  0  0  0  0  0  0  0  0
  184.5510  178.9860  144.4480 C   0  0  0  0  0  0  0  0  0  0  0  0
  186.0310  179.0120  144.2100 C   0  0  1  0  0  3  0  0  0  0  0  0
  183.7000  178.9420  143.4200 C   0  0  0  0  0  3  0  0  0  0  0  0
  185.4690  178.4400  141.8600 N   0  0  0  0  0  0  0  0  0  0  0  0
  188.2250  177.4460  144.6460 S   0  0  0  0  0  0  0  0  0  0  0  0
  186.1980  178.0440  146.4660 C   0  0  0  0  0  0  0  0  0  0  0  0
  187.5220  177.4940  142.9470 C   0  0  2  0  0  3  0  0  0  0  0  0
  186.9190  177.2830  147.5220 C   0  0  0  0  0  1  0  0  0  0  0  0
  188.5380  177.9710  141.9630 C   0  0  0  0  0  0  0  0  0  0  0  0
  189.6620  178.3880  142.3580 O   0  0  0  0  0  0  0  0  0  0  0  0
  188.2040  177.9910  140.5740 N   0  0  0  0  0  2  0  0  0  0  0  0
  189.1410  178.4190  139.5450 C   0  0  0  0  0  2  0  0  0  0  0  0
  189.1980  177.5030  137.1640 N   0  0  0  0  0  2  0  0  0  0  0  0
  188.5330  178.2480  138.1890 C   0  0  0  0  0  0  0  0  0  0  0  0
  187.4250  178.7880  137.9380 O   0  0  0  0  0  0  0  0  0  0  0  0
  190.4710  176.8250  137.3660 C   0  0  0  0  0  2  0  0  0  0  0  0
  189.2410  174.7080  136.8890 C   0  0  0  0  0  1  0  0  0  0  0  0
  190.2490  175.3830  137.7950 C   0  0  1  0  0  3  0  0  0  0  0  0
  191.5060  174.6620  137.7340 N   0  0  0  0  0  1  0  0  0  0  0  0
  183.2670  178.8050  140.8870 C   0  0  1  0  0  3  0  0  0  0  0  0
  184.0860  178.8660  139.6000 C   0  0  0  0  0  1  0  0  0  0  0  0
  182.3510  177.6480  140.8970 N   0  0  0  0  0  0  0  0  0  0  0  0
  180.0050  178.0390  141.4760 C   0  0  0  0  0  2  0  0  0  0  0  0
  180.6090  179.3550  141.0510 C   0  0  0  0  0  2  0  0  0  0  0  0
  181.0500  178.0680  140.3700 C   0  0  0  0  0  3  0  0  0  0  0  0
  182.8580  176.6570  139.9510 C   0  0  0  0  0  2  0  0  0  0  0  0
  182.0490  176.6450  138.8120 O   0  0  0  0  0  0  0  0  0  0  0  0
  182.3260  175.4250  138.1880 C   0  0  1  0  0  3  0  0  0  0  0  0
  179.9820  175.6640  137.8180 F   0  0  0  0  0  0  0  0  0  0  0  0
  181.0390  174.7850  137.6670 C   0  0  0  0  0  0  0  0  0  0  0  0
  180.7640  173.6180  138.3570 F   0  0  0  0  0  0  0  0  0  0  0  0
  181.1830  174.4930  136.3240 F   0  0  0  0  0  0  0  0  0  0  0  0
  183.2590  176.6340  136.3430 O   0  0  0  0  0  0  0  0  0  0  0  0
  183.3370  175.6250  137.0930 C   0  0  0  0  0  0  0  0  0  0  0  0
  184.3870  174.6800  136.8850 N   0  0  0  0  0  2  0  0  0  0  0  0
  184.5360  173.4850  137.7010 C   0  0  0  0  0  2  0  0  0  0  0  0
  183.0790  171.6050  136.9760 C   0  0  0  0  0  1  0  0  0  0  0  0
  184.4430  172.2470  136.8290 C   0  0  0  0  0  2  0  0  0  0  0  0
  1 11  2  0  0  0  0
  2  5  2  0  0  0  0
  3  7  1  0  0  0  0
  4  8  1  0  0  0  0
  6  2  1  0  0  0  0
  7  6  1  1  0  0  0
  7  1  1  0  0  0  0
  8  6  2  0  0  0  0
  9  4  2  0  0  0  0
  9  3  1  0  0  0  0
 10  1  1  0  0  0  0
 11  5  1  0  0  0  0
 11 13  1  0  0  0  0
 12 14  1  6  0  0  0
 12  3  1  0  0  0  0
 12 10  1  0  0  0  0
 14 15  2  0  0  0  0
 16 14  1  0  0  0  0
 17 16  1  0  0  0  0
 18 21  1  0  0  0  0
 18 19  1  0  0  0  0
 19 17  1  0  0  0  0
 20 19  2  0  0  0  0
 21 23  1  0  0  0  0
 23 22  1  6  0  0  0
 24 23  1  0  0  0  0
 25 26  1  6  0  0  0
 25 27  1  0  0  0  0
 25  4  1  0  0  0  0
 29 28  1  0  0  0  0
 30 27  1  0  0  0  0
 30 29  1  0  0  0  0
 30 28  1  0  0  0  0
 31 27  1  0  0  0  0
 32 31  1  0  0  0  0
 33 39  1  6  0  0  0
 33 32  1  0  0  0  0
 35 34  1  0  0  0  0
 35 33  1  0  0  0  0
 35 36  1  0  0  0  0
 37 35  1  0  0  0  0
 38 39  2  0  0  0  0
 40 39  1  0  0  0  0
 40 41  1  0  0  0  0
 43 42  1  0  0  0  0
 43 41  1  0  0  0  0
M  END
>  <MODEL>
8

>  <REMARK>
 VINA RESULT:      -6.1      2.822      6.112
  Name = 
  15 active torsions:
  status: ('A' for Active; 'I' for Inactive)
    1  A    between atoms: N_1  and  C_42
    2  A    between atoms: C_2  and  C_10
    3  A    between atoms: C_6  and  C_18
    4  A    between atoms: N_7  and  C_35
    5  A    between atoms: N_7  and  C_39
    6  A    between atoms: N_7  and  C_43
    7  A    between atoms: N_9  and  C_17
    8  A    between atoms: C_10  and  N_40
    9  A    between atoms: C_11  and  C_18
   10  A    between atoms: C_12  and  C_42
   11  A    between atoms: C_15  and  C_36
   12  A    between atoms: C_17  and  C_33
   13  A    between atoms: C_18  and  O_32
   14  A    between atoms: C_20  and  C_39
   15  A    between atoms: O_32  and  C_43
                            x       y       z     vdW  Elec       q    Type
                         _______ _______ _______ _____ _____    ______ ____

>  <TORSDO>
F 15

$$$$
=
 OpenBabel10232410313D

 43 46  0  0  1  0  0  0  0  0999 V2000
  182.0540  179.0630  140.3770 C   0  0  0  0  0  0  0  0  0  0  0  0
  181.2190  179.1730  143.0440 N   0  0  0  0  0  0  0  0  0  0  0  0
  184.2760  178.7230  141.0290 N   0  0  0  0  0  0  0  0  0  0  0  0
  184.9540  178.7950  143.2820 C   0  0  0  0  0  0  0  0  0  0  0  0
  180.4210  179.4930  142.0960 N   0  0  0  0  0  0  0  0  0  0  0  0
  182.5760  178.8210  142.7590 C   0  0  0  0  0  0  0  0  0  0  0  0
  182.9090  178.3730  141.3670 C   0  0  1  0  0  3  0  0  0  0  0  0
  183.5370  178.9490  143.6780 C   0  0  0  0  0  3  0  0  0  0  0  0
  185.2750  178.7520  142.0200 N   0  0  0  0  0  0  0  0  0  0  0  0
  182.8800  179.3490  138.8180 S   0  0  0  0  0  0  0  0  0  0  0  0
  180.8520  179.5570  140.7210 C   0  0  0  0  0  0  0  0  0  0  0  0
  184.4970  179.2590  139.6890 C   0  0  2  0  0  3  0  0  0  0  0  0
  179.9820  180.2360  139.7220 C   0  0  0  0  0  1  0  0  0  0  0  0
  185.4620  178.4040  138.9380 C   0  0  0  0  0  0  0  0  0  0  0  0
  185.0440  177.5410  138.1170 O   0  0  0  0  0  0  0  0  0  0  0  0
  186.8610  178.5440  139.1940 N   0  0  0  0  0  2  0  0  0  0  0  0
  187.8720  177.7670  138.4920 C   0  0  0  0  0  2  0  0  0  0  0  0
  189.0850  177.7850  136.2470 N   0  0  0  0  0  2  0  0  0  0  0  0
  188.2120  178.4170  137.1890 C   0  0  0  0  0  0  0  0  0  0  0  0
  187.7400  179.5530  136.9260 O   0  0  0  0  0  0  0  0  0  0  0  0
  189.6620  176.4640  136.4530 C   0  0  0  0  0  2  0  0  0  0  0  0
  187.8840  175.7920  134.8370 C   0  0  0  0  0  1  0  0  0  0  0  0
  188.6710  175.3780  136.0630 C   0  0  1  0  0  3  0  0  0  0  0  0
  189.3880  174.1500  135.7790 N   0  0  0  0  0  1  0  0  0  0  0  0
  186.0230  178.8540  144.3350 C   0  0  1  0  0  3  0  0  0  0  0  0
  185.4080  179.4480  145.6010 C   0  0  0  0  0  1  0  0  0  0  0  0
  186.6130  177.5250  144.5870 N   0  0  0  0  0  0  0  0  0  0  0  0
  188.1730  176.1570  143.2880 C   0  0  0  0  0  2  0  0  0  0  0  0
  187.8540  177.3960  142.4860 C   0  0  0  0  0  2  0  0  0  0  0  0
  187.9550  177.4840  144.0020 C   0  0  0  0  0  3  0  0  0  0  0  0
  186.8050  177.3760  146.0270 C   0  0  0  0  0  2  0  0  0  0  0  0
  187.9700  176.6430  146.2670 O   0  0  0  0  0  0  0  0  0  0  0  0
  188.8910  177.5790  146.7440 C   0  0  1  0  0  3  0  0  0  0  0  0
  188.0570  176.8990  148.8730 F   0  0  0  0  0  0  0  0  0  0  0  0
  188.5450  177.9890  148.1760 C   0  0  0  0  0  0  0  0  0  0  0  0
  187.5950  178.9940  148.1760 F   0  0  0  0  0  0  0  0  0  0  0  0
  189.6850  178.4450  148.8100 F   0  0  0  0  0  0  0  0  0  0  0  0
  190.6510  176.0920  147.4010 O   0  0  0  0  0  0  0  0  0  0  0  0
  190.2860  177.0270  146.6400 C   0  0  0  0  0  0  0  0  0  0  0  0
  191.2120  177.5550  145.6880 N   0  0  0  0  0  2  0  0  0  0  0  0
  190.8700  178.6410  144.7840 C   0  0  0  0  0  2  0  0  0  0  0  0
  191.6600  176.9160  143.1760 C   0  0  0  0  0  1  0  0  0  0  0  0
  191.5000  178.4020  143.4250 C   0  0  0  0  0  2  0  0  0  0  0  0
  1 11  2  0  0  0  0
  3  7  1  0  0  0  0
  3  9  1  0  0  0  0
  4  8  1  0  0  0  0
  4 25  1  0  0  0  0
  5  2  2  0  0  0  0
  6  2  1  0  0  0  0
  6  8  2  0  0  0  0
  7  1  1  6  0  0  0
  7  6  1  0  0  0  0
  9  4  2  0  0  0  0
 10 12  1  0  0  0  0
 10  1  1  0  0  0  0
 11  5  1  0  0  0  0
 12 14  1  6  0  0  0
 12  3  1  0  0  0  0
 13 11  1  0  0  0  0
 14 16  1  0  0  0  0
 15 14  2  0  0  0  0
 17 16  1  0  0  0  0
 18 21  1  0  0  0  0
 18 19  1  0  0  0  0
 19 17  1  0  0  0  0
 20 19  2  0  0  0  0
 23 22  1  6  0  0  0
 23 21  1  0  0  0  0
 24 23  1  0  0  0  0
 25 27  1  0  0  0  0
 25 26  1  1  0  0  0
 27 31  1  0  0  0  0
 28 30  1  0  0  0  0
 29 28  1  0  0  0  0
 29 30  1  0  0  0  0
 30 27  1  0  0  0  0
 31 32  1  0  0  0  0
 33 32  1  1  0  0  0
 33 35  1  0  0  0  0
 35 36  1  0  0  0  0
 35 37  1  0  0  0  0
 35 34  1  0  0  0  0
 39 33  1  0  0  0  0
 39 38  2  0  0  0  0
 40 39  1  0  0  0  0
 41 40  1  0  0  0  0
 42 43  1  0  0  0  0
 43 41  1  0  0  0  0
M  END
>  <MODEL>
9

>  <REMARK>
 VINA RESULT:      -6.1      4.527      8.395
  Name = 
  15 active torsions:
  status: ('A' for Active; 'I' for Inactive)
    1  A    between atoms: N_1  and  C_42
    2  A    between atoms: C_2  and  C_10
    3  A    between atoms: C_6  and  C_18
    4  A    between atoms: N_7  and  C_35
    5  A    between atoms: N_7  and  C_39
    6  A    between atoms: N_7  and  C_43
    7  A    between atoms: N_9  and  C_17
    8  A    between atoms: C_10  and  N_40
    9  A    between atoms: C_11  and  C_18
   10  A    between atoms: C_12  and  C_42
   11  A    between atoms: C_15  and  C_36
   12  A    between atoms: C_17  and  C_33
   13  A    between atoms: C_18  and  O_32
   14  A    between atoms: C_20  and  C_39
   15  A    between atoms: O_32  and  C_43
                            x       y       z     vdW  Elec       q    Type
                         _______ _______ _______ _____ _____    ______ ____

>  <TORSDO>
F 15

$$$$
