=
 OpenBabel10222421563D

 40 45  0  0  1  0  0  0  0  0999 V2000
  182.4390  179.2150  137.7670 C   0  0  0  0  0  2  0  0  0  0  0  0
  186.2680  177.3940  137.6970 C   0  0  1  0  0  0  0  0  0  0  0  0
  183.0290  177.3530  134.8760 C   0  0  0  0  0  2  0  0  0  0  0  0
  189.3150  178.4580  141.4820 C   0  0  0  0  0  2  0  0  0  0  0  0
  188.7610  177.4270  137.3680 C   0  0  0  0  0  0  0  0  0  0  0  0
  184.7990  176.4750  135.8630 C   0  0  0  0  0  2  0  0  0  0  0  0
  185.3530  176.2420  137.2620 C   0  0  1  0  0  3  0  0  0  0  0  0
  184.3200  178.1770  139.1280 C   0  0  0  0  0  2  0  0  0  0  0  0
  187.8510  177.9580  139.5550 C   0  0  1  0  0  3  0  0  0  0  0  0
  187.4460  177.7510  136.7450 C   0  0  2  0  0  3  0  0  0  0  0  0
  181.5740  177.9910  137.8950 C   0  0  0  0  0  0  0  0  0  0  0  0
  185.7450  178.4140  138.6320 C   0  0  1  0  0  3  0  0  0  0  0  0
  190.8420  176.7960  137.7440 C   0  0  0  0  0  0  0  0  0  0  0  0
  188.9420  177.4980  138.6930 N   0  0  0  0  0  0  0  0  0  0  0  0
  190.8980  177.0090  140.2480 C   0  0  0  0  0  3  0  0  0  0  0  0
  181.0410  177.7290  139.0100 O   0  0  0  0  0  0  0  0  0  0  0  0
  186.5880  177.3220  139.1560 N   0  0  1  0  0  0  0  0  0  0  0  0
  181.3330  177.1330  136.7660 N   0  0  0  0  0  0  0  0  0  0  0  0
  190.5070  177.5610  141.3990 C   0  0  0  0  0  0  0  0  0  0  0  0
  190.2270  177.1270  138.9380 C   0  0  0  0  0  0  0  0  0  0  0  0
  187.4090  179.1970  136.2830 C   0  0  0  0  0  1  0  0  0  0  0  0
  189.9100  176.9990  136.7350 C   0  0  0  0  0  0  0  0  0  0  0  0
  188.0880  177.7000  141.0330 C   0  0  0  0  0  2  0  0  0  0  0  0
  181.6530  177.5400  135.4310 C   0  0  0  0  0  0  0  0  0  0  0  0
  183.9900  177.6110  135.8520 O   0  0  0  0  0  0  0  0  0  0  0  0
  184.0820  180.5840  138.8620 O   0  0  0  0  0  1  0  0  0  0  0  0
  183.3830  179.3770  138.9570 C   0  0  1  0  0  3  0  0  0  0  0  0
  180.7390  177.9480  134.6680 O   0  0  0  0  0  0  0  0  0  0  0  0
  186.0570  175.0380  137.2850 O   0  0  0  0  0  1  0  0  0  0  0  0
  190.0530  176.6900  135.2800 C   0  0  0  0  0  2  0  0  0  0  0  0
  189.7380  175.3510  135.0590 O   0  0  0  0  0  1  0  0  0  0  0  0
  180.5820  175.8970  136.9420 C   0  0  0  0  0  2  0  0  0  0  0  0
  181.4600  174.8340  137.1460 O   0  0  0  0  0  1  0  0  0  0  0  0
  191.2590  177.2660  142.5790 N   0  0  0  0  0  2  0  0  0  0  0  0
  190.0230  176.9480  144.6390 C   0  0  0  0  0  2  0  0  0  0  0  0
  191.4970  176.9760  144.9720 C   0  0  0  0  0  2  0  0  0  0  0  0
  190.9530  177.8630  143.8690 C   0  0  0  0  0  3  0  0  0  0  0  0
  192.1600  176.3390  137.6250 O   0  0  0  0  0  0  0  0  0  0  0  0
  194.0020  174.7930  137.7260 C   0  0  0  0  0  1  0  0  0  0  0  0
  192.5070  174.9640  137.5470 C   0  0  0  0  0  2  0  0  0  0  0  0
  1 11  1  0  0  0  0
  1 27  1  0  0  0  0
  2 12  1  0  0  0  0
  2 17  1  0  0  0  0
  3 24  1  0  0  0  0
  3 25  1  0  0  0  0
  5 14  1  0  0  0  0
  6  7  1  0  0  0  0
  7 29  1  0  0  0  0
  7  2  1  0  0  0  0
  9 23  1  0  0  0  0
 10  5  1  0  0  0  0
 10  2  1  0  0  0  0
 11 16  2  0  0  0  0
 12  8  1  0  0  0  0
 12 17  1  0  0  0  0
 13 20  2  0  0  0  0
 14 20  1  0  0  0  0
 14  9  1  0  0  0  0
 15 19  2  0  0  0  0
 17  9  1  0  0  0  0
 18 32  1  0  0  0  0
 18 11  1  0  0  0  0
 19  4  1  0  0  0  0
 19 34  1  0  0  0  0
 20 15  1  0  0  0  0
 21 10  1  0  0  0  0
 22  5  2  0  0  0  0
 22 13  1  0  0  0  0
 23  4  1  0  0  0  0
 24 18  1  0  0  0  0
 25  6  1  0  0  0  0
 26 27  1  0  0  0  0
 27  8  1  0  0  0  0
 28 24  2  0  0  0  0
 30 22  1  0  0  0  0
 31 30  1  0  0  0  0
 32 33  1  0  0  0  0
 34 37  1  0  0  0  0
 35 36  1  0  0  0  0
 37 35  1  0  0  0  0
 37 36  1  0  0  0  0
 38 13  1  0  0  0  0
 40 38  1  0  0  0  0
 40 39  1  0  0  0  0
M  END
>  <MODEL>
1

>  <REMARK>
 VINA RESULT:      -6.1      0.000      0.000
  Name = 
  6 active torsions:
  status: ('A' for Active; 'I' for Inactive)
    1  A    between atoms: N_5  and  C_24
    2  A    between atoms: N_5  and  C_36
    3  A    between atoms: C_15  and  O_29
    4  A    between atoms: C_18  and  C_31
    5  A    between atoms: N_23  and  C_27
    6  A    between atoms: C_25  and  O_29
                            x       y       z     vdW  Elec       q    Type
                         _______ _______ _______ _____ _____    ______ ____

>  <TORSDO>
F 6

$$$$
=
 OpenBabel10222421563D

 40 45  0  0  1  0  0  0  0  0999 V2000
  191.3400  178.2030  145.7090 C   0  0  0  0  0  2  0  0  0  0  0  0
  188.7760  177.4420  142.4170 C   0  0  1  0  0  0  0  0  0  0  0  0
  187.9570  178.2140  146.5620 C   0  0  0  0  0  2  0  0  0  0  0  0
  190.9380  177.0060  137.9590 C   0  0  0  0  0  2  0  0  0  0  0  0
  187.5530  178.1150  140.3250 C   0  0  0  0  0  0  0  0  0  0  0  0
  187.5090  177.3160  144.5950 C   0  0  0  0  0  2  0  0  0  0  0  0
  188.2000  176.5180  143.4980 C   0  0  1  0  0  3  0  0  0  0  0  0
  191.0380  177.0030  143.4860 C   0  0  0  0  0  2  0  0  0  0  0  0
  189.8250  177.2800  140.1480 C   0  0  1  0  0  3  0  0  0  0  0  0
  187.7900  178.4500  141.7580 C   0  0  2  0  0  3  0  0  0  0  0  0
  191.1220  176.9430  146.5000 C   0  0  0  0  0  0  0  0  0  0  0  0
  190.2280  177.7260  142.4130 C   0  0  1  0  0  3  0  0  0  0  0  0
  186.6590  177.7930  138.3330 C   0  0  0  0  0  0  0  0  0  0  0  0
  188.5020  177.5390  139.5760 N   0  0  0  0  0  0  0  0  0  0  0  0
  188.6100  176.7160  137.1690 C   0  0  0  0  0  3  0  0  0  0  0  0
  192.0220  176.0560  146.5040 O   0  0  0  0  0  0  0  0  0  0  0  0
  189.6920  176.7050  141.4930 N   0  0  1  0  0  0  0  0  0  0  0  0
  189.9190  176.7470  147.2640 N   0  0  0  0  0  0  0  0  0  0  0  0
  189.9170  176.5220  136.9810 C   0  0  0  0  0  0  0  0  0  0  0  0
  187.9700  177.3490  138.3390 C   0  0  0  0  0  0  0  0  0  0  0  0
  188.2400  179.8930  141.9080 C   0  0  0  0  0  1  0  0  0  0  0  0
  186.3930  178.2960  139.6000 C   0  0  0  0  0  0  0  0  0  0  0  0
  190.6880  176.3610  139.3010 C   0  0  0  0  0  2  0  0  0  0  0  0
  189.0200  177.8260  147.5400 C   0  0  0  0  0  0  0  0  0  0  0  0
  188.4350  178.1210  145.2560 O   0  0  0  0  0  0  0  0  0  0  0  0
  192.2320  179.1160  143.6720 O   0  0  0  0  0  1  0  0  0  0  0  0
  191.9320  177.9190  144.3290 C   0  0  1  0  0  3  0  0  0  0  0  0
  189.0380  178.3800  148.6700 O   0  0  0  0  0  0  0  0  0  0  0  0
  187.2870  175.6290  142.9290 O   0  0  0  0  0  1  0  0  0  0  0  0
  185.0900  178.8000  140.1300 C   0  0  0  0  0  2  0  0  0  0  0  0
  184.6930  179.9160  139.3980 O   0  0  0  0  0  1  0  0  0  0  0  0
  189.6860  175.4750  147.9340 C   0  0  0  0  0  2  0  0  0  0  0  0
  188.3470  175.3760  148.3090 O   0  0  0  0  0  1  0  0  0  0  0  0
  190.3330  175.8210  135.8060 N   0  0  0  0  0  2  0  0  0  0  0  0
  190.9620  173.5960  136.5270 C   0  0  0  0  0  2  0  0  0  0  0  0
  191.0090  173.6330  135.0170 C   0  0  0  0  0  2  0  0  0  0  0  0
  191.4190  174.8540  135.8170 C   0  0  0  0  0  3  0  0  0  0  0  0
  185.7980  177.7230  137.2310 O   0  0  0  0  0  0  0  0  0  0  0  0
  183.4400  177.2510  137.1480 C   0  0  0  0  0  1  0  0  0  0  0  0
  184.8420  176.6870  137.0510 C   0  0  0  0  0  2  0  0  0  0  0  0
  1 11  1  0  0  0  0
  2  7  1  0  0  0  0
  3 24  1  0  0  0  0
  4 23  1  0  0  0  0
  5 10  1  0  0  0  0
  6 25  1  0  0  0  0
  7  6  1  0  0  0  0
  8 27  1  0  0  0  0
  9 17  1  0  0  0  0
 10 21  1  0  0  0  0
 10  2  1  0  0  0  0
 11 16  2  0  0  0  0
 11 18  1  0  0  0  0
 12  2  1  0  0  0  0
 12  8  1  0  0  0  0
 13 20  2  0  0  0  0
 13 22  1  0  0  0  0
 14  9  1  0  0  0  0
 14  5  1  0  0  0  0
 15 20  1  0  0  0  0
 17 12  1  0  0  0  0
 17  2  1  0  0  0  0
 18 24  1  0  0  0  0
 18 32  1  0  0  0  0
 19 15  2  0  0  0  0
 19  4  1  0  0  0  0
 20 14  1  0  0  0  0
 22 30  1  0  0  0  0
 22  5  2  0  0  0  0
 23  9  1  0  0  0  0
 24 28  2  0  0  0  0
 25  3  1  0  0  0  0
 26 27  1  0  0  0  0
 27  1  1  0  0  0  0
 29  7  1  0  0  0  0
 31 30  1  0  0  0  0
 32 33  1  0  0  0  0
 34 37  1  0  0  0  0
 34 19  1  0  0  0  0
 36 37  1  0  0  0  0
 36 35  1  0  0  0  0
 37 35  1  0  0  0  0
 38 13  1  0  0  0  0
 40 39  1  0  0  0  0
 40 38  1  0  0  0  0
M  END
>  <MODEL>
2

>  <REMARK>
 VINA RESULT:      -4.2      3.925      8.844
  Name = 
  6 active torsions:
  status: ('A' for Active; 'I' for Inactive)
    1  A    between atoms: N_5  and  C_24
    2  A    between atoms: N_5  and  C_36
    3  A    between atoms: C_15  and  O_29
    4  A    between atoms: C_18  and  C_31
    5  A    between atoms: N_23  and  C_27
    6  A    between atoms: C_25  and  O_29
                            x       y       z     vdW  Elec       q    Type
                         _______ _______ _______ _____ _____    ______ ____

>  <TORSDO>
F 6

$$$$
=
 OpenBabel10222421563D

 40 45  0  0  1  0  0  0  0  0999 V2000
  187.1150  178.4710  136.6700 C   0  0  0  0  0  2  0  0  0  0  0  0
  190.1630  175.5250  136.7910 C   0  0  1  0  0  0  0  0  0  0  0  0
  186.4060  175.6690  134.7170 C   0  0  0  0  0  2  0  0  0  0  0  0
  194.2710  176.6670  139.3540 C   0  0  0  0  0  2  0  0  0  0  0  0
  192.3980  174.5810  136.1250 C   0  0  0  0  0  0  0  0  0  0  0  0
  188.0730  174.6160  135.7100 C   0  0  0  0  0  2  0  0  0  0  0  0
  188.8940  174.6870  136.9900 C   0  0  1  0  0  3  0  0  0  0  0  0
  188.9430  177.3640  138.0490 C   0  0  0  0  0  2  0  0  0  0  0  0
  192.2720  176.0930  138.0210 C   0  0  1  0  0  3  0  0  0  0  0  0
  191.1000  175.1120  135.6190 C   0  0  2  0  0  3  0  0  0  0  0  0
  186.0230  177.7400  137.4000 C   0  0  0  0  0  0  0  0  0  0  0  0
  190.1960  176.9130  137.3030 C   0  0  1  0  0  3  0  0  0  0  0  0
  194.2590  173.4330  136.4210 C   0  0  0  0  0  0  0  0  0  0  0  0
  192.9340  175.0240  137.2690 N   0  0  0  0  0  0  0  0  0  0  0  0
  195.0280  174.4370  138.5940 C   0  0  0  0  0  3  0  0  0  0  0  0
  185.7530  178.0670  138.5910 O   0  0  0  0  0  0  0  0  0  0  0  0
  190.8270  175.8390  138.0940 N   0  0  1  0  0  0  0  0  0  0  0  0
  185.2730  176.6940  136.7580 N   0  0  0  0  0  0  0  0  0  0  0  0
  195.1150  175.4400  139.4700 C   0  0  0  0  0  0  0  0  0  0  0  0
  194.0910  174.3350  137.4570 C   0  0  0  0  0  0  0  0  0  0  0  0
  191.3270  176.2390  134.6250 C   0  0  0  0  0  1  0  0  0  0  0  0
  193.1820  173.5970  135.5590 C   0  0  0  0  0  0  0  0  0  0  0  0
  192.8130  176.2780  139.4270 C   0  0  0  0  0  2  0  0  0  0  0  0
  185.3260  176.4950  135.3400 C   0  0  0  0  0  0  0  0  0  0  0  0
  187.6220  175.8880  135.3600 O   0  0  0  0  0  0  0  0  0  0  0  0
  189.2920  179.4680  136.8780 O   0  0  0  0  0  1  0  0  0  0  0  0
  188.3480  178.6840  137.5480 C   0  0  1  0  0  3  0  0  0  0  0  0
  184.3850  176.9140  134.6170 O   0  0  0  0  0  0  0  0  0  0  0  0
  189.2330  173.3950  137.3940 O   0  0  0  0  0  1  0  0  0  0  0  0
  192.8480  172.7910  134.3470 C   0  0  0  0  0  2  0  0  0  0  0  0
  192.2080  171.6160  134.7350 O   0  0  0  0  0  1  0  0  0  0  0  0
  184.2950  175.9300  137.5190 C   0  0  0  0  0  2  0  0  0  0  0  0
  184.4150  174.5740  137.2180 O   0  0  0  0  0  1  0  0  0  0  0  0
  196.0460  175.3160  140.5490 N   0  0  0  0  0  2  0  0  0  0  0  0
  198.1990  175.4520  141.6500 C   0  0  0  0  0  2  0  0  0  0  0  0
  198.4340  175.1190  140.1950 C   0  0  0  0  0  2  0  0  0  0  0  0
  197.3010  176.0480  140.5850 C   0  0  0  0  0  3  0  0  0  0  0  0
  195.3280  172.5370  136.3090 O   0  0  0  0  0  0  0  0  0  0  0  0
  197.1450  173.9470  135.6000 C   0  0  0  0  0  1  0  0  0  0  0  0
  196.3650  172.6740  135.3470 C   0  0  0  0  0  2  0  0  0  0  0  0
  1 11  1  0  0  0  0
  1 27  1  0  0  0  0
  2  7  1  0  0  0  0
  2 12  1  0  0  0  0
  2 17  1  0  0  0  0
  3 24  1  0  0  0  0
  3 25  1  0  0  0  0
  4 23  1  0  0  0  0
  4 19  1  0  0  0  0
  5 14  1  0  0  0  0
  6  7  1  0  0  0  0
  7 29  1  0  0  0  0
  9 17  1  0  0  0  0
  9 23  1  0  0  0  0
 10  5  1  0  0  0  0
 10  2  1  0  0  0  0
 11 16  2  0  0  0  0
 12  8  1  0  0  0  0
 12 17  1  0  0  0  0
 13 20  2  0  0  0  0
 14 20  1  0  0  0  0
 14  9  1  0  0  0  0
 15 19  2  0  0  0  0
 18 11  1  0  0  0  0
 18 32  1  0  0  0  0
 19 34  1  0  0  0  0
 20 15  1  0  0  0  0
 21 10  1  0  0  0  0
 22  5  2  0  0  0  0
 22 13  1  0  0  0  0
 24 18  1  0  0  0  0
 25  6  1  0  0  0  0
 26 27  1  0  0  0  0
 27  8  1  0  0  0  0
 28 24  2  0  0  0  0
 30 31  1  0  0  0  0
 30 22  1  0  0  0  0
 33 32  1  0  0  0  0
 34 37  1  0  0  0  0
 36 37  1  0  0  0  0
 36 35  1  0  0  0  0
 37 35  1  0  0  0  0
 38 13  1  0  0  0  0
 40 39  1  0  0  0  0
 40 38  1  0  0  0  0
M  END
>  <MODEL>
3

>  <REMARK>
 VINA RESULT:      -3.9      3.014      5.027
  Name = 
  6 active torsions:
  status: ('A' for Active; 'I' for Inactive)
    1  A    between atoms: N_5  and  C_24
    2  A    between atoms: N_5  and  C_36
    3  A    between atoms: C_15  and  O_29
    4  A    between atoms: C_18  and  C_31
    5  A    between atoms: N_23  and  C_27
    6  A    between atoms: C_25  and  O_29
                            x       y       z     vdW  Elec       q    Type
                         _______ _______ _______ _____ _____    ______ ____

>  <TORSDO>
F 6

$$$$
=
 OpenBabel10222421563D

 40 45  0  0  1  0  0  0  0  0999 V2000
  190.7090  178.9070  145.5520 C   0  0  0  0  0  2  0  0  0  0  0  0
  187.8000  177.8830  142.6420 C   0  0  1  0  0  0  0  0  0  0  0  0
  187.7180  177.7590  146.9330 C   0  0  0  0  0  2  0  0  0  0  0  0
  188.9820  178.7790  137.8940 C   0  0  0  0  0  2  0  0  0  0  0  0
  186.0180  178.4440  140.9570 C   0  0  0  0  0  0  0  0  0  0  0  0
  187.1170  177.0610  144.9270 C   0  0  0  0  0  2  0  0  0  0  0  0
  187.7450  176.6800  143.5930 C   0  0  1  0  0  3  0  0  0  0  0  0
  190.2720  178.0070  143.2140 C   0  0  0  0  0  2  0  0  0  0  0  0
  188.3380  178.3800  140.2450 C   0  0  1  0  0  3  0  0  0  0  0  0
  186.4600  178.6250  142.3700 C   0  0  2  0  0  3  0  0  0  0  0  0
  191.0180  177.5410  146.0980 C   0  0  0  0  0  0  0  0  0  0  0  0
  189.0840  178.5950  142.4570 C   0  0  1  0  0  3  0  0  0  0  0  0
  184.8370  178.1560  139.1160 C   0  0  0  0  0  0  0  0  0  0  0  0
  186.9020  178.3010  139.9630 N   0  0  0  0  0  0  0  0  0  0  0  0
  186.7070  177.9070  137.4550 C   0  0  0  0  0  3  0  0  0  0  0  0
  192.1040  176.9800  145.7750 O   0  0  0  0  0  0  0  0  0  0  0  0
  188.6590  177.6030  141.4500 N   0  0  1  0  0  0  0  0  0  0  0  0
  190.1090  176.8770  146.9930 N   0  0  0  0  0  0  0  0  0  0  0  0
  187.9450  178.1530  137.0190 C   0  0  0  0  0  0  0  0  0  0  0  0
  186.1880  178.1380  138.8170 C   0  0  0  0  0  0  0  0  0  0  0  0
  186.5220  180.0990  142.7320 C   0  0  0  0  0  1  0  0  0  0  0  0
  184.7240  178.3650  140.4840 C   0  0  0  0  0  0  0  0  0  0  0  0
  189.2130  177.9010  139.1010 C   0  0  0  0  0  2  0  0  0  0  0  0
  189.0320  177.5780  147.6250 C   0  0  0  0  0  0  0  0  0  0  0  0
  187.9100  178.0060  145.5760 O   0  0  0  0  0  0  0  0  0  0  0  0
  190.8570  180.3330  143.6240 O   0  0  0  0  0  1  0  0  0  0  0  0
  191.0440  179.0200  144.0660 C   0  0  1  0  0  3  0  0  0  0  0  0
  189.1430  177.9410  148.8250 O   0  0  0  0  0  0  0  0  0  0  0  0
  187.0080  175.6470  143.0140 O   0  0  0  0  0  1  0  0  0  0  0  0
  183.4810  178.3630  141.3120 C   0  0  0  0  0  2  0  0  0  0  0  0
  182.5190  179.1660  140.7030 O   0  0  0  0  0  1  0  0  0  0  0  0
  190.3800  175.5120  147.4220 C   0  0  0  0  0  2  0  0  0  0  0  0
  191.7040  175.4020  147.8450 O   0  0  0  0  0  1  0  0  0  0  0  0
  188.2720  177.7900  135.6750 N   0  0  0  0  0  2  0  0  0  0  0  0
  189.3270  175.6180  135.8680 C   0  0  0  0  0  2  0  0  0  0  0  0
  189.0910  175.9000  134.4020 C   0  0  0  0  0  2  0  0  0  0  0  0
  189.4650  177.0310  135.3390 C   0  0  0  0  0  3  0  0  0  0  0  0
  183.8110  177.9850  138.1790 O   0  0  0  0  0  0  0  0  0  0  0  0
  182.9830  175.8300  138.8580 C   0  0  0  0  0  1  0  0  0  0  0  0
  183.3930  176.7150  137.6990 C   0  0  0  0  0  2  0  0  0  0  0  0
  1 11  1  0  0  0  0
  2  7  1  0  0  0  0
  3 24  1  0  0  0  0
  4 23  1  0  0  0  0
  5 10  1  0  0  0  0
  6 25  1  0  0  0  0
  7  6  1  0  0  0  0
  8 27  1  0  0  0  0
  9 17  1  0  0  0  0
 10  2  1  0  0  0  0
 10 21  1  0  0  0  0
 11 18  1  0  0  0  0
 12  2  1  0  0  0  0
 12  8  1  0  0  0  0
 13 22  1  0  0  0  0
 14  9  1  0  0  0  0
 14  5  1  0  0  0  0
 15 20  1  0  0  0  0
 16 11  2  0  0  0  0
 17 12  1  0  0  0  0
 17  2  1  0  0  0  0
 18 32  1  0  0  0  0
 18 24  1  0  0  0  0
 19 15  2  0  0  0  0
 19  4  1  0  0  0  0
 20 13  2  0  0  0  0
 20 14  1  0  0  0  0
 22  5  2  0  0  0  0
 22 30  1  0  0  0  0
 23  9  1  0  0  0  0
 24 28  2  0  0  0  0
 25  3  1  0  0  0  0
 26 27  1  0  0  0  0
 27  1  1  0  0  0  0
 29  7  1  0  0  0  0
 31 30  1  0  0  0  0
 32 33  1  0  0  0  0
 34 19  1  0  0  0  0
 36 37  1  0  0  0  0
 36 35  1  0  0  0  0
 37 34  1  0  0  0  0
 37 35  1  0  0  0  0
 38 13  1  0  0  0  0
 40 38  1  0  0  0  0
 40 39  1  0  0  0  0
M  END
>  <MODEL>
4

>  <REMARK>
 VINA RESULT:      -3.8      3.938      9.110
  Name = 
  6 active torsions:
  status: ('A' for Active; 'I' for Inactive)
    1  A    between atoms: N_5  and  C_24
    2  A    between atoms: N_5  and  C_36
    3  A    between atoms: C_15  and  O_29
    4  A    between atoms: C_18  and  C_31
    5  A    between atoms: N_23  and  C_27
    6  A    between atoms: C_25  and  O_29
                            x       y       z     vdW  Elec       q    Type
                         _______ _______ _______ _____ _____    ______ ____

>  <TORSDO>
F 6

$$$$
=
 OpenBabel10222421563D

 40 45  0  0  1  0  0  0  0  0999 V2000
  185.8090  174.5290  136.9010 C   0  0  0  0  0  2  0  0  0  0  0  0
  189.9370  175.2500  136.2480 C   0  0  1  0  0  0  0  0  0  0  0  0
  186.6850  177.8940  137.1850 C   0  0  0  0  0  2  0  0  0  0  0  0
  192.8150  171.2550  135.5380 C   0  0  0  0  0  2  0  0  0  0  0  0
  192.3510  175.2630  136.9550 C   0  0  0  0  0  0  0  0  0  0  0  0
  188.6370  177.4120  136.2720 C   0  0  0  0  0  2  0  0  0  0  0  0
  189.2780  176.3430  135.3970 C   0  0  1  0  0  3  0  0  0  0  0  0
  187.9190  173.8200  135.6690 C   0  0  0  0  0  2  0  0  0  0  0  0
  191.4260  173.2560  135.9500 C   0  0  1  0  0  3  0  0  0  0  0  0
  190.9750  175.7170  137.3090 C   0  0  2  0  0  3  0  0  0  0  0  0
  185.2360  175.1970  135.6820 C   0  0  0  0  0  0  0  0  0  0  0  0
  189.2400  173.9570  136.4230 C   0  0  1  0  0  3  0  0  0  0  0  0
  194.5310  175.1130  136.6500 C   0  0  0  0  0  0  0  0  0  0  0  0
  192.5590  174.1190  136.2920 N   0  0  0  0  0  0  0  0  0  0  0  0
  194.6290  172.9340  135.4010 C   0  0  0  0  0  3  0  0  0  0  0  0
  184.8120  174.4810  134.7300 O   0  0  0  0  0  0  0  0  0  0  0  0
  190.3180  174.0630  135.4210 N   0  0  1  0  0  0  0  0  0  0  0  0
  185.1460  176.6300  135.5950 N   0  0  0  0  0  0  0  0  0  0  0  0
  194.1690  171.7160  135.1060 C   0  0  0  0  0  0  0  0  0  0  0  0
  193.9020  174.0050  136.1100 C   0  0  0  0  0  0  0  0  0  0  0  0
  190.6090  175.2840  138.7180 C   0  0  0  0  0  1  0  0  0  0  0  0
  193.5410  175.9150  137.2040 C   0  0  0  0  0  0  0  0  0  0  0  0
  191.7660  172.1680  134.9480 C   0  0  0  0  0  2  0  0  0  0  0  0
  185.3220  177.4640  136.7450 C   0  0  0  0  0  0  0  0  0  0  0  0
  187.6020  176.8570  137.0230 O   0  0  0  0  0  0  0  0  0  0  0  0
  187.1550  172.7020  137.6920 O   0  0  0  0  0  1  0  0  0  0  0  0
  186.7380  173.3720  136.5380 C   0  0  1  0  0  3  0  0  0  0  0  0
  184.3150  177.9480  137.3240 O   0  0  0  0  0  0  0  0  0  0  0  0
  190.2270  176.9370  134.5640 O   0  0  0  0  0  1  0  0  0  0  0  0
  193.6950  177.2690  137.8160 C   0  0  0  0  0  2  0  0  0  0  0  0
  193.7300  177.1480  139.2030 O   0  0  0  0  0  1  0  0  0  0  0  0
  184.6870  177.2540  134.3610 C   0  0  0  0  0  2  0  0  0  0  0  0
  183.2950  177.3160  134.3520 O   0  0  0  0  0  1  0  0  0  0  0  0
  195.0090  170.8430  134.3460 N   0  0  0  0  0  2  0  0  0  0  0  0
  196.1000  169.3980  135.9560 C   0  0  0  0  0  2  0  0  0  0  0  0
  196.4410  168.9020  134.5690 C   0  0  0  0  0  2  0  0  0  0  0  0
  196.3030  170.3890  134.8290 C   0  0  0  0  0  3  0  0  0  0  0  0
  195.9120  175.3430  136.6150 O   0  0  0  0  0  0  0  0  0  0  0  0
  197.9610  175.3460  135.3530 C   0  0  0  0  0  1  0  0  0  0  0  0
  196.5770  175.9410  135.5120 C   0  0  0  0  0  2  0  0  0  0  0  0
  2 12  1  0  0  0  0
  2 10  1  0  0  0  0
  5 22  2  0  0  0  0
  5 10  1  0  0  0  0
  6 25  1  0  0  0  0
  7  2  1  0  0  0  0
  7  6  1  0  0  0  0
  8 12  1  0  0  0  0
  8 27  1  0  0  0  0
  9 14  1  0  0  0  0
 10 21  1  0  0  0  0
 11  1  1  0  0  0  0
 13 22  1  0  0  0  0
 14  5  1  0  0  0  0
 15 20  1  0  0  0  0
 16 11  2  0  0  0  0
 17  9  1  0  0  0  0
 17  2  1  0  0  0  0
 17 12  1  0  0  0  0
 18 11  1  0  0  0  0
 18 24  1  0  0  0  0
 19 15  2  0  0  0  0
 19  4  1  0  0  0  0
 20 14  1  0  0  0  0
 20 13  2  0  0  0  0
 22 30  1  0  0  0  0
 23  4  1  0  0  0  0
 23  9  1  0  0  0  0
 24  3  1  0  0  0  0
 24 28  2  0  0  0  0
 25  3  1  0  0  0  0
 27  1  1  0  0  0  0
 27 26  1  0  0  0  0
 29  7  1  0  0  0  0
 30 31  1  0  0  0  0
 32 18  1  0  0  0  0
 33 32  1  0  0  0  0
 34 37  1  0  0  0  0
 34 19  1  0  0  0  0
 36 37  1  0  0  0  0
 36 35  1  0  0  0  0
 37 35  1  0  0  0  0
 38 13  1  0  0  0  0
 39 40  1  0  0  0  0
 40 38  1  0  0  0  0
M  END
>  <MODEL>
5

>  <REMARK>
 VINA RESULT:      -3.6      3.561      6.822
  Name = 
  6 active torsions:
  status: ('A' for Active; 'I' for Inactive)
    1  A    between atoms: N_5  and  C_24
    2  A    between atoms: N_5  and  C_36
    3  A    between atoms: C_15  and  O_29
    4  A    between atoms: C_18  and  C_31
    5  A    between atoms: N_23  and  C_27
    6  A    between atoms: C_25  and  O_29
                            x       y       z     vdW  Elec       q    Type
                         _______ _______ _______ _____ _____    ______ ____

>  <TORSDO>
F 6

$$$$
=
 OpenBabel10222421563D

 40 45  0  0  1  0  0  0  0  0999 V2000
  185.4240  177.9590  137.0880 C   0  0  0  0  0  2  0  0  0  0  0  0
  188.3220  174.8700  136.8810 C   0  0  1  0  0  0  0  0  0  0  0  0
  184.1130  174.9030  136.0330 C   0  0  0  0  0  2  0  0  0  0  0  0
  193.0320  176.1620  137.8270 C   0  0  0  0  0  2  0  0  0  0  0  0
  190.2330  173.6570  135.7830 C   0  0  0  0  0  0  0  0  0  0  0  0
  185.9890  173.9330  136.6740 C   0  0  0  0  0  2  0  0  0  0  0  0
  187.1640  174.1800  137.6120 C   0  0  1  0  0  3  0  0  0  0  0  0
  187.5710  176.9950  138.0530 C   0  0  0  0  0  2  0  0  0  0  0  0
  190.7130  175.4990  137.2900 C   0  0  1  0  0  3  0  0  0  0  0  0
  188.8490  174.1790  135.5910 C   0  0  2  0  0  3  0  0  0  0  0  0
  184.5970  177.4590  138.2400 C   0  0  0  0  0  0  0  0  0  0  0  0
  188.5290  176.3220  137.0730 C   0  0  1  0  0  3  0  0  0  0  0  0
  192.0790  172.4500  135.7350 C   0  0  0  0  0  0  0  0  0  0  0  0
  191.0990  174.2630  136.6040 N   0  0  0  0  0  0  0  0  0  0  0  0
  193.4900  173.7800  137.3360 C   0  0  0  0  0  3  0  0  0  0  0  0
  184.7090  178.0200  139.3660 O   0  0  0  0  0  0  0  0  0  0  0  0
  189.3570  175.3700  137.8390 N   0  0  1  0  0  0  0  0  0  0  0  0
  183.6730  176.3700  138.0710 N   0  0  0  0  0  0  0  0  0  0  0  0
  193.8550  174.9190  137.9280 C   0  0  0  0  0  0  0  0  0  0  0  0
  192.2490  173.5380  136.5730 C   0  0  0  0  0  0  0  0  0  0  0  0
  188.7770  175.0820  134.3710 C   0  0  0  0  0  1  0  0  0  0  0  0
  190.7930  172.5300  135.2180 C   0  0  0  0  0  0  0  0  0  0  0  0
  191.6610  175.9020  138.4050 C   0  0  0  0  0  2  0  0  0  0  0  0
  183.2870  175.9080  136.7710 C   0  0  0  0  0  0  0  0  0  0  0  0
  185.4700  175.1470  136.2280 O   0  0  0  0  0  0  0  0  0  0  0  0
  187.5730  178.8140  136.4360 O   0  0  0  0  0  1  0  0  0  0  0  0
  186.8690  178.2400  137.4980 C   0  0  1  0  0  3  0  0  0  0  0  0
  182.1750  176.2530  136.2920 O   0  0  0  0  0  0  0  0  0  0  0  0
  187.5920  172.9630  138.1450 O   0  0  0  0  0  1  0  0  0  0  0  0
  190.0930  171.5390  134.3460 C   0  0  0  0  0  2  0  0  0  0  0  0
  189.8080  170.3930  135.0850 O   0  0  0  0  0  1  0  0  0  0  0  0
  182.9640  175.8350  139.2250 C   0  0  0  0  0  2  0  0  0  0  0  0
  181.6180  175.6530  138.9110 O   0  0  0  0  0  1  0  0  0  0  0  0
  195.0690  174.9290  138.6830 N   0  0  0  0  0  2  0  0  0  0  0  0
  197.0590  174.4560  137.3860 C   0  0  0  0  0  2  0  0  0  0  0  0
  197.4610  174.5790  138.8380 C   0  0  0  0  0  2  0  0  0  0  0  0
  196.1280  173.9560  138.4710 C   0  0  0  0  0  3  0  0  0  0  0  0
  193.0510  171.4720  135.4910 O   0  0  0  0  0  0  0  0  0  0  0  0
  194.1430  169.6290  136.5870 C   0  0  0  0  0  1  0  0  0  0  0  0
  194.0700  171.1330  136.4210 C   0  0  0  0  0  2  0  0  0  0  0  0
  1 27  1  0  0  0  0
  1 11  1  0  0  0  0
  2 12  1  0  0  0  0
  2  7  1  0  0  0  0
  2 17  1  0  0  0  0
  3 25  1  0  0  0  0
  3 24  1  0  0  0  0
  4 19  1  0  0  0  0
  4 23  1  0  0  0  0
  5 14  1  0  0  0  0
  6  7  1  0  0  0  0
  7 29  1  0  0  0  0
  9 17  1  0  0  0  0
  9 23  1  0  0  0  0
 10  5  1  0  0  0  0
 10  2  1  0  0  0  0
 11 16  2  0  0  0  0
 12 17  1  0  0  0  0
 12  8  1  0  0  0  0
 13 20  2  0  0  0  0
 14  9  1  0  0  0  0
 15 19  2  0  0  0  0
 18 11  1  0  0  0  0
 18 32  1  0  0  0  0
 19 34  1  0  0  0  0
 20 14  1  0  0  0  0
 20 15  1  0  0  0  0
 21 10  1  0  0  0  0
 22 13  1  0  0  0  0
 22  5  2  0  0  0  0
 24 18  1  0  0  0  0
 25  6  1  0  0  0  0
 26 27  1  0  0  0  0
 27  8  1  0  0  0  0
 28 24  2  0  0  0  0
 30 31  1  0  0  0  0
 30 22  1  0  0  0  0
 33 32  1  0  0  0  0
 35 37  1  0  0  0  0
 35 36  1  0  0  0  0
 37 34  1  0  0  0  0
 37 36  1  0  0  0  0
 38 13  1  0  0  0  0
 38 40  1  0  0  0  0
 40 39  1  0  0  0  0
M  END
>  <MODEL>
6

>  <REMARK>
 VINA RESULT:      -3.3      3.053      4.742
  Name = 
  6 active torsions:
  status: ('A' for Active; 'I' for Inactive)
    1  A    between atoms: N_5  and  C_24
    2  A    between atoms: N_5  and  C_36
    3  A    between atoms: C_15  and  O_29
    4  A    between atoms: C_18  and  C_31
    5  A    between atoms: N_23  and  C_27
    6  A    between atoms: C_25  and  O_29
                            x       y       z     vdW  Elec       q    Type
                         _______ _______ _______ _____ _____    ______ ____

>  <TORSDO>
F 6

$$$$
=
 OpenBabel10222421563D

 40 45  0  0  1  0  0  0  0  0999 V2000
  190.8590  178.7560  145.9460 C   0  0  0  0  0  2  0  0  0  0  0  0
  189.4080  177.2910  142.2400 C   0  0  1  0  0  0  0  0  0  0  0  0
  187.4380  178.0700  145.9760 C   0  0  0  0  0  2  0  0  0  0  0  0
  192.6620  177.1180  138.4810 C   0  0  0  0  0  2  0  0  0  0  0  0
  188.6400  177.5760  139.8620 C   0  0  0  0  0  0  0  0  0  0  0  0
  187.6870  176.9990  144.0610 C   0  0  0  0  0  2  0  0  0  0  0  0
  188.7760  176.3180  143.2430 C   0  0  1  0  0  3  0  0  0  0  0  0
  191.3700  177.4100  143.8490 C   0  0  0  0  0  2  0  0  0  0  0  0
  191.0040  177.2500  140.3090 C   0  0  1  0  0  3  0  0  0  0  0  0
  188.4390  178.0260  141.2690 C   0  0  2  0  0  3  0  0  0  0  0  0
  190.7050  177.5200  146.7890 C   0  0  0  0  0  0  0  0  0  0  0  0
  190.7280  177.8850  142.5480 C   0  0  1  0  0  3  0  0  0  0  0  0
  188.3580  176.9690  137.7590 C   0  0  0  0  0  0  0  0  0  0  0  0
  189.8420  177.1850  139.4190 N   0  0  0  0  0  0  0  0  0  0  0  0
  190.7130  176.2870  137.2010 C   0  0  0  0  0  3  0  0  0  0  0  0
  191.7340  176.8520  147.0930 O   0  0  0  0  0  0  0  0  0  0  0  0
  190.6550  176.7270  141.6360 N   0  0  1  0  0  0  0  0  0  0  0  0
  189.4140  177.1030  147.2650 N   0  0  0  0  0  0  0  0  0  0  0  0
  192.0370  176.3750  137.3460 C   0  0  0  0  0  0  0  0  0  0  0  0
  189.6870  176.8230  138.1180 C   0  0  0  0  0  0  0  0  0  0  0  0
  188.5390  179.5380  141.3730 C   0  0  0  0  0  1  0  0  0  0  0  0
  187.6880  177.4640  138.8700 C   0  0  0  0  0  0  0  0  0  0  0  0
  192.2170  176.5010  139.7860 C   0  0  0  0  0  2  0  0  0  0  0  0
  188.2770  177.9730  147.2100 C   0  0  0  0  0  0  0  0  0  0  0  0
  188.2370  178.0190  144.8360 O   0  0  0  0  0  0  0  0  0  0  0  0
  192.0320  179.7390  144.0940 O   0  0  0  0  0  1  0  0  0  0  0  0
  191.8230  178.5400  144.7810 C   0  0  1  0  0  3  0  0  0  0  0  0
  187.9000  178.5720  148.2510 O   0  0  0  0  0  0  0  0  0  0  0  0
  188.2320  175.2240  142.5700 O   0  0  0  0  0  1  0  0  0  0  0  0
  186.2200  177.6960  139.0260 C   0  0  0  0  0  2  0  0  0  0  0  0
  185.8750  178.9000  138.4150 O   0  0  0  0  0  1  0  0  0  0  0  0
  189.2780  175.8460  147.9870 C   0  0  0  0  0  2  0  0  0  0  0  0
  187.9330  175.5970  148.2550 O   0  0  0  0  0  1  0  0  0  0  0  0
  192.8660  175.7250  136.3790 N   0  0  0  0  0  2  0  0  0  0  0  0
  194.2320  173.9680  137.3370 C   0  0  0  0  0  2  0  0  0  0  0  0
  194.5710  174.0810  135.8680 C   0  0  0  0  0  2  0  0  0  0  0  0
  194.2350  175.3260  136.6660 C   0  0  0  0  0  3  0  0  0  0  0  0
  187.8330  176.6570  136.4990 O   0  0  0  0  0  0  0  0  0  0  0  0
  186.2160  177.6090  134.9920 C   0  0  0  0  0  1  0  0  0  0  0  0
  187.6540  177.6180  135.4670 C   0  0  0  0  0  2  0  0  0  0  0  0
  1 11  1  0  0  0  0
  2 12  1  0  0  0  0
  2  7  1  0  0  0  0
  3 24  1  0  0  0  0
  4 23  1  0  0  0  0
  5 10  1  0  0  0  0
  6 25  1  0  0  0  0
  7  6  1  0  0  0  0
  8 27  1  0  0  0  0
  9 17  1  0  0  0  0
 10 21  1  0  0  0  0
 10  2  1  0  0  0  0
 11 16  2  0  0  0  0
 11 18  1  0  0  0  0
 12  8  1  0  0  0  0
 13 20  2  0  0  0  0
 13 22  1  0  0  0  0
 14  5  1  0  0  0  0
 14  9  1  0  0  0  0
 15 19  2  0  0  0  0
 15 20  1  0  0  0  0
 17  2  1  0  0  0  0
 17 12  1  0  0  0  0
 18 32  1  0  0  0  0
 19  4  1  0  0  0  0
 20 14  1  0  0  0  0
 22 30  1  0  0  0  0
 22  5  2  0  0  0  0
 23  9  1  0  0  0  0
 24 18  1  0  0  0  0
 24 28  2  0  0  0  0
 25  3  1  0  0  0  0
 26 27  1  0  0  0  0
 27  1  1  0  0  0  0
 29  7  1  0  0  0  0
 31 30  1  0  0  0  0
 32 33  1  0  0  0  0
 34 37  1  0  0  0  0
 34 19  1  0  0  0  0
 36 37  1  0  0  0  0
 36 35  1  0  0  0  0
 37 35  1  0  0  0  0
 38 13  1  0  0  0  0
 39 40  1  0  0  0  0
 40 38  1  0  0  0  0
M  END
>  <MODEL>
7

>  <REMARK>
 VINA RESULT:      -3.2      3.926      8.441
  Name = 
  6 active torsions:
  status: ('A' for Active; 'I' for Inactive)
    1  A    between atoms: N_5  and  C_24
    2  A    between atoms: N_5  and  C_36
    3  A    between atoms: C_15  and  O_29
    4  A    between atoms: C_18  and  C_31
    5  A    between atoms: N_23  and  C_27
    6  A    between atoms: C_25  and  O_29
                            x       y       z     vdW  Elec       q    Type
                         _______ _______ _______ _____ _____    ______ ____

>  <TORSDO>
F 6

$$$$
