=
 OpenBabel10232411383D

 27 29  0  0  1  0  0  0  0  0999 V2000
  190.7500  176.8420  144.9620 C   0  0  0  0  0  2  0  0  0  0  0  0
  191.7510  178.9270  144.0250 C   0  0  0  0  0  1  0  0  0  0  0  0
  191.1780  177.5610  143.6930 C   0  0  2  0  0  3  0  0  0  0  0  0
  190.0620  177.6810  142.7560 N   0  0  0  0  0  2  0  0  0  0  0  0
  191.3350  177.6490  140.8030 O   0  0  0  0  0  0  0  0  0  0  0  0
  190.1940  177.7580  141.3290 C   0  0  0  0  0  0  0  0  0  0  0  0
  189.0280  177.9780  140.5120 N   0  0  0  0  0  0  0  0  0  0  0  0
  187.7750  178.3050  141.1850 C   0  0  0  0  0  1  0  0  0  0  0  0
  189.2230  176.5790  137.0390 C   0  0  0  0  0  3  0  0  0  0  0  0
  189.0550  177.8920  139.0690 C   0  0  0  0  0  0  0  0  0  0  0  0
  189.1860  176.6460  138.4330 C   0  0  0  0  0  3  0  0  0  0  0  0
  189.1330  177.7490  136.2870 C   0  0  0  0  0  3  0  0  0  0  0  0
  188.9720  179.0170  138.3020 N   0  0  0  0  0  0  0  0  0  0  0  0
  189.0070  178.9730  136.9440 C   0  0  0  0  0  3  0  0  0  0  0  0
  190.0080  177.7560  145.8180 N   0  0  0  0  0  2  0  0  0  0  0  0
  188.9870  176.9790  146.5050 C   0  0  0  0  0  2  0  0  0  0  0  0
  187.6370  177.5690  146.2650 C   0  0  0  0  0  0  0  0  0  0  0  0
  185.8150  178.0710  144.7530 C   0  0  0  0  0  0  0  0  0  0  0  0
  185.2650  178.0450  143.5120 N   0  0  0  0  0  2  0  0  0  0  0  0
  183.3180  179.1490  144.3370 C   0  0  0  0  0  3  0  0  0  0  0  0
  184.0320  178.5720  143.2830 C   0  0  0  0  0  0  0  0  0  0  0  0
  187.0830  177.5330  144.9800 C   0  0  0  0  0  3  0  0  0  0  0  0
  186.9180  178.1410  147.3230 C   0  0  0  0  0  3  0  0  0  0  0  0
  185.6470  178.6810  147.1000 C   0  0  0  0  0  3  0  0  0  0  0  0
  185.0930  178.6490  145.8180 C   0  0  0  0  0  0  0  0  0  0  0  0
  183.8630  179.1740  145.5820 N   0  0  0  0  0  0  0  0  0  0  0  0
  183.5370  178.5400  142.1270 O   0  0  0  0  0  0  0  0  0  0  0  0
  1 15  1  0  0  0  0
  3  2  1  1  0  0  0
  3  1  1  0  0  0  0
  4  3  1  0  0  0  0
  5  6  2  0  0  0  0
  6  4  1  0  0  0  0
  7  8  1  0  0  0  0
  7  6  1  0  0  0  0
  9 11  1  0  0  0  0
 10  7  1  0  0  0  0
 11 10  2  0  0  0  0
 12 14  1  0  0  0  0
 12  9  2  0  0  0  0
 13 10  1  0  0  0  0
 14 13  2  0  0  0  0
 15 16  1  0  0  0  0
 17 16  1  0  0  0  0
 17 23  1  0  0  0  0
 18 22  1  0  0  0  0
 18 25  2  0  0  0  0
 19 18  1  0  0  0  0
 20 26  2  0  0  0  0
 21 19  1  0  0  0  0
 21 20  1  0  0  0  0
 22 17  2  0  0  0  0
 24 23  2  0  0  0  0
 25 24  1  0  0  0  0
 26 25  1  0  0  0  0
 27 21  2  0  0  0  0
M  END
>  <MODEL>
1

>  <REMARK>
 VINA RESULT:      -8.9      0.000      0.000
  Name = 
  6 active torsions:
  status: ('A' for Active; 'I' for Inactive)
    1  A    between atoms: C_2  and  C_3
    2  A    between atoms: C_3  and  N_25
    3  A    between atoms: N_6  and  C_24
    4  A    between atoms: C_7  and  N_26
    5  A    between atoms: C_15  and  C_24
    6  A    between atoms: C_15  and  N_25
                            x       y       z     vdW  Elec       q    Type
                         _______ _______ _______ _____ _____    ______ ____

>  <TORSDO>
F 6

$$$$
=
 OpenBabel10232411383D

 27 29  0  0  1  0  0  0  0  0999 V2000
  184.8440  179.4970  144.1850 C   0  0  0  0  0  2  0  0  0  0  0  0
  183.7130  178.3650  142.2710 C   0  0  0  0  0  1  0  0  0  0  0  0
  184.8180  179.3250  142.6750 C   0  0  2  0  0  3  0  0  0  0  0  0
  186.1130  178.8630  142.1770 N   0  0  0  0  0  2  0  0  0  0  0  0
  185.5980  178.9950  139.9070 O   0  0  0  0  0  0  0  0  0  0  0  0
  186.4400  178.6810  140.7920 C   0  0  0  0  0  0  0  0  0  0  0  0
  187.7170  178.1230  140.4250 N   0  0  0  0  0  0  0  0  0  0  0  0
  188.5590  177.5860  141.4890 C   0  0  0  0  0  1  0  0  0  0  0  0
  188.5730  176.8420  137.0070 C   0  0  0  0  0  3  0  0  0  0  0  0
  188.1860  178.0730  139.0580 C   0  0  0  0  0  0  0  0  0  0  0  0
  188.1060  176.8790  138.3210 C   0  0  0  0  0  3  0  0  0  0  0  0
  189.1210  177.9880  136.4340 C   0  0  0  0  0  3  0  0  0  0  0  0
  188.7300  179.1750  138.4670 N   0  0  0  0  0  0  0  0  0  0  0  0
  189.1920  179.1590  137.1890 C   0  0  0  0  0  3  0  0  0  0  0  0
  185.2230  178.2420  144.8170 N   0  0  0  0  0  2  0  0  0  0  0  0
  185.5620  178.5340  146.2010 C   0  0  0  0  0  2  0  0  0  0  0  0
  186.9570  178.0940  146.4980 C   0  0  0  0  0  0  0  0  0  0  0  0
  189.0980  177.2710  145.7240 C   0  0  0  0  0  0  0  0  0  0  0  0
  189.9140  176.8540  144.7230 N   0  0  0  0  0  2  0  0  0  0  0  0
  191.6710  176.4800  146.2930 C   0  0  0  0  0  3  0  0  0  0  0  0
  191.1900  176.4580  144.9810 C   0  0  0  0  0  0  0  0  0  0  0  0
  187.7880  177.6690  145.4540 C   0  0  0  0  0  3  0  0  0  0  0  0
  187.4430  178.1230  147.8120 C   0  0  0  0  0  3  0  0  0  0  0  0
  188.7540  177.7240  148.0880 C   0  0  0  0  0  3  0  0  0  0  0  0
  189.5840  177.2960  147.0490 C   0  0  0  0  0  0  0  0  0  0  0  0
  190.8590  176.8990  147.2980 N   0  0  0  0  0  0  0  0  0  0  0  0
  191.9340  176.0750  144.0410 O   0  0  0  0  0  0  0  0  0  0  0  0
  1 15  1  0  0  0  0
  3  2  1  1  0  0  0
  3  1  1  0  0  0  0
  4  3  1  0  0  0  0
  5  6  2  0  0  0  0
  6  4  1  0  0  0  0
  7  6  1  0  0  0  0
  7  8  1  0  0  0  0
  9 11  1  0  0  0  0
 10  7  1  0  0  0  0
 11 10  2  0  0  0  0
 12  9  2  0  0  0  0
 12 14  1  0  0  0  0
 13 10  1  0  0  0  0
 14 13  2  0  0  0  0
 15 16  1  0  0  0  0
 16 17  1  0  0  0  0
 17 23  1  0  0  0  0
 18 25  2  0  0  0  0
 19 21  1  0  0  0  0
 19 18  1  0  0  0  0
 20 26  2  0  0  0  0
 21 20  1  0  0  0  0
 22 18  1  0  0  0  0
 22 17  2  0  0  0  0
 23 24  2  0  0  0  0
 25 26  1  0  0  0  0
 25 24  1  0  0  0  0
 27 21  2  0  0  0  0
M  END
>  <MODEL>
2

>  <REMARK>
 VINA RESULT:      -8.6      1.531      4.784
  Name = 
  6 active torsions:
  status: ('A' for Active; 'I' for Inactive)
    1  A    between atoms: C_2  and  C_3
    2  A    between atoms: C_3  and  N_25
    3  A    between atoms: N_6  and  C_24
    4  A    between atoms: C_7  and  N_26
    5  A    between atoms: C_15  and  C_24
    6  A    between atoms: C_15  and  N_25
                            x       y       z     vdW  Elec       q    Type
                         _______ _______ _______ _____ _____    ______ ____

>  <TORSDO>
F 6

$$$$
=
 OpenBabel10232411383D

 27 29  0  0  1  0  0  0  0  0999 V2000
  187.2340  178.0730  147.1810 C   0  0  0  0  0  2  0  0  0  0  0  0
  189.3620  176.9450  147.8330 C   0  0  0  0  0  1  0  0  0  0  0  0
  188.3910  177.2140  146.6980 C   0  0  2  0  0  3  0  0  0  0  0  0
  189.0760  177.8430  145.5690 N   0  0  0  0  0  2  0  0  0  0  0  0
  188.2250  176.4380  143.9130 O   0  0  0  0  0  0  0  0  0  0  0  0
  188.9890  177.3980  144.2080 C   0  0  0  0  0  0  0  0  0  0  0  0
  189.7910  178.0350  143.1930 N   0  0  0  0  0  0  0  0  0  0  0  0
  190.8060  178.9900  143.6250 C   0  0  0  0  0  1  0  0  0  0  0  0
  188.3880  178.0100  139.7160 C   0  0  0  0  0  3  0  0  0  0  0  0
  189.6300  177.7620  141.7830 C   0  0  0  0  0  0  0  0  0  0  0  0
  188.5370  178.2920  141.0750 C   0  0  0  0  0  3  0  0  0  0  0  0
  189.3220  177.2020  139.0690 C   0  0  0  0  0  3  0  0  0  0  0  0
  190.5230  176.9740  141.1190 N   0  0  0  0  0  0  0  0  0  0  0  0
  190.3960  176.6870  139.7960 C   0  0  0  0  0  3  0  0  0  0  0  0
  186.0710  177.8520  146.3340 N   0  0  0  0  0  2  0  0  0  0  0  0
  185.5260  179.1580  145.9930 C   0  0  0  0  0  2  0  0  0  0  0  0
  184.7150  179.0700  144.7420 C   0  0  0  0  0  0  0  0  0  0  0  0
  184.5920  179.1020  142.3250 C   0  0  0  0  0  0  0  0  0  0  0  0
  185.1870  179.2270  141.1110 N   0  0  0  0  0  2  0  0  0  0  0  0
  183.0800  178.9210  140.0330 C   0  0  0  0  0  3  0  0  0  0  0  0
  184.4590  179.1400  139.9650 C   0  0  0  0  0  0  0  0  0  0  0  0
  185.3440  179.1980  143.4980 C   0  0  0  0  0  3  0  0  0  0  0  0
  183.3340  178.8420  144.8100 C   0  0  0  0  0  3  0  0  0  0  0  0
  182.5770  178.7460  143.6380 C   0  0  0  0  0  3  0  0  0  0  0  0
  183.2010  178.8760  142.3950 C   0  0  0  0  0  0  0  0  0  0  0  0
  182.4810  178.7920  141.2460 N   0  0  0  0  0  0  0  0  0  0  0  0
  185.0260  179.2570  138.8480 O   0  0  0  0  0  0  0  0  0  0  0  0
  3  1  1  0  0  0  0
  3  2  1  1  0  0  0
  4  3  1  0  0  0  0
  5  6  2  0  0  0  0
  6  4  1  0  0  0  0
  7  8  1  0  0  0  0
  7  6  1  0  0  0  0
  9 11  1  0  0  0  0
 10  7  1  0  0  0  0
 11 10  2  0  0  0  0
 12  9  2  0  0  0  0
 12 14  1  0  0  0  0
 13 10  1  0  0  0  0
 14 13  2  0  0  0  0
 15  1  1  0  0  0  0
 16 15  1  0  0  0  0
 17 23  1  0  0  0  0
 17 16  1  0  0  0  0
 18 25  2  0  0  0  0
 18 22  1  0  0  0  0
 19 18  1  0  0  0  0
 20 26  2  0  0  0  0
 21 20  1  0  0  0  0
 21 19  1  0  0  0  0
 22 17  2  0  0  0  0
 24 23  2  0  0  0  0
 25 24  1  0  0  0  0
 26 25  1  0  0  0  0
 27 21  2  0  0  0  0
M  END
>  <MODEL>
3

>  <REMARK>
 VINA RESULT:      -8.6      2.037      3.746
  Name = 
  6 active torsions:
  status: ('A' for Active; 'I' for Inactive)
    1  A    between atoms: C_2  and  C_3
    2  A    between atoms: C_3  and  N_25
    3  A    between atoms: N_6  and  C_24
    4  A    between atoms: C_7  and  N_26
    5  A    between atoms: C_15  and  C_24
    6  A    between atoms: C_15  and  N_25
                            x       y       z     vdW  Elec       q    Type
                         _______ _______ _______ _____ _____    ______ ____

>  <TORSDO>
F 6

$$$$
=
 OpenBabel10232411383D

 27 29  0  0  1  0  0  0  0  0999 V2000
  191.3470  177.3090  145.0810 C   0  0  0  0  0  2  0  0  0  0  0  0
  192.0320  175.0140  144.3800 C   0  0  0  0  0  1  0  0  0  0  0  0
  191.2090  176.2350  144.0130 C   0  0  2  0  0  3  0  0  0  0  0  0
  191.5990  176.7470  142.7010 N   0  0  0  0  0  2  0  0  0  0  0  0
  189.5490  176.3940  141.6470 O   0  0  0  0  0  0  0  0  0  0  0  0
  190.7480  176.7710  141.5450 C   0  0  0  0  0  0  0  0  0  0  0  0
  191.2750  177.2060  140.2760 N   0  0  0  0  0  0  0  0  0  0  0  0
  192.7130  177.4280  140.1740 C   0  0  0  0  0  1  0  0  0  0  0  0
  189.8140  176.8780  136.8390 C   0  0  0  0  0  3  0  0  0  0  0  0
  190.4410  177.4240  139.1150 C   0  0  0  0  0  0  0  0  0  0  0  0
  190.6170  176.6480  137.9570 C   0  0  0  0  0  3  0  0  0  0  0  0
  188.8430  177.8780  136.8770 C   0  0  0  0  0  3  0  0  0  0  0  0
  189.4840  178.3960  139.1170 N   0  0  0  0  0  0  0  0  0  0  0  0
  188.6920  178.6350  138.0380 C   0  0  0  0  0  3  0  0  0  0  0  0
  190.0900  178.0270  145.2210 N   0  0  0  0  0  2  0  0  0  0  0  0
  189.2020  177.2010  146.0260 C   0  0  0  0  0  2  0  0  0  0  0  0
  187.7970  177.6960  145.9220 C   0  0  0  0  0  0  0  0  0  0  0  0
  185.8390  178.1610  144.5770 C   0  0  0  0  0  0  0  0  0  0  0  0
  185.2070  178.1870  143.3760 N   0  0  0  0  0  2  0  0  0  0  0  0
  183.2450  179.0620  144.4130 C   0  0  0  0  0  3  0  0  0  0  0  0
  183.9240  178.6280  143.2720 C   0  0  0  0  0  0  0  0  0  0  0  0
  187.1580  177.7130  144.6770 C   0  0  0  0  0  3  0  0  0  0  0  0
  187.1130  178.1240  147.0680 C   0  0  0  0  0  3  0  0  0  0  0  0
  185.7920  178.5740  146.9730 C   0  0  0  0  0  3  0  0  0  0  0  0
  185.1530  178.5960  145.7310 C   0  0  0  0  0  0  0  0  0  0  0  0
  183.8730  179.0350  145.6190 N   0  0  0  0  0  0  0  0  0  0  0  0
  183.3520  178.6440  142.1520 O   0  0  0  0  0  0  0  0  0  0  0  0
  1 15  1  0  0  0  0
  3  2  1  1  0  0  0
  3  1  1  0  0  0  0
  4  3  1  0  0  0  0
  6  5  2  0  0  0  0
  6  4  1  0  0  0  0
  7  6  1  0  0  0  0
  8  7  1  0  0  0  0
  9 12  2  0  0  0  0
  9 11  1  0  0  0  0
 10 13  1  0  0  0  0
 10  7  1  0  0  0  0
 11 10  2  0  0  0  0
 12 14  1  0  0  0  0
 14 13  2  0  0  0  0
 15 16  1  0  0  0  0
 17 16  1  0  0  0  0
 17 23  1  0  0  0  0
 18 22  1  0  0  0  0
 18 25  2  0  0  0  0
 19 18  1  0  0  0  0
 20 26  2  0  0  0  0
 21 19  1  0  0  0  0
 21 20  1  0  0  0  0
 22 17  2  0  0  0  0
 24 23  2  0  0  0  0
 25 24  1  0  0  0  0
 26 25  1  0  0  0  0
 27 21  2  0  0  0  0
M  END
>  <MODEL>
4

>  <REMARK>
 VINA RESULT:      -8.5      1.223      1.603
  Name = 
  6 active torsions:
  status: ('A' for Active; 'I' for Inactive)
    1  A    between atoms: C_2  and  C_3
    2  A    between atoms: C_3  and  N_25
    3  A    between atoms: N_6  and  C_24
    4  A    between atoms: C_7  and  N_26
    5  A    between atoms: C_15  and  C_24
    6  A    between atoms: C_15  and  N_25
                            x       y       z     vdW  Elec       q    Type
                         _______ _______ _______ _____ _____    ______ ____

>  <TORSDO>
F 6

$$$$
=
 OpenBabel10232411383D

 27 29  0  0  1  0  0  0  0  0999 V2000
  185.6960  178.0210  138.5300 C   0  0  0  0  0  2  0  0  0  0  0  0
  187.2030  178.4630  136.5910 C   0  0  0  0  0  1  0  0  0  0  0  0
  187.0620  178.5300  138.1010 C   0  0  2  0  0  3  0  0  0  0  0  0
  188.1310  177.7760  138.7540 N   0  0  0  0  0  2  0  0  0  0  0  0
  188.0130  178.8590  140.8150 O   0  0  0  0  0  0  0  0  0  0  0  0
  188.5920  178.0020  140.0940 C   0  0  0  0  0  0  0  0  0  0  0  0
  189.7230  177.2640  140.5970 N   0  0  0  0  0  0  0  0  0  0  0  0
  190.4790  176.4460  139.6550 C   0  0  0  0  0  1  0  0  0  0  0  0
  189.8130  176.6640  144.2970 C   0  0  0  0  0  3  0  0  0  0  0  0
  190.1330  177.3080  141.9830 C   0  0  0  0  0  0  0  0  0  0  0  0
  189.4120  176.6030  142.9620 C   0  0  0  0  0  3  0  0  0  0  0  0
  190.9230  177.4280  144.6540 C   0  0  0  0  0  3  0  0  0  0  0  0
  191.2130  178.0480  142.3670 N   0  0  0  0  0  0  0  0  0  0  0  0
  191.6180  178.1210  143.6630 C   0  0  0  0  0  3  0  0  0  0  0  0
  185.1020  178.9500  139.4790 N   0  0  0  0  0  2  0  0  0  0  0  0
  183.9390  178.2970  140.0610 C   0  0  0  0  0  2  0  0  0  0  0  0
  183.9630  178.4230  141.5490 C   0  0  0  0  0  0  0  0  0  0  0  0
  185.1860  178.3250  143.6350 C   0  0  0  0  0  0  0  0  0  0  0  0
  186.3340  178.1030  144.3250 N   0  0  0  0  0  2  0  0  0  0  0  0
  185.2100  178.5810  146.3750 C   0  0  0  0  0  3  0  0  0  0  0  0
  186.3690  178.2240  145.6800 C   0  0  0  0  0  0  0  0  0  0  0  0
  185.1550  178.1940  142.2450 C   0  0  0  0  0  3  0  0  0  0  0  0
  182.8030  178.7890  142.2450 C   0  0  0  0  0  3  0  0  0  0  0  0
  182.8290  178.9210  143.6370 C   0  0  0  0  0  3  0  0  0  0  0  0
  184.0160  178.6890  144.3360 C   0  0  0  0  0  0  0  0  0  0  0  0
  184.0590  178.8070  145.6880 N   0  0  0  0  0  0  0  0  0  0  0  0
  187.4410  178.0150  146.3040 O   0  0  0  0  0  0  0  0  0  0  0  0
  1 15  1  0  0  0  0
  3  2  1  6  0  0  0
  3  1  1  0  0  0  0
  3  4  1  0  0  0  0
  4  6  1  0  0  0  0
  6  7  1  0  0  0  0
  6  5  2  0  0  0  0
  7 10  1  0  0  0  0
  8  7  1  0  0  0  0
  9 12  1  0  0  0  0
 10 13  2  0  0  0  0
 10 11  1  0  0  0  0
 11  9  2  0  0  0  0
 13 14  1  0  0  0  0
 14 12  2  0  0  0  0
 15 16  1  0  0  0  0
 16 17  1  0  0  0  0
 17 23  2  0  0  0  0
 17 22  1  0  0  0  0
 18 19  1  0  0  0  0
 18 25  1  0  0  0  0
 19 21  1  0  0  0  0
 21 27  2  0  0  0  0
 21 20  1  0  0  0  0
 22 18  2  0  0  0  0
 23 24  1  0  0  0  0
 24 25  2  0  0  0  0
 25 26  1  0  0  0  0
 26 20  2  0  0  0  0
M  END
>  <MODEL>
5

>  <REMARK>
 VINA RESULT:      -8.0      2.147      5.379
  Name = 
  6 active torsions:
  status: ('A' for Active; 'I' for Inactive)
    1  A    between atoms: C_2  and  C_3
    2  A    between atoms: C_3  and  N_25
    3  A    between atoms: N_6  and  C_24
    4  A    between atoms: C_7  and  N_26
    5  A    between atoms: C_15  and  C_24
    6  A    between atoms: C_15  and  N_25
                            x       y       z     vdW  Elec       q    Type
                         _______ _______ _______ _____ _____    ______ ____

>  <TORSDO>
F 6

$$$$
=
 OpenBabel10232411383D

 27 29  0  0  1  0  0  0  0  0999 V2000
  187.3170  177.7070  138.6110 C   0  0  0  0  0  2  0  0  0  0  0  0
  189.7520  177.7980  138.0760 C   0  0  0  0  0  1  0  0  0  0  0  0
  188.6980  178.0600  139.1370 C   0  0  2  0  0  3  0  0  0  0  0  0
  188.9990  177.3170  140.3600 N   0  0  0  0  0  2  0  0  0  0  0  0
  187.9290  178.7720  141.8360 O   0  0  0  0  0  0  0  0  0  0  0  0
  188.6260  177.7320  141.6820 C   0  0  0  0  0  0  0  0  0  0  0  0
  189.0660  176.9690  142.8230 N   0  0  0  0  0  0  0  0  0  0  0  0
  190.0390  175.9040  142.5990 C   0  0  0  0  0  1  0  0  0  0  0  0
  189.0220  177.6630  146.5070 C   0  0  0  0  0  3  0  0  0  0  0  0
  188.5890  177.2200  144.1650 C   0  0  0  0  0  0  0  0  0  0  0  0
  189.4970  177.4340  145.2150 C   0  0  0  0  0  3  0  0  0  0  0  0
  187.6500  177.6750  146.7490 C   0  0  0  0  0  3  0  0  0  0  0  0
  187.2530  177.2350  144.4370 N   0  0  0  0  0  0  0  0  0  0  0  0
  186.7700  177.4560  145.6890 C   0  0  0  0  0  3  0  0  0  0  0  0
  186.3880  178.7880  138.9070 N   0  0  0  0  0  2  0  0  0  0  0  0
  185.0600  178.3430  138.5110 C   0  0  0  0  0  2  0  0  0  0  0  0
  184.1040  178.4880  139.6480 C   0  0  0  0  0  0  0  0  0  0  0  0
  183.7020  178.7730  142.0180 C   0  0  0  0  0  0  0  0  0  0  0  0
  184.1610  178.9030  143.2890 N   0  0  0  0  0  2  0  0  0  0  0  0
  181.9210  179.0550  144.0960 C   0  0  0  0  0  3  0  0  0  0  0  0
  183.2990  179.0440  144.3310 C   0  0  0  0  0  0  0  0  0  0  0  0
  184.5920  178.6230  140.9520 C   0  0  0  0  0  3  0  0  0  0  0  0
  182.7220  178.5060  139.4110 C   0  0  0  0  0  3  0  0  0  0  0  0
  181.8270  178.6560  140.4750 C   0  0  0  0  0  3  0  0  0  0  0  0
  182.3120  178.7880  141.7780 C   0  0  0  0  0  0  0  0  0  0  0  0
  181.4570  178.9280  142.8240 N   0  0  0  0  0  0  0  0  0  0  0  0
  183.7400  179.1630  145.5030 O   0  0  0  0  0  0  0  0  0  0  0  0
  1 15  1  0  0  0  0
  1  3  1  0  0  0  0
  3  2  1  6  0  0  0
  3  4  1  0  0  0  0
  4  6  1  0  0  0  0
  6  5  2  0  0  0  0
  6  7  1  0  0  0  0
  7 10  1  0  0  0  0
  8  7  1  0  0  0  0
  9 12  1  0  0  0  0
 10 13  2  0  0  0  0
 10 11  1  0  0  0  0
 11  9  2  0  0  0  0
 13 14  1  0  0  0  0
 14 12  2  0  0  0  0
 16 15  1  0  0  0  0
 16 17  1  0  0  0  0
 17 22  1  0  0  0  0
 18 19  1  0  0  0  0
 19 21  1  0  0  0  0
 20 21  1  0  0  0  0
 21 27  2  0  0  0  0
 22 18  2  0  0  0  0
 23 17  2  0  0  0  0
 23 24  1  0  0  0  0
 24 25  2  0  0  0  0
 25 18  1  0  0  0  0
 25 26  1  0  0  0  0
 26 20  2  0  0  0  0
M  END
>  <MODEL>
6

>  <REMARK>
 VINA RESULT:      -7.7      2.320      6.077
  Name = 
  6 active torsions:
  status: ('A' for Active; 'I' for Inactive)
    1  A    between atoms: C_2  and  C_3
    2  A    between atoms: C_3  and  N_25
    3  A    between atoms: N_6  and  C_24
    4  A    between atoms: C_7  and  N_26
    5  A    between atoms: C_15  and  C_24
    6  A    between atoms: C_15  and  N_25
                            x       y       z     vdW  Elec       q    Type
                         _______ _______ _______ _____ _____    ______ ____

>  <TORSDO>
F 6

$$$$
=
 OpenBabel10232411383D

 27 29  0  0  1  0  0  0  0  0999 V2000
  182.0140  178.7850  141.7780 C   0  0  0  0  0  2  0  0  0  0  0  0
  180.6770  179.2650  139.7260 C   0  0  0  0  0  1  0  0  0  0  0  0
  182.0690  179.2550  140.3330 C   0  0  2  0  0  3  0  0  0  0  0  0
  182.9730  178.4200  139.5440 N   0  0  0  0  0  2  0  0  0  0  0  0
  184.7860  179.8850  139.5600 O   0  0  0  0  0  0  0  0  0  0  0  0
  184.3020  178.7940  139.1550 C   0  0  0  0  0  0  0  0  0  0  0  0
  185.0650  177.9300  138.2890 N   0  0  0  0  0  0  0  0  0  0  0  0
  184.3800  176.7920  137.6850 C   0  0  0  0  0  1  0  0  0  0  0  0
  188.2690  178.4020  136.4010 C   0  0  0  0  0  3  0  0  0  0  0  0
  186.4640  178.1500  137.9970 C   0  0  0  0  0  0  0  0  0  0  0  0
  186.9140  178.2000  136.6670 C   0  0  0  0  0  3  0  0  0  0  0  0
  189.1690  178.5480  137.4560 C   0  0  0  0  0  3  0  0  0  0  0  0
  187.3710  178.2950  139.0050 N   0  0  0  0  0  0  0  0  0  0  0  0
  188.6950  178.4910  138.7670 C   0  0  0  0  0  3  0  0  0  0  0  0
  183.3380  178.3620  142.2070 N   0  0  0  0  0  2  0  0  0  0  0  0
  183.5730  178.9330  143.5250 C   0  0  0  0  0  2  0  0  0  0  0  0
  184.9060  178.5070  144.0450 C   0  0  0  0  0  0  0  0  0  0  0  0
  186.4200  178.1930  145.9070 C   0  0  0  0  0  0  0  0  0  0  0  0
  186.7020  178.2830  147.2320 N   0  0  0  0  0  2  0  0  0  0  0  0
  188.8780  177.3870  146.8440 C   0  0  0  0  0  3  0  0  0  0  0  0
  187.9100  177.8910  147.7170 C   0  0  0  0  0  0  0  0  0  0  0  0
  185.1800  178.6040  145.4140 C   0  0  0  0  0  3  0  0  0  0  0  0
  185.8740  177.9950  143.1700 C   0  0  0  0  0  3  0  0  0  0  0  0
  187.1180  177.5840  143.6590 C   0  0  0  0  0  3  0  0  0  0  0  0
  187.3960  177.6820  145.0250 C   0  0  0  0  0  0  0  0  0  0  0  0
  188.6000  177.2920  145.5170 N   0  0  0  0  0  0  0  0  0  0  0  0
  188.1550  177.9800  148.9480 O   0  0  0  0  0  0  0  0  0  0  0  0
  1 15  1  0  0  0  0
  3  2  1  6  0  0  0
  3  1  1  0  0  0  0
  4  3  1  0  0  0  0
  6  4  1  0  0  0  0
  6  5  2  0  0  0  0
  7  6  1  0  0  0  0
  8  7  1  0  0  0  0
  9 11  2  0  0  0  0
  9 12  1  0  0  0  0
 10  7  1  0  0  0  0
 10 13  2  0  0  0  0
 11 10  1  0  0  0  0
 12 14  2  0  0  0  0
 14 13  1  0  0  0  0
 15 16  1  0  0  0  0
 16 17  1  0  0  0  0
 17 22  1  0  0  0  0
 18 19  1  0  0  0  0
 19 21  1  0  0  0  0
 20 21  1  0  0  0  0
 21 27  2  0  0  0  0
 22 18  2  0  0  0  0
 23 24  1  0  0  0  0
 23 17  2  0  0  0  0
 24 25  2  0  0  0  0
 25 26  1  0  0  0  0
 25 18  1  0  0  0  0
 26 20  2  0  0  0  0
M  END
>  <MODEL>
7

>  <REMARK>
 VINA RESULT:      -7.7      3.026      5.789
  Name = 
  6 active torsions:
  status: ('A' for Active; 'I' for Inactive)
    1  A    between atoms: C_2  and  C_3
    2  A    between atoms: C_3  and  N_25
    3  A    between atoms: N_6  and  C_24
    4  A    between atoms: C_7  and  N_26
    5  A    between atoms: C_15  and  C_24
    6  A    between atoms: C_15  and  N_25
                            x       y       z     vdW  Elec       q    Type
                         _______ _______ _______ _____ _____    ______ ____

>  <TORSDO>
F 6

$$$$
=
 OpenBabel10232411383D

 27 29  0  0  1  0  0  0  0  0999 V2000
  189.8720  176.9730  140.0030 C   0  0  0  0  0  2  0  0  0  0  0  0
  189.3490  178.7650  138.3470 C   0  0  0  0  0  1  0  0  0  0  0  0
  188.7830  177.6110  139.1550 C   0  0  2  0  0  3  0  0  0  0  0  0
  187.6670  178.0590  139.9860 N   0  0  0  0  0  2  0  0  0  0  0  0
  186.1320  178.3460  138.2540 O   0  0  0  0  0  0  0  0  0  0  0  0
  186.3790  178.4480  139.4870 C   0  0  0  0  0  0  0  0  0  0  0  0
  185.3870  178.9700  140.3930 N   0  0  0  0  0  0  0  0  0  0  0  0
  185.7990  179.2620  141.7620 C   0  0  0  0  0  1  0  0  0  0  0  0
  181.6550  178.7000  140.1510 C   0  0  0  0  0  3  0  0  0  0  0  0
  184.0180  179.2160  139.9980 C   0  0  0  0  0  0  0  0  0  0  0  0
  182.9710  178.4600  140.5510 C   0  0  0  0  0  3  0  0  0  0  0  0
  181.3880  179.6870  139.2030 C   0  0  0  0  0  3  0  0  0  0  0  0
  183.7210  180.1720  139.0710 N   0  0  0  0  0  0  0  0  0  0  0  0
  182.4470  180.4210  138.6680 C   0  0  0  0  0  3  0  0  0  0  0  0
  189.8540  177.5490  141.3400 N   0  0  0  0  0  2  0  0  0  0  0  0
  189.9740  176.4530  142.2890 C   0  0  0  0  0  2  0  0  0  0  0  0
  189.4550  176.8650  143.6260 C   0  0  0  0  0  0  0  0  0  0  0  0
  187.6130  177.5860  145.0210 C   0  0  0  0  0  0  0  0  0  0  0  0
  186.3080  177.9290  145.1750 N   0  0  0  0  0  2  0  0  0  0  0  0
  186.6730  178.3280  147.4990 C   0  0  0  0  0  3  0  0  0  0  0  0
  185.8220  178.2990  146.3910 C   0  0  0  0  0  0  0  0  0  0  0  0
  188.1060  177.2140  143.7690 C   0  0  0  0  0  3  0  0  0  0  0  0
  190.3070  176.8870  144.7390 C   0  0  0  0  0  3  0  0  0  0  0  0
  189.8170  177.2600  145.9950 C   0  0  0  0  0  3  0  0  0  0  0  0
  188.4720  177.6110  146.1400 C   0  0  0  0  0  0  0  0  0  0  0  0
  187.9800  177.9820  147.3500 N   0  0  0  0  0  0  0  0  0  0  0  0
  184.6100  178.6130  146.5170 O   0  0  0  0  0  0  0  0  0  0  0  0
  1 15  1  0  0  0  0
  3  2  1  1  0  0  0
  3  4  1  0  0  0  0
  3  1  1  0  0  0  0
  5  6  2  0  0  0  0
  6  4  1  0  0  0  0
  6  7  1  0  0  0  0
  7  8  1  0  0  0  0
  9 11  1  0  0  0  0
 10  7  1  0  0  0  0
 10 11  2  0  0  0  0
 12  9  2  0  0  0  0
 13 10  1  0  0  0  0
 14 13  2  0  0  0  0
 14 12  1  0  0  0  0
 15 16  1  0  0  0  0
 16 17  1  0  0  0  0
 17 22  2  0  0  0  0
 17 23  1  0  0  0  0
 18 19  1  0  0  0  0
 18 25  2  0  0  0  0
 19 21  1  0  0  0  0
 21 27  2  0  0  0  0
 21 20  1  0  0  0  0
 22 18  1  0  0  0  0
 23 24  2  0  0  0  0
 24 25  1  0  0  0  0
 25 26  1  0  0  0  0
 26 20  2  0  0  0  0
M  END
>  <MODEL>
8

>  <REMARK>
 VINA RESULT:      -7.7      2.766      4.946
  Name = 
  6 active torsions:
  status: ('A' for Active; 'I' for Inactive)
    1  A    between atoms: C_2  and  C_3
    2  A    between atoms: C_3  and  N_25
    3  A    between atoms: N_6  and  C_24
    4  A    between atoms: C_7  and  N_26
    5  A    between atoms: C_15  and  C_24
    6  A    between atoms: C_15  and  N_25
                            x       y       z     vdW  Elec       q    Type
                         _______ _______ _______ _____ _____    ______ ____

>  <TORSDO>
F 6

$$$$
=
 OpenBabel10232411383D

 27 29  0  0  1  0  0  0  0  0999 V2000
  184.8430  179.1750  143.0350 C   0  0  0  0  0  2  0  0  0  0  0  0
  183.0950  178.9260  144.7980 C   0  0  0  0  0  1  0  0  0  0  0  0
  184.4290  178.4140  144.2830 C   0  0  2  0  0  3  0  0  0  0  0  0
  185.4550  178.5080  145.3200 N   0  0  0  0  0  2  0  0  0  0  0  0
  187.0490  177.1830  144.2520 O   0  0  0  0  0  0  0  0  0  0  0  0
  186.7280  177.8480  145.2750 C   0  0  0  0  0  0  0  0  0  0  0  0
  187.6200  177.9320  146.4040 N   0  0  0  0  0  0  0  0  0  0  0  0
  187.1110  178.5330  147.6320 C   0  0  0  0  0  1  0  0  0  0  0  0
  190.8460  176.3170  147.4240 C   0  0  0  0  0  3  0  0  0  0  0  0
  188.9810  177.4460  146.3660 C   0  0  0  0  0  0  0  0  0  0  0  0
  189.5270  176.7710  147.4700 C   0  0  0  0  0  3  0  0  0  0  0  0
  191.6150  176.5400  146.2830 C   0  0  0  0  0  3  0  0  0  0  0  0
  189.7620  177.6480  145.2670 N   0  0  0  0  0  0  0  0  0  0  0  0
  191.0490  177.2150  145.2020 C   0  0  0  0  0  3  0  0  0  0  0  0
  184.7410  178.3060  141.8720 N   0  0  0  0  0  2  0  0  0  0  0  0
  185.1760  179.0720  140.7140 C   0  0  0  0  0  2  0  0  0  0  0  0
  186.4860  178.5600  140.2150 C   0  0  0  0  0  0  0  0  0  0  0  0
  188.7790  177.9150  140.6450 C   0  0  0  0  0  0  0  0  0  0  0  0
  189.8260  177.7630  141.4950 N   0  0  0  0  0  2  0  0  0  0  0  0
  191.1790  176.9530  139.7050 C   0  0  0  0  0  3  0  0  0  0  0  0
  191.0220  177.2900  141.0530 C   0  0  0  0  0  0  0  0  0  0  0  0
  187.5560  178.4070  141.1040 C   0  0  0  0  0  3  0  0  0  0  0  0
  186.6420  178.2160  138.8650 C   0  0  0  0  0  3  0  0  0  0  0  0
  187.8650  177.7230  138.4000 C   0  0  0  0  0  3  0  0  0  0  0  0
  188.9350  177.5720  139.2850 C   0  0  0  0  0  0  0  0  0  0  0  0
  190.1330  177.1000  138.8500 N   0  0  0  0  0  0  0  0  0  0  0  0
  191.9830  177.1550  141.8540 O   0  0  0  0  0  0  0  0  0  0  0  0
  1  3  1  0  0  0  0
  3  2  1  1  0  0  0
  3  4  1  0  0  0  0
  5  6  2  0  0  0  0
  6  4  1  0  0  0  0
  6  7  1  0  0  0  0
  7  8  1  0  0  0  0
  9 11  1  0  0  0  0
 10  7  1  0  0  0  0
 10 11  2  0  0  0  0
 12  9  2  0  0  0  0
 13 10  1  0  0  0  0
 14 13  2  0  0  0  0
 14 12  1  0  0  0  0
 15  1  1  0  0  0  0
 16 15  1  0  0  0  0
 17 16  1  0  0  0  0
 17 22  1  0  0  0  0
 18 22  2  0  0  0  0
 18 19  1  0  0  0  0
 20 21  1  0  0  0  0
 21 19  1  0  0  0  0
 21 27  2  0  0  0  0
 23 17  2  0  0  0  0
 24 23  1  0  0  0  0
 24 25  2  0  0  0  0
 25 18  1  0  0  0  0
 26 25  1  0  0  0  0
 26 20  2  0  0  0  0
M  END
>  <MODEL>
9

>  <REMARK>
 VINA RESULT:      -7.7      1.685      7.529
  Name = 
  6 active torsions:
  status: ('A' for Active; 'I' for Inactive)
    1  A    between atoms: C_2  and  C_3
    2  A    between atoms: C_3  and  N_25
    3  A    between atoms: N_6  and  C_24
    4  A    between atoms: C_7  and  N_26
    5  A    between atoms: C_15  and  C_24
    6  A    between atoms: C_15  and  N_25
                            x       y       z     vdW  Elec       q    Type
                         _______ _______ _______ _____ _____    ______ ____

>  <TORSDO>
F 6

$$$$
