=
 OpenBabel10232409393D

 58 61  0  0  1  0  0  0  0  0999 V2000
  190.9670  176.4310  140.4250 C   0  0  2  0  0  3  0  0  0  0  0  0
  191.3380  176.4810  138.9550 C   0  0  0  0  0  2  0  0  0  0  0  0
  192.8110  176.8050  138.7890 C   0  0  0  0  0  2  0  0  0  0  0  0
  193.3210  176.1440  137.5260 C   0  0  0  0  0  2  0  0  0  0  0  0
  192.8260  174.7120  137.4630 C   0  0  0  0  0  2  0  0  0  0  0  0
  193.7770  173.8930  136.6140 C   0  0  0  0  0  2  0  0  0  0  0  0
  195.0730  174.4000  136.7420 O   0  0  0  0  0  0  0  0  0  0  0  0
  199.8610  174.4190  135.7450 O   0  0  0  0  0  0  0  0  0  0  0  0
  199.6530  173.6340  136.6590 C   0  0  0  0  0  0  0  0  0  0  0  0
  200.1260  171.4860  137.6070 O   0  0  0  0  0  1  0  0  0  0  0  0
  199.2680  174.1610  138.0130 C   0  0  0  0  0  2  0  0  0  0  0  0
  197.5780  175.6260  137.0120 O   0  0  0  0  0  1  0  0  0  0  0  0
  195.8390  173.3230  137.2070 C   0  0  2  0  0  3  0  0  0  0  0  0
  196.7540  173.7440  138.3730 C   0  0  0  0  0  2  0  0  0  0  0  0
  197.0920  173.5230  135.1580 O   0  0  0  0  0  1  0  0  0  0  0  0
  197.4910  171.6810  136.5970 O   0  0  0  0  0  0  0  0  0  0  0  0
  198.6040  171.5510  135.7510 C   0  0  0  0  0  2  0  0  0  0  0  0
  196.5470  172.5940  136.0600 C   0  0  1  0  0  3  0  0  0  0  0  0
  199.8390  172.1600  136.4170 C   0  0  1  0  0  3  0  0  0  0  0  0
  197.8610  174.7710  138.0830 C   0  0  1  0  0  3  0  0  0  0  0  0
  189.5170  176.3280  140.5520 N   0  0  0  0  0  2  0  0  0  0  0  0
  186.5440  179.4060  142.0480 C   0  0  0  0  0  3  0  0  0  0  0  0
  185.9970  178.0660  142.4150 C   0  0  1  0  0  3  0  0  0  0  0  0
  187.5740  179.5630  141.2150 C   0  0  0  0  0  3  0  0  0  0  0  0
  188.3560  178.4750  140.5890 C   0  0  0  0  0  0  0  0  0  0  0  0
  188.6490  177.2850  141.1830 C   0  0  0  0  0  0  0  0  0  0  0  0
  188.8830  178.7800  139.3720 F   0  0  0  0  0  0  0  0  0  0  0  0
  187.0360  177.2600  143.1160 C   0  0  0  0  0  3  0  0  0  0  0  0
  188.1860  176.9070  142.5400 C   0  0  0  0  0  3  0  0  0  0  0  0
  184.7990  178.2380  143.3330 C   0  0  0  0  0  2  0  0  0  0  0  0
  183.5910  178.5180  141.3160 N   0  0  0  0  0  0  0  0  0  0  0  0
  183.5680  178.2440  142.5600 N   0  0  0  0  0  0  0  0  0  0  0  0
  182.4400  178.5480  140.5450 O   0  0  0  0  0  0  0  0  0  0  0  0
  182.3420  177.9930  139.2210 C   0  0  2  0  0  0  0  0  0  0  0  0
  182.1690  179.1170  138.1910 C   0  0  0  0  0  1  0  0  0  0  0  0
  181.1080  175.9170  139.9270 O   0  0  0  0  0  1  0  0  0  0  0  0
  180.1800  177.3470  138.3960 O   0  0  0  0  0  0  0  0  0  0  0  0
  181.1590  177.0640  139.1400 C   0  0  0  0  0  0  0  0  0  0  0  0
  183.4960  177.2300  138.9220 O   0  0  0  0  0  0  0  0  0  0  0  0
  183.9150  177.5070  137.6080 C   0  0  0  0  0  2  0  0  0  0  0  0
  185.3930  177.6840  137.5800 C   0  0  0  0  0  0  0  0  0  0  0  0
  186.1250  176.7870  137.0810 O   0  0  0  0  0  0  0  0  0  0  0  0
  185.9680  178.8140  138.1460 O   0  0  0  0  0  1  0  0  0  0  0  0
  191.4700  177.6860  141.1300 C   0  0  0  0  0  2  0  0  0  0  0  0
  191.5210  177.1170  145.3850 C   0  0  0  0  0  0  0  0  0  0  0  0
  191.3630  178.4000  144.8460 C   0  0  0  0  0  3  0  0  0  0  0  0
  191.3570  178.5850  143.4600 C   0  0  0  0  0  3  0  0  0  0  0  0
  191.5220  177.4860  142.6090 C   0  0  0  0  0  0  0  0  0  0  0  0
  191.6890  176.0170  144.5330 C   0  0  0  0  0  3  0  0  0  0  0  0
  191.6840  176.2010  143.1470 C   0  0  0  0  0  3  0  0  0  0  0  0
  191.5370  176.9340  146.8620 C   0  0  0  0  0  2  0  0  0  0  0  0
  190.3370  176.1130  147.3000 C   0  0  0  0  0  2  0  0  0  0  0  0
  189.1220  176.9690  147.3490 C   0  0  0  0  0  0  0  0  0  0  0  0
  188.1680  176.8830  146.3300 C   0  0  0  0  0  3  0  0  0  0  0  0
  188.9160  177.8410  148.4240 C   0  0  0  0  0  3  0  0  0  0  0  0
  186.8150  178.5470  147.4480 C   0  0  0  0  0  3  0  0  0  0  0  0
  187.0170  177.6730  146.3780 C   0  0  0  0  0  3  0  0  0  0  0  0
  187.7640  178.6310  148.4720 C   0  0  0  0  0  3  0  0  0  0  0  0
  1  2  1  6  0  0  0
  1 21  1  0  0  0  0
  1 44  1  0  0  0  0
  3  2  1  0  0  0  0
  4  3  1  0  0  0  0
  5  4  1  0  0  0  0
  6  7  1  0  0  0  0
  6  5  1  0  0  0  0
  8  9  2  0  0  0  0
  9 11  1  0  0  0  0
 11 20  1  0  0  0  0
 13  7  1  6  0  0  0
 13 14  1  0  0  0  0
 17 19  1  0  0  0  0
 17 16  1  0  0  0  0
 18 15  1  6  0  0  0
 18 16  1  0  0  0  0
 18 13  1  0  0  0  0
 19  9  1  0  0  0  0
 19 10  1  1  0  0  0
 20 12  1  6  0  0  0
 20 14  1  0  0  0  0
 21 26  1  0  0  0  0
 22 23  1  0  0  0  0
 23 28  1  0  0  0  0
 23 30  1  1  0  0  0
 24 22  2  0  0  0  0
 25 26  2  0  0  0  0
 25 24  1  0  0  0  0
 26 29  1  0  0  0  0
 27 25  1  0  0  0  0
 29 28  2  0  0  0  0
 31 32  2  0  0  0  0
 32 30  1  0  0  0  0
 33 31  1  0  0  0  0
 34 35  1  6  0  0  0
 34 33  1  0  0  0  0
 37 38  2  0  0  0  0
 38 34  1  0  0  0  0
 38 36  1  0  0  0  0
 39 34  1  0  0  0  0
 40 39  1  0  0  0  0
 41 40  1  0  0  0  0
 41 43  1  0  0  0  0
 42 41  2  0  0  0  0
 44 48  1  0  0  0  0
 45 51  1  0  0  0  0
 46 45  1  0  0  0  0
 47 46  2  0  0  0  0
 48 50  2  0  0  0  0
 48 47  1  0  0  0  0
 49 45  2  0  0  0  0
 50 49  1  0  0  0  0
 51 52  1  0  0  0  0
 52 53  1  0  0  0  0
 53 55  1  0  0  0  0
 54 57  1  0  0  0  0
 54 53  2  0  0  0  0
 55 58  2  0  0  0  0
 56 58  1  0  0  0  0
 57 56  2  0  0  0  0
M  END
>  <MODEL>
1

>  <REMARK>
 VINA RESULT:      -7.0      0.000      0.000
  Name = 
  22 active torsions:
  status: ('A' for Active; 'I' for Inactive)
    1  A    between atoms: C_3  and  C_5
    2  A    between atoms: C_3  and  C_27
    3  A    between atoms: C_4  and  C_5
    4  A    between atoms: C_4  and  C_40
    5  A    between atoms: C_6  and  C_32
    6  A    between atoms: N_7  and  O_10
    7  A    between atoms: C_8  and  O_10
    8  A    between atoms: C_8  and  O_37
    9  A    between atoms: C_8  and  C_43
   10  A    between atoms: C_12  and  C_24
   11  A    between atoms: C_13  and  O_37
   12  A    between atoms: C_13  and  C_39
   13  A    between atoms: C_15  and  C_17
   14  A    between atoms: C_17  and  C_24
   15  A    between atoms: C_25  and  C_33
   16  A    between atoms: C_25  and  C_54
   17  A    between atoms: N_26  and  C_41
   18  A    between atoms: N_26  and  C_54
   19  A    between atoms: C_27  and  O_56
   20  A    between atoms: C_28  and  O_56
   21  A    between atoms: N_31  and  C_32
   22  A    between atoms: C_40  and  C_54
                            x       y       z     vdW  Elec       q    Type
                         _______ _______ _______ _____ _____    ______ ____

>  <TORSDO>
F 22

$$$$
=
 OpenBabel10232409393D

 58 61  0  0  1  0  0  0  0  0999 V2000
  190.3120  177.0550  138.8180 C   0  0  2  0  0  3  0  0  0  0  0  0
  189.7180  177.3390  137.4520 C   0  0  0  0  0  2  0  0  0  0  0  0
  189.0070  178.6800  137.4490 C   0  0  0  0  0  2  0  0  0  0  0  0
  187.6310  178.5050  136.8440 C   0  0  0  0  0  2  0  0  0  0  0  0
  186.6430  178.1060  137.9230 C   0  0  0  0  0  2  0  0  0  0  0  0
  185.5100  177.3190  137.2970 C   0  0  0  0  0  2  0  0  0  0  0  0
  184.3150  178.0320  137.4330 O   0  0  0  0  0  0  0  0  0  0  0  0
  180.6810  180.4930  139.5910 O   0  0  0  0  0  0  0  0  0  0  0  0
  180.5680  179.3070  139.8630 C   0  0  0  0  0  0  0  0  0  0  0  0
  180.1080  177.6680  141.5480 O   0  0  0  0  0  1  0  0  0  0  0  0
  180.1520  178.3390  138.7910 C   0  0  0  0  0  2  0  0  0  0  0  0
  181.8090  179.2700  137.2450 O   0  0  0  0  0  1  0  0  0  0  0  0
  183.6360  177.4010  138.4830 C   0  0  2  0  0  3  0  0  0  0  0  0
  182.2140  176.9810  138.0630 C   0  0  0  0  0  2  0  0  0  0  0  0
  183.5050  179.5780  139.5080 O   0  0  0  0  0  1  0  0  0  0  0  0
  182.8160  177.6680  140.7320 O   0  0  0  0  0  0  0  0  0  0  0  0
  182.2900  178.6690  141.5640 C   0  0  0  0  0  2  0  0  0  0  0  0
  183.7130  178.2160  139.7800 C   0  0  1  0  0  3  0  0  0  0  0  0
  180.7990  178.8520  141.2790 C   0  0  1  0  0  3  0  0  0  0  0  0
  181.2120  178.0930  137.7080 C   0  0  1  0  0  3  0  0  0  0  0  0
  191.1120  175.8370  138.7510 N   0  0  0  0  0  2  0  0  0  0  0  0
  193.6410  174.2620  135.3350 C   0  0  0  0  0  3  0  0  0  0  0  0
  193.1390  173.0700  136.0820 C   0  0  1  0  0  3  0  0  0  0  0  0
  193.5370  175.5060  135.8030 C   0  0  0  0  0  3  0  0  0  0  0  0
  192.8750  175.9050  137.0640 C   0  0  0  0  0  0  0  0  0  0  0  0
  191.7640  175.3120  137.5820 C   0  0  0  0  0  0  0  0  0  0  0  0
  193.3950  177.0160  137.6540 F   0  0  0  0  0  0  0  0  0  0  0  0
  191.6630  173.1660  136.2690 C   0  0  0  0  0  3  0  0  0  0  0  0
  191.0850  174.1510  136.9580 C   0  0  0  0  0  3  0  0  0  0  0  0
  193.4600  171.8060  135.3030 C   0  0  0  0  0  2  0  0  0  0  0  0
  195.7190  171.2830  135.7820 N   0  0  0  0  0  0  0  0  0  0  0  0
  194.8730  171.7690  134.9630 N   0  0  0  0  0  0  0  0  0  0  0  0
  197.0760  171.2420  135.5040 O   0  0  0  0  0  0  0  0  0  0  0  0
  198.1040  171.5550  136.4610 C   0  0  2  0  0  0  0  0  0  0  0  0
  199.3190  172.1620  135.7460 C   0  0  0  0  0  1  0  0  0  0  0  0
  199.6710  170.3070  137.9830 O   0  0  0  0  0  1  0  0  0  0  0  0
  197.8300  169.2580  137.1110 O   0  0  0  0  0  0  0  0  0  0  0  0
  198.5320  170.3040  137.1840 C   0  0  0  0  0  0  0  0  0  0  0  0
  197.6110  172.4560  137.4350 O   0  0  0  0  0  0  0  0  0  0  0  0
  198.3730  173.6370  137.4130 C   0  0  0  0  0  2  0  0  0  0  0  0
  197.6300  174.7260  138.1030 C   0  0  0  0  0  0  0  0  0  0  0  0
  196.4240  174.9490  137.8120 O   0  0  0  0  0  0  0  0  0  0  0  0
  198.2790  175.5280  139.0340 O   0  0  0  0  0  1  0  0  0  0  0  0
  189.1960  176.8970  139.8470 C   0  0  0  0  0  2  0  0  0  0  0  0
  190.7460  177.6070  143.7860 C   0  0  0  0  0  0  0  0  0  0  0  0
  190.9200  176.3600  143.1730 C   0  0  0  0  0  3  0  0  0  0  0  0
  190.4050  176.1270  141.8940 C   0  0  0  0  0  3  0  0  0  0  0  0
  189.7030  177.1400  141.2290 C   0  0  0  0  0  0  0  0  0  0  0  0
  190.0410  178.6210  143.1230 C   0  0  0  0  0  3  0  0  0  0  0  0
  189.5260  178.3880  141.8430 C   0  0  0  0  0  3  0  0  0  0  0  0
  191.2890  177.8400  145.1530 C   0  0  0  0  0  2  0  0  0  0  0  0
  190.7240  176.8150  146.1210 C   0  0  0  0  0  2  0  0  0  0  0  0
  189.4380  177.3030  146.6890 C   0  0  0  0  0  0  0  0  0  0  0  0
  189.3920  177.7730  148.0050 C   0  0  0  0  0  3  0  0  0  0  0  0
  188.2810  177.3180  145.9030 C   0  0  0  0  0  3  0  0  0  0  0  0
  187.0360  178.2570  147.7550 C   0  0  0  0  0  3  0  0  0  0  0  0
  188.1920  178.2470  148.5390 C   0  0  0  0  0  3  0  0  0  0  0  0
  187.0800  177.7920  146.4370 C   0  0  0  0  0  3  0  0  0  0  0  0
  1  2  1  6  0  0  0
  1 44  1  0  0  0  0
  3  2  1  0  0  0  0
  4  3  1  0  0  0  0
  4  5  1  0  0  0  0
  6  7  1  0  0  0  0
  6  5  1  0  0  0  0
  8  9  2  0  0  0  0
  9 19  1  0  0  0  0
 11  9  1  0  0  0  0
 13  7  1  6  0  0  0
 13 18  1  0  0  0  0
 14 13  1  0  0  0  0
 16 17  1  0  0  0  0
 18 15  1  6  0  0  0
 18 16  1  0  0  0  0
 19 10  1  6  0  0  0
 19 17  1  0  0  0  0
 20 12  1  1  0  0  0
 20 14  1  0  0  0  0
 20 11  1  0  0  0  0
 21  1  1  0  0  0  0
 22 24  2  0  0  0  0
 22 23  1  0  0  0  0
 23 30  1  6  0  0  0
 23 28  1  0  0  0  0
 24 25  1  0  0  0  0
 25 26  2  0  0  0  0
 25 27  1  0  0  0  0
 26 21  1  0  0  0  0
 28 29  2  0  0  0  0
 29 26  1  0  0  0  0
 32 30  1  0  0  0  0
 32 31  2  0  0  0  0
 33 31  1  0  0  0  0
 33 34  1  0  0  0  0
 34 35  1  6  0  0  0
 34 38  1  0  0  0  0
 34 39  1  0  0  0  0
 37 38  2  0  0  0  0
 38 36  1  0  0  0  0
 40 39  1  0  0  0  0
 40 41  1  0  0  0  0
 41 43  1  0  0  0  0
 42 41  2  0  0  0  0
 44 48  1  0  0  0  0
 45 51  1  0  0  0  0
 46 45  1  0  0  0  0
 47 46  2  0  0  0  0
 48 50  2  0  0  0  0
 48 47  1  0  0  0  0
 49 45  2  0  0  0  0
 50 49  1  0  0  0  0
 51 52  1  0  0  0  0
 52 53  1  0  0  0  0
 53 54  1  0  0  0  0
 54 57  2  0  0  0  0
 55 58  1  0  0  0  0
 55 53  2  0  0  0  0
 56 57  1  0  0  0  0
 58 56  2  0  0  0  0
M  END
>  <MODEL>
2

>  <REMARK>
 VINA RESULT:      -6.9      2.450     12.201
  Name = 
  22 active torsions:
  status: ('A' for Active; 'I' for Inactive)
    1  A    between atoms: C_3  and  C_5
    2  A    between atoms: C_3  and  C_27
    3  A    between atoms: C_4  and  C_5
    4  A    between atoms: C_4  and  C_40
    5  A    between atoms: C_6  and  C_32
    6  A    between atoms: N_7  and  O_10
    7  A    between atoms: C_8  and  O_10
    8  A    between atoms: C_8  and  O_37
    9  A    between atoms: C_8  and  C_43
   10  A    between atoms: C_12  and  C_24
   11  A    between atoms: C_13  and  O_37
   12  A    between atoms: C_13  and  C_39
   13  A    between atoms: C_15  and  C_17
   14  A    between atoms: C_17  and  C_24
   15  A    between atoms: C_25  and  C_33
   16  A    between atoms: C_25  and  C_54
   17  A    between atoms: N_26  and  C_41
   18  A    between atoms: N_26  and  C_54
   19  A    between atoms: C_27  and  O_56
   20  A    between atoms: C_28  and  O_56
   21  A    between atoms: N_31  and  C_32
   22  A    between atoms: C_40  and  C_54
                            x       y       z     vdW  Elec       q    Type
                         _______ _______ _______ _____ _____    ______ ____

>  <TORSDO>
F 22

$$$$
=
 OpenBabel10232409393D

 58 61  0  0  1  0  0  0  0  0999 V2000
  183.1860  177.9600  139.5410 C   0  0  2  0  0  3  0  0  0  0  0  0
  184.6840  177.9670  139.3080 C   0  0  0  0  0  2  0  0  0  0  0  0
  185.0200  178.7040  138.0250 C   0  0  0  0  0  2  0  0  0  0  0  0
  186.0900  177.9350  137.2810 C   0  0  0  0  0  2  0  0  0  0  0  0
  185.4880  177.2740  136.0570 C   0  0  0  0  0  2  0  0  0  0  0  0
  186.5230  177.2360  134.9510 C   0  0  0  0  0  2  0  0  0  0  0  0
  187.8050  177.2530  135.5090 O   0  0  0  0  0  0  0  0  0  0  0  0
  190.9560  174.4490  137.9840 O   0  0  0  0  0  0  0  0  0  0  0  0
  190.7140  173.9150  136.9120 C   0  0  0  0  0  0  0  0  0  0  0  0
  191.5810  172.7520  135.0070 O   0  0  0  0  0  1  0  0  0  0  0  0
  189.3560  173.3150  136.6750 C   0  0  0  0  0  2  0  0  0  0  0  0
  188.2650  175.3450  137.5090 O   0  0  0  0  0  1  0  0  0  0  0  0
  188.5260  176.2930  134.7890 C   0  0  2  0  0  3  0  0  0  0  0  0
  188.0350  174.8660  135.1020 C   0  0  0  0  0  2  0  0  0  0  0  0
  190.3700  176.7920  136.2580 O   0  0  0  0  0  1  0  0  0  0  0  0
  190.7160  175.3740  134.3890 O   0  0  0  0  0  0  0  0  0  0  0  0
  191.9130  175.1290  135.0810 C   0  0  0  0  0  2  0  0  0  0  0  0
  190.0390  176.4990  134.9240 C   0  0  1  0  0  3  0  0  0  0  0  0
  191.7990  173.8260  135.8740 C   0  0  1  0  0  3  0  0  0  0  0  0
  188.2220  174.3410  136.5360 C   0  0  1  0  0  3  0  0  0  0  0  0
  182.8430  179.0030  140.5030 N   0  0  0  0  0  2  0  0  0  0  0  0
  183.7590  178.7240  144.9340 C   0  0  0  0  0  3  0  0  0  0  0  0
  184.8630  178.0140  144.2210 C   0  0  1  0  0  3  0  0  0  0  0  0
  182.6340  179.1050  144.3280 C   0  0  0  0  0  3  0  0  0  0  0  0
  182.3290  178.9490  142.8890 C   0  0  0  0  0  0  0  0  0  0  0  0
  183.2420  179.0490  141.8840 C   0  0  0  0  0  0  0  0  0  0  0  0
  181.0080  178.7960  142.6000 F   0  0  0  0  0  0  0  0  0  0  0  0
  185.4170  178.8770  143.1400 C   0  0  0  0  0  3  0  0  0  0  0  0
  184.6870  179.2980  142.1060 C   0  0  0  0  0  3  0  0  0  0  0  0
  185.9710  177.6760  145.2040 C   0  0  0  0  0  2  0  0  0  0  0  0
  188.3330  177.6320  145.0460 N   0  0  0  0  0  0  0  0  0  0  0  0
  187.2400  178.2080  144.7360 N   0  0  0  0  0  0  0  0  0  0  0  0
  189.5650  178.1140  144.6340 O   0  0  0  0  0  0  0  0  0  0  0  0
  190.6290  177.2840  144.1360 C   0  0  2  0  0  0  0  0  0  0  0  0
  191.8070  178.1560  143.6810 C   0  0  0  0  0  1  0  0  0  0  0  0
  190.3660  175.0950  142.9230 O   0  0  0  0  0  1  0  0  0  0  0  0
  189.4770  177.0150  142.0440 O   0  0  0  0  0  0  0  0  0  0  0  0
  190.1400  176.4670  142.9670 C   0  0  0  0  0  0  0  0  0  0  0  0
  191.0520  176.3750  145.1350 O   0  0  0  0  0  0  0  0  0  0  0  0
  191.6250  177.0860  146.2050 C   0  0  0  0  0  2  0  0  0  0  0  0
  191.9380  176.1490  147.3190 C   0  0  0  0  0  0  0  0  0  0  0  0
  191.4900  174.9710  147.2960 O   0  0  0  0  0  0  0  0  0  0  0  0
  192.6840  176.5870  148.4050 O   0  0  0  0  0  1  0  0  0  0  0  0
  182.7480  176.5960  140.0640 C   0  0  0  0  0  2  0  0  0  0  0  0
  182.3110  173.7170  136.9100 C   0  0  0  0  0  0  0  0  0  0  0  0
  183.5810  174.1930  137.2610 C   0  0  0  0  0  3  0  0  0  0  0  0
  183.7200  175.1380  138.2810 C   0  0  0  0  0  3  0  0  0  0  0  0
  182.5860  175.6200  138.9460 C   0  0  0  0  0  0  0  0  0  0  0  0
  181.1750  174.2000  137.5720 C   0  0  0  0  0  3  0  0  0  0  0  0
  181.3140  175.1470  138.5930 C   0  0  0  0  0  3  0  0  0  0  0  0
  182.1740  172.7190  135.8140 C   0  0  0  0  0  2  0  0  0  0  0  0
  182.1520  171.3130  136.3870 C   0  0  0  0  0  2  0  0  0  0  0  0
  183.2970  170.5250  135.8540 C   0  0  0  0  0  0  0  0  0  0  0  0
  183.1200  169.1790  135.5190 C   0  0  0  0  0  3  0  0  0  0  0  0
  184.5430  171.1330  135.6630 C   0  0  0  0  0  3  0  0  0  0  0  0
  185.4310  169.0450  134.8170 C   0  0  0  0  0  3  0  0  0  0  0  0
  184.1860  168.4390  135.0040 C   0  0  0  0  0  3  0  0  0  0  0  0
  185.6090  170.3920  135.1460 C   0  0  0  0  0  3  0  0  0  0  0  0
  1  2  1  1  0  0  0
  1 44  1  0  0  0  0
  1 21  1  0  0  0  0
  3  2  1  0  0  0  0
  4  3  1  0  0  0  0
  5  4  1  0  0  0  0
  6  7  1  0  0  0  0
  6  5  1  0  0  0  0
  9  8  2  0  0  0  0
 11  9  1  0  0  0  0
 13 18  1  0  0  0  0
 13 14  1  0  0  0  0
 13  7  1  1  0  0  0
 14 20  1  0  0  0  0
 16 18  1  0  0  0  0
 16 17  1  0  0  0  0
 17 19  1  0  0  0  0
 18 15  1  1  0  0  0
 19 10  1  6  0  0  0
 19  9  1  0  0  0  0
 20 11  1  0  0  0  0
 20 12  1  1  0  0  0
 21 26  1  0  0  0  0
 23 22  1  0  0  0  0
 23 30  1  1  0  0  0
 24 22  2  0  0  0  0
 25 24  1  0  0  0  0
 26 29  1  0  0  0  0
 26 25  2  0  0  0  0
 27 25  1  0  0  0  0
 28 23  1  0  0  0  0
 29 28  2  0  0  0  0
 32 31  2  0  0  0  0
 32 30  1  0  0  0  0
 33 31  1  0  0  0  0
 34 35  1  6  0  0  0
 34 33  1  0  0  0  0
 34 39  1  0  0  0  0
 36 38  1  0  0  0  0
 37 38  2  0  0  0  0
 38 34  1  0  0  0  0
 39 40  1  0  0  0  0
 40 41  1  0  0  0  0
 41 43  1  0  0  0  0
 42 41  2  0  0  0  0
 45 46  2  0  0  0  0
 45 49  1  0  0  0  0
 46 47  1  0  0  0  0
 47 48  2  0  0  0  0
 48 44  1  0  0  0  0
 49 50  2  0  0  0  0
 50 48  1  0  0  0  0
 51 52  1  0  0  0  0
 51 45  1  0  0  0  0
 53 52  1  0  0  0  0
 54 53  2  0  0  0  0
 55 53  1  0  0  0  0
 56 57  2  0  0  0  0
 56 58  1  0  0  0  0
 57 54  1  0  0  0  0
 58 55  2  0  0  0  0
M  END
>  <MODEL>
3

>  <REMARK>
 VINA RESULT:      -6.5      4.899      9.874
  Name = 
  22 active torsions:
  status: ('A' for Active; 'I' for Inactive)
    1  A    between atoms: C_3  and  C_5
    2  A    between atoms: C_3  and  C_27
    3  A    between atoms: C_4  and  C_5
    4  A    between atoms: C_4  and  C_40
    5  A    between atoms: C_6  and  C_32
    6  A    between atoms: N_7  and  O_10
    7  A    between atoms: C_8  and  O_10
    8  A    between atoms: C_8  and  O_37
    9  A    between atoms: C_8  and  C_43
   10  A    between atoms: C_12  and  C_24
   11  A    between atoms: C_13  and  O_37
   12  A    between atoms: C_13  and  C_39
   13  A    between atoms: C_15  and  C_17
   14  A    between atoms: C_17  and  C_24
   15  A    between atoms: C_25  and  C_33
   16  A    between atoms: C_25  and  C_54
   17  A    between atoms: N_26  and  C_41
   18  A    between atoms: N_26  and  C_54
   19  A    between atoms: C_27  and  O_56
   20  A    between atoms: C_28  and  O_56
   21  A    between atoms: N_31  and  C_32
   22  A    between atoms: C_40  and  C_54
                            x       y       z     vdW  Elec       q    Type
                         _______ _______ _______ _____ _____    ______ ____

>  <TORSDO>
F 22

$$$$
=
 OpenBabel10232409393D

 58 61  0  0  1  0  0  0  0  0999 V2000
  185.9390  176.4650  136.6540 C   0  0  2  0  0  3  0  0  0  0  0  0
  186.3170  177.9180  136.8650 C   0  0  0  0  0  2  0  0  0  0  0  0
  186.8610  178.1290  138.2660 C   0  0  0  0  0  2  0  0  0  0  0  0
  188.3580  177.9080  138.2510 C   0  0  0  0  0  2  0  0  0  0  0  0
  188.9310  178.1890  139.6260 C   0  0  0  0  0  2  0  0  0  0  0  0
  190.2900  177.5290  139.7450 C   0  0  0  0  0  2  0  0  0  0  0  0
  190.4440  177.0030  141.0310 O   0  0  0  0  0  0  0  0  0  0  0  0
  190.4430  176.1130  145.8400 O   0  0  0  0  0  0  0  0  0  0  0  0
  189.8780  177.1780  145.6370 C   0  0  0  0  0  0  0  0  0  0  0  0
  188.0260  178.6010  146.1650 O   0  0  0  0  0  1  0  0  0  0  0  0
  190.6830  178.3680  145.1950 C   0  0  0  0  0  2  0  0  0  0  0  0
  191.8060  177.0290  143.4790 O   0  0  0  0  0  1  0  0  0  0  0  0
  189.5350  177.7150  141.8240 C   0  0  2  0  0  3  0  0  0  0  0  0
  190.2500  178.7700  142.6900 C   0  0  0  0  0  2  0  0  0  0  0  0
  189.3170  175.6970  143.1240 O   0  0  0  0  0  1  0  0  0  0  0  0
  187.8700  177.5260  143.5530 O   0  0  0  0  0  0  0  0  0  0  0  0
  187.6000  176.7530  144.6940 C   0  0  0  0  0  2  0  0  0  0  0  0
  188.5950  176.7780  142.5910 C   0  0  1  0  0  3  0  0  0  0  0  0
  188.3980  177.2830  145.8850 C   0  0  1  0  0  3  0  0  0  0  0  0
  191.2310  178.2720  143.7650 C   0  0  1  0  0  3  0  0  0  0  0  0
  186.8230  175.8780  135.6520 N   0  0  0  0  0  2  0  0  0  0  0  0
  190.5320  173.3580  136.3180 C   0  0  0  0  0  3  0  0  0  0  0  0
  190.6550  173.9520  134.9530 C   0  0  1  0  0  3  0  0  0  0  0  0
  189.4020  173.3990  137.0260 C   0  0  0  0  0  3  0  0  0  0  0  0
  188.1480  174.0690  136.6180 C   0  0  0  0  0  0  0  0  0  0  0  0
  188.0800  175.2270  135.9050 C   0  0  0  0  0  0  0  0  0  0  0  0
  187.0130  173.4980  137.1050 F   0  0  0  0  0  0  0  0  0  0  0  0
  190.4250  175.4230  135.0100 C   0  0  0  0  0  3  0  0  0  0  0  0
  189.2710  175.9590  135.4090 C   0  0  0  0  0  3  0  0  0  0  0  0
  192.0470  173.6870  134.4050 C   0  0  0  0  0  2  0  0  0  0  0  0
  193.8390  172.4900  135.3870 N   0  0  0  0  0  0  0  0  0  0  0  0
  192.9750  173.4210  135.4920 N   0  0  0  0  0  0  0  0  0  0  0  0
  194.7320  172.1940  136.4040 O   0  0  0  0  0  0  0  0  0  0  0  0
  196.0640  171.6960  136.1870 C   0  0  2  0  0  0  0  0  0  0  0  0
  196.4590  171.8750  134.7150 C   0  0  0  0  0  1  0  0  0  0  0  0
  197.3160  169.6710  137.0030 O   0  0  0  0  0  1  0  0  0  0  0  0
  195.0940  169.5150  136.4660 O   0  0  0  0  0  0  0  0  0  0  0  0
  196.1300  170.2320  136.5400 C   0  0  0  0  0  0  0  0  0  0  0  0
  196.9840  172.3710  137.0240 O   0  0  0  0  0  0  0  0  0  0  0  0
  196.2870  173.2270  137.8950 C   0  0  0  0  0  2  0  0  0  0  0  0
  196.4440  174.6370  137.4440 C   0  0  0  0  0  0  0  0  0  0  0  0
  195.4240  175.3460  137.2250 O   0  0  0  0  0  1  0  0  0  0  0  0
  197.7120  175.1570  137.2180 O   0  0  0  0  0  0  0  0  0  0  0  0
  184.4870  176.3670  136.1980 C   0  0  0  0  0  2  0  0  0  0  0  0
  181.8740  177.3170  139.4700 C   0  0  0  0  0  0  0  0  0  0  0  0
  182.5200  176.0750  139.4190 C   0  0  0  0  0  3  0  0  0  0  0  0
  183.3620  175.7630  138.3470 C   0  0  0  0  0  3  0  0  0  0  0  0
  183.5510  176.6910  137.3160 C   0  0  0  0  0  0  0  0  0  0  0  0
  182.0620  178.2450  138.4370 C   0  0  0  0  0  3  0  0  0  0  0  0
  182.9040  177.9330  137.3640 C   0  0  0  0  0  3  0  0  0  0  0  0
  180.9710  177.6330  140.6100 C   0  0  0  0  0  2  0  0  0  0  0  0
  181.3250  178.9880  141.1970 C   0  0  0  0  0  2  0  0  0  0  0  0
  182.3820  178.8360  142.2340 C   0  0  0  0  0  0  0  0  0  0  0  0
  183.7000  178.5710  141.8500 C   0  0  0  0  0  3  0  0  0  0  0  0
  182.0670  178.9820  143.5890 C   0  0  0  0  0  3  0  0  0  0  0  0
  184.3840  178.5840  144.1700 C   0  0  0  0  0  3  0  0  0  0  0  0
  184.7000  178.4430  142.8170 C   0  0  0  0  0  3  0  0  0  0  0  0
  183.0670  178.8540  144.5570 C   0  0  0  0  0  3  0  0  0  0  0  0
  1 44  1  6  0  0  0
  1  2  1  0  0  0  0
  2  3  1  0  0  0  0
  4  3  1  0  0  0  0
  4  5  1  0  0  0  0
  5  6  1  0  0  0  0
  6  7  1  0  0  0  0
  9  8  2  0  0  0  0
  9 19  1  0  0  0  0
 11  9  1  0  0  0  0
 13  7  1  1  0  0  0
 13 18  1  0  0  0  0
 13 14  1  0  0  0  0
 14 20  1  0  0  0  0
 16 17  1  0  0  0  0
 17 19  1  0  0  0  0
 18 15  1  1  0  0  0
 18 16  1  0  0  0  0
 19 10  1  6  0  0  0
 20 12  1  6  0  0  0
 20 11  1  0  0  0  0
 21 26  1  0  0  0  0
 21  1  1  0  0  0  0
 22 24  2  0  0  0  0
 23 30  1  1  0  0  0
 23 28  1  0  0  0  0
 23 22  1  0  0  0  0
 25 24  1  0  0  0  0
 25 27  1  0  0  0  0
 26 25  2  0  0  0  0
 28 29  2  0  0  0  0
 29 26  1  0  0  0  0
 30 32  1  0  0  0  0
 31 32  2  0  0  0  0
 31 33  1  0  0  0  0
 34 35  1  6  0  0  0
 34 33  1  0  0  0  0
 34 38  1  0  0  0  0
 34 39  1  0  0  0  0
 37 38  2  0  0  0  0
 38 36  1  0  0  0  0
 39 40  1  0  0  0  0
 41 40  1  0  0  0  0
 42 41  1  0  0  0  0
 43 41  2  0  0  0  0
 44 48  1  0  0  0  0
 45 51  1  0  0  0  0
 46 45  1  0  0  0  0
 47 46  2  0  0  0  0
 48 50  2  0  0  0  0
 48 47  1  0  0  0  0
 49 45  2  0  0  0  0
 50 49  1  0  0  0  0
 51 52  1  0  0  0  0
 52 53  1  0  0  0  0
 53 55  1  0  0  0  0
 54 53  2  0  0  0  0
 54 57  1  0  0  0  0
 55 58  2  0  0  0  0
 56 58  1  0  0  0  0
 57 56  2  0  0  0  0
M  END
>  <MODEL>
4

>  <REMARK>
 VINA RESULT:      -6.5      3.511     10.920
  Name = 
  22 active torsions:
  status: ('A' for Active; 'I' for Inactive)
    1  A    between atoms: C_3  and  C_5
    2  A    between atoms: C_3  and  C_27
    3  A    between atoms: C_4  and  C_5
    4  A    between atoms: C_4  and  C_40
    5  A    between atoms: C_6  and  C_32
    6  A    between atoms: N_7  and  O_10
    7  A    between atoms: C_8  and  O_10
    8  A    between atoms: C_8  and  O_37
    9  A    between atoms: C_8  and  C_43
   10  A    between atoms: C_12  and  C_24
   11  A    between atoms: C_13  and  O_37
   12  A    between atoms: C_13  and  C_39
   13  A    between atoms: C_15  and  C_17
   14  A    between atoms: C_17  and  C_24
   15  A    between atoms: C_25  and  C_33
   16  A    between atoms: C_25  and  C_54
   17  A    between atoms: N_26  and  C_41
   18  A    between atoms: N_26  and  C_54
   19  A    between atoms: C_27  and  O_56
   20  A    between atoms: C_28  and  O_56
   21  A    between atoms: N_31  and  C_32
   22  A    between atoms: C_40  and  C_54
                            x       y       z     vdW  Elec       q    Type
                         _______ _______ _______ _____ _____    ______ ____

>  <TORSDO>
F 22

$$$$
=
 OpenBabel10232409393D

 58 61  0  0  1  0  0  0  0  0999 V2000
  189.2430  175.7590  136.6190 C   0  0  2  0  0  3  0  0  0  0  0  0
  189.7380  174.7510  135.5990 C   0  0  0  0  0  2  0  0  0  0  0  0
  191.2300  174.9130  135.3720 C   0  0  0  0  0  2  0  0  0  0  0  0
  191.8370  173.5520  135.1030 C   0  0  0  0  0  2  0  0  0  0  0  0
  193.1470  173.7150  134.3580 C   0  0  0  0  0  2  0  0  0  0  0  0
  194.0230  172.5060  134.6200 C   0  0  0  0  0  2  0  0  0  0  0  0
  195.3680  172.8750  134.5290 O   0  0  0  0  0  0  0  0  0  0  0  0
  199.3740  172.8080  137.3330 O   0  0  0  0  0  0  0  0  0  0  0  0
  198.8920  173.9300  137.3650 C   0  0  0  0  0  0  0  0  0  0  0  0
  198.3040  175.8260  138.7040 O   0  0  0  0  0  1  0  0  0  0  0  0
  198.9670  174.8010  136.1420 C   0  0  0  0  0  2  0  0  0  0  0  0
  198.1610  172.9680  134.7310 O   0  0  0  0  0  1  0  0  0  0  0  0
  195.5250  173.9060  135.4640 C   0  0  2  0  0  3  0  0  0  0  0  0
  196.6410  174.8820  135.0440 C   0  0  0  0  0  2  0  0  0  0  0  0
  196.4900  172.2410  136.9150 O   0  0  0  0  0  1  0  0  0  0  0  0
  196.0440  174.4110  137.7610 O   0  0  0  0  0  0  0  0  0  0  0  0
  196.8450  173.9230  138.8060 C   0  0  0  0  0  2  0  0  0  0  0  0
  195.6450  173.3630  136.8930 C   0  0  1  0  0  3  0  0  0  0  0  0
  198.2780  174.4310  138.6450 C   0  0  1  0  0  3  0  0  0  0  0  0
  198.0800  174.3430  134.9770 C   0  0  1  0  0  3  0  0  0  0  0  0
  188.1660  176.5490  136.0320 N   0  0  0  0  0  2  0  0  0  0  0  0
  183.7980  175.3560  136.2430 C   0  0  0  0  0  3  0  0  0  0  0  0
  183.8300  176.8100  135.9000 C   0  0  1  0  0  3  0  0  0  0  0  0
  184.8760  174.6840  136.6490 C   0  0  0  0  0  3  0  0  0  0  0  0
  186.2460  175.2310  136.7620 C   0  0  0  0  0  0  0  0  0  0  0  0
  186.7860  176.1580  135.9250 C   0  0  0  0  0  0  0  0  0  0  0  0
  187.0100  174.6550  137.7300 F   0  0  0  0  0  0  0  0  0  0  0  0
  184.7450  177.0450  134.7480 C   0  0  0  0  0  3  0  0  0  0  0  0
  186.0500  176.7740  134.7940 C   0  0  0  0  0  3  0  0  0  0  0  0
  182.4330  177.2780  135.5300 C   0  0  0  0  0  2  0  0  0  0  0  0
  181.4040  178.7590  137.0640 N   0  0  0  0  0  0  0  0  0  0  0  0
  181.6610  177.5570  136.7290 N   0  0  0  0  0  0  0  0  0  0  0  0
  180.6840  179.0700  138.2060 O   0  0  0  0  0  0  0  0  0  0  0  0
  181.2590  179.1600  139.5210 C   0  0  2  0  0  0  0  0  0  0  0  0
  181.2580  177.7790  140.1910 C   0  0  0  0  0  1  0  0  0  0  0  0
  180.0620  179.7610  141.6510 O   0  0  0  0  0  1  0  0  0  0  0  0
  180.1930  181.2740  139.9350 O   0  0  0  0  0  0  0  0  0  0  0  0
  180.4610  180.1180  140.3670 C   0  0  0  0  0  0  0  0  0  0  0  0
  182.5800  179.6650  139.4470 O   0  0  0  0  0  0  0  0  0  0  0  0
  183.4240  178.8930  140.2650 C   0  0  0  0  0  2  0  0  0  0  0  0
  184.8400  179.0890  139.8490 C   0  0  0  0  0  0  0  0  0  0  0  0
  185.1250  179.2280  138.6290 O   0  0  0  0  0  0  0  0  0  0  0  0
  185.8530  179.0720  140.8000 O   0  0  0  0  0  1  0  0  0  0  0  0
  190.3900  176.6680  137.0500 C   0  0  0  0  0  2  0  0  0  0  0  0
  190.4460  177.2870  141.2970 C   0  0  0  0  0  0  0  0  0  0  0  0
  191.6460  177.1640  140.5860 C   0  0  0  0  0  3  0  0  0  0  0  0
  191.6260  176.9520  139.2040 C   0  0  0  0  0  3  0  0  0  0  0  0
  190.4020  176.8500  138.5320 C   0  0  0  0  0  0  0  0  0  0  0  0
  189.2200  177.1820  140.6250 C   0  0  0  0  0  3  0  0  0  0  0  0
  189.2000  176.9690  139.2430 C   0  0  0  0  0  3  0  0  0  0  0  0
  190.4790  177.5010  142.7700 C   0  0  0  0  0  2  0  0  0  0  0  0
  189.7810  176.3560  143.4820 C   0  0  0  0  0  2  0  0  0  0  0  0
  188.8130  176.8870  144.4780 C   0  0  0  0  0  0  0  0  0  0  0  0
  189.2630  177.2950  145.7380 C   0  0  0  0  0  3  0  0  0  0  0  0
  187.4570  177.0060  144.1510 C   0  0  0  0  0  3  0  0  0  0  0  0
  187.0080  177.9220  146.3470 C   0  0  0  0  0  3  0  0  0  0  0  0
  188.3620  177.8090  146.6720 C   0  0  0  0  0  3  0  0  0  0  0  0
  186.5560  177.5210  145.0860 C   0  0  0  0  0  3  0  0  0  0  0  0
  1  2  1  6  0  0  0
  1 44  1  0  0  0  0
  3  2  1  0  0  0  0
  4  3  1  0  0  0  0
  5  6  1  0  0  0  0
  5  4  1  0  0  0  0
  7  6  1  0  0  0  0
  8  9  2  0  0  0  0
  9 19  1  0  0  0  0
 11  9  1  0  0  0  0
 13  7  1  6  0  0  0
 13 18  1  0  0  0  0
 14 13  1  0  0  0  0
 16 17  1  0  0  0  0
 18 15  1  6  0  0  0
 18 16  1  0  0  0  0
 19 10  1  6  0  0  0
 19 17  1  0  0  0  0
 20 12  1  1  0  0  0
 20 14  1  0  0  0  0
 20 11  1  0  0  0  0
 21  1  1  0  0  0  0
 22 24  2  0  0  0  0
 23 30  1  6  0  0  0
 23 22  1  0  0  0  0
 24 25  1  0  0  0  0
 25 27  1  0  0  0  0
 26 21  1  0  0  0  0
 26 25  2  0  0  0  0
 28 29  2  0  0  0  0
 28 23  1  0  0  0  0
 29 26  1  0  0  0  0
 30 32  1  0  0  0  0
 31 33  1  0  0  0  0
 32 31  2  0  0  0  0
 33 34  1  0  0  0  0
 34 35  1  1  0  0  0
 34 38  1  0  0  0  0
 37 38  2  0  0  0  0
 38 36  1  0  0  0  0
 39 34  1  0  0  0  0
 39 40  1  0  0  0  0
 41 40  1  0  0  0  0
 41 43  1  0  0  0  0
 42 41  2  0  0  0  0
 44 48  1  0  0  0  0
 45 51  1  0  0  0  0
 46 45  2  0  0  0  0
 47 46  1  0  0  0  0
 48 47  2  0  0  0  0
 48 50  1  0  0  0  0
 49 45  1  0  0  0  0
 50 49  2  0  0  0  0
 51 52  1  0  0  0  0
 52 53  1  0  0  0  0
 53 54  1  0  0  0  0
 54 57  2  0  0  0  0
 55 53  2  0  0  0  0
 55 58  1  0  0  0  0
 56 57  1  0  0  0  0
 58 56  2  0  0  0  0
M  END
>  <MODEL>
5

>  <REMARK>
 VINA RESULT:      -6.3      2.350      4.305
  Name = 
  22 active torsions:
  status: ('A' for Active; 'I' for Inactive)
    1  A    between atoms: C_3  and  C_5
    2  A    between atoms: C_3  and  C_27
    3  A    between atoms: C_4  and  C_5
    4  A    between atoms: C_4  and  C_40
    5  A    between atoms: C_6  and  C_32
    6  A    between atoms: N_7  and  O_10
    7  A    between atoms: C_8  and  O_10
    8  A    between atoms: C_8  and  O_37
    9  A    between atoms: C_8  and  C_43
   10  A    between atoms: C_12  and  C_24
   11  A    between atoms: C_13  and  O_37
   12  A    between atoms: C_13  and  C_39
   13  A    between atoms: C_15  and  C_17
   14  A    between atoms: C_17  and  C_24
   15  A    between atoms: C_25  and  C_33
   16  A    between atoms: C_25  and  C_54
   17  A    between atoms: N_26  and  C_41
   18  A    between atoms: N_26  and  C_54
   19  A    between atoms: C_27  and  O_56
   20  A    between atoms: C_28  and  O_56
   21  A    between atoms: N_31  and  C_32
   22  A    between atoms: C_40  and  C_54
                            x       y       z     vdW  Elec       q    Type
                         _______ _______ _______ _____ _____    ______ ____

>  <TORSDO>
F 22

$$$$
=
 OpenBabel10232409393D

 58 61  0  0  1  0  0  0  0  0999 V2000
  190.1150  177.0930  138.7090 C   0  0  2  0  0  3  0  0  0  0  0  0
  189.4960  177.1620  137.3270 C   0  0  0  0  0  2  0  0  0  0  0  0
  188.5480  178.3430  137.2270 C   0  0  0  0  0  2  0  0  0  0  0  0
  187.3180  177.9220  136.4520 C   0  0  0  0  0  2  0  0  0  0  0  0
  186.3460  177.2160  137.3780 C   0  0  0  0  0  2  0  0  0  0  0  0
  186.3510  175.7330  137.0690 C   0  0  0  0  0  2  0  0  0  0  0  0
  185.3160  175.4390  136.1760 O   0  0  0  0  0  0  0  0  0  0  0  0
  182.6350  171.6660  134.5950 O   0  0  0  0  0  0  0  0  0  0  0  0
  182.4410  171.8110  135.7920 C   0  0  0  0  0  0  0  0  0  0  0  0
  180.8430  171.8600  137.5760 O   0  0  0  0  0  1  0  0  0  0  0  0
  183.5350  171.4700  136.7660 C   0  0  0  0  0  2  0  0  0  0  0  0
  185.1640  172.7380  135.4460 O   0  0  0  0  0  1  0  0  0  0  0  0
  184.2530  175.0120  136.9820 C   0  0  2  0  0  3  0  0  0  0  0  0
  184.5600  173.6580  137.6510 C   0  0  0  0  0  2  0  0  0  0  0  0
  183.0630  174.5850  134.9310 O   0  0  0  0  0  1  0  0  0  0  0  0
  181.9210  174.4120  137.0010 O   0  0  0  0  0  0  0  0  0  0  0  0
  180.9700  173.8010  136.1680 C   0  0  0  0  0  2  0  0  0  0  0  0
  182.9140  175.0770  136.2380 C   0  0  1  0  0  3  0  0  0  0  0  0
  181.0910  172.2790  136.2660 C   0  0  1  0  0  3  0  0  0  0  0  0
  184.7320  172.4300  136.7410 C   0  0  1  0  0  3  0  0  0  0  0  0
  191.1430  176.0570  138.7250 N   0  0  0  0  0  2  0  0  0  0  0  0
  193.5730  174.2590  135.3470 C   0  0  0  0  0  3  0  0  0  0  0  0
  193.0920  173.1190  136.1850 C   0  0  1  0  0  3  0  0  0  0  0  0
  193.4820  175.5310  135.7360 C   0  0  0  0  0  3  0  0  0  0  0  0
  192.8560  176.0120  136.9870 C   0  0  0  0  0  0  0  0  0  0  0  0
  191.7610  175.4560  137.5740 C   0  0  0  0  0  0  0  0  0  0  0  0
  193.3940  177.1580  137.4880 F   0  0  0  0  0  0  0  0  0  0  0  0
  191.6230  173.2290  136.4080 C   0  0  0  0  0  3  0  0  0  0  0  0
  191.0640  174.2580  137.0470 C   0  0  0  0  0  3  0  0  0  0  0  0
  193.3910  171.8070  135.4810 C   0  0  0  0  0  2  0  0  0  0  0  0
  195.6930  171.5730  135.9850 N   0  0  0  0  0  0  0  0  0  0  0  0
  194.7930  171.7470  135.1000 N   0  0  0  0  0  0  0  0  0  0  0  0
  197.0410  171.5250  135.6670 O   0  0  0  0  0  0  0  0  0  0  0  0
  198.1010  171.5910  136.6390 C   0  0  2  0  0  0  0  0  0  0  0  0
  199.3960  172.0700  135.9710 C   0  0  0  0  0  1  0  0  0  0  0  0
  197.5650  169.1400  136.8360 O   0  0  0  0  0  0  0  0  0  0  0  0
  199.2580  170.0550  138.0800 O   0  0  0  0  0  1  0  0  0  0  0  0
  198.3310  170.2290  137.2410 C   0  0  0  0  0  0  0  0  0  0  0  0
  197.7440  172.4620  137.6960 O   0  0  0  0  0  0  0  0  0  0  0  0
  197.9620  173.7940  137.3010 C   0  0  0  0  0  2  0  0  0  0  0  0
  198.2270  174.6360  138.5000 C   0  0  0  0  0  0  0  0  0  0  0  0
  199.4090  174.9620  138.7920 O   0  0  0  0  0  0  0  0  0  0  0  0
  197.1770  175.0220  139.3230 O   0  0  0  0  0  1  0  0  0  0  0  0
  189.0400  176.7850  139.7460 C   0  0  0  0  0  2  0  0  0  0  0  0
  190.5070  177.7010  143.6750 C   0  0  0  0  0  0  0  0  0  0  0  0
  190.7080  176.4290  143.1240 C   0  0  0  0  0  3  0  0  0  0  0  0
  190.2200  176.1290  141.8490 C   0  0  0  0  0  3  0  0  0  0  0  0
  189.5180  177.1000  141.1250 C   0  0  0  0  0  0  0  0  0  0  0  0
  189.8020  178.6730  142.9510 C   0  0  0  0  0  3  0  0  0  0  0  0
  189.3130  178.3730  141.6760 C   0  0  0  0  0  3  0  0  0  0  0  0
  191.0210  178.0050  145.0380 C   0  0  0  0  0  2  0  0  0  0  0  0
  190.5210  176.9690  146.0290 C   0  0  0  0  0  2  0  0  0  0  0  0
  189.2280  177.4080  146.6200 C   0  0  0  0  0  0  0  0  0  0  0  0
  189.1730  177.7920  147.9640 C   0  0  0  0  0  3  0  0  0  0  0  0
  188.0750  177.4650  145.8300 C   0  0  0  0  0  3  0  0  0  0  0  0
  186.8130  178.2710  147.7330 C   0  0  0  0  0  3  0  0  0  0  0  0
  187.9660  178.2200  148.5210 C   0  0  0  0  0  3  0  0  0  0  0  0
  186.8670  177.8940  146.3880 C   0  0  0  0  0  3  0  0  0  0  0  0
  1  2  1  6  0  0  0
  1 21  1  0  0  0  0
  1 44  1  0  0  0  0
  3  2  1  0  0  0  0
  4  3  1  0  0  0  0
  4  5  1  0  0  0  0
  6  5  1  0  0  0  0
  7  6  1  0  0  0  0
  8  9  2  0  0  0  0
  9 19  1  0  0  0  0
  9 11  1  0  0  0  0
 13  7  1  6  0  0  0
 13 14  1  0  0  0  0
 17 19  1  0  0  0  0
 17 16  1  0  0  0  0
 18 15  1  6  0  0  0
 18 13  1  0  0  0  0
 18 16  1  0  0  0  0
 19 10  1  1  0  0  0
 20 12  1  6  0  0  0
 20 11  1  0  0  0  0
 20 14  1  0  0  0  0
 22 24  2  0  0  0  0
 22 23  1  0  0  0  0
 23 30  1  6  0  0  0
 23 28  1  0  0  0  0
 24 25  1  0  0  0  0
 25 27  1  0  0  0  0
 25 26  2  0  0  0  0
 26 21  1  0  0  0  0
 28 29  2  0  0  0  0
 29 26  1  0  0  0  0
 32 30  1  0  0  0  0
 32 31  2  0  0  0  0
 33 31  1  0  0  0  0
 33 34  1  0  0  0  0
 34 35  1  6  0  0  0
 34 38  1  0  0  0  0
 34 39  1  0  0  0  0
 36 38  2  0  0  0  0
 38 37  1  0  0  0  0
 40 39  1  0  0  0  0
 40 41  1  0  0  0  0
 41 42  2  0  0  0  0
 41 43  1  0  0  0  0
 44 48  1  0  0  0  0
 45 51  1  0  0  0  0
 46 45  1  0  0  0  0
 47 46  2  0  0  0  0
 48 50  2  0  0  0  0
 48 47  1  0  0  0  0
 49 45  2  0  0  0  0
 50 49  1  0  0  0  0
 51 52  1  0  0  0  0
 52 53  1  0  0  0  0
 53 54  1  0  0  0  0
 54 57  2  0  0  0  0
 55 58  1  0  0  0  0
 55 53  2  0  0  0  0
 56 57  1  0  0  0  0
 58 56  2  0  0  0  0
M  END
>  <MODEL>
6

>  <REMARK>
 VINA RESULT:      -6.3      3.215     11.499
  Name = 
  22 active torsions:
  status: ('A' for Active; 'I' for Inactive)
    1  A    between atoms: C_3  and  C_5
    2  A    between atoms: C_3  and  C_27
    3  A    between atoms: C_4  and  C_5
    4  A    between atoms: C_4  and  C_40
    5  A    between atoms: C_6  and  C_32
    6  A    between atoms: N_7  and  O_10
    7  A    between atoms: C_8  and  O_10
    8  A    between atoms: C_8  and  O_37
    9  A    between atoms: C_8  and  C_43
   10  A    between atoms: C_12  and  C_24
   11  A    between atoms: C_13  and  O_37
   12  A    between atoms: C_13  and  C_39
   13  A    between atoms: C_15  and  C_17
   14  A    between atoms: C_17  and  C_24
   15  A    between atoms: C_25  and  C_33
   16  A    between atoms: C_25  and  C_54
   17  A    between atoms: N_26  and  C_41
   18  A    between atoms: N_26  and  C_54
   19  A    between atoms: C_27  and  O_56
   20  A    between atoms: C_28  and  O_56
   21  A    between atoms: N_31  and  C_32
   22  A    between atoms: C_40  and  C_54
                            x       y       z     vdW  Elec       q    Type
                         _______ _______ _______ _____ _____    ______ ____

>  <TORSDO>
F 22

$$$$
=
 OpenBabel10232409393D

 58 61  0  0  1  0  0  0  0  0999 V2000
  190.9280  176.5170  140.5240 C   0  0  2  0  0  3  0  0  0  0  0  0
  191.2740  176.6230  139.0510 C   0  0  0  0  0  2  0  0  0  0  0  0
  192.7530  176.9090  138.8720 C   0  0  0  0  0  2  0  0  0  0  0  0
  193.1850  176.4220  137.5050 C   0  0  0  0  0  2  0  0  0  0  0  0
  192.6170  175.0400  137.2510 C   0  0  0  0  0  2  0  0  0  0  0  0
  193.6280  173.9970  137.6820 C   0  0  0  0  0  2  0  0  0  0  0  0
  193.6030  172.9240  136.7870 O   0  0  0  0  0  0  0  0  0  0  0  0
  196.8470  169.4690  137.9950 O   0  0  0  0  0  0  0  0  0  0  0  0
  197.1850  169.9710  136.9330 C   0  0  0  0  0  0  0  0  0  0  0  0
  198.9810  170.8200  135.5950 O   0  0  0  0  0  1  0  0  0  0  0  0
  196.3760  169.7000  135.6960 C   0  0  0  0  0  2  0  0  0  0  0  0
  194.2980  170.2110  136.8900 O   0  0  0  0  0  1  0  0  0  0  0  0
  194.8510  172.9520  136.1520 C   0  0  2  0  0  3  0  0  0  0  0  0
  194.9960  171.8000  135.1400 C   0  0  0  0  0  2  0  0  0  0  0  0
  195.7720  172.2240  138.2570 O   0  0  0  0  0  1  0  0  0  0  0  0
  197.2320  172.8530  136.4970 O   0  0  0  0  0  0  0  0  0  0  0  0
  198.1620  172.2370  137.3510 C   0  0  0  0  0  2  0  0  0  0  0  0
  195.9990  173.0740  137.1610 C   0  0  1  0  0  3  0  0  0  0  0  0
  198.4350  170.8080  136.8810 C   0  0  1  0  0  3  0  0  0  0  0  0
  194.9910  170.3610  135.6840 C   0  0  1  0  0  3  0  0  0  0  0  0
  189.4830  176.3670  140.6700 N   0  0  0  0  0  2  0  0  0  0  0  0
  186.4170  179.3680  142.1330 C   0  0  0  0  0  3  0  0  0  0  0  0
  185.9300  178.0180  142.5500 C   0  0  1  0  0  3  0  0  0  0  0  0
  187.4240  179.5410  141.2760 C   0  0  0  0  0  3  0  0  0  0  0  0
  188.2380  178.4660  140.6680 C   0  0  0  0  0  0  0  0  0  0  0  0
  188.5890  177.3080  141.2900 C   0  0  0  0  0  0  0  0  0  0  0  0
  188.7290  178.7550  139.4310 F   0  0  0  0  0  0  0  0  0  0  0  0
  187.0150  177.2760  143.2540 C   0  0  0  0  0  3  0  0  0  0  0  0
  188.1670  176.9520  142.6660 C   0  0  0  0  0  3  0  0  0  0  0  0
  184.7440  178.1700  143.4860 C   0  0  0  0  0  2  0  0  0  0  0  0
  183.0500  179.0320  142.0730 N   0  0  0  0  0  0  0  0  0  0  0  0
  183.4990  178.0470  142.7460 N   0  0  0  0  0  0  0  0  0  0  0  0
  181.8610  178.9610  141.3650 O   0  0  0  0  0  0  0  0  0  0  0  0
  181.7790  178.9280  139.9290 C   0  0  2  0  0  0  0  0  0  0  0  0
  183.0950  179.4240  139.3160 C   0  0  0  0  0  1  0  0  0  0  0  0
  180.3510  180.9890  140.1330 O   0  0  0  0  0  1  0  0  0  0  0  0
  180.0070  179.5110  138.4150 O   0  0  0  0  0  0  0  0  0  0  0  0
  180.6520  179.8100  139.4580 C   0  0  0  0  0  0  0  0  0  0  0  0
  181.4980  177.6130  139.4840 O   0  0  0  0  0  0  0  0  0  0  0  0
  182.6450  177.0660  138.8820 C   0  0  0  0  0  2  0  0  0  0  0  0
  182.2500  175.9750  137.9490 C   0  0  0  0  0  0  0  0  0  0  0  0
  182.7650  174.8310  138.0640 O   0  0  0  0  0  1  0  0  0  0  0  0
  181.3490  176.2310  136.9240 O   0  0  0  0  0  0  0  0  0  0  0  0
  191.4040  177.7660  141.2600 C   0  0  0  0  0  2  0  0  0  0  0  0
  191.3940  177.1200  145.5040 C   0  0  0  0  0  0  0  0  0  0  0  0
  191.2270  178.4100  144.9850 C   0  0  0  0  0  3  0  0  0  0  0  0
  191.2410  178.6200  143.6030 C   0  0  0  0  0  3  0  0  0  0  0  0
  191.4350  177.5390  142.7360 C   0  0  0  0  0  0  0  0  0  0  0  0
  191.5910  176.0380  144.6360 C   0  0  0  0  0  3  0  0  0  0  0  0
  191.6060  176.2470  143.2530 C   0  0  0  0  0  3  0  0  0  0  0  0
  191.3890  176.9100  146.9780 C   0  0  0  0  0  2  0  0  0  0  0  0
  190.1630  176.1140  147.3880 C   0  0  0  0  0  2  0  0  0  0  0  0
  188.9750  177.0060  147.4640 C   0  0  0  0  0  0  0  0  0  0  0  0
  188.8770  177.9480  148.4930 C   0  0  0  0  0  3  0  0  0  0  0  0
  187.9690  176.9250  146.4950 C   0  0  0  0  0  3  0  0  0  0  0  0
  186.7650  178.7150  147.5960 C   0  0  0  0  0  3  0  0  0  0  0  0
  187.7710  178.8000  148.5610 C   0  0  0  0  0  3  0  0  0  0  0  0
  186.8630  177.7780  146.5630 C   0  0  0  0  0  3  0  0  0  0  0  0
  1  2  1  6  0  0  0
  1 21  1  0  0  0  0
  1 44  1  0  0  0  0
  3  2  1  0  0  0  0
  4  3  1  0  0  0  0
  5  4  1  0  0  0  0
  5  6  1  0  0  0  0
  7  6  1  0  0  0  0
  9  8  2  0  0  0  0
 11  9  1  0  0  0  0
 13  7  1  1  0  0  0
 13 18  1  0  0  0  0
 14 20  1  0  0  0  0
 14 13  1  0  0  0  0
 16 18  1  0  0  0  0
 16 17  1  0  0  0  0
 18 15  1  1  0  0  0
 19 10  1  6  0  0  0
 19  9  1  0  0  0  0
 19 17  1  0  0  0  0
 20 11  1  0  0  0  0
 20 12  1  1  0  0  0
 21 26  1  0  0  0  0
 22 23  1  0  0  0  0
 23 28  1  0  0  0  0
 23 30  1  1  0  0  0
 24 22  2  0  0  0  0
 25 24  1  0  0  0  0
 25 26  2  0  0  0  0
 26 29  1  0  0  0  0
 27 25  1  0  0  0  0
 29 28  2  0  0  0  0
 31 32  2  0  0  0  0
 32 30  1  0  0  0  0
 33 31  1  0  0  0  0
 34 35  1  6  0  0  0
 34 33  1  0  0  0  0
 37 38  2  0  0  0  0
 38 34  1  0  0  0  0
 38 36  1  0  0  0  0
 39 34  1  0  0  0  0
 40 39  1  0  0  0  0
 41 42  1  0  0  0  0
 41 40  1  0  0  0  0
 43 41  2  0  0  0  0
 44 48  1  0  0  0  0
 45 51  1  0  0  0  0
 46 45  1  0  0  0  0
 47 46  2  0  0  0  0
 48 50  2  0  0  0  0
 48 47  1  0  0  0  0
 49 45  2  0  0  0  0
 50 49  1  0  0  0  0
 51 52  1  0  0  0  0
 52 53  1  0  0  0  0
 53 54  1  0  0  0  0
 54 57  2  0  0  0  0
 55 58  1  0  0  0  0
 55 53  2  0  0  0  0
 56 57  1  0  0  0  0
 58 56  2  0  0  0  0
M  END
>  <MODEL>
7

>  <REMARK>
 VINA RESULT:      -6.1      1.509      2.477
  Name = 
  22 active torsions:
  status: ('A' for Active; 'I' for Inactive)
    1  A    between atoms: C_3  and  C_5
    2  A    between atoms: C_3  and  C_27
    3  A    between atoms: C_4  and  C_5
    4  A    between atoms: C_4  and  C_40
    5  A    between atoms: C_6  and  C_32
    6  A    between atoms: N_7  and  O_10
    7  A    between atoms: C_8  and  O_10
    8  A    between atoms: C_8  and  O_37
    9  A    between atoms: C_8  and  C_43
   10  A    between atoms: C_12  and  C_24
   11  A    between atoms: C_13  and  O_37
   12  A    between atoms: C_13  and  C_39
   13  A    between atoms: C_15  and  C_17
   14  A    between atoms: C_17  and  C_24
   15  A    between atoms: C_25  and  C_33
   16  A    between atoms: C_25  and  C_54
   17  A    between atoms: N_26  and  C_41
   18  A    between atoms: N_26  and  C_54
   19  A    between atoms: C_27  and  O_56
   20  A    between atoms: C_28  and  O_56
   21  A    between atoms: N_31  and  C_32
   22  A    between atoms: C_40  and  C_54
                            x       y       z     vdW  Elec       q    Type
                         _______ _______ _______ _____ _____    ______ ____

>  <TORSDO>
F 22

$$$$
=
 OpenBabel10232409393D

 58 61  0  0  1  0  0  0  0  0999 V2000
  186.3940  176.3470  136.0500 C   0  0  2  0  0  3  0  0  0  0  0  0
  187.5980  177.2100  135.7260 C   0  0  0  0  0  2  0  0  0  0  0  0
  188.0660  177.9550  136.9620 C   0  0  0  0  0  2  0  0  0  0  0  0
  189.5600  177.7620  137.1160 C   0  0  0  0  0  2  0  0  0  0  0  0
  189.9560  177.9770  138.5640 C   0  0  0  0  0  2  0  0  0  0  0  0
  188.9870  177.2360  139.4620 C   0  0  0  0  0  2  0  0  0  0  0  0
  189.6650  176.7560  140.5860 O   0  0  0  0  0  0  0  0  0  0  0  0
  191.4660  175.8390  145.0400 O   0  0  0  0  0  0  0  0  0  0  0  0
  190.8730  176.9070  145.0680 C   0  0  0  0  0  0  0  0  0  0  0  0
  189.3630  178.3340  146.2600 O   0  0  0  0  0  1  0  0  0  0  0  0
  191.4590  178.0970  144.3610 C   0  0  0  0  0  2  0  0  0  0  0  0
  191.8480  176.7630  142.3440 O   0  0  0  0  0  1  0  0  0  0  0  0
  189.1260  177.4670  141.6660 C   0  0  2  0  0  3  0  0  0  0  0  0
  190.1190  178.5140  142.2040 C   0  0  0  0  0  2  0  0  0  0  0  0
  189.4000  175.4430  142.9450 O   0  0  0  0  0  1  0  0  0  0  0  0
  188.2310  177.2740  143.8930 O   0  0  0  0  0  0  0  0  0  0  0  0
  188.4040  176.4960  145.0490 C   0  0  0  0  0  2  0  0  0  0  0  0
  188.5370  176.5290  142.7260 C   0  0  1  0  0  3  0  0  0  0  0  0
  189.5950  177.0170  145.8550 C   0  0  1  0  0  3  0  0  0  0  0  0
  191.4300  178.0060  142.8290 C   0  0  1  0  0  3  0  0  0  0  0  0
  186.3980  175.1700  135.1870 N   0  0  0  0  0  2  0  0  0  0  0  0
  188.8750  171.3740  135.1540 C   0  0  0  0  0  3  0  0  0  0  0  0
  189.8120  172.5010  134.8630 C   0  0  1  0  0  3  0  0  0  0  0  0
  187.5490  171.5160  135.1490 C   0  0  0  0  0  3  0  0  0  0  0  0
  186.8140  172.7790  134.9250 C   0  0  0  0  0  0  0  0  0  0  0  0
  187.2290  174.0070  135.3400 C   0  0  0  0  0  0  0  0  0  0  0  0
  185.5900  172.6310  134.3460 F   0  0  0  0  0  0  0  0  0  0  0  0
  189.6510  173.5790  135.8800 C   0  0  0  0  0  3  0  0  0  0  0  0
  188.5090  174.2450  136.0510 C   0  0  0  0  0  3  0  0  0  0  0  0
  191.2440  171.9960  134.8960 C   0  0  0  0  0  2  0  0  0  0  0  0
  193.2390  172.9570  135.7350 N   0  0  0  0  0  0  0  0  0  0  0  0
  192.0040  172.7010  135.9150 N   0  0  0  0  0  0  0  0  0  0  0  0
  194.0040  173.6140  136.6850 O   0  0  0  0  0  0  0  0  0  0  0  0
  194.2090  175.0380  136.7100 C   0  0  2  0  0  0  0  0  0  0  0  0
  193.3260  175.6780  137.7890 C   0  0  0  0  0  1  0  0  0  0  0  0
  194.8600  176.0520  134.5010 O   0  0  0  0  0  0  0  0  0  0  0  0
  192.6520  175.7040  135.0050 O   0  0  0  0  0  1  0  0  0  0  0  0
  193.8580  175.6320  135.3700 C   0  0  0  0  0  0  0  0  0  0  0  0
  195.5720  175.3340  136.9560 O   0  0  0  0  0  0  0  0  0  0  0  0
  196.2630  174.1470  137.2580 C   0  0  0  0  0  2  0  0  0  0  0  0
  197.4890  174.4660  138.0390 C   0  0  0  0  0  0  0  0  0  0  0  0
  197.4180  175.2310  139.0380 O   0  0  0  0  0  1  0  0  0  0  0  0
  198.7190  173.9590  137.6400 O   0  0  0  0  0  0  0  0  0  0  0  0
  185.1110  177.1470  135.8450 C   0  0  0  0  0  2  0  0  0  0  0  0
  182.9830  177.5100  139.5550 C   0  0  0  0  0  0  0  0  0  0  0  0
  182.3360  177.0170  138.4150 C   0  0  0  0  0  3  0  0  0  0  0  0
  183.0280  176.9090  137.2050 C   0  0  0  0  0  3  0  0  0  0  0  0
  184.3680  177.3070  137.1300 C   0  0  0  0  0  0  0  0  0  0  0  0
  184.3240  177.9110  139.4800 C   0  0  0  0  0  3  0  0  0  0  0  0
  185.0160  177.8040  138.2690 C   0  0  0  0  0  3  0  0  0  0  0  0
  182.2330  177.6310  140.8350 C   0  0  0  0  0  2  0  0  0  0  0  0
  182.4410  179.0100  141.4350 C   0  0  0  0  0  2  0  0  0  0  0  0
  183.1850  178.9020  142.7200 C   0  0  0  0  0  0  0  0  0  0  0  0
  182.5410  179.2050  143.9240 C   0  0  0  0  0  3  0  0  0  0  0  0
  184.5170  178.4740  142.7300 C   0  0  0  0  0  3  0  0  0  0  0  0
  184.5590  178.6680  145.1440 C   0  0  0  0  0  3  0  0  0  0  0  0
  183.2280  179.0900  145.1350 C   0  0  0  0  0  3  0  0  0  0  0  0
  185.2040  178.3590  143.9410 C   0  0  0  0  0  3  0  0  0  0  0  0
  1  2  1  6  0  0  0
  2  3  1  0  0  0  0
  3  4  1  0  0  0  0
  4  5  1  0  0  0  0
  5  6  1  0  0  0  0
  6  7  1  0  0  0  0
  8  9  2  0  0  0  0
  9 19  1  0  0  0  0
 11  9  1  0  0  0  0
 13  7  1  6  0  0  0
 13 14  1  0  0  0  0
 13 18  1  0  0  0  0
 14 20  1  0  0  0  0
 16 17  1  0  0  0  0
 17 19  1  0  0  0  0
 18 15  1  1  0  0  0
 18 16  1  0  0  0  0
 19 10  1  6  0  0  0
 20 12  1  1  0  0  0
 20 11  1  0  0  0  0
 21 26  1  0  0  0  0
 21  1  1  0  0  0  0
 23 30  1  1  0  0  0
 23 22  1  0  0  0  0
 23 28  1  0  0  0  0
 24 22  2  0  0  0  0
 25 24  1  0  0  0  0
 25 26  2  0  0  0  0
 26 29  1  0  0  0  0
 27 25  1  0  0  0  0
 28 29  2  0  0  0  0
 30 32  1  0  0  0  0
 31 32  2  0  0  0  0
 31 33  1  0  0  0  0
 33 34  1  0  0  0  0
 34 39  1  0  0  0  0
 34 35  1  1  0  0  0
 36 38  2  0  0  0  0
 37 38  1  0  0  0  0
 38 34  1  0  0  0  0
 39 40  1  0  0  0  0
 40 41  1  0  0  0  0
 41 42  1  0  0  0  0
 43 41  2  0  0  0  0
 44  1  1  0  0  0  0
 44 48  1  0  0  0  0
 45 51  1  0  0  0  0
 46 45  2  0  0  0  0
 47 46  1  0  0  0  0
 48 47  2  0  0  0  0
 48 50  1  0  0  0  0
 49 45  1  0  0  0  0
 50 49  2  0  0  0  0
 51 52  1  0  0  0  0
 52 53  1  0  0  0  0
 53 55  2  0  0  0  0
 53 54  1  0  0  0  0
 54 57  2  0  0  0  0
 55 58  1  0  0  0  0
 57 56  1  0  0  0  0
 58 56  2  0  0  0  0
M  END
>  <MODEL>
8

>  <REMARK>
 VINA RESULT:      -6.0      3.820     10.238
  Name = 
  22 active torsions:
  status: ('A' for Active; 'I' for Inactive)
    1  A    between atoms: C_3  and  C_5
    2  A    between atoms: C_3  and  C_27
    3  A    between atoms: C_4  and  C_5
    4  A    between atoms: C_4  and  C_40
    5  A    between atoms: C_6  and  C_32
    6  A    between atoms: N_7  and  O_10
    7  A    between atoms: C_8  and  O_10
    8  A    between atoms: C_8  and  O_37
    9  A    between atoms: C_8  and  C_43
   10  A    between atoms: C_12  and  C_24
   11  A    between atoms: C_13  and  O_37
   12  A    between atoms: C_13  and  C_39
   13  A    between atoms: C_15  and  C_17
   14  A    between atoms: C_17  and  C_24
   15  A    between atoms: C_25  and  C_33
   16  A    between atoms: C_25  and  C_54
   17  A    between atoms: N_26  and  C_41
   18  A    between atoms: N_26  and  C_54
   19  A    between atoms: C_27  and  O_56
   20  A    between atoms: C_28  and  O_56
   21  A    between atoms: N_31  and  C_32
   22  A    between atoms: C_40  and  C_54
                            x       y       z     vdW  Elec       q    Type
                         _______ _______ _______ _____ _____    ______ ____

>  <TORSDO>
F 22

$$$$
=
 OpenBabel10232409393D

 58 61  0  0  1  0  0  0  0  0999 V2000
  188.6480  178.1630  140.9030 C   0  0  2  0  0  3  0  0  0  0  0  0
  187.3460  177.6910  141.5230 C   0  0  0  0  0  2  0  0  0  0  0  0
  186.5070  178.8760  141.9620 C   0  0  0  0  0  2  0  0  0  0  0  0
  186.0870  178.6740  143.4030 C   0  0  0  0  0  2  0  0  0  0  0  0
  184.7670  179.3770  143.6550 C   0  0  0  0  0  2  0  0  0  0  0  0
  183.6290  178.4330  143.3240 C   0  0  0  0  0  2  0  0  0  0  0  0
  182.7250  179.0730  142.4700 O   0  0  0  0  0  0  0  0  0  0  0  0
  182.1880  180.1450  137.7290 O   0  0  0  0  0  0  0  0  0  0  0  0
  182.2050  178.9300  137.8570 C   0  0  0  0  0  0  0  0  0  0  0  0
  181.2440  176.8300  137.2220 O   0  0  0  0  0  1  0  0  0  0  0  0
  183.4900  178.2440  138.2280 C   0  0  0  0  0  2  0  0  0  0  0  0
  183.8770  179.8500  140.0370 O   0  0  0  0  0  1  0  0  0  0  0  0
  182.2480  178.0640  141.6250 C   0  0  2  0  0  3  0  0  0  0  0  0
  183.3600  177.5330  140.6990 C   0  0  0  0  0  2  0  0  0  0  0  0
  181.0640  179.8070  140.4560 O   0  0  0  0  0  1  0  0  0  0  0  0
  180.6560  177.5390  139.8970 O   0  0  0  0  0  0  0  0  0  0  0  0
  180.0220  178.1560  138.8060 C   0  0  0  0  0  2  0  0  0  0  0  0
  180.9570  178.4820  140.9120 C   0  0  1  0  0  3  0  0  0  0  0  0
  180.9490  178.1450  137.5900 C   0  0  1  0  0  3  0  0  0  0  0  0
  183.9590  178.5040  139.6670 C   0  0  1  0  0  3  0  0  0  0  0  0
  189.5250  177.0150  140.6930 N   0  0  0  0  0  2  0  0  0  0  0  0
  193.1480  176.4030  138.0380 C   0  0  0  0  0  3  0  0  0  0  0  0
  192.0830  175.4860  137.5300 C   0  0  1  0  0  3  0  0  0  0  0  0
  193.0550  177.0440  139.2030 C   0  0  0  0  0  3  0  0  0  0  0  0
  191.8990  177.0040  140.1250 C   0  0  0  0  0  0  0  0  0  0  0  0
  190.5960  176.9290  139.7370 C   0  0  0  0  0  0  0  0  0  0  0  0
  192.2130  177.1600  141.4400 F   0  0  0  0  0  0  0  0  0  0  0  0
  190.8120  176.2360  137.3260 C   0  0  0  0  0  3  0  0  0  0  0  0
  190.1620  176.8410  138.3220 C   0  0  0  0  0  3  0  0  0  0  0  0
  192.5200  174.8780  136.2080 C   0  0  0  0  0  2  0  0  0  0  0  0
  194.5840  173.7170  136.2080 N   0  0  0  0  0  0  0  0  0  0  0  0
  193.9710  174.8320  136.1300 N   0  0  0  0  0  0  0  0  0  0  0  0
  195.9650  173.6290  136.1530 O   0  0  0  0  0  0  0  0  0  0  0  0
  196.8220  173.6720  137.3070 C   0  0  2  0  0  0  0  0  0  0  0  0
  195.9910  173.5030  138.5860 C   0  0  0  0  0  1  0  0  0  0  0  0
  197.6400  175.7920  136.2260 O   0  0  0  0  0  0  0  0  0  0  0  0
  198.0260  175.4090  138.4520 O   0  0  0  0  0  1  0  0  0  0  0  0
  197.5450  174.9930  137.3610 C   0  0  0  0  0  0  0  0  0  0  0  0
  197.8070  172.6580  137.2270 O   0  0  0  0  0  0  0  0  0  0  0  0
  197.1960  171.3990  137.3630 C   0  0  0  0  0  2  0  0  0  0  0  0
  198.2150  170.3270  137.1940 C   0  0  0  0  0  0  0  0  0  0  0  0
  197.8710  169.1930  136.7620 O   0  0  0  0  0  0  0  0  0  0  0  0
  199.5350  170.5600  137.5580 O   0  0  0  0  0  1  0  0  0  0  0  0
  189.3210  179.1800  141.8190 C   0  0  0  0  0  2  0  0  0  0  0  0
  191.1220  177.2060  145.1780 C   0  0  0  0  0  0  0  0  0  0  0  0
  190.1430  176.5540  144.4170 C   0  0  0  0  0  3  0  0  0  0  0  0
  189.5500  177.2020  143.3300 C   0  0  0  0  0  3  0  0  0  0  0  0
  189.9270  178.5120  143.0080 C   0  0  0  0  0  0  0  0  0  0  0  0
  191.4980  178.5170  144.8580 C   0  0  0  0  0  3  0  0  0  0  0  0
  190.9040  179.1670  143.7700 C   0  0  0  0  0  3  0  0  0  0  0  0
  191.7390  176.5100  146.3400 C   0  0  0  0  0  2  0  0  0  0  0  0
  190.6610  175.8720  147.2000 C   0  0  0  0  0  2  0  0  0  0  0  0
  189.5530  176.8380  147.4300 C   0  0  0  0  0  0  0  0  0  0  0  0
  188.3630  176.7170  146.7050 C   0  0  0  0  0  3  0  0  0  0  0  0
  189.6870  177.8500  148.3870 C   0  0  0  0  0  3  0  0  0  0  0  0
  187.4490  178.6240  147.8800 C   0  0  0  0  0  3  0  0  0  0  0  0
  187.3130  177.6110  146.9280 C   0  0  0  0  0  3  0  0  0  0  0  0
  188.6360  178.7430  148.6100 C   0  0  0  0  0  3  0  0  0  0  0  0
  1  2  1  1  0  0  0
  1 44  1  0  0  0  0
  2  3  1  0  0  0  0
  3  4  1  0  0  0  0
  4  5  1  0  0  0  0
  6  5  1  0  0  0  0
  7  6  1  0  0  0  0
  8  9  2  0  0  0  0
  9 11  1  0  0  0  0
 11 20  1  0  0  0  0
 13  7  1  6  0  0  0
 14 13  1  0  0  0  0
 16 18  1  0  0  0  0
 17 16  1  0  0  0  0
 18 15  1  6  0  0  0
 18 13  1  0  0  0  0
 19 10  1  1  0  0  0
 19  9  1  0  0  0  0
 19 17  1  0  0  0  0
 20 12  1  1  0  0  0
 20 14  1  0  0  0  0
 21  1  1  0  0  0  0
 22 24  2  0  0  0  0
 23 30  1  6  0  0  0
 23 22  1  0  0  0  0
 24 25  1  0  0  0  0
 25 27  1  0  0  0  0
 26 25  2  0  0  0  0
 26 21  1  0  0  0  0
 28 23  1  0  0  0  0
 28 29  2  0  0  0  0
 29 26  1  0  0  0  0
 32 30  1  0  0  0  0
 32 31  2  0  0  0  0
 33 31  1  0  0  0  0
 33 34  1  0  0  0  0
 34 38  1  0  0  0  0
 34 35  1  1  0  0  0
 36 38  2  0  0  0  0
 38 37  1  0  0  0  0
 39 34  1  0  0  0  0
 39 40  1  0  0  0  0
 41 40  1  0  0  0  0
 41 43  1  0  0  0  0
 42 41  2  0  0  0  0
 44 48  1  0  0  0  0
 45 51  1  0  0  0  0
 46 45  2  0  0  0  0
 47 46  1  0  0  0  0
 48 47  2  0  0  0  0
 48 50  1  0  0  0  0
 49 45  1  0  0  0  0
 50 49  2  0  0  0  0
 51 52  1  0  0  0  0
 52 53  1  0  0  0  0
 53 55  1  0  0  0  0
 54 57  1  0  0  0  0
 54 53  2  0  0  0  0
 55 58  2  0  0  0  0
 56 58  1  0  0  0  0
 57 56  2  0  0  0  0
M  END
>  <MODEL>
9

>  <REMARK>
 VINA RESULT:      -6.0      1.996     11.794
  Name = 
  22 active torsions:
  status: ('A' for Active; 'I' for Inactive)
    1  A    between atoms: C_3  and  C_5
    2  A    between atoms: C_3  and  C_27
    3  A    between atoms: C_4  and  C_5
    4  A    between atoms: C_4  and  C_40
    5  A    between atoms: C_6  and  C_32
    6  A    between atoms: N_7  and  O_10
    7  A    between atoms: C_8  and  O_10
    8  A    between atoms: C_8  and  O_37
    9  A    between atoms: C_8  and  C_43
   10  A    between atoms: C_12  and  C_24
   11  A    between atoms: C_13  and  O_37
   12  A    between atoms: C_13  and  C_39
   13  A    between atoms: C_15  and  C_17
   14  A    between atoms: C_17  and  C_24
   15  A    between atoms: C_25  and  C_33
   16  A    between atoms: C_25  and  C_54
   17  A    between atoms: N_26  and  C_41
   18  A    between atoms: N_26  and  C_54
   19  A    between atoms: C_27  and  O_56
   20  A    between atoms: C_28  and  O_56
   21  A    between atoms: N_31  and  C_32
   22  A    between atoms: C_40  and  C_54
                            x       y       z     vdW  Elec       q    Type
                         _______ _______ _______ _____ _____    ______ ____

>  <TORSDO>
F 22

$$$$
