=
 OpenBabel10232409463D

 25 28  0  0  1  0  0  0  0  0999 V2000
  189.6450  177.1740  145.9530 C   0  0  0  0  0  3  0  0  0  0  0  0
  186.9120  178.2520  147.0440 C   0  0  0  0  0  0  0  0  0  0  0  0
  189.9070  177.3270  147.3220 C   0  0  0  0  0  0  0  0  0  0  0  0
  185.5910  178.6800  147.0530 C   0  0  0  0  0  3  0  0  0  0  0  0
  184.6490  178.3030  143.0270 C   0  0  0  0  0  0  0  0  0  0  0  0
  187.6880  178.1960  148.1850 C   0  0  0  0  0  3  0  0  0  0  0  0
  185.1550  178.5980  145.7460 C   0  0  0  0  0  0  0  0  0  0  0  0
  189.0100  177.7840  148.2890 C   0  0  0  0  0  3  0  0  0  0  0  0
  188.4960  177.4210  145.2140 C   0  0  0  0  0  3  0  0  0  0  0  0
  185.9250  177.9730  143.5310 C   0  0  0  0  0  0  0  0  0  0  0  0
  183.6420  178.7730  143.8910 C   0  0  0  0  0  3  0  0  0  0  0  0
  187.2830  177.8990  145.6780 C   0  0  0  0  0  0  0  0  0  0  0  0
  186.1530  178.1340  144.9110 C   0  0  0  0  0  0  0  0  0  0  0  0
  183.8890  178.9240  145.2630 C   0  0  0  0  0  3  0  0  0  0  0  0
  184.3680  178.1690  141.6720 O   0  0  0  0  0  1  0  0  0  0  0  0
  191.9170  175.8660  147.3520 C   0  0  0  0  0  1  0  0  0  0  0  0
  191.1800  176.9960  147.8010 O   0  0  0  0  0  0  0  0  0  0  0  0
  186.9980  177.4980  142.6020 C   0  0  0  0  0  2  0  0  0  0  0  0
  187.3740  178.6120  141.6210 C   0  0  0  0  0  2  0  0  0  0  0  0
  188.8530  177.7000  139.9600 C   0  0  2  0  0  3  0  0  0  0  0  0
  190.0330  176.7750  140.1360 C   0  0  0  0  0  2  0  0  0  0  0  0
  190.1860  176.6490  141.6280 C   0  0  0  0  0  2  0  0  0  0  0  0
  189.0570  178.5650  138.7330 C   0  0  0  0  0  1  0  0  0  0  0  0
  188.7640  178.5380  141.1550 N   0  0  0  0  0  0  0  0  0  0  0  0
  189.6030  177.9290  142.1860 C   0  0  0  0  0  2  0  0  0  0  0  0
  1  3  1  0  0  0  0
  2  4  1  0  0  0  0
  2  6  2  0  0  0  0
  3 17  1  0  0  0  0
  3  8  2  0  0  0  0
  5 10  2  0  0  0  0
  5 11  1  0  0  0  0
  6  8  1  0  0  0  0
  7  4  2  0  0  0  0
  9 12  1  0  0  0  0
  9  1  2  0  0  0  0
 10 13  1  0  0  0  0
 11 14  2  0  0  0  0
 12  2  1  0  0  0  0
 13 12  2  0  0  0  0
 13  7  1  0  0  0  0
 14  7  1  0  0  0  0
 15  5  1  0  0  0  0
 16 17  1  0  0  0  0
 18 10  1  0  0  0  0
 19 18  1  0  0  0  0
 20 23  1  6  0  0  0
 20 21  1  0  0  0  0
 20 24  1  0  0  0  0
 21 22  1  0  0  0  0
 22 25  1  0  0  0  0
 24 19  1  0  0  0  0
 24 25  1  0  0  0  0
M  END
>  <MODEL>
1

>  <REMARK>
 VINA RESULT:     -10.9      0.000      0.000
  Name = 
  4 active torsions:
  status: ('A' for Active; 'I' for Inactive)
    1  A    between atoms: C_6  and  C_16
    2  A    between atoms: C_6  and  C_25
    3  A    between atoms: C_7  and  O_15
    4  A    between atoms: N_22  and  C_25
                            x       y       z     vdW  Elec       q    Type
                         _______ _______ _______ _____ _____    ______ ____

>  <TORSDO>
F 4

$$$$
=
 OpenBabel10232409463D

 25 28  0  0  1  0  0  0  0  0999 V2000
  185.1430  178.2500  142.7250 C   0  0  0  0  0  3  0  0  0  0  0  0
  185.0500  178.5400  145.8440 C   0  0  0  0  0  0  0  0  0  0  0  0
  183.8160  178.6440  142.9510 C   0  0  0  0  0  0  0  0  0  0  0  0
  185.4760  178.5350  147.1650 C   0  0  0  0  0  3  0  0  0  0  0  0
  189.4280  177.3600  146.6790 C   0  0  0  0  0  0  0  0  0  0  0  0
  183.7620  178.8750  145.4750 C   0  0  0  0  0  3  0  0  0  0  0  0
  186.8030  178.1540  147.1370 C   0  0  0  0  0  0  0  0  0  0  0  0
  183.2340  178.9160  144.1910 C   0  0  0  0  0  3  0  0  0  0  0  0
  186.1890  178.0280  143.6100 C   0  0  0  0  0  3  0  0  0  0  0  0
  188.5550  177.5180  145.5820 C   0  0  0  0  0  0  0  0  0  0  0  0
  188.9780  177.6060  147.9890 C   0  0  0  0  0  3  0  0  0  0  0  0
  186.1650  178.1480  144.9890 C   0  0  0  0  0  0  0  0  0  0  0  0
  187.2310  177.9180  145.8450 C   0  0  0  0  0  0  0  0  0  0  0  0
  187.6550  178.0070  148.2290 C   0  0  0  0  0  3  0  0  0  0  0  0
  190.7460  176.9610  146.4800 O   0  0  0  0  0  1  0  0  0  0  0  0
  181.5460  178.8160  141.9530 C   0  0  0  0  0  1  0  0  0  0  0  0
  182.9640  178.7920  141.8500 O   0  0  0  0  0  0  0  0  0  0  0  0
  189.0330  177.2300  144.1940 C   0  0  0  0  0  2  0  0  0  0  0  0
  189.9790  178.3390  143.7240 C   0  0  0  0  0  2  0  0  0  0  0  0
  189.1190  177.6570  141.5860 C   0  0  2  0  0  3  0  0  0  0  0  0
  189.7230  176.7200  140.5670 C   0  0  0  0  0  2  0  0  0  0  0  0
  191.0860  176.4000  141.1200 C   0  0  0  0  0  2  0  0  0  0  0  0
  188.2400  178.6760  140.8880 C   0  0  0  0  0  1  0  0  0  0  0  0
  190.2170  178.3310  142.2760 N   0  0  0  0  0  0  0  0  0  0  0  0
  191.4450  177.5950  141.9780 C   0  0  0  0  0  2  0  0  0  0  0  0
  1  3  2  0  0  0  0
  1  9  1  0  0  0  0
  2  4  2  0  0  0  0
  3  8  1  0  0  0  0
  5 11  1  0  0  0  0
  6  2  1  0  0  0  0
  7  4  1  0  0  0  0
  7 14  1  0  0  0  0
  8  6  2  0  0  0  0
  9 12  2  0  0  0  0
 10 13  1  0  0  0  0
 10  5  2  0  0  0  0
 11 14  2  0  0  0  0
 12  2  1  0  0  0  0
 12 13  1  0  0  0  0
 13  7  2  0  0  0  0
 15  5  1  0  0  0  0
 17 16  1  0  0  0  0
 17  3  1  0  0  0  0
 18 10  1  0  0  0  0
 19 18  1  0  0  0  0
 20 23  1  6  0  0  0
 20 24  1  0  0  0  0
 21 22  1  0  0  0  0
 21 20  1  0  0  0  0
 22 25  1  0  0  0  0
 24 19  1  0  0  0  0
 25 24  1  0  0  0  0
M  END
>  <MODEL>
2

>  <REMARK>
 VINA RESULT:     -10.1      1.128      5.125
  Name = 
  4 active torsions:
  status: ('A' for Active; 'I' for Inactive)
    1  A    between atoms: C_6  and  C_16
    2  A    between atoms: C_6  and  C_25
    3  A    between atoms: C_7  and  O_15
    4  A    between atoms: N_22  and  C_25
                            x       y       z     vdW  Elec       q    Type
                         _______ _______ _______ _____ _____    ______ ____

>  <TORSDO>
F 4

$$$$
=
 OpenBabel10232409463D

 25 28  0  0  1  0  0  0  0  0999 V2000
  184.9010  178.4870  142.2310 C   0  0  0  0  0  3  0  0  0  0  0  0
  184.5770  178.5390  145.3480 C   0  0  0  0  0  0  0  0  0  0  0  0
  183.5290  178.7300  142.3870 C   0  0  0  0  0  0  0  0  0  0  0  0
  184.9140  178.4790  146.6930 C   0  0  0  0  0  3  0  0  0  0  0  0
  188.9900  177.7410  146.4160 C   0  0  0  0  0  0  0  0  0  0  0  0
  183.2870  178.7700  144.9100 C   0  0  0  0  0  3  0  0  0  0  0  0
  186.2730  178.2350  146.7350 C   0  0  0  0  0  0  0  0  0  0  0  0
  182.8420  178.8510  143.5960 C   0  0  0  0  0  3  0  0  0  0  0  0
  185.9050  178.3060  143.1730 C   0  0  0  0  0  3  0  0  0  0  0  0
  188.1780  177.8900  145.2720 C   0  0  0  0  0  0  0  0  0  0  0  0
  188.4330  177.8440  147.7040 C   0  0  0  0  0  3  0  0  0  0  0  0
  185.7790  178.3220  144.5510 C   0  0  0  0  0  0  0  0  0  0  0  0
  186.8050  178.1370  145.4640 C   0  0  0  0  0  0  0  0  0  0  0  0
  187.0630  178.0940  147.8730 C   0  0  0  0  0  3  0  0  0  0  0  0
  190.3520  177.4900  146.2870 O   0  0  0  0  0  1  0  0  0  0  0  0
  181.3340  178.6600  141.2230 C   0  0  0  0  0  1  0  0  0  0  0  0
  182.7400  178.8720  141.2390 O   0  0  0  0  0  0  0  0  0  0  0  0
  188.7730  177.7530  143.9060 C   0  0  0  0  0  2  0  0  0  0  0  0
  188.7790  176.2820  143.4810 C   0  0  0  0  0  2  0  0  0  0  0  0
  191.1750  176.4260  143.3620 C   0  0  2  0  0  3  0  0  0  0  0  0
  192.0440  177.0270  142.2840 C   0  0  0  0  0  2  0  0  0  0  0  0
  191.0770  177.4030  141.1950 C   0  0  0  0  0  2  0  0  0  0  0  0
  191.9240  175.3120  144.0650 C   0  0  0  0  0  1  0  0  0  0  0  0
  189.9740  175.8960  142.7210 N   0  0  0  0  0  0  0  0  0  0  0  0
  189.9090  176.4570  141.3720 C   0  0  0  0  0  2  0  0  0  0  0  0
  1  3  2  0  0  0  0
  1  9  1  0  0  0  0
  2  4  2  0  0  0  0
  3  8  1  0  0  0  0
  4  7  1  0  0  0  0
  5 11  1  0  0  0  0
  6  2  1  0  0  0  0
  7 14  1  0  0  0  0
  8  6  2  0  0  0  0
  9 12  2  0  0  0  0
 10 13  1  0  0  0  0
 10  5  2  0  0  0  0
 11 14  2  0  0  0  0
 12  2  1  0  0  0  0
 12 13  1  0  0  0  0
 13  7  2  0  0  0  0
 15  5  1  0  0  0  0
 16 17  1  0  0  0  0
 17  3  1  0  0  0  0
 18 10  1  0  0  0  0
 19 18  1  0  0  0  0
 20 23  1  6  0  0  0
 21 20  1  0  0  0  0
 22 25  1  0  0  0  0
 22 21  1  0  0  0  0
 24 20  1  0  0  0  0
 24 19  1  0  0  0  0
 25 24  1  0  0  0  0
M  END
>  <MODEL>
3

>  <REMARK>
 VINA RESULT:     -10.1      1.619      5.504
  Name = 
  4 active torsions:
  status: ('A' for Active; 'I' for Inactive)
    1  A    between atoms: C_6  and  C_16
    2  A    between atoms: C_6  and  C_25
    3  A    between atoms: C_7  and  O_15
    4  A    between atoms: N_22  and  C_25
                            x       y       z     vdW  Elec       q    Type
                         _______ _______ _______ _____ _____    ______ ____

>  <TORSDO>
F 4

$$$$
=
 OpenBabel10232409463D

 25 28  0  0  1  0  0  0  0  0999 V2000
  190.7600  177.4350  144.8960 C   0  0  0  0  0  3  0  0  0  0  0  0
  187.7250  177.4500  145.6750 C   0  0  0  0  0  0  0  0  0  0  0  0
  190.7960  177.0680  146.2500 C   0  0  0  0  0  0  0  0  0  0  0  0
  186.3490  177.5840  145.5490 C   0  0  0  0  0  3  0  0  0  0  0  0
  186.0640  178.6950  141.5590 C   0  0  0  0  0  0  0  0  0  0  0  0
  188.3350  177.0840  146.8590 C   0  0  0  0  0  3  0  0  0  0  0  0
  186.1210  177.9570  144.2390 C   0  0  0  0  0  0  0  0  0  0  0  0
  189.6940  176.9200  147.0950 C   0  0  0  0  0  3  0  0  0  0  0  0
  189.6920  177.7390  144.0640 C   0  0  0  0  0  3  0  0  0  0  0  0
  187.3060  178.4340  142.1750 C   0  0  0  0  0  0  0  0  0  0  0  0
  184.8670  178.5800  142.2900 C   0  0  0  0  0  3  0  0  0  0  0  0
  188.3470  177.7540  144.3920 C   0  0  0  0  0  0  0  0  0  0  0  0
  187.3040  178.0640  143.5340 C   0  0  0  0  0  0  0  0  0  0  0  0
  184.8880  178.2070  143.6420 C   0  0  0  0  0  3  0  0  0  0  0  0
  186.0050  179.0700  140.2210 O   0  0  0  0  0  1  0  0  0  0  0  0
  192.2550  175.7890  147.8020 C   0  0  0  0  0  1  0  0  0  0  0  0
  192.0380  176.8160  146.8430 O   0  0  0  0  0  0  0  0  0  0  0  0
  188.5750  178.5840  141.3980 C   0  0  0  0  0  2  0  0  0  0  0  0
  188.7800  177.3690  140.4880 C   0  0  0  0  0  2  0  0  0  0  0  0
  189.1100  177.5510  138.1140 C   0  0  2  0  0  3  0  0  0  0  0  0
  189.9670  176.7090  137.2000 C   0  0  0  0  0  2  0  0  0  0  0  0
  190.7090  175.7900  138.1320 C   0  0  0  0  0  2  0  0  0  0  0  0
  188.9800  178.9510  137.5490 C   0  0  0  0  0  1  0  0  0  0  0  0
  189.7620  177.5950  139.4200 N   0  0  0  0  0  0  0  0  0  0  0  0
  190.7750  176.5410  139.4440 C   0  0  0  0  0  2  0  0  0  0  0  0
  1  3  1  0  0  0  0
  2  6  2  0  0  0  0
  3 17  1  0  0  0  0
  3  8  2  0  0  0  0
  4  2  1  0  0  0  0
  5 10  2  0  0  0  0
  5 11  1  0  0  0  0
  6  8  1  0  0  0  0
  7  4  2  0  0  0  0
  9 12  1  0  0  0  0
  9  1  2  0  0  0  0
 10 13  1  0  0  0  0
 11 14  2  0  0  0  0
 12  2  1  0  0  0  0
 13  7  1  0  0  0  0
 13 12  2  0  0  0  0
 14  7  1  0  0  0  0
 15  5  1  0  0  0  0
 17 16  1  0  0  0  0
 18 10  1  0  0  0  0
 19 18  1  0  0  0  0
 20 23  1  6  0  0  0
 20 24  1  0  0  0  0
 21 20  1  0  0  0  0
 21 22  1  0  0  0  0
 22 25  1  0  0  0  0
 24 25  1  0  0  0  0
 24 19  1  0  0  0  0
M  END
>  <MODEL>
4

>  <REMARK>
 VINA RESULT:      -9.9      1.396      2.068
  Name = 
  4 active torsions:
  status: ('A' for Active; 'I' for Inactive)
    1  A    between atoms: C_6  and  C_16
    2  A    between atoms: C_6  and  C_25
    3  A    between atoms: C_7  and  O_15
    4  A    between atoms: N_22  and  C_25
                            x       y       z     vdW  Elec       q    Type
                         _______ _______ _______ _____ _____    ______ ____

>  <TORSDO>
F 4

$$$$
=
 OpenBabel10232409463D

 25 28  0  0  1  0  0  0  0  0999 V2000
  184.4680  178.4150  142.7090 C   0  0  0  0  0  3  0  0  0  0  0  0
  185.8820  178.2900  145.5040 C   0  0  0  0  0  0  0  0  0  0  0  0
  183.4500  178.8290  143.5800 C   0  0  0  0  0  0  0  0  0  0  0  0
  186.8760  178.0910  146.4520 C   0  0  0  0  0  3  0  0  0  0  0  0
  189.9970  176.8320  144.0200 C   0  0  0  0  0  0  0  0  0  0  0  0
  184.6120  178.7230  145.8310 C   0  0  0  0  0  3  0  0  0  0  0  0
  187.9880  177.6640  145.7540 C   0  0  0  0  0  0  0  0  0  0  0  0
  183.5490  178.9560  144.9670 C   0  0  0  0  0  3  0  0  0  0  0  0
  185.7790  178.0350  142.9590 C   0  0  0  0  0  3  0  0  0  0  0  0
  188.7310  177.1700  143.4970 C   0  0  0  0  0  0  0  0  0  0  0  0
  190.2420  176.9190  145.4030 C   0  0  0  0  0  3  0  0  0  0  0  0
  186.4180  177.9710  144.1850 C   0  0  0  0  0  0  0  0  0  0  0  0
  187.7320  177.5850  144.3990 C   0  0  0  0  0  0  0  0  0  0  0  0
  189.2350  177.3380  146.2840 C   0  0  0  0  0  3  0  0  0  0  0  0
  191.0190  176.4100  143.1770 O   0  0  0  0  0  1  0  0  0  0  0  0
  181.7900  178.7860  141.7310 C   0  0  0  0  0  1  0  0  0  0  0  0
  182.2000  179.1570  143.0420 O   0  0  0  0  0  0  0  0  0  0  0  0
  188.4700  177.0510  142.0290 C   0  0  0  0  0  2  0  0  0  0  0  0
  188.7760  178.3790  141.3310 C   0  0  0  0  0  2  0  0  0  0  0  0
  188.4360  177.2890  139.2160 C   0  0  2  0  0  3  0  0  0  0  0  0
  189.3440  176.3390  138.4740 C   0  0  0  0  0  2  0  0  0  0  0  0
  190.6090  176.3230  139.2880 C   0  0  0  0  0  2  0  0  0  0  0  0
  187.5710  178.0480  138.2300 C   0  0  0  0  0  1  0  0  0  0  0  0
  189.2810  178.2200  139.9620 N   0  0  0  0  0  0  0  0  0  0  0  0
  190.6320  177.6630  139.9920 C   0  0  0  0  0  2  0  0  0  0  0  0
  1  9  2  0  0  0  0
  1  3  1  0  0  0  0
  2  6  2  0  0  0  0
  2  4  1  0  0  0  0
  3  8  2  0  0  0  0
  5 11  1  0  0  0  0
  7 14  1  0  0  0  0
  7  4  2  0  0  0  0
  8  6  1  0  0  0  0
  9 12  1  0  0  0  0
 10  5  2  0  0  0  0
 10 13  1  0  0  0  0
 11 14  2  0  0  0  0
 12 13  2  0  0  0  0
 12  2  1  0  0  0  0
 13  7  1  0  0  0  0
 15  5  1  0  0  0  0
 16 17  1  0  0  0  0
 17  3  1  0  0  0  0
 18 10  1  0  0  0  0
 19 18  1  0  0  0  0
 20 23  1  6  0  0  0
 20 24  1  0  0  0  0
 21 20  1  0  0  0  0
 21 22  1  0  0  0  0
 22 25  1  0  0  0  0
 24 25  1  0  0  0  0
 24 19  1  0  0  0  0
M  END
>  <MODEL>
5

>  <REMARK>
 VINA RESULT:      -9.8      1.641      5.041
  Name = 
  4 active torsions:
  status: ('A' for Active; 'I' for Inactive)
    1  A    between atoms: C_6  and  C_16
    2  A    between atoms: C_6  and  C_25
    3  A    between atoms: C_7  and  O_15
    4  A    between atoms: N_22  and  C_25
                            x       y       z     vdW  Elec       q    Type
                         _______ _______ _______ _____ _____    ______ ____

>  <TORSDO>
F 4

$$$$
=
 OpenBabel10232409463D

 25 28  0  0  1  0  0  0  0  0999 V2000
  188.9190  176.9390  141.8990 C   0  0  0  0  0  3  0  0  0  0  0  0
  190.2930  177.1120  144.7100 C   0  0  0  0  0  0  0  0  0  0  0  0
  190.2580  176.6540  141.5960 C   0  0  0  0  0  0  0  0  0  0  0  0
  190.4390  177.2880  146.0790 C   0  0  0  0  0  3  0  0  0  0  0  0
  186.5240  178.1640  147.1480 C   0  0  0  0  0  0  0  0  0  0  0  0
  191.3510  176.7970  143.8790 C   0  0  0  0  0  3  0  0  0  0  0  0
  189.1810  177.5880  146.5610 C   0  0  0  0  0  0  0  0  0  0  0  0
  191.3170  176.5980  142.5040 C   0  0  0  0  0  3  0  0  0  0  0  0
  188.3020  177.2310  143.1070 C   0  0  0  0  0  3  0  0  0  0  0  0
  186.8920  177.8950  145.8130 C   0  0  0  0  0  0  0  0  0  0  0  0
  187.4890  178.1370  148.1720 C   0  0  0  0  0  3  0  0  0  0  0  0
  188.8930  177.3150  144.3560 C   0  0  0  0  0  0  0  0  0  0  0  0
  188.2450  177.6090  145.5450 C   0  0  0  0  0  0  0  0  0  0  0  0
  188.8310  177.8470  147.8840 C   0  0  0  0  0  3  0  0  0  0  0  0
  185.2040  178.4580  147.4710 O   0  0  0  0  0  1  0  0  0  0  0  0
  190.2560  177.2490  139.1840 C   0  0  0  0  0  1  0  0  0  0  0  0
  190.6030  176.3930  140.2650 O   0  0  0  0  0  0  0  0  0  0  0  0
  185.8660  177.9510  144.7260 C   0  0  0  0  0  2  0  0  0  0  0  0
  185.3370  179.3800  144.5760 C   0  0  0  0  0  2  0  0  0  0  0  0
  183.6160  178.5870  143.0970 C   0  0  2  0  0  3  0  0  0  0  0  0
  183.7260  178.1200  141.6660 C   0  0  0  0  0  2  0  0  0  0  0  0
  185.1580  178.3950  141.2950 C   0  0  0  0  0  2  0  0  0  0  0  0
  182.2360  179.1630  143.3450 C   0  0  0  0  0  1  0  0  0  0  0  0
  184.6330  179.6150  143.3090 N   0  0  0  0  0  0  0  0  0  0  0  0
  185.5760  179.5380  142.1940 C   0  0  0  0  0  2  0  0  0  0  0  0
  1  9  1  0  0  0  0
  2  4  2  0  0  0  0
  3  1  2  0  0  0  0
  3  8  1  0  0  0  0
  4  7  1  0  0  0  0
  5 15  1  0  0  0  0
  5 11  1  0  0  0  0
  6  2  1  0  0  0  0
  7 14  1  0  0  0  0
  8  6  2  0  0  0  0
  9 12  2  0  0  0  0
 10  5  2  0  0  0  0
 12  2  1  0  0  0  0
 12 13  1  0  0  0  0
 13 10  1  0  0  0  0
 13  7  2  0  0  0  0
 14 11  2  0  0  0  0
 16 17  1  0  0  0  0
 17  3  1  0  0  0  0
 18 10  1  0  0  0  0
 19 18  1  0  0  0  0
 20 24  1  0  0  0  0
 20 23  1  6  0  0  0
 21 20  1  0  0  0  0
 22 21  1  0  0  0  0
 22 25  1  0  0  0  0
 24 19  1  0  0  0  0
 25 24  1  0  0  0  0
M  END
>  <MODEL>
6

>  <REMARK>
 VINA RESULT:      -9.8      2.315      5.280
  Name = 
  4 active torsions:
  status: ('A' for Active; 'I' for Inactive)
    1  A    between atoms: C_6  and  C_16
    2  A    between atoms: C_6  and  C_25
    3  A    between atoms: C_7  and  O_15
    4  A    between atoms: N_22  and  C_25
                            x       y       z     vdW  Elec       q    Type
                         _______ _______ _______ _____ _____    ______ ____

>  <TORSDO>
F 4

$$$$
=
 OpenBabel10232409463D

 25 28  0  0  1  0  0  0  0  0999 V2000
  185.5280  177.8420  143.0930 C   0  0  0  0  0  3  0  0  0  0  0  0
  187.0410  178.1690  145.8170 C   0  0  0  0  0  0  0  0  0  0  0  0
  184.5660  178.4720  143.8970 C   0  0  0  0  0  0  0  0  0  0  0  0
  188.0600  178.0970  146.7570 C   0  0  0  0  0  3  0  0  0  0  0  0
  191.0160  176.2230  144.5230 C   0  0  0  0  0  0  0  0  0  0  0  0
  185.8080  178.7280  146.0920 C   0  0  0  0  0  3  0  0  0  0  0  0
  189.1210  177.4820  146.1230 C   0  0  0  0  0  0  0  0  0  0  0  0
  184.7260  178.8530  145.2300 C   0  0  0  0  0  3  0  0  0  0  0  0
  186.8260  177.4420  143.3730 C   0  0  0  0  0  3  0  0  0  0  0  0
  189.7490  176.5280  143.9820 C   0  0  0  0  0  0  0  0  0  0  0  0
  191.3190  176.5560  145.8570 C   0  0  0  0  0  3  0  0  0  0  0  0
  187.5090  177.5750  144.5700 C   0  0  0  0  0  0  0  0  0  0  0  0
  188.8090  177.1630  144.8160 C   0  0  0  0  0  0  0  0  0  0  0  0
  190.3690  177.1920  146.6700 C   0  0  0  0  0  3  0  0  0  0  0  0
  191.9820  175.5910  143.7480 O   0  0  0  0  0  1  0  0  0  0  0  0
  182.1090  178.7880  144.0960 C   0  0  0  0  0  1  0  0  0  0  0  0
  183.3140  178.7620  143.3410 O   0  0  0  0  0  0  0  0  0  0  0  0
  189.4250  176.1470  142.5720 C   0  0  0  0  0  2  0  0  0  0  0  0
  189.8540  177.2630  141.6150 C   0  0  0  0  0  2  0  0  0  0  0  0
  190.5150  177.1760  139.3050 C   0  0  2  0  0  3  0  0  0  0  0  0
  190.0680  178.0380  138.1500 C   0  0  0  0  0  2  0  0  0  0  0  0
  188.9820  178.9020  138.7310 C   0  0  0  0  0  2  0  0  0  0  0  0
  190.9110  175.8030  138.7990 C   0  0  0  0  0  1  0  0  0  0  0  0
  189.3930  177.0630  140.2350 N   0  0  0  0  0  0  0  0  0  0  0  0
  188.4200  178.0940  139.8810 C   0  0  0  0  0  2  0  0  0  0  0  0
  1  9  2  0  0  0  0
  1  3  1  0  0  0  0
  2  6  2  0  0  0  0
  2  4  1  0  0  0  0
  3  8  2  0  0  0  0
  5 11  1  0  0  0  0
  7 14  1  0  0  0  0
  7  4  2  0  0  0  0
  8  6  1  0  0  0  0
  9 12  1  0  0  0  0
 10  5  2  0  0  0  0
 10 13  1  0  0  0  0
 11 14  2  0  0  0  0
 12 13  2  0  0  0  0
 12  2  1  0  0  0  0
 13  7  1  0  0  0  0
 15  5  1  0  0  0  0
 17  3  1  0  0  0  0
 17 16  1  0  0  0  0
 18 10  1  0  0  0  0
 19 18  1  0  0  0  0
 20 23  1  6  0  0  0
 20 24  1  0  0  0  0
 21 22  1  0  0  0  0
 21 20  1  0  0  0  0
 22 25  1  0  0  0  0
 24 19  1  0  0  0  0
 25 24  1  0  0  0  0
M  END
>  <MODEL>
7

>  <REMARK>
 VINA RESULT:      -9.5      1.510      5.113
  Name = 
  4 active torsions:
  status: ('A' for Active; 'I' for Inactive)
    1  A    between atoms: C_6  and  C_16
    2  A    between atoms: C_6  and  C_25
    3  A    between atoms: C_7  and  O_15
    4  A    between atoms: N_22  and  C_25
                            x       y       z     vdW  Elec       q    Type
                         _______ _______ _______ _____ _____    ______ ____

>  <TORSDO>
F 4

$$$$
=
 OpenBabel10232409463D

 25 28  0  0  1  0  0  0  0  0999 V2000
  187.9220  177.8870  140.7980 C   0  0  0  0  0  3  0  0  0  0  0  0
  185.3200  178.7710  142.3030 C   0  0  0  0  0  0  0  0  0  0  0  0
  187.1050  178.3310  139.7480 C   0  0  0  0  0  0  0  0  0  0  0  0
  184.4390  179.0150  143.3480 C   0  0  0  0  0  3  0  0  0  0  0  0
  186.7200  177.7280  146.5700 C   0  0  0  0  0  0  0  0  0  0  0  0
  185.0090  179.0420  140.9840 C   0  0  0  0  0  3  0  0  0  0  0  0
  185.0940  178.6220  144.4980 C   0  0  0  0  0  0  0  0  0  0  0  0
  185.8110  178.8410  139.8680 C   0  0  0  0  0  3  0  0  0  0  0  0
  187.6950  177.8280  142.1660 C   0  0  0  0  0  3  0  0  0  0  0  0
  187.2040  177.6810  145.2450 C   0  0  0  0  0  0  0  0  0  0  0  0
  185.4310  178.2250  146.8400 C   0  0  0  0  0  3  0  0  0  0  0  0
  186.5520  178.2110  142.8460 C   0  0  0  0  0  0  0  0  0  0  0  0
  186.3580  178.1380  144.2160 C   0  0  0  0  0  0  0  0  0  0  0  0
  184.6060  178.6780  145.8010 C   0  0  0  0  0  3  0  0  0  0  0  0
  187.5090  177.2850  147.6260 O   0  0  0  0  0  1  0  0  0  0  0  0
  188.9500  178.5710  138.1020 C   0  0  0  0  0  1  0  0  0  0  0  0
  187.6020  178.2730  138.4410 O   0  0  0  0  0  0  0  0  0  0  0  0
  188.5640  177.1280  144.9630 C   0  0  0  0  0  2  0  0  0  0  0  0
  189.6240  178.2170  145.1520 C   0  0  0  0  0  2  0  0  0  0  0  0
  190.9450  176.8700  143.6630 C   0  0  2  0  0  3  0  0  0  0  0  0
  191.8470  175.7010  143.9790 C   0  0  0  0  0  2  0  0  0  0  0  0
  191.8610  175.6380  145.4820 C   0  0  0  0  0  2  0  0  0  0  0  0
  191.4390  177.5780  142.4180 C   0  0  0  0  0  1  0  0  0  0  0  0
  190.9820  177.7800  144.8060 N   0  0  0  0  0  0  0  0  0  0  0  0
  191.5730  177.0550  145.9300 C   0  0  0  0  0  2  0  0  0  0  0  0
  1  9  1  0  0  0  0
  2 12  1  0  0  0  0
  2  4  2  0  0  0  0
  3  8  1  0  0  0  0
  3  1  2  0  0  0  0
  4  7  1  0  0  0  0
  5 11  1  0  0  0  0
  5 15  1  0  0  0  0
  6  2  1  0  0  0  0
  7 14  1  0  0  0  0
  8  6  2  0  0  0  0
  9 12  2  0  0  0  0
 10  5  2  0  0  0  0
 12 13  1  0  0  0  0
 13  7  2  0  0  0  0
 13 10  1  0  0  0  0
 14 11  2  0  0  0  0
 16 17  1  0  0  0  0
 17  3  1  0  0  0  0
 18 19  1  0  0  0  0
 18 10  1  0  0  0  0
 20 23  1  6  0  0  0
 20 21  1  0  0  0  0
 20 24  1  0  0  0  0
 21 22  1  0  0  0  0
 22 25  1  0  0  0  0
 24 19  1  0  0  0  0
 24 25  1  0  0  0  0
M  END
>  <MODEL>
8

>  <REMARK>
 VINA RESULT:      -9.5      2.020      5.383
  Name = 
  4 active torsions:
  status: ('A' for Active; 'I' for Inactive)
    1  A    between atoms: C_6  and  C_16
    2  A    between atoms: C_6  and  C_25
    3  A    between atoms: C_7  and  O_15
    4  A    between atoms: N_22  and  C_25
                            x       y       z     vdW  Elec       q    Type
                         _______ _______ _______ _____ _____    ______ ____

>  <TORSDO>
F 4

$$$$
=
 OpenBabel10232409463D

 25 28  0  0  1  0  0  0  0  0999 V2000
  188.8150  176.8530  142.7190 C   0  0  0  0  0  3  0  0  0  0  0  0
  187.3730  177.7220  145.3630 C   0  0  0  0  0  0  0  0  0  0  0  0
  189.8170  176.6690  143.6830 C   0  0  0  0  0  0  0  0  0  0  0  0
  186.3730  178.1740  146.2120 C   0  0  0  0  0  3  0  0  0  0  0  0
  183.2970  178.7900  143.4920 C   0  0  0  0  0  0  0  0  0  0  0  0
  188.6330  177.3740  145.8100 C   0  0  0  0  0  3  0  0  0  0  0  0
  185.2740  178.4170  145.4120 C   0  0  0  0  0  0  0  0  0  0  0  0
  189.7010  176.9110  145.0530 C   0  0  0  0  0  3  0  0  0  0  0  0
  187.5070  177.3010  142.8420 C   0  0  0  0  0  3  0  0  0  0  0  0
  184.5630  178.3120  143.0930 C   0  0  0  0  0  0  0  0  0  0  0  0
  183.0360  179.0710  144.8460 C   0  0  0  0  0  3  0  0  0  0  0  0
  186.8560  177.6920  144.0000 C   0  0  0  0  0  0  0  0  0  0  0  0
  185.5460  178.1350  144.0870 C   0  0  0  0  0  0  0  0  0  0  0  0
  184.0280  178.8860  145.8200 C   0  0  0  0  0  3  0  0  0  0  0  0
  182.2910  178.9890  142.5530 O   0  0  0  0  0  1  0  0  0  0  0  0
  191.9240  175.4160  144.0890 C   0  0  0  0  0  1  0  0  0  0  0  0
  191.0680  176.1970  143.2660 O   0  0  0  0  0  0  0  0  0  0  0  0
  184.8420  178.0400  141.6490 C   0  0  0  0  0  2  0  0  0  0  0  0
  185.3150  179.3200  140.9550 C   0  0  0  0  0  2  0  0  0  0  0  0
  183.5600  178.8300  139.3870 C   0  0  2  0  0  3  0  0  0  0  0  0
  183.5960  177.9620  138.1530 C   0  0  0  0  0  2  0  0  0  0  0  0
  185.0410  177.5650  138.0200 C   0  0  0  0  0  2  0  0  0  0  0  0
  182.5230  179.9220  139.2170 C   0  0  0  0  0  1  0  0  0  0  0  0
  184.8870  179.4200  139.5540 N   0  0  0  0  0  0  0  0  0  0  0  0
  185.8110  178.6790  138.6970 C   0  0  0  0  0  2  0  0  0  0  0  0
  1  9  2  0  0  0  0
  1  3  1  0  0  0  0
  2  6  2  0  0  0  0
  2  4  1  0  0  0  0
  3  8  2  0  0  0  0
  5 11  1  0  0  0  0
  7 14  1  0  0  0  0
  7  4  2  0  0  0  0
  8  6  1  0  0  0  0
  9 12  1  0  0  0  0
 10  5  2  0  0  0  0
 10 13  1  0  0  0  0
 11 14  2  0  0  0  0
 12 13  2  0  0  0  0
 12  2  1  0  0  0  0
 13  7  1  0  0  0  0
 15  5  1  0  0  0  0
 17  3  1  0  0  0  0
 17 16  1  0  0  0  0
 18 10  1  0  0  0  0
 19 18  1  0  0  0  0
 20 23  1  6  0  0  0
 20 24  1  0  0  0  0
 21 20  1  0  0  0  0
 22 21  1  0  0  0  0
 22 25  1  0  0  0  0
 24 19  1  0  0  0  0
 25 24  1  0  0  0  0
M  END
>  <MODEL>
9

>  <REMARK>
 VINA RESULT:      -9.4      2.567      3.587
  Name = 
  4 active torsions:
  status: ('A' for Active; 'I' for Inactive)
    1  A    between atoms: C_6  and  C_16
    2  A    between atoms: C_6  and  C_25
    3  A    between atoms: C_7  and  O_15
    4  A    between atoms: N_22  and  C_25
                            x       y       z     vdW  Elec       q    Type
                         _______ _______ _______ _____ _____    ______ ____

>  <TORSDO>
F 4

$$$$
