=
 OpenBabel10232408493D

 64 69  0  0  1  0  0  0  0  0999 V2000
  186.8280  178.2510  139.2130 N   0  0  0  0  0  0  0  0  0  0  0  0
  189.1540  177.5050  139.3150 C   0  0  0  0  0  2  0  0  0  0  0  0
  188.9960  177.0310  137.8970 C   0  0  2  0  0  3  0  0  0  0  0  0
  187.7650  177.0610  137.3330 C   0  0  1  0  0  3  0  0  0  0  0  0
  188.1770  178.6410  139.6130 C   0  0  0  0  0  2  0  0  0  0  0  0
  186.6190  177.5590  138.1330 C   0  0  0  0  0  0  0  0  0  0  0  0
  187.5420  176.8540  135.8580 C   0  0  0  0  0  2  0  0  0  0  0  0
  186.5950  175.1100  134.4020 N   0  0  0  0  0  0  0  0  0  0  0  0
  186.6070  172.0330  135.9640 O   0  0  0  0  0  0  0  0  0  0  0  0
  186.6930  173.2450  135.6390 C   0  0  0  0  0  0  0  0  0  0  0  0
  186.3270  173.7430  134.3670 N   0  0  0  0  0  2  0  0  0  0  0  0
  187.2030  174.3270  136.5160 C   0  0  0  0  0  2  0  0  0  0  0  0
  187.0400  175.4710  135.5660 C   0  0  0  0  0  0  0  0  0  0  0  0
  190.1530  176.5140  137.2800 O   0  0  0  0  0  0  0  0  0  0  0  0
  191.9240  174.9340  137.0580 C   0  0  0  0  0  3  0  0  0  0  0  0
  190.8210  175.3530  137.6670 C   0  0  0  0  0  3  0  0  0  0  0  0
  192.5910  175.6730  135.9250 C   0  0  1  0  0  3  0  0  0  0  0  0
  194.0930  175.7480  136.0850 C   0  0  0  0  0  0  0  0  0  0  0  0
  194.6630  176.8750  136.0410 O   0  0  0  0  0  0  0  0  0  0  0  0
  194.8360  174.5690  136.4290 N   0  0  0  0  0  2  0  0  0  0  0  0
  196.8210  173.9700  137.9460 C   0  0  0  0  0  0  0  0  0  0  0  0
  198.2330  173.5650  137.9820 C   0  0  0  0  0  3  0  0  0  0  0  0
  197.0780  174.7650  135.6620 C   0  0  0  0  0  3  0  0  0  0  0  0
  199.0400  173.8790  136.9640 C   0  0  0  0  0  3  0  0  0  0  0  0
  196.1310  173.9090  138.9970 O   0  0  0  0  0  0  0  0  0  0  0  0
  198.5740  174.7410  135.8150 C   0  0  0  0  0  2  0  0  0  0  0  0
  196.2470  174.4520  136.6640 C   0  0  0  0  0  0  0  0  0  0  0  0
  192.1890  175.1560  134.5210 C   0  0  0  0  0  2  0  0  0  0  0  0
  190.4070  173.4100  134.3470 C   0  0  0  0  0  3  0  0  0  0  0  0
  190.9310  171.0520  134.4590 C   0  0  0  0  0  3  0  0  0  0  0  0
  192.2880  171.3510  134.5720 C   0  0  0  0  0  0  0  0  0  0  0  0
  191.7630  173.7220  134.4680 C   0  0  0  0  0  0  0  0  0  0  0  0
  192.7050  172.6950  134.5770 C   0  0  0  0  0  3  0  0  0  0  0  0
  189.9870  172.0770  134.3460 C   0  0  0  0  0  3  0  0  0  0  0  0
  192.8210  168.9840  135.1260 C   0  0  0  0  0  1  0  0  0  0  0  0
  193.1920  170.2920  134.6830 O   0  0  0  0  0  0  0  0  0  0  0  0
  185.2140  177.2220  137.7210 C   0  0  0  0  0  2  0  0  0  0  0  0
  184.1860  178.1220  138.3960 C   0  0  1  0  0  3  0  0  0  0  0  0
  182.1920  179.4620  137.7130 O   0  0  0  0  0  1  0  0  0  0  0  0
  182.7790  177.5870  136.5260 O   0  0  0  0  0  0  0  0  0  0  0  0
  183.0250  178.3690  137.4840 C   0  0  0  0  0  0  0  0  0  0  0  0
  183.6910  177.5390  139.7170 C   0  0  0  0  0  2  0  0  0  0  0  0
  183.7270  178.6120  140.7910 C   0  0  0  0  0  2  0  0  0  0  0  0
  182.3250  178.9110  141.2970 C   0  0  0  0  0  2  0  0  0  0  0  0
  181.0600  179.5670  143.3220 C   0  0  0  0  0  1  0  0  0  0  0  0
  182.2570  178.7810  142.8140 C   0  0  2  0  0  3  0  0  0  0  0  0
  183.7850  178.7050  144.8470 N   0  0  0  0  0  2  0  0  0  0  0  0
  183.5280  179.1840  143.5200 C   0  0  0  0  0  0  0  0  0  0  0  0
  184.4200  179.8320  142.9080 O   0  0  0  0  0  0  0  0  0  0  0  0
  187.0960  178.5830  146.9870 C   0  0  2  0  0  3  0  0  0  0  0  0
  185.3190  178.1610  147.1040 S   0  0  0  0  0  0  0  0  0  0  0  0
  187.2730  177.2430  144.9090 C   0  0  0  0  0  0  0  0  0  0  0  0
  185.9490  177.7190  144.4690 C   0  0  0  0  0  3  0  0  0  0  0  0
  187.7940  177.6070  146.0870 C   0  0  0  0  0  3  0  0  0  0  0  0
  185.0520  178.2380  145.3200 C   0  0  0  0  0  0  0  0  0  0  0  0
  187.6740  178.5550  148.2530 O   0  0  0  0  0  0  0  0  0  0  0  0
  188.5620  177.4750  148.2210 C   0  0  0  0  0  1  0  0  0  0  0  0
  188.0860  176.3970  143.9860 C   0  0  0  0  0  2  0  0  0  0  0  0
  190.8320  178.9790  143.6740 C   0  0  0  0  0  3  0  0  0  0  0  0
  191.8790  178.2050  143.1680 C   0  0  0  0  0  3  0  0  0  0  0  0
  189.4240  177.0120  143.7580 C   0  0  0  0  0  0  0  0  0  0  0  0
  190.4750  176.2400  143.2520 C   0  0  0  0  0  3  0  0  0  0  0  0
  191.7010  176.8350  142.9590 C   0  0  0  0  0  3  0  0  0  0  0  0
  189.6060  178.3840  143.9660 C   0  0  0  0  0  3  0  0  0  0  0  0
  1  5  1  0  0  0  0
  2  5  1  0  0  0  0
  3 14  1  1  0  0  0
  3  2  1  0  0  0  0
  4  7  1  6  0  0  0
  4  3  1  0  0  0  0
  4  6  1  0  0  0  0
  6  1  2  0  0  0  0
  8 13  2  0  0  0  0
 10  9  2  0  0  0  0
 10 12  1  0  0  0  0
 11  8  1  0  0  0  0
 11 10  1  0  0  0  0
 13  7  1  0  0  0  0
 13 12  1  0  0  0  0
 14 16  1  0  0  0  0
 15 16  2  0  0  0  0
 17 28  1  6  0  0  0
 17 18  1  0  0  0  0
 17 15  1  0  0  0  0
 18 20  1  0  0  0  0
 19 18  2  0  0  0  0
 20 27  1  0  0  0  0
 21 22  1  0  0  0  0
 21 25  2  0  0  0  0
 23 26  1  0  0  0  0
 23 27  2  0  0  0  0
 24 22  2  0  0  0  0
 26 24  1  0  0  0  0
 27 21  1  0  0  0  0
 29 32  1  0  0  0  0
 30 31  2  0  0  0  0
 31 33  1  0  0  0  0
 31 36  1  0  0  0  0
 32 28  1  0  0  0  0
 32 33  2  0  0  0  0
 34 29  2  0  0  0  0
 34 30  1  0  0  0  0
 36 35  1  0  0  0  0
 37  6  1  0  0  0  0
 38 37  1  6  0  0  0
 38 42  1  0  0  0  0
 40 41  2  0  0  0  0
 41 39  1  0  0  0  0
 41 38  1  0  0  0  0
 42 43  1  0  0  0  0
 43 44  1  0  0  0  0
 44 46  1  0  0  0  0
 46 45  1  1  0  0  0
 46 48  1  0  0  0  0
 47 55  1  0  0  0  0
 48 47  1  0  0  0  0
 49 48  2  0  0  0  0
 50 51  1  0  0  0  0
 50 56  1  1  0  0  0
 52 54  2  0  0  0  0
 53 52  1  0  0  0  0
 53 55  2  0  0  0  0
 54 50  1  0  0  0  0
 55 51  1  0  0  0  0
 57 56  1  0  0  0  0
 58 52  1  0  0  0  0
 59 64  1  0  0  0  0
 60 59  2  0  0  0  0
 61 64  2  0  0  0  0
 61 58  1  0  0  0  0
 62 61  1  0  0  0  0
 63 60  1  0  0  0  0
 63 62  2  0  0  0  0
M  END
>  <MODEL>
1

>  <REMARK>
 VINA RESULT:      -7.0      0.000      0.000
  Name = 
  22 active torsions:
  status: ('A' for Active; 'I' for Inactive)
    1  A    between atoms: C_4  and  C_13
    2  A    between atoms: C_4  and  C_55
    3  A    between atoms: C_8  and  C_45
    4  A    between atoms: C_13  and  C_36
    5  A    between atoms: C_13  and  C_53
    6  A    between atoms: C_14  and  C_53
    7  A    between atoms: C_14  and  C_59
    8  A    between atoms: C_15  and  C_26
    9  A    between atoms: C_15  and  C_45
   10  A    between atoms: O_21  and  C_31
   11  A    between atoms: O_21  and  C_54
   12  A    between atoms: C_22  and  O_32
   13  A    between atoms: C_23  and  C_35
   14  A    between atoms: O_25  and  C_27
   15  A    between atoms: C_29  and  C_35
   16  A    between atoms: N_30  and  C_58
   17  A    between atoms: C_33  and  C_62
   18  A    between atoms: C_34  and  C_56
   19  A    between atoms: C_45  and  C_46
   20  A    between atoms: C_56  and  C_61
   21  A    between atoms: C_59  and  C_62
   22  A    between atoms: N_63  and  C_64
                            x       y       z     vdW  Elec       q    Type
                         _______ _______ _______ _____ _____    ______ ____

>  <TORSDO>
F 22

$$$$
=
 OpenBabel10232408493D

 64 69  0  0  1  0  0  0  0  0999 V2000
  187.1780  178.6390  142.1660 N   0  0  0  0  0  0  0  0  0  0  0  0
  188.5500  178.2650  140.1780 C   0  0  0  0  0  2  0  0  0  0  0  0
  189.3050  177.2350  140.9700 C   0  0  2  0  0  3  0  0  0  0  0  0
  189.0460  177.1140  142.2950 C   0  0  1  0  0  3  0  0  0  0  0  0
  187.1320  178.4290  140.7230 C   0  0  0  0  0  2  0  0  0  0  0  0
  188.0290  178.0000  142.9140 C   0  0  0  0  0  0  0  0  0  0  0  0
  189.5510  175.9600  143.1190 C   0  0  0  0  0  2  0  0  0  0  0  0
  191.5710  177.1220  143.9120 N   0  0  0  0  0  0  0  0  0  0  0  0
  191.6760  177.2380  147.3600 O   0  0  0  0  0  0  0  0  0  0  0  0
  191.4140  177.0400  146.1450 C   0  0  0  0  0  0  0  0  0  0  0  0
  192.2090  177.5290  145.0820 N   0  0  0  0  0  2  0  0  0  0  0  0
  190.2370  176.2920  145.6390 C   0  0  0  0  0  2  0  0  0  0  0  0
  190.5140  176.4170  144.1750 C   0  0  0  0  0  0  0  0  0  0  0  0
  190.2950  176.5140  140.2730 O   0  0  0  0  0  0  0  0  0  0  0  0
  192.0230  176.8420  138.6640 C   0  0  0  0  0  3  0  0  0  0  0  0
  191.5360  177.0190  139.8870 C   0  0  0  0  0  3  0  0  0  0  0  0
  191.2850  176.1230  137.5620 C   0  0  1  0  0  3  0  0  0  0  0  0
  190.0050  176.8260  137.1660 C   0  0  0  0  0  0  0  0  0  0  0  0
  190.0540  178.0280  136.7800 O   0  0  0  0  0  0  0  0  0  0  0  0
  188.7770  176.0870  137.0930 N   0  0  0  0  0  2  0  0  0  0  0  0
  187.0790  176.7490  135.2820 C   0  0  0  0  0  0  0  0  0  0  0  0
  185.6530  176.9110  134.9660 C   0  0  0  0  0  3  0  0  0  0  0  0
  186.5890  176.8220  137.6630 C   0  0  0  0  0  3  0  0  0  0  0  0
  184.7800  177.1560  135.9470 C   0  0  0  0  0  3  0  0  0  0  0  0
  187.9280  176.7790  134.3530 O   0  0  0  0  0  0  0  0  0  0  0  0
  185.2250  177.3860  137.3710 C   0  0  0  0  0  2  0  0  0  0  0  0
  187.4810  176.5640  136.6990 C   0  0  0  0  0  0  0  0  0  0  0  0
  192.1660  175.8000  136.3290 C   0  0  0  0  0  2  0  0  0  0  0  0
  193.4020  173.8200  137.2260 C   0  0  0  0  0  3  0  0  0  0  0  0
  195.8190  173.7570  137.2860 C   0  0  0  0  0  3  0  0  0  0  0  0
  195.8740  175.0140  136.6840 C   0  0  0  0  0  0  0  0  0  0  0  0
  193.4440  175.0820  136.6300 C   0  0  0  0  0  0  0  0  0  0  0  0
  194.6780  175.6790  136.3550 C   0  0  0  0  0  3  0  0  0  0  0  0
  194.5870  173.1560  137.5590 C   0  0  0  0  0  3  0  0  0  0  0  0
  198.1180  174.9470  135.6110 C   0  0  0  0  0  1  0  0  0  0  0  0
  197.1290  175.5730  136.4320 O   0  0  0  0  0  0  0  0  0  0  0  0
  188.0120  178.1980  144.4020 C   0  0  0  0  0  2  0  0  0  0  0  0
  186.6030  178.1150  144.9770 C   0  0  1  0  0  3  0  0  0  0  0  0
  186.0780  179.0870  147.2160 O   0  0  0  0  0  1  0  0  0  0  0  0
  187.2170  177.1000  147.0640 O   0  0  0  0  0  0  0  0  0  0  0  0
  186.6490  178.0580  146.4720 C   0  0  0  0  0  0  0  0  0  0  0  0
  185.7320  179.2860  144.5310 C   0  0  0  0  0  2  0  0  0  0  0  0
  184.2710  178.9550  144.7790 C   0  0  0  0  0  2  0  0  0  0  0  0
  183.4050  179.4710  143.6410 C   0  0  0  0  0  2  0  0  0  0  0  0
  184.4160  177.7320  142.1990 C   0  0  0  0  0  1  0  0  0  0  0  0
  183.1060  178.3610  142.6400 C   0  0  2  0  0  3  0  0  0  0  0  0
  182.8490  178.7890  140.1460 N   0  0  0  0  0  2  0  0  0  0  0  0
  182.2770  178.8070  141.4600 C   0  0  0  0  0  0  0  0  0  0  0  0
  181.0540  179.0740  141.6040 O   0  0  0  0  0  0  0  0  0  0  0  0
  180.3990  178.8800  137.0560 C   0  0  2  0  0  3  0  0  0  0  0  0
  182.0400  179.4980  137.5790 S   0  0  0  0  0  0  0  0  0  0  0  0
  181.0890  176.5710  137.6370 C   0  0  0  0  0  0  0  0  0  0  0  0
  181.8020  177.0660  138.8290 C   0  0  0  0  0  3  0  0  0  0  0  0
  180.4700  177.4050  136.7930 C   0  0  0  0  0  3  0  0  0  0  0  0
  182.1740  178.3470  138.9640 C   0  0  0  0  0  0  0  0  0  0  0  0
  179.9860  179.5460  135.9050 O   0  0  0  0  0  0  0  0  0  0  0  0
  180.7840  179.0250  134.8810 C   0  0  0  0  0  1  0  0  0  0  0  0
  180.9880  175.0990  137.4090 C   0  0  0  0  0  2  0  0  0  0  0  0
  183.4990  173.8230  134.8830 C   0  0  0  0  0  3  0  0  0  0  0  0
  184.5510  173.4350  135.7160 C   0  0  0  0  0  3  0  0  0  0  0  0
  182.2520  174.5770  136.8170 C   0  0  0  0  0  0  0  0  0  0  0  0
  183.3080  174.1870  137.6470 C   0  0  0  0  0  3  0  0  0  0  0  0
  184.4570  173.6190  137.0970 C   0  0  0  0  0  3  0  0  0  0  0  0
  182.3510  174.3910  135.4330 C   0  0  0  0  0  3  0  0  0  0  0  0
  1  6  2  0  0  0  0
  2  5  1  0  0  0  0
  2  3  1  0  0  0  0
  3 14  1  1  0  0  0
  3  4  1  0  0  0  0
  4  6  1  0  0  0  0
  4  7  1  6  0  0  0
  5  1  1  0  0  0  0
  6 37  1  0  0  0  0
  7 13  1  0  0  0  0
  8 13  2  0  0  0  0
  8 11  1  0  0  0  0
 10  9  2  0  0  0  0
 11 10  1  0  0  0  0
 12 10  1  0  0  0  0
 13 12  1  0  0  0  0
 15 16  2  0  0  0  0
 16 14  1  0  0  0  0
 17 28  1  6  0  0  0
 17 15  1  0  0  0  0
 18 17  1  0  0  0  0
 19 18  2  0  0  0  0
 20 18  1  0  0  0  0
 21 27  1  0  0  0  0
 22 21  1  0  0  0  0
 22 24  2  0  0  0  0
 24 26  1  0  0  0  0
 25 21  2  0  0  0  0
 26 23  1  0  0  0  0
 27 20  1  0  0  0  0
 27 23  2  0  0  0  0
 28 32  1  0  0  0  0
 29 34  1  0  0  0  0
 30 34  2  0  0  0  0
 31 30  1  0  0  0  0
 32 29  2  0  0  0  0
 33 32  1  0  0  0  0
 33 31  2  0  0  0  0
 35 36  1  0  0  0  0
 36 31  1  0  0  0  0
 38 37  1  6  0  0  0
 38 41  1  0  0  0  0
 41 40  2  0  0  0  0
 41 39  1  0  0  0  0
 42 43  1  0  0  0  0
 42 38  1  0  0  0  0
 44 43  1  0  0  0  0
 46 45  1  6  0  0  0
 46 44  1  0  0  0  0
 47 48  1  0  0  0  0
 48 49  2  0  0  0  0
 48 46  1  0  0  0  0
 50 56  1  6  0  0  0
 50 51  1  0  0  0  0
 51 55  1  0  0  0  0
 52 53  1  0  0  0  0
 53 55  2  0  0  0  0
 54 50  1  0  0  0  0
 54 52  2  0  0  0  0
 55 47  1  0  0  0  0
 57 56  1  0  0  0  0
 58 52  1  0  0  0  0
 59 64  2  0  0  0  0
 59 60  1  0  0  0  0
 60 63  2  0  0  0  0
 61 58  1  0  0  0  0
 61 62  2  0  0  0  0
 63 62  1  0  0  0  0
 64 61  1  0  0  0  0
M  END
>  <MODEL>
2

>  <REMARK>
 VINA RESULT:      -6.9      2.909      8.548
  Name = 
  22 active torsions:
  status: ('A' for Active; 'I' for Inactive)
    1  A    between atoms: C_4  and  C_13
    2  A    between atoms: C_4  and  C_55
    3  A    between atoms: C_8  and  C_45
    4  A    between atoms: C_13  and  C_36
    5  A    between atoms: C_13  and  C_53
    6  A    between atoms: C_14  and  C_53
    7  A    between atoms: C_14  and  C_59
    8  A    between atoms: C_15  and  C_26
    9  A    between atoms: C_15  and  C_45
   10  A    between atoms: O_21  and  C_31
   11  A    between atoms: O_21  and  C_54
   12  A    between atoms: C_22  and  O_32
   13  A    between atoms: C_23  and  C_35
   14  A    between atoms: O_25  and  C_27
   15  A    between atoms: C_29  and  C_35
   16  A    between atoms: N_30  and  C_58
   17  A    between atoms: C_33  and  C_62
   18  A    between atoms: C_34  and  C_56
   19  A    between atoms: C_45  and  C_46
   20  A    between atoms: C_56  and  C_61
   21  A    between atoms: C_59  and  C_62
   22  A    between atoms: N_63  and  C_64
                            x       y       z     vdW  Elec       q    Type
                         _______ _______ _______ _____ _____    ______ ____

>  <TORSDO>
F 22

$$$$
=
 OpenBabel10232408493D

 64 69  0  0  1  0  0  0  0  0999 V2000
  190.8860  177.2240  139.4580 N   0  0  0  0  0  0  0  0  0  0  0  0
  192.9200  176.0580  138.7680 C   0  0  0  0  0  2  0  0  0  0  0  0
  192.2610  175.8310  137.4360 C   0  0  2  0  0  3  0  0  0  0  0  0
  190.9560  176.1670  137.2890 C   0  0  1  0  0  3  0  0  0  0  0  0
  192.3430  177.2990  139.4480 C   0  0  0  0  0  2  0  0  0  0  0  0
  190.2270  176.7450  138.4440 C   0  0  0  0  0  0  0  0  0  0  0  0
  190.2780  176.2190  135.9460 C   0  0  0  0  0  2  0  0  0  0  0  0
  190.4990  173.8230  135.4280 N   0  0  0  0  0  0  0  0  0  0  0  0
  187.4100  172.3370  135.0300 O   0  0  0  0  0  0  0  0  0  0  0  0
  188.3880  173.1100  135.1970 C   0  0  0  0  0  0  0  0  0  0  0  0
  189.7360  172.6830  135.1830 N   0  0  0  0  0  2  0  0  0  0  0  0
  188.2870  174.5690  135.4510 C   0  0  0  0  0  2  0  0  0  0  0  0
  189.7480  174.8740  135.5440 C   0  0  0  0  0  0  0  0  0  0  0  0
  193.0480  175.2050  136.4490 O   0  0  0  0  0  0  0  0  0  0  0  0
  194.8010  175.6520  134.8960 C   0  0  0  0  0  3  0  0  0  0  0  0
  193.5500  175.8270  135.3060 C   0  0  0  0  0  3  0  0  0  0  0  0
  195.7920  174.7480  135.5850 C   0  0  1  0  0  3  0  0  0  0  0  0
  195.5140  173.2820  135.3310 C   0  0  0  0  0  0  0  0  0  0  0  0
  196.0650  172.7110  134.3470 O   0  0  0  0  0  0  0  0  0  0  0  0
  194.7520  172.5230  136.2810 N   0  0  0  0  0  2  0  0  0  0  0  0
  195.3000  170.0670  136.8000 C   0  0  0  0  0  0  0  0  0  0  0  0
  194.7400  168.7250  137.0110 C   0  0  0  0  0  3  0  0  0  0  0  0
  193.2580  170.7730  135.6840 C   0  0  0  0  0  3  0  0  0  0  0  0
  193.5670  168.4000  136.4600 C   0  0  0  0  0  3  0  0  0  0  0  0
  196.5040  170.2900  137.0910 O   0  0  0  0  0  0  0  0  0  0  0  0
  192.8400  169.3370  135.5260 C   0  0  0  0  0  2  0  0  0  0  0  0
  194.4250  171.1260  136.2360 C   0  0  0  0  0  0  0  0  0  0  0  0
  197.2710  175.1090  135.2970 C   0  0  0  0  0  2  0  0  0  0  0  0
  199.3430  173.9350  136.0610 C   0  0  0  0  0  3  0  0  0  0  0  0
  200.0150  173.9360  138.3830 C   0  0  0  0  0  3  0  0  0  0  0  0
  198.9210  174.7370  138.7070 C   0  0  0  0  0  0  0  0  0  0  0  0
  198.2400  174.7320  136.3740 C   0  0  0  0  0  0  0  0  0  0  0  0
  198.0280  175.1360  137.6960 C   0  0  0  0  0  3  0  0  0  0  0  0
  200.2310  173.5330  137.0630 C   0  0  0  0  0  3  0  0  0  0  0  0
  197.4660  175.3300  140.6370 C   0  0  0  0  0  1  0  0  0  0  0  0
  198.7480  175.1130  140.0410 O   0  0  0  0  0  0  0  0  0  0  0  0
  188.7260  176.7350  138.4660 C   0  0  0  0  0  2  0  0  0  0  0  0
  188.1410  178.1420  138.4450 C   0  0  1  0  0  3  0  0  0  0  0  0
  186.9490  177.3170  136.4120 O   0  0  0  0  0  0  0  0  0  0  0  0
  187.2730  179.5680  136.7200 O   0  0  0  0  0  1  0  0  0  0  0  0
  187.4270  178.3950  137.1540 C   0  0  0  0  0  0  0  0  0  0  0  0
  187.1930  178.3880  139.6160 C   0  0  0  0  0  2  0  0  0  0  0  0
  185.7680  178.4890  139.1030 C   0  0  0  0  0  2  0  0  0  0  0  0
  184.8370  177.6220  139.9360 C   0  0  0  0  0  2  0  0  0  0  0  0
  183.8190  179.8640  140.1950 C   0  0  0  0  0  1  0  0  0  0  0  0
  183.9370  178.4830  140.8160 C   0  0  2  0  0  3  0  0  0  0  0  0
  185.0650  177.4430  142.8460 N   0  0  0  0  0  2  0  0  0  0  0  0
  184.3810  178.5570  142.2570 C   0  0  0  0  0  0  0  0  0  0  0  0
  184.2670  179.6320  142.9050 O   0  0  0  0  0  0  0  0  0  0  0  0
  187.2060  178.4250  146.0090 C   0  0  2  0  0  3  0  0  0  0  0  0
  185.9680  177.1920  145.4670 S   0  0  0  0  0  0  0  0  0  0  0  0
  188.6240  177.8520  144.0590 C   0  0  0  0  0  0  0  0  0  0  0  0
  187.4290  177.7260  143.2060 C   0  0  0  0  0  3  0  0  0  0  0  0
  188.5290  178.1380  145.3630 C   0  0  0  0  0  3  0  0  0  0  0  0
  186.2010  177.5420  143.7110 C   0  0  0  0  0  0  0  0  0  0  0  0
  187.3390  178.3850  147.3950 O   0  0  0  0  0  0  0  0  0  0  0  0
  188.4560  177.5760  147.6280 C   0  0  0  0  0  1  0  0  0  0  0  0
  189.9780  177.7350  143.4380 C   0  0  0  0  0  2  0  0  0  0  0  0
  192.0010  174.7110  144.4740 C   0  0  0  0  0  3  0  0  0  0  0  0
  192.3140  175.0330  145.7970 C   0  0  0  0  0  3  0  0  0  0  0  0
  190.8420  176.8240  144.2410 C   0  0  0  0  0  0  0  0  0  0  0  0
  191.1570  177.1410  145.5660 C   0  0  0  0  0  3  0  0  0  0  0  0
  191.8940  176.2480  146.3420 C   0  0  0  0  0  3  0  0  0  0  0  0
  191.2650  175.6050  143.6980 C   0  0  0  0  0  3  0  0  0  0  0  0
  2  5  1  0  0  0  0
  3 14  1  1  0  0  0
  3  2  1  0  0  0  0
  4  7  1  6  0  0  0
  4  3  1  0  0  0  0
  4  6  1  0  0  0  0
  5  1  1  0  0  0  0
  6 37  1  0  0  0  0
  6  1  2  0  0  0  0
  8 13  2  0  0  0  0
  9 10  2  0  0  0  0
 10 12  1  0  0  0  0
 11 10  1  0  0  0  0
 11  8  1  0  0  0  0
 12 13  1  0  0  0  0
 13  7  1  0  0  0  0
 15 16  2  0  0  0  0
 16 14  1  0  0  0  0
 17 15  1  6  0  0  0
 18 17  1  0  0  0  0
 18 20  1  0  0  0  0
 19 18  2  0  0  0  0
 21 22  1  0  0  0  0
 21 25  2  0  0  0  0
 23 27  2  0  0  0  0
 24 22  2  0  0  0  0
 26 23  1  0  0  0  0
 26 24  1  0  0  0  0
 27 20  1  0  0  0  0
 27 21  1  0  0  0  0
 28 17  1  0  0  0  0
 28 32  1  0  0  0  0
 29 32  2  0  0  0  0
 29 34  1  0  0  0  0
 30 31  1  0  0  0  0
 31 36  1  0  0  0  0
 32 33  1  0  0  0  0
 33 31  2  0  0  0  0
 34 30  2  0  0  0  0
 36 35  1  0  0  0  0
 38 37  1  6  0  0  0
 38 42  1  0  0  0  0
 39 41  2  0  0  0  0
 40 41  1  0  0  0  0
 41 38  1  0  0  0  0
 43 42  1  0  0  0  0
 43 44  1  0  0  0  0
 44 46  1  0  0  0  0
 46 45  1  6  0  0  0
 46 48  1  0  0  0  0
 47 55  1  0  0  0  0
 48 47  1  0  0  0  0
 48 49  2  0  0  0  0
 50 56  1  1  0  0  0
 51 50  1  0  0  0  0
 52 54  2  0  0  0  0
 53 55  2  0  0  0  0
 53 52  1  0  0  0  0
 54 50  1  0  0  0  0
 55 51  1  0  0  0  0
 56 57  1  0  0  0  0
 58 52  1  0  0  0  0
 58 61  1  0  0  0  0
 59 60  1  0  0  0  0
 60 63  2  0  0  0  0
 61 62  2  0  0  0  0
 62 63  1  0  0  0  0
 64 61  1  0  0  0  0
 64 59  2  0  0  0  0
M  END
>  <MODEL>
3

>  <REMARK>
 VINA RESULT:      -5.7      2.139      4.669
  Name = 
  22 active torsions:
  status: ('A' for Active; 'I' for Inactive)
    1  A    between atoms: C_4  and  C_13
    2  A    between atoms: C_4  and  C_55
    3  A    between atoms: C_8  and  C_45
    4  A    between atoms: C_13  and  C_36
    5  A    between atoms: C_13  and  C_53
    6  A    between atoms: C_14  and  C_53
    7  A    between atoms: C_14  and  C_59
    8  A    between atoms: C_15  and  C_26
    9  A    between atoms: C_15  and  C_45
   10  A    between atoms: O_21  and  C_31
   11  A    between atoms: O_21  and  C_54
   12  A    between atoms: C_22  and  O_32
   13  A    between atoms: C_23  and  C_35
   14  A    between atoms: O_25  and  C_27
   15  A    between atoms: C_29  and  C_35
   16  A    between atoms: N_30  and  C_58
   17  A    between atoms: C_33  and  C_62
   18  A    between atoms: C_34  and  C_56
   19  A    between atoms: C_45  and  C_46
   20  A    between atoms: C_56  and  C_61
   21  A    between atoms: C_59  and  C_62
   22  A    between atoms: N_63  and  C_64
                            x       y       z     vdW  Elec       q    Type
                         _______ _______ _______ _____ _____    ______ ____

>  <TORSDO>
F 22

$$$$
=
 OpenBabel10232408493D

 64 69  0  0  1  0  0  0  0  0999 V2000
  186.5490  178.5350  137.0620 N   0  0  0  0  0  0  0  0  0  0  0  0
  188.4390  178.4500  135.5140 C   0  0  0  0  0  2  0  0  0  0  0  0
  189.0890  177.4810  136.4610 C   0  0  2  0  0  3  0  0  0  0  0  0
  188.5060  177.2540  137.6630 C   0  0  1  0  0  3  0  0  0  0  0  0
  186.9180  178.4030  135.6560 C   0  0  0  0  0  2  0  0  0  0  0  0
  187.2500  177.9680  138.0000 C   0  0  0  0  0  0  0  0  0  0  0  0
  188.9270  176.1290  138.5700 C   0  0  0  0  0  2  0  0  0  0  0  0
  190.0980  176.1110  140.7350 N   0  0  0  0  0  0  0  0  0  0  0  0
  193.0480  177.8950  140.5770 O   0  0  0  0  0  0  0  0  0  0  0  0
  191.9380  177.3380  140.3780 C   0  0  0  0  0  0  0  0  0  0  0  0
  191.2610  176.5680  141.3520 N   0  0  0  0  0  2  0  0  0  0  0  0
  191.1810  177.3810  139.1020 C   0  0  0  0  0  2  0  0  0  0  0  0
  190.0020  176.5620  139.5220 C   0  0  0  0  0  0  0  0  0  0  0  0
  190.3180  176.9310  136.0450 O   0  0  0  0  0  0  0  0  0  0  0  0
  191.3760  175.6340  134.3470 C   0  0  0  0  0  3  0  0  0  0  0  0
  190.6930  176.7100  134.7200 C   0  0  0  0  0  3  0  0  0  0  0  0
  191.7820  174.5290  135.2900 C   0  0  1  0  0  3  0  0  0  0  0  0
  190.7590  173.4160  135.3540 C   0  0  0  0  0  0  0  0  0  0  0  0
  191.1520  172.2250  135.5110 O   0  0  0  0  0  0  0  0  0  0  0  0
  189.3590  173.7310  135.3820 N   0  0  0  0  0  2  0  0  0  0  0  0
  186.9790  173.1680  136.1680 C   0  0  0  0  0  0  0  0  0  0  0  0
  185.7990  172.3230  135.9340 C   0  0  0  0  0  3  0  0  0  0  0  0
  188.3700  171.6230  134.9060 C   0  0  0  0  0  3  0  0  0  0  0  0
  185.9420  171.1330  135.3430 C   0  0  0  0  0  3  0  0  0  0  0  0
  186.8920  174.1540  136.9450 O   0  0  0  0  0  0  0  0  0  0  0  0
  187.3000  170.5700  135.0040 C   0  0  0  0  0  2  0  0  0  0  0  0
  188.2520  172.8240  135.4850 C   0  0  0  0  0  0  0  0  0  0  0  0
  193.2090  173.9820  135.0330 C   0  0  0  0  0  2  0  0  0  0  0  0
  194.4380  172.3280  136.4500 C   0  0  0  0  0  3  0  0  0  0  0  0
  195.3720  172.9440  138.5930 C   0  0  0  0  0  3  0  0  0  0  0  0
  194.9360  174.2570  138.4140 C   0  0  0  0  0  0  0  0  0  0  0  0
  193.9900  173.6370  136.2620 C   0  0  0  0  0  0  0  0  0  0  0  0
  194.2400  174.6030  137.2410 C   0  0  0  0  0  3  0  0  0  0  0  0
  195.1260  171.9770  137.6150 C   0  0  0  0  0  3  0  0  0  0  0  0
  196.4410  175.2340  140.1380 C   0  0  0  0  0  1  0  0  0  0  0  0
  195.2050  175.1870  139.4210 O   0  0  0  0  0  0  0  0  0  0  0  0
  186.8100  178.0790  139.4320 C   0  0  0  0  0  2  0  0  0  0  0  0
  185.3330  178.4310  139.5540 C   0  0  1  0  0  3  0  0  0  0  0  0
  183.5580  178.2890  137.8020 O   0  0  0  0  0  0  0  0  0  0  0  0
  184.6890  176.3990  138.4480 O   0  0  0  0  0  1  0  0  0  0  0  0
  184.5230  177.6430  138.5710 C   0  0  0  0  0  0  0  0  0  0  0  0
  184.8010  178.1980  140.9660 C   0  0  0  0  0  2  0  0  0  0  0  0
  183.9040  179.3550  141.3670 C   0  0  0  0  0  2  0  0  0  0  0  0
  182.4440  178.9330  141.3430 C   0  0  0  0  0  2  0  0  0  0  0  0
  180.6180  179.7080  142.8260 C   0  0  0  0  0  1  0  0  0  0  0  0
  181.8770  178.8600  142.7560 C   0  0  2  0  0  3  0  0  0  0  0  0
  183.2660  178.2690  144.8040 N   0  0  0  0  0  2  0  0  0  0  0  0
  182.8650  179.2430  143.8320 C   0  0  0  0  0  0  0  0  0  0  0  0
  183.4320  180.3690  143.8060 O   0  0  0  0  0  0  0  0  0  0  0  0
  186.5180  178.8300  146.9650 C   0  0  2  0  0  3  0  0  0  0  0  0
  184.8790  178.0200  147.0580 S   0  0  0  0  0  0  0  0  0  0  0  0
  186.9910  177.6160  144.8560 C   0  0  0  0  0  0  0  0  0  0  0  0
  185.5960  177.7980  144.4180 C   0  0  0  0  0  3  0  0  0  0  0  0
  187.4170  178.0570  146.0470 C   0  0  0  0  0  3  0  0  0  0  0  0
  184.6040  178.0830  145.2750 C   0  0  0  0  0  0  0  0  0  0  0  0
  187.0860  178.8980  148.2340 O   0  0  0  0  0  0  0  0  0  0  0  0
  188.4470  178.6480  148.0350 C   0  0  0  0  0  1  0  0  0  0  0  0
  187.9740  176.9960  143.9180 C   0  0  0  0  0  2  0  0  0  0  0  0
  191.0500  179.1920  143.7730 C   0  0  0  0  0  3  0  0  0  0  0  0
  191.9630  178.4310  144.5080 C   0  0  0  0  0  3  0  0  0  0  0  0
  189.3440  177.5230  144.1760 C   0  0  0  0  0  0  0  0  0  0  0  0
  190.2610  176.7650  144.9110 C   0  0  0  0  0  3  0  0  0  0  0  0
  191.5690  177.2200  145.0780 C   0  0  0  0  0  3  0  0  0  0  0  0
  189.7440  178.7370  143.6060 C   0  0  0  0  0  3  0  0  0  0  0  0
  1  6  2  0  0  0  0
  2  5  1  0  0  0  0
  2  3  1  0  0  0  0
  3 14  1  1  0  0  0
  3  4  1  0  0  0  0
  4  6  1  0  0  0  0
  4  7  1  6  0  0  0
  5  1  1  0  0  0  0
  6 37  1  0  0  0  0
  7 13  1  0  0  0  0
  8 11  1  0  0  0  0
 10  9  2  0  0  0  0
 10 11  1  0  0  0  0
 12 13  1  0  0  0  0
 12 10  1  0  0  0  0
 13  8  2  0  0  0  0
 15 16  2  0  0  0  0
 16 14  1  0  0  0  0
 17 15  1  6  0  0  0
 17 18  1  0  0  0  0
 18 20  1  0  0  0  0
 18 19  2  0  0  0  0
 20 27  1  0  0  0  0
 21 25  2  0  0  0  0
 22 21  1  0  0  0  0
 23 26  1  0  0  0  0
 23 27  2  0  0  0  0
 24 22  2  0  0  0  0
 26 24  1  0  0  0  0
 27 21  1  0  0  0  0
 28 17  1  0  0  0  0
 28 32  1  0  0  0  0
 29 34  1  0  0  0  0
 31 30  1  0  0  0  0
 31 36  1  0  0  0  0
 32 29  2  0  0  0  0
 32 33  1  0  0  0  0
 33 31  2  0  0  0  0
 34 30  2  0  0  0  0
 36 35  1  0  0  0  0
 38 37  1  1  0  0  0
 38 42  1  0  0  0  0
 39 41  2  0  0  0  0
 40 41  1  0  0  0  0
 41 38  1  0  0  0  0
 42 43  1  0  0  0  0
 44 43  1  0  0  0  0
 44 46  1  0  0  0  0
 46 45  1  6  0  0  0
 46 48  1  0  0  0  0
 47 55  1  0  0  0  0
 48 47  1  0  0  0  0
 49 48  2  0  0  0  0
 50 51  1  0  0  0  0
 50 56  1  1  0  0  0
 52 54  2  0  0  0  0
 53 52  1  0  0  0  0
 53 55  2  0  0  0  0
 54 50  1  0  0  0  0
 55 51  1  0  0  0  0
 57 56  1  0  0  0  0
 58 61  1  0  0  0  0
 58 52  1  0  0  0  0
 59 60  1  0  0  0  0
 60 63  2  0  0  0  0
 61 62  2  0  0  0  0
 62 63  1  0  0  0  0
 64 59  2  0  0  0  0
 64 61  1  0  0  0  0
M  END
>  <MODEL>
4

>  <REMARK>
 VINA RESULT:      -5.6      1.995      5.113
  Name = 
  22 active torsions:
  status: ('A' for Active; 'I' for Inactive)
    1  A    between atoms: C_4  and  C_13
    2  A    between atoms: C_4  and  C_55
    3  A    between atoms: C_8  and  C_45
    4  A    between atoms: C_13  and  C_36
    5  A    between atoms: C_13  and  C_53
    6  A    between atoms: C_14  and  C_53
    7  A    between atoms: C_14  and  C_59
    8  A    between atoms: C_15  and  C_26
    9  A    between atoms: C_15  and  C_45
   10  A    between atoms: O_21  and  C_31
   11  A    between atoms: O_21  and  C_54
   12  A    between atoms: C_22  and  O_32
   13  A    between atoms: C_23  and  C_35
   14  A    between atoms: O_25  and  C_27
   15  A    between atoms: C_29  and  C_35
   16  A    between atoms: N_30  and  C_58
   17  A    between atoms: C_33  and  C_62
   18  A    between atoms: C_34  and  C_56
   19  A    between atoms: C_45  and  C_46
   20  A    between atoms: C_56  and  C_61
   21  A    between atoms: C_59  and  C_62
   22  A    between atoms: N_63  and  C_64
                            x       y       z     vdW  Elec       q    Type
                         _______ _______ _______ _____ _____    ______ ____

>  <TORSDO>
F 22

$$$$
=
 OpenBabel10232408493D

 64 69  0  0  1  0  0  0  0  0999 V2000
  188.0200  178.8500  141.7330 N   0  0  0  0  0  0  0  0  0  0  0  0
  187.9990  178.3510  139.3400 C   0  0  0  0  0  2  0  0  0  0  0  0
  186.5260  178.0870  139.4730 C   0  0  2  0  0  3  0  0  0  0  0  0
  185.9760  178.0700  140.7120 C   0  0  1  0  0  3  0  0  0  0  0  0
  188.4720  179.3170  140.4260 C   0  0  0  0  0  2  0  0  0  0  0  0
  186.8460  178.3130  141.8890 C   0  0  0  0  0  0  0  0  0  0  0  0
  184.4880  178.0690  140.9400 C   0  0  0  0  0  2  0  0  0  0  0  0
  184.3950  180.0930  139.5420 N   0  0  0  0  0  0  0  0  0  0  0  0
  181.3730  180.3400  137.8950 O   0  0  0  0  0  0  0  0  0  0  0  0
  182.3570  180.0320  138.6160 C   0  0  0  0  0  0  0  0  0  0  0  0
  183.5620  180.7700  138.6540 N   0  0  0  0  0  2  0  0  0  0  0  0
  182.4180  178.8520  139.5130 C   0  0  0  0  0  2  0  0  0  0  0  0
  183.7950  179.0640  140.0560 C   0  0  0  0  0  0  0  0  0  0  0  0
  185.8340  177.7970  138.2800 O   0  0  0  0  0  0  0  0  0  0  0  0
  185.9700  177.3940  135.9350 C   0  0  0  0  0  3  0  0  0  0  0  0
  186.2660  178.1330  136.9970 C   0  0  0  0  0  3  0  0  0  0  0  0
  185.1150  176.1530  135.9860 C   0  0  1  0  0  3  0  0  0  0  0  0
  185.9370  174.8840  136.0530 C   0  0  0  0  0  0  0  0  0  0  0  0
  186.9930  174.8690  136.7470 O   0  0  0  0  0  0  0  0  0  0  0  0
  185.4410  173.6780  135.4540 N   0  0  0  0  0  2  0  0  0  0  0  0
  185.3470  171.1520  134.9970 C   0  0  0  0  0  0  0  0  0  0  0  0
  186.1400  169.9470  134.7130 C   0  0  0  0  0  3  0  0  0  0  0  0
  187.3240  172.2830  135.8510 C   0  0  0  0  0  3  0  0  0  0  0  0
  187.4130  169.8800  135.1110 C   0  0  0  0  0  3  0  0  0  0  0  0
  184.0970  171.1180  134.8610 O   0  0  0  0  0  0  0  0  0  0  0  0
  188.0430  170.9650  135.9500 C   0  0  0  0  0  2  0  0  0  0  0  0
  186.0500  172.3790  135.4520 C   0  0  0  0  0  0  0  0  0  0  0  0
  184.0270  176.1900  137.0890 C   0  0  0  0  0  2  0  0  0  0  0  0
  181.8550  176.9300  136.0940 C   0  0  0  0  0  3  0  0  0  0  0  0
  180.0000  175.4020  135.8260 C   0  0  0  0  0  3  0  0  0  0  0  0
  180.7720  174.3630  136.3450 C   0  0  0  0  0  0  0  0  0  0  0  0
  182.6350  175.8990  136.6220 C   0  0  0  0  0  0  0  0  0  0  0  0
  182.0970  174.6140  136.7460 C   0  0  0  0  0  3  0  0  0  0  0  0
  180.5370  176.6860  135.6980 C   0  0  0  0  0  3  0  0  0  0  0  0
  180.2150  172.3200  137.6540 C   0  0  0  0  0  1  0  0  0  0  0  0
  180.1900  173.0970  136.4540 O   0  0  0  0  0  0  0  0  0  0  0  0
  186.3910  177.8950  143.2570 C   0  0  0  0  0  2  0  0  0  0  0  0
  187.5270  177.9160  144.2730 C   0  0  1  0  0  3  0  0  0  0  0  0
  185.7030  178.6280  145.8230 O   0  0  0  0  0  0  0  0  0  0  0  0
  187.7010  177.8750  146.6670 O   0  0  0  0  0  1  0  0  0  0  0  0
  186.9920  178.1260  145.6550 C   0  0  0  0  0  0  0  0  0  0  0  0
  188.3600  176.6380  144.2300 C   0  0  0  0  0  2  0  0  0  0  0  0
  189.8100  176.9870  143.9460 C   0  0  0  0  0  2  0  0  0  0  0  0
  190.4300  175.9720  142.9980 C   0  0  0  0  0  2  0  0  0  0  0  0
  191.5120  178.1100  142.3760 C   0  0  0  0  0  1  0  0  0  0  0  0
  191.3040  176.6640  141.9590 C   0  0  2  0  0  3  0  0  0  0  0  0
  191.6460  176.8430  139.4450 N   0  0  0  0  0  2  0  0  0  0  0  0
  190.7760  176.5620  140.5490 C   0  0  0  0  0  0  0  0  0  0  0  0
  189.6190  176.1120  140.3320 O   0  0  0  0  0  0  0  0  0  0  0  0
  190.4040  175.1110  136.1260 C   0  0  2  0  0  3  0  0  0  0  0  0
  190.8840  176.7550  136.7690 S   0  0  0  0  0  0  0  0  0  0  0  0
  192.5560  174.1750  136.9220 C   0  0  0  0  0  0  0  0  0  0  0  0
  192.4800  174.9960  138.1440 C   0  0  0  0  0  3  0  0  0  0  0  0
  191.6210  174.2490  135.9670 C   0  0  0  0  0  3  0  0  0  0  0  0
  191.7040  176.0850  138.2320 C   0  0  0  0  0  0  0  0  0  0  0  0
  189.7620  175.2510  134.8980 O   0  0  0  0  0  0  0  0  0  0  0  0
  189.3970  176.6000  134.8340 C   0  0  0  0  0  1  0  0  0  0  0  0
  193.6610  173.1810  136.7810 C   0  0  0  0  0  2  0  0  0  0  0  0
  197.1510  174.5220  137.3560 C   0  0  0  0  0  3  0  0  0  0  0  0
  197.3300  175.3130  136.2200 C   0  0  0  0  0  3  0  0  0  0  0  0
  194.9610  173.8750  136.5540 C   0  0  0  0  0  0  0  0  0  0  0  0
  195.1440  174.6680  135.4180 C   0  0  0  0  0  3  0  0  0  0  0  0
  196.3280  175.3850  135.2490 C   0  0  0  0  0  3  0  0  0  0  0  0
  195.9680  173.8050  137.5240 C   0  0  0  0  0  3  0  0  0  0  0  0
  1  6  2  0  0  0  0
  2  3  1  0  0  0  0
  2  5  1  0  0  0  0
  3 14  1  1  0  0  0
  3  4  1  0  0  0  0
  4  7  1  6  0  0  0
  4  6  1  0  0  0  0
  5  1  1  0  0  0  0
  6 37  1  0  0  0  0
  8 13  2  0  0  0  0
  9 10  2  0  0  0  0
 10 11  1  0  0  0  0
 10 12  1  0  0  0  0
 11  8  1  0  0  0  0
 12 13  1  0  0  0  0
 13  7  1  0  0  0  0
 15 16  2  0  0  0  0
 16 14  1  0  0  0  0
 17 15  1  1  0  0  0
 17 18  1  0  0  0  0
 17 28  1  0  0  0  0
 18 19  2  0  0  0  0
 20 18  1  0  0  0  0
 21 27  1  0  0  0  0
 22 21  1  0  0  0  0
 22 24  2  0  0  0  0
 23 26  1  0  0  0  0
 24 26  1  0  0  0  0
 25 21  2  0  0  0  0
 27 20  1  0  0  0  0
 27 23  2  0  0  0  0
 29 32  1  0  0  0  0
 30 31  2  0  0  0  0
 31 36  1  0  0  0  0
 31 33  1  0  0  0  0
 32 33  2  0  0  0  0
 32 28  1  0  0  0  0
 34 30  1  0  0  0  0
 34 29  2  0  0  0  0
 36 35  1  0  0  0  0
 38 37  1  6  0  0  0
 38 41  1  0  0  0  0
 41 39  2  0  0  0  0
 41 40  1  0  0  0  0
 42 38  1  0  0  0  0
 43 42  1  0  0  0  0
 44 43  1  0  0  0  0
 46 45  1  1  0  0  0
 46 44  1  0  0  0  0
 47 48  1  0  0  0  0
 48 46  1  0  0  0  0
 49 48  2  0  0  0  0
 50 56  1  6  0  0  0
 50 51  1  0  0  0  0
 51 55  1  0  0  0  0
 52 53  1  0  0  0  0
 53 55  2  0  0  0  0
 54 50  1  0  0  0  0
 54 52  2  0  0  0  0
 55 47  1  0  0  0  0
 57 56  1  0  0  0  0
 58 52  1  0  0  0  0
 59 64  1  0  0  0  0
 60 59  2  0  0  0  0
 61 58  1  0  0  0  0
 61 64  2  0  0  0  0
 62 61  1  0  0  0  0
 63 62  2  0  0  0  0
 63 60  1  0  0  0  0
M  END
>  <MODEL>
5

>  <REMARK>
 VINA RESULT:      -5.4      2.922      9.380
  Name = 
  22 active torsions:
  status: ('A' for Active; 'I' for Inactive)
    1  A    between atoms: C_4  and  C_13
    2  A    between atoms: C_4  and  C_55
    3  A    between atoms: C_8  and  C_45
    4  A    between atoms: C_13  and  C_36
    5  A    between atoms: C_13  and  C_53
    6  A    between atoms: C_14  and  C_53
    7  A    between atoms: C_14  and  C_59
    8  A    between atoms: C_15  and  C_26
    9  A    between atoms: C_15  and  C_45
   10  A    between atoms: O_21  and  C_31
   11  A    between atoms: O_21  and  C_54
   12  A    between atoms: C_22  and  O_32
   13  A    between atoms: C_23  and  C_35
   14  A    between atoms: O_25  and  C_27
   15  A    between atoms: C_29  and  C_35
   16  A    between atoms: N_30  and  C_58
   17  A    between atoms: C_33  and  C_62
   18  A    between atoms: C_34  and  C_56
   19  A    between atoms: C_45  and  C_46
   20  A    between atoms: C_56  and  C_61
   21  A    between atoms: C_59  and  C_62
   22  A    between atoms: N_63  and  C_64
                            x       y       z     vdW  Elec       q    Type
                         _______ _______ _______ _____ _____    ______ ____

>  <TORSDO>
F 22

$$$$
=
 OpenBabel10232408493D

 64 69  0  0  1  0  0  0  0  0999 V2000
  189.8050  178.3770  136.9550 N   0  0  0  0  0  0  0  0  0  0  0  0
  188.8690  178.1900  139.2060 C   0  0  0  0  0  2  0  0  0  0  0  0
  189.4880  176.8220  139.2800 C   0  0  2  0  0  3  0  0  0  0  0  0
  190.0550  176.3020  138.1650 C   0  0  1  0  0  3  0  0  0  0  0  0
  189.6380  179.0750  138.2260 C   0  0  0  0  0  2  0  0  0  0  0  0
  190.0450  177.1000  136.9140 C   0  0  0  0  0  0  0  0  0  0  0  0
  190.9160  175.0680  138.1920 C   0  0  0  0  0  2  0  0  0  0  0  0
  192.9540  176.3120  138.7910 N   0  0  0  0  0  0  0  0  0  0  0  0
  195.7300  175.0000  137.2150 O   0  0  0  0  0  0  0  0  0  0  0  0
  194.5820  175.2940  137.6370 C   0  0  0  0  0  0  0  0  0  0  0  0
  194.3290  176.3280  138.5680 N   0  0  0  0  0  2  0  0  0  0  0  0
  193.3290  174.6010  137.2470 C   0  0  0  0  0  2  0  0  0  0  0  0
  192.3710  175.4090  138.0640 C   0  0  0  0  0  0  0  0  0  0  0  0
  189.3590  176.1450  140.5090 O   0  0  0  0  0  0  0  0  0  0  0  0
  190.6320  176.8020  142.4150 C   0  0  0  0  0  3  0  0  0  0  0  0
  190.3880  175.9470  141.4300 C   0  0  0  0  0  3  0  0  0  0  0  0
  189.8140  178.0440  142.6710 C   0  0  1  0  0  3  0  0  0  0  0  0
  188.3260  177.7710  142.6600 C   0  0  0  0  0  0  0  0  0  0  0  0
  187.9040  176.6380  143.0250 O   0  0  0  0  0  0  0  0  0  0  0  0
  187.4050  178.8360  142.3800 N   0  0  0  0  0  2  0  0  0  0  0  0
  185.1680  178.7880  141.1180 C   0  0  0  0  0  0  0  0  0  0  0  0
  183.7530  178.3950  141.1850 C   0  0  0  0  0  3  0  0  0  0  0  0
  185.3370  178.6940  143.5430 C   0  0  0  0  0  3  0  0  0  0  0  0
  183.1450  178.3020  142.3710 C   0  0  0  0  0  3  0  0  0  0  0  0
  185.6660  179.1280  140.0140 O   0  0  0  0  0  0  0  0  0  0  0  0
  183.8360  178.6960  143.6540 C   0  0  0  0  0  2  0  0  0  0  0  0
  185.9710  178.7830  142.3670 C   0  0  0  0  0  0  0  0  0  0  0  0
  190.2450  178.8250  143.9380 C   0  0  0  0  0  2  0  0  0  0  0  0
  190.7860  177.2320  145.7890 C   0  0  0  0  0  3  0  0  0  0  0  0
  189.2540  176.8530  147.6210 C   0  0  0  0  0  3  0  0  0  0  0  0
  188.3700  177.7890  147.0850 C   0  0  0  0  0  0  0  0  0  0  0  0
  189.9060  178.1660  145.2380 C   0  0  0  0  0  0  0  0  0  0  0  0
  188.6990  178.4480  145.8860 C   0  0  0  0  0  3  0  0  0  0  0  0
  190.4620  176.5720  146.9770 C   0  0  0  0  0  3  0  0  0  0  0  0
  185.8920  178.0150  147.1320 C   0  0  0  0  0  1  0  0  0  0  0  0
  187.1750  178.0350  147.7640 O   0  0  0  0  0  0  0  0  0  0  0  0
  190.2670  176.4240  135.5910 C   0  0  0  0  0  2  0  0  0  0  0  0
  189.0620  175.5950  135.1600 C   0  0  1  0  0  3  0  0  0  0  0  0
  188.5420  173.2210  135.7320 O   0  0  0  0  0  1  0  0  0  0  0  0
  190.4810  173.7360  134.6180 O   0  0  0  0  0  0  0  0  0  0  0  0
  189.4070  174.1390  135.1420 C   0  0  0  0  0  0  0  0  0  0  0  0
  187.8530  175.8280  136.0620 C   0  0  0  0  0  2  0  0  0  0  0  0
  186.6600  175.0610  135.5200 C   0  0  0  0  0  2  0  0  0  0  0  0
  185.7240  175.9900  134.7640 C   0  0  0  0  0  2  0  0  0  0  0  0
  186.7910  177.7500  136.1410 C   0  0  0  0  0  1  0  0  0  0  0  0
  185.4740  177.2690  135.5550 C   0  0  2  0  0  3  0  0  0  0  0  0
  183.0870  176.7240  136.2450 N   0  0  0  0  0  2  0  0  0  0  0  0
  184.4090  177.1330  136.6160 C   0  0  0  0  0  0  0  0  0  0  0  0
  184.7050  177.2540  137.8360 O   0  0  0  0  0  0  0  0  0  0  0  0
  180.6410  173.6990  136.9000 C   0  0  2  0  0  3  0  0  0  0  0  0
  182.4030  174.0420  136.5420 S   0  0  0  0  0  0  0  0  0  0  0  0
  180.7310  175.2640  138.8190 C   0  0  0  0  0  0  0  0  0  0  0  0
  181.5870  176.1850  138.0500 C   0  0  0  0  0  3  0  0  0  0  0  0
  180.3200  174.0970  138.3100 C   0  0  0  0  0  3  0  0  0  0  0  0
  182.2820  175.7920  136.9730 C   0  0  0  0  0  0  0  0  0  0  0  0
  180.3760  172.3440  136.7190 O   0  0  0  0  0  0  0  0  0  0  0  0
  181.6230  171.7610  136.4750 C   0  0  0  0  0  1  0  0  0  0  0  0
  180.2460  175.6780  140.1700 C   0  0  0  0  0  2  0  0  0  0  0  0
  180.1160  179.1560  141.6530 C   0  0  0  0  0  3  0  0  0  0  0  0
  179.9910  179.9380  140.5020 C   0  0  0  0  0  3  0  0  0  0  0  0
  180.2190  177.1640  140.2800 C   0  0  0  0  0  0  0  0  0  0  0  0
  180.0940  177.9510  139.1310 C   0  0  0  0  0  3  0  0  0  0  0  0
  179.9820  179.3370  139.2420 C   0  0  0  0  0  3  0  0  0  0  0  0
  180.2270  177.7710  141.5410 C   0  0  0  0  0  3  0  0  0  0  0  0
  1  5  1  0  0  0  0
  2  3  1  0  0  0  0
  3 14  1  6  0  0  0
  4  7  1  1  0  0  0
  4  3  1  0  0  0  0
  5  2  1  0  0  0  0
  6  1  2  0  0  0  0
  6  4  1  0  0  0  0
  9 10  2  0  0  0  0
 10 11  1  0  0  0  0
 11  8  1  0  0  0  0
 12 10  1  0  0  0  0
 12 13  1  0  0  0  0
 13  7  1  0  0  0  0
 13  8  2  0  0  0  0
 14 16  1  0  0  0  0
 16 15  2  0  0  0  0
 17 15  1  1  0  0  0
 17 28  1  0  0  0  0
 18 17  1  0  0  0  0
 18 19  2  0  0  0  0
 20 18  1  0  0  0  0
 21 22  1  0  0  0  0
 21 27  1  0  0  0  0
 22 24  2  0  0  0  0
 23 26  1  0  0  0  0
 24 26  1  0  0  0  0
 25 21  2  0  0  0  0
 27 20  1  0  0  0  0
 27 23  2  0  0  0  0
 28 32  1  0  0  0  0
 29 34  1  0  0  0  0
 31 30  1  0  0  0  0
 31 36  1  0  0  0  0
 32 29  2  0  0  0  0
 32 33  1  0  0  0  0
 33 31  2  0  0  0  0
 34 30  2  0  0  0  0
 35 36  1  0  0  0  0
 37  6  1  0  0  0  0
 38 37  1  1  0  0  0
 38 42  1  0  0  0  0
 40 41  2  0  0  0  0
 41 38  1  0  0  0  0
 41 39  1  0  0  0  0
 43 42  1  0  0  0  0
 44 43  1  0  0  0  0
 44 46  1  0  0  0  0
 46 45  1  1  0  0  0
 46 48  1  0  0  0  0
 47 48  1  0  0  0  0
 47 55  1  0  0  0  0
 48 49  2  0  0  0  0
 50 56  1  1  0  0  0
 50 54  1  0  0  0  0
 51 50  1  0  0  0  0
 51 55  1  0  0  0  0
 52 58  1  0  0  0  0
 53 52  1  0  0  0  0
 54 52  2  0  0  0  0
 55 53  2  0  0  0  0
 57 56  1  0  0  0  0
 58 61  1  0  0  0  0
 60 59  2  0  0  0  0
 61 64  2  0  0  0  0
 62 63  2  0  0  0  0
 62 61  1  0  0  0  0
 63 60  1  0  0  0  0
 64 59  1  0  0  0  0
M  END
>  <MODEL>
6

>  <REMARK>
 VINA RESULT:      -4.8      2.962     10.283
  Name = 
  22 active torsions:
  status: ('A' for Active; 'I' for Inactive)
    1  A    between atoms: C_4  and  C_13
    2  A    between atoms: C_4  and  C_55
    3  A    between atoms: C_8  and  C_45
    4  A    between atoms: C_13  and  C_36
    5  A    between atoms: C_13  and  C_53
    6  A    between atoms: C_14  and  C_53
    7  A    between atoms: C_14  and  C_59
    8  A    between atoms: C_15  and  C_26
    9  A    between atoms: C_15  and  C_45
   10  A    between atoms: O_21  and  C_31
   11  A    between atoms: O_21  and  C_54
   12  A    between atoms: C_22  and  O_32
   13  A    between atoms: C_23  and  C_35
   14  A    between atoms: O_25  and  C_27
   15  A    between atoms: C_29  and  C_35
   16  A    between atoms: N_30  and  C_58
   17  A    between atoms: C_33  and  C_62
   18  A    between atoms: C_34  and  C_56
   19  A    between atoms: C_45  and  C_46
   20  A    between atoms: C_56  and  C_61
   21  A    between atoms: C_59  and  C_62
   22  A    between atoms: N_63  and  C_64
                            x       y       z     vdW  Elec       q    Type
                         _______ _______ _______ _____ _____    ______ ____

>  <TORSDO>
F 22

$$$$
=
 OpenBabel10232408493D

 64 69  0  0  1  0  0  0  0  0999 V2000
  189.7100  177.0800  141.2970 N   0  0  0  0  0  0  0  0  0  0  0  0
  188.1920  178.1310  139.6950 C   0  0  0  0  0  2  0  0  0  0  0  0
  189.3040  178.0530  138.6870 C   0  0  2  0  0  3  0  0  0  0  0  0
  190.5320  177.6570  139.1020 C   0  0  1  0  0  3  0  0  0  0  0  0
  188.3530  177.0460  140.7590 C   0  0  0  0  0  2  0  0  0  0  0  0
  190.7340  177.3150  140.5310 C   0  0  0  0  0  0  0  0  0  0  0  0
  191.6370  177.3020  138.1430 C   0  0  0  0  0  2  0  0  0  0  0  0
  190.5220  175.1310  137.8260 N   0  0  0  0  0  0  0  0  0  0  0  0
  192.6220  172.8550  136.3030 O   0  0  0  0  0  0  0  0  0  0  0  0
  192.0800  173.8460  136.8580 C   0  0  0  0  0  0  0  0  0  0  0  0
  190.7370  173.8590  137.3000 N   0  0  0  0  0  2  0  0  0  0  0  0
  192.7460  175.1460  137.1160 C   0  0  0  0  0  2  0  0  0  0  0  0
  191.6020  175.8480  137.7760 C   0  0  0  0  0  0  0  0  0  0  0  0
  188.9930  178.4790  137.3810 O   0  0  0  0  0  0  0  0  0  0  0  0
  189.0320  177.0360  135.4830 C   0  0  0  0  0  3  0  0  0  0  0  0
  189.5860  177.9960  136.2140 C   0  0  0  0  0  3  0  0  0  0  0  0
  187.7030  176.3970  135.8030 C   0  0  1  0  0  3  0  0  0  0  0  0
  186.6300  177.4170  136.1160 C   0  0  0  0  0  0  0  0  0  0  0  0
  186.5130  178.4360  135.3790 O   0  0  0  0  0  0  0  0  0  0  0  0
  185.6680  177.1500  137.1470 N   0  0  0  0  0  2  0  0  0  0  0  0
  183.1610  177.7100  137.1320 C   0  0  0  0  0  0  0  0  0  0  0  0
  182.0690  178.3770  137.8560 C   0  0  0  0  0  3  0  0  0  0  0  0
  184.8090  178.9890  138.3830 C   0  0  0  0  0  3  0  0  0  0  0  0
  182.3430  179.3870  138.6860 C   0  0  0  0  0  3  0  0  0  0  0  0
  182.8910  176.9470  136.1680 O   0  0  0  0  0  0  0  0  0  0  0  0
  183.7370  179.9490  138.8250 C   0  0  0  0  0  2  0  0  0  0  0  0
  184.5610  177.9670  137.5560 C   0  0  0  0  0  0  0  0  0  0  0  0
  187.2300  175.3750  134.7390 C   0  0  0  0  0  2  0  0  0  0  0  0
  188.1700  173.0860  135.1000 C   0  0  0  0  0  3  0  0  0  0  0  0
  186.8350  171.3030  136.0410 C   0  0  0  0  0  3  0  0  0  0  0  0
  185.7550  172.1750  136.1780 C   0  0  0  0  0  0  0  0  0  0  0  0
  187.0940  173.9660  135.2250 C   0  0  0  0  0  0  0  0  0  0  0  0
  185.8860  173.5140  135.7660 C   0  0  0  0  0  3  0  0  0  0  0  0
  188.0440  171.7540  135.5030 C   0  0  0  0  0  3  0  0  0  0  0  0
  183.6250  170.9050  135.9730 C   0  0  0  0  0  1  0  0  0  0  0  0
  184.5680  171.6770  136.7200 O   0  0  0  0  0  0  0  0  0  0  0  0
  192.1200  177.2870  141.1080 C   0  0  0  0  0  2  0  0  0  0  0  0
  192.1120  177.0530  142.6140 C   0  0  1  0  0  3  0  0  0  0  0  0
  190.4870  178.9200  142.9460 O   0  0  0  0  0  0  0  0  0  0  0  0
  192.3550  178.7720  144.2720 O   0  0  0  0  0  1  0  0  0  0  0  0
  191.6660  178.2870  143.3340 C   0  0  0  0  0  0  0  0  0  0  0  0
  191.2240  175.8750  143.0070 C   0  0  0  0  0  2  0  0  0  0  0  0
  190.6620  176.1060  144.3980 C   0  0  0  0  0  2  0  0  0  0  0  0
  191.6180  175.5790  145.4570 C   0  0  0  0  0  2  0  0  0  0  0  0
  192.3670  175.7750  147.8090 C   0  0  0  0  0  1  0  0  0  0  0  0
  191.5950  176.4650  146.6970 C   0  0  2  0  0  3  0  0  0  0  0  0
  189.6140  178.0610  146.6410 N   0  0  0  0  0  2  0  0  0  0  0  0
  190.2070  176.8560  147.1440 C   0  0  0  0  0  0  0  0  0  0  0  0
  189.5200  176.0720  147.8520 O   0  0  0  0  0  0  0  0  0  0  0  0
  185.6830  177.7670  146.7690 C   0  0  2  0  0  3  0  0  0  0  0  0
  187.0470  178.7920  147.4300 S   0  0  0  0  0  0  0  0  0  0  0  0
  186.5200  178.1450  144.4670 C   0  0  0  0  0  0  0  0  0  0  0  0
  187.9130  178.0360  144.9370 C   0  0  0  0  0  3  0  0  0  0  0  0
  185.4850  178.0590  145.3110 C   0  0  0  0  0  3  0  0  0  0  0  0
  188.2520  178.1930  146.2250 C   0  0  0  0  0  0  0  0  0  0  0  0
  184.5080  178.0340  147.4680 O   0  0  0  0  0  0  0  0  0  0  0  0
  183.7120  178.7550  146.5730 C   0  0  0  0  0  1  0  0  0  0  0  0
  186.2540  178.2760  143.0030 C   0  0  0  0  0  2  0  0  0  0  0  0
  182.8480  177.8560  141.4120 C   0  0  0  0  0  3  0  0  0  0  0  0
  182.0880  178.7640  142.1530 C   0  0  0  0  0  3  0  0  0  0  0  0
  184.7910  178.4020  142.7490 C   0  0  0  0  0  0  0  0  0  0  0  0
  184.0260  179.3090  143.4880 C   0  0  0  0  0  3  0  0  0  0  0  0
  182.6750  179.4890  143.1920 C   0  0  0  0  0  3  0  0  0  0  0  0
  184.1980  177.6780  141.7090 C   0  0  0  0  0  3  0  0  0  0  0  0
  2  5  1  0  0  0  0
  3 14  1  1  0  0  0
  3  4  1  0  0  0  0
  3  2  1  0  0  0  0
  4  7  1  6  0  0  0
  4  6  1  0  0  0  0
  5  1  1  0  0  0  0
  6 37  1  0  0  0  0
  6  1  2  0  0  0  0
  9 10  2  0  0  0  0
 10 12  1  0  0  0  0
 10 11  1  0  0  0  0
 11  8  1  0  0  0  0
 12 13  1  0  0  0  0
 13  8  2  0  0  0  0
 13  7  1  0  0  0  0
 15 17  1  0  0  0  0
 15 16  2  0  0  0  0
 16 14  1  0  0  0  0
 17 28  1  6  0  0  0
 17 18  1  0  0  0  0
 18 20  1  0  0  0  0
 19 18  2  0  0  0  0
 20 27  1  0  0  0  0
 21 27  1  0  0  0  0
 21 22  1  0  0  0  0
 22 24  2  0  0  0  0
 23 26  1  0  0  0  0
 24 26  1  0  0  0  0
 25 21  2  0  0  0  0
 27 23  2  0  0  0  0
 28 32  1  0  0  0  0
 29 32  2  0  0  0  0
 29 34  1  0  0  0  0
 30 31  1  0  0  0  0
 31 36  1  0  0  0  0
 32 33  1  0  0  0  0
 33 31  2  0  0  0  0
 34 30  2  0  0  0  0
 35 36  1  0  0  0  0
 38 37  1  6  0  0  0
 38 42  1  0  0  0  0
 38 41  1  0  0  0  0
 39 41  2  0  0  0  0
 41 40  1  0  0  0  0
 42 43  1  0  0  0  0
 43 44  1  0  0  0  0
 44 46  1  0  0  0  0
 46 48  1  0  0  0  0
 46 45  1  1  0  0  0
 47 48  1  0  0  0  0
 48 49  2  0  0  0  0
 50 51  1  0  0  0  0
 50 56  1  1  0  0  0
 52 53  1  0  0  0  0
 52 54  2  0  0  0  0
 53 55  2  0  0  0  0
 54 50  1  0  0  0  0
 55 47  1  0  0  0  0
 55 51  1  0  0  0  0
 57 56  1  0  0  0  0
 58 52  1  0  0  0  0
 59 64  2  0  0  0  0
 59 60  1  0  0  0  0
 60 63  2  0  0  0  0
 61 58  1  0  0  0  0
 61 62  2  0  0  0  0
 63 62  1  0  0  0  0
 64 61  1  0  0  0  0
M  END
>  <MODEL>
7

>  <REMARK>
 VINA RESULT:      -4.6      2.789      7.979
  Name = 
  22 active torsions:
  status: ('A' for Active; 'I' for Inactive)
    1  A    between atoms: C_4  and  C_13
    2  A    between atoms: C_4  and  C_55
    3  A    between atoms: C_8  and  C_45
    4  A    between atoms: C_13  and  C_36
    5  A    between atoms: C_13  and  C_53
    6  A    between atoms: C_14  and  C_53
    7  A    between atoms: C_14  and  C_59
    8  A    between atoms: C_15  and  C_26
    9  A    between atoms: C_15  and  C_45
   10  A    between atoms: O_21  and  C_31
   11  A    between atoms: O_21  and  C_54
   12  A    between atoms: C_22  and  O_32
   13  A    between atoms: C_23  and  C_35
   14  A    between atoms: O_25  and  C_27
   15  A    between atoms: C_29  and  C_35
   16  A    between atoms: N_30  and  C_58
   17  A    between atoms: C_33  and  C_62
   18  A    between atoms: C_34  and  C_56
   19  A    between atoms: C_45  and  C_46
   20  A    between atoms: C_56  and  C_61
   21  A    between atoms: C_59  and  C_62
   22  A    between atoms: N_63  and  C_64
                            x       y       z     vdW  Elec       q    Type
                         _______ _______ _______ _____ _____    ______ ____

>  <TORSDO>
F 22

$$$$
=
 OpenBabel10232408493D

 64 69  0  0  1  0  0  0  0  0999 V2000
  186.3080  178.2830  137.8720 N   0  0  0  0  0  0  0  0  0  0  0  0
  187.9690  178.7600  136.1440 C   0  0  0  0  0  2  0  0  0  0  0  0
  188.8860  177.8020  136.8510 C   0  0  2  0  0  3  0  0  0  0  0  0
  188.5090  177.3070  138.0550 C   0  0  1  0  0  3  0  0  0  0  0  0
  186.5080  178.4180  136.4330 C   0  0  0  0  0  2  0  0  0  0  0  0
  187.2070  177.7270  138.6290 C   0  0  0  0  0  0  0  0  0  0  0  0
  189.2230  176.1610  138.7210 C   0  0  0  0  0  2  0  0  0  0  0  0
  191.5700  176.8600  138.9700 N   0  0  0  0  0  0  0  0  0  0  0  0
  192.1830  178.0850  142.1370 O   0  0  0  0  0  0  0  0  0  0  0  0
  191.7110  177.5800  141.0860 C   0  0  0  0  0  0  0  0  0  0  0  0
  192.4510  177.4230  139.8910 N   0  0  0  0  0  2  0  0  0  0  0  0
  190.3180  177.0960  140.9260 C   0  0  0  0  0  2  0  0  0  0  0  0
  190.4110  176.6350  139.5060 C   0  0  0  0  0  0  0  0  0  0  0  0
  190.1250  177.5490  136.2270 O   0  0  0  0  0  0  0  0  0  0  0  0
  190.7100  176.1760  134.3680 C   0  0  0  0  0  3  0  0  0  0  0  0
  190.3100  177.3430  134.8600 C   0  0  0  0  0  3  0  0  0  0  0  0
  190.9650  174.9520  135.2110 C   0  0  1  0  0  3  0  0  0  0  0  0
  192.3440  174.9540  135.8340 C   0  0  0  0  0  0  0  0  0  0  0  0
  192.4550  174.8510  137.0880 O   0  0  0  0  0  0  0  0  0  0  0  0
  193.5080  174.9240  134.9950 N   0  0  0  0  0  2  0  0  0  0  0  0
  195.5280  173.6640  135.9610 C   0  0  0  0  0  0  0  0  0  0  0  0
  196.9950  173.6050  136.0250 C   0  0  0  0  0  3  0  0  0  0  0  0
  195.6270  175.9790  135.2210 C   0  0  0  0  0  3  0  0  0  0  0  0
  197.7140  174.7150  135.8340 C   0  0  0  0  0  3  0  0  0  0  0  0
  194.8490  172.6960  136.3920 O   0  0  0  0  0  0  0  0  0  0  0  0
  197.0620  176.0650  135.6630 C   0  0  0  0  0  2  0  0  0  0  0  0
  194.8850  174.8780  135.3960 C   0  0  0  0  0  0  0  0  0  0  0  0
  189.8610  174.6770  136.2640 C   0  0  0  0  0  2  0  0  0  0  0  0
  189.2190  172.5600  135.0990 C   0  0  0  0  0  3  0  0  0  0  0  0
  186.9230  171.8050  135.0200 C   0  0  0  0  0  3  0  0  0  0  0  0
  186.5290  172.9010  135.7870 C   0  0  0  0  0  0  0  0  0  0  0  0
  188.8360  173.6650  135.8620 C   0  0  0  0  0  0  0  0  0  0  0  0
  187.4920  173.8360  136.2090 C   0  0  0  0  0  3  0  0  0  0  0  0
  188.2650  171.6300  134.6740 C   0  0  0  0  0  3  0  0  0  0  0  0
  184.6210  172.6340  137.3630 C   0  0  0  0  0  1  0  0  0  0  0  0
  185.1750  173.0330  136.1070 O   0  0  0  0  0  0  0  0  0  0  0  0
  186.9450  177.5540  140.0980 C   0  0  0  0  0  2  0  0  0  0  0  0
  186.1510  178.7170  140.6810 C   0  0  1  0  0  3  0  0  0  0  0  0
  184.4360  180.0100  139.4060 O   0  0  0  0  0  0  0  0  0  0  0  0
  184.0070  177.8460  140.0410 O   0  0  0  0  0  1  0  0  0  0  0  0
  184.8100  178.8180  140.0230 C   0  0  0  0  0  0  0  0  0  0  0  0
  185.9770  178.5940  142.1920 C   0  0  0  0  0  2  0  0  0  0  0  0
  185.4520  179.9040  142.7510 C   0  0  0  0  0  2  0  0  0  0  0  0
  183.9370  179.8630  142.8750 C   0  0  0  0  0  2  0  0  0  0  0  0
  182.0070  178.8240  144.0260 C   0  0  0  0  0  1  0  0  0  0  0  0
  183.4950  178.6970  143.7510 C   0  0  2  0  0  3  0  0  0  0  0  0
  185.1970  177.4600  145.1830 N   0  0  0  0  0  2  0  0  0  0  0  0
  184.2870  178.5570  145.0290 C   0  0  0  0  0  0  0  0  0  0  0  0
  184.2480  179.4630  145.9050 O   0  0  0  0  0  0  0  0  0  0  0  0
  188.0270  178.4520  147.7450 C   0  0  2  0  0  3  0  0  0  0  0  0
  186.6790  177.2320  147.5270 S   0  0  0  0  0  0  0  0  0  0  0  0
  188.9450  177.8260  145.5300 C   0  0  0  0  0  0  0  0  0  0  0  0
  187.5830  177.7080  144.9800 C   0  0  0  0  0  3  0  0  0  0  0  0
  189.1590  178.1320  146.8150 C   0  0  0  0  0  3  0  0  0  0  0  0
  186.5030  177.5530  145.7590 C   0  0  0  0  0  0  0  0  0  0  0  0
  188.4770  178.4290  149.0630 O   0  0  0  0  0  0  0  0  0  0  0  0
  189.8670  178.3120  148.9670 C   0  0  0  0  0  1  0  0  0  0  0  0
  190.1160  177.6770  144.6140 C   0  0  0  0  0  2  0  0  0  0  0  0
  192.3570  175.5460  146.7930 C   0  0  0  0  0  3  0  0  0  0  0  0
  192.7790  174.5750  145.8820 C   0  0  0  0  0  3  0  0  0  0  0  0
  190.9940  176.5620  145.0690 C   0  0  0  0  0  0  0  0  0  0  0  0
  191.4190  175.5870  144.1610 C   0  0  0  0  0  3  0  0  0  0  0  0
  192.3090  174.5940  144.5670 C   0  0  0  0  0  3  0  0  0  0  0  0
  191.4680  176.5390  146.3860 C   0  0  0  0  0  3  0  0  0  0  0  0
  1  6  2  0  0  0  0
  2  5  1  0  0  0  0
  2  3  1  0  0  0  0
  3 14  1  1  0  0  0
  3  4  1  0  0  0  0
  4  6  1  0  0  0  0
  4  7  1  6  0  0  0
  5  1  1  0  0  0  0
  6 37  1  0  0  0  0
  7 13  1  0  0  0  0
  8 13  2  0  0  0  0
  8 11  1  0  0  0  0
 10  9  2  0  0  0  0
 11 10  1  0  0  0  0
 12 10  1  0  0  0  0
 13 12  1  0  0  0  0
 15 16  2  0  0  0  0
 16 14  1  0  0  0  0
 17 15  1  1  0  0  0
 17 18  1  0  0  0  0
 17 28  1  0  0  0  0
 18 19  2  0  0  0  0
 20 27  1  0  0  0  0
 20 18  1  0  0  0  0
 21 22  1  0  0  0  0
 21 25  2  0  0  0  0
 23 27  2  0  0  0  0
 23 26  1  0  0  0  0
 24 22  2  0  0  0  0
 26 24  1  0  0  0  0
 27 21  1  0  0  0  0
 29 32  1  0  0  0  0
 30 31  2  0  0  0  0
 31 36  1  0  0  0  0
 31 33  1  0  0  0  0
 32 33  2  0  0  0  0
 32 28  1  0  0  0  0
 34 30  1  0  0  0  0
 34 29  2  0  0  0  0
 36 35  1  0  0  0  0
 38 37  1  6  0  0  0
 38 42  1  0  0  0  0
 39 41  2  0  0  0  0
 41 40  1  0  0  0  0
 41 38  1  0  0  0  0
 42 43  1  0  0  0  0
 43 44  1  0  0  0  0
 44 46  1  0  0  0  0
 46 45  1  1  0  0  0
 46 48  1  0  0  0  0
 47 55  1  0  0  0  0
 48 47  1  0  0  0  0
 48 49  2  0  0  0  0
 50 56  1  1  0  0  0
 51 50  1  0  0  0  0
 52 54  2  0  0  0  0
 53 52  1  0  0  0  0
 53 55  2  0  0  0  0
 54 50  1  0  0  0  0
 55 51  1  0  0  0  0
 57 56  1  0  0  0  0
 58 61  1  0  0  0  0
 58 52  1  0  0  0  0
 60 59  2  0  0  0  0
 61 64  2  0  0  0  0
 62 63  2  0  0  0  0
 62 61  1  0  0  0  0
 63 60  1  0  0  0  0
 64 59  1  0  0  0  0
M  END
>  <MODEL>
8

>  <REMARK>
 VINA RESULT:      -4.6      2.184      3.886
  Name = 
  22 active torsions:
  status: ('A' for Active; 'I' for Inactive)
    1  A    between atoms: C_4  and  C_13
    2  A    between atoms: C_4  and  C_55
    3  A    between atoms: C_8  and  C_45
    4  A    between atoms: C_13  and  C_36
    5  A    between atoms: C_13  and  C_53
    6  A    between atoms: C_14  and  C_53
    7  A    between atoms: C_14  and  C_59
    8  A    between atoms: C_15  and  C_26
    9  A    between atoms: C_15  and  C_45
   10  A    between atoms: O_21  and  C_31
   11  A    between atoms: O_21  and  C_54
   12  A    between atoms: C_22  and  O_32
   13  A    between atoms: C_23  and  C_35
   14  A    between atoms: O_25  and  C_27
   15  A    between atoms: C_29  and  C_35
   16  A    between atoms: N_30  and  C_58
   17  A    between atoms: C_33  and  C_62
   18  A    between atoms: C_34  and  C_56
   19  A    between atoms: C_45  and  C_46
   20  A    between atoms: C_56  and  C_61
   21  A    between atoms: C_59  and  C_62
   22  A    between atoms: N_63  and  C_64
                            x       y       z     vdW  Elec       q    Type
                         _______ _______ _______ _____ _____    ______ ____

>  <TORSDO>
F 22

$$$$
=
 OpenBabel10232408493D

 64 69  0  0  1  0  0  0  0  0999 V2000
  187.4930  175.7750  136.8830 N   0  0  0  0  0  0  0  0  0  0  0  0
  185.6320  177.2600  136.3270 C   0  0  0  0  0  2  0  0  0  0  0  0
  185.1140  176.1700  135.4310 C   0  0  2  0  0  3  0  0  0  0  0  0
  185.8860  175.0770  135.2210 C   0  0  1  0  0  3  0  0  0  0  0  0
  186.4890  176.6730  137.4470 C   0  0  0  0  0  2  0  0  0  0  0  0
  187.2130  174.9960  135.8810 C   0  0  0  0  0  0  0  0  0  0  0  0
  185.3660  173.8300  134.5570 C   0  0  0  0  0  2  0  0  0  0  0  0
  184.3220  173.2500  136.7100 N   0  0  0  0  0  0  0  0  0  0  0  0
  183.3470  169.9400  136.7770 O   0  0  0  0  0  0  0  0  0  0  0  0
  183.8110  171.0790  136.5090 C   0  0  0  0  0  0  0  0  0  0  0  0
  183.7200  172.1880  137.3810 N   0  0  0  0  0  2  0  0  0  0  0  0
  184.4980  171.4410  135.2440 C   0  0  0  0  0  2  0  0  0  0  0  0
  184.7880  172.8740  135.5590 C   0  0  0  0  0  0  0  0  0  0  0  0
  183.8720  176.4110  134.8100 O   0  0  0  0  0  0  0  0  0  0  0  0
  182.3260  178.2150  135.0080 C   0  0  0  0  0  3  0  0  0  0  0  0
  183.3890  177.6640  134.4340 C   0  0  0  0  0  3  0  0  0  0  0  0
  181.5570  177.5780  136.1380 C   0  0  1  0  0  3  0  0  0  0  0  0
  181.1620  178.5740  137.2060 C   0  0  0  0  0  0  0  0  0  0  0  0
  180.8520  179.7510  136.8670 O   0  0  0  0  0  0  0  0  0  0  0  0
  181.0030  178.1410  138.5650 N   0  0  0  0  0  2  0  0  0  0  0  0
  180.3290  178.3350  141.0360 C   0  0  0  0  0  0  0  0  0  0  0  0
  180.2500  179.2320  142.1990 C   0  0  0  0  0  3  0  0  0  0  0  0
  180.4820  180.2460  139.5390 C   0  0  0  0  0  3  0  0  0  0  0  0
  180.1500  180.5510  142.0140 C   0  0  0  0  0  3  0  0  0  0  0  0
  180.1610  177.0980  141.1950 O   0  0  0  0  0  0  0  0  0  0  0  0
  180.0010  181.1540  140.6390 C   0  0  0  0  0  2  0  0  0  0  0  0
  180.5950  178.9220  139.6980 C   0  0  0  0  0  0  0  0  0  0  0  0
  180.3480  176.7300  135.6700 C   0  0  0  0  0  2  0  0  0  0  0  0
  180.1440  175.2220  137.6550 C   0  0  0  0  0  3  0  0  0  0  0  0
  180.1790  172.8160  137.4250 C   0  0  0  0  0  3  0  0  0  0  0  0
  180.2860  172.9420  136.0400 C   0  0  0  0  0  0  0  0  0  0  0  0
  180.2570  175.3620  136.2700 C   0  0  0  0  0  0  0  0  0  0  0  0
  180.3260  174.2240  135.4610 C   0  0  0  0  0  3  0  0  0  0  0  0
  180.1090  173.9520  138.2360 C   0  0  0  0  0  3  0  0  0  0  0  0
  180.1840  170.4660  135.8160 C   0  0  0  0  0  1  0  0  0  0  0  0
  180.3550  171.7770  135.2720 O   0  0  0  0  0  0  0  0  0  0  0  0
  188.2520  174.0450  135.3610 C   0  0  0  0  0  2  0  0  0  0  0  0
  189.6470  174.3810  135.8740 C   0  0  1  0  0  3  0  0  0  0  0  0
  191.9120  173.3390  136.0250 O   0  0  0  0  0  1  0  0  0  0  0  0
  190.1150  172.0890  135.3360 O   0  0  0  0  0  0  0  0  0  0  0  0
  190.5570  173.2000  135.7340 C   0  0  0  0  0  0  0  0  0  0  0  0
  190.2490  175.5850  135.1560 C   0  0  0  0  0  2  0  0  0  0  0  0
  191.3860  176.1550  135.9850 C   0  0  0  0  0  2  0  0  0  0  0  0
  191.3000  175.6630  137.4210 C   0  0  0  0  0  2  0  0  0  0  0  0
  192.7360  176.6740  139.1660 C   0  0  0  0  0  1  0  0  0  0  0  0
  191.4320  176.8230  138.4010 C   0  0  2  0  0  3  0  0  0  0  0  0
  190.1880  176.1810  140.5260 N   0  0  0  0  0  2  0  0  0  0  0  0
  190.2540  176.9730  139.3330 C   0  0  0  0  0  0  0  0  0  0  0  0
  189.3960  177.8760  139.1360 O   0  0  0  0  0  0  0  0  0  0  0  0
  190.4770  177.4910  144.2350 C   0  0  2  0  0  3  0  0  0  0  0  0
  190.6440  178.0790  142.5100 S   0  0  0  0  0  0  0  0  0  0  0  0
  188.2100  176.6330  143.7180 C   0  0  0  0  0  0  0  0  0  0  0  0
  188.6650  176.1800  142.3920 C   0  0  0  0  0  3  0  0  0  0  0  0
  189.0300  177.2720  144.5620 C   0  0  0  0  0  3  0  0  0  0  0  0
  189.7720  176.6620  141.8080 C   0  0  0  0  0  0  0  0  0  0  0  0
  191.0220  178.4280  145.1100 O   0  0  0  0  0  0  0  0  0  0  0  0
  190.2470  179.5790  144.9350 C   0  0  0  0  0  1  0  0  0  0  0  0
  186.8240  176.3010  144.1640 C   0  0  0  0  0  2  0  0  0  0  0  0
  184.9330  179.4350  143.2080 C   0  0  0  0  0  3  0  0  0  0  0  0
  184.6100  179.9520  144.4650 C   0  0  0  0  0  3  0  0  0  0  0  0
  186.0010  177.5390  144.2700 C   0  0  0  0  0  0  0  0  0  0  0  0
  185.6740  178.0600  145.5250 C   0  0  0  0  0  3  0  0  0  0  0  0
  184.9780  179.2650  145.6230 C   0  0  0  0  0  3  0  0  0  0  0  0
  185.6300  178.2320  143.1110 C   0  0  0  0  0  3  0  0  0  0  0  0
  1  5  1  0  0  0  0
  2  5  1  0  0  0  0
  3 14  1  6  0  0  0
  3  2  1  0  0  0  0
  4  7  1  1  0  0  0
  4  3  1  0  0  0  0
  4  6  1  0  0  0  0
  6  1  2  0  0  0  0
  7 13  1  0  0  0  0
  8 11  1  0  0  0  0
 10  9  2  0  0  0  0
 10 11  1  0  0  0  0
 12 13  1  0  0  0  0
 12 10  1  0  0  0  0
 13  8  2  0  0  0  0
 16 14  1  0  0  0  0
 16 15  2  0  0  0  0
 17 15  1  6  0  0  0
 17 18  1  0  0  0  0
 18 20  1  0  0  0  0
 19 18  2  0  0  0  0
 20 27  1  0  0  0  0
 21 25  2  0  0  0  0
 21 22  1  0  0  0  0
 23 27  2  0  0  0  0
 23 26  1  0  0  0  0
 24 22  2  0  0  0  0
 26 24  1  0  0  0  0
 27 21  1  0  0  0  0
 28 17  1  0  0  0  0
 28 32  1  0  0  0  0
 29 34  1  0  0  0  0
 30 34  2  0  0  0  0
 31 30  1  0  0  0  0
 32 29  2  0  0  0  0
 33 31  2  0  0  0  0
 33 32  1  0  0  0  0
 36 35  1  0  0  0  0
 36 31  1  0  0  0  0
 37 38  1  0  0  0  0
 37  6  1  0  0  0  0
 38 42  1  6  0  0  0
 40 41  2  0  0  0  0
 41 38  1  0  0  0  0
 41 39  1  0  0  0  0
 42 43  1  0  0  0  0
 43 44  1  0  0  0  0
 44 46  1  0  0  0  0
 46 45  1  1  0  0  0
 46 48  1  0  0  0  0
 47 55  1  0  0  0  0
 48 47  1  0  0  0  0
 49 48  2  0  0  0  0
 50 54  1  0  0  0  0
 50 56  1  1  0  0  0
 51 50  1  0  0  0  0
 52 58  1  0  0  0  0
 52 54  2  0  0  0  0
 53 52  1  0  0  0  0
 55 53  2  0  0  0  0
 55 51  1  0  0  0  0
 57 56  1  0  0  0  0
 58 61  1  0  0  0  0
 59 60  1  0  0  0  0
 60 63  2  0  0  0  0
 61 62  2  0  0  0  0
 62 63  1  0  0  0  0
 64 59  2  0  0  0  0
 64 61  1  0  0  0  0
M  END
>  <MODEL>
9

>  <REMARK>
 VINA RESULT:      -4.5      3.316      9.886
  Name = 
  22 active torsions:
  status: ('A' for Active; 'I' for Inactive)
    1  A    between atoms: C_4  and  C_13
    2  A    between atoms: C_4  and  C_55
    3  A    between atoms: C_8  and  C_45
    4  A    between atoms: C_13  and  C_36
    5  A    between atoms: C_13  and  C_53
    6  A    between atoms: C_14  and  C_53
    7  A    between atoms: C_14  and  C_59
    8  A    between atoms: C_15  and  C_26
    9  A    between atoms: C_15  and  C_45
   10  A    between atoms: O_21  and  C_31
   11  A    between atoms: O_21  and  C_54
   12  A    between atoms: C_22  and  O_32
   13  A    between atoms: C_23  and  C_35
   14  A    between atoms: O_25  and  C_27
   15  A    between atoms: C_29  and  C_35
   16  A    between atoms: N_30  and  C_58
   17  A    between atoms: C_33  and  C_62
   18  A    between atoms: C_34  and  C_56
   19  A    between atoms: C_45  and  C_46
   20  A    between atoms: C_56  and  C_61
   21  A    between atoms: C_59  and  C_62
   22  A    between atoms: N_63  and  C_64
                            x       y       z     vdW  Elec       q    Type
                         _______ _______ _______ _____ _____    ______ ____

>  <TORSDO>
F 22

$$$$
