=
 OpenBabel10222422083D

 47 49  0  0  1  0  0  0  0  0999 V2000
  188.1010  177.8830  142.1310 C   0  0  2  0  0  3  0  0  0  0  0  0
  188.6510  176.4770  142.4020 C   0  0  0  0  0  2  0  0  0  0  0  0
  189.5230  176.4260  143.6640 C   0  0  1  0  0  3  0  0  0  0  0  0
  191.0230  176.4310  143.2870 C   0  0  1  0  0  3  0  0  0  0  0  0
  191.5910  177.8180  143.0180 C   0  0  0  0  0  1  0  0  0  0  0  0
  192.2340  174.5910  144.1780 O   0  0  0  0  0  0  0  0  0  0  0  0
  191.8540  175.7430  144.3330 C   0  0  0  0  0  3  0  0  0  0  0  0
  189.1030  177.5980  144.5530 C   0  0  0  0  0  2  0  0  0  0  0  0
  185.1930  178.8610  145.7500 C   0  0  0  0  0  0  0  0  0  0  0  0
  190.5760  177.3430  147.1490 O   0  0  0  0  0  0  0  0  0  0  0  0
  187.1330  177.9210  146.0570 C   0  0  0  0  0  0  0  0  0  0  0  0
  189.3360  177.5580  147.1630 C   0  0  0  0  0  0  0  0  0  0  0  0
  186.6300  178.3820  147.2420 C   0  0  0  0  0  0  0  0  0  0  0  0
  187.3970  178.3270  148.4950 C   0  0  0  0  0  3  0  0  0  0  0  0
  188.6820  177.9450  148.4480 C   0  0  0  0  0  3  0  0  0  0  0  0
  188.4850  177.2860  145.9250 C   0  0  2  0  0  3  0  0  0  0  0  0
  186.2210  178.2180  145.0720 C   0  0  0  0  0  3  0  0  0  0  0  0
  185.4420  178.9900  147.0740 N   0  0  0  0  0  2  0  0  0  0  0  0
  184.0860  179.5830  145.0400 C   0  0  0  0  0  2  0  0  0  0  0  0
  183.0070  178.6170  144.5700 C   0  0  0  0  0  1  0  0  0  0  0  0
  186.5700  177.9250  142.2090 C   0  0  0  0  0  2  0  0  0  0  0  0
  185.9610  179.1230  141.4980 C   0  0  0  0  0  2  0  0  0  0  0  0
  184.7570  178.7570  140.6810 C   0  0  0  0  0  0  0  0  0  0  0  0
  183.7630  178.3320  141.2530 O   0  0  0  0  0  0  0  0  0  0  0  0
  184.7040  179.0550  139.2050 C   0  0  2  0  0  3  0  0  0  0  0  0
  184.2180  180.3490  139.0070 O   0  0  0  0  0  1  0  0  0  0  0  0
  183.8510  178.0240  138.4470 C   0  0  2  0  0  3  0  0  0  0  0  0
  185.0280  174.9920  136.5780 C   0  0  0  0  0  3  0  0  0  0  0  0
  186.2130  175.4400  135.9940 C   0  0  0  0  0  3  0  0  0  0  0  0
  184.2730  175.8310  137.3310 N   0  0  0  0  0  0  0  0  0  0  0  0
  185.8230  177.6150  136.9720 C   0  0  0  0  0  3  0  0  0  0  0  0
  186.6120  176.7600  136.1990 C   0  0  0  0  0  3  0  0  0  0  0  0
  184.6390  177.1320  137.5330 C   0  0  0  0  0  0  0  0  0  0  0  0
  182.7160  178.6060  137.7900 O   0  0  0  0  0  0  0  0  0  0  0  0
  180.7500  177.1540  137.8280 N   0  0  0  0  0  1  0  0  0  0  0  0
  181.3810  178.3860  138.1590 C   0  0  0  0  0  0  0  0  0  0  0  0
  180.7300  179.2690  138.7810 O   0  0  0  0  0  0  0  0  0  0  0  0
  188.6610  178.4530  140.8330 C   0  0  0  0  0  2  0  0  0  0  0  0
  188.8830  177.3870  139.8030 C   0  0  0  0  0  3  0  0  0  0  0  0
  189.5830  177.6380  138.6950 C   0  0  0  0  0  3  0  0  0  0  0  0
  189.8570  176.5580  137.6960 C   0  0  0  0  0  2  0  0  0  0  0  0
  191.3190  176.5820  137.2750 C   0  0  0  0  0  2  0  0  0  0  0  0
  192.2210  176.3170  138.4750 C   0  0  0  0  0  2  0  0  0  0  0  0
  193.6240  176.4440  138.1030 N   0  0  0  0  0  2  0  0  0  0  0  0
  193.9860  175.2630  137.3300 C   0  0  0  0  0  2  0  0  0  0  0  0
  194.7830  174.2930  138.1840 C   0  0  0  0  0  2  0  0  0  0  0  0
  195.5980  175.0280  139.1390 N   0  0  0  0  0  1  0  0  0  0  0  0
  1 38  1  6  0  0  0
  1 21  1  0  0  0  0
  1  2  1  0  0  0  0
  3  2  1  6  0  0  0
  3  8  1  0  0  0  0
  4  5  1  1  0  0  0
  4  3  1  0  0  0  0
  4  7  1  0  0  0  0
  6  7  2  0  0  0  0
  9 18  1  0  0  0  0
 10 12  2  0  0  0  0
 11 13  2  0  0  0  0
 12 15  1  0  0  0  0
 13 14  1  0  0  0  0
 15 14  2  0  0  0  0
 16  8  1  6  0  0  0
 16 11  1  0  0  0  0
 16 12  1  0  0  0  0
 17  9  2  0  0  0  0
 17 11  1  0  0  0  0
 18 13  1  0  0  0  0
 19  9  1  0  0  0  0
 20 19  1  0  0  0  0
 22 21  1  0  0  0  0
 23 24  2  0  0  0  0
 23 22  1  0  0  0  0
 25 26  1  1  0  0  0
 25 23  1  0  0  0  0
 27 34  1  6  0  0  0
 27 25  1  0  0  0  0
 28 30  1  0  0  0  0
 29 32  1  0  0  0  0
 29 28  2  0  0  0  0
 30 33  2  0  0  0  0
 31 33  1  0  0  0  0
 32 31  2  0  0  0  0
 33 27  1  0  0  0  0
 34 36  1  0  0  0  0
 35 36  1  0  0  0  0
 36 37  2  0  0  0  0
 39 38  1  0  0  0  0
 40 39  2  0  0  0  0
 41 40  1  0  0  0  0
 42 41  1  0  0  0  0
 42 43  1  0  0  0  0
 44 43  1  0  0  0  0
 45 44  1  0  0  0  0
 45 46  1  0  0  0  0
 46 47  1  0  0  0  0
M  END
>  <MODEL>
1

>  <REMARK>
 VINA RESULT:      -7.6      0.000      0.000
  Name = 
  23 active torsions:
  status: ('A' for Active; 'I' for Inactive)
    1  A    between atoms: C_1  and  C_4
    2  A    between atoms: C_2  and  C_12
    3  A    between atoms: C_2  and  O_22
    4  A    between atoms: C_2  and  C_41
    5  A    between atoms: N_3  and  C_19
    6  A    between atoms: N_3  and  C_33
    7  A    between atoms: C_5  and  C_6
    8  A    between atoms: C_6  and  C_30
    9  A    between atoms: C_8  and  C_25
   10  A    between atoms: C_8  and  C_34
   11  A    between atoms: C_10  and  C_19
   12  A    between atoms: C_10  and  C_47
   13  A    between atoms: C_12  and  C_36
   14  A    between atoms: C_16  and  C_33
   15  A    between atoms: C_17  and  C_30
   16  A    between atoms: C_17  and  C_31
   17  A    between atoms: O_22  and  C_26
   18  A    between atoms: C_25  and  C_35
   19  A    between atoms: C_25  and  C_40
   20  A    between atoms: C_30  and  C_35
   21  A    between atoms: C_31  and  C_36
   22  A    between atoms: C_40  and  C_45
   23  A    between atoms: C_42  and  C_47
                            x       y       z     vdW  Elec       q    Type
                         _______ _______ _______ _____ _____    ______ ____

>  <TORSDO>
F 23

$$$$
=
 OpenBabel10222422083D

 47 49  0  0  1  0  0  0  0  0999 V2000
  188.0180  177.9430  142.1150 C   0  0  2  0  0  3  0  0  0  0  0  0
  188.4980  176.5260  142.4510 C   0  0  0  0  0  2  0  0  0  0  0  0
  189.4390  176.5010  143.6620 C   0  0  1  0  0  3  0  0  0  0  0  0
  190.9150  176.5750  143.2040 C   0  0  1  0  0  3  0  0  0  0  0  0
  191.5560  177.9430  143.3940 C   0  0  0  0  0  1  0  0  0  0  0  0
  192.0430  175.6260  145.0680 O   0  0  0  0  0  0  0  0  0  0  0  0
  191.7530  175.5300  143.8830 C   0  0  0  0  0  3  0  0  0  0  0  0
  189.0180  177.6450  144.5870 C   0  0  0  0  0  2  0  0  0  0  0  0
  185.0720  178.4240  146.0480 C   0  0  0  0  0  0  0  0  0  0  0  0
  190.6950  177.6630  147.0690 O   0  0  0  0  0  0  0  0  0  0  0  0
  187.1360  177.7550  146.2280 C   0  0  0  0  0  0  0  0  0  0  0  0
  189.4420  177.7160  147.1720 C   0  0  0  0  0  0  0  0  0  0  0  0
  186.6630  178.1820  147.4380 C   0  0  0  0  0  0  0  0  0  0  0  0
  187.5190  178.2650  148.6300 C   0  0  0  0  0  3  0  0  0  0  0  0
  188.8370  178.0530  148.4940 C   0  0  0  0  0  3  0  0  0  0  0  0
  188.5480  177.2980  146.0070 C   0  0  2  0  0  3  0  0  0  0  0  0
  186.1240  177.9000  145.3080 C   0  0  0  0  0  3  0  0  0  0  0  0
  185.3960  178.6250  147.3460 N   0  0  0  0  0  2  0  0  0  0  0  0
  183.8310  178.9740  145.4090 C   0  0  0  0  0  2  0  0  0  0  0  0
  184.1700  179.8890  144.2400 C   0  0  0  0  0  1  0  0  0  0  0  0
  186.4900  178.0600  142.1630 C   0  0  0  0  0  2  0  0  0  0  0  0
  185.9380  179.1590  141.2710 C   0  0  0  0  0  2  0  0  0  0  0  0
  184.7500  178.7100  140.4710 C   0  0  0  0  0  0  0  0  0  0  0  0
  183.7770  178.2630  141.0610 O   0  0  0  0  0  0  0  0  0  0  0  0
  184.6810  178.9510  138.9850 C   0  0  2  0  0  3  0  0  0  0  0  0
  183.4100  179.4190  138.6470 O   0  0  0  0  0  1  0  0  0  0  0  0
  185.0330  177.6840  138.1870 C   0  0  2  0  0  3  0  0  0  0  0  0
  188.2640  178.9550  136.7670 C   0  0  0  0  0  3  0  0  0  0  0  0
  188.8090  177.8110  136.1880 C   0  0  0  0  0  3  0  0  0  0  0  0
  187.0770  178.8960  137.4240 N   0  0  0  0  0  0  0  0  0  0  0  0
  186.8990  176.5550  136.9710 C   0  0  0  0  0  3  0  0  0  0  0  0
  188.1160  176.6050  136.2880 C   0  0  0  0  0  3  0  0  0  0  0  0
  186.3890  177.7220  137.5460 C   0  0  0  0  0  0  0  0  0  0  0  0
  184.0050  177.2990  137.2620 O   0  0  0  0  0  0  0  0  0  0  0  0
  183.0140  175.2850  136.2950 N   0  0  0  0  0  1  0  0  0  0  0  0
  183.1930  176.1650  137.3990 C   0  0  0  0  0  0  0  0  0  0  0  0
  182.6150  175.9140  138.4910 O   0  0  0  0  0  0  0  0  0  0  0  0
  188.6250  178.4350  140.8060 C   0  0  0  0  0  2  0  0  0  0  0  0
  189.1540  177.3050  139.9740 C   0  0  0  0  0  3  0  0  0  0  0  0
  190.4200  177.2950  139.5560 C   0  0  0  0  0  3  0  0  0  0  0  0
  190.9650  176.1380  138.7780 C   0  0  0  0  0  2  0  0  0  0  0  0
  192.0520  176.6060  137.8210 C   0  0  0  0  0  2  0  0  0  0  0  0
  193.2480  175.6620  137.8760 C   0  0  0  0  0  2  0  0  0  0  0  0
  193.2410  174.7540  136.7370 N   0  0  0  0  0  2  0  0  0  0  0  0
  192.7000  175.4790  135.5950 C   0  0  0  0  0  2  0  0  0  0  0  0
  192.7440  174.6140  134.3480 C   0  0  0  0  0  2  0  0  0  0  0  0
  192.4430  173.2330  134.6910 N   0  0  0  0  0  1  0  0  0  0  0  0
  1 38  1  6  0  0  0
  1 21  1  0  0  0  0
  1  2  1  0  0  0  0
  3  2  1  6  0  0  0
  3  8  1  0  0  0  0
  4  5  1  1  0  0  0
  4  3  1  0  0  0  0
  4  7  1  0  0  0  0
  7  6  2  0  0  0  0
  9 18  1  0  0  0  0
 10 12  2  0  0  0  0
 11 13  2  0  0  0  0
 12 15  1  0  0  0  0
 13 14  1  0  0  0  0
 15 14  2  0  0  0  0
 16  8  1  6  0  0  0
 16 11  1  0  0  0  0
 16 12  1  0  0  0  0
 17  9  2  0  0  0  0
 17 11  1  0  0  0  0
 18 13  1  0  0  0  0
 19  9  1  0  0  0  0
 20 19  1  0  0  0  0
 22 21  1  0  0  0  0
 23 24  2  0  0  0  0
 23 22  1  0  0  0  0
 25 26  1  1  0  0  0
 25 23  1  0  0  0  0
 27 34  1  6  0  0  0
 27 25  1  0  0  0  0
 28 30  1  0  0  0  0
 29 32  1  0  0  0  0
 29 28  2  0  0  0  0
 30 33  2  0  0  0  0
 31 33  1  0  0  0  0
 32 31  2  0  0  0  0
 33 27  1  0  0  0  0
 34 36  1  0  0  0  0
 35 36  1  0  0  0  0
 36 37  2  0  0  0  0
 39 38  1  0  0  0  0
 40 39  2  0  0  0  0
 41 40  1  0  0  0  0
 42 43  1  0  0  0  0
 42 41  1  0  0  0  0
 44 43  1  0  0  0  0
 45 44  1  0  0  0  0
 46 47  1  0  0  0  0
 46 45  1  0  0  0  0
M  END
>  <MODEL>
2

>  <REMARK>
 VINA RESULT:      -7.6      1.507      1.963
  Name = 
  23 active torsions:
  status: ('A' for Active; 'I' for Inactive)
    1  A    between atoms: C_1  and  C_4
    2  A    between atoms: C_2  and  C_12
    3  A    between atoms: C_2  and  O_22
    4  A    between atoms: C_2  and  C_41
    5  A    between atoms: N_3  and  C_19
    6  A    between atoms: N_3  and  C_33
    7  A    between atoms: C_5  and  C_6
    8  A    between atoms: C_6  and  C_30
    9  A    between atoms: C_8  and  C_25
   10  A    between atoms: C_8  and  C_34
   11  A    between atoms: C_10  and  C_19
   12  A    between atoms: C_10  and  C_47
   13  A    between atoms: C_12  and  C_36
   14  A    between atoms: C_16  and  C_33
   15  A    between atoms: C_17  and  C_30
   16  A    between atoms: C_17  and  C_31
   17  A    between atoms: O_22  and  C_26
   18  A    between atoms: C_25  and  C_35
   19  A    between atoms: C_25  and  C_40
   20  A    between atoms: C_30  and  C_35
   21  A    between atoms: C_31  and  C_36
   22  A    between atoms: C_40  and  C_45
   23  A    between atoms: C_42  and  C_47
                            x       y       z     vdW  Elec       q    Type
                         _______ _______ _______ _____ _____    ______ ____

>  <TORSDO>
F 23

$$$$
=
 OpenBabel10222422083D

 47 49  0  0  1  0  0  0  0  0999 V2000
  188.8680  177.4620  139.8940 C   0  0  2  0  0  3  0  0  0  0  0  0
  188.8850  178.5480  138.8110 C   0  0  0  0  0  2  0  0  0  0  0  0
  187.6350  178.5030  137.9220 C   0  0  1  0  0  3  0  0  0  0  0  0
  187.9440  177.7880  136.5860 C   0  0  1  0  0  3  0  0  0  0  0  0
  189.3580  178.0230  136.0710 C   0  0  0  0  0  1  0  0  0  0  0  0
  188.2540  175.5230  135.9390 O   0  0  0  0  0  0  0  0  0  0  0  0
  187.6830  176.3120  136.6800 C   0  0  0  0  0  3  0  0  0  0  0  0
  186.5220  177.8410  138.7370 C   0  0  0  0  0  2  0  0  0  0  0  0
  184.3760  178.8600  142.2970 C   0  0  0  0  0  0  0  0  0  0  0  0
  184.3530  177.4240  136.7130 O   0  0  0  0  0  0  0  0  0  0  0  0
  184.6280  178.6670  140.1430 C   0  0  0  0  0  0  0  0  0  0  0  0
  184.0580  177.8860  137.8460 C   0  0  0  0  0  0  0  0  0  0  0  0
  183.3040  178.5970  140.4800 C   0  0  0  0  0  0  0  0  0  0  0  0
  182.2560  178.3080  139.4900 C   0  0  0  0  0  3  0  0  0  0  0  0
  182.6220  177.9620  138.2460 C   0  0  0  0  0  3  0  0  0  0  0  0
  185.1330  178.4980  138.7410 C   0  0  2  0  0  3  0  0  0  0  0  0
  185.3450  178.8390  141.3030 C   0  0  0  0  0  3  0  0  0  0  0  0
  183.1260  178.6880  141.8100 N   0  0  0  0  0  2  0  0  0  0  0  0
  184.7150  178.7850  143.7570 C   0  0  0  0  0  2  0  0  0  0  0  0
  183.4710  178.9370  144.6230 C   0  0  0  0  0  1  0  0  0  0  0  0
  189.0540  178.0490  141.2990 C   0  0  0  0  0  2  0  0  0  0  0  0
  188.6730  177.0870  142.4120 C   0  0  0  0  0  2  0  0  0  0  0  0
  189.8500  176.6760  143.2480 C   0  0  0  0  0  0  0  0  0  0  0  0
  190.4470  175.6490  142.9600 O   0  0  0  0  0  0  0  0  0  0  0  0
  190.3930  177.5860  144.3200 C   0  0  2  0  0  3  0  0  0  0  0  0
  191.7070  177.9400  144.0090 O   0  0  0  0  0  1  0  0  0  0  0  0
  190.3110  176.9360  145.7110 C   0  0  2  0  0  3  0  0  0  0  0  0
  186.8850  178.1200  146.6750 C   0  0  0  0  0  3  0  0  0  0  0  0
  187.0420  178.4290  148.0250 C   0  0  0  0  0  3  0  0  0  0  0  0
  187.9230  177.6190  145.9590 N   0  0  0  0  0  0  0  0  0  0  0  0
  189.3410  177.7020  147.8810 C   0  0  0  0  0  3  0  0  0  0  0  0
  188.2820  178.2220  148.6280 C   0  0  0  0  0  3  0  0  0  0  0  0
  189.1420  177.3960  146.5330 C   0  0  0  0  0  0  0  0  0  0  0  0
  191.5460  177.0060  146.4380 O   0  0  0  0  0  0  0  0  0  0  0  0
  192.8420  175.9010  148.1920 N   0  0  0  0  0  1  0  0  0  0  0  0
  192.2700  175.8930  146.8880 C   0  0  0  0  0  0  0  0  0  0  0  0
  192.4240  174.8820  146.1510 O   0  0  0  0  0  0  0  0  0  0  0  0
  189.8480  176.3420  139.5670 C   0  0  0  0  0  2  0  0  0  0  0  0
  191.0710  176.8540  138.8670 C   0  0  0  0  0  3  0  0  0  0  0  0
  191.8900  176.0230  138.2210 C   0  0  0  0  0  3  0  0  0  0  0  0
  193.0770  176.5400  137.4700 C   0  0  0  0  0  2  0  0  0  0  0  0
  193.8620  175.3900  136.8580 C   0  0  0  0  0  2  0  0  0  0  0  0
  194.4620  174.5150  137.9530 C   0  0  0  0  0  2  0  0  0  0  0  0
  195.8750  174.8200  138.1390 N   0  0  0  0  0  2  0  0  0  0  0  0
  196.6370  173.9450  137.2600 C   0  0  0  0  0  2  0  0  0  0  0  0
  197.0450  174.6840  135.9980 C   0  0  0  0  0  2  0  0  0  0  0  0
  197.7540  175.9060  136.3460 N   0  0  0  0  0  1  0  0  0  0  0  0
  1  2  1  6  0  0  0
  1 21  1  0  0  0  0
  3  8  1  1  0  0  0
  3  2  1  0  0  0  0
  4  5  1  1  0  0  0
  4  7  1  0  0  0  0
  4  3  1  0  0  0  0
  6  7  2  0  0  0  0
  9 19  1  0  0  0  0
 10 12  2  0  0  0  0
 11 13  2  0  0  0  0
 11 17  1  0  0  0  0
 12 15  1  0  0  0  0
 12 16  1  0  0  0  0
 13 18  1  0  0  0  0
 14 13  1  0  0  0  0
 15 14  2  0  0  0  0
 16  8  1  1  0  0  0
 16 11  1  0  0  0  0
 17  9  2  0  0  0  0
 18  9  1  0  0  0  0
 19 20  1  0  0  0  0
 21 22  1  0  0  0  0
 22 23  1  0  0  0  0
 23 25  1  0  0  0  0
 24 23  2  0  0  0  0
 25 26  1  6  0  0  0
 25 27  1  0  0  0  0
 27 34  1  1  0  0  0
 27 33  1  0  0  0  0
 28 29  1  0  0  0  0
 29 32  2  0  0  0  0
 30 33  1  0  0  0  0
 30 28  2  0  0  0  0
 31 32  1  0  0  0  0
 33 31  2  0  0  0  0
 34 36  1  0  0  0  0
 36 35  1  0  0  0  0
 37 36  2  0  0  0  0
 38  1  1  0  0  0  0
 39 38  1  0  0  0  0
 40 39  2  0  0  0  0
 41 40  1  0  0  0  0
 42 41  1  0  0  0  0
 42 43  1  0  0  0  0
 43 44  1  0  0  0  0
 45 44  1  0  0  0  0
 46 47  1  0  0  0  0
 46 45  1  0  0  0  0
M  END
>  <MODEL>
3

>  <REMARK>
 VINA RESULT:      -7.3      2.325      8.160
  Name = 
  23 active torsions:
  status: ('A' for Active; 'I' for Inactive)
    1  A    between atoms: C_1  and  C_4
    2  A    between atoms: C_2  and  C_12
    3  A    between atoms: C_2  and  O_22
    4  A    between atoms: C_2  and  C_41
    5  A    between atoms: N_3  and  C_19
    6  A    between atoms: N_3  and  C_33
    7  A    between atoms: C_5  and  C_6
    8  A    between atoms: C_6  and  C_30
    9  A    between atoms: C_8  and  C_25
   10  A    between atoms: C_8  and  C_34
   11  A    between atoms: C_10  and  C_19
   12  A    between atoms: C_10  and  C_47
   13  A    between atoms: C_12  and  C_36
   14  A    between atoms: C_16  and  C_33
   15  A    between atoms: C_17  and  C_30
   16  A    between atoms: C_17  and  C_31
   17  A    between atoms: O_22  and  C_26
   18  A    between atoms: C_25  and  C_35
   19  A    between atoms: C_25  and  C_40
   20  A    between atoms: C_30  and  C_35
   21  A    between atoms: C_31  and  C_36
   22  A    between atoms: C_40  and  C_45
   23  A    between atoms: C_42  and  C_47
                            x       y       z     vdW  Elec       q    Type
                         _______ _______ _______ _____ _____    ______ ____

>  <TORSDO>
F 23

$$$$
=
 OpenBabel10222422083D

 47 49  0  0  1  0  0  0  0  0999 V2000
  189.9830  177.2070  141.6810 C   0  0  2  0  0  3  0  0  0  0  0  0
  190.0540  176.0210  142.6510 C   0  0  0  0  0  2  0  0  0  0  0  0
  190.0060  176.4660  144.1190 C   0  0  1  0  0  3  0  0  0  0  0  0
  191.4140  176.8830  144.6060 C   0  0  1  0  0  3  0  0  0  0  0  0
  191.6170  178.3890  144.7000 C   0  0  0  0  0  1  0  0  0  0  0  0
  192.0920  176.9280  146.8830 O   0  0  0  0  0  0  0  0  0  0  0  0
  191.7480  176.2480  145.9260 C   0  0  0  0  0  3  0  0  0  0  0  0
  188.9590  177.5770  144.2220 C   0  0  0  0  0  2  0  0  0  0  0  0
  184.9130  178.4360  143.1230 C   0  0  0  0  0  0  0  0  0  0  0  0
  188.9440  177.8540  147.2050 O   0  0  0  0  0  0  0  0  0  0  0  0
  186.4860  177.8150  144.4950 C   0  0  0  0  0  0  0  0  0  0  0  0
  187.8540  177.8980  146.5760 C   0  0  0  0  0  0  0  0  0  0  0  0
  185.4320  178.3480  145.1830 C   0  0  0  0  0  0  0  0  0  0  0  0
  185.4690  178.5560  146.6380 C   0  0  0  0  0  3  0  0  0  0  0  0
  186.6240  178.3510  147.2900 C   0  0  0  0  0  3  0  0  0  0  0  0
  187.7560  177.3590  145.1510 C   0  0  2  0  0  3  0  0  0  0  0  0
  186.1760  177.8590  143.1560 C   0  0  0  0  0  3  0  0  0  0  0  0
  184.4570  178.7630  144.3540 N   0  0  0  0  0  2  0  0  0  0  0  0
  184.2730  178.9050  141.8500 C   0  0  0  0  0  2  0  0  0  0  0  0
  183.6090  177.7530  141.1070 C   0  0  0  0  0  1  0  0  0  0  0  0
  188.7610  177.1220  140.7580 C   0  0  0  0  0  2  0  0  0  0  0  0
  188.3150  178.4700  140.2170 C   0  0  0  0  0  2  0  0  0  0  0  0
  187.4580  178.3460  138.9910 C   0  0  0  0  0  0  0  0  0  0  0  0
  186.2680  178.6100  139.0750 O   0  0  0  0  0  0  0  0  0  0  0  0
  188.0710  178.0590  137.6450 C   0  0  2  0  0  3  0  0  0  0  0  0
  187.8330  179.1330  136.7860 O   0  0  0  0  0  1  0  0  0  0  0  0
  187.5390  176.7460  137.0460 C   0  0  2  0  0  3  0  0  0  0  0  0
  189.9630  175.6690  134.3940 C   0  0  0  0  0  3  0  0  0  0  0  0
  190.3300  174.3940  134.8220 C   0  0  0  0  0  3  0  0  0  0  0  0
  189.0970  176.4170  135.1250 N   0  0  0  0  0  0  0  0  0  0  0  0
  188.9070  174.6780  136.7540 C   0  0  0  0  0  3  0  0  0  0  0  0
  189.7920  173.8960  136.0090 C   0  0  0  0  0  3  0  0  0  0  0  0
  188.5690  175.9540  136.2960 C   0  0  0  0  0  0  0  0  0  0  0  0
  186.3320  176.9210  136.2890 O   0  0  0  0  0  0  0  0  0  0  0  0
  184.3070  176.2630  137.4880 N   0  0  0  0  0  1  0  0  0  0  0  0
  185.2000  176.1010  136.3930 C   0  0  0  0  0  0  0  0  0  0  0  0
  184.9630  175.2170  135.5250 O   0  0  0  0  0  0  0  0  0  0  0  0
  191.2990  177.3890  140.9340 C   0  0  0  0  0  2  0  0  0  0  0  0
  191.2550  176.7780  139.5650 C   0  0  0  0  0  3  0  0  0  0  0  0
  192.3450  176.7350  138.7980 C   0  0  0  0  0  3  0  0  0  0  0  0
  192.3170  176.0700  137.4570 C   0  0  0  0  0  2  0  0  0  0  0  0
  193.7200  175.9910  136.8740 C   0  0  0  0  0  2  0  0  0  0  0  0
  194.5290  174.9100  137.5810 C   0  0  0  0  0  2  0  0  0  0  0  0
  193.9830  173.5890  137.2980 N   0  0  0  0  0  2  0  0  0  0  0  0
  194.4270  173.2010  135.9660 C   0  0  0  0  0  2  0  0  0  0  0  0
  193.3920  172.3120  135.2990 C   0  0  0  0  0  2  0  0  0  0  0  0
  193.2990  171.0440  136.0060 N   0  0  0  0  0  1  0  0  0  0  0  0
  1 21  1  6  0  0  0
  1  2  1  0  0  0  0
  3  2  1  6  0  0  0
  3  8  1  0  0  0  0
  3  4  1  0  0  0  0
  4  5  1  1  0  0  0
  4  7  1  0  0  0  0
  7  6  2  0  0  0  0
  9 17  2  0  0  0  0
  9 18  1  0  0  0  0
 11 16  1  0  0  0  0
 11 13  2  0  0  0  0
 12 10  2  0  0  0  0
 12 15  1  0  0  0  0
 13 14  1  0  0  0  0
 14 15  2  0  0  0  0
 16  8  1  6  0  0  0
 16 12  1  0  0  0  0
 17 11  1  0  0  0  0
 18 13  1  0  0  0  0
 19  9  1  0  0  0  0
 20 19  1  0  0  0  0
 22 21  1  0  0  0  0
 23 24  2  0  0  0  0
 23 22  1  0  0  0  0
 25 26  1  6  0  0  0
 25 23  1  0  0  0  0
 27 34  1  6  0  0  0
 27 25  1  0  0  0  0
 28 29  2  0  0  0  0
 28 30  1  0  0  0  0
 29 32  1  0  0  0  0
 30 33  2  0  0  0  0
 32 31  2  0  0  0  0
 33 31  1  0  0  0  0
 33 27  1  0  0  0  0
 34 36  1  0  0  0  0
 36 35  1  0  0  0  0
 37 36  2  0  0  0  0
 38  1  1  0  0  0  0
 39 38  1  0  0  0  0
 40 39  2  0  0  0  0
 41 40  1  0  0  0  0
 42 41  1  0  0  0  0
 42 43  1  0  0  0  0
 44 43  1  0  0  0  0
 45 44  1  0  0  0  0
 46 45  1  0  0  0  0
 46 47  1  0  0  0  0
M  END
>  <MODEL>
4

>  <REMARK>
 VINA RESULT:      -7.1      2.335      3.336
  Name = 
  23 active torsions:
  status: ('A' for Active; 'I' for Inactive)
    1  A    between atoms: C_1  and  C_4
    2  A    between atoms: C_2  and  C_12
    3  A    between atoms: C_2  and  O_22
    4  A    between atoms: C_2  and  C_41
    5  A    between atoms: N_3  and  C_19
    6  A    between atoms: N_3  and  C_33
    7  A    between atoms: C_5  and  C_6
    8  A    between atoms: C_6  and  C_30
    9  A    between atoms: C_8  and  C_25
   10  A    between atoms: C_8  and  C_34
   11  A    between atoms: C_10  and  C_19
   12  A    between atoms: C_10  and  C_47
   13  A    between atoms: C_12  and  C_36
   14  A    between atoms: C_16  and  C_33
   15  A    between atoms: C_17  and  C_30
   16  A    between atoms: C_17  and  C_31
   17  A    between atoms: O_22  and  C_26
   18  A    between atoms: C_25  and  C_35
   19  A    between atoms: C_25  and  C_40
   20  A    between atoms: C_30  and  C_35
   21  A    between atoms: C_31  and  C_36
   22  A    between atoms: C_40  and  C_45
   23  A    between atoms: C_42  and  C_47
                            x       y       z     vdW  Elec       q    Type
                         _______ _______ _______ _____ _____    ______ ____

>  <TORSDO>
F 23

$$$$
=
 OpenBabel10222422083D

 47 49  0  0  1  0  0  0  0  0999 V2000
  186.5790  178.2440  142.2430 C   0  0  2  0  0  3  0  0  0  0  0  0
  187.8270  179.1320  142.3340 C   0  0  0  0  0  2  0  0  0  0  0  0
  189.0790  178.4350  141.7850 C   0  0  1  0  0  3  0  0  0  0  0  0
  189.8330  177.7020  142.9190 C   0  0  1  0  0  3  0  0  0  0  0  0
  189.7340  176.1840  142.8510 C   0  0  0  0  0  1  0  0  0  0  0  0
  191.6770  178.9200  143.7930 O   0  0  0  0  0  0  0  0  0  0  0  0
  191.2790  178.1080  142.9690 C   0  0  0  0  0  3  0  0  0  0  0  0
  188.6250  177.5170  140.6470 C   0  0  0  0  0  2  0  0  0  0  0  0
  185.9900  177.6700  137.2780 C   0  0  0  0  0  0  0  0  0  0  0  0
  191.2770  176.8450  139.4260 O   0  0  0  0  0  0  0  0  0  0  0  0
  187.9330  177.7590  138.2580 C   0  0  0  0  0  0  0  0  0  0  0  0
  190.3030  177.1120  138.6750 C   0  0  0  0  0  0  0  0  0  0  0  0
  188.0700  177.3660  136.9550 C   0  0  0  0  0  0  0  0  0  0  0  0
  189.3640  176.9570  136.3900 C   0  0  0  0  0  3  0  0  0  0  0  0
  190.4160  176.8300  137.2140 C   0  0  0  0  0  3  0  0  0  0  0  0
  189.0810  177.8500  139.2180 C   0  0  2  0  0  3  0  0  0  0  0  0
  186.5940  177.9640  138.4940 C   0  0  0  0  0  2  0  0  0  0  0  0
  186.8780  177.2780  136.3360 N   0  0  0  0  0  0  0  0  0  0  0  0
  184.5040  177.5210  137.1300 C   0  0  0  0  0  2  0  0  0  0  0  0
  184.1520  176.3060  136.2820 C   0  0  0  0  0  1  0  0  0  0  0  0
  185.3310  179.0460  141.8530 C   0  0  0  0  0  2  0  0  0  0  0  0
  184.0670  178.2050  141.7920 C   0  0  0  0  0  2  0  0  0  0  0  0
  182.9540  178.7750  142.6210 C   0  0  0  0  0  0  0  0  0  0  0  0
  183.1990  179.1520  143.7570 O   0  0  0  0  0  0  0  0  0  0  0  0
  181.5950  179.0310  142.0220 C   0  0  2  0  0  3  0  0  0  0  0  0
  180.6140  178.4350  142.8170 O   0  0  0  0  0  1  0  0  0  0  0  0
  181.5090  178.5280  140.5710 C   0  0  2  0  0  3  0  0  0  0  0  0
  179.9820  181.5900  139.0340 C   0  0  0  0  0  3  0  0  0  0  0  0
  180.3130  181.4470  137.6870 C   0  0  0  0  0  3  0  0  0  0  0  0
  180.3930  180.6700  139.9440 N   0  0  0  0  0  0  0  0  0  0  0  0
  181.4880  179.4080  138.2350 C   0  0  0  0  0  3  0  0  0  0  0  0
  181.0670  180.3440  137.2870 C   0  0  0  0  0  3  0  0  0  0  0  0
  181.1430  179.5900  139.5760 C   0  0  0  0  0  0  0  0  0  0  0  0
  180.7000  177.3510  140.4310 O   0  0  0  0  0  0  0  0  0  0  0  0
  182.4940  175.9000  139.6260 N   0  0  0  0  0  1  0  0  0  0  0  0
  181.1070  176.1770  139.7830 C   0  0  0  0  0  0  0  0  0  0  0  0
  180.2580  175.3600  139.3340 O   0  0  0  0  0  0  0  0  0  0  0  0
  186.4000  177.4140  143.5080 C   0  0  0  0  0  2  0  0  0  0  0  0
  186.5330  178.2460  144.7480 C   0  0  0  0  0  3  0  0  0  0  0  0
  186.5700  177.6780  145.9540 C   0  0  0  0  0  3  0  0  0  0  0  0
  186.7650  178.5030  147.1880 C   0  0  0  0  0  2  0  0  0  0  0  0
  187.5100  177.7060  148.2480 C   0  0  0  0  0  2  0  0  0  0  0  0
  188.6090  176.8670  147.6060 C   0  0  0  0  0  2  0  0  0  0  0  0
  189.9080  177.5040  147.7740 N   0  0  0  0  0  2  0  0  0  0  0  0
  190.6870  177.2460  146.5700 C   0  0  0  0  0  2  0  0  0  0  0  0
  191.5930  176.0440  146.7720 C   0  0  0  0  0  2  0  0  0  0  0  0
  192.4540  176.2590  147.9240 N   0  0  0  0  0  1  0  0  0  0  0  0
  1 21  1  1  0  0  0
  1  2  1  0  0  0  0
  1 38  1  0  0  0  0
  3  8  1  6  0  0  0
  3  2  1  0  0  0  0
  3  4  1  0  0  0  0
  4  5  1  6  0  0  0
  4  7  1  0  0  0  0
  7  6  2  0  0  0  0
  9 17  1  0  0  0  0
 11 17  1  0  0  0  0
 11 16  1  0  0  0  0
 12 16  1  0  0  0  0
 12 10  2  0  0  0  0
 13 11  2  0  0  0  0
 14 13  1  0  0  0  0
 14 15  2  0  0  0  0
 15 12  1  0  0  0  0
 16  8  1  1  0  0  0
 18 13  1  0  0  0  0
 18  9  2  0  0  0  0
 19  9  1  0  0  0  0
 20 19  1  0  0  0  0
 22 21  1  0  0  0  0
 22 23  1  0  0  0  0
 23 24  2  0  0  0  0
 25 23  1  0  0  0  0
 25 26  1  1  0  0  0
 27 34  1  1  0  0  0
 27 25  1  0  0  0  0
 28 30  1  0  0  0  0
 29 28  2  0  0  0  0
 31 33  1  0  0  0  0
 32 29  1  0  0  0  0
 32 31  2  0  0  0  0
 33 30  2  0  0  0  0
 33 27  1  0  0  0  0
 35 36  1  0  0  0  0
 36 34  1  0  0  0  0
 37 36  2  0  0  0  0
 38 39  1  0  0  0  0
 39 40  2  0  0  0  0
 40 41  1  0  0  0  0
 41 42  1  0  0  0  0
 43 44  1  0  0  0  0
 43 42  1  0  0  0  0
 45 46  1  0  0  0  0
 45 44  1  0  0  0  0
 46 47  1  0  0  0  0
M  END
>  <MODEL>
5

>  <REMARK>
 VINA RESULT:      -6.7      2.800      7.023
  Name = 
  23 active torsions:
  status: ('A' for Active; 'I' for Inactive)
    1  A    between atoms: C_1  and  C_4
    2  A    between atoms: C_2  and  C_12
    3  A    between atoms: C_2  and  O_22
    4  A    between atoms: C_2  and  C_41
    5  A    between atoms: N_3  and  C_19
    6  A    between atoms: N_3  and  C_33
    7  A    between atoms: C_5  and  C_6
    8  A    between atoms: C_6  and  C_30
    9  A    between atoms: C_8  and  C_25
   10  A    between atoms: C_8  and  C_34
   11  A    between atoms: C_10  and  C_19
   12  A    between atoms: C_10  and  C_47
   13  A    between atoms: C_12  and  C_36
   14  A    between atoms: C_16  and  C_33
   15  A    between atoms: C_17  and  C_30
   16  A    between atoms: C_17  and  C_31
   17  A    between atoms: O_22  and  C_26
   18  A    between atoms: C_25  and  C_35
   19  A    between atoms: C_25  and  C_40
   20  A    between atoms: C_30  and  C_35
   21  A    between atoms: C_31  and  C_36
   22  A    between atoms: C_40  and  C_45
   23  A    between atoms: C_42  and  C_47
                            x       y       z     vdW  Elec       q    Type
                         _______ _______ _______ _____ _____    ______ ____

>  <TORSDO>
F 23

$$$$
=
 OpenBabel10222422083D

 47 49  0  0  1  0  0  0  0  0999 V2000
  187.1490  178.7970  140.7070 C   0  0  2  0  0  3  0  0  0  0  0  0
  188.1520  178.6060  141.8520 C   0  0  0  0  0  2  0  0  0  0  0  0
  188.4590  177.1250  142.1150 C   0  0  1  0  0  3  0  0  0  0  0  0
  189.9860  176.8970  142.2070 C   0  0  1  0  0  3  0  0  0  0  0  0
  190.3790  175.6050  142.9110 C   0  0  0  0  0  1  0  0  0  0  0  0
  191.7570  177.3990  140.7040 O   0  0  0  0  0  0  0  0  0  0  0  0
  190.6310  176.9440  140.8510 C   0  0  0  0  0  3  0  0  0  0  0  0
  187.6940  176.7210  143.3770 C   0  0  0  0  0  2  0  0  0  0  0  0
  189.9220  177.1470  147.0060 C   0  0  0  0  0  0  0  0  0  0  0  0
  185.0170  177.8750  144.0650 O   0  0  0  0  0  0  0  0  0  0  0  0
  188.3230  177.6420  145.6130 C   0  0  0  0  0  0  0  0  0  0  0  0
  185.9650  177.9860  144.8860 C   0  0  0  0  0  0  0  0  0  0  0  0
  187.9580  177.9550  146.8940 C   0  0  0  0  0  0  0  0  0  0  0  0
  186.6130  178.4420  147.2310 C   0  0  0  0  0  3  0  0  0  0  0  0
  185.6700  178.4440  146.2750 C   0  0  0  0  0  3  0  0  0  0  0  0
  187.4110  177.8000  144.4330 C   0  0  2  0  0  3  0  0  0  0  0  0
  189.5930  177.1170  145.6570 C   0  0  0  0  0  3  0  0  0  0  0  0
  188.9220  177.6330  147.7760 N   0  0  0  0  0  2  0  0  0  0  0  0
  191.1280  176.4450  147.5580 C   0  0  0  0  0  2  0  0  0  0  0  0
  192.0340  175.9410  146.4430 C   0  0  0  0  0  1  0  0  0  0  0  0
  185.7520  179.1610  141.2220 C   0  0  0  0  0  2  0  0  0  0  0  0
  184.6300  178.4410  140.4910 C   0  0  0  0  0  2  0  0  0  0  0  0
  184.0910  179.2330  139.3370 C   0  0  0  0  0  0  0  0  0  0  0  0
  184.5210  180.3610  139.1440 O   0  0  0  0  0  0  0  0  0  0  0  0
  183.1590  178.6030  138.3340 C   0  0  2  0  0  3  0  0  0  0  0  0
  181.9210  179.2460  138.3800 O   0  0  0  0  0  1  0  0  0  0  0  0
  183.0050  177.0910  138.5720 C   0  0  2  0  0  3  0  0  0  0  0  0
  185.5370  176.0470  136.0100 C   0  0  0  0  0  3  0  0  0  0  0  0
  185.4740  174.6560  136.0750 C   0  0  0  0  0  3  0  0  0  0  0  0
  184.7680  176.8090  136.8290 N   0  0  0  0  0  0  0  0  0  0  0  0
  183.8250  174.8530  137.8290 C   0  0  0  0  0  3  0  0  0  0  0  0
  184.6070  174.0580  136.9890 C   0  0  0  0  0  3  0  0  0  0  0  0
  183.9220  176.2440  137.7410 C   0  0  0  0  0  0  0  0  0  0  0  0
  181.6420  176.6470  138.5010 O   0  0  0  0  0  0  0  0  0  0  0  0
  180.4070  177.0600  140.5700 N   0  0  0  0  0  1  0  0  0  0  0  0
  180.9050  176.1570  139.5890 C   0  0  0  0  0  0  0  0  0  0  0  0
  180.6780  174.9230  139.7110 O   0  0  0  0  0  0  0  0  0  0  0  0
  187.1580  177.6020  139.7610 C   0  0  0  0  0  2  0  0  0  0  0  0
  187.9050  177.8950  138.4950 C   0  0  0  0  0  3  0  0  0  0  0  0
  188.5790  176.9350  137.8580 C   0  0  0  0  0  3  0  0  0  0  0  0
  189.2740  177.2130  136.5620 C   0  0  0  0  0  2  0  0  0  0  0  0
  190.5510  176.3930  136.4570 C   0  0  0  0  0  2  0  0  0  0  0  0
  190.8890  176.1220  134.9950 C   0  0  0  0  0  2  0  0  0  0  0  0
  192.2640  175.6600  134.8620 N   0  0  0  0  0  2  0  0  0  0  0  0
  192.8580  175.6430  136.1920 C   0  0  0  0  0  2  0  0  0  0  0  0
  194.1220  176.4850  136.2200 C   0  0  0  0  0  2  0  0  0  0  0  0
  195.2900  175.6240  136.3110 N   0  0  0  0  0  1  0  0  0  0  0  0
  1 38  1  1  0  0  0
  1 21  1  0  0  0  0
  1  2  1  0  0  0  0
  3  2  1  1  0  0  0
  3  4  1  0  0  0  0
  3  8  1  0  0  0  0
  4  5  1  6  0  0  0
  6  7  2  0  0  0  0
  7  4  1  0  0  0  0
  9 19  1  0  0  0  0
  9 18  1  0  0  0  0
 10 12  2  0  0  0  0
 11 17  1  0  0  0  0
 11 13  2  0  0  0  0
 12 15  1  0  0  0  0
 13 14  1  0  0  0  0
 13 18  1  0  0  0  0
 15 14  2  0  0  0  0
 16  8  1  6  0  0  0
 16 12  1  0  0  0  0
 16 11  1  0  0  0  0
 17  9  2  0  0  0  0
 20 19  1  0  0  0  0
 22 21  1  0  0  0  0
 23 22  1  0  0  0  0
 24 23  2  0  0  0  0
 25 26  1  1  0  0  0
 25 27  1  0  0  0  0
 25 23  1  0  0  0  0
 27 34  1  6  0  0  0
 28 29  2  0  0  0  0
 28 30  1  0  0  0  0
 29 32  1  0  0  0  0
 30 33  2  0  0  0  0
 32 31  2  0  0  0  0
 33 31  1  0  0  0  0
 33 27  1  0  0  0  0
 34 36  1  0  0  0  0
 36 37  2  0  0  0  0
 36 35  1  0  0  0  0
 39 38  1  0  0  0  0
 40 39  2  0  0  0  0
 41 40  1  0  0  0  0
 42 41  1  0  0  0  0
 43 42  1  0  0  0  0
 44 43  1  0  0  0  0
 44 45  1  0  0  0  0
 45 46  1  0  0  0  0
 46 47  1  0  0  0  0
M  END
>  <MODEL>
6

>  <REMARK>
 VINA RESULT:      -6.6      2.021      3.307
  Name = 
  23 active torsions:
  status: ('A' for Active; 'I' for Inactive)
    1  A    between atoms: C_1  and  C_4
    2  A    between atoms: C_2  and  C_12
    3  A    between atoms: C_2  and  O_22
    4  A    between atoms: C_2  and  C_41
    5  A    between atoms: N_3  and  C_19
    6  A    between atoms: N_3  and  C_33
    7  A    between atoms: C_5  and  C_6
    8  A    between atoms: C_6  and  C_30
    9  A    between atoms: C_8  and  C_25
   10  A    between atoms: C_8  and  C_34
   11  A    between atoms: C_10  and  C_19
   12  A    between atoms: C_10  and  C_47
   13  A    between atoms: C_12  and  C_36
   14  A    between atoms: C_16  and  C_33
   15  A    between atoms: C_17  and  C_30
   16  A    between atoms: C_17  and  C_31
   17  A    between atoms: O_22  and  C_26
   18  A    between atoms: C_25  and  C_35
   19  A    between atoms: C_25  and  C_40
   20  A    between atoms: C_30  and  C_35
   21  A    between atoms: C_31  and  C_36
   22  A    between atoms: C_40  and  C_45
   23  A    between atoms: C_42  and  C_47
                            x       y       z     vdW  Elec       q    Type
                         _______ _______ _______ _____ _____    ______ ____

>  <TORSDO>
F 23

$$$$
=
 OpenBabel10222422083D

 47 49  0  0  1  0  0  0  0  0999 V2000
  188.8870  177.6480  141.8480 C   0  0  2  0  0  3  0  0  0  0  0  0
  189.4780  176.3580  142.4320 C   0  0  0  0  0  2  0  0  0  0  0  0
  189.6610  176.4390  143.9540 C   0  0  1  0  0  3  0  0  0  0  0  0
  191.1570  176.6010  144.3130 C   0  0  1  0  0  3  0  0  0  0  0  0
  191.9860  175.3420  144.1000 C   0  0  0  0  0  1  0  0  0  0  0  0
  191.9000  178.8460  144.0800 O   0  0  0  0  0  0  0  0  0  0  0  0
  191.7800  177.7440  143.5630 C   0  0  0  0  0  3  0  0  0  0  0  0
  188.7740  177.5800  144.4570 C   0  0  0  0  0  2  0  0  0  0  0  0
  184.7570  178.9420  145.0280 C   0  0  0  0  0  0  0  0  0  0  0  0
  189.8790  177.4860  147.2400 O   0  0  0  0  0  0  0  0  0  0  0  0
  186.6240  178.0120  145.6560 C   0  0  0  0  0  0  0  0  0  0  0  0
  188.6510  177.7090  147.0720 C   0  0  0  0  0  0  0  0  0  0  0  0
  185.9720  178.5520  146.7290 C   0  0  0  0  0  0  0  0  0  0  0  0
  186.5620  178.5750  148.0760 C   0  0  0  0  0  3  0  0  0  0  0  0
  187.8360  178.1830  148.2280 C   0  0  0  0  0  3  0  0  0  0  0  0
  187.9720  177.3620  145.7490 C   0  0  2  0  0  3  0  0  0  0  0  0
  185.8580  178.2500  144.5390 C   0  0  0  0  0  3  0  0  0  0  0  0
  184.8270  179.1550  146.3620 N   0  0  0  0  0  2  0  0  0  0  0  0
  183.7670  179.6220  144.1300 C   0  0  0  0  0  2  0  0  0  0  0  0
  182.5220  178.7680  143.9300 C   0  0  0  0  0  1  0  0  0  0  0  0
  187.4000  177.4950  141.5060 C   0  0  0  0  0  2  0  0  0  0  0  0
  186.7950  178.7330  140.8660 C   0  0  0  0  0  2  0  0  0  0  0  0
  186.1910  178.4510  139.5220 C   0  0  0  0  0  0  0  0  0  0  0  0
  186.8510  177.8390  138.6950 O   0  0  0  0  0  0  0  0  0  0  0  0
  184.7450  178.7690  139.2420 C   0  0  2  0  0  3  0  0  0  0  0  0
  184.3800  179.9280  139.9280 O   0  0  0  0  0  1  0  0  0  0  0  0
  183.8230  177.5950  139.6130 C   0  0  2  0  0  3  0  0  0  0  0  0
  182.6880  174.6810  137.5410 C   0  0  0  0  0  3  0  0  0  0  0  0
  182.7660  175.1860  136.2440 C   0  0  0  0  0  3  0  0  0  0  0  0
  182.9990  175.4660  138.6050 N   0  0  0  0  0  0  0  0  0  0  0  0
  183.4850  177.3050  137.1560 C   0  0  0  0  0  3  0  0  0  0  0  0
  183.1730  176.5060  136.0540 C   0  0  0  0  0  3  0  0  0  0  0  0
  183.3860  176.7660  138.4420 C   0  0  0  0  0  0  0  0  0  0  0  0
  182.7190  177.9870  140.4420 O   0  0  0  0  0  0  0  0  0  0  0  0
  180.3700  177.3390  140.2500 N   0  0  0  0  0  1  0  0  0  0  0  0
  181.4250  178.2530  139.9730 C   0  0  0  0  0  0  0  0  0  0  0  0
  181.1820  179.2950  139.3060 O   0  0  0  0  0  0  0  0  0  0  0  0
  189.7290  178.1630  140.6870 C   0  0  0  0  0  2  0  0  0  0  0  0
  190.5900  177.0870  140.0970 C   0  0  0  0  0  3  0  0  0  0  0  0
  190.6590  176.9100  138.7760 C   0  0  0  0  0  3  0  0  0  0  0  0
  191.5660  175.8760  138.1840 C   0  0  0  0  0  2  0  0  0  0  0  0
  192.9660  176.4410  137.9970 C   0  0  0  0  0  2  0  0  0  0  0  0
  193.4330  176.2350  136.5600 C   0  0  0  0  0  2  0  0  0  0  0  0
  194.1810  174.9920  136.4350 N   0  0  0  0  0  2  0  0  0  0  0  0
  194.6650  174.6290  137.7600 C   0  0  0  0  0  2  0  0  0  0  0  0
  194.8890  173.1300  137.8520 C   0  0  0  0  0  2  0  0  0  0  0  0
  196.1890  172.8590  138.4450 N   0  0  0  0  0  1  0  0  0  0  0  0
  1 38  1  6  0  0  0
  1  2  1  0  0  0  0
  3  2  1  6  0  0  0
  3  4  1  0  0  0  0
  3  8  1  0  0  0  0
  4  5  1  6  0  0  0
  7  6  2  0  0  0  0
  7  4  1  0  0  0  0
  9 18  1  0  0  0  0
 11 16  1  0  0  0  0
 11 13  2  0  0  0  0
 12 10  2  0  0  0  0
 12 15  1  0  0  0  0
 13 14  1  0  0  0  0
 14 15  2  0  0  0  0
 16  8  1  6  0  0  0
 16 12  1  0  0  0  0
 17  9  2  0  0  0  0
 17 11  1  0  0  0  0
 18 13  1  0  0  0  0
 19  9  1  0  0  0  0
 20 19  1  0  0  0  0
 21  1  1  0  0  0  0
 22 21  1  0  0  0  0
 23 22  1  0  0  0  0
 24 23  2  0  0  0  0
 25 23  1  0  0  0  0
 25 27  1  0  0  0  0
 25 26  1  1  0  0  0
 27 34  1  6  0  0  0
 28 30  1  0  0  0  0
 29 28  2  0  0  0  0
 31 33  1  0  0  0  0
 32 29  1  0  0  0  0
 32 31  2  0  0  0  0
 33 30  2  0  0  0  0
 33 27  1  0  0  0  0
 36 35  1  0  0  0  0
 36 34  1  0  0  0  0
 37 36  2  0  0  0  0
 39 38  1  0  0  0  0
 40 39  2  0  0  0  0
 41 40  1  0  0  0  0
 42 41  1  0  0  0  0
 43 42  1  0  0  0  0
 44 43  1  0  0  0  0
 44 45  1  0  0  0  0
 45 46  1  0  0  0  0
 46 47  1  0  0  0  0
M  END
>  <MODEL>
7

>  <REMARK>
 VINA RESULT:      -6.4      1.538      1.825
  Name = 
  23 active torsions:
  status: ('A' for Active; 'I' for Inactive)
    1  A    between atoms: C_1  and  C_4
    2  A    between atoms: C_2  and  C_12
    3  A    between atoms: C_2  and  O_22
    4  A    between atoms: C_2  and  C_41
    5  A    between atoms: N_3  and  C_19
    6  A    between atoms: N_3  and  C_33
    7  A    between atoms: C_5  and  C_6
    8  A    between atoms: C_6  and  C_30
    9  A    between atoms: C_8  and  C_25
   10  A    between atoms: C_8  and  C_34
   11  A    between atoms: C_10  and  C_19
   12  A    between atoms: C_10  and  C_47
   13  A    between atoms: C_12  and  C_36
   14  A    between atoms: C_16  and  C_33
   15  A    between atoms: C_17  and  C_30
   16  A    between atoms: C_17  and  C_31
   17  A    between atoms: O_22  and  C_26
   18  A    between atoms: C_25  and  C_35
   19  A    between atoms: C_25  and  C_40
   20  A    between atoms: C_30  and  C_35
   21  A    between atoms: C_31  and  C_36
   22  A    between atoms: C_40  and  C_45
   23  A    between atoms: C_42  and  C_47
                            x       y       z     vdW  Elec       q    Type
                         _______ _______ _______ _____ _____    ______ ____

>  <TORSDO>
F 23

$$$$
=
 OpenBabel10222422083D

 47 49  0  0  1  0  0  0  0  0999 V2000
  188.8140  177.5450  142.0010 C   0  0  2  0  0  3  0  0  0  0  0  0
  189.3670  176.2410  142.5880 C   0  0  0  0  0  2  0  0  0  0  0  0
  189.6360  176.3490  144.0950 C   0  0  1  0  0  3  0  0  0  0  0  0
  191.1500  176.5210  144.3650 C   0  0  1  0  0  3  0  0  0  0  0  0
  191.9780  175.2790  144.0640 C   0  0  0  0  0  1  0  0  0  0  0  0
  191.8180  178.7900  144.1430 O   0  0  0  0  0  0  0  0  0  0  0  0
  191.7120  177.6930  143.6130 C   0  0  0  0  0  3  0  0  0  0  0  0
  188.7770  177.4970  144.6280 C   0  0  0  0  0  2  0  0  0  0  0  0
  184.7890  178.8580  145.3800 C   0  0  0  0  0  0  0  0  0  0  0  0
  190.0210  177.4500  147.3530 O   0  0  0  0  0  0  0  0  0  0  0  0
  186.6880  177.9430  145.9270 C   0  0  0  0  0  0  0  0  0  0  0  0
  188.7860  177.6670  147.2430 C   0  0  0  0  0  0  0  0  0  0  0  0
  186.0890  178.4980  147.0240 C   0  0  0  0  0  0  0  0  0  0  0  0
  186.7460  178.5430  148.3380 C   0  0  0  0  0  3  0  0  0  0  0  0
  188.0280  178.1570  148.4320 C   0  0  0  0  0  3  0  0  0  0  0  0
  188.0420  177.2980  145.9630 C   0  0  2  0  0  3  0  0  0  0  0  0
  185.8660  178.1610  144.8470 C   0  0  0  0  0  3  0  0  0  0  0  0
  184.9250  179.0920  146.7060 N   0  0  0  0  0  2  0  0  0  0  0  0
  183.7530  179.5220  144.5220 C   0  0  0  0  0  2  0  0  0  0  0  0
  183.4860  178.7190  143.2560 C   0  0  0  0  0  1  0  0  0  0  0  0
  187.3400  177.4140  141.5990 C   0  0  0  0  0  2  0  0  0  0  0  0
  186.7800  178.6610  140.9350 C   0  0  0  0  0  2  0  0  0  0  0  0
  186.2970  178.4050  139.5380 C   0  0  0  0  0  0  0  0  0  0  0  0
  187.0210  177.7920  138.7670 O   0  0  0  0  0  0  0  0  0  0  0  0
  184.8860  178.7460  139.1320 C   0  0  2  0  0  3  0  0  0  0  0  0
  184.4850  179.9160  139.7800 O   0  0  0  0  0  1  0  0  0  0  0  0
  183.9140  177.5920  139.4270 C   0  0  2  0  0  3  0  0  0  0  0  0
  183.0210  174.5970  137.3530 C   0  0  0  0  0  3  0  0  0  0  0  0
  183.3050  175.0320  136.0590 C   0  0  0  0  0  3  0  0  0  0  0  0
  183.1910  175.4300  138.4110 N   0  0  0  0  0  0  0  0  0  0  0  0
  183.9380  177.1800  136.9640 C   0  0  0  0  0  3  0  0  0  0  0  0
  183.7720  176.3320  135.8680 C   0  0  0  0  0  3  0  0  0  0  0  0
  183.6340  176.7110  138.2450 C   0  0  0  0  0  0  0  0  0  0  0  0
  182.7110  178.0230  140.0800 O   0  0  0  0  0  0  0  0  0  0  0  0
  180.4170  177.3820  139.5320 N   0  0  0  0  0  1  0  0  0  0  0  0
  181.5020  178.2960  139.4250 C   0  0  0  0  0  0  0  0  0  0  0  0
  181.3640  179.3450  138.7380 O   0  0  0  0  0  0  0  0  0  0  0  0
  189.7060  178.0680  140.8810 C   0  0  0  0  0  2  0  0  0  0  0  0
  190.3900  176.9560  140.1440 C   0  0  0  0  0  3  0  0  0  0  0  0
  190.4610  176.9570  138.8120 C   0  0  0  0  0  3  0  0  0  0  0  0
  191.1970  175.8790  138.0790 C   0  0  0  0  0  2  0  0  0  0  0  0
  190.3570  175.3530  136.9250 C   0  0  0  0  0  2  0  0  0  0  0  0
  190.0690  173.8670  137.1120 C   0  0  0  0  0  2  0  0  0  0  0  0
  189.7080  173.2480  135.8440 N   0  0  0  0  0  2  0  0  0  0  0  0
  188.2730  173.4230  135.6580 C   0  0  0  0  0  2  0  0  0  0  0  0
  187.5200  172.9910  136.9040 C   0  0  0  0  0  2  0  0  0  0  0  0
  186.5820  174.0280  137.3020 N   0  0  0  0  0  1  0  0  0  0  0  0
  1 38  1  6  0  0  0
  1  2  1  0  0  0  0
  3  2  1  6  0  0  0
  3  4  1  0  0  0  0
  3  8  1  0  0  0  0
  4  5  1  6  0  0  0
  7  6  2  0  0  0  0
  7  4  1  0  0  0  0
  9 18  1  0  0  0  0
 11 16  1  0  0  0  0
 11 13  2  0  0  0  0
 12 10  2  0  0  0  0
 12 15  1  0  0  0  0
 13 14  1  0  0  0  0
 14 15  2  0  0  0  0
 16  8  1  6  0  0  0
 16 12  1  0  0  0  0
 17  9  2  0  0  0  0
 17 11  1  0  0  0  0
 18 13  1  0  0  0  0
 19  9  1  0  0  0  0
 20 19  1  0  0  0  0
 21  1  1  0  0  0  0
 22 21  1  0  0  0  0
 23 22  1  0  0  0  0
 24 23  2  0  0  0  0
 25 27  1  0  0  0  0
 25 23  1  0  0  0  0
 25 26  1  1  0  0  0
 27 34  1  6  0  0  0
 28 30  1  0  0  0  0
 29 28  2  0  0  0  0
 31 33  1  0  0  0  0
 32 29  1  0  0  0  0
 32 31  2  0  0  0  0
 33 30  2  0  0  0  0
 33 27  1  0  0  0  0
 36 35  1  0  0  0  0
 36 34  1  0  0  0  0
 37 36  2  0  0  0  0
 39 38  1  0  0  0  0
 40 39  2  0  0  0  0
 41 40  1  0  0  0  0
 42 43  1  0  0  0  0
 42 41  1  0  0  0  0
 44 43  1  0  0  0  0
 45 44  1  0  0  0  0
 45 46  1  0  0  0  0
 46 47  1  0  0  0  0
M  END
>  <MODEL>
8

>  <REMARK>
 VINA RESULT:      -6.4      1.967      2.681
  Name = 
  23 active torsions:
  status: ('A' for Active; 'I' for Inactive)
    1  A    between atoms: C_1  and  C_4
    2  A    between atoms: C_2  and  C_12
    3  A    between atoms: C_2  and  O_22
    4  A    between atoms: C_2  and  C_41
    5  A    between atoms: N_3  and  C_19
    6  A    between atoms: N_3  and  C_33
    7  A    between atoms: C_5  and  C_6
    8  A    between atoms: C_6  and  C_30
    9  A    between atoms: C_8  and  C_25
   10  A    between atoms: C_8  and  C_34
   11  A    between atoms: C_10  and  C_19
   12  A    between atoms: C_10  and  C_47
   13  A    between atoms: C_12  and  C_36
   14  A    between atoms: C_16  and  C_33
   15  A    between atoms: C_17  and  C_30
   16  A    between atoms: C_17  and  C_31
   17  A    between atoms: O_22  and  C_26
   18  A    between atoms: C_25  and  C_35
   19  A    between atoms: C_25  and  C_40
   20  A    between atoms: C_30  and  C_35
   21  A    between atoms: C_31  and  C_36
   22  A    between atoms: C_40  and  C_45
   23  A    between atoms: C_42  and  C_47
                            x       y       z     vdW  Elec       q    Type
                         _______ _______ _______ _____ _____    ______ ____

>  <TORSDO>
F 23

$$$$
=
 OpenBabel10222422083D

 47 49  0  0  1  0  0  0  0  0999 V2000
  189.8120  177.5680  141.4210 C   0  0  2  0  0  3  0  0  0  0  0  0
  189.5540  176.3370  142.2990 C   0  0  0  0  0  2  0  0  0  0  0  0
  189.7420  176.6360  143.7920 C   0  0  1  0  0  3  0  0  0  0  0  0
  191.2200  176.9810  144.0940 C   0  0  1  0  0  3  0  0  0  0  0  0
  191.4980  178.4730  144.2070 C   0  0  0  0  0  1  0  0  0  0  0  0
  191.9600  176.9150  146.3510 O   0  0  0  0  0  0  0  0  0  0  0  0
  191.7030  176.2850  145.3340 C   0  0  0  0  0  3  0  0  0  0  0  0
  188.7580  177.7490  144.1590 C   0  0  0  0  0  2  0  0  0  0  0  0
  184.5840  178.4790  143.5550 C   0  0  0  0  0  0  0  0  0  0  0  0
  189.0690  177.9130  147.1340 O   0  0  0  0  0  0  0  0  0  0  0  0
  186.3250  177.8740  144.7160 C   0  0  0  0  0  0  0  0  0  0  0  0
  187.9140  177.9360  146.6330 C   0  0  0  0  0  0  0  0  0  0  0  0
  185.3360  178.3370  145.5390 C   0  0  0  0  0  0  0  0  0  0  0  0
  185.5290  178.4920  146.9880 C   0  0  0  0  0  3  0  0  0  0  0  0
  186.7570  178.3100  147.4980 C   0  0  0  0  0  3  0  0  0  0  0  0
  187.6760  177.4470  145.2070 C   0  0  2  0  0  3  0  0  0  0  0  0
  185.8640  177.9540  143.4230 C   0  0  0  0  0  3  0  0  0  0  0  0
  184.2590  178.7410  144.8420 N   0  0  0  0  0  2  0  0  0  0  0  0
  183.7880  178.9690  142.3820 C   0  0  0  0  0  2  0  0  0  0  0  0
  184.6310  178.9970  141.1140 C   0  0  0  0  0  1  0  0  0  0  0  0
  188.5930  177.9290  140.5640 C   0  0  0  0  0  2  0  0  0  0  0  0
  188.5370  177.1780  139.2440 C   0  0  0  0  0  2  0  0  0  0  0  0
  187.4460  177.6770  138.3430 C   0  0  0  0  0  0  0  0  0  0  0  0
  186.9760  178.7870  138.5440 O   0  0  0  0  0  0  0  0  0  0  0  0
  187.0410  176.9020  137.1150 C   0  0  2  0  0  3  0  0  0  0  0  0
  186.9710  177.7650  136.0200 O   0  0  0  0  0  1  0  0  0  0  0  0
  185.7080  176.1640  137.3220 C   0  0  2  0  0  3  0  0  0  0  0  0
  184.7040  173.3050  135.1100 C   0  0  0  0  0  3  0  0  0  0  0  0
  185.4290  172.2420  135.6450 C   0  0  0  0  0  3  0  0  0  0  0  0
  184.8230  174.5520  135.6340 N   0  0  0  0  0  0  0  0  0  0  0  0
  186.3940  173.7640  137.2550 C   0  0  0  0  0  3  0  0  0  0  0  0
  186.2760  172.4760  136.7280 C   0  0  0  0  0  3  0  0  0  0  0  0
  185.6560  174.8050  136.6860 C   0  0  0  0  0  0  0  0  0  0  0  0
  184.5640  176.9640  136.9870 O   0  0  0  0  0  0  0  0  0  0  0  0
  182.9440  176.1870  138.6440 N   0  0  0  0  0  1  0  0  0  0  0  0
  183.5000  177.2350  137.8570 C   0  0  0  0  0  0  0  0  0  0  0  0
  183.0240  178.3990  137.9510 O   0  0  0  0  0  0  0  0  0  0  0  0
  191.0970  177.4120  140.6170 C   0  0  0  0  0  2  0  0  0  0  0  0
  190.9030  176.5380  139.4140 C   0  0  0  0  0  3  0  0  0  0  0  0
  191.9350  175.9150  138.8440 C   0  0  0  0  0  3  0  0  0  0  0  0
  191.7330  174.9940  137.6820 C   0  0  0  0  0  2  0  0  0  0  0  0
  193.0640  174.4140  137.2250 C   0  0  0  0  0  2  0  0  0  0  0  0
  194.1880  175.4180  137.4600 C   0  0  0  0  0  2  0  0  0  0  0  0
  195.3280  174.7730  138.0970 N   0  0  0  0  0  2  0  0  0  0  0  0
  195.8260  173.7510  137.1870 C   0  0  0  0  0  2  0  0  0  0  0  0
  197.2960  173.9820  136.8820 C   0  0  0  0  0  2  0  0  0  0  0  0
  197.5910  175.4050  136.9120 N   0  0  0  0  0  1  0  0  0  0  0  0
  1 21  1  6  0  0  0
  1  2  1  0  0  0  0
  3  2  1  6  0  0  0
  3  4  1  0  0  0  0
  3  8  1  0  0  0  0
  4  5  1  1  0  0  0
  4  7  1  0  0  0  0
  7  6  2  0  0  0  0
  9 18  1  0  0  0  0
 11 16  1  0  0  0  0
 11 13  2  0  0  0  0
 12 10  2  0  0  0  0
 12 15  1  0  0  0  0
 13 14  1  0  0  0  0
 14 15  2  0  0  0  0
 16  8  1  6  0  0  0
 16 12  1  0  0  0  0
 17  9  2  0  0  0  0
 17 11  1  0  0  0  0
 18 13  1  0  0  0  0
 19  9  1  0  0  0  0
 20 19  1  0  0  0  0
 22 21  1  0  0  0  0
 23 24  2  0  0  0  0
 23 22  1  0  0  0  0
 25 26  1  6  0  0  0
 25 27  1  0  0  0  0
 25 23  1  0  0  0  0
 27 34  1  6  0  0  0
 28 30  2  0  0  0  0
 28 29  1  0  0  0  0
 29 32  2  0  0  0  0
 30 33  1  0  0  0  0
 32 31  1  0  0  0  0
 33 31  2  0  0  0  0
 33 27  1  0  0  0  0
 34 36  1  0  0  0  0
 36 37  2  0  0  0  0
 36 35  1  0  0  0  0
 38  1  1  0  0  0  0
 39 38  1  0  0  0  0
 40 39  2  0  0  0  0
 41 40  1  0  0  0  0
 42 43  1  0  0  0  0
 42 41  1  0  0  0  0
 43 44  1  0  0  0  0
 45 44  1  0  0  0  0
 46 47  1  0  0  0  0
 46 45  1  0  0  0  0
M  END
>  <MODEL>
9

>  <REMARK>
 VINA RESULT:      -6.3      1.786      2.674
  Name = 
  23 active torsions:
  status: ('A' for Active; 'I' for Inactive)
    1  A    between atoms: C_1  and  C_4
    2  A    between atoms: C_2  and  C_12
    3  A    between atoms: C_2  and  O_22
    4  A    between atoms: C_2  and  C_41
    5  A    between atoms: N_3  and  C_19
    6  A    between atoms: N_3  and  C_33
    7  A    between atoms: C_5  and  C_6
    8  A    between atoms: C_6  and  C_30
    9  A    between atoms: C_8  and  C_25
   10  A    between atoms: C_8  and  C_34
   11  A    between atoms: C_10  and  C_19
   12  A    between atoms: C_10  and  C_47
   13  A    between atoms: C_12  and  C_36
   14  A    between atoms: C_16  and  C_33
   15  A    between atoms: C_17  and  C_30
   16  A    between atoms: C_17  and  C_31
   17  A    between atoms: O_22  and  C_26
   18  A    between atoms: C_25  and  C_35
   19  A    between atoms: C_25  and  C_40
   20  A    between atoms: C_30  and  C_35
   21  A    between atoms: C_31  and  C_36
   22  A    between atoms: C_40  and  C_45
   23  A    between atoms: C_42  and  C_47
                            x       y       z     vdW  Elec       q    Type
                         _______ _______ _______ _____ _____    ______ ____

>  <TORSDO>
F 23

$$$$
