=
 OpenBabel10232407503D

 61 69  0  0  1  0  0  0  0  0999 V2000
  189.8240  176.3640  137.7090 C   0  0  1  0  0  3  0  0  0  0  0  0
  190.6010  176.9560  135.2400 C   0  0  0  0  0  1  0  0  0  0  0  0
  190.8120  176.1950  136.5470 C   0  0  1  0  0  0  0  0  0  0  0  0
  192.1450  175.6440  136.9090 C   0  0  1  0  0  3  0  0  0  0  0  0
  191.1410  174.8470  136.3180 O   0  0  0  0  0  0  0  0  0  0  0  0
  193.2340  175.9430  135.8840 C   0  0  0  0  0  2  0  0  0  0  0  0
  196.1310  171.1270  137.5590 C   0  0  0  0  0  1  0  0  0  0  0  0
  195.6830  171.8240  136.3600 N   0  0  0  0  0  0  0  0  0  0  0  0
  195.0950  173.8680  138.0210 C   0  0  1  0  0  3  0  0  0  0  0  0
  195.1910  174.0710  134.4740 O   0  0  0  0  0  0  0  0  0  0  0  0
  194.4990  175.1430  137.7690 O   0  0  0  0  0  0  0  0  0  0  0  0
  194.5830  175.4380  136.3730 C   0  0  1  0  0  3  0  0  0  0  0  0
  194.2430  172.0880  136.5560 C   0  0  0  0  0  2  0  0  0  0  0  0
  195.1940  173.1840  136.6810 C   0  0  2  0  0  0  0  0  0  0  0  0
  194.9780  174.1900  135.6710 C   0  0  0  0  0  0  0  0  0  0  0  0
  197.7290  175.2290  140.5070 C   0  0  0  0  0  0  0  0  0  0  0  0
  197.7750  175.8010  141.7340 F   0  0  0  0  0  0  0  0  0  0  0  0
  196.4850  174.0140  138.6630 C   0  0  2  0  0  3  0  0  0  0  0  0
  196.3790  174.8920  139.9140 C   0  0  0  0  0  2  0  0  0  0  0  0
  198.8630  175.1400  139.7930 C   0  0  0  0  0  3  0  0  0  0  0  0
  197.5500  174.5910  137.7300 C   0  0  0  0  0  2  0  0  0  0  0  0
  198.9090  174.5180  138.4220 C   0  0  0  0  0  2  0  0  0  0  0  0
  187.9650  175.9310  136.2850 C   0  0  0  0  0  2  0  0  0  0  0  0
  188.6330  175.5210  137.5330 N   0  0  0  0  0  0  0  0  0  0  0  0
  187.3520  176.2830  137.5600 C   0  0  1  0  0  3  0  0  0  0  0  0
  187.4860  177.7900  137.7930 C   0  0  0  0  0  2  0  0  0  0  0  0
  186.1230  178.4470  137.7110 C   0  0  0  0  0  2  0  0  0  0  0  0
  185.5060  178.4980  139.1030 C   0  0  2  0  0  3  0  0  0  0  0  0
  184.1150  177.8590  139.2460 C   0  0  1  0  0  3  0  0  0  0  0  0
  184.2630  179.3630  139.0600 C   0  0  0  0  0  2  0  0  0  0  0  0
  182.4080  177.7220  137.5180 O   0  0  0  0  0  1  0  0  0  0  0  0
  183.5580  177.1000  138.0140 C   0  0  2  0  0  3  0  0  0  0  0  0
  183.3320  175.5950  138.1920 C   0  0  0  0  0  2  0  0  0  0  0  0
  184.1980  174.7980  137.2260 C   0  0  0  0  0  2  0  0  0  0  0  0
  184.3470  173.4930  137.6850 O   0  0  0  0  0  1  0  0  0  0  0  0
  190.6120  177.0550  139.9660 C   0  0  0  0  0  3  0  0  0  0  0  0
  190.4610  176.0990  139.0460 C   0  0  0  0  0  3  0  0  0  0  0  0
  191.2410  176.7710  141.2970 C   0  0  0  0  0  2  0  0  0  0  0  0
  190.3290  178.9710  144.2450 C   0  0  0  0  0  3  0  0  0  0  0  0
  189.6450  178.1340  145.2810 C   0  0  1  0  0  3  0  0  0  0  0  0
  188.2800  176.7160  143.7430 C   0  0  0  0  0  3  0  0  0  0  0  0
  189.3220  176.4710  142.7320 C   0  0  0  0  0  3  0  0  0  0  0  0
  188.3680  177.4980  144.8220 C   0  0  0  0  0  0  0  0  0  0  0  0
  190.3820  177.2340  142.4300 C   0  0  0  0  0  0  0  0  0  0  0  0
  190.6730  178.5550  143.0260 C   0  0  0  0  0  3  0  0  0  0  0  0
  190.5650  177.1720  145.9720 C   0  0  0  0  0  0  0  0  0  0  0  0
  191.6720  175.8750  147.4590 N   0  0  0  0  0  0  0  0  0  0  0  0
  190.5450  176.7920  147.4130 C   0  0  0  0  0  2  0  0  0  0  0  0
  192.1940  175.7830  146.3040 N   0  0  0  0  0  0  0  0  0  0  0  0
  191.5340  176.5770  145.3660 N   0  0  0  0  0  0  0  0  0  0  0  0
  187.1890  177.5820  145.7410 C   0  0  0  0  0  2  0  0  0  0  0  0
  185.8550  177.7730  145.0150 C   0  0  1  0  0  3  0  0  0  0  0  0
  184.8680  178.7590  142.8520 C   0  0  1  0  0  3  0  0  0  0  0  0
  183.5470  178.4560  143.5730 C   0  0  1  0  0  3  0  0  0  0  0  0
  184.9780  178.8460  145.6700 C   0  0  0  0  0  2  0  0  0  0  0  0
  185.1320  180.1200  142.8630 F   0  0  0  0  0  0  0  0  0  0  0  0
  183.5660  178.8570  145.0570 C   0  0  0  0  0  2  0  0  0  0  0  0
  186.0350  178.0060  143.5050 C   0  0  0  0  0  2  0  0  0  0  0  0
  182.3750  179.0520  142.8620 C   0  0  0  0  0  0  0  0  0  0  0  0
  182.1100  178.7250  141.6720 O   0  0  0  0  0  0  0  0  0  0  0  0
  181.5550  179.9540  143.5290 O   0  0  0  0  0  1  0  0  0  0  0  0
  1 37  1  1  0  0  0
  3  2  1  6  0  0  0
  3  4  1  0  0  0  0
  3  1  1  0  0  0  0
  4  6  1  6  0  0  0
  5  3  1  0  0  0  0
  5  4  1  0  0  0  0
  8 13  1  0  0  0  0
  8 14  1  0  0  0  0
  8  7  1  0  0  0  0
  9 11  1  6  0  0  0
  9 18  1  0  0  0  0
 10 15  2  0  0  0  0
 12  6  1  6  0  0  0
 12 11  1  0  0  0  0
 14 13  1  1  0  0  0
 14  9  1  0  0  0  0
 15 12  1  0  0  0  0
 15 14  1  0  0  0  0
 16 17  1  0  0  0  0
 18 21  1  6  0  0  0
 18 19  1  0  0  0  0
 19 16  1  0  0  0  0
 20 16  2  0  0  0  0
 21 22  1  0  0  0  0
 22 20  1  0  0  0  0
 23 24  1  0  0  0  0
 23 25  1  0  0  0  0
 24 25  1  0  0  0  0
 24  1  1  0  0  0  0
 25 26  1  1  0  0  0
 27 26  1  0  0  0  0
 28 27  1  6  0  0  0
 28 29  1  0  0  0  0
 29 32  1  6  0  0  0
 30 28  1  0  0  0  0
 30 29  1  0  0  0  0
 32 31  1  1  0  0  0
 32 33  1  0  0  0  0
 34 35  1  0  0  0  0
 34 33  1  0  0  0  0
 36 38  1  0  0  0  0
 37 36  2  0  0  0  0
 38 44  1  0  0  0  0
 39 40  1  0  0  0  0
 40 46  1  6  0  0  0
 41 43  2  0  0  0  0
 42 41  1  0  0  0  0
 43 40  1  0  0  0  0
 43 51  1  0  0  0  0
 44 42  2  0  0  0  0
 44 45  1  0  0  0  0
 45 39  2  0  0  0  0
 46 48  1  0  0  0  0
 48 47  1  0  0  0  0
 49 47  2  0  0  0  0
 50 46  2  0  0  0  0
 50 49  1  0  0  0  0
 52 55  1  0  0  0  0
 52 51  1  1  0  0  0
 53 56  1  1  0  0  0
 53 58  1  0  0  0  0
 53 54  1  0  0  0  0
 54 59  1  6  0  0  0
 54 57  1  0  0  0  0
 57 55  1  0  0  0  0
 58 52  1  0  0  0  0
 59 61  1  0  0  0  0
 60 59  2  0  0  0  0
M  END
>  <MODEL>
1

>  <REMARK>
 VINA RESULT:      -9.5      0.000      0.000
  Name = 
  18 active torsions:
  status: ('A' for Active; 'I' for Inactive)
    1  A    between atoms: C_1  and  C_6
    2  A    between atoms: C_1  and  C_45
    3  A    between atoms: C_7  and  C_23
    4  A    between atoms: C_8  and  C_19
    5  A    between atoms: C_8  and  C_42
    6  A    between atoms: C_10  and  C_20
    7  A    between atoms: C_11  and  C_12
    8  A    between atoms: C_14  and  C_15
    9  A    between atoms: C_23  and  C_43
   10  A    between atoms: C_24  and  C_51
   11  A    between atoms: C_25  and  C_32
   12  A    between atoms: N_30  and  C_32
   13  A    between atoms: C_32  and  C_33
   14  A    between atoms: C_41  and  C_59
   15  A    between atoms: C_42  and  C_46
   16  A    between atoms: C_51  and  C_52
   17  A    between atoms: C_52  and  C_54
   18  A    between atoms: C_53  and  C_59
                            x       y       z     vdW  Elec       q    Type
                         _______ _______ _______ _____ _____    ______ ____

>  <TORSDO>
F 18

$$$$
=
 OpenBabel10232407503D

 61 69  0  0  1  0  0  0  0  0999 V2000
  190.0720  176.2190  137.7810 C   0  0  1  0  0  3  0  0  0  0  0  0
  188.8160  178.5490  137.5700 C   0  0  0  0  0  1  0  0  0  0  0  0
  188.7800  177.0450  137.8330 C   0  0  1  0  0  0  0  0  0  0  0  0
  187.5150  176.2730  137.7050 C   0  0  1  0  0  3  0  0  0  0  0  0
  187.9900  176.7310  138.9540 O   0  0  0  0  0  0  0  0  0  0  0  0
  186.3210  177.1150  137.2690 C   0  0  0  0  0  2  0  0  0  0  0  0
  181.0650  174.8140  138.4790 C   0  0  0  0  0  1  0  0  0  0  0  0
  181.6870  176.0570  138.0410 N   0  0  0  0  0  0  0  0  0  0  0  0
  183.9320  174.5860  137.7520 C   0  0  1  0  0  3  0  0  0  0  0  0
  183.4660  177.8830  136.5090 O   0  0  0  0  0  0  0  0  0  0  0  0
  185.2560  174.9590  137.3610 O   0  0  0  0  0  0  0  0  0  0  0  0
  185.2180  176.2300  136.7090 C   0  0  1  0  0  3  0  0  0  0  0  0
  182.7610  176.3400  139.0160 C   0  0  0  0  0  2  0  0  0  0  0  0
  183.1100  175.8490  137.6890 C   0  0  2  0  0  0  0  0  0  0  0  0
  183.8780  176.8220  136.9510 C   0  0  0  0  0  0  0  0  0  0  0  0
  183.6950  171.1220  136.0470 C   0  0  0  0  0  0  0  0  0  0  0  0
  184.0920  169.8460  136.2690 F   0  0  0  0  0  0  0  0  0  0  0  0
  183.3510  173.5120  136.8190 C   0  0  2  0  0  3  0  0  0  0  0  0
  184.0870  172.1870  137.0470 C   0  0  0  0  0  2  0  0  0  0  0  0
  183.1220  171.4250  134.8700 C   0  0  0  0  0  3  0  0  0  0  0  0
  183.4080  173.8710  135.3330 C   0  0  0  0  0  2  0  0  0  0  0  0
  182.6470  172.8150  134.5370 C   0  0  0  0  0  2  0  0  0  0  0  0
  190.6650  176.1250  135.4760 C   0  0  0  0  0  2  0  0  0  0  0  0
  191.0060  176.7390  136.7720 N   0  0  0  0  0  0  0  0  0  0  0  0
  191.8740  175.6900  136.1650 C   0  0  1  0  0  3  0  0  0  0  0  0
  191.6720  174.2730  136.7070 C   0  0  0  0  0  2  0  0  0  0  0  0
  192.8300  173.3910  136.2850 C   0  0  0  0  0  2  0  0  0  0  0  0
  194.1410  174.1090  136.5790 C   0  0  2  0  0  3  0  0  0  0  0  0
  195.2840  173.2290  137.1120 C   0  0  1  0  0  3  0  0  0  0  0  0
  194.4180  174.0400  138.0680 C   0  0  0  0  0  2  0  0  0  0  0  0
  195.2210  171.1890  138.4350 O   0  0  0  0  0  1  0  0  0  0  0  0
  195.0390  171.6990  137.1460 C   0  0  2  0  0  3  0  0  0  0  0  0
  195.8100  170.8670  136.1150 C   0  0  0  0  0  2  0  0  0  0  0  0
  194.8680  170.3010  135.0600 C   0  0  0  0  0  2  0  0  0  0  0  0
  194.2890  169.1230  135.5220 O   0  0  0  0  0  1  0  0  0  0  0  0
  190.8500  177.1780  139.9430 C   0  0  0  0  0  3  0  0  0  0  0  0
  190.7470  176.1280  139.1220 C   0  0  0  0  0  3  0  0  0  0  0  0
  191.5190  177.0670  141.2790 C   0  0  0  0  0  2  0  0  0  0  0  0
  190.3690  179.0550  144.2940 C   0  0  0  0  0  3  0  0  0  0  0  0
  189.6950  178.1280  145.2570 C   0  0  1  0  0  3  0  0  0  0  0  0
  188.4740  176.7200  143.5950 C   0  0  0  0  0  3  0  0  0  0  0  0
  189.5660  176.5860  142.6170 C   0  0  0  0  0  3  0  0  0  0  0  0
  188.4750  177.4470  144.7150 C   0  0  0  0  0  0  0  0  0  0  0  0
  190.5920  177.4210  142.3980 C   0  0  0  0  0  0  0  0  0  0  0  0
  190.7830  178.7230  143.0710 C   0  0  0  0  0  3  0  0  0  0  0  0
  190.6420  177.1830  145.9360 C   0  0  0  0  0  0  0  0  0  0  0  0
  192.2510  175.6770  146.4490 N   0  0  0  0  0  0  0  0  0  0  0  0
  191.7420  176.4050  145.2980 C   0  0  0  0  0  3  0  0  0  0  0  0
  191.5740  175.9820  147.4800 N   0  0  0  0  0  0  0  0  0  0  0  0
  190.5700  176.9070  147.1920 N   0  0  0  0  0  2  0  0  0  0  0  0
  187.2600  177.4170  145.5880 C   0  0  0  0  0  2  0  0  0  0  0  0
  185.9520  177.6630  144.8310 C   0  0  1  0  0  3  0  0  0  0  0  0
  185.0570  178.7040  142.6530 C   0  0  1  0  0  3  0  0  0  0  0  0
  183.7070  178.4430  143.3370 C   0  0  1  0  0  3  0  0  0  0  0  0
  185.0980  178.7610  145.4730 C   0  0  0  0  0  2  0  0  0  0  0  0
  185.3700  180.0540  142.6850 F   0  0  0  0  0  0  0  0  0  0  0  0
  183.7030  178.8290  144.8260 C   0  0  0  0  0  2  0  0  0  0  0  0
  186.1790  177.9030  143.3270 C   0  0  0  0  0  2  0  0  0  0  0  0
  182.5760  179.0880  142.6030 C   0  0  0  0  0  0  0  0  0  0  0  0
  181.6430  179.6580  143.2350 O   0  0  0  0  0  1  0  0  0  0  0  0
  182.5680  179.0820  141.2140 O   0  0  0  0  0  0  0  0  0  0  0  0
  1  3  1  0  0  0  0
  1 37  1  1  0  0  0
  3  2  1  6  0  0  0
  3  5  1  0  0  0  0
  4  6  1  6  0  0  0
  4  3  1  0  0  0  0
  4  5  1  0  0  0  0
  8  7  1  0  0  0  0
  8 13  1  0  0  0  0
  9 11  1  6  0  0  0
 10 15  2  0  0  0  0
 12 15  1  0  0  0  0
 12  6  1  1  0  0  0
 12 11  1  0  0  0  0
 14  9  1  0  0  0  0
 14  8  1  0  0  0  0
 14 13  1  1  0  0  0
 15 14  1  0  0  0  0
 16 17  1  0  0  0  0
 16 19  1  0  0  0  0
 18 21  1  6  0  0  0
 18 19  1  0  0  0  0
 18  9  1  0  0  0  0
 20 16  2  0  0  0  0
 22 20  1  0  0  0  0
 22 21  1  0  0  0  0
 23 25  1  0  0  0  0
 23 24  1  0  0  0  0
 24  1  1  0  0  0  0
 25 26  1  1  0  0  0
 25 24  1  0  0  0  0
 27 26  1  0  0  0  0
 28 27  1  1  0  0  0
 28 29  1  0  0  0  0
 28 30  1  0  0  0  0
 29 32  1  1  0  0  0
 29 30  1  0  0  0  0
 32 31  1  1  0  0  0
 33 32  1  0  0  0  0
 34 35  1  0  0  0  0
 34 33  1  0  0  0  0
 36 38  1  0  0  0  0
 37 36  2  0  0  0  0
 38 44  1  0  0  0  0
 39 40  1  0  0  0  0
 40 46  1  6  0  0  0
 41 43  2  0  0  0  0
 42 41  1  0  0  0  0
 43 40  1  0  0  0  0
 43 51  1  0  0  0  0
 44 42  2  0  0  0  0
 44 45  1  0  0  0  0
 45 39  2  0  0  0  0
 46 50  1  0  0  0  0
 47 49  2  0  0  0  0
 48 46  2  0  0  0  0
 48 47  1  0  0  0  0
 50 49  1  0  0  0  0
 52 55  1  0  0  0  0
 52 51  1  1  0  0  0
 53 56  1  1  0  0  0
 53 58  1  0  0  0  0
 53 54  1  0  0  0  0
 54 59  1  6  0  0  0
 54 57  1  0  0  0  0
 57 55  1  0  0  0  0
 58 52  1  0  0  0  0
 59 60  1  0  0  0  0
 61 59  2  0  0  0  0
M  END
>  <MODEL>
2

>  <REMARK>
 VINA RESULT:      -8.8      2.623      8.527
  Name = 
  18 active torsions:
  status: ('A' for Active; 'I' for Inactive)
    1  A    between atoms: C_1  and  C_6
    2  A    between atoms: C_1  and  C_45
    3  A    between atoms: C_7  and  C_23
    4  A    between atoms: C_8  and  C_19
    5  A    between atoms: C_8  and  C_42
    6  A    between atoms: C_10  and  C_20
    7  A    between atoms: C_11  and  C_12
    8  A    between atoms: C_14  and  C_15
    9  A    between atoms: C_23  and  C_43
   10  A    between atoms: C_24  and  C_51
   11  A    between atoms: C_25  and  C_32
   12  A    between atoms: N_30  and  C_32
   13  A    between atoms: C_32  and  C_33
   14  A    between atoms: C_41  and  C_59
   15  A    between atoms: C_42  and  C_46
   16  A    between atoms: C_51  and  C_52
   17  A    between atoms: C_52  and  C_54
   18  A    between atoms: C_53  and  C_59
                            x       y       z     vdW  Elec       q    Type
                         _______ _______ _______ _____ _____    ______ ____

>  <TORSDO>
F 18

$$$$
=
 OpenBabel10232407503D

 61 69  0  0  1  0  0  0  0  0999 V2000
  190.7940  176.5310  137.8390 C   0  0  1  0  0  3  0  0  0  0  0  0
  191.5200  175.7030  135.4230 C   0  0  0  0  0  1  0  0  0  0  0  0
  191.7790  175.7880  136.9260 C   0  0  1  0  0  0  0  0  0  0  0  0
  193.1390  175.5700  137.4850 C   0  0  1  0  0  3  0  0  0  0  0  0
  192.1680  174.5450  137.4580 O   0  0  0  0  0  0  0  0  0  0  0  0
  194.2030  175.2970  136.4280 C   0  0  0  0  0  2  0  0  0  0  0  0
  199.4300  172.6810  135.9490 C   0  0  0  0  0  1  0  0  0  0  0  0
  198.7240  173.6710  136.7530 N   0  0  0  0  0  0  0  0  0  0  0  0
  196.5050  172.8220  135.4720 C   0  0  1  0  0  3  0  0  0  0  0  0
  196.5410  174.9050  138.3520 O   0  0  0  0  0  0  0  0  0  0  0  0
  195.1480  173.2650  135.5490 O   0  0  0  0  0  0  0  0  0  0  0  0
  194.9630  174.0190  136.7500 C   0  0  1  0  0  3  0  0  0  0  0  0
  198.1380  174.6310  135.7950 C   0  0  0  0  0  2  0  0  0  0  0  0
  197.2730  173.6650  136.4590 C   0  0  2  0  0  0  0  0  0  0  0  0
  196.3060  174.3170  137.3080 C   0  0  0  0  0  0  0  0  0  0  0  0
  195.3950  169.1210  135.6670 C   0  0  0  0  0  0  0  0  0  0  0  0
  194.5350  168.2800  135.0450 F   0  0  0  0  0  0  0  0  0  0  0  0
  196.6310  171.3290  135.8170 C   0  0  2  0  0  3  0  0  0  0  0  0
  195.4400  170.5670  135.2270 C   0  0  0  0  0  2  0  0  0  0  0  0
  196.0470  168.6880  136.7590 C   0  0  0  0  0  3  0  0  0  0  0  0
  196.7260  171.0360  137.3150 C   0  0  0  0  0  2  0  0  0  0  0  0
  197.0240  169.5520  137.5120 C   0  0  0  0  0  2  0  0  0  0  0  0
  188.8950  175.3960  136.9550 C   0  0  0  0  0  2  0  0  0  0  0  0
  189.6430  175.6880  138.1920 N   0  0  0  0  0  0  0  0  0  0  0  0
  188.3260  176.3300  137.9180 C   0  0  1  0  0  3  0  0  0  0  0  0
  188.3900  177.7510  137.3530 C   0  0  0  0  0  2  0  0  0  0  0  0
  186.9880  178.2730  137.1120 C   0  0  0  0  0  2  0  0  0  0  0  0
  186.1150  177.9390  138.3140 C   0  0  2  0  0  3  0  0  0  0  0  0
  184.7480  177.3110  137.9980 C   0  0  1  0  0  3  0  0  0  0  0  0
  184.8710  178.8030  138.2760 C   0  0  0  0  0  2  0  0  0  0  0  0
  183.3290  177.6040  136.0440 O   0  0  0  0  0  1  0  0  0  0  0  0
  184.4660  176.9430  136.5190 C   0  0  2  0  0  3  0  0  0  0  0  0
  184.4030  175.4460  136.1940 C   0  0  0  0  0  2  0  0  0  0  0  0
  184.5650  174.6100  137.4560 C   0  0  0  0  0  2  0  0  0  0  0  0
  185.7330  173.8560  137.3820 O   0  0  0  0  0  1  0  0  0  0  0  0
  191.0500  176.7180  140.3070 C   0  0  0  0  0  3  0  0  0  0  0  0
  191.4550  177.0620  139.0810 C   0  0  0  0  0  3  0  0  0  0  0  0
  191.7260  177.2510  141.5350 C   0  0  0  0  0  2  0  0  0  0  0  0
  190.4360  179.0990  144.5820 C   0  0  0  0  0  3  0  0  0  0  0  0
  189.7120  178.1320  145.4650 C   0  0  1  0  0  3  0  0  0  0  0  0
  188.5700  176.8110  143.6800 C   0  0  0  0  0  3  0  0  0  0  0  0
  189.7080  176.7180  142.7520 C   0  0  0  0  0  3  0  0  0  0  0  0
  188.5180  177.4840  144.8320 C   0  0  0  0  0  0  0  0  0  0  0  0
  190.7460  177.5560  142.6230 C   0  0  0  0  0  0  0  0  0  0  0  0
  190.9080  178.8240  143.3660 C   0  0  0  0  0  3  0  0  0  0  0  0
  190.6210  177.1500  146.1440 C   0  0  0  0  0  0  0  0  0  0  0  0
  192.2370  175.6590  146.6770 N   0  0  0  0  0  0  0  0  0  0  0  0
  191.8290  176.4990  145.5620 C   0  0  0  0  0  3  0  0  0  0  0  0
  191.4270  175.8110  147.6440 N   0  0  0  0  0  0  0  0  0  0  0  0
  190.4150  176.7230  147.3410 N   0  0  0  0  0  2  0  0  0  0  0  0
  187.2610  177.4190  145.6410 C   0  0  0  0  0  2  0  0  0  0  0  0
  185.9860  177.6160  144.8160 C   0  0  1  0  0  3  0  0  0  0  0  0
  185.1610  178.6590  142.6130 C   0  0  1  0  0  3  0  0  0  0  0  0
  183.7910  178.3130  143.2130 C   0  0  1  0  0  3  0  0  0  0  0  0
  185.0410  178.6530  145.4320 C   0  0  0  0  0  2  0  0  0  0  0  0
  185.3990  180.0230  142.6900 F   0  0  0  0  0  0  0  0  0  0  0  0
  183.6830  178.6630  144.7070 C   0  0  0  0  0  2  0  0  0  0  0  0
  186.2840  177.9010  143.3330 C   0  0  0  0  0  2  0  0  0  0  0  0
  182.6700  178.9150  142.4300 C   0  0  0  0  0  0  0  0  0  0  0  0
  181.6970  179.4650  143.0180 O   0  0  0  0  0  1  0  0  0  0  0  0
  182.7140  178.8930  141.0420 O   0  0  0  0  0  0  0  0  0  0  0  0
  1 24  1  0  0  0  0
  1 37  1  1  0  0  0
  3  2  1  6  0  0  0
  3  5  1  0  0  0  0
  3  4  1  0  0  0  0
  3  1  1  0  0  0  0
  4  6  1  6  0  0  0
  5  4  1  0  0  0  0
  7  8  1  0  0  0  0
  9 11  1  1  0  0  0
  9 18  1  0  0  0  0
  9 14  1  0  0  0  0
 11 12  1  0  0  0  0
 12  6  1  6  0  0  0
 12 15  1  0  0  0  0
 13  8  1  0  0  0  0
 14 13  1  6  0  0  0
 14  8  1  0  0  0  0
 14 15  1  0  0  0  0
 15 10  2  0  0  0  0
 16 20  2  0  0  0  0
 17 16  1  0  0  0  0
 18 19  1  1  0  0  0
 18 21  1  0  0  0  0
 19 16  1  0  0  0  0
 20 22  1  0  0  0  0
 21 22  1  0  0  0  0
 23 25  1  0  0  0  0
 23 24  1  0  0  0  0
 25 26  1  6  0  0  0
 25 24  1  0  0  0  0
 27 26  1  0  0  0  0
 28 27  1  6  0  0  0
 29 32  1  6  0  0  0
 29 30  1  0  0  0  0
 29 28  1  0  0  0  0
 30 28  1  0  0  0  0
 32 31  1  1  0  0  0
 33 32  1  0  0  0  0
 33 34  1  0  0  0  0
 35 34  1  0  0  0  0
 36 38  1  0  0  0  0
 37 36  2  0  0  0  0
 38 44  1  0  0  0  0
 39 40  1  0  0  0  0
 40 46  1  6  0  0  0
 41 43  2  0  0  0  0
 42 41  1  0  0  0  0
 43 40  1  0  0  0  0
 43 51  1  0  0  0  0
 44 42  2  0  0  0  0
 44 45  1  0  0  0  0
 45 39  2  0  0  0  0
 46 50  1  0  0  0  0
 47 49  2  0  0  0  0
 48 46  2  0  0  0  0
 48 47  1  0  0  0  0
 50 49  1  0  0  0  0
 52 55  1  0  0  0  0
 52 51  1  1  0  0  0
 53 56  1  1  0  0  0
 53 54  1  0  0  0  0
 53 58  1  0  0  0  0
 54 59  1  6  0  0  0
 54 57  1  0  0  0  0
 57 55  1  0  0  0  0
 58 52  1  0  0  0  0
 59 60  1  0  0  0  0
 61 59  2  0  0  0  0
M  END
>  <MODEL>
3

>  <REMARK>
 VINA RESULT:      -8.4      1.920      2.861
  Name = 
  18 active torsions:
  status: ('A' for Active; 'I' for Inactive)
    1  A    between atoms: C_1  and  C_6
    2  A    between atoms: C_1  and  C_45
    3  A    between atoms: C_7  and  C_23
    4  A    between atoms: C_8  and  C_19
    5  A    between atoms: C_8  and  C_42
    6  A    between atoms: C_10  and  C_20
    7  A    between atoms: C_11  and  C_12
    8  A    between atoms: C_14  and  C_15
    9  A    between atoms: C_23  and  C_43
   10  A    between atoms: C_24  and  C_51
   11  A    between atoms: C_25  and  C_32
   12  A    between atoms: N_30  and  C_32
   13  A    between atoms: C_32  and  C_33
   14  A    between atoms: C_41  and  C_59
   15  A    between atoms: C_42  and  C_46
   16  A    between atoms: C_51  and  C_52
   17  A    between atoms: C_52  and  C_54
   18  A    between atoms: C_53  and  C_59
                            x       y       z     vdW  Elec       q    Type
                         _______ _______ _______ _____ _____    ______ ____

>  <TORSDO>
F 18

$$$$
=
 OpenBabel10232407503D

 61 69  0  0  1  0  0  0  0  0999 V2000
  189.6570  177.0610  137.7820 C   0  0  1  0  0  3  0  0  0  0  0  0
  188.0830  179.1280  137.2350 C   0  0  0  0  0  1  0  0  0  0  0  0
  188.2610  177.6970  137.7360 C   0  0  1  0  0  0  0  0  0  0  0  0
  187.1180  176.7460  137.7690 C   0  0  1  0  0  3  0  0  0  0  0  0
  187.5290  177.4630  138.9140 O   0  0  0  0  0  0  0  0  0  0  0  0
  185.8140  177.3310  137.2370 C   0  0  0  0  0  2  0  0  0  0  0  0
  180.3020  175.6480  136.1570 C   0  0  0  0  0  1  0  0  0  0  0  0
  181.3180  176.5800  135.6850 N   0  0  0  0  0  0  0  0  0  0  0  0
  183.0130  175.2140  137.2820 C   0  0  1  0  0  3  0  0  0  0  0  0
  183.9800  177.5760  134.8080 O   0  0  0  0  0  0  0  0  0  0  0  0
  184.3980  175.4140  137.5720 O   0  0  0  0  0  0  0  0  0  0  0  0
  184.9760  176.2520  136.5680 C   0  0  1  0  0  3  0  0  0  0  0  0
  181.7890  177.3080  136.8800 C   0  0  0  0  0  2  0  0  0  0  0  0
  182.6380  176.2840  136.2870 C   0  0  2  0  0  0  0  0  0  0  0  0
  183.8660  176.8440  135.7790 C   0  0  0  0  0  0  0  0  0  0  0  0
  181.4020  171.7040  137.0640 C   0  0  0  0  0  0  0  0  0  0  0  0
  180.2840  171.0660  137.4850 F   0  0  0  0  0  0  0  0  0  0  0  0
  182.7560  173.8150  136.6990 C   0  0  2  0  0  3  0  0  0  0  0  0
  181.6050  173.1490  137.4590 C   0  0  0  0  0  2  0  0  0  0  0  0
  182.3660  170.9870  136.4630 C   0  0  0  0  0  3  0  0  0  0  0  0
  183.9750  172.8910  136.7200 C   0  0  0  0  0  2  0  0  0  0  0  0
  183.6420  171.6110  135.9590 C   0  0  0  0  0  2  0  0  0  0  0  0
  189.6880  176.9770  135.4020 C   0  0  0  0  0  2  0  0  0  0  0  0
  190.4470  177.4050  136.5910 N   0  0  0  0  0  0  0  0  0  0  0  0
  190.8700  176.2190  135.7930 C   0  0  1  0  0  3  0  0  0  0  0  0
  190.4450  174.8600  136.3540 C   0  0  0  0  0  2  0  0  0  0  0  0
  190.9480  173.7510  135.4530 C   0  0  0  0  0  2  0  0  0  0  0  0
  191.6860  172.7170  136.2920 C   0  0  2  0  0  3  0  0  0  0  0  0
  193.2210  172.8010  136.2660 C   0  0  1  0  0  3  0  0  0  0  0  0
  192.4820  171.8120  135.3740 C   0  0  0  0  0  2  0  0  0  0  0  0
  194.4850  173.6000  134.3470 O   0  0  0  0  0  1  0  0  0  0  0  0
  193.8480  174.0080  135.5230 C   0  0  2  0  0  3  0  0  0  0  0  0
  194.7650  174.9120  136.3540 C   0  0  0  0  0  2  0  0  0  0  0  0
  194.0430  175.4260  137.5920 C   0  0  0  0  0  2  0  0  0  0  0  0
  194.8520  175.2720  138.7140 O   0  0  0  0  0  1  0  0  0  0  0  0
  190.7110  176.5220  139.9720 C   0  0  0  0  0  3  0  0  0  0  0  0
  190.4100  177.4240  139.0330 C   0  0  0  0  0  3  0  0  0  0  0  0
  191.4690  176.9000  141.2080 C   0  0  0  0  0  2  0  0  0  0  0  0
  190.3810  179.0120  144.1610 C   0  0  0  0  0  3  0  0  0  0  0  0
  189.6910  178.1340  145.1570 C   0  0  1  0  0  3  0  0  0  0  0  0
  188.4290  176.7000  143.5480 C   0  0  0  0  0  3  0  0  0  0  0  0
  189.5120  176.5090  142.5700 C   0  0  0  0  0  3  0  0  0  0  0  0
  188.4530  177.4640  144.6420 C   0  0  0  0  0  0  0  0  0  0  0  0
  190.5560  177.3120  142.3190 C   0  0  0  0  0  0  0  0  0  0  0  0
  190.7820  178.6310  142.9480 C   0  0  0  0  0  3  0  0  0  0  0  0
  190.6180  177.1890  145.8620 C   0  0  0  0  0  0  0  0  0  0  0  0
  192.1560  175.6250  146.4150 N   0  0  0  0  0  0  0  0  0  0  0  0
  191.6170  176.2770  145.2340 C   0  0  0  0  0  3  0  0  0  0  0  0
  191.5770  176.0730  147.4530 N   0  0  0  0  0  0  0  0  0  0  0  0
  190.6180  177.0370  147.1410 N   0  0  0  0  0  2  0  0  0  0  0  0
  187.2410  177.4910  145.5210 C   0  0  0  0  0  2  0  0  0  0  0  0
  185.9290  177.6800  144.7540 C   0  0  1  0  0  3  0  0  0  0  0  0
  184.9300  178.9830  142.7720 C   0  0  1  0  0  3  0  0  0  0  0  0
  183.6250  178.3870  143.3180 C   0  0  1  0  0  3  0  0  0  0  0  0
  184.8940  178.4830  145.5490 C   0  0  0  0  0  2  0  0  0  0  0  0
  185.0200  180.3320  143.0810 F   0  0  0  0  0  0  0  0  0  0  0  0
  183.5230  178.4640  144.8500 C   0  0  0  0  0  2  0  0  0  0  0  0
  186.1500  178.2450  143.3400 C   0  0  0  0  0  2  0  0  0  0  0  0
  182.4220  178.9840  142.6610 C   0  0  0  0  0  0  0  0  0  0  0  0
  181.7870  179.9240  143.2150 O   0  0  0  0  0  1  0  0  0  0  0  0
  182.0180  178.5160  141.4170 O   0  0  0  0  0  0  0  0  0  0  0  0
  1 37  1  1  0  0  0
  3  2  1  6  0  0  0
  3  4  1  0  0  0  0
  3  1  1  0  0  0  0
  3  5  1  0  0  0  0
  4  6  1  6  0  0  0
  4  5  1  0  0  0  0
  8  7  1  0  0  0  0
  8 14  1  0  0  0  0
  8 13  1  0  0  0  0
  9 11  1  6  0  0  0
 10 15  2  0  0  0  0
 12  6  1  1  0  0  0
 12 11  1  0  0  0  0
 14 13  1  1  0  0  0
 14  9  1  0  0  0  0
 15 14  1  0  0  0  0
 15 12  1  0  0  0  0
 16 19  1  0  0  0  0
 16 17  1  0  0  0  0
 18 21  1  1  0  0  0
 18  9  1  0  0  0  0
 18 19  1  0  0  0  0
 20 16  2  0  0  0  0
 22 20  1  0  0  0  0
 22 21  1  0  0  0  0
 23 25  1  0  0  0  0
 23 24  1  0  0  0  0
 24  1  1  0  0  0  0
 25 26  1  1  0  0  0
 25 24  1  0  0  0  0
 27 26  1  0  0  0  0
 28 27  1  6  0  0  0
 29 32  1  6  0  0  0
 29 28  1  0  0  0  0
 30 29  1  0  0  0  0
 30 28  1  0  0  0  0
 32 31  1  6  0  0  0
 32 33  1  0  0  0  0
 33 34  1  0  0  0  0
 34 35  1  0  0  0  0
 36 38  1  0  0  0  0
 37 36  2  0  0  0  0
 38 44  1  0  0  0  0
 39 40  1  0  0  0  0
 40 46  1  6  0  0  0
 41 43  2  0  0  0  0
 42 41  1  0  0  0  0
 43 40  1  0  0  0  0
 43 51  1  0  0  0  0
 44 42  2  0  0  0  0
 44 45  1  0  0  0  0
 45 39  2  0  0  0  0
 46 50  1  0  0  0  0
 47 49  2  0  0  0  0
 48 46  2  0  0  0  0
 48 47  1  0  0  0  0
 50 49  1  0  0  0  0
 52 51  1  1  0  0  0
 52 55  1  0  0  0  0
 53 56  1  1  0  0  0
 53 54  1  0  0  0  0
 53 58  1  0  0  0  0
 54 59  1  6  0  0  0
 54 57  1  0  0  0  0
 57 55  1  0  0  0  0
 58 52  1  0  0  0  0
 59 60  1  0  0  0  0
 61 59  2  0  0  0  0
M  END
>  <MODEL>
4

>  <REMARK>
 VINA RESULT:      -8.3      2.744      8.587
  Name = 
  18 active torsions:
  status: ('A' for Active; 'I' for Inactive)
    1  A    between atoms: C_1  and  C_6
    2  A    between atoms: C_1  and  C_45
    3  A    between atoms: C_7  and  C_23
    4  A    between atoms: C_8  and  C_19
    5  A    between atoms: C_8  and  C_42
    6  A    between atoms: C_10  and  C_20
    7  A    between atoms: C_11  and  C_12
    8  A    between atoms: C_14  and  C_15
    9  A    between atoms: C_23  and  C_43
   10  A    between atoms: C_24  and  C_51
   11  A    between atoms: C_25  and  C_32
   12  A    between atoms: N_30  and  C_32
   13  A    between atoms: C_32  and  C_33
   14  A    between atoms: C_41  and  C_59
   15  A    between atoms: C_42  and  C_46
   16  A    between atoms: C_51  and  C_52
   17  A    between atoms: C_52  and  C_54
   18  A    between atoms: C_53  and  C_59
                            x       y       z     vdW  Elec       q    Type
                         _______ _______ _______ _____ _____    ______ ____

>  <TORSDO>
F 18

$$$$
=
 OpenBabel10232407503D

 61 69  0  0  1  0  0  0  0  0999 V2000
  189.1220  177.0380  137.5220 C   0  0  1  0  0  3  0  0  0  0  0  0
  189.8200  177.2640  134.9710 C   0  0  0  0  0  1  0  0  0  0  0  0
  189.8840  176.5120  136.2980 C   0  0  1  0  0  0  0  0  0  0  0  0
  190.9820  175.5510  136.5850 C   0  0  1  0  0  3  0  0  0  0  0  0
  189.7190  175.1270  136.1200 O   0  0  0  0  0  0  0  0  0  0  0  0
  192.0080  175.4350  135.4630 C   0  0  0  0  0  2  0  0  0  0  0  0
  197.8520  175.6730  135.0410 C   0  0  0  0  0  1  0  0  0  0  0  0
  196.7310  176.3520  135.6770 N   0  0  0  0  0  0  0  0  0  0  0  0
  195.2560  174.2520  134.8410 C   0  0  1  0  0  3  0  0  0  0  0  0
  194.1890  176.7040  137.1810 O   0  0  0  0  0  0  0  0  0  0  0  0
  193.8570  173.9800  134.9560 O   0  0  0  0  0  0  0  0  0  0  0  0
  193.2960  174.8090  135.9760 C   0  0  1  0  0  3  0  0  0  0  0  0
  195.7660  176.6440  134.5980 C   0  0  0  0  0  2  0  0  0  0  0  0
  195.4820  175.5690  135.5390 C   0  0  2  0  0  0  0  0  0  0  0  0
  194.3010  175.8470  136.3190 C   0  0  0  0  0  0  0  0  0  0  0  0
  196.4500  170.6310  135.4960 C   0  0  0  0  0  0  0  0  0  0  0  0
  196.4510  169.4280  134.8730 F   0  0  0  0  0  0  0  0  0  0  0  0
  196.1000  173.1410  135.4870 C   0  0  2  0  0  3  0  0  0  0  0  0
  195.7920  171.8040  134.8060 C   0  0  0  0  0  2  0  0  0  0  0  0
  196.8770  170.7000  136.7680 C   0  0  0  0  0  3  0  0  0  0  0  0
  195.9000  172.9960  136.9960 C   0  0  0  0  0  2  0  0  0  0  0  0
  196.9150  171.9940  137.5380 C   0  0  0  0  0  2  0  0  0  0  0  0
  187.1320  175.9700  136.7680 C   0  0  0  0  0  2  0  0  0  0  0  0
  188.0400  176.1260  137.9180 N   0  0  0  0  0  0  0  0  0  0  0  0
  186.6910  176.7600  137.9110 C   0  0  1  0  0  3  0  0  0  0  0  0
  186.6620  178.2420  137.5270 C   0  0  0  0  0  2  0  0  0  0  0  0
  185.2700  178.8010  137.7430 C   0  0  0  0  0  2  0  0  0  0  0  0
  184.7470  178.3370  139.0950 C   0  0  2  0  0  3  0  0  0  0  0  0
  183.2170  178.2900  139.2440 C   0  0  1  0  0  3  0  0  0  0  0  0
  184.0110  179.4820  139.7610 C   0  0  0  0  0  2  0  0  0  0  0  0
  181.2120  179.2750  138.2820 O   0  0  0  0  0  1  0  0  0  0  0  0
  182.3760  178.5660  137.9720 C   0  0  2  0  0  3  0  0  0  0  0  0
  182.0570  177.3510  137.0940 C   0  0  0  0  0  2  0  0  0  0  0  0
  180.6100  177.3890  136.6200 C   0  0  0  0  0  2  0  0  0  0  0  0
  180.5300  178.0230  135.3840 O   0  0  0  0  0  1  0  0  0  0  0  0
  190.0170  176.5600  139.7950 C   0  0  0  0  0  3  0  0  0  0  0  0
  190.0320  177.3100  138.6900 C   0  0  0  0  0  3  0  0  0  0  0  0
  190.9350  176.8400  140.9460 C   0  0  0  0  0  2  0  0  0  0  0  0
  190.3070  178.9290  144.0450 C   0  0  0  0  0  3  0  0  0  0  0  0
  189.7140  178.0550  145.1060 C   0  0  1  0  0  3  0  0  0  0  0  0
  188.2080  176.7000  143.6470 C   0  0  0  0  0  3  0  0  0  0  0  0
  189.1520  176.4910  142.5370 C   0  0  0  0  0  3  0  0  0  0  0  0
  188.3970  177.4400  144.7420 C   0  0  0  0  0  0  0  0  0  0  0  0
  190.1850  177.2610  142.1690 C   0  0  0  0  0  0  0  0  0  0  0  0
  190.5370  178.5590  142.7850 C   0  0  0  0  0  3  0  0  0  0  0  0
  190.6870  177.0650  145.6740 C   0  0  0  0  0  0  0  0  0  0  0  0
  191.9480  175.7440  147.0090 N   0  0  0  0  0  0  0  0  0  0  0  0
  190.8640  176.7060  147.1110 C   0  0  0  0  0  2  0  0  0  0  0  0
  192.2920  175.6140  145.7930 N   0  0  0  0  0  0  0  0  0  0  0  0
  191.5320  176.4220  144.9460 N   0  0  0  0  0  0  0  0  0  0  0  0
  187.3070  177.4920  145.7660 C   0  0  0  0  0  2  0  0  0  0  0  0
  185.9160  177.7310  145.1740 C   0  0  1  0  0  3  0  0  0  0  0  0
  184.7540  178.8210  143.1520 C   0  0  1  0  0  3  0  0  0  0  0  0
  183.4980  178.5040  143.9760 C   0  0  1  0  0  3  0  0  0  0  0  0
  185.1190  178.7860  145.9490 C   0  0  0  0  0  2  0  0  0  0  0  0
  185.0400  180.1770  143.1960 F   0  0  0  0  0  0  0  0  0  0  0  0
  183.6580  178.8400  145.4690 C   0  0  0  0  0  2  0  0  0  0  0  0
  185.9630  178.0260  143.6640 C   0  0  0  0  0  2  0  0  0  0  0  0
  182.2770  179.1450  143.4010 C   0  0  0  0  0  0  0  0  0  0  0  0
  182.0610  180.3790  143.5630 O   0  0  0  0  0  1  0  0  0  0  0  0
  181.3860  178.3790  142.6590 O   0  0  0  0  0  0  0  0  0  0  0  0
  1 24  1  0  0  0  0
  1 37  1  1  0  0  0
  3  2  1  6  0  0  0
  3  4  1  0  0  0  0
  3  1  1  0  0  0  0
  4  6  1  6  0  0  0
  5  3  1  0  0  0  0
  5  4  1  0  0  0  0
  7  8  1  0  0  0  0
  9 11  1  1  0  0  0
  9 18  1  0  0  0  0
  9 14  1  0  0  0  0
 11 12  1  0  0  0  0
 12  6  1  6  0  0  0
 12 15  1  0  0  0  0
 13  8  1  0  0  0  0
 14 13  1  6  0  0  0
 14  8  1  0  0  0  0
 14 15  1  0  0  0  0
 15 10  2  0  0  0  0
 16 20  2  0  0  0  0
 17 16  1  0  0  0  0
 18 19  1  6  0  0  0
 18 21  1  0  0  0  0
 19 16  1  0  0  0  0
 20 22  1  0  0  0  0
 21 22  1  0  0  0  0
 23 25  1  0  0  0  0
 23 24  1  0  0  0  0
 25 26  1  6  0  0  0
 25 24  1  0  0  0  0
 26 27  1  0  0  0  0
 28 27  1  6  0  0  0
 28 29  1  0  0  0  0
 28 30  1  0  0  0  0
 29 32  1  6  0  0  0
 29 30  1  0  0  0  0
 32 31  1  1  0  0  0
 33 32  1  0  0  0  0
 34 33  1  0  0  0  0
 35 34  1  0  0  0  0
 36 38  1  0  0  0  0
 37 36  2  0  0  0  0
 38 44  1  0  0  0  0
 39 40  1  0  0  0  0
 40 46  1  6  0  0  0
 41 43  2  0  0  0  0
 42 41  1  0  0  0  0
 43 40  1  0  0  0  0
 43 51  1  0  0  0  0
 44 42  2  0  0  0  0
 44 45  1  0  0  0  0
 45 39  2  0  0  0  0
 46 48  1  0  0  0  0
 47 48  1  0  0  0  0
 49 47  2  0  0  0  0
 50 46  2  0  0  0  0
 50 49  1  0  0  0  0
 52 51  1  1  0  0  0
 52 55  1  0  0  0  0
 53 56  1  1  0  0  0
 53 58  1  0  0  0  0
 53 54  1  0  0  0  0
 54 59  1  6  0  0  0
 54 57  1  0  0  0  0
 57 55  1  0  0  0  0
 58 52  1  0  0  0  0
 59 60  1  0  0  0  0
 61 59  2  0  0  0  0
M  END
>  <MODEL>
5

>  <REMARK>
 VINA RESULT:      -7.8      2.122      2.761
  Name = 
  18 active torsions:
  status: ('A' for Active; 'I' for Inactive)
    1  A    between atoms: C_1  and  C_6
    2  A    between atoms: C_1  and  C_45
    3  A    between atoms: C_7  and  C_23
    4  A    between atoms: C_8  and  C_19
    5  A    between atoms: C_8  and  C_42
    6  A    between atoms: C_10  and  C_20
    7  A    between atoms: C_11  and  C_12
    8  A    between atoms: C_14  and  C_15
    9  A    between atoms: C_23  and  C_43
   10  A    between atoms: C_24  and  C_51
   11  A    between atoms: C_25  and  C_32
   12  A    between atoms: N_30  and  C_32
   13  A    between atoms: C_32  and  C_33
   14  A    between atoms: C_41  and  C_59
   15  A    between atoms: C_42  and  C_46
   16  A    between atoms: C_51  and  C_52
   17  A    between atoms: C_52  and  C_54
   18  A    between atoms: C_53  and  C_59
                            x       y       z     vdW  Elec       q    Type
                         _______ _______ _______ _____ _____    ______ ____

>  <TORSDO>
F 18

$$$$
=
 OpenBabel10232407503D

 61 69  0  0  1  0  0  0  0  0999 V2000
  189.0140  176.7140  137.0280 C   0  0  1  0  0  3  0  0  0  0  0  0
  190.0420  177.0440  134.6020 C   0  0  0  0  0  1  0  0  0  0  0  0
  189.9080  176.2210  135.8820 C   0  0  1  0  0  0  0  0  0  0  0  0
  190.9250  175.2010  136.2500 C   0  0  1  0  0  3  0  0  0  0  0  0
  189.7170  174.8550  135.6050 O   0  0  0  0  0  0  0  0  0  0  0  0
  192.0820  175.1000  135.2610 C   0  0  0  0  0  2  0  0  0  0  0  0
  197.9290  175.1410  135.6970 C   0  0  0  0  0  1  0  0  0  0  0  0
  196.7460  175.8040  136.2290 N   0  0  0  0  0  0  0  0  0  0  0  0
  195.3520  173.8480  134.9980 C   0  0  1  0  0  3  0  0  0  0  0  0
  194.0240  176.1230  137.3830 O   0  0  0  0  0  0  0  0  0  0  0  0
  193.9450  173.6230  134.8880 O   0  0  0  0  0  0  0  0  0  0  0  0
  193.2640  174.3800  135.8910 C   0  0  1  0  0  3  0  0  0  0  0  0
  195.9560  176.2300  135.0560 C   0  0  0  0  0  2  0  0  0  0  0  0
  195.5100  175.0880  135.8420 C   0  0  2  0  0  0  0  0  0  0  0  0
  194.2360  175.3420  136.4690 C   0  0  0  0  0  0  0  0  0  0  0  0
  196.0820  170.1180  135.7190 C   0  0  0  0  0  0  0  0  0  0  0  0
  195.9050  168.9100  135.1310 F   0  0  0  0  0  0  0  0  0  0  0  0
  196.0640  172.6510  135.6510 C   0  0  2  0  0  3  0  0  0  0  0  0
  195.5610  171.3510  135.0160 C   0  0  0  0  0  2  0  0  0  0  0  0
  196.5540  170.1600  136.9760 C   0  0  0  0  0  3  0  0  0  0  0  0
  195.8950  172.5700  137.1690 C   0  0  0  0  0  2  0  0  0  0  0  0
  196.7860  171.4550  137.7090 C   0  0  0  0  0  2  0  0  0  0  0  0
  190.8250  177.7080  138.2140 C   0  0  0  0  0  2  0  0  0  0  0  0
  189.5120  177.9730  137.5990 N   0  0  0  0  0  0  0  0  0  0  0  0
  189.6750  177.9350  139.0800 C   0  0  1  0  0  3  0  0  0  0  0  0
  189.2740  176.6200  139.7540 C   0  0  0  0  0  2  0  0  0  0  0  0
  189.8020  176.5880  141.1730 C   0  0  0  0  0  2  0  0  0  0  0  0
  189.9790  178.0140  141.6760 C   0  0  2  0  0  3  0  0  0  0  0  0
  190.2070  178.1710  143.1880 C   0  0  1  0  0  3  0  0  0  0  0  0
  188.8200  178.3640  142.5880 C   0  0  0  0  0  2  0  0  0  0  0  0
  189.2000  176.5190  144.6630 O   0  0  0  0  0  1  0  0  0  0  0  0
  190.3870  176.8710  144.0130 C   0  0  2  0  0  3  0  0  0  0  0  0
  191.5710  176.8450  144.9860 C   0  0  0  0  0  2  0  0  0  0  0  0
  191.0930  176.6220  146.4150 C   0  0  0  0  0  2  0  0  0  0  0  0
  192.1830  176.5710  147.2790 O   0  0  0  0  0  1  0  0  0  0  0  0
  186.6790  175.8860  136.7890 C   0  0  0  0  0  3  0  0  0  0  0  0
  187.5760  176.8600  136.6110 C   0  0  0  0  0  3  0  0  0  0  0  0
  185.2490  176.0520  136.3750 C   0  0  0  0  0  2  0  0  0  0  0  0
  182.3370  175.6980  138.7760 C   0  0  0  0  0  3  0  0  0  0  0  0
  181.7930  177.0580  139.0810 C   0  0  1  0  0  3  0  0  0  0  0  0
  183.9640  178.2830  139.2250 C   0  0  0  0  0  3  0  0  0  0  0  0
  184.6130  177.6620  138.0590 C   0  0  0  0  0  3  0  0  0  0  0  0
  182.7690  177.9860  139.7390 C   0  0  0  0  0  0  0  0  0  0  0  0
  184.3790  176.4570  137.5220 C   0  0  0  0  0  0  0  0  0  0  0  0
  183.4410  175.4530  138.0690 C   0  0  0  0  0  3  0  0  0  0  0  0
  181.0770  177.6870  137.9220 C   0  0  0  0  0  0  0  0  0  0  0  0
  179.9900  178.1200  135.9860 N   0  0  0  0  0  0  0  0  0  0  0  0
  180.5030  176.9870  136.7370 C   0  0  0  0  0  3  0  0  0  0  0  0
  180.2360  179.1960  136.6140 N   0  0  0  0  0  0  0  0  0  0  0  0
  180.9120  178.9590  137.8120 N   0  0  0  0  0  2  0  0  0  0  0  0
  182.2840  178.7680  140.9200 C   0  0  0  0  0  2  0  0  0  0  0  0
  183.0670  178.4910  142.2060 C   0  0  1  0  0  3  0  0  0  0  0  0
  183.3970  179.3970  144.5920 C   0  0  1  0  0  3  0  0  0  0  0  0
  184.5250  178.3560  144.6000 C   0  0  1  0  0  3  0  0  0  0  0  0
  184.5520  178.8450  142.0790 C   0  0  0  0  0  2  0  0  0  0  0  0
  183.9130  180.6790  144.4770 F   0  0  0  0  0  0  0  0  0  0  0  0
  185.3460  178.3500  143.3000 C   0  0  0  0  0  2  0  0  0  0  0  0
  182.4150  179.1350  143.4420 C   0  0  0  0  0  2  0  0  0  0  0  0
  185.4040  178.4950  145.8010 C   0  0  0  0  0  0  0  0  0  0  0  0
  184.9040  178.6670  146.9470 O   0  0  0  0  0  1  0  0  0  0  0  0
  186.7830  178.4070  145.6540 O   0  0  0  0  0  0  0  0  0  0  0  0
  1 37  1  6  0  0  0
  1 24  1  0  0  0  0
  3  2  1  6  0  0  0
  3  4  1  0  0  0  0
  3  1  1  0  0  0  0
  4  6  1  6  0  0  0
  5  3  1  0  0  0  0
  5  4  1  0  0  0  0
  7  8  1  0  0  0  0
  9 11  1  1  0  0  0
  9 18  1  0  0  0  0
  9 14  1  0  0  0  0
 11 12  1  0  0  0  0
 12  6  1  6  0  0  0
 12 15  1  0  0  0  0
 13  8  1  0  0  0  0
 14 13  1  6  0  0  0
 14  8  1  0  0  0  0
 14 15  1  0  0  0  0
 15 10  2  0  0  0  0
 16 20  2  0  0  0  0
 17 16  1  0  0  0  0
 18 19  1  6  0  0  0
 18 21  1  0  0  0  0
 19 16  1  0  0  0  0
 20 22  1  0  0  0  0
 21 22  1  0  0  0  0
 23 25  1  0  0  0  0
 24 23  1  0  0  0  0
 24 25  1  0  0  0  0
 25 26  1  6  0  0  0
 26 27  1  0  0  0  0
 28 27  1  1  0  0  0
 28 30  1  0  0  0  0
 28 29  1  0  0  0  0
 29 32  1  1  0  0  0
 30 29  1  0  0  0  0
 32 31  1  1  0  0  0
 32 33  1  0  0  0  0
 33 34  1  0  0  0  0
 34 35  1  0  0  0  0
 37 36  2  0  0  0  0
 38 36  1  0  0  0  0
 38 44  1  0  0  0  0
 39 40  1  0  0  0  0
 40 46  1  6  0  0  0
 40 43  1  0  0  0  0
 41 43  2  0  0  0  0
 42 41  1  0  0  0  0
 43 51  1  0  0  0  0
 44 42  2  0  0  0  0
 44 45  1  0  0  0  0
 45 39  2  0  0  0  0
 47 49  2  0  0  0  0
 47 48  1  0  0  0  0
 48 46  2  0  0  0  0
 49 50  1  0  0  0  0
 50 46  1  0  0  0  0
 52 51  1  6  0  0  0
 52 58  1  0  0  0  0
 53 56  1  6  0  0  0
 53 54  1  0  0  0  0
 54 59  1  1  0  0  0
 55 52  1  0  0  0  0
 55 57  1  0  0  0  0
 57 54  1  0  0  0  0
 58 53  1  0  0  0  0
 59 60  1  0  0  0  0
 61 59  2  0  0  0  0
M  END
>  <MODEL>
6

>  <REMARK>
 VINA RESULT:      -7.7      3.358      7.031
  Name = 
  18 active torsions:
  status: ('A' for Active; 'I' for Inactive)
    1  A    between atoms: C_1  and  C_6
    2  A    between atoms: C_1  and  C_45
    3  A    between atoms: C_7  and  C_23
    4  A    between atoms: C_8  and  C_19
    5  A    between atoms: C_8  and  C_42
    6  A    between atoms: C_10  and  C_20
    7  A    between atoms: C_11  and  C_12
    8  A    between atoms: C_14  and  C_15
    9  A    between atoms: C_23  and  C_43
   10  A    between atoms: C_24  and  C_51
   11  A    between atoms: C_25  and  C_32
   12  A    between atoms: N_30  and  C_32
   13  A    between atoms: C_32  and  C_33
   14  A    between atoms: C_41  and  C_59
   15  A    between atoms: C_42  and  C_46
   16  A    between atoms: C_51  and  C_52
   17  A    between atoms: C_52  and  C_54
   18  A    between atoms: C_53  and  C_59
                            x       y       z     vdW  Elec       q    Type
                         _______ _______ _______ _____ _____    ______ ____

>  <TORSDO>
F 18

$$$$
=
 OpenBabel10232407503D

 61 69  0  0  1  0  0  0  0  0999 V2000
  189.3450  176.5180  137.3690 C   0  0  1  0  0  3  0  0  0  0  0  0
  189.9960  175.9170  134.8660 C   0  0  0  0  0  1  0  0  0  0  0  0
  190.3430  175.9460  136.3530 C   0  0  1  0  0  0  0  0  0  0  0  0
  191.7530  175.8540  136.8150 C   0  0  1  0  0  3  0  0  0  0  0  0
  190.9020  174.7280  136.7810 O   0  0  0  0  0  0  0  0  0  0  0  0
  192.7690  175.7650  135.6810 C   0  0  0  0  0  2  0  0  0  0  0  0
  195.5760  170.9790  137.5780 C   0  0  0  0  0  1  0  0  0  0  0  0
  195.1450  171.6310  136.3470 N   0  0  0  0  0  0  0  0  0  0  0  0
  194.5850  173.7550  137.9160 C   0  0  1  0  0  3  0  0  0  0  0  0
  194.7000  173.8020  134.3640 O   0  0  0  0  0  0  0  0  0  0  0  0
  194.0110  175.0270  137.6050 O   0  0  0  0  0  0  0  0  0  0  0  0
  194.1070  175.2590  136.1980 C   0  0  1  0  0  3  0  0  0  0  0  0
  193.7090  171.9270  136.5240 C   0  0  0  0  0  2  0  0  0  0  0  0
  194.6780  173.0120  136.6070 C   0  0  2  0  0  0  0  0  0  0  0  0
  194.4840  173.9760  135.5520 C   0  0  0  0  0  0  0  0  0  0  0  0
  197.2440  175.2190  140.3130 C   0  0  0  0  0  0  0  0  0  0  0  0
  197.3010  175.8840  141.4920 F   0  0  0  0  0  0  0  0  0  0  0  0
  195.9740  173.9050  138.5570 C   0  0  2  0  0  3  0  0  0  0  0  0
  195.8890  174.8810  139.7350 C   0  0  0  0  0  2  0  0  0  0  0  0
  198.3800  175.0390  139.6190 C   0  0  0  0  0  3  0  0  0  0  0  0
  197.0650  174.3730  137.5930 C   0  0  0  0  0  2  0  0  0  0  0  0
  198.4150  174.3090  138.3020 C   0  0  0  0  0  2  0  0  0  0  0  0
  190.8640  177.7440  138.7340 C   0  0  0  0  0  2  0  0  0  0  0  0
  189.7290  177.8690  137.8020 N   0  0  0  0  0  0  0  0  0  0  0  0
  189.5530  178.1000  139.2640 C   0  0  1  0  0  3  0  0  0  0  0  0
  188.9830  176.9200  140.0540 C   0  0  0  0  0  2  0  0  0  0  0  0
  188.9680  177.2500  141.5330 C   0  0  0  0  0  2  0  0  0  0  0  0
  189.8680  176.2720  142.2750 C   0  0  2  0  0  3  0  0  0  0  0  0
  190.4600  176.7760  143.6020 C   0  0  1  0  0  3  0  0  0  0  0  0
  191.2760  176.8290  142.3170 C   0  0  0  0  0  2  0  0  0  0  0  0
  190.8690  179.1660  143.7970 O   0  0  0  0  0  1  0  0  0  0  0  0
  189.9630  178.1510  144.1180 C   0  0  2  0  0  3  0  0  0  0  0  0
  189.5710  178.2170  145.5980 C   0  0  0  0  0  2  0  0  0  0  0  0
  189.9130  176.9140  146.3080 C   0  0  0  0  0  2  0  0  0  0  0  0
  191.1520  177.0210  146.9320 O   0  0  0  0  0  1  0  0  0  0  0  0
  187.1100  175.4780  137.0260 C   0  0  0  0  0  3  0  0  0  0  0  0
  187.9340  176.5150  136.8490 C   0  0  0  0  0  3  0  0  0  0  0  0
  185.7040  175.4960  136.5080 C   0  0  0  0  0  2  0  0  0  0  0  0
  182.7610  175.7280  138.8850 C   0  0  0  0  0  3  0  0  0  0  0  0
  182.1000  177.0590  138.7110 C   0  0  1  0  0  3  0  0  0  0  0  0
  184.1620  178.4410  138.4320 C   0  0  0  0  0  3  0  0  0  0  0  0
  184.8920  177.5210  137.5460 C   0  0  0  0  0  3  0  0  0  0  0  0
  182.9790  178.2340  139.0170 C   0  0  0  0  0  0  0  0  0  0  0  0
  184.7710  176.1890  137.4490 C   0  0  0  0  0  0  0  0  0  0  0  0
  183.9010  175.3530  138.3040 C   0  0  0  0  0  3  0  0  0  0  0  0
  181.3710  177.1960  137.4070 C   0  0  0  0  0  0  0  0  0  0  0  0
  180.4010  177.9320  135.5000 N   0  0  0  0  0  0  0  0  0  0  0  0
  181.2100  178.4370  136.5970 C   0  0  0  0  0  3  0  0  0  0  0  0
  180.1650  176.6960  135.6770 N   0  0  0  0  0  0  0  0  0  0  0  0
  180.7480  176.2160  136.8500 N   0  0  0  0  0  2  0  0  0  0  0  0
  182.3990  179.3250  139.8620 C   0  0  0  0  0  2  0  0  0  0  0  0
  183.0240  179.4210  141.2560 C   0  0  1  0  0  3  0  0  0  0  0  0
  185.1010  178.6800  142.5820 C   0  0  1  0  0  3  0  0  0  0  0  0
  184.2880  179.2460  143.7550 C   0  0  1  0  0  3  0  0  0  0  0  0
  182.2990  178.5500  142.2870 C   0  0  0  0  0  2  0  0  0  0  0  0
  185.0990  177.2940  142.6080 F   0  0  0  0  0  0  0  0  0  0  0  0
  182.8060  178.8390  143.7110 C   0  0  0  0  0  2  0  0  0  0  0  0
  184.5420  179.1690  141.2390 C   0  0  0  0  0  2  0  0  0  0  0  0
  184.9070  178.9130  145.0750 C   0  0  0  0  0  0  0  0  0  0  0  0
  186.1570  178.7690  145.1810 O   0  0  0  0  0  0  0  0  0  0  0  0
  184.0990  178.7890  146.1980 O   0  0  0  0  0  1  0  0  0  0  0  0
  1 37  1  6  0  0  0
  1 24  1  0  0  0  0
  3  2  1  6  0  0  0
  3  5  1  0  0  0  0
  3  4  1  0  0  0  0
  3  1  1  0  0  0  0
  4  6  1  6  0  0  0
  5  4  1  0  0  0  0
  8 13  1  0  0  0  0
  8 14  1  0  0  0  0
  8  7  1  0  0  0  0
  9 11  1  6  0  0  0
  9 18  1  0  0  0  0
 10 15  2  0  0  0  0
 12  6  1  6  0  0  0
 12 11  1  0  0  0  0
 14 13  1  1  0  0  0
 14  9  1  0  0  0  0
 15 12  1  0  0  0  0
 15 14  1  0  0  0  0
 16 17  1  0  0  0  0
 18 21  1  6  0  0  0
 18 19  1  0  0  0  0
 19 16  1  0  0  0  0
 20 16  2  0  0  0  0
 21 22  1  0  0  0  0
 22 20  1  0  0  0  0
 23 25  1  0  0  0  0
 24 23  1  0  0  0  0
 24 25  1  0  0  0  0
 25 26  1  1  0  0  0
 26 27  1  0  0  0  0
 28 27  1  6  0  0  0
 28 30  1  0  0  0  0
 28 29  1  0  0  0  0
 29 32  1  6  0  0  0
 30 29  1  0  0  0  0
 32 31  1  1  0  0  0
 32 33  1  0  0  0  0
 33 34  1  0  0  0  0
 34 35  1  0  0  0  0
 37 36  2  0  0  0  0
 38 36  1  0  0  0  0
 38 44  1  0  0  0  0
 40 46  1  6  0  0  0
 40 39  1  0  0  0  0
 40 43  1  0  0  0  0
 41 43  2  0  0  0  0
 42 41  1  0  0  0  0
 43 51  1  0  0  0  0
 44 42  2  0  0  0  0
 44 45  1  0  0  0  0
 45 39  2  0  0  0  0
 47 49  2  0  0  0  0
 47 48  1  0  0  0  0
 48 46  2  0  0  0  0
 49 50  1  0  0  0  0
 50 46  1  0  0  0  0
 52 51  1  6  0  0  0
 52 55  1  0  0  0  0
 53 56  1  6  0  0  0
 53 54  1  0  0  0  0
 54 59  1  1  0  0  0
 55 57  1  0  0  0  0
 57 54  1  0  0  0  0
 58 52  1  0  0  0  0
 58 53  1  0  0  0  0
 59 60  2  0  0  0  0
 59 61  1  0  0  0  0
M  END
>  <MODEL>
7

>  <REMARK>
 VINA RESULT:      -7.6      2.869      6.581
  Name = 
  18 active torsions:
  status: ('A' for Active; 'I' for Inactive)
    1  A    between atoms: C_1  and  C_6
    2  A    between atoms: C_1  and  C_45
    3  A    between atoms: C_7  and  C_23
    4  A    between atoms: C_8  and  C_19
    5  A    between atoms: C_8  and  C_42
    6  A    between atoms: C_10  and  C_20
    7  A    between atoms: C_11  and  C_12
    8  A    between atoms: C_14  and  C_15
    9  A    between atoms: C_23  and  C_43
   10  A    between atoms: C_24  and  C_51
   11  A    between atoms: C_25  and  C_32
   12  A    between atoms: N_30  and  C_32
   13  A    between atoms: C_32  and  C_33
   14  A    between atoms: C_41  and  C_59
   15  A    between atoms: C_42  and  C_46
   16  A    between atoms: C_51  and  C_52
   17  A    between atoms: C_52  and  C_54
   18  A    between atoms: C_53  and  C_59
                            x       y       z     vdW  Elec       q    Type
                         _______ _______ _______ _____ _____    ______ ____

>  <TORSDO>
F 18

$$$$
=
 OpenBabel10232407503D

 61 69  0  0  1  0  0  0  0  0999 V2000
  186.2270  178.2760  144.9830 C   0  0  1  0  0  3  0  0  0  0  0  0
  184.7000  180.3780  144.4360 C   0  0  0  0  0  1  0  0  0  0  0  0
  185.1090  178.9330  144.1610 C   0  0  1  0  0  0  0  0  0  0  0  0
  184.7900  178.2770  142.8660 C   0  0  1  0  0  3  0  0  0  0  0  0
  183.9900  178.0930  144.0150 O   0  0  0  0  0  0  0  0  0  0  0  0
  184.0680  179.1860  141.8760 C   0  0  0  0  0  2  0  0  0  0  0  0
  180.6900  179.0870  137.0850 C   0  0  0  0  0  1  0  0  0  0  0  0
  181.8100  179.8120  137.6700 N   0  0  0  0  0  0  0  0  0  0  0  0
  181.8660  177.8290  139.5010 C   0  0  1  0  0  3  0  0  0  0  0  0
  184.4080  180.2700  139.0430 O   0  0  0  0  0  0  0  0  0  0  0  0
  182.6880  177.6380  140.6540 O   0  0  0  0  0  0  0  0  0  0  0  0
  183.8470  178.4690  140.5530 C   0  0  1  0  0  3  0  0  0  0  0  0
  181.3820  180.1930  139.0310 C   0  0  0  0  0  2  0  0  0  0  0  0
  182.3400  179.1100  138.8600 C   0  0  2  0  0  0  0  0  0  0  0  0
  183.6160  179.4340  139.4490 C   0  0  0  0  0  0  0  0  0  0  0  0
  181.0350  174.3620  138.0000 C   0  0  0  0  0  0  0  0  0  0  0  0
  180.0100  173.4760  137.9810 F   0  0  0  0  0  0  0  0  0  0  0  0
  181.9890  176.6520  138.5200 C   0  0  2  0  0  3  0  0  0  0  0  0
  180.8820  175.6320  138.8050 C   0  0  0  0  0  2  0  0  0  0  0  0
  182.2070  174.0040  137.4500 C   0  0  0  0  0  3  0  0  0  0  0  0
  183.3450  175.9450  138.5530 C   0  0  0  0  0  2  0  0  0  0  0  0
  183.4000  174.9230  137.4210 C   0  0  0  0  0  2  0  0  0  0  0  0
  185.9510  178.8240  147.2840 C   0  0  0  0  0  2  0  0  0  0  0  0
  185.7280  177.7760  146.2720 N   0  0  0  0  0  0  0  0  0  0  0  0
  186.7890  177.6310  147.3080 C   0  0  1  0  0  3  0  0  0  0  0  0
  188.2060  177.9930  146.8550 C   0  0  0  0  0  2  0  0  0  0  0  0
  189.0670  176.7470  146.8170 C   0  0  0  0  0  2  0  0  0  0  0  0
  190.4220  177.0540  147.4390 C   0  0  2  0  0  3  0  0  0  0  0  0
  191.6370  176.9180  146.5060 C   0  0  1  0  0  3  0  0  0  0  0  0
  191.2570  175.7890  147.4540 C   0  0  0  0  0  2  0  0  0  0  0  0
  191.9820  175.4680  144.5840 O   0  0  0  0  0  1  0  0  0  0  0  0
  191.3480  176.6400  145.0090 C   0  0  2  0  0  3  0  0  0  0  0  0
  191.6280  177.7940  144.0400 C   0  0  0  0  0  2  0  0  0  0  0  0
  190.6130  178.9140  144.2230 C   0  0  0  0  0  2  0  0  0  0  0  0
  191.2300  180.1490  144.0520 O   0  0  0  0  0  1  0  0  0  0  0  0
  187.8900  177.4200  143.3410 C   0  0  0  0  0  3  0  0  0  0  0  0
  186.9220  177.1760  144.2280 C   0  0  0  0  0  3  0  0  0  0  0  0
  188.5780  176.3110  142.6040 C   0  0  0  0  0  2  0  0  0  0  0  0
  188.8700  178.4180  139.4670 C   0  0  0  0  0  3  0  0  0  0  0  0
  189.5210  177.6020  138.3940 C   0  0  1  0  0  3  0  0  0  0  0  0
  191.2140  176.4390  139.8140 C   0  0  0  0  0  3  0  0  0  0  0  0
  190.3360  176.1410  140.9560 C   0  0  0  0  0  3  0  0  0  0  0  0
  190.9090  177.1400  138.7190 C   0  0  0  0  0  0  0  0  0  0  0  0
  189.2360  176.7970  141.3520 C   0  0  0  0  0  0  0  0  0  0  0  0
  188.7240  178.0400  140.7370 C   0  0  0  0  0  3  0  0  0  0  0  0
  188.6450  176.5030  137.8680 C   0  0  0  0  0  0  0  0  0  0  0  0
  187.8060  174.6030  136.9720 N   0  0  0  0  0  0  0  0  0  0  0  0
  189.0880  175.1800  137.3420 C   0  0  0  0  0  3  0  0  0  0  0  0
  186.8750  175.4290  137.2290 N   0  0  0  0  0  0  0  0  0  0  0  0
  187.3650  176.6140  137.7790 N   0  0  0  0  0  2  0  0  0  0  0  0
  191.9530  177.2990  137.6580 C   0  0  0  0  0  2  0  0  0  0  0  0
  192.2760  176.0000  136.9140 C   0  0  1  0  0  3  0  0  0  0  0  0
  193.3940  173.7090  137.2660 C   0  0  1  0  0  3  0  0  0  0  0  0
  193.1890  173.6170  135.7470 C   0  0  1  0  0  3  0  0  0  0  0  0
  193.4040  176.1730  135.8920 C   0  0  0  0  0  2  0  0  0  0  0  0
  194.7270  173.9440  137.5670 F   0  0  0  0  0  0  0  0  0  0  0  0
  193.5510  174.9190  135.0120 C   0  0  0  0  0  2  0  0  0  0  0  0
  192.5270  174.8210  137.8710 C   0  0  0  0  0  2  0  0  0  0  0  0
  193.9010  172.4430  135.1580 C   0  0  0  0  0  0  0  0  0  0  0  0
  193.2920  171.3530  134.9640 O   0  0  0  0  0  1  0  0  0  0  0  0
  195.2370  172.5610  134.7960 O   0  0  0  0  0  0  0  0  0  0  0  0
  1 37  1  6  0  0  0
  1 24  1  0  0  0  0
  3  2  1  1  0  0  0
  3  1  1  0  0  0  0
  4  6  1  6  0  0  0
  4  5  1  0  0  0  0
  4  3  1  0  0  0  0
  5  3  1  0  0  0  0
  7  8  1  0  0  0  0
  8 14  1  0  0  0  0
  8 13  1  0  0  0  0
  9 11  1  1  0  0  0
 10 15  2  0  0  0  0
 12 11  1  0  0  0  0
 12  6  1  1  0  0  0
 14 13  1  1  0  0  0
 14 15  1  0  0  0  0
 14  9  1  0  0  0  0
 15 12  1  0  0  0  0
 16 19  1  0  0  0  0
 17 16  1  0  0  0  0
 18 21  1  1  0  0  0
 18 19  1  0  0  0  0
 18  9  1  0  0  0  0
 20 16  2  0  0  0  0
 22 20  1  0  0  0  0
 22 21  1  0  0  0  0
 23 25  1  0  0  0  0
 24 23  1  0  0  0  0
 24 25  1  0  0  0  0
 25 26  1  6  0  0  0
 27 26  1  0  0  0  0
 28 27  1  6  0  0  0
 28 30  1  0  0  0  0
 29 32  1  6  0  0  0
 29 28  1  0  0  0  0
 29 30  1  0  0  0  0
 32 31  1  6  0  0  0
 33 34  1  0  0  0  0
 33 32  1  0  0  0  0
 35 34  1  0  0  0  0
 36 37  2  0  0  0  0
 38 36  1  0  0  0  0
 39 45  2  0  0  0  0
 40 46  1  1  0  0  0
 40 43  1  0  0  0  0
 40 39  1  0  0  0  0
 41 42  1  0  0  0  0
 42 44  2  0  0  0  0
 43 41  2  0  0  0  0
 44 38  1  0  0  0  0
 45 44  1  0  0  0  0
 47 49  2  0  0  0  0
 47 48  1  0  0  0  0
 48 46  2  0  0  0  0
 49 50  1  0  0  0  0
 50 46  1  0  0  0  0
 51 43  1  0  0  0  0
 52 51  1  1  0  0  0
 52 58  1  0  0  0  0
 53 56  1  6  0  0  0
 53 58  1  0  0  0  0
 54 59  1  6  0  0  0
 54 53  1  0  0  0  0
 55 52  1  0  0  0  0
 57 54  1  0  0  0  0
 57 55  1  0  0  0  0
 60 59  1  0  0  0  0
 61 59  2  0  0  0  0
M  END
>  <MODEL>
8

>  <REMARK>
 VINA RESULT:      -7.5      3.272     11.709
  Name = 
  18 active torsions:
  status: ('A' for Active; 'I' for Inactive)
    1  A    between atoms: C_1  and  C_6
    2  A    between atoms: C_1  and  C_45
    3  A    between atoms: C_7  and  C_23
    4  A    between atoms: C_8  and  C_19
    5  A    between atoms: C_8  and  C_42
    6  A    between atoms: C_10  and  C_20
    7  A    between atoms: C_11  and  C_12
    8  A    between atoms: C_14  and  C_15
    9  A    between atoms: C_23  and  C_43
   10  A    between atoms: C_24  and  C_51
   11  A    between atoms: C_25  and  C_32
   12  A    between atoms: N_30  and  C_32
   13  A    between atoms: C_32  and  C_33
   14  A    between atoms: C_41  and  C_59
   15  A    between atoms: C_42  and  C_46
   16  A    between atoms: C_51  and  C_52
   17  A    between atoms: C_52  and  C_54
   18  A    between atoms: C_53  and  C_59
                            x       y       z     vdW  Elec       q    Type
                         _______ _______ _______ _____ _____    ______ ____

>  <TORSDO>
F 18

$$$$
=
 OpenBabel10232407503D

 61 69  0  0  1  0  0  0  0  0999 V2000
  187.0590  178.2640  142.5190 C   0  0  1  0  0  3  0  0  0  0  0  0
  185.2290  178.4720  144.4310 C   0  0  0  0  0  1  0  0  0  0  0  0
  185.5890  178.3420  142.9530 C   0  0  1  0  0  0  0  0  0  0  0  0
  184.6220  178.7210  141.8900 C   0  0  1  0  0  3  0  0  0  0  0  0
  184.7900  177.3820  142.3050 O   0  0  0  0  0  0  0  0  0  0  0  0
  183.3000  179.2630  142.4240 C   0  0  0  0  0  2  0  0  0  0  0  0
  180.4430  176.1580  138.3520 C   0  0  0  0  0  1  0  0  0  0  0  0
  180.4220  176.4500  139.7800 N   0  0  0  0  0  0  0  0  0  0  0  0
  182.2340  178.3660  139.2010 C   0  0  1  0  0  3  0  0  0  0  0  0
  180.5040  178.0450  142.2890 O   0  0  0  0  0  0  0  0  0  0  0  0
  182.9380  179.2790  140.0450 O   0  0  0  0  0  0  0  0  0  0  0  0
  182.2730  179.3670  141.3070 C   0  0  1  0  0  3  0  0  0  0  0  0
  181.7920  176.1960  140.2680 C   0  0  0  0  0  2  0  0  0  0  0  0
  181.3330  177.5690  140.1110 C   0  0  2  0  0  0  0  0  0  0  0  0
  181.2870  178.2590  141.3770 C   0  0  0  0  0  0  0  0  0  0  0  0
  181.1840  179.4130  135.6270 C   0  0  0  0  0  0  0  0  0  0  0  0
  181.2770  178.9480  134.3580 F   0  0  0  0  0  0  0  0  0  0  0  0
  181.4110  179.1060  138.1330 C   0  0  2  0  0  3  0  0  0  0  0  0
  181.8210  178.6130  136.7410 C   0  0  0  0  0  2  0  0  0  0  0  0
  180.6870  180.6450  135.8280 C   0  0  0  0  0  3  0  0  0  0  0  0
  181.5360  180.6290  138.1860 C   0  0  0  0  0  2  0  0  0  0  0  0
  180.5440  181.2440  137.2030 C   0  0  0  0  0  2  0  0  0  0  0  0
  187.5990  176.6180  144.1540 C   0  0  0  0  0  2  0  0  0  0  0  0
  187.6090  176.9150  142.7100 N   0  0  0  0  0  0  0  0  0  0  0  0
  188.8730  176.8900  143.4990 C   0  0  1  0  0  3  0  0  0  0  0  0
  189.3970  178.2570  143.9480 C   0  0  0  0  0  2  0  0  0  0  0  0
  190.7070  178.0880  144.6890 C   0  0  0  0  0  2  0  0  0  0  0  0
  190.9110  176.6160  145.0190 C   0  0  2  0  0  3  0  0  0  0  0  0
  190.5180  176.1850  146.4420 C   0  0  1  0  0  3  0  0  0  0  0  0
  191.9690  176.4930  146.0960 C   0  0  0  0  0  2  0  0  0  0  0  0
  190.6450  177.6380  148.3890 O   0  0  0  0  0  1  0  0  0  0  0  0
  189.8190  177.2450  147.3310 C   0  0  2  0  0  3  0  0  0  0  0  0
  188.4180  176.8850  147.8380 C   0  0  0  0  0  2  0  0  0  0  0  0
  187.7090  178.1140  148.3920 C   0  0  0  0  0  2  0  0  0  0  0  0
  186.6020  178.4200  147.6060 O   0  0  0  0  0  1  0  0  0  0  0  0
  188.3160  178.3360  140.3720 C   0  0  0  0  0  3  0  0  0  0  0  0
  187.2620  178.7160  141.0980 C   0  0  0  0  0  3  0  0  0  0  0  0
  188.4980  178.7890  138.9550 C   0  0  0  0  0  2  0  0  0  0  0  0
  188.9740  176.8830  135.7140 C   0  0  0  0  0  3  0  0  0  0  0  0
  189.0720  175.4220  136.0210 C   0  0  1  0  0  3  0  0  0  0  0  0
  190.4440  175.5900  138.1010 C   0  0  0  0  0  3  0  0  0  0  0  0
  189.7400  176.7330  138.7040 C   0  0  0  0  0  3  0  0  0  0  0  0
  190.2260  175.0470  136.9010 C   0  0  0  0  0  0  0  0  0  0  0  0
  189.0510  177.7040  138.0880 C   0  0  0  0  0  0  0  0  0  0  0  0
  188.9310  177.8580  136.6230 C   0  0  0  0  0  3  0  0  0  0  0  0
  187.7740  174.8180  136.4690 C   0  0  0  0  0  0  0  0  0  0  0  0
  186.0690  173.4380  137.0240 N   0  0  0  0  0  0  0  0  0  0  0  0
  187.4520  173.3670  136.5810 C   0  0  0  0  0  3  0  0  0  0  0  0
  185.7140  174.6540  137.1220 N   0  0  0  0  0  0  0  0  0  0  0  0
  186.7460  175.5290  136.7800 N   0  0  0  0  0  2  0  0  0  0  0  0
  191.0440  173.8610  136.4940 C   0  0  0  0  0  2  0  0  0  0  0  0
  192.4720  174.2150  136.0690 C   0  0  1  0  0  3  0  0  0  0  0  0
  194.8590  174.4090  137.0130 C   0  0  1  0  0  3  0  0  0  0  0  0
  195.1240  175.0210  135.6290 C   0  0  1  0  0  3  0  0  0  0  0  0
  192.6590  175.7160  135.8240 C   0  0  0  0  0  2  0  0  0  0  0  0
  194.8360  175.3950  137.9880 F   0  0  0  0  0  0  0  0  0  0  0  0
  194.0300  176.0070  135.1880 C   0  0  0  0  0  2  0  0  0  0  0  0
  193.5300  173.6420  137.0290 C   0  0  0  0  0  2  0  0  0  0  0  0
  196.4820  175.6390  135.5440 C   0  0  0  0  0  0  0  0  0  0  0  0
  196.6460  176.8660  135.7910 O   0  0  0  0  0  1  0  0  0  0  0  0
  197.5760  174.8480  135.2150 O   0  0  0  0  0  0  0  0  0  0  0  0
  1 37  1  6  0  0  0
  1 24  1  0  0  0  0
  1  3  1  0  0  0  0
  3  2  1  1  0  0  0
  4  5  1  0  0  0  0
  4  6  1  1  0  0  0
  4  3  1  0  0  0  0
  5  3  1  0  0  0  0
  7  8  1  0  0  0  0
  8 14  1  0  0  0  0
  8 13  1  0  0  0  0
  9 11  1  1  0  0  0
  9 14  1  0  0  0  0
 11 12  1  0  0  0  0
 12 15  1  0  0  0  0
 12  6  1  1  0  0  0
 14 13  1  1  0  0  0
 14 15  1  0  0  0  0
 15 10  2  0  0  0  0
 16 20  2  0  0  0  0
 16 19  1  0  0  0  0
 17 16  1  0  0  0  0
 18 19  1  6  0  0  0
 18 21  1  0  0  0  0
 18  9  1  0  0  0  0
 20 22  1  0  0  0  0
 22 21  1  0  0  0  0
 24 25  1  0  0  0  0
 24 23  1  0  0  0  0
 25 26  1  1  0  0  0
 25 23  1  0  0  0  0
 26 27  1  0  0  0  0
 28 27  1  1  0  0  0
 28 30  1  0  0  0  0
 28 29  1  0  0  0  0
 29 32  1  1  0  0  0
 30 29  1  0  0  0  0
 32 33  1  0  0  0  0
 32 31  1  1  0  0  0
 33 34  1  0  0  0  0
 35 34  1  0  0  0  0
 36 37  2  0  0  0  0
 38 36  1  0  0  0  0
 39 40  1  0  0  0  0
 39 45  2  0  0  0  0
 40 46  1  1  0  0  0
 40 43  1  0  0  0  0
 41 42  1  0  0  0  0
 43 41  2  0  0  0  0
 44 42  2  0  0  0  0
 44 38  1  0  0  0  0
 45 44  1  0  0  0  0
 46 48  2  0  0  0  0
 46 50  1  0  0  0  0
 47 49  2  0  0  0  0
 48 47  1  0  0  0  0
 50 49  1  0  0  0  0
 51 43  1  0  0  0  0
 52 51  1  1  0  0  0
 52 58  1  0  0  0  0
 53 58  1  0  0  0  0
 53 56  1  1  0  0  0
 54 59  1  1  0  0  0
 54 53  1  0  0  0  0
 55 52  1  0  0  0  0
 57 54  1  0  0  0  0
 57 55  1  0  0  0  0
 59 60  1  0  0  0  0
 61 59  2  0  0  0  0
M  END
>  <MODEL>
9

>  <REMARK>
 VINA RESULT:      -7.4      3.216     12.230
  Name = 
  18 active torsions:
  status: ('A' for Active; 'I' for Inactive)
    1  A    between atoms: C_1  and  C_6
    2  A    between atoms: C_1  and  C_45
    3  A    between atoms: C_7  and  C_23
    4  A    between atoms: C_8  and  C_19
    5  A    between atoms: C_8  and  C_42
    6  A    between atoms: C_10  and  C_20
    7  A    between atoms: C_11  and  C_12
    8  A    between atoms: C_14  and  C_15
    9  A    between atoms: C_23  and  C_43
   10  A    between atoms: C_24  and  C_51
   11  A    between atoms: C_25  and  C_32
   12  A    between atoms: N_30  and  C_32
   13  A    between atoms: C_32  and  C_33
   14  A    between atoms: C_41  and  C_59
   15  A    between atoms: C_42  and  C_46
   16  A    between atoms: C_51  and  C_52
   17  A    between atoms: C_52  and  C_54
   18  A    between atoms: C_53  and  C_59
                            x       y       z     vdW  Elec       q    Type
                         _______ _______ _______ _____ _____    ______ ____

>  <TORSDO>
F 18

$$$$
