=
 OpenBabel10222421513D

 54 62  0  0  1  0  0  0  0  0999 V2000
  186.9570  175.7730  136.4290 C   0  0  2  0  0  3  0  0  0  0  0  0
  188.3070  172.8280  134.4450 C   0  0  0  0  0  3  0  0  0  0  0  0
  183.5570  169.2320  135.7820 C   0  0  0  0  0  3  0  0  0  0  0  0
  186.2630  169.0140  135.0650 N   0  0  0  0  0  0  0  0  0  0  0  0
  185.6160  168.0140  135.6030 C   0  0  0  0  0  3  0  0  0  0  0  0
  184.3080  170.4060  135.3500 C   0  0  2  0  0  3  0  0  0  0  0  0
  185.5610  170.2070  134.5760 C   0  0  1  0  0  3  0  0  0  0  0  0
  187.5690  171.7660  134.3460 N   0  0  0  0  0  0  0  0  0  0  0  0
  186.2780  171.4760  134.8770 C   0  0  1  0  0  3  0  0  0  0  0  0
  186.9370  174.4080  135.8200 C   0  0  0  0  0  0  0  0  0  0  0  0
  184.1980  168.1010  135.8660 N   0  0  0  0  0  0  0  0  0  0  0  0
  185.4920  172.2750  135.5840 C   0  0  0  0  0  0  0  0  0  0  0  0
  184.2560  171.5880  135.9390 C   0  0  0  0  0  3  0  0  0  0  0  0
  187.9800  174.0350  135.1440 N   0  0  0  0  0  0  0  0  0  0  0  0
  185.7820  173.5920  136.0340 N   0  0  0  0  0  2  0  0  0  0  0  0
  188.0260  176.6900  138.4560 O   0  0  0  0  0  0  0  0  0  0  0  0
  189.4130  176.6260  136.5440 C   0  0  2  0  0  3  0  0  0  0  0  0
  188.2350  175.9600  137.2610 C   0  0  2  0  0  3  0  0  0  0  0  0
  190.2430  176.8650  137.7550 C   0  0  0  0  0  2  0  0  0  0  0  0
  188.8460  178.7350  137.5500 C   0  0  0  0  0  2  0  0  0  0  0  0
  189.0210  178.0660  136.1880 C   0  0  0  0  0  2  0  0  0  0  0  0
  189.1330  177.5700  138.4830 C   0  0  1  0  0  0  0  0  0  0  0  0
  189.4870  178.0230  139.8940 C   0  0  0  0  0  2  0  0  0  0  0  0
  188.4990  177.4800  140.9190 C   0  0  0  0  0  2  0  0  0  0  0  0
  190.8120  178.8260  143.8550 C   0  0  1  0  0  0  0  0  0  0  0  0
  190.2330  178.2350  142.6300 N   0  0  0  0  0  0  0  0  0  0  0  0
  191.4590  176.4060  143.8320 C   0  0  0  0  0  1  0  0  0  0  0  0
  191.5470  177.7990  143.2090 C   0  0  2  0  0  0  0  0  0  0  0  0
  188.6700  177.8430  144.7790 C   0  0  0  0  0  0  0  0  0  0  0  0
  188.9290  177.8190  142.3030 C   0  0  0  0  0  0  0  0  0  0  0  0
  192.1730  178.6850  144.0720 O   0  0  0  0  0  0  0  0  0  0  0  0
  189.9090  178.3870  144.9980 C   0  0  0  0  0  3  0  0  0  0  0  0
  188.1490  177.6070  143.3710 C   0  0  0  0  0  3  0  0  0  0  0  0
  188.5110  176.6140  146.9810 C   0  0  0  0  0  2  0  0  0  0  0  0
  187.7770  177.5170  145.9660 C   0  0  0  0  0  0  0  0  0  0  0  0
  189.2990  177.4360  148.0020 C   0  0  0  0  0  2  0  0  0  0  0  0
  188.3710  178.3200  148.8450 C   0  0  0  0  0  2  0  0  0  0  0  0
  187.2600  178.8150  146.6340 C   0  0  0  0  0  2  0  0  0  0  0  0
  186.5780  176.7380  145.4560 C   0  0  0  0  0  1  0  0  0  0  0  0
  187.0530  178.6660  148.1410 C   0  0  0  0  0  2  0  0  0  0  0  0
  185.6770  176.0120  137.2200 C   0  0  0  0  0  2  0  0  0  0  0  0
  184.9070  177.1710  136.6210 C   0  0  0  0  0  2  0  0  0  0  0  0
  183.4210  176.9050  136.7620 C   0  0  0  0  0  2  0  0  0  0  0  0
  182.7050  178.1470  137.2690 C   0  0  0  0  0  2  0  0  0  0  0  0
  181.6260  177.7960  138.2950 C   0  0  1  0  0  3  0  0  0  0  0  0
  181.5530  176.2880  138.4950 C   0  0  0  0  0  1  0  0  0  0  0  0
  181.7810  178.5510  139.6320 C   0  0  1  0  0  0  0  0  0  0  0  0
  180.8070  179.7160  139.6950 C   0  0  0  0  0  1  0  0  0  0  0  0
  181.4610  177.6770  140.6710 O   0  0  0  0  0  1  0  0  0  0  0  0
  183.2100  179.0560  139.8650 C   0  0  0  0  0  2  0  0  0  0  0  0
  183.7970  178.4580  140.9830 O   0  0  0  0  0  0  0  0  0  0  0  0
  185.5440  179.7090  141.7400 O   0  0  0  0  0  1  0  0  0  0  0  0
  185.1620  178.7100  140.8460 C   0  0  0  0  0  3  0  0  0  0  0  0
  185.4360  179.1200  139.5410 O   0  0  0  0  0  1  0  0  0  0  0  0
  1 41  1  1  0  0  0
  2 14  1  0  0  0  0
  3 11  2  0  0  0  0
  4  5  2  0  0  0  0
  5 11  1  0  0  0  0
  6  3  1  1  0  0  0
  6 13  1  0  0  0  0
  7  9  1  0  0  0  0
  7  4  1  1  0  0  0
  7  6  1  0  0  0  0
  8  2  2  0  0  0  0
  9  8  1  6  0  0  0
  9 12  1  0  0  0  0
 10 15  1  0  0  0  0
 10  1  1  0  0  0  0
 12 13  2  0  0  0  0
 12 15  1  0  0  0  0
 14 10  2  0  0  0  0
 16 22  1  0  0  0  0
 17 21  1  1  0  0  0
 17 18  1  0  0  0  0
 17 19  1  0  0  0  0
 18  1  1  6  0  0  0
 18 16  1  0  0  0  0
 19 22  1  0  0  0  0
 20 22  1  0  0  0  0
 21 20  1  0  0  0  0
 22 23  1  1  0  0  0
 23 24  1  0  0  0  0
 24 30  1  0  0  0  0
 25 31  1  0  0  0  0
 25 32  1  1  0  0  0
 26 28  1  0  0  0  0
 26 25  1  0  0  0  0
 28 27  1  1  0  0  0
 28 25  1  0  0  0  0
 28 31  1  0  0  0  0
 29 32  2  0  0  0  0
 29 35  1  0  0  0  0
 30 26  1  0  0  0  0
 30 33  2  0  0  0  0
 33 29  1  0  0  0  0
 34 36  1  0  0  0  0
 35 38  1  0  0  0  0
 35 34  1  0  0  0  0
 36 37  1  0  0  0  0
 38 40  1  0  0  0  0
 39 35  1  0  0  0  0
 40 37  1  0  0  0  0
 42 43  1  0  0  0  0
 42 41  1  0  0  0  0
 43 44  1  0  0  0  0
 44 45  1  0  0  0  0
 45 46  1  1  0  0  0
 45 47  1  0  0  0  0
 47 48  1  1  0  0  0
 47 50  1  0  0  0  0
 47 49  1  0  0  0  0
 50 51  1  0  0  0  0
 53 51  1  0  0  0  0
 53 52  1  0  0  0  0
 54 53  1  0  0  0  0
M  END
>  <MODEL>
1

>  <REMARK>
 VINA RESULT:      -8.0      0.000      0.000
  Name = 
  15 active torsions:
  status: ('A' for Active; 'I' for Inactive)
    1  A    between atoms: C_7  and  C_20
    2  A    between atoms: C_7  and  O_46
    3  A    between atoms: C_15  and  C_17
    4  A    between atoms: C_15  and  C_28
    5  A    between atoms: C_15  and  C_37
    6  A    between atoms: C_18  and  C_36
    7  A    between atoms: C_18  and  C_41
    8  A    between atoms: C_19  and  C_26
    9  A    between atoms: C_20  and  C_24
   10  A    between atoms: C_21  and  O_46
   11  A    between atoms: C_24  and  C_36
   12  A    between atoms: C_28  and  C_41
   13  A    between atoms: C_31  and  C_50
   14  A    between atoms: C_35  and  C_48
   15  A    between atoms: C_48  and  C_50
                            x       y       z     vdW  Elec       q    Type
                         _______ _______ _______ _____ _____    ______ ____

>  <TORSDO>
F 15

$$$$
=
 OpenBabel10222421513D

 54 62  0  0  1  0  0  0  0  0999 V2000
  188.7040  175.5110  136.1980 C   0  0  2  0  0  3  0  0  0  0  0  0
  190.3610  172.4200  134.7350 C   0  0  0  0  0  3  0  0  0  0  0  0
  195.6810  173.4460  137.5520 C   0  0  0  0  0  3  0  0  0  0  0  0
  194.6910  172.1460  135.2690 N   0  0  0  0  0  0  0  0  0  0  0  0
  195.9580  172.4420  135.3910 C   0  0  0  0  0  3  0  0  0  0  0  0
  194.2450  173.2830  137.3530 C   0  0  2  0  0  3  0  0  0  0  0  0
  193.7680  172.2420  136.4060 C   0  0  1  0  0  3  0  0  0  0  0  0
  191.5650  172.1300  135.1210 N   0  0  0  0  0  0  0  0  0  0  0  0
  192.4350  172.7930  136.0360 C   0  0  1  0  0  3  0  0  0  0  0  0
  189.7890  174.5000  136.0060 C   0  0  0  0  0  0  0  0  0  0  0  0
  196.4740  173.0110  136.6150 N   0  0  0  0  0  0  0  0  0  0  0  0
  192.1840  173.8740  136.7590 C   0  0  0  0  0  0  0  0  0  0  0  0
  193.3470  174.2310  137.5630 C   0  0  0  0  0  3  0  0  0  0  0  0
  189.5700  173.5350  135.1660 N   0  0  0  0  0  0  0  0  0  0  0  0
  191.0030  174.6670  136.7420 N   0  0  0  0  0  2  0  0  0  0  0  0
  188.7460  176.6990  138.3610 O   0  0  0  0  0  0  0  0  0  0  0  0
  188.9550  178.0880  136.4610 C   0  0  2  0  0  3  0  0  0  0  0  0
  189.2270  176.6920  137.0300 C   0  0  2  0  0  3  0  0  0  0  0  0
  189.3320  178.8510  137.6810 C   0  0  0  0  0  2  0  0  0  0  0  0
  187.0620  178.3250  137.9240 C   0  0  0  0  0  2  0  0  0  0  0  0
  187.4390  178.3240  136.4440 C   0  0  0  0  0  2  0  0  0  0  0  0
  188.4130  178.0570  138.5670 C   0  0  1  0  0  0  0  0  0  0  0  0
  188.4500  178.4540  140.0370 C   0  0  0  0  0  2  0  0  0  0  0  0
  188.8080  177.2690  140.9260 C   0  0  0  0  0  2  0  0  0  0  0  0
  190.8340  178.9040  143.9270 C   0  0  1  0  0  0  0  0  0  0  0  0
  190.3740  178.2080  142.7070 N   0  0  0  0  0  0  0  0  0  0  0  0
  191.5660  176.5160  144.1250 C   0  0  0  0  0  1  0  0  0  0  0  0
  191.6530  177.8670  143.4130 C   0  0  2  0  0  0  0  0  0  0  0  0
  188.6620  177.9000  144.7530 C   0  0  0  0  0  0  0  0  0  0  0  0
  189.1170  177.7180  142.3120 C   0  0  0  0  0  0  0  0  0  0  0  0
  192.1780  178.8340  144.2560 O   0  0  0  0  0  0  0  0  0  0  0  0
  189.8610  178.5070  145.0260 C   0  0  0  0  0  3  0  0  0  0  0  0
  188.2630  177.5480  143.3300 C   0  0  0  0  0  3  0  0  0  0  0  0
  188.2640  176.5640  146.8600 C   0  0  0  0  0  2  0  0  0  0  0  0
  187.6920  177.6190  145.8890 C   0  0  0  0  0  0  0  0  0  0  0  0
  189.1120  177.2070  147.9560 C   0  0  0  0  0  2  0  0  0  0  0  0
  188.2760  178.1500  148.8310 C   0  0  0  0  0  2  0  0  0  0  0  0
  187.3220  178.9290  146.6290 C   0  0  0  0  0  2  0  0  0  0  0  0
  186.4210  177.0400  145.2930 C   0  0  0  0  0  1  0  0  0  0  0  0
  187.0420  178.7110  148.1150 C   0  0  0  0  0  2  0  0  0  0  0  0
  187.4700  174.8470  136.7950 C   0  0  0  0  0  2  0  0  0  0  0  0
  186.5500  174.3750  135.6890 C   0  0  0  0  0  2  0  0  0  0  0  0
  185.3390  175.2840  135.6300 C   0  0  0  0  0  2  0  0  0  0  0  0
  184.8360  175.5910  137.0310 C   0  0  0  0  0  2  0  0  0  0  0  0
  183.9970  176.8700  137.0620 C   0  0  1  0  0  3  0  0  0  0  0  0
  183.1140  176.9560  135.8230 C   0  0  0  0  0  1  0  0  0  0  0  0
  183.1860  177.0410  138.3630 C   0  0  1  0  0  0  0  0  0  0  0  0
  181.7610  177.4630  138.0440 C   0  0  0  0  0  1  0  0  0  0  0  0
  183.1240  175.8080  139.0110 O   0  0  0  0  0  1  0  0  0  0  0  0
  183.8200  178.0490  139.3290 C   0  0  0  0  0  2  0  0  0  0  0  0
  183.8510  177.5650  140.6390 O   0  0  0  0  0  0  0  0  0  0  0  0
  183.8510  178.9910  142.4160 O   0  0  0  0  0  1  0  0  0  0  0  0
  184.6020  178.5040  141.3480 C   0  0  0  0  0  3  0  0  0  0  0  0
  184.9540  179.5570  140.5040 O   0  0  0  0  0  1  0  0  0  0  0  0
  1 41  1  1  0  0  0
  2  8  2  0  0  0  0
  2 14  1  0  0  0  0
  4  5  2  0  0  0  0
  5 11  1  0  0  0  0
  6  3  1  6  0  0  0
  6 13  1  0  0  0  0
  7  4  1  6  0  0  0
  7  6  1  0  0  0  0
  9  8  1  1  0  0  0
  9  7  1  0  0  0  0
  9 12  1  0  0  0  0
 10  1  1  0  0  0  0
 10 15  1  0  0  0  0
 11  3  2  0  0  0  0
 12 13  2  0  0  0  0
 14 10  2  0  0  0  0
 15 12  1  0  0  0  0
 16 22  1  0  0  0  0
 17 21  1  1  0  0  0
 17 18  1  0  0  0  0
 17 19  1  0  0  0  0
 18  1  1  6  0  0  0
 18 16  1  0  0  0  0
 19 22  1  0  0  0  0
 20 22  1  0  0  0  0
 21 20  1  0  0  0  0
 22 23  1  1  0  0  0
 23 24  1  0  0  0  0
 24 30  1  0  0  0  0
 25 31  1  0  0  0  0
 25 32  1  1  0  0  0
 26 28  1  0  0  0  0
 26 25  1  0  0  0  0
 28 25  1  0  0  0  0
 28 27  1  1  0  0  0
 28 31  1  0  0  0  0
 29 32  2  0  0  0  0
 29 35  1  0  0  0  0
 30 26  1  0  0  0  0
 30 33  2  0  0  0  0
 33 29  1  0  0  0  0
 34 36  1  0  0  0  0
 35 38  1  0  0  0  0
 35 34  1  0  0  0  0
 36 37  1  0  0  0  0
 38 40  1  0  0  0  0
 39 35  1  0  0  0  0
 40 37  1  0  0  0  0
 42 41  1  0  0  0  0
 43 42  1  0  0  0  0
 43 44  1  0  0  0  0
 44 45  1  0  0  0  0
 45 46  1  6  0  0  0
 45 47  1  0  0  0  0
 47 48  1  6  0  0  0
 47 49  1  0  0  0  0
 47 50  1  0  0  0  0
 50 51  1  0  0  0  0
 51 53  1  0  0  0  0
 53 52  1  0  0  0  0
 54 53  1  0  0  0  0
M  END
>  <MODEL>
2

>  <REMARK>
 VINA RESULT:      -7.9      2.770      4.484
  Name = 
  15 active torsions:
  status: ('A' for Active; 'I' for Inactive)
    1  A    between atoms: C_7  and  C_20
    2  A    between atoms: C_7  and  O_46
    3  A    between atoms: C_15  and  C_17
    4  A    between atoms: C_15  and  C_28
    5  A    between atoms: C_15  and  C_37
    6  A    between atoms: C_18  and  C_36
    7  A    between atoms: C_18  and  C_41
    8  A    between atoms: C_19  and  C_26
    9  A    between atoms: C_20  and  C_24
   10  A    between atoms: C_21  and  O_46
   11  A    between atoms: C_24  and  C_36
   12  A    between atoms: C_28  and  C_41
   13  A    between atoms: C_31  and  C_50
   14  A    between atoms: C_35  and  C_48
   15  A    between atoms: C_48  and  C_50
                            x       y       z     vdW  Elec       q    Type
                         _______ _______ _______ _____ _____    ______ ____

>  <TORSDO>
F 15

$$$$
=
 OpenBabel10222421513D

 54 62  0  0  1  0  0  0  0  0999 V2000
  189.3290  177.1010  138.4380 C   0  0  2  0  0  3  0  0  0  0  0  0
  187.3600  178.5220  141.3600 C   0  0  0  0  0  3  0  0  0  0  0  0
  191.6090  177.0160  145.4780 C   0  0  0  0  0  3  0  0  0  0  0  0
  188.8460  177.4940  145.3400 N   0  0  0  0  0  0  0  0  0  0  0  0
  189.3800  176.8630  146.3510 C   0  0  0  0  0  3  0  0  0  0  0  0
  191.0090  177.5620  144.2650 C   0  0  2  0  0  3  0  0  0  0  0  0
  189.6720  178.2040  144.3570 C   0  0  1  0  0  3  0  0  0  0  0  0
  187.9130  178.5160  142.5330 N   0  0  0  0  0  0  0  0  0  0  0  0
  189.1890  178.0430  142.9570 C   0  0  1  0  0  3  0  0  0  0  0  0
  189.0810  177.5000  139.8570 C   0  0  0  0  0  0  0  0  0  0  0  0
  190.8130  176.7190  146.4660 N   0  0  0  0  0  0  0  0  0  0  0  0
  190.1530  177.5220  142.2120 C   0  0  0  0  0  0  0  0  0  0  0  0
  191.2980  177.1600  143.0390 C   0  0  0  0  0  3  0  0  0  0  0  0
  187.9340  178.0350  140.1400 N   0  0  0  0  0  0  0  0  0  0  0  0
  190.1120  177.2520  140.8160 N   0  0  0  0  0  2  0  0  0  0  0  0
  191.6580  176.9480  137.6340 O   0  0  0  0  0  0  0  0  0  0  0  0
  190.4970  174.8920  137.7140 C   0  0  2  0  0  3  0  0  0  0  0  0
  190.6260  176.2830  138.3400 C   0  0  2  0  0  3  0  0  0  0  0  0
  191.9540  174.6360  137.5520 C   0  0  0  0  0  2  0  0  0  0  0  0
  191.2740  175.7550  135.6090 C   0  0  0  0  0  2  0  0  0  0  0  0
  190.0790  175.0490  136.2460 C   0  0  0  0  0  2  0  0  0  0  0  0
  192.1850  175.9250  136.8130 C   0  0  1  0  0  0  0  0  0  0  0  0
  193.6350  176.1790  136.4190 C   0  0  0  0  0  2  0  0  0  0  0  0
  194.1120  175.1780  135.3730 C   0  0  0  0  0  2  0  0  0  0  0  0
  197.5760  174.2700  137.0940 C   0  0  1  0  0  0  0  0  0  0  0  0
  196.4520  174.8610  136.3380 N   0  0  0  0  0  0  0  0  0  0  0  0
  198.2570  174.3150  134.6830 C   0  0  0  0  0  1  0  0  0  0  0  0
  197.8900  175.0670  135.9630 C   0  0  2  0  0  0  0  0  0  0  0  0
  196.3850  172.1760  136.3150 C   0  0  0  0  0  0  0  0  0  0  0  0
  195.2190  174.3380  135.9080 C   0  0  0  0  0  0  0  0  0  0  0  0
  198.8310  174.8380  136.9550 O   0  0  0  0  0  0  0  0  0  0  0  0
  197.4970  172.7700  136.8560 C   0  0  0  0  0  3  0  0  0  0  0  0
  195.1840  172.9990  135.8810 C   0  0  0  0  0  3  0  0  0  0  0  0
  196.4860  169.9890  137.5750 C   0  0  0  0  0  2  0  0  0  0  0  0
  196.3310  170.6610  136.1940 C   0  0  0  0  0  0  0  0  0  0  0  0
  195.1390  169.8220  138.2770 C   0  0  0  0  0  2  0  0  0  0  0  0
  194.2040  168.9010  137.4810 C   0  0  0  0  0  2  0  0  0  0  0  0
  195.0250  170.2150  135.4900 C   0  0  0  0  0  2  0  0  0  0  0  0
  197.5040  170.2130  135.3410 C   0  0  0  0  0  1  0  0  0  0  0  0
  194.5200  168.8590  135.9820 C   0  0  0  0  0  2  0  0  0  0  0  0
  189.3180  178.3310  137.5390 C   0  0  0  0  0  2  0  0  0  0  0  0
  188.4090  178.0960  136.3500 C   0  0  0  0  0  2  0  0  0  0  0  0
  186.9670  178.2550  136.7880 C   0  0  0  0  0  2  0  0  0  0  0  0
  186.2280  176.9310  136.6720 C   0  0  0  0  0  2  0  0  0  0  0  0
  184.8560  177.1070  136.0170 C   0  0  1  0  0  3  0  0  0  0  0  0
  184.7620  176.2700  134.7490 C   0  0  0  0  0  1  0  0  0  0  0  0
  183.6780  176.8380  136.9770 C   0  0  1  0  0  0  0  0  0  0  0  0
  182.4350  176.4550  136.1900 C   0  0  0  0  0  1  0  0  0  0  0  0
  184.0110  175.7560  137.7910 O   0  0  0  0  0  1  0  0  0  0  0  0
  183.3690  178.0340  137.8860 C   0  0  0  0  0  2  0  0  0  0  0  0
  183.8510  177.8390  139.1830 O   0  0  0  0  0  0  0  0  0  0  0  0
  184.6120  179.9840  139.2910 O   0  0  0  0  0  1  0  0  0  0  0  0
  183.6920  179.0750  139.8110 C   0  0  0  0  0  3  0  0  0  0  0  0
  183.8970  178.9350  141.1840 O   0  0  0  0  0  1  0  0  0  0  0  0
  1 41  1  6  0  0  0
  1 10  1  0  0  0  0
  2  8  2  0  0  0  0
  3 11  2  0  0  0  0
  4  5  2  0  0  0  0
  5 11  1  0  0  0  0
  6 13  1  6  0  0  0
  6  7  1  0  0  0  0
  6  3  1  0  0  0  0
  7  4  1  1  0  0  0
  8  9  1  0  0  0  0
  9 12  1  6  0  0  0
  9  7  1  0  0  0  0
 10 14  2  0  0  0  0
 10 15  1  0  0  0  0
 12 13  2  0  0  0  0
 14  2  1  0  0  0  0
 15 12  1  0  0  0  0
 16 18  1  0  0  0  0
 17 21  1  6  0  0  0
 17 18  1  0  0  0  0
 18  1  1  6  0  0  0
 19 17  1  0  0  0  0
 20 21  1  0  0  0  0
 20 22  1  0  0  0  0
 22 23  1  6  0  0  0
 22 19  1  0  0  0  0
 22 16  1  0  0  0  0
 24 30  1  0  0  0  0
 24 23  1  0  0  0  0
 25 32  1  6  0  0  0
 26 25  1  0  0  0  0
 28 27  1  6  0  0  0
 28 26  1  0  0  0  0
 28 31  1  0  0  0  0
 28 25  1  0  0  0  0
 29 32  2  0  0  0  0
 30 26  1  0  0  0  0
 31 25  1  0  0  0  0
 33 30  2  0  0  0  0
 33 29  1  0  0  0  0
 34 36  1  0  0  0  0
 35 29  1  0  0  0  0
 35 34  1  0  0  0  0
 37 36  1  0  0  0  0
 38 40  1  0  0  0  0
 38 35  1  0  0  0  0
 39 35  1  0  0  0  0
 40 37  1  0  0  0  0
 42 43  1  0  0  0  0
 42 41  1  0  0  0  0
 44 43  1  0  0  0  0
 45 46  1  6  0  0  0
 45 44  1  0  0  0  0
 45 47  1  0  0  0  0
 47 48  1  6  0  0  0
 47 49  1  0  0  0  0
 47 50  1  0  0  0  0
 50 51  1  0  0  0  0
 51 53  1  0  0  0  0
 52 53  1  0  0  0  0
 53 54  1  0  0  0  0
M  END
>  <MODEL>
3

>  <REMARK>
 VINA RESULT:      -7.7      4.834      9.608
  Name = 
  15 active torsions:
  status: ('A' for Active; 'I' for Inactive)
    1  A    between atoms: C_7  and  C_20
    2  A    between atoms: C_7  and  O_46
    3  A    between atoms: C_15  and  C_17
    4  A    between atoms: C_15  and  C_28
    5  A    between atoms: C_15  and  C_37
    6  A    between atoms: C_18  and  C_36
    7  A    between atoms: C_18  and  C_41
    8  A    between atoms: C_19  and  C_26
    9  A    between atoms: C_20  and  C_24
   10  A    between atoms: C_21  and  O_46
   11  A    between atoms: C_24  and  C_36
   12  A    between atoms: C_28  and  C_41
   13  A    between atoms: C_31  and  C_50
   14  A    between atoms: C_35  and  C_48
   15  A    between atoms: C_48  and  C_50
                            x       y       z     vdW  Elec       q    Type
                         _______ _______ _______ _____ _____    ______ ____

>  <TORSDO>
F 15

$$$$
=
 OpenBabel10222421513D

 54 62  0  0  1  0  0  0  0  0999 V2000
  183.7650  178.8140  141.4480 C   0  0  2  0  0  3  0  0  0  0  0  0
  183.7830  179.0660  145.2390 C   0  0  0  0  0  3  0  0  0  0  0  0
  189.5870  177.2340  145.7360 C   0  0  0  0  0  3  0  0  0  0  0  0
  187.2240  177.2740  147.2520 N   0  0  0  0  0  0  0  0  0  0  0  0
  188.2240  176.4930  147.5650 C   0  0  0  0  0  3  0  0  0  0  0  0
  188.4190  177.9770  145.2730 C   0  0  2  0  0  3  0  0  0  0  0  0
  187.3700  178.3450  146.2600 C   0  0  1  0  0  3  0  0  0  0  0  0
  184.8970  178.8390  145.8630 N   0  0  0  0  0  0  0  0  0  0  0  0
  186.1860  178.4850  145.3670 C   0  0  1  0  0  3  0  0  0  0  0  0
  184.3580  178.7760  142.8200 C   0  0  0  0  0  0  0  0  0  0  0  0
  189.4740  176.5600  146.8440 N   0  0  0  0  0  0  0  0  0  0  0  0
  186.5620  178.3460  144.1050 C   0  0  0  0  0  0  0  0  0  0  0  0
  187.9690  177.9690  144.0300 C   0  0  0  0  0  3  0  0  0  0  0  0
  183.5710  179.0220  143.8220 N   0  0  0  0  0  0  0  0  0  0  0  0
  185.7450  178.4530  142.9450 N   0  0  0  0  0  2  0  0  0  0  0  0
  182.4440  177.0760  140.2960 O   0  0  0  0  0  0  0  0  0  0  0  0
  181.1650  178.7280  141.4000 C   0  0  2  0  0  3  0  0  0  0  0  0
  182.4890  177.9590  141.4020 C   0  0  2  0  0  3  0  0  0  0  0  0
  180.2930  177.5750  141.0460 C   0  0  0  0  0  2  0  0  0  0  0  0
  181.0160  178.4850  139.0130 C   0  0  0  0  0  2  0  0  0  0  0  0
  181.0740  179.5490  140.1070 C   0  0  0  0  0  2  0  0  0  0  0  0
  181.1130  177.2140  139.8390 C   0  0  1  0  0  0  0  0  0  0  0  0
  180.6220  175.9860  139.0830 C   0  0  0  0  0  2  0  0  0  0  0  0
  181.7260  174.9460  138.9330 C   0  0  0  0  0  2  0  0  0  0  0  0
  182.5730  176.3710  135.3220 C   0  0  1  0  0  0  0  0  0  0  0  0
  181.9620  175.9550  136.6020 N   0  0  0  0  0  0  0  0  0  0  0  0
  180.7150  174.7850  134.7670 C   0  0  0  0  0  1  0  0  0  0  0  0
  181.1760  176.1280  135.3360 C   0  0  2  0  0  0  0  0  0  0  0  0
  183.7890  174.1890  135.7330 C   0  0  0  0  0  0  0  0  0  0  0  0
  182.3600  175.0350  137.5880 C   0  0  0  0  0  0  0  0  0  0  0  0
  181.7510  176.9100  134.3460 O   0  0  0  0  0  0  0  0  0  0  0  0
  183.4510  175.2100  134.8820 C   0  0  0  0  0  3  0  0  0  0  0  0
  183.2600  174.1420  137.1570 C   0  0  0  0  0  3  0  0  0  0  0  0
  185.8440  173.7020  134.3460 C   0  0  0  0  0  2  0  0  0  0  0  0
  184.7500  173.1100  135.2610 C   0  0  0  0  0  0  0  0  0  0  0  0
  187.0450  174.1980  135.1500 C   0  0  0  0  0  2  0  0  0  0  0  0
  187.7280  173.0490  135.9040 C   0  0  0  0  0  2  0  0  0  0  0  0
  185.3670  172.3610  136.4690 C   0  0  0  0  0  2  0  0  0  0  0  0
  183.9660  172.1070  134.4340 C   0  0  0  0  0  1  0  0  0  0  0  0
  186.7900  171.8730  136.2000 C   0  0  0  0  0  2  0  0  0  0  0  0
  184.8080  178.4040  140.4160 C   0  0  0  0  0  2  0  0  0  0  0  0
  184.6790  179.2680  139.1790 C   0  0  0  0  0  2  0  0  0  0  0  0
  184.6330  178.3770  137.9540 C   0  0  0  0  0  2  0  0  0  0  0  0
  185.6150  177.2260  138.0970 C   0  0  0  0  0  2  0  0  0  0  0  0
  186.6590  177.2330  136.9800 C   0  0  1  0  0  3  0  0  0  0  0  0
  186.0180  177.6280  135.6560 C   0  0  0  0  0  1  0  0  0  0  0  0
  187.8990  178.0930  137.3020 C   0  0  1  0  0  0  0  0  0  0  0  0
  189.0440  177.7370  136.3690 C   0  0  0  0  0  1  0  0  0  0  0  0
  187.5760  179.4320  137.0810 O   0  0  0  0  0  1  0  0  0  0  0  0
  188.3540  177.9540  138.7590 C   0  0  0  0  0  2  0  0  0  0  0  0
  189.7450  178.0280  138.8790 O   0  0  0  0  0  0  0  0  0  0  0  0
  191.1000  177.4480  140.6160 O   0  0  0  0  0  1  0  0  0  0  0  0
  190.0800  177.0110  139.7730 C   0  0  0  0  0  3  0  0  0  0  0  0
  190.5060  175.8850  139.0670 O   0  0  0  0  0  1  0  0  0  0  0  0
  1 41  1  6  0  0  0
  1 10  1  0  0  0  0
  2  8  2  0  0  0  0
  3 11  2  0  0  0  0
  4  5  2  0  0  0  0
  6 13  1  6  0  0  0
  6  3  1  0  0  0  0
  6  7  1  0  0  0  0
  7  4  1  1  0  0  0
  9 12  1  6  0  0  0
  9  8  1  0  0  0  0
  9  7  1  0  0  0  0
 10 15  1  0  0  0  0
 10 14  2  0  0  0  0
 11  5  1  0  0  0  0
 13 12  2  0  0  0  0
 14  2  1  0  0  0  0
 15 12  1  0  0  0  0
 16 18  1  0  0  0  0
 17 21  1  6  0  0  0
 17 18  1  0  0  0  0
 18  1  1  6  0  0  0
 19 17  1  0  0  0  0
 20 22  1  0  0  0  0
 20 21  1  0  0  0  0
 22 23  1  6  0  0  0
 22 16  1  0  0  0  0
 22 19  1  0  0  0  0
 24 23  1  0  0  0  0
 25 32  1  6  0  0  0
 25 28  1  0  0  0  0
 25 26  1  0  0  0  0
 26 30  1  0  0  0  0
 28 27  1  6  0  0  0
 28 26  1  0  0  0  0
 29 33  1  0  0  0  0
 30 24  1  0  0  0  0
 31 25  1  0  0  0  0
 31 28  1  0  0  0  0
 32 29  2  0  0  0  0
 33 30  2  0  0  0  0
 34 36  1  0  0  0  0
 34 35  1  0  0  0  0
 35 29  1  0  0  0  0
 35 38  1  0  0  0  0
 36 37  1  0  0  0  0
 37 40  1  0  0  0  0
 39 35  1  0  0  0  0
 40 38  1  0  0  0  0
 42 41  1  0  0  0  0
 43 44  1  0  0  0  0
 43 42  1  0  0  0  0
 45 46  1  6  0  0  0
 45 47  1  0  0  0  0
 45 44  1  0  0  0  0
 47 48  1  6  0  0  0
 47 50  1  0  0  0  0
 49 47  1  0  0  0  0
 50 51  1  0  0  0  0
 51 53  1  0  0  0  0
 53 52  1  0  0  0  0
 54 53  1  0  0  0  0
M  END
>  <MODEL>
4

>  <REMARK>
 VINA RESULT:      -7.7      2.920     10.397
  Name = 
  15 active torsions:
  status: ('A' for Active; 'I' for Inactive)
    1  A    between atoms: C_7  and  C_20
    2  A    between atoms: C_7  and  O_46
    3  A    between atoms: C_15  and  C_17
    4  A    between atoms: C_15  and  C_28
    5  A    between atoms: C_15  and  C_37
    6  A    between atoms: C_18  and  C_36
    7  A    between atoms: C_18  and  C_41
    8  A    between atoms: C_19  and  C_26
    9  A    between atoms: C_20  and  C_24
   10  A    between atoms: C_21  and  O_46
   11  A    between atoms: C_24  and  C_36
   12  A    between atoms: C_28  and  C_41
   13  A    between atoms: C_31  and  C_50
   14  A    between atoms: C_35  and  C_48
   15  A    between atoms: C_48  and  C_50
                            x       y       z     vdW  Elec       q    Type
                         _______ _______ _______ _____ _____    ______ ____

>  <TORSDO>
F 15

$$$$
=
 OpenBabel10222421513D

 54 62  0  0  1  0  0  0  0  0999 V2000
  189.4210  177.0170  139.3250 C   0  0  2  0  0  3  0  0  0  0  0  0
  190.1930  176.0110  142.9060 C   0  0  0  0  0  3  0  0  0  0  0  0
  185.1930  178.6920  145.1630 C   0  0  0  0  0  3  0  0  0  0  0  0
  187.7660  177.9330  145.9920 N   0  0  0  0  0  0  0  0  0  0  0  0
  187.0580  178.7980  146.6680 C   0  0  0  0  0  3  0  0  0  0  0  0
  186.0360  177.8650  144.3060 C   0  0  2  0  0  3  0  0  0  0  0  0
  187.1710  177.1280  144.9190 C   0  0  1  0  0  3  0  0  0  0  0  0
  189.3230  176.2990  143.8250 N   0  0  0  0  0  0  0  0  0  0  0  0
  188.0660  176.9660  143.7400 C   0  0  1  0  0  3  0  0  0  0  0  0
  189.1720  176.8800  140.7930 C   0  0  0  0  0  0  0  0  0  0  0  0
  185.6950  179.0990  146.2950 N   0  0  0  0  0  0  0  0  0  0  0  0
  187.4580  177.4210  142.6540 C   0  0  0  0  0  0  0  0  0  0  0  0
  186.1890  178.0460  143.0060 C   0  0  0  0  0  3  0  0  0  0  0  0
  190.0880  176.3030  141.5070 N   0  0  0  0  0  0  0  0  0  0  0  0
  187.9530  177.4090  141.3210 N   0  0  0  0  0  2  0  0  0  0  0  0
  191.6400  177.0470  138.2440 O   0  0  0  0  0  0  0  0  0  0  0  0
  190.4860  174.9900  138.0880 C   0  0  2  0  0  3  0  0  0  0  0  0
  190.6940  176.2500  138.9330 C   0  0  2  0  0  3  0  0  0  0  0  0
  191.9130  174.7920  137.7160 C   0  0  0  0  0  2  0  0  0  0  0  0
  191.0180  176.2280  136.0960 C   0  0  0  0  0  2  0  0  0  0  0  0
  189.9010  175.4000  136.7300 C   0  0  0  0  0  2  0  0  0  0  0  0
  192.0630  176.1950  137.1980 C   0  0  1  0  0  0  0  0  0  0  0  0
  193.4580  176.5380  136.6910 C   0  0  0  0  0  2  0  0  0  0  0  0
  193.8600  175.6490  135.5200 C   0  0  0  0  0  2  0  0  0  0  0  0
  197.4280  174.5330  136.8660 C   0  0  1  0  0  0  0  0  0  0  0  0
  196.2630  175.2040  136.2520 N   0  0  0  0  0  0  0  0  0  0  0  0
  197.9000  174.7230  134.4130 C   0  0  0  0  0  1  0  0  0  0  0  0
  197.6700  175.3960  135.7660 C   0  0  2  0  0  0  0  0  0  0  0  0
  196.1060  172.5300  136.0610 C   0  0  0  0  0  0  0  0  0  0  0  0
  194.9810  174.7450  135.9000 C   0  0  0  0  0  0  0  0  0  0  0  0
  198.6850  175.0760  136.6540 O   0  0  0  0  0  0  0  0  0  0  0  0
  197.2790  173.0560  136.5390 C   0  0  0  0  0  3  0  0  0  0  0  0
  194.9000  173.4130  135.7890 C   0  0  0  0  0  3  0  0  0  0  0  0
  196.4590  170.2530  137.0990 C   0  0  0  0  0  2  0  0  0  0  0  0
  195.9930  171.0290  135.8480 C   0  0  0  0  0  0  0  0  0  0  0  0
  195.3150  170.0390  138.0890 C   0  0  0  0  0  2  0  0  0  0  0  0
  194.1970  169.1840  137.4780 C   0  0  0  0  0  2  0  0  0  0  0  0
  194.5470  170.6410  135.4480 C   0  0  0  0  0  2  0  0  0  0  0  0
  196.9170  170.6420  134.7070 C   0  0  0  0  0  1  0  0  0  0  0  0
  194.1450  169.2540  135.9470 C   0  0  0  0  0  2  0  0  0  0  0  0
  189.4550  178.4890  138.9350 C   0  0  0  0  0  2  0  0  0  0  0  0
  188.5480  178.7310  137.7460 C   0  0  0  0  0  2  0  0  0  0  0  0
  187.3900  177.7540  137.7990 C   0  0  0  0  0  2  0  0  0  0  0  0
  186.0660  178.4940  137.7020 C   0  0  0  0  0  2  0  0  0  0  0  0
  185.0790  178.0280  138.7740 C   0  0  1  0  0  3  0  0  0  0  0  0
  184.7640  179.1650  139.7370 C   0  0  0  0  0  1  0  0  0  0  0  0
  183.7990  177.3890  138.1950 C   0  0  1  0  0  0  0  0  0  0  0  0
  183.0750  176.5940  139.2690 C   0  0  0  0  0  1  0  0  0  0  0  0
  182.9450  178.4110  137.7790 O   0  0  0  0  0  1  0  0  0  0  0  0
  184.0800  176.4900  136.9860 C   0  0  0  0  0  2  0  0  0  0  0  0
  184.1060  175.1380  137.3380 O   0  0  0  0  0  0  0  0  0  0  0  0
  186.2720  174.4320  137.3410 O   0  0  0  0  0  1  0  0  0  0  0  0
  185.1260  174.5870  136.5620 C   0  0  0  0  0  3  0  0  0  0  0  0
  185.4030  175.4270  135.4840 O   0  0  0  0  0  1  0  0  0  0  0  0
  1 41  1  1  0  0  0
  1 10  1  0  0  0  0
  2  8  2  0  0  0  0
  3 11  2  0  0  0  0
  4  5  2  0  0  0  0
  6 13  1  6  0  0  0
  6  7  1  0  0  0  0
  6  3  1  0  0  0  0
  7  4  1  1  0  0  0
  9 12  1  6  0  0  0
  9  8  1  0  0  0  0
  9  7  1  0  0  0  0
 10 15  1  0  0  0  0
 10 14  2  0  0  0  0
 11  5  1  0  0  0  0
 12 13  2  0  0  0  0
 14  2  1  0  0  0  0
 15 12  1  0  0  0  0
 16 18  1  0  0  0  0
 17 21  1  6  0  0  0
 17 18  1  0  0  0  0
 18  1  1  6  0  0  0
 19 17  1  0  0  0  0
 20 21  1  0  0  0  0
 20 22  1  0  0  0  0
 22 23  1  6  0  0  0
 22 19  1  0  0  0  0
 22 16  1  0  0  0  0
 24 30  1  0  0  0  0
 24 23  1  0  0  0  0
 25 32  1  6  0  0  0
 26 25  1  0  0  0  0
 28 27  1  6  0  0  0
 28 26  1  0  0  0  0
 28 31  1  0  0  0  0
 28 25  1  0  0  0  0
 29 32  2  0  0  0  0
 30 26  1  0  0  0  0
 31 25  1  0  0  0  0
 33 30  2  0  0  0  0
 33 29  1  0  0  0  0
 34 36  1  0  0  0  0
 35 29  1  0  0  0  0
 35 34  1  0  0  0  0
 37 36  1  0  0  0  0
 38 35  1  0  0  0  0
 38 40  1  0  0  0  0
 39 35  1  0  0  0  0
 40 37  1  0  0  0  0
 42 43  1  0  0  0  0
 42 41  1  0  0  0  0
 44 43  1  0  0  0  0
 44 45  1  0  0  0  0
 45 46  1  6  0  0  0
 47 45  1  0  0  0  0
 47 48  1  1  0  0  0
 49 47  1  0  0  0  0
 50 51  1  0  0  0  0
 50 47  1  0  0  0  0
 53 51  1  0  0  0  0
 53 52  1  0  0  0  0
 54 53  1  0  0  0  0
M  END
>  <MODEL>
5

>  <REMARK>
 VINA RESULT:      -7.6      4.802      9.560
  Name = 
  15 active torsions:
  status: ('A' for Active; 'I' for Inactive)
    1  A    between atoms: C_7  and  C_20
    2  A    between atoms: C_7  and  O_46
    3  A    between atoms: C_15  and  C_17
    4  A    between atoms: C_15  and  C_28
    5  A    between atoms: C_15  and  C_37
    6  A    between atoms: C_18  and  C_36
    7  A    between atoms: C_18  and  C_41
    8  A    between atoms: C_19  and  C_26
    9  A    between atoms: C_20  and  C_24
   10  A    between atoms: C_21  and  O_46
   11  A    between atoms: C_24  and  C_36
   12  A    between atoms: C_28  and  C_41
   13  A    between atoms: C_31  and  C_50
   14  A    between atoms: C_35  and  C_48
   15  A    between atoms: C_48  and  C_50
                            x       y       z     vdW  Elec       q    Type
                         _______ _______ _______ _____ _____    ______ ____

>  <TORSDO>
F 15

$$$$
=
 OpenBabel10222421513D

 54 62  0  0  1  0  0  0  0  0999 V2000
  187.9060  178.8290  141.1050 C   0  0  2  0  0  3  0  0  0  0  0  0
  184.6650  178.0360  142.9230 C   0  0  0  0  0  3  0  0  0  0  0  0
  181.1430  180.1160  138.3900 C   0  0  0  0  0  3  0  0  0  0  0  0
  181.0340  179.7200  141.1680 N   0  0  0  0  0  0  0  0  0  0  0  0
  180.1880  180.5060  140.5560 C   0  0  0  0  0  3  0  0  0  0  0  0
  182.1980  179.3800  139.0780 C   0  0  2  0  0  3  0  0  0  0  0  0
  181.9140  178.8130  140.4220 C   0  0  1  0  0  3  0  0  0  0  0  0
  183.5470  178.2360  142.2980 N   0  0  0  0  0  0  0  0  0  0  0  0
  183.2900  178.7330  140.9860 C   0  0  1  0  0  3  0  0  0  0  0  0
  186.4250  178.7050  141.2740 C   0  0  0  0  0  0  0  0  0  0  0  0
  180.1830  180.6170  139.1160 N   0  0  0  0  0  0  0  0  0  0  0  0
  184.1720  179.0750  140.0580 C   0  0  0  0  0  0  0  0  0  0  0  0
  183.4920  179.5410  138.8560 C   0  0  0  0  0  3  0  0  0  0  0  0
  185.9850  178.2710  142.4140 N   0  0  0  0  0  0  0  0  0  0  0  0
  185.5890  179.0870  140.1790 N   0  0  0  0  0  2  0  0  0  0  0  0
  187.3110  178.2750  138.7740 O   0  0  0  0  0  0  0  0  0  0  0  0
  189.6310  178.3520  139.2160 C   0  0  2  0  0  3  0  0  0  0  0  0
  188.2610  178.9090  139.6120 C   0  0  2  0  0  3  0  0  0  0  0  0
  189.4030  178.3530  137.7460 C   0  0  0  0  0  2  0  0  0  0  0  0
  188.6050  176.2920  138.5220 C   0  0  0  0  0  2  0  0  0  0  0  0
  189.6480  176.8430  139.4920 C   0  0  0  0  0  2  0  0  0  0  0  0
  188.1240  177.5700  137.8570 C   0  0  1  0  0  0  0  0  0  0  0  0
  187.4220  177.3110  136.5300 C   0  0  0  0  0  2  0  0  0  0  0  0
  185.9580  177.7300  136.5820 C   0  0  0  0  0  2  0  0  0  0  0  0
  182.6850  175.7800  135.4540 C   0  0  1  0  0  0  0  0  0  0  0  0
  183.6910  176.7160  135.9990 N   0  0  0  0  0  0  0  0  0  0  0  0
  182.3370  175.8670  137.9330 C   0  0  0  0  0  1  0  0  0  0  0  0
  182.3130  176.5670  136.5740 C   0  0  2  0  0  0  0  0  0  0  0  0
  184.4970  174.1590  136.1570 C   0  0  0  0  0  0  0  0  0  0  0  0
  185.0650  176.5800  136.2660 C   0  0  0  0  0  0  0  0  0  0  0  0
  181.3500  176.0060  135.7490 O   0  0  0  0  0  0  0  0  0  0  0  0
  183.2050  174.3840  135.7580 C   0  0  0  0  0  3  0  0  0  0  0  0
  185.4710  175.3080  136.3610 C   0  0  0  0  0  3  0  0  0  0  0  0
  184.0820  171.9690  137.3470 C   0  0  0  0  0  2  0  0  0  0  0  0
  184.9810  172.7300  136.3500 C   0  0  0  0  0  0  0  0  0  0  0  0
  182.8980  171.3040  136.6450 C   0  0  0  0  0  2  0  0  0  0  0  0
  183.3650  170.2480  135.6350 C   0  0  0  0  0  2  0  0  0  0  0  0
  185.0680  171.9940  134.9890 C   0  0  0  0  0  2  0  0  0  0  0  0
  186.3760  172.7800  136.9480 C   0  0  0  0  0  1  0  0  0  0  0  0
  184.7820  170.4980  135.1050 C   0  0  0  0  0  2  0  0  0  0  0  0
  188.6130  177.6950  141.8370 C   0  0  0  0  0  2  0  0  0  0  0  0
  189.4660  178.2540  142.9560 C   0  0  0  0  0  2  0  0  0  0  0  0
  189.7140  177.1660  143.9820 C   0  0  0  0  0  2  0  0  0  0  0  0
  188.4510  176.8940  144.7820 C   0  0  0  0  0  2  0  0  0  0  0  0
  188.3020  177.8690  145.9520 C   0  0  1  0  0  3  0  0  0  0  0  0
  186.8690  178.3770  146.0410 C   0  0  0  0  0  1  0  0  0  0  0  0
  188.7990  177.2970  147.2960 C   0  0  1  0  0  0  0  0  0  0  0  0
  189.1440  178.4260  148.2530 C   0  0  0  0  0  1  0  0  0  0  0  0
  187.7640  176.5600  147.8700 O   0  0  0  0  0  1  0  0  0  0  0  0
  190.0070  176.3670  147.1340 C   0  0  0  0  0  2  0  0  0  0  0  0
  191.1240  176.8410  147.8260 O   0  0  0  0  0  0  0  0  0  0  0  0
  193.2040  176.1580  148.4590 O   0  0  0  0  0  1  0  0  0  0  0  0
  192.0440  175.7930  147.7770 C   0  0  0  0  0  3  0  0  0  0  0  0
  192.3550  175.5010  146.4480 O   0  0  0  0  0  1  0  0  0  0  0  0
  1 10  1  0  0  0  0
  1 41  1  6  0  0  0
  3 11  2  0  0  0  0
  5  4  2  0  0  0  0
  6  3  1  1  0  0  0
  6  7  1  0  0  0  0
  7  9  1  0  0  0  0
  7  4  1  1  0  0  0
  8  2  2  0  0  0  0
  9 12  1  6  0  0  0
  9  8  1  0  0  0  0
 10 14  2  0  0  0  0
 11  5  1  0  0  0  0
 12 15  1  0  0  0  0
 13  6  1  0  0  0  0
 13 12  2  0  0  0  0
 14  2  1  0  0  0  0
 15 10  1  0  0  0  0
 16 18  1  0  0  0  0
 17 19  1  6  0  0  0
 17 21  1  0  0  0  0
 17 18  1  0  0  0  0
 18  1  1  1  0  0  0
 19 22  1  0  0  0  0
 20 21  1  0  0  0  0
 22 23  1  6  0  0  0
 22 20  1  0  0  0  0
 22 16  1  0  0  0  0
 23 24  1  0  0  0  0
 25 31  1  0  0  0  0
 25 32  1  1  0  0  0
 25 26  1  0  0  0  0
 25 28  1  0  0  0  0
 26 30  1  0  0  0  0
 26 28  1  0  0  0  0
 28 27  1  1  0  0  0
 29 35  1  0  0  0  0
 29 33  1  0  0  0  0
 30 33  2  0  0  0  0
 30 24  1  0  0  0  0
 31 28  1  0  0  0  0
 32 29  2  0  0  0  0
 35 39  1  0  0  0  0
 35 34  1  0  0  0  0
 36 34  1  0  0  0  0
 37 36  1  0  0  0  0
 38 40  1  0  0  0  0
 38 35  1  0  0  0  0
 40 37  1  0  0  0  0
 41 42  1  0  0  0  0
 42 43  1  0  0  0  0
 43 44  1  0  0  0  0
 44 45  1  0  0  0  0
 45 46  1  1  0  0  0
 45 47  1  0  0  0  0
 47 49  1  0  0  0  0
 47 48  1  1  0  0  0
 50 47  1  0  0  0  0
 50 51  1  0  0  0  0
 53 51  1  0  0  0  0
 53 52  1  0  0  0  0
 54 53  1  0  0  0  0
M  END
>  <MODEL>
6

>  <REMARK>
 VINA RESULT:      -7.5      3.020      9.943
  Name = 
  15 active torsions:
  status: ('A' for Active; 'I' for Inactive)
    1  A    between atoms: C_7  and  C_20
    2  A    between atoms: C_7  and  O_46
    3  A    between atoms: C_15  and  C_17
    4  A    between atoms: C_15  and  C_28
    5  A    between atoms: C_15  and  C_37
    6  A    between atoms: C_18  and  C_36
    7  A    between atoms: C_18  and  C_41
    8  A    between atoms: C_19  and  C_26
    9  A    between atoms: C_20  and  C_24
   10  A    between atoms: C_21  and  O_46
   11  A    between atoms: C_24  and  C_36
   12  A    between atoms: C_28  and  C_41
   13  A    between atoms: C_31  and  C_50
   14  A    between atoms: C_35  and  C_48
   15  A    between atoms: C_48  and  C_50
                            x       y       z     vdW  Elec       q    Type
                         _______ _______ _______ _____ _____    ______ ____

>  <TORSDO>
F 15

$$$$
=
 OpenBabel10222421513D

 54 62  0  0  1  0  0  0  0  0999 V2000
  192.0510  175.9950  137.6250 C   0  0  2  0  0  3  0  0  0  0  0  0
  195.0940  176.9900  135.5800 C   0  0  0  0  0  3  0  0  0  0  0  0
  198.3540  172.1300  137.3190 C   0  0  0  0  0  3  0  0  0  0  0  0
  198.7570  174.7520  136.4000 N   0  0  0  0  0  0  0  0  0  0  0  0
  199.7080  174.0830  136.9970 C   0  0  0  0  0  3  0  0  0  0  0  0
  197.2360  172.9210  136.8160 C   0  0  2  0  0  3  0  0  0  0  0  0
  197.5240  174.0950  135.9520 C   0  0  1  0  0  3  0  0  0  0  0  0
  196.1050  176.1780  135.5500 N   0  0  0  0  0  0  0  0  0  0  0  0
  196.3030  174.9160  136.1820 C   0  0  1  0  0  3  0  0  0  0  0  0
  193.4160  175.8370  137.0360 C   0  0  0  0  0  0  0  0  0  0  0  0
  199.5250  172.6990  137.3670 N   0  0  0  0  0  0  0  0  0  0  0  0
  195.4490  174.2400  136.9370 C   0  0  0  0  0  0  0  0  0  0  0  0
  196.0490  172.9920  137.3930 C   0  0  0  0  0  3  0  0  0  0  0  0
  193.8620  176.7980  136.2880 N   0  0  0  0  0  0  0  0  0  0  0  0
  194.1510  174.6510  137.3480 N   0  0  0  0  0  2  0  0  0  0  0  0
  190.1350  177.4280  137.0180 O   0  0  0  0  0  0  0  0  0  0  0  0
  190.2460  175.3750  135.8550 C   0  0  2  0  0  3  0  0  0  0  0  0
  191.0640  176.4690  136.5470 C   0  0  2  0  0  3  0  0  0  0  0  0
  189.2780  176.2800  135.1780 C   0  0  0  0  0  2  0  0  0  0  0  0
  188.3810  175.8430  137.2980 C   0  0  0  0  0  2  0  0  0  0  0  0
  189.3290  174.7150  136.8930 C   0  0  0  0  0  2  0  0  0  0  0  0
  188.9160  176.9880  136.4540 C   0  0  1  0  0  0  0  0  0  0  0  0
  187.9050  178.1150  136.2890 C   0  0  0  0  0  2  0  0  0  0  0  0
  186.6640  177.6450  135.5390 C   0  0  0  0  0  2  0  0  0  0  0  0
  183.6270  175.6300  137.1200 C   0  0  1  0  0  0  0  0  0  0  0  0
  184.6280  176.2830  136.2510 N   0  0  0  0  0  0  0  0  0  0  0  0
  182.3930  177.2680  135.6810 C   0  0  0  0  0  1  0  0  0  0  0  0
  183.2250  175.9920  135.8090 C   0  0  2  0  0  0  0  0  0  0  0  0
  184.0920  177.7370  138.4440 C   0  0  0  0  0  0  0  0  0  0  0  0
  185.5680  177.3020  136.4870 C   0  0  0  0  0  0  0  0  0  0  0  0
  182.5340  175.0240  136.5220 O   0  0  0  0  0  0  0  0  0  0  0  0
  183.3100  176.6330  138.2190 C   0  0  0  0  0  3  0  0  0  0  0  0
  185.2980  178.0410  137.5710 C   0  0  0  0  0  3  0  0  0  0  0  0
  183.0420  179.9220  139.1560 C   0  0  0  0  0  2  0  0  0  0  0  0
  183.7780  178.6470  139.6210 C   0  0  0  0  0  0  0  0  0  0  0  0
  181.5280  179.7170  139.1140 C   0  0  0  0  0  2  0  0  0  0  0  0
  180.9650  179.4120  140.5080 C   0  0  0  0  0  2  0  0  0  0  0  0
  182.9650  177.8860  140.6990 C   0  0  0  0  0  2  0  0  0  0  0  0
  185.0910  179.0850  140.2440 C   0  0  0  0  0  1  0  0  0  0  0  0
  181.9950  178.7890  141.4590 C   0  0  0  0  0  2  0  0  0  0  0  0
  192.1070  176.9110  138.8410 C   0  0  0  0  0  2  0  0  0  0  0  0
  191.0800  176.4750  139.8650 C   0  0  0  0  0  2  0  0  0  0  0  0
  190.8730  177.5940  140.8670 C   0  0  0  0  0  2  0  0  0  0  0  0
  190.3890  177.0350  142.1950 C   0  0  0  0  0  2  0  0  0  0  0  0
  189.2260  177.8520  142.7610 C   0  0  1  0  0  3  0  0  0  0  0  0
  188.4520  178.5240  141.6350 C   0  0  0  0  0  1  0  0  0  0  0  0
  188.3030  177.0430  143.6950 C   0  0  1  0  0  0  0  0  0  0  0  0
  186.8940  177.6110  143.6640 C   0  0  0  0  0  1  0  0  0  0  0  0
  188.2400  175.7320  143.2240 O   0  0  0  0  0  1  0  0  0  0  0  0
  188.8130  177.0000  145.1410 C   0  0  0  0  0  2  0  0  0  0  0  0
  188.0050  177.7490  146.0000 O   0  0  0  0  0  0  0  0  0  0  0  0
  189.8100  176.9500  147.1370 O   0  0  0  0  0  1  0  0  0  0  0  0
  188.7260  177.8240  147.1920 C   0  0  0  0  0  3  0  0  0  0  0  0
  187.9010  177.4810  148.2630 O   0  0  0  0  0  1  0  0  0  0  0  0
  1 41  1  1  0  0  0
  2 14  1  0  0  0  0
  3 11  2  0  0  0  0
  4  5  2  0  0  0  0
  5 11  1  0  0  0  0
  6  3  1  1  0  0  0
  6 13  1  0  0  0  0
  7  9  1  0  0  0  0
  7  4  1  1  0  0  0
  7  6  1  0  0  0  0
  8  2  2  0  0  0  0
  9  8  1  6  0  0  0
  9 12  1  0  0  0  0
 10 15  1  0  0  0  0
 10  1  1  0  0  0  0
 12 15  1  0  0  0  0
 12 13  2  0  0  0  0
 14 10  2  0  0  0  0
 17 19  1  6  0  0  0
 17 18  1  0  0  0  0
 17 21  1  0  0  0  0
 18 16  1  0  0  0  0
 18  1  1  1  0  0  0
 19 22  1  0  0  0  0
 21 20  1  0  0  0  0
 22 23  1  6  0  0  0
 22 16  1  0  0  0  0
 22 20  1  0  0  0  0
 24 23  1  0  0  0  0
 24 30  1  0  0  0  0
 25 32  1  1  0  0  0
 26 30  1  0  0  0  0
 26 25  1  0  0  0  0
 28 27  1  1  0  0  0
 28 26  1  0  0  0  0
 28 31  1  0  0  0  0
 28 25  1  0  0  0  0
 29 35  1  0  0  0  0
 30 33  2  0  0  0  0
 31 25  1  0  0  0  0
 32 29  2  0  0  0  0
 33 29  1  0  0  0  0
 34 35  1  0  0  0  0
 35 39  1  0  0  0  0
 35 38  1  0  0  0  0
 36 34  1  0  0  0  0
 36 37  1  0  0  0  0
 37 40  1  0  0  0  0
 38 40  1  0  0  0  0
 41 42  1  0  0  0  0
 42 43  1  0  0  0  0
 43 44  1  0  0  0  0
 44 45  1  0  0  0  0
 45 46  1  6  0  0  0
 45 47  1  0  0  0  0
 47 48  1  6  0  0  0
 47 50  1  0  0  0  0
 49 47  1  0  0  0  0
 50 51  1  0  0  0  0
 51 53  1  0  0  0  0
 52 53  1  0  0  0  0
 53 54  1  0  0  0  0
M  END
>  <MODEL>
7

>  <REMARK>
 VINA RESULT:      -7.5      4.522      9.007
  Name = 
  15 active torsions:
  status: ('A' for Active; 'I' for Inactive)
    1  A    between atoms: C_7  and  C_20
    2  A    between atoms: C_7  and  O_46
    3  A    between atoms: C_15  and  C_17
    4  A    between atoms: C_15  and  C_28
    5  A    between atoms: C_15  and  C_37
    6  A    between atoms: C_18  and  C_36
    7  A    between atoms: C_18  and  C_41
    8  A    between atoms: C_19  and  C_26
    9  A    between atoms: C_20  and  C_24
   10  A    between atoms: C_21  and  O_46
   11  A    between atoms: C_24  and  C_36
   12  A    between atoms: C_28  and  C_41
   13  A    between atoms: C_31  and  C_50
   14  A    between atoms: C_35  and  C_48
   15  A    between atoms: C_48  and  C_50
                            x       y       z     vdW  Elec       q    Type
                         _______ _______ _______ _____ _____    ______ ____

>  <TORSDO>
F 15

$$$$
=
 OpenBabel10222421513D

 54 62  0  0  1  0  0  0  0  0999 V2000
  189.5510  176.9830  138.4510 C   0  0  2  0  0  3  0  0  0  0  0  0
  187.5310  178.5170  141.2790 C   0  0  0  0  0  3  0  0  0  0  0  0
  191.6080  176.9890  145.5600 C   0  0  0  0  0  3  0  0  0  0  0  0
  188.8640  177.5360  145.3250 N   0  0  0  0  0  0  0  0  0  0  0  0
  189.3500  176.9130  146.3660 C   0  0  0  0  0  3  0  0  0  0  0  0
  191.0610  177.5240  144.3180 C   0  0  2  0  0  3  0  0  0  0  0  0
  189.7390  178.2030  144.3540 C   0  0  1  0  0  3  0  0  0  0  0  0
  188.0470  178.5210  142.4690 N   0  0  0  0  0  0  0  0  0  0  0  0
  189.2970  178.0250  142.9430 C   0  0  1  0  0  3  0  0  0  0  0  0
  189.2700  177.4180  139.8540 C   0  0  0  0  0  0  0  0  0  0  0  0
  190.7740  176.7340  146.5280 N   0  0  0  0  0  0  0  0  0  0  0  0
  190.2690  177.4630  142.2400 C   0  0  0  0  0  0  0  0  0  0  0  0
  191.3770  177.0890  143.1100 C   0  0  0  0  0  3  0  0  0  0  0  0
  188.1300  177.9890  140.0880 N   0  0  0  0  0  0  0  0  0  0  0  0
  190.2640  177.1640  140.8490 N   0  0  0  0  0  2  0  0  0  0  0  0
  191.8620  176.9140  137.5860 O   0  0  0  0  0  0  0  0  0  0  0  0
  190.8570  174.7990  137.9050 C   0  0  2  0  0  3  0  0  0  0  0  0
  190.9020  176.2510  138.3880 C   0  0  2  0  0  3  0  0  0  0  0  0
  192.3240  174.6320  137.7170 C   0  0  0  0  0  2  0  0  0  0  0  0
  191.5110  175.5020  135.7000 C   0  0  0  0  0  2  0  0  0  0  0  0
  190.3880  174.7800  136.4440 C   0  0  0  0  0  2  0  0  0  0  0  0
  192.4400  175.8540  136.8500 C   0  0  1  0  0  0  0  0  0  0  0  0
  193.8560  176.1680  136.3820 C   0  0  0  0  0  2  0  0  0  0  0  0
  194.3760  175.1020  135.4250 C   0  0  0  0  0  2  0  0  0  0  0  0
  197.3070  173.8410  137.7920 C   0  0  1  0  0  0  0  0  0  0  0  0
  196.4190  174.5560  136.8520 N   0  0  0  0  0  0  0  0  0  0  0  0
  198.5090  173.9650  135.5970 C   0  0  0  0  0  1  0  0  0  0  0  0
  197.9140  174.6720  136.8150 C   0  0  2  0  0  0  0  0  0  0  0  0
  196.1910  171.8900  136.6280 C   0  0  0  0  0  0  0  0  0  0  0  0
  195.2820  174.1530  136.1290 C   0  0  0  0  0  0  0  0  0  0  0  0
  198.5950  174.3190  137.9700 O   0  0  0  0  0  0  0  0  0  0  0  0
  197.1900  172.3670  137.4380 C   0  0  0  0  0  3  0  0  0  0  0  0
  195.1710  172.8240  136.0010 C   0  0  0  0  0  3  0  0  0  0  0  0
  196.2900  169.6050  137.7040 C   0  0  0  0  0  2  0  0  0  0  0  0
  196.0720  170.3920  136.3930 C   0  0  0  0  0  0  0  0  0  0  0  0
  194.9850  169.4280  138.4800 C   0  0  0  0  0  2  0  0  0  0  0  0
  193.9660  168.6060  137.6800 C   0  0  0  0  0  2  0  0  0  0  0  0
  194.7060  170.0480  135.7470 C   0  0  0  0  0  2  0  0  0  0  0  0
  197.1680  169.9750  135.4300 C   0  0  0  0  0  1  0  0  0  0  0  0
  194.1820  168.6740  136.1640 C   0  0  0  0  0  2  0  0  0  0  0  0
  189.4610  178.1740  137.5050 C   0  0  0  0  0  2  0  0  0  0  0  0
  188.6000  177.8220  136.3110 C   0  0  0  0  0  2  0  0  0  0  0  0
  187.5120  176.8620  136.7490 C   0  0  0  0  0  2  0  0  0  0  0  0
  186.1390  177.4700  136.5100 C   0  0  0  0  0  2  0  0  0  0  0  0
  185.1770  177.1590  137.6580 C   0  0  1  0  0  3  0  0  0  0  0  0
  184.9050  178.4130  138.4780 C   0  0  0  0  0  1  0  0  0  0  0  0
  183.8730  176.4750  137.1980 C   0  0  1  0  0  0  0  0  0  0  0  0
  182.7750  176.6850  138.2290 C   0  0  0  0  0  1  0  0  0  0  0  0
  183.4550  177.0750  136.0100 O   0  0  0  0  0  1  0  0  0  0  0  0
  184.0520  174.9760  136.9310 C   0  0  0  0  0  2  0  0  0  0  0  0
  185.0670  174.4250  137.7170 O   0  0  0  0  0  0  0  0  0  0  0  0
  185.6840  172.4960  136.6740 O   0  0  0  0  0  1  0  0  0  0  0  0
  184.8590  173.0470  137.6530 C   0  0  0  0  0  3  0  0  0  0  0  0
  183.5240  172.7870  137.3420 O   0  0  0  0  0  1  0  0  0  0  0  0
  1 41  1  6  0  0  0
  1 10  1  0  0  0  0
  2  8  2  0  0  0  0
  3 11  2  0  0  0  0
  4  5  2  0  0  0  0
  5 11  1  0  0  0  0
  6 13  1  6  0  0  0
  6  7  1  0  0  0  0
  6  3  1  0  0  0  0
  7  4  1  1  0  0  0
  8  9  1  0  0  0  0
  9 12  1  6  0  0  0
  9  7  1  0  0  0  0
 10 14  2  0  0  0  0
 10 15  1  0  0  0  0
 12 13  2  0  0  0  0
 14  2  1  0  0  0  0
 15 12  1  0  0  0  0
 16 18  1  0  0  0  0
 17 21  1  6  0  0  0
 17 18  1  0  0  0  0
 18  1  1  6  0  0  0
 19 17  1  0  0  0  0
 20 21  1  0  0  0  0
 20 22  1  0  0  0  0
 22 23  1  6  0  0  0
 22 16  1  0  0  0  0
 22 19  1  0  0  0  0
 24 30  1  0  0  0  0
 24 23  1  0  0  0  0
 25 32  1  6  0  0  0
 25 31  1  0  0  0  0
 26 25  1  0  0  0  0
 28 27  1  6  0  0  0
 28 26  1  0  0  0  0
 28 25  1  0  0  0  0
 28 31  1  0  0  0  0
 29 32  2  0  0  0  0
 30 26  1  0  0  0  0
 33 30  2  0  0  0  0
 33 29  1  0  0  0  0
 34 36  1  0  0  0  0
 35 29  1  0  0  0  0
 35 34  1  0  0  0  0
 37 36  1  0  0  0  0
 38 40  1  0  0  0  0
 38 35  1  0  0  0  0
 39 35  1  0  0  0  0
 40 37  1  0  0  0  0
 42 43  1  0  0  0  0
 42 41  1  0  0  0  0
 44 43  1  0  0  0  0
 44 45  1  0  0  0  0
 45 46  1  6  0  0  0
 47 45  1  0  0  0  0
 47 48  1  1  0  0  0
 49 47  1  0  0  0  0
 50 47  1  0  0  0  0
 50 51  1  0  0  0  0
 52 53  1  0  0  0  0
 53 51  1  0  0  0  0
 54 53  1  0  0  0  0
M  END
>  <MODEL>
8

>  <REMARK>
 VINA RESULT:      -7.4      4.973      9.731
  Name = 
  15 active torsions:
  status: ('A' for Active; 'I' for Inactive)
    1  A    between atoms: C_7  and  C_20
    2  A    between atoms: C_7  and  O_46
    3  A    between atoms: C_15  and  C_17
    4  A    between atoms: C_15  and  C_28
    5  A    between atoms: C_15  and  C_37
    6  A    between atoms: C_18  and  C_36
    7  A    between atoms: C_18  and  C_41
    8  A    between atoms: C_19  and  C_26
    9  A    between atoms: C_20  and  C_24
   10  A    between atoms: C_21  and  O_46
   11  A    between atoms: C_24  and  C_36
   12  A    between atoms: C_28  and  C_41
   13  A    between atoms: C_31  and  C_50
   14  A    between atoms: C_35  and  C_48
   15  A    between atoms: C_48  and  C_50
                            x       y       z     vdW  Elec       q    Type
                         _______ _______ _______ _____ _____    ______ ____

>  <TORSDO>
F 15

$$$$
=
 OpenBabel10222421513D

 54 62  0  0  1  0  0  0  0  0999 V2000
  189.9410  175.3950  136.2720 C   0  0  2  0  0  3  0  0  0  0  0  0
  192.9010  173.9820  134.3530 C   0  0  0  0  0  3  0  0  0  0  0  0
  196.7690  174.6550  139.0290 C   0  0  0  0  0  3  0  0  0  0  0  0
  196.8150  174.5120  136.2250 N   0  0  0  0  0  0  0  0  0  0  0  0
  197.8240  174.9950  136.9010 C   0  0  0  0  0  3  0  0  0  0  0  0
  195.5720  174.2810  138.2840 C   0  0  2  0  0  3  0  0  0  0  0  0
  195.7220  173.7920  136.8890 C   0  0  1  0  0  3  0  0  0  0  0  0
  194.0240  173.8310  134.9830 N   0  0  0  0  0  0  0  0  0  0  0  0
  194.3800  174.1180  136.3340 C   0  0  1  0  0  3  0  0  0  0  0  0
  191.3440  174.9150  136.0770 C   0  0  0  0  0  0  0  0  0  0  0  0
  197.8350  174.9630  138.3450 N   0  0  0  0  0  0  0  0  0  0  0  0
  193.6000  174.5820  137.2990 C   0  0  0  0  0  0  0  0  0  0  0  0
  194.3580  174.7430  138.5340 C   0  0  0  0  0  3  0  0  0  0  0  0
  191.6770  174.4950  134.8950 N   0  0  0  0  0  0  0  0  0  0  0  0
  192.2340  174.9660  137.1950 N   0  0  0  0  0  2  0  0  0  0  0  0
  189.7570  176.8490  138.2570 O   0  0  0  0  0  0  0  0  0  0  0  0
  188.9330  177.7940  136.2540 C   0  0  2  0  0  3  0  0  0  0  0  0
  189.9470  176.8170  136.8550 C   0  0  2  0  0  3  0  0  0  0  0  0
  189.0850  178.8580  137.2820 C   0  0  0  0  0  2  0  0  0  0  0  0
  187.4450  177.3990  138.1010 C   0  0  0  0  0  2  0  0  0  0  0  0
  187.5190  177.2960  136.5790 C   0  0  0  0  0  2  0  0  0  0  0  0
  188.8390  177.9120  138.4240 C   0  0  1  0  0  0  0  0  0  0  0  0
  188.9230  178.5480  139.8050 C   0  0  0  0  0  2  0  0  0  0  0  0
  188.0910  177.7800  140.8250 C   0  0  0  0  0  2  0  0  0  0  0  0
  190.6720  178.6850  143.7070 C   0  0  1  0  0  0  0  0  0  0  0  0
  189.9760  178.2390  142.4820 N   0  0  0  0  0  0  0  0  0  0  0  0
  191.0600  176.2190  143.5000 C   0  0  0  0  0  1  0  0  0  0  0  0
  191.2630  177.6340  142.9590 C   0  0  2  0  0  0  0  0  0  0  0  0
  188.4860  177.8650  144.6850 C   0  0  0  0  0  0  0  0  0  0  0  0
  188.6220  177.9800  142.2020 C   0  0  0  0  0  0  0  0  0  0  0  0
  192.0200  178.3930  143.8390 O   0  0  0  0  0  0  0  0  0  0  0  0
  189.7850  178.2640  144.8690 C   0  0  0  0  0  3  0  0  0  0  0  0
  187.8760  177.7780  143.2960 C   0  0  0  0  0  3  0  0  0  0  0  0
  188.3430  176.5790  146.8560 C   0  0  0  0  0  2  0  0  0  0  0  0
  187.6230  177.5520  145.8970 C   0  0  0  0  0  0  0  0  0  0  0  0
  189.2140  177.3240  147.8670 C   0  0  0  0  0  2  0  0  0  0  0  0
  188.3710  178.2320  148.7710 C   0  0  0  0  0  2  0  0  0  0  0  0
  187.2060  178.8560  146.6230 C   0  0  0  0  0  2  0  0  0  0  0  0
  186.3630  176.8580  145.4140 C   0  0  0  0  0  1  0  0  0  0  0  0
  187.0490  178.6720  148.1310 C   0  0  0  0  0  2  0  0  0  0  0  0
  189.1600  174.3960  137.1160 C   0  0  0  0  0  2  0  0  0  0  0  0
  189.2610  173.0130  136.5070 C   0  0  0  0  0  2  0  0  0  0  0  0
  188.0210  172.7430  135.6790 C   0  0  0  0  0  2  0  0  0  0  0  0
  186.8120  172.5490  136.5810 C   0  0  0  0  0  2  0  0  0  0  0  0
  185.5040  172.6070  135.7910 C   0  0  1  0  0  3  0  0  0  0  0  0
  185.4870  171.5320  134.7120 C   0  0  0  0  0  1  0  0  0  0  0  0
  184.2450  172.5520  136.6810 C   0  0  1  0  0  0  0  0  0  0  0  0
  183.6100  171.1730  136.6120 C   0  0  0  0  0  1  0  0  0  0  0  0
  184.6310  172.7730  138.0040 O   0  0  0  0  0  1  0  0  0  0  0  0
  183.2090  173.6190  136.3090 C   0  0  0  0  0  2  0  0  0  0  0  0
  182.9050  174.4500  137.3910 O   0  0  0  0  0  0  0  0  0  0  0  0
  183.7870  175.8030  135.7840 O   0  0  0  0  0  1  0  0  0  0  0  0
  182.9030  175.7400  136.8600 C   0  0  0  0  0  3  0  0  0  0  0  0
  183.2940  176.6520  137.8410 O   0  0  0  0  0  1  0  0  0  0  0  0
  1 41  1  1  0  0  0
  2 14  1  0  0  0  0
  2  8  2  0  0  0  0
  4  5  2  0  0  0  0
  5 11  1  0  0  0  0
  6 13  1  6  0  0  0
  6  3  1  0  0  0  0
  7  4  1  6  0  0  0
  7  6  1  0  0  0  0
  9  8  1  1  0  0  0
  9  7  1  0  0  0  0
  9 12  1  0  0  0  0
 10  1  1  0  0  0  0
 10 15  1  0  0  0  0
 11  3  2  0  0  0  0
 12 13  2  0  0  0  0
 14 10  2  0  0  0  0
 15 12  1  0  0  0  0
 16 22  1  0  0  0  0
 17 21  1  1  0  0  0
 17 18  1  0  0  0  0
 17 19  1  0  0  0  0
 18  1  1  6  0  0  0
 18 16  1  0  0  0  0
 19 22  1  0  0  0  0
 20 22  1  0  0  0  0
 21 20  1  0  0  0  0
 22 23  1  1  0  0  0
 23 24  1  0  0  0  0
 24 30  1  0  0  0  0
 25 31  1  0  0  0  0
 25 32  1  1  0  0  0
 26 28  1  0  0  0  0
 26 25  1  0  0  0  0
 28 27  1  1  0  0  0
 28 25  1  0  0  0  0
 28 31  1  0  0  0  0
 29 32  2  0  0  0  0
 29 35  1  0  0  0  0
 30 26  1  0  0  0  0
 30 33  2  0  0  0  0
 33 29  1  0  0  0  0
 34 36  1  0  0  0  0
 35 38  1  0  0  0  0
 35 34  1  0  0  0  0
 36 37  1  0  0  0  0
 38 40  1  0  0  0  0
 39 35  1  0  0  0  0
 40 37  1  0  0  0  0
 42 41  1  0  0  0  0
 43 42  1  0  0  0  0
 43 44  1  0  0  0  0
 45 46  1  6  0  0  0
 45 44  1  0  0  0  0
 45 47  1  0  0  0  0
 47 48  1  6  0  0  0
 47 49  1  0  0  0  0
 50 47  1  0  0  0  0
 50 51  1  0  0  0  0
 52 53  1  0  0  0  0
 53 51  1  0  0  0  0
 53 54  1  0  0  0  0
M  END
>  <MODEL>
9

>  <REMARK>
 VINA RESULT:      -7.3      3.461      6.246
  Name = 
  15 active torsions:
  status: ('A' for Active; 'I' for Inactive)
    1  A    between atoms: C_7  and  C_20
    2  A    between atoms: C_7  and  O_46
    3  A    between atoms: C_15  and  C_17
    4  A    between atoms: C_15  and  C_28
    5  A    between atoms: C_15  and  C_37
    6  A    between atoms: C_18  and  C_36
    7  A    between atoms: C_18  and  C_41
    8  A    between atoms: C_19  and  C_26
    9  A    between atoms: C_20  and  C_24
   10  A    between atoms: C_21  and  O_46
   11  A    between atoms: C_24  and  C_36
   12  A    between atoms: C_28  and  C_41
   13  A    between atoms: C_31  and  C_50
   14  A    between atoms: C_35  and  C_48
   15  A    between atoms: C_48  and  C_50
                            x       y       z     vdW  Elec       q    Type
                         _______ _______ _______ _____ _____    ______ ____

>  <TORSDO>
F 15

$$$$
