=
 OpenBabel10232408193D

 32 34  0  0  1  0  0  0  0  0999 V2000
  187.4140  178.3870  139.8590 N   0  0  0  0  0  0  0  0  0  0  0  0
  187.9450  177.9080  142.1910 C   0  0  0  0  0  2  0  0  0  0  0  0
  190.4160  176.7730  141.2670 C   0  0  2  0  0  3  0  0  0  0  0  0
  188.2200  177.8460  140.7210 C   0  0  0  0  0  0  0  0  0  0  0  0
  189.4070  177.1690  140.2800 N   0  0  0  0  0  0  0  0  0  0  0  0
  189.7840  176.1300  142.5120 C   0  0  0  0  0  2  0  0  0  0  0  0
  188.3390  176.5690  142.8130 C   0  0  1  0  0  3  0  0  0  0  0  0
  191.2460  177.9760  141.6800 C   0  0  0  0  0  1  0  0  0  0  0  0
  189.5460  176.7750  138.8790 C   0  0  1  0  0  3  0  0  0  0  0  0
  189.7660  177.9800  137.9990 C   0  0  0  0  0  2  0  0  0  0  0  0
  190.5120  175.6530  136.3450 O   0  0  0  0  0  0  0  0  0  0  0  0
  189.6010  176.6500  135.9430 C   0  0  0  0  0  0  0  0  0  0  0  0
  189.0220  176.5330  134.6500 N   0  0  0  0  0  1  0  0  0  0  0  0
  192.2420  174.4400  137.6370 C   0  0  0  0  0  1  0  0  0  0  0  0
  191.0900  175.3770  137.6000 C   0  0  0  0  0  0  0  0  0  0  0  0
  189.2760  177.6780  136.6690 N   0  0  0  0  0  0  0  0  0  0  0  0
  190.6660  175.8670  138.7260 N   0  0  0  0  0  0  0  0  0  0  0  0
  183.4930  178.3510  138.0490 C   0  0  0  0  0  3  0  0  0  0  0  0
  184.8130  178.1630  138.3900 C   0  0  2  0  0  3  0  0  0  0  0  0
  186.2450  179.0570  140.2490 N   0  0  0  0  0  2  0  0  0  0  0  0
  183.8880  179.5490  139.8430 N   0  0  0  0  0  0  0  0  0  0  0  0
  182.9630  179.2030  138.9560 N   0  0  0  0  0  0  0  0  0  0  0  0
  185.7500  177.3350  137.7110 N   0  0  0  0  0  1  0  0  0  0  0  0
  185.0280  178.9230  139.5130 C   0  0  0  0  0  0  0  0  0  0  0  0
  188.0200  176.5110  144.3070 C   0  0  0  0  0  2  0  0  0  0  0  0
  187.2410  177.7270  144.8070 C   0  0  0  0  0  2  0  0  0  0  0  0
  187.4180  177.9370  146.3020 C   0  0  0  0  0  2  0  0  0  0  0  0
  185.9140  178.6570  147.0310 S   0  0  0  0  0  0  0  0  0  0  0  0
  185.0940  178.8230  145.4190 C   0  0  0  0  0  2  0  0  0  0  0  0
  183.7520  179.1550  145.6040 O   0  0  0  0  0  0  0  0  0  0  0  0
  184.1720  178.7070  143.3070 C   0  0  0  0  0  1  0  0  0  0  0  0
  183.1330  178.7890  144.4100 C   0  0  0  0  0  2  0  0  0  0  0  0
  1 20  1  0  0  0  0
  1  4  2  0  0  0  0
  2  7  1  0  0  0  0
  3  8  1  1  0  0  0
  3  6  1  0  0  0  0
  4  2  1  0  0  0  0
  5  4  1  0  0  0  0
  5  3  1  0  0  0  0
  6  7  1  0  0  0  0
  7 25  1  1  0  0  0
  9 10  1  6  0  0  0
  9  5  1  0  0  0  0
 11 15  1  0  0  0  0
 12 11  1  0  0  0  0
 12 16  2  0  0  0  0
 13 12  1  0  0  0  0
 15 14  1  0  0  0  0
 15 17  2  0  0  0  0
 16 10  1  0  0  0  0
 17  9  1  0  0  0  0
 18 19  1  0  0  0  0
 18 22  2  0  0  0  0
 19 23  1  1  0  0  0
 19 24  1  0  0  0  0
 22 21  1  0  0  0  0
 24 21  2  0  0  0  0
 24 20  1  0  0  0  0
 25 26  1  0  0  0  0
 26 27  1  0  0  0  0
 27 28  1  0  0  0  0
 29 30  1  0  0  0  0
 29 28  1  0  0  0  0
 31 32  1  0  0  0  0
 32 30  1  0  0  0  0
M  END
>  <MODEL>
1

>  <REMARK>
 VINA RESULT:      -7.6      0.000      0.000
  Name = 
  9 active torsions:
  status: ('A' for Active; 'I' for Inactive)
    1  A    between atoms: N_1  and  N_5
    2  A    between atoms: C_6  and  S_25
    3  A    between atoms: C_6  and  O_28
    4  A    between atoms: C_9  and  N_12
    5  A    between atoms: C_11  and  S_25
    6  A    between atoms: C_11  and  C_29
    7  A    between atoms: C_16  and  O_28
    8  A    between atoms: C_19  and  C_20
    9  A    between atoms: C_20  and  C_29
                            x       y       z     vdW  Elec       q    Type
                         _______ _______ _______ _____ _____    ______ ____

>  <TORSDO>
F 9

$$$$
=
 OpenBabel10232408193D

 32 34  0  0  1  0  0  0  0  0999 V2000
  187.3330  178.4570  139.9610 N   0  0  0  0  0  0  0  0  0  0  0  0
  187.8000  177.9140  142.2920 C   0  0  0  0  0  2  0  0  0  0  0  0
  190.3050  176.8210  141.4080 C   0  0  2  0  0  3  0  0  0  0  0  0
  188.1170  177.8970  140.8300 C   0  0  0  0  0  0  0  0  0  0  0  0
  189.3210  177.2400  140.4030 N   0  0  0  0  0  0  0  0  0  0  0  0
  189.6420  176.1390  142.6150 C   0  0  0  0  0  2  0  0  0  0  0  0
  188.1860  176.5590  142.8860 C   0  0  1  0  0  3  0  0  0  0  0  0
  191.1140  178.0170  141.8780 C   0  0  0  0  0  1  0  0  0  0  0  0
  189.5030  176.8870  138.9970 C   0  0  1  0  0  3  0  0  0  0  0  0
  189.7580  178.1170  138.1610 C   0  0  0  0  0  2  0  0  0  0  0  0
  190.5440  175.8370  136.4610 O   0  0  0  0  0  0  0  0  0  0  0  0
  189.6520  176.8520  136.0610 C   0  0  0  0  0  0  0  0  0  0  0  0
  189.1130  176.7780  134.7470 N   0  0  0  0  0  1  0  0  0  0  0  0
  192.2260  174.5740  137.7700 C   0  0  0  0  0  1  0  0  0  0  0  0
  191.0800  175.5200  137.7250 C   0  0  0  0  0  0  0  0  0  0  0  0
  189.3080  177.8590  136.8080 N   0  0  0  0  0  0  0  0  0  0  0  0
  190.6230  175.9780  138.8510 N   0  0  0  0  0  0  0  0  0  0  0  0
  183.4310  178.3470  138.1110 C   0  0  0  0  0  3  0  0  0  0  0  0
  184.7510  178.1830  138.4670 C   0  0  2  0  0  3  0  0  0  0  0  0
  186.1490  179.1080  140.3360 N   0  0  0  0  0  2  0  0  0  0  0  0
  183.7880  179.5590  139.9050 N   0  0  0  0  0  0  0  0  0  0  0  0
  182.8780  179.1930  139.0100 N   0  0  0  0  0  0  0  0  0  0  0  0
  185.7090  177.3690  137.8000 N   0  0  0  0  0  1  0  0  0  0  0  0
  184.9420  178.9510  139.5890 C   0  0  0  0  0  0  0  0  0  0  0  0
  187.8250  176.4570  144.3680 C   0  0  0  0  0  2  0  0  0  0  0  0
  188.2900  177.6580  145.1900 C   0  0  0  0  0  2  0  0  0  0  0  0
  187.4450  177.8520  146.4390 C   0  0  0  0  0  2  0  0  0  0  0  0
  188.4360  177.5520  147.9350 S   0  0  0  0  0  0  0  0  0  0  0  0
  189.9740  177.3350  146.9940 C   0  0  0  0  0  2  0  0  0  0  0  0
  191.0040  176.9500  147.8520 O   0  0  0  0  0  0  0  0  0  0  0  0
  191.6810  176.5110  145.6160 C   0  0  0  0  0  1  0  0  0  0  0  0
  191.8150  176.1240  147.0770 C   0  0  0  0  0  2  0  0  0  0  0  0
  1 20  1  0  0  0  0
  1  4  2  0  0  0  0
  2  7  1  0  0  0  0
  3  8  1  1  0  0  0
  3  6  1  0  0  0  0
  4  2  1  0  0  0  0
  5  4  1  0  0  0  0
  5  3  1  0  0  0  0
  6  7  1  0  0  0  0
  7 25  1  1  0  0  0
  9 10  1  6  0  0  0
  9  5  1  0  0  0  0
 11 15  1  0  0  0  0
 12 11  1  0  0  0  0
 12 16  2  0  0  0  0
 13 12  1  0  0  0  0
 15 14  1  0  0  0  0
 15 17  2  0  0  0  0
 16 10  1  0  0  0  0
 17  9  1  0  0  0  0
 18 19  1  0  0  0  0
 18 22  2  0  0  0  0
 19 23  1  1  0  0  0
 19 24  1  0  0  0  0
 22 21  1  0  0  0  0
 24 21  2  0  0  0  0
 24 20  1  0  0  0  0
 25 26  1  0  0  0  0
 26 27  1  0  0  0  0
 27 28  1  0  0  0  0
 29 30  1  0  0  0  0
 29 28  1  0  0  0  0
 31 32  1  0  0  0  0
 32 30  1  0  0  0  0
M  END
>  <MODEL>
2

>  <REMARK>
 VINA RESULT:      -7.4      1.925      2.837
  Name = 
  9 active torsions:
  status: ('A' for Active; 'I' for Inactive)
    1  A    between atoms: N_1  and  N_5
    2  A    between atoms: C_6  and  S_25
    3  A    between atoms: C_6  and  O_28
    4  A    between atoms: C_9  and  N_12
    5  A    between atoms: C_11  and  S_25
    6  A    between atoms: C_11  and  C_29
    7  A    between atoms: C_16  and  O_28
    8  A    between atoms: C_19  and  C_20
    9  A    between atoms: C_20  and  C_29
                            x       y       z     vdW  Elec       q    Type
                         _______ _______ _______ _____ _____    ______ ____

>  <TORSDO>
F 9

$$$$
=
 OpenBabel10232408193D

 32 34  0  0  1  0  0  0  0  0999 V2000
  187.6450  178.1290  141.7990 N   0  0  0  0  0  0  0  0  0  0  0  0
  189.8100  177.4000  140.9430 C   0  0  0  0  0  2  0  0  0  0  0  0
  190.3800  176.4100  143.5790 C   0  0  2  0  0  3  0  0  0  0  0  0
  188.8090  177.6060  142.0370 C   0  0  0  0  0  0  0  0  0  0  0  0
  189.1660  177.2070  143.3700 N   0  0  0  0  0  0  0  0  0  0  0  0
  191.5710  176.9500  142.7720 C   0  0  0  0  0  2  0  0  0  0  0  0
  191.1990  177.7230  141.4930 C   0  0  1  0  0  3  0  0  0  0  0  0
  190.1250  174.9610  143.2060 C   0  0  0  0  0  1  0  0  0  0  0  0
  188.3940  177.6950  144.5110 C   0  0  1  0  0  3  0  0  0  0  0  0
  187.1170  176.9090  144.6730 C   0  0  0  0  0  2  0  0  0  0  0  0
  187.4700  178.3660  147.2150 O   0  0  0  0  0  0  0  0  0  0  0  0
  186.2920  178.3970  146.4420 C   0  0  0  0  0  0  0  0  0  0  0  0
  185.2000  179.1650  146.9320 N   0  0  0  0  0  1  0  0  0  0  0  0
  189.7110  177.7210  148.0510 C   0  0  0  0  0  1  0  0  0  0  0  0
  188.7590  177.8780  146.9210 C   0  0  0  0  0  0  0  0  0  0  0  0
  186.1340  177.7520  145.3240 N   0  0  0  0  0  0  0  0  0  0  0  0
  189.1760  177.5820  145.7260 N   0  0  0  0  0  0  0  0  0  0  0  0
  183.6960  178.9290  140.2430 C   0  0  0  0  0  3  0  0  0  0  0  0
  184.7980  178.6160  141.0070 C   0  0  2  0  0  3  0  0  0  0  0  0
  187.2580  178.5310  140.5120 N   0  0  0  0  0  2  0  0  0  0  0  0
  185.4660  179.1230  138.9610 N   0  0  0  0  0  0  0  0  0  0  0  0
  184.1440  179.2310  139.0030 N   0  0  0  0  0  0  0  0  0  0  0  0
  184.7920  178.2430  142.3800 N   0  0  0  0  0  1  0  0  0  0  0  0
  185.8850  178.7460  140.1800 C   0  0  0  0  0  0  0  0  0  0  0  0
  192.2830  177.6140  140.4210 C   0  0  0  0  0  2  0  0  0  0  0  0
  191.7990  176.9400  139.1370 C   0  0  0  0  0  2  0  0  0  0  0  0
  192.9580  176.5010  138.2560 C   0  0  0  0  0  2  0  0  0  0  0  0
  192.3600  176.0060  136.6110 S   0  0  0  0  0  0  0  0  0  0  0  0
  190.6200  176.0180  137.1300 C   0  0  0  0  0  2  0  0  0  0  0  0
  189.8700  176.8030  136.2530 O   0  0  0  0  0  0  0  0  0  0  0  0
  189.0700  178.8100  137.2450 C   0  0  0  0  0  1  0  0  0  0  0  0
  188.8450  177.3240  137.0400 C   0  0  0  0  0  2  0  0  0  0  0  0
  1  4  2  0  0  0  0
  2  7  1  0  0  0  0
  2  4  1  0  0  0  0
  3  8  1  6  0  0  0
  4  5  1  0  0  0  0
  5  3  1  0  0  0  0
  6  3  1  0  0  0  0
  7 25  1  6  0  0  0
  7  6  1  0  0  0  0
  9  5  1  6  0  0  0
  9 10  1  0  0  0  0
  9 17  1  0  0  0  0
 10 16  1  0  0  0  0
 12 13  1  0  0  0  0
 12 11  1  0  0  0  0
 15 11  1  0  0  0  0
 15 14  1  0  0  0  0
 16 12  2  0  0  0  0
 17 15  2  0  0  0  0
 18 19  1  0  0  0  0
 19 23  1  1  0  0  0
 20  1  1  0  0  0  0
 21 22  1  0  0  0  0
 21 24  2  0  0  0  0
 22 18  2  0  0  0  0
 24 20  1  0  0  0  0
 24 19  1  0  0  0  0
 26 25  1  0  0  0  0
 27 26  1  0  0  0  0
 28 29  1  0  0  0  0
 28 27  1  0  0  0  0
 30 32  1  0  0  0  0
 30 29  1  0  0  0  0
 32 31  1  0  0  0  0
M  END
>  <MODEL>
3

>  <REMARK>
 VINA RESULT:      -7.1      3.303      7.307
  Name = 
  9 active torsions:
  status: ('A' for Active; 'I' for Inactive)
    1  A    between atoms: N_1  and  N_5
    2  A    between atoms: C_6  and  S_25
    3  A    between atoms: C_6  and  O_28
    4  A    between atoms: C_9  and  N_12
    5  A    between atoms: C_11  and  S_25
    6  A    between atoms: C_11  and  C_29
    7  A    between atoms: C_16  and  O_28
    8  A    between atoms: C_19  and  C_20
    9  A    between atoms: C_20  and  C_29
                            x       y       z     vdW  Elec       q    Type
                         _______ _______ _______ _____ _____    ______ ____

>  <TORSDO>
F 9

$$$$
=
 OpenBabel10232408193D

 32 34  0  0  1  0  0  0  0  0999 V2000
  191.1820  177.2100  139.4510 N   0  0  0  0  0  0  0  0  0  0  0  0
  191.5450  177.4080  141.8540 C   0  0  0  0  0  2  0  0  0  0  0  0
  188.6920  177.5680  142.1480 C   0  0  2  0  0  3  0  0  0  0  0  0
  190.6800  177.3950  140.6330 C   0  0  0  0  0  0  0  0  0  0  0  0
  189.2670  177.5940  140.7990 N   0  0  0  0  0  0  0  0  0  0  0  0
  189.5350  178.3720  143.1500 C   0  0  0  0  0  2  0  0  0  0  0  0
  191.0300  178.4940  142.8000 C   0  0  1  0  0  3  0  0  0  0  0  0
  188.5560  176.1340  142.6310 C   0  0  0  0  0  1  0  0  0  0  0  0
  188.4370  177.9390  139.6470 C   0  0  1  0  0  3  0  0  0  0  0  0
  188.3030  176.7650  138.7090 C   0  0  0  0  0  2  0  0  0  0  0  0
  186.1910  178.6610  137.9000 O   0  0  0  0  0  0  0  0  0  0  0  0
  187.1370  178.1060  137.0150 C   0  0  0  0  0  0  0  0  0  0  0  0
  187.0530  178.4700  135.6440 N   0  0  0  0  0  1  0  0  0  0  0  0
  184.8470  179.0760  139.9390 C   0  0  0  0  0  1  0  0  0  0  0  0
  186.1260  178.6590  139.3080 C   0  0  0  0  0  0  0  0  0  0  0  0
  188.0650  177.2670  137.3700 N   0  0  0  0  0  0  0  0  0  0  0  0
  187.1170  178.3450  140.0870 N   0  0  0  0  0  0  0  0  0  0  0  0
  193.2120  174.0870  137.2640 C   0  0  0  0  0  3  0  0  0  0  0  0
  192.3050  174.9280  137.8680 C   0  0  2  0  0  3  0  0  0  0  0  0
  192.5550  177.0120  139.2470 N   0  0  0  0  0  2  0  0  0  0  0  0
  194.3480  175.6700  138.2720 N   0  0  0  0  0  0  0  0  0  0  0  0
  194.4460  174.5720  137.5340 N   0  0  0  0  0  0  0  0  0  0  0  0
  190.8880  174.8020  137.8370 N   0  0  0  0  0  1  0  0  0  0  0  0
  193.0440  175.9050  138.4880 C   0  0  0  0  0  0  0  0  0  0  0  0
  191.9030  178.6330  144.0470 C   0  0  0  0  0  2  0  0  0  0  0  0
  191.2530  178.0660  145.3080 C   0  0  0  0  0  2  0  0  0  0  0  0
  191.7350  176.6560  145.6090 C   0  0  0  0  0  2  0  0  0  0  0  0
  191.3520  176.2010  147.3290 S   0  0  0  0  0  0  0  0  0  0  0  0
  189.9420  177.3420  147.4210 C   0  0  0  0  0  2  0  0  0  0  0  0
  188.7970  176.6480  147.8130 O   0  0  0  0  0  0  0  0  0  0  0  0
  187.4300  177.6150  146.1260 C   0  0  0  0  0  1  0  0  0  0  0  0
  187.7540  177.5480  147.6060 C   0  0  0  0  0  2  0  0  0  0  0  0
  1  4  2  0  0  0  0
  2  7  1  0  0  0  0
  3  8  1  1  0  0  0
  3  6  1  0  0  0  0
  4  5  1  0  0  0  0
  4  2  1  0  0  0  0
  5  3  1  0  0  0  0
  7  6  1  0  0  0  0
  7 25  1  1  0  0  0
  9 10  1  6  0  0  0
  9 17  1  0  0  0  0
  9  5  1  0  0  0  0
 11 15  1  0  0  0  0
 12 16  2  0  0  0  0
 12 11  1  0  0  0  0
 13 12  1  0  0  0  0
 15 14  1  0  0  0  0
 15 17  2  0  0  0  0
 16 10  1  0  0  0  0
 18 22  2  0  0  0  0
 18 19  1  0  0  0  0
 19 23  1  6  0  0  0
 19 24  1  0  0  0  0
 20  1  1  0  0  0  0
 21 24  2  0  0  0  0
 22 21  1  0  0  0  0
 24 20  1  0  0  0  0
 25 26  1  0  0  0  0
 26 27  1  0  0  0  0
 27 28  1  0  0  0  0
 28 29  1  0  0  0  0
 29 30  1  0  0  0  0
 31 32  1  0  0  0  0
 32 30  1  0  0  0  0
M  END
>  <MODEL>
4

>  <REMARK>
 VINA RESULT:      -7.0      2.693      5.843
  Name = 
  9 active torsions:
  status: ('A' for Active; 'I' for Inactive)
    1  A    between atoms: N_1  and  N_5
    2  A    between atoms: C_6  and  S_25
    3  A    between atoms: C_6  and  O_28
    4  A    between atoms: C_9  and  N_12
    5  A    between atoms: C_11  and  S_25
    6  A    between atoms: C_11  and  C_29
    7  A    between atoms: C_16  and  O_28
    8  A    between atoms: C_19  and  C_20
    9  A    between atoms: C_20  and  C_29
                            x       y       z     vdW  Elec       q    Type
                         _______ _______ _______ _____ _____    ______ ____

>  <TORSDO>
F 9

$$$$
=
 OpenBabel10232408193D

 32 34  0  0  1  0  0  0  0  0999 V2000
  187.5900  178.1510  141.7800 N   0  0  0  0  0  0  0  0  0  0  0  0
  189.7400  177.4120  140.8960 C   0  0  0  0  0  2  0  0  0  0  0  0
  190.3320  176.4020  143.5190 C   0  0  2  0  0  3  0  0  0  0  0  0
  188.7520  177.6180  142.0020 C   0  0  0  0  0  0  0  0  0  0  0  0
  189.1220  177.2090  143.3280 N   0  0  0  0  0  0  0  0  0  0  0  0
  191.5180  176.9390  142.7020 C   0  0  0  0  0  2  0  0  0  0  0  0
  191.1370  177.7230  141.4330 C   0  0  1  0  0  3  0  0  0  0  0  0
  190.0630  174.9570  143.1390 C   0  0  0  0  0  1  0  0  0  0  0  0
  188.3660  177.6940  144.4810 C   0  0  1  0  0  3  0  0  0  0  0  0
  187.0830  176.9180  144.6490 C   0  0  0  0  0  2  0  0  0  0  0  0
  187.4750  178.3520  147.1990 O   0  0  0  0  0  0  0  0  0  0  0  0
  186.2890  178.4000  146.4380 C   0  0  0  0  0  0  0  0  0  0  0  0
  185.2100  179.1740  146.9450 N   0  0  0  0  0  1  0  0  0  0  0  0
  189.7180  177.6800  148.0070 C   0  0  0  0  0  1  0  0  0  0  0  0
  188.7560  177.8540  146.8880 C   0  0  0  0  0  0  0  0  0  0  0  0
  186.1140  177.7650  145.3170 N   0  0  0  0  0  0  0  0  0  0  0  0
  189.1580  177.5650  145.6870 N   0  0  0  0  0  0  0  0  0  0  0  0
  183.6230  178.9220  140.2540 C   0  0  0  0  0  3  0  0  0  0  0  0
  184.7320  178.6130  141.0080 C   0  0  2  0  0  3  0  0  0  0  0  0
  187.1910  178.5640  140.5000 N   0  0  0  0  0  2  0  0  0  0  0  0
  185.3840  179.1530  138.9660 N   0  0  0  0  0  0  0  0  0  0  0  0
  184.0610  179.2450  139.0150 N   0  0  0  0  0  0  0  0  0  0  0  0
  184.7390  178.2230  142.3770 N   0  0  0  0  0  1  0  0  0  0  0  0
  185.8140  178.7660  140.1770 C   0  0  0  0  0  0  0  0  0  0  0  0
  192.2080  177.6130  140.3470 C   0  0  0  0  0  2  0  0  0  0  0  0
  191.7240  176.8940  139.0890 C   0  0  0  0  0  2  0  0  0  0  0  0
  192.8700  176.5740  138.1430 C   0  0  0  0  0  2  0  0  0  0  0  0
  192.7600  174.8530  137.5620 S   0  0  0  0  0  0  0  0  0  0  0  0
  194.5640  174.6700  137.4520 C   0  0  0  0  0  2  0  0  0  0  0  0
  195.1530  175.0670  138.6520 O   0  0  0  0  0  0  0  0  0  0  0  0
  195.5970  172.7630  138.2690 C   0  0  0  0  0  1  0  0  0  0  0  0
  196.0380  174.0370  138.9650 C   0  0  0  0  0  2  0  0  0  0  0  0
  1  4  2  0  0  0  0
  2  7  1  0  0  0  0
  2  4  1  0  0  0  0
  3  8  1  6  0  0  0
  4  5  1  0  0  0  0
  5  3  1  0  0  0  0
  6  3  1  0  0  0  0
  7 25  1  6  0  0  0
  7  6  1  0  0  0  0
  9  5  1  6  0  0  0
  9 10  1  0  0  0  0
  9 17  1  0  0  0  0
 10 16  1  0  0  0  0
 12 13  1  0  0  0  0
 12 11  1  0  0  0  0
 15 11  1  0  0  0  0
 15 14  1  0  0  0  0
 16 12  2  0  0  0  0
 17 15  2  0  0  0  0
 18 19  1  0  0  0  0
 19 23  1  1  0  0  0
 20  1  1  0  0  0  0
 21 22  1  0  0  0  0
 21 24  2  0  0  0  0
 22 18  2  0  0  0  0
 24 20  1  0  0  0  0
 24 19  1  0  0  0  0
 26 25  1  0  0  0  0
 27 26  1  0  0  0  0
 28 27  1  0  0  0  0
 29 28  1  0  0  0  0
 29 30  1  0  0  0  0
 30 32  1  0  0  0  0
 31 32  1  0  0  0  0
M  END
>  <MODEL>
5

>  <REMARK>
 VINA RESULT:      -7.0      3.529      8.074
  Name = 
  9 active torsions:
  status: ('A' for Active; 'I' for Inactive)
    1  A    between atoms: N_1  and  N_5
    2  A    between atoms: C_6  and  S_25
    3  A    between atoms: C_6  and  O_28
    4  A    between atoms: C_9  and  N_12
    5  A    between atoms: C_11  and  S_25
    6  A    between atoms: C_11  and  C_29
    7  A    between atoms: C_16  and  O_28
    8  A    between atoms: C_19  and  C_20
    9  A    between atoms: C_20  and  C_29
                            x       y       z     vdW  Elec       q    Type
                         _______ _______ _______ _____ _____    ______ ____

>  <TORSDO>
F 9

$$$$
=
 OpenBabel10232408193D

 32 34  0  0  1  0  0  0  0  0999 V2000
  186.3880  178.4190  139.8710 N   0  0  0  0  0  0  0  0  0  0  0  0
  188.8200  178.3170  140.0330 C   0  0  0  0  0  2  0  0  0  0  0  0
  188.8250  177.1970  137.3880 C   0  0  2  0  0  3  0  0  0  0  0  0
  187.5170  178.0560  139.3440 C   0  0  0  0  0  0  0  0  0  0  0  0
  187.5430  177.3880  138.0720 N   0  0  0  0  0  0  0  0  0  0  0  0
  189.9240  176.7100  138.3460 C   0  0  0  0  0  2  0  0  0  0  0  0
  189.7290  177.1070  139.8210 C   0  0  1  0  0  3  0  0  0  0  0  0
  189.2630  178.4920  136.7250 C   0  0  0  0  0  1  0  0  0  0  0  0
  186.3190  176.8010  137.5300 C   0  0  1  0  0  3  0  0  0  0  0  0
  185.8430  177.5680  136.3220 C   0  0  0  0  0  2  0  0  0  0  0  0
  184.3670  175.0130  136.2610 O   0  0  0  0  0  0  0  0  0  0  0  0
  183.7570  176.2810  136.1850 C   0  0  0  0  0  0  0  0  0  0  0  0
  182.3420  176.3270  136.0520 N   0  0  0  0  0  1  0  0  0  0  0  0
  186.0970  173.2400  136.2910 C   0  0  0  0  0  1  0  0  0  0  0  0
  185.6850  174.6370  136.5870 C   0  0  0  0  0  0  0  0  0  0  0  0
  184.4070  177.4070  136.2070 N   0  0  0  0  0  0  0  0  0  0  0  0
  186.5530  175.4210  137.1510 N   0  0  0  0  0  0  0  0  0  0  0  0
  183.1090  178.6670  142.6720 C   0  0  0  0  0  3  0  0  0  0  0  0
  183.9510  178.4120  141.6130 C   0  0  2  0  0  3  0  0  0  0  0  0
  186.3200  179.0730  141.1100 N   0  0  0  0  0  2  0  0  0  0  0  0
  185.0180  179.6630  143.0900 N   0  0  0  0  0  0  0  0  0  0  0  0
  183.7950  179.4330  143.5510 N   0  0  0  0  0  0  0  0  0  0  0  0
  183.6440  177.6370  140.4600 N   0  0  0  0  0  1  0  0  0  0  0  0
  185.1330  179.0460  141.9040 C   0  0  0  0  0  0  0  0  0  0  0  0
  191.0610  177.2520  140.5570 C   0  0  0  0  0  2  0  0  0  0  0  0
  190.9010  177.4730  142.0610 C   0  0  0  0  0  2  0  0  0  0  0  0
  190.4720  176.2030  142.7780 C   0  0  0  0  0  2  0  0  0  0  0  0
  188.7340  176.3200  143.3050 S   0  0  0  0  0  0  0  0  0  0  0  0
  189.1320  177.3870  144.7200 C   0  0  0  0  0  2  0  0  0  0  0  0
  190.2240  176.8650  145.4130 O   0  0  0  0  0  0  0  0  0  0  0  0
  188.5160  177.6480  146.8700 C   0  0  0  0  0  1  0  0  0  0  0  0
  189.9020  177.0420  146.7570 C   0  0  0  0  0  2  0  0  0  0  0  0
  1 20  1  0  0  0  0
  3  8  1  1  0  0  0
  3  5  1  0  0  0  0
  3  6  1  0  0  0  0
  4  1  2  0  0  0  0
  4  2  1  0  0  0  0
  5  4  1  0  0  0  0
  6  7  1  0  0  0  0
  7  2  1  0  0  0  0
  7 25  1  6  0  0  0
  9 10  1  6  0  0  0
  9  5  1  0  0  0  0
 11 15  1  0  0  0  0
 12 16  2  0  0  0  0
 12 11  1  0  0  0  0
 13 12  1  0  0  0  0
 14 15  1  0  0  0  0
 15 17  2  0  0  0  0
 16 10  1  0  0  0  0
 17  9  1  0  0  0  0
 18 22  2  0  0  0  0
 19 23  1  1  0  0  0
 19 24  1  0  0  0  0
 19 18  1  0  0  0  0
 20 24  1  0  0  0  0
 21 22  1  0  0  0  0
 24 21  2  0  0  0  0
 25 26  1  0  0  0  0
 26 27  1  0  0  0  0
 27 28  1  0  0  0  0
 28 29  1  0  0  0  0
 29 30  1  0  0  0  0
 30 32  1  0  0  0  0
 32 31  1  0  0  0  0
M  END
>  <MODEL>
6

>  <REMARK>
 VINA RESULT:      -6.5      2.838      4.654
  Name = 
  9 active torsions:
  status: ('A' for Active; 'I' for Inactive)
    1  A    between atoms: N_1  and  N_5
    2  A    between atoms: C_6  and  S_25
    3  A    between atoms: C_6  and  O_28
    4  A    between atoms: C_9  and  N_12
    5  A    between atoms: C_11  and  S_25
    6  A    between atoms: C_11  and  C_29
    7  A    between atoms: C_16  and  O_28
    8  A    between atoms: C_19  and  C_20
    9  A    between atoms: C_20  and  C_29
                            x       y       z     vdW  Elec       q    Type
                         _______ _______ _______ _____ _____    ______ ____

>  <TORSDO>
F 9

$$$$
=
 OpenBabel10232408193D

 32 34  0  0  1  0  0  0  0  0999 V2000
  190.8280  175.3200  138.5180 N   0  0  0  0  0  0  0  0  0  0  0  0
  189.2240  176.0510  136.8320 C   0  0  0  0  0  2  0  0  0  0  0  0
  188.3350  178.0310  138.7130 C   0  0  2  0  0  3  0  0  0  0  0  0
  189.8340  176.0910  138.1980 C   0  0  0  0  0  0  0  0  0  0  0  0
  189.2920  177.0130  139.1570 N   0  0  0  0  0  0  0  0  0  0  0  0
  187.2710  177.4500  137.7690 C   0  0  0  0  0  2  0  0  0  0  0  0
  187.7100  176.2060  136.9760 C   0  0  1  0  0  3  0  0  0  0  0  0
  189.0650  179.1690  138.0210 C   0  0  0  0  0  1  0  0  0  0  0  0
  189.6000  176.8550  140.5780 C   0  0  1  0  0  3  0  0  0  0  0  0
  190.8140  177.6660  140.9590 C   0  0  0  0  0  2  0  0  0  0  0  0
  189.5200  176.9410  143.5110 O   0  0  0  0  0  0  0  0  0  0  0  0
  190.8810  176.7140  143.2200 C   0  0  0  0  0  0  0  0  0  0  0  0
  191.6800  176.1140  144.2310 N   0  0  0  0  0  1  0  0  0  0  0  0
  187.1920  177.7690  143.3390 C   0  0  0  0  0  1  0  0  0  0  0  0
  188.4470  177.3230  142.6810 C   0  0  0  0  0  0  0  0  0  0  0  0
  191.4520  177.0370  142.0980 N   0  0  0  0  0  0  0  0  0  0  0  0
  188.4740  177.2840  141.3830 N   0  0  0  0  0  0  0  0  0  0  0  0
  194.8390  175.1320  136.9260 C   0  0  0  0  0  3  0  0  0  0  0  0
  193.6740  175.4420  137.5910 C   0  0  2  0  0  3  0  0  0  0  0  0
  191.3860  174.4080  137.6100 N   0  0  0  0  0  2  0  0  0  0  0  0
  193.3230  173.6660  136.3220 N   0  0  0  0  0  0  0  0  0  0  0  0
  194.5850  174.0450  136.1620 N   0  0  0  0  0  0  0  0  0  0  0  0
  193.4870  176.5120  138.5100 N   0  0  0  0  0  1  0  0  0  0  0  0
  192.7480  174.5100  137.1930 C   0  0  0  0  0  0  0  0  0  0  0  0
  186.9900  176.0980  135.6310 C   0  0  0  0  0  2  0  0  0  0  0  0
  185.5750  176.6760  135.6530 C   0  0  0  0  0  2  0  0  0  0  0  0
  184.5180  175.5850  135.7070 C   0  0  0  0  0  2  0  0  0  0  0  0
  183.9700  175.3080  137.4200 S   0  0  0  0  0  0  0  0  0  0  0  0
  184.4740  173.5630  137.4040 C   0  0  0  0  0  2  0  0  0  0  0  0
  185.8230  173.4580  137.7420 O   0  0  0  0  0  0  0  0  0  0  0  0
  187.8390  172.4230  137.0220 C   0  0  0  0  0  1  0  0  0  0  0  0
  186.3360  172.5250  136.8420 C   0  0  0  0  0  2  0  0  0  0  0  0
  2  7  1  0  0  0  0
  2  4  1  0  0  0  0
  3  8  1  6  0  0  0
  3  5  1  0  0  0  0
  4  1  2  0  0  0  0
  4  5  1  0  0  0  0
  6  3  1  0  0  0  0
  7 25  1  6  0  0  0
  7  6  1  0  0  0  0
  9  5  1  6  0  0  0
  9 10  1  0  0  0  0
  9 17  1  0  0  0  0
 10 16  1  0  0  0  0
 12 11  1  0  0  0  0
 12 13  1  0  0  0  0
 15 14  1  0  0  0  0
 15 11  1  0  0  0  0
 16 12  2  0  0  0  0
 17 15  2  0  0  0  0
 18 19  1  0  0  0  0
 19 23  1  1  0  0  0
 20  1  1  0  0  0  0
 21 24  2  0  0  0  0
 22 21  1  0  0  0  0
 22 18  2  0  0  0  0
 24 19  1  0  0  0  0
 24 20  1  0  0  0  0
 25 26  1  0  0  0  0
 26 27  1  0  0  0  0
 27 28  1  0  0  0  0
 29 28  1  0  0  0  0
 29 30  1  0  0  0  0
 32 31  1  0  0  0  0
 32 30  1  0  0  0  0
M  END
>  <MODEL>
7

>  <REMARK>
 VINA RESULT:      -6.3      3.557      8.029
  Name = 
  9 active torsions:
  status: ('A' for Active; 'I' for Inactive)
    1  A    between atoms: N_1  and  N_5
    2  A    between atoms: C_6  and  S_25
    3  A    between atoms: C_6  and  O_28
    4  A    between atoms: C_9  and  N_12
    5  A    between atoms: C_11  and  S_25
    6  A    between atoms: C_11  and  C_29
    7  A    between atoms: C_16  and  O_28
    8  A    between atoms: C_19  and  C_20
    9  A    between atoms: C_20  and  C_29
                            x       y       z     vdW  Elec       q    Type
                         _______ _______ _______ _____ _____    ______ ____

>  <TORSDO>
F 9

$$$$
=
 OpenBabel10232408193D

 32 34  0  0  1  0  0  0  0  0999 V2000
  186.4730  178.7540  140.8970 N   0  0  0  0  0  0  0  0  0  0  0  0
  185.5440  178.3900  138.6710 C   0  0  0  0  0  2  0  0  0  0  0  0
  182.9590  178.9440  139.7950 C   0  0  2  0  0  3  0  0  0  0  0  0
  185.4240  178.6610  140.1380 C   0  0  0  0  0  0  0  0  0  0  0  0
  184.1100  178.8190  140.6950 N   0  0  0  0  0  0  0  0  0  0  0  0
  183.0080  177.9210  138.6500 C   0  0  0  0  0  2  0  0  0  0  0  0
  184.4190  177.4390  138.2630 C   0  0  1  0  0  3  0  0  0  0  0  0
  182.8940  180.3490  139.2210 C   0  0  0  0  0  1  0  0  0  0  0  0
  183.9130  178.7340  142.1410 C   0  0  1  0  0  3  0  0  0  0  0  0
  184.6150  179.8660  142.8490 C   0  0  0  0  0  2  0  0  0  0  0  0
  182.7520  178.7320  144.8370 O   0  0  0  0  0  0  0  0  0  0  0  0
  184.1290  178.9330  145.0660 C   0  0  0  0  0  0  0  0  0  0  0  0
  184.6440  178.5830  146.3440 N   0  0  0  0  0  1  0  0  0  0  0  0
  180.5130  178.8210  143.7830 C   0  0  0  0  0  1  0  0  0  0  0  0
  181.9920  178.7880  143.6520 C   0  0  0  0  0  0  0  0  0  0  0  0
  184.9490  179.4360  144.1920 N   0  0  0  0  0  0  0  0  0  0  0  0
  182.4990  178.7850  142.4560 N   0  0  0  0  0  0  0  0  0  0  0  0
  189.8250  176.5750  142.5330 C   0  0  0  0  0  3  0  0  0  0  0  0
  188.6070  177.1610  142.2680 C   0  0  2  0  0  3  0  0  0  0  0  0
  187.7730  178.6060  140.3920 N   0  0  0  0  0  2  0  0  0  0  0  0
  190.0170  177.6760  140.6450 N   0  0  0  0  0  0  0  0  0  0  0  0
  190.6580  176.9130  141.5220 N   0  0  0  0  0  0  0  0  0  0  0  0
  187.4340  177.0630  143.0670 N   0  0  0  0  0  1  0  0  0  0  0  0
  188.7600  177.8400  141.0850 C   0  0  0  0  0  0  0  0  0  0  0  0
  184.5070  177.0420  136.7890 C   0  0  0  0  0  2  0  0  0  0  0  0
  185.2200  175.7100  136.5620 C   0  0  0  0  0  2  0  0  0  0  0  0
  186.5120  175.8850  135.7800 C   0  0  0  0  0  2  0  0  0  0  0  0
  187.8420  174.8790  136.5070 S   0  0  0  0  0  0  0  0  0  0  0  0
  188.2920  176.1640  137.7090 C   0  0  0  0  0  2  0  0  0  0  0  0
  189.6520  176.4530  137.6040 O   0  0  0  0  0  0  0  0  0  0  0  0
  188.9800  178.6580  137.0210 C   0  0  0  0  0  1  0  0  0  0  0  0
  189.7300  177.4100  136.5940 C   0  0  0  0  0  2  0  0  0  0  0  0
  2  4  1  0  0  0  0
  3  8  1  6  0  0  0
  3  5  1  0  0  0  0
  4  5  1  0  0  0  0
  4  1  2  0  0  0  0
  6  3  1  0  0  0  0
  7 25  1  6  0  0  0
  7  6  1  0  0  0  0
  7  2  1  0  0  0  0
  9  5  1  6  0  0  0
  9 17  1  0  0  0  0
  9 10  1  0  0  0  0
 10 16  1  0  0  0  0
 11 12  1  0  0  0  0
 12 13  1  0  0  0  0
 15 14  1  0  0  0  0
 15 11  1  0  0  0  0
 16 12  2  0  0  0  0
 17 15  2  0  0  0  0
 19 18  1  0  0  0  0
 19 23  1  6  0  0  0
 20  1  1  0  0  0  0
 20 24  1  0  0  0  0
 21 24  2  0  0  0  0
 21 22  1  0  0  0  0
 22 18  2  0  0  0  0
 24 19  1  0  0  0  0
 26 25  1  0  0  0  0
 27 28  1  0  0  0  0
 27 26  1  0  0  0  0
 28 29  1  0  0  0  0
 30 29  1  0  0  0  0
 32 31  1  0  0  0  0
 32 30  1  0  0  0  0
M  END
>  <MODEL>
8

>  <REMARK>
 VINA RESULT:      -6.3      2.996      8.512
  Name = 
  9 active torsions:
  status: ('A' for Active; 'I' for Inactive)
    1  A    between atoms: N_1  and  N_5
    2  A    between atoms: C_6  and  S_25
    3  A    between atoms: C_6  and  O_28
    4  A    between atoms: C_9  and  N_12
    5  A    between atoms: C_11  and  S_25
    6  A    between atoms: C_11  and  C_29
    7  A    between atoms: C_16  and  O_28
    8  A    between atoms: C_19  and  C_20
    9  A    between atoms: C_20  and  C_29
                            x       y       z     vdW  Elec       q    Type
                         _______ _______ _______ _____ _____    ______ ____

>  <TORSDO>
F 9

$$$$
=
 OpenBabel10232408193D

 32 34  0  0  1  0  0  0  0  0999 V2000
  190.8480  175.3020  138.5570 N   0  0  0  0  0  0  0  0  0  0  0  0
  189.1980  176.0550  136.9260 C   0  0  0  0  0  2  0  0  0  0  0  0
  188.3960  178.0420  138.8400 C   0  0  2  0  0  3  0  0  0  0  0  0
  189.8540  176.0860  138.2710 C   0  0  0  0  0  0  0  0  0  0  0  0
  189.3550  177.0110  139.2500 N   0  0  0  0  0  0  0  0  0  0  0  0
  187.2950  177.4760  137.9290 C   0  0  0  0  0  2  0  0  0  0  0  0
  187.6920  176.2280  137.1200 C   0  0  1  0  0  3  0  0  0  0  0  0
  189.1170  179.1730  138.1260 C   0  0  0  0  0  1  0  0  0  0  0  0
  189.7080  176.8460  140.6590 C   0  0  1  0  0  3  0  0  0  0  0  0
  190.9090  177.6860  141.0150 C   0  0  0  0  0  2  0  0  0  0  0  0
  189.7090  176.8980  143.5940 O   0  0  0  0  0  0  0  0  0  0  0  0
  191.0660  176.7110  143.2620 C   0  0  0  0  0  0  0  0  0  0  0  0
  191.9100  176.1220  144.2430 N   0  0  0  0  0  1  0  0  0  0  0  0
  187.3550  177.6640  143.4980 C   0  0  0  0  0  1  0  0  0  0  0  0
  188.6020  177.2590  142.7990 C   0  0  0  0  0  0  0  0  0  0  0  0
  191.5960  177.0620  142.1280 N   0  0  0  0  0  0  0  0  0  0  0  0
  188.5940  177.2350  141.5010 N   0  0  0  0  0  0  0  0  0  0  0  0
  194.8180  175.0370  136.8750 C   0  0  0  0  0  3  0  0  0  0  0  0
  193.6750  175.3670  137.5670 C   0  0  2  0  0  3  0  0  0  0  0  0
  191.3650  174.3850  137.6300 N   0  0  0  0  0  2  0  0  0  0  0  0
  193.2560  173.6110  136.2920 N   0  0  0  0  0  0  0  0  0  0  0  0
  194.5220  173.9630  136.1070 N   0  0  0  0  0  0  0  0  0  0  0  0
  193.5330  176.4330  138.4990 N   0  0  0  0  0  1  0  0  0  0  0  0
  192.7200  174.4600  137.1830 C   0  0  0  0  0  0  0  0  0  0  0  0
  186.9270  176.1330  135.7990 C   0  0  0  0  0  2  0  0  0  0  0  0
  185.7030  177.0450  135.7410 C   0  0  0  0  0  2  0  0  0  0  0  0
  184.4100  176.2530  135.6340 C   0  0  0  0  0  2  0  0  0  0  0  0
  183.7270  175.9140  137.2860 S   0  0  0  0  0  0  0  0  0  0  0  0
  183.7180  177.6700  137.7500 C   0  0  0  0  0  2  0  0  0  0  0  0
  183.6340  177.7920  139.1370 O   0  0  0  0  0  0  0  0  0  0  0  0
  185.1680  178.8290  140.6290 C   0  0  0  0  0  1  0  0  0  0  0  0
  184.2660  179.0010  139.4210 C   0  0  0  0  0  2  0  0  0  0  0  0
  2  7  1  0  0  0  0
  2  4  1  0  0  0  0
  3  8  1  6  0  0  0
  3  5  1  0  0  0  0
  4  1  2  0  0  0  0
  4  5  1  0  0  0  0
  6  3  1  0  0  0  0
  7 25  1  6  0  0  0
  7  6  1  0  0  0  0
  9  5  1  6  0  0  0
  9 10  1  0  0  0  0
  9 17  1  0  0  0  0
 10 16  1  0  0  0  0
 12 11  1  0  0  0  0
 12 13  1  0  0  0  0
 15 14  1  0  0  0  0
 15 11  1  0  0  0  0
 16 12  2  0  0  0  0
 17 15  2  0  0  0  0
 18 19  1  0  0  0  0
 19 23  1  1  0  0  0
 20  1  1  0  0  0  0
 21 24  2  0  0  0  0
 22 21  1  0  0  0  0
 22 18  2  0  0  0  0
 24 19  1  0  0  0  0
 24 20  1  0  0  0  0
 26 25  1  0  0  0  0
 27 26  1  0  0  0  0
 27 28  1  0  0  0  0
 28 29  1  0  0  0  0
 29 30  1  0  0  0  0
 30 32  1  0  0  0  0
 32 31  1  0  0  0  0
M  END
>  <MODEL>
9

>  <REMARK>
 VINA RESULT:      -6.3      3.558      7.512
  Name = 
  9 active torsions:
  status: ('A' for Active; 'I' for Inactive)
    1  A    between atoms: N_1  and  N_5
    2  A    between atoms: C_6  and  S_25
    3  A    between atoms: C_6  and  O_28
    4  A    between atoms: C_9  and  N_12
    5  A    between atoms: C_11  and  S_25
    6  A    between atoms: C_11  and  C_29
    7  A    between atoms: C_16  and  O_28
    8  A    between atoms: C_19  and  C_20
    9  A    between atoms: C_20  and  C_29
                            x       y       z     vdW  Elec       q    Type
                         _______ _______ _______ _____ _____    ______ ____

>  <TORSDO>
F 9

$$$$
