=
 OpenBabel10232410083D

 65 73  0  0  1  0  0  0  0  0999 V2000
  186.1240  177.7360  136.1700 C   0  0  1  0  0  3  0  0  0  0  0  0
  190.5690  176.8320  134.3460 C   0  0  0  0  0  2  0  0  0  0  0  0
  189.6820  177.5940  135.2730 C   0  0  0  0  0  0  0  0  0  0  0  0
  186.6060  178.6150  137.3380 C   0  0  1  0  0  3  0  0  0  0  0  0
  188.1180  177.2840  141.0960 C   0  0  2  0  0  3  0  0  0  0  0  0
  190.8550  175.7250  139.2200 O   0  0  0  0  0  0  0  0  0  0  0  0
  189.4950  175.9800  139.4190 C   0  0  0  0  0  0  0  0  0  0  0  0
  192.3930  176.7760  137.6610 C   0  0  0  0  0  2  0  0  0  0  0  0
  187.1250  177.8630  138.5740 C   0  0  1  0  0  3  0  0  0  0  0  0
  191.8120  176.7730  139.0760 C   0  0  2  0  0  3  0  0  0  0  0  0
  188.5040  178.1160  138.7730 O   0  0  0  0  0  0  0  0  0  0  0  0
  188.6640  175.0470  139.2580 O   0  0  0  0  0  0  0  0  0  0  0  0
  189.0150  177.3380  139.8460 C   0  0  1  0  0  3  0  0  0  0  0  0
  187.0850  178.4140  141.0620 C   0  0  0  0  0  2  0  0  0  0  0  0
  187.1750  176.8950  135.4850 C   0  0  0  0  0  3  0  0  0  0  0  0
  188.4210  177.2710  135.3480 C   0  0  0  0  0  0  0  0  0  0  0  0
  187.4790  179.6200  136.9040 O   0  0  0  0  0  1  0  0  0  0  0  0
  190.3780  177.8210  136.5550 C   0  0  0  0  0  2  0  0  0  0  0  0
  191.2810  176.6170  136.6370 C   0  0  1  0  0  3  0  0  0  0  0  0
  191.7450  176.3820  135.2110 C   0  0  1  0  0  3  0  0  0  0  0  0
  186.2780  178.3270  139.7720 C   0  0  0  0  0  2  0  0  0  0  0  0
  188.9270  177.2480  142.3270 N   0  0  2  0  0  0  0  0  0  0  0  0
  186.5900  177.5130  145.2090 C   0  0  0  0  0  2  0  0  0  0  0  0
  188.1700  177.8230  143.4460 C   0  0  2  0  0  3  0  0  0  0  0  0
  188.9430  177.6330  144.7200 C   0  0  2  0  0  3  0  0  0  0  0  0
  187.9310  177.9650  145.7970 C   0  0  2  0  0  3  0  0  0  0  0  0
  186.8500  177.1480  143.7510 C   0  0  0  0  0  2  0  0  0  0  0  0
  190.1420  178.0690  142.1570 C   0  0  0  0  0  2  0  0  0  0  0  0
  191.0070  178.0660  143.4290 C   0  0  0  0  0  2  0  0  0  0  0  0
  191.0460  178.3260  145.8960 C   0  0  0  0  0  1  0  0  0  0  0  0
  190.1940  178.5050  144.6530 C   0  0  2  0  0  3  0  0  0  0  0  0
  188.2350  177.1820  147.0630 C   0  0  0  0  0  2  0  0  0  0  0  0
  188.3250  178.3050  148.4900 S   0  0  0  0  0  1  0  0  0  0  0  0
  192.0500  174.9390  134.9680 C   0  0  0  0  0  0  0  0  0  0  0  0
  193.0560  172.2650  134.4210 O   0  0  0  0  0  0  0  0  0  0  0  0
  193.8630  173.1630  134.7770 C   0  0  0  0  0  0  0  0  0  0  0  0
  191.1240  174.1360  134.6660 O   0  0  0  0  0  0  0  0  0  0  0  0
  193.4070  174.4930  135.0610 N   0  0  0  0  0  2  0  0  0  0  0  0
  197.9630  171.2840  134.9310 O   0  0  0  0  0  0  0  0  0  0  0  0
  195.3220  172.8310  134.8850 C   0  0  2  0  0  3  0  0  0  0  0  0
  196.8070  171.1370  135.7420 C   0  0  2  0  0  3  0  0  0  0  0  0
  198.2340  173.6590  134.6970 C   0  0  0  0  0  2  0  0  0  0  0  0
  197.1980  174.4370  135.5430 C   0  0  2  0  0  0  0  0  0  0  0  0
  195.5610  171.3360  134.9080 C   0  0  0  0  0  2  0  0  0  0  0  0
  198.2900  172.4690  136.9270 C   0  0  2  0  0  3  0  0  0  0  0  0
  196.7990  172.2430  136.7800 C   0  0  1  0  0  3  0  0  0  0  0  0
  196.1000  173.4480  136.0750 C   0  0  2  0  0  0  0  0  0  0  0  0
  196.6130  175.5840  134.7330 C   0  0  0  0  0  1  0  0  0  0  0  0
  198.6100  173.8440  137.5470 C   0  0  0  0  0  2  0  0  0  0  0  0
  197.9800  174.9940  136.7390 C   0  0  0  0  0  2  0  0  0  0  0  0
  198.6870  172.3780  135.4530 C   0  0  1  0  0  3  0  0  0  0  0  0
  195.1870  174.1310  137.0990 C   0  0  0  0  0  1  0  0  0  0  0  0
  184.0540  177.3740  137.2730 O   0  0  0  0  0  0  0  0  0  0  0  0
  184.9440  176.8980  136.5780 C   0  0  0  0  0  0  0  0  0  0  0  0
  184.5400  175.5450  134.6800 O   0  0  0  0  0  1  0  0  0  0  0  0
  184.8150  175.5020  136.0490 C   0  0  2  0  0  3  0  0  0  0  0  0
  183.7040  174.7490  136.7660 C   0  0  0  0  0  2  0  0  0  0  0  0
  183.6810  173.2830  136.3430 C   0  0  1  0  0  3  0  0  0  0  0  0
  184.1070  172.4900  137.4120 O   0  0  0  0  0  1  0  0  0  0  0  0
  182.3340  171.6930  135.1590 O   0  0  0  0  0  1  0  0  0  0  0  0
  182.2730  172.8680  135.9150 C   0  0  2  0  0  3  0  0  0  0  0  0
  180.2760  174.0940  135.4360 O   0  0  0  0  0  1  0  0  0  0  0  0
  181.6150  173.9480  135.0660 C   0  0  0  0  0  2  0  0  0  0  0  0
  192.9100  176.6010  140.0710 C   0  0  0  0  0  3  0  0  0  0  0  0
  194.0450  176.9550  139.8020 O   0  0  0  0  0  0  0  0  0  0  0  0
  1 54  1  1  0  0  0
  1  4  1  0  0  0  0
  2 20  1  0  0  0  0
  2  3  1  0  0  0  0
  3 16  2  0  0  0  0
  3 18  1  0  0  0  0
  4 17  1  6  0  0  0
  4  9  1  0  0  0  0
  5 14  1  1  0  0  0
  5 22  1  0  0  0  0
  6  7  1  0  0  0  0
  7 13  1  0  0  0  0
  8 10  1  0  0  0  0
  9 11  1  0  0  0  0
  9 21  1  1  0  0  0
 10  6  1  0  0  0  0
 10 64  1  1  0  0  0
 12  7  2  0  0  0  0
 13 11  1  6  0  0  0
 13  5  1  0  0  0  0
 15  1  1  0  0  0  0
 16 15  2  0  0  0  0
 19 18  1  6  0  0  0
 19  8  1  0  0  0  0
 20 34  1  1  0  0  0
 20 19  1  0  0  0  0
 21 14  1  0  0  0  0
 22 28  1  6  0  0  0
 22 24  1  0  0  0  0
 23 26  1  0  0  0  0
 24 27  1  1  0  0  0
 24 25  1  0  0  0  0
 25 26  1  0  0  0  0
 26 32  1  0  0  0  0
 27 23  1  0  0  0  0
 28 29  1  0  0  0  0
 29 31  1  0  0  0  0
 31 25  1  0  0  0  0
 31 30  1  0  0  0  0
 32 33  1  0  0  0  0
 34 38  1  0  0  0  0
 35 36  2  0  0  0  0
 36 40  1  0  0  0  0
 36 38  1  0  0  0  0
 37 34  2  0  0  0  0
 39 51  1  0  0  0  0
 39 41  1  0  0  0  0
 40 44  1  0  0  0  0
 40 47  1  0  0  0  0
 41 46  1  0  0  0  0
 42 51  1  0  0  0  0
 42 43  1  0  0  0  0
 43 47  1  0  0  0  0
 43 50  1  0  0  0  0
 44 41  1  0  0  0  0
 45 49  1  0  0  0  0
 46 45  1  0  0  0  0
 47 46  1  0  0  0  0
 47 52  1  0  0  0  0
 48 43  1  0  0  0  0
 50 49  1  0  0  0  0
 51 45  1  0  0  0  0
 54 53  2  0  0  0  0
 55 56  1  0  0  0  0
 56 54  1  0  0  0  0
 56 57  1  0  0  0  0
 58 57  1  0  0  0  0
 58 59  1  0  0  0  0
 60 61  1  0  0  0  0
 61 58  1  0  0  0  0
 63 62  1  0  0  0  0
 63 61  1  0  0  0  0
 65 64  2  0  0  0  0
M  END
>  <MODEL>
1

>  <REMARK>
 VINA RESULT:      -4.8      0.000      0.000
  Name = 
  11 active torsions:
  status: ('A' for Active; 'I' for Inactive)
    1  A    between atoms: N_2  and  C_17
    2  A    between atoms: C_3  and  C_35
    3  A    between atoms: C_6  and  C_9
    4  A    between atoms: C_9  and  C_52
    5  A    between atoms: C_10  and  C_58
    6  A    between atoms: C_15  and  C_28
    7  A    between atoms: C_29  and  C_32
    8  A    between atoms: C_40  and  C_53
    9  A    between atoms: C_43  and  C_53
   10  A    between atoms: C_43  and  C_65
   11  A    between atoms: C_52  and  C_65
                            x       y       z     vdW  Elec       q    Type
                         _______ _______ _______ _____ _____    ______ ____

>  <TORSDO>
F 11

$$$$
=
 OpenBabel10232410083D

 65 73  0  0  1  0  0  0  0  0999 V2000
  185.8930  177.6410  136.4090 C   0  0  1  0  0  3  0  0  0  0  0  0
  190.2210  176.6910  134.3460 C   0  0  0  0  0  2  0  0  0  0  0  0
  189.3880  177.4840  135.2950 C   0  0  0  0  0  0  0  0  0  0  0  0
  186.4390  178.5700  137.5070 C   0  0  1  0  0  3  0  0  0  0  0  0
  188.1960  177.4050  141.2130 C   0  0  2  0  0  3  0  0  0  0  0  0
  190.8240  175.7870  139.2330 O   0  0  0  0  0  0  0  0  0  0  0  0
  189.4760  176.0420  139.5070 C   0  0  0  0  0  0  0  0  0  0  0  0
  192.2520  176.7820  137.5380 C   0  0  0  0  0  2  0  0  0  0  0  0
  187.0410  177.8730  138.7370 C   0  0  1  0  0  3  0  0  0  0  0  0
  191.7600  176.8340  138.9860 C   0  0  2  0  0  3  0  0  0  0  0  0
  188.4280  178.1420  138.8380 O   0  0  0  0  0  0  0  0  0  0  0  0
  188.6460  175.0980  139.4370 O   0  0  0  0  0  0  0  0  0  0  0  0
  189.0130  177.4130  139.9080 C   0  0  1  0  0  3  0  0  0  0  0  0
  187.1530  178.5260  141.1980 C   0  0  0  0  0  2  0  0  0  0  0  0
  186.9060  176.7790  135.6930 C   0  0  0  0  0  3  0  0  0  0  0  0
  188.1370  177.1570  135.4620 C   0  0  0  0  0  0  0  0  0  0  0  0
  187.2740  179.5620  136.9780 O   0  0  0  0  0  1  0  0  0  0  0  0
  190.1620  177.7680  136.5200 C   0  0  0  0  0  2  0  0  0  0  0  0
  191.0790  176.5740  136.5940 C   0  0  1  0  0  3  0  0  0  0  0  0
  191.4540  176.2840  135.1520 C   0  0  1  0  0  3  0  0  0  0  0  0
  186.2680  178.3810  139.9670 C   0  0  0  0  0  2  0  0  0  0  0  0
  189.0820  177.4250  142.3900 N   0  0  2  0  0  0  0  0  0  0  0  0
  186.9190  177.3170  145.4160 C   0  0  0  0  0  2  0  0  0  0  0  0
  188.3360  177.8690  143.5750 C   0  0  2  0  0  3  0  0  0  0  0  0
  189.2060  177.7300  144.7920 C   0  0  2  0  0  3  0  0  0  0  0  0
  188.2330  177.9050  145.9400 C   0  0  2  0  0  3  0  0  0  0  0  0
  187.1260  177.0340  143.9310 C   0  0  0  0  0  2  0  0  0  0  0  0
  190.1790  178.3890  142.1810 C   0  0  0  0  0  2  0  0  0  0  0  0
  191.1190  178.4460  143.3980 C   0  0  0  0  0  2  0  0  0  0  0  0
  191.2850  178.6290  145.8670 C   0  0  0  0  0  1  0  0  0  0  0  0
  190.3410  178.7460  144.6840 C   0  0  2  0  0  3  0  0  0  0  0  0
  188.7070  177.1230  147.1540 C   0  0  0  0  0  2  0  0  0  0  0  0
  189.0060  178.2480  148.5490 S   0  0  0  0  0  1  0  0  0  0  0  0
  191.7560  174.8340  134.9490 C   0  0  0  0  0  0  0  0  0  0  0  0
  192.7530  172.1440  134.4620 O   0  0  0  0  0  0  0  0  0  0  0  0
  193.5680  173.0570  134.7560 C   0  0  0  0  0  0  0  0  0  0  0  0
  190.8230  174.0190  134.7090 O   0  0  0  0  0  0  0  0  0  0  0  0
  193.1170  174.3950  135.0100 N   0  0  0  0  0  2  0  0  0  0  0  0
  197.6870  171.2120  134.7350 O   0  0  0  0  0  0  0  0  0  0  0  0
  195.0310  172.7330  134.8250 C   0  0  2  0  0  3  0  0  0  0  0  0
  196.5430  171.0000  135.5500 C   0  0  2  0  0  3  0  0  0  0  0  0
  197.9320  173.6000  134.6560 C   0  0  0  0  0  2  0  0  0  0  0  0
  196.9010  174.3100  135.5650 C   0  0  2  0  0  0  0  0  0  0  0  0
  195.2840  171.2420  134.7450 C   0  0  0  0  0  2  0  0  0  0  0  0
  198.0280  172.2660  136.8010 C   0  0  2  0  0  3  0  0  0  0  0  0
  196.5370  172.0350  136.6580 C   0  0  1  0  0  3  0  0  0  0  0  0
  195.8190  173.2770  136.0430 C   0  0  2  0  0  0  0  0  0  0  0  0
  196.2950  175.5020  134.8400 C   0  0  0  0  0  1  0  0  0  0  0  0
  198.3440  173.6000  137.5080 C   0  0  0  0  0  2  0  0  0  0  0  0
  197.6930  174.7940  136.7850 C   0  0  0  0  0  2  0  0  0  0  0  0
  198.4070  172.2760  135.3210 C   0  0  1  0  0  3  0  0  0  0  0  0
  194.9130  173.8820  137.1220 C   0  0  0  0  0  1  0  0  0  0  0  0
  184.1220  177.1670  137.9160 O   0  0  0  0  0  0  0  0  0  0  0  0
  184.7480  176.8130  136.9240 C   0  0  0  0  0  0  0  0  0  0  0  0
  182.9200  175.5150  136.1660 O   0  0  0  0  0  1  0  0  0  0  0  0
  184.3150  175.6000  136.1600 C   0  0  2  0  0  3  0  0  0  0  0  0
  184.9010  174.3340  136.7690 C   0  0  0  0  0  2  0  0  0  0  0  0
  185.4180  173.3970  135.6820 C   0  0  1  0  0  3  0  0  0  0  0  0
  185.4160  174.0680  134.4560 O   0  0  0  0  0  1  0  0  0  0  0  0
  187.7680  173.8410  135.5330 O   0  0  0  0  0  1  0  0  0  0  0  0
  186.8330  172.9180  136.0120 C   0  0  2  0  0  3  0  0  0  0  0  0
  188.4810  171.2690  135.4810 O   0  0  0  0  0  1  0  0  0  0  0  0
  187.1220  171.5680  135.3690 C   0  0  0  0  0  2  0  0  0  0  0  0
  192.9200  176.7100  139.9160 C   0  0  0  0  0  3  0  0  0  0  0  0
  193.9920  176.2950  139.5100 O   0  0  0  0  0  0  0  0  0  0  0  0
  1 54  1  1  0  0  0
  1  4  1  0  0  0  0
  2 20  1  0  0  0  0
  2  3  1  0  0  0  0
  3 16  2  0  0  0  0
  3 18  1  0  0  0  0
  4 17  1  6  0  0  0
  4  9  1  0  0  0  0
  5 14  1  6  0  0  0
  5 22  1  0  0  0  0
  6  7  1  0  0  0  0
  7 13  1  0  0  0  0
  8 10  1  0  0  0  0
  9 11  1  0  0  0  0
  9 21  1  1  0  0  0
 10  6  1  0  0  0  0
 10 64  1  1  0  0  0
 12  7  2  0  0  0  0
 13 11  1  6  0  0  0
 13  5  1  0  0  0  0
 15  1  1  0  0  0  0
 16 15  2  0  0  0  0
 19 18  1  6  0  0  0
 19  8  1  0  0  0  0
 20 34  1  1  0  0  0
 20 19  1  0  0  0  0
 21 14  1  0  0  0  0
 22 28  1  6  0  0  0
 22 24  1  0  0  0  0
 23 26  1  0  0  0  0
 24 27  1  1  0  0  0
 24 25  1  0  0  0  0
 25 26  1  0  0  0  0
 26 32  1  0  0  0  0
 27 23  1  0  0  0  0
 28 29  1  0  0  0  0
 29 31  1  0  0  0  0
 31 25  1  0  0  0  0
 31 30  1  0  0  0  0
 32 33  1  0  0  0  0
 34 38  1  0  0  0  0
 35 36  2  0  0  0  0
 36 40  1  0  0  0  0
 36 38  1  0  0  0  0
 37 34  2  0  0  0  0
 39 51  1  0  0  0  0
 39 41  1  0  0  0  0
 40 47  1  0  0  0  0
 41 46  1  0  0  0  0
 42 51  1  0  0  0  0
 42 43  1  0  0  0  0
 43 47  1  0  0  0  0
 43 50  1  0  0  0  0
 44 40  1  0  0  0  0
 44 41  1  0  0  0  0
 45 49  1  0  0  0  0
 46 45  1  0  0  0  0
 47 46  1  0  0  0  0
 47 52  1  0  0  0  0
 48 43  1  0  0  0  0
 50 49  1  0  0  0  0
 51 45  1  0  0  0  0
 54 53  2  0  0  0  0
 56 55  1  0  0  0  0
 56 57  1  0  0  0  0
 56 54  1  0  0  0  0
 58 61  1  0  0  0  0
 58 57  1  0  0  0  0
 59 58  1  0  0  0  0
 60 61  1  0  0  0  0
 63 62  1  0  0  0  0
 63 61  1  0  0  0  0
 65 64  2  0  0  0  0
M  END
>  <MODEL>
2

>  <REMARK>
 VINA RESULT:      -4.5      1.062      1.736
  Name = 
  11 active torsions:
  status: ('A' for Active; 'I' for Inactive)
    1  A    between atoms: N_2  and  C_17
    2  A    between atoms: C_3  and  C_35
    3  A    between atoms: C_6  and  C_9
    4  A    between atoms: C_9  and  C_52
    5  A    between atoms: C_10  and  C_58
    6  A    between atoms: C_15  and  C_28
    7  A    between atoms: C_29  and  C_32
    8  A    between atoms: C_40  and  C_53
    9  A    between atoms: C_43  and  C_53
   10  A    between atoms: C_43  and  C_65
   11  A    between atoms: C_52  and  C_65
                            x       y       z     vdW  Elec       q    Type
                         _______ _______ _______ _____ _____    ______ ____

>  <TORSDO>
F 11

$$$$
=
 OpenBabel10232410083D

 65 73  0  0  1  0  0  0  0  0999 V2000
  192.3710  174.5040  136.3000 C   0  0  1  0  0  3  0  0  0  0  0  0
  192.3750  177.4460  140.2040 C   0  0  0  0  0  2  0  0  0  0  0  0
  192.0210  177.1920  138.7780 C   0  0  0  0  0  0  0  0  0  0  0  0
  191.3970  175.3510  135.4620 C   0  0  1  0  0  3  0  0  0  0  0  0
  187.1410  175.3730  135.7230 C   0  0  2  0  0  3  0  0  0  0  0  0
  187.5540  176.5960  139.1560 O   0  0  0  0  0  0  0  0  0  0  0  0
  187.8740  175.7080  138.1230 C   0  0  0  0  0  0  0  0  0  0  0  0
  188.7700  178.5580  139.9120 C   0  0  0  0  0  2  0  0  0  0  0  0
  189.9050  175.1730  135.7850 C   0  0  1  0  0  3  0  0  0  0  0  0
  187.6680  178.0090  139.0040 C   0  0  2  0  0  3  0  0  0  0  0  0
  189.3560  176.3720  136.3010 O   0  0  0  0  0  0  0  0  0  0  0  0
  188.0300  174.4870  138.3890 O   0  0  0  0  0  0  0  0  0  0  0  0
  188.0070  176.1840  136.7050 C   0  0  1  0  0  3  0  0  0  0  0  0
  187.8070  175.3150  134.3460 C   0  0  0  0  0  2  0  0  0  0  0  0
  192.4330  174.8160  137.7770 C   0  0  0  0  0  3  0  0  0  0  0  0
  192.2650  176.0170  138.2670 C   0  0  0  0  0  0  0  0  0  0  0  0
  191.7880  176.6950  135.4140 O   0  0  0  0  0  1  0  0  0  0  0  0
  190.6980  177.7750  138.4810 C   0  0  0  0  0  2  0  0  0  0  0  0
  190.0090  177.6830  139.8190 C   0  0  1  0  0  3  0  0  0  0  0  0
  191.0940  177.9910  140.8350 C   0  0  1  0  0  3  0  0  0  0  0  0
  189.2100  174.7380  134.4830 C   0  0  0  0  0  2  0  0  0  0  0  0
  185.7570  175.8770  135.7000 N   0  0  2  0  0  0  0  0  0  0  0  0
  183.5130  173.0100  136.4630 C   0  0  0  0  0  2  0  0  0  0  0  0
  184.8190  174.7640  135.5050 C   0  0  2  0  0  3  0  0  0  0  0  0
  183.4100  175.2700  135.6450 C   0  0  2  0  0  3  0  0  0  0  0  0
  182.5900  174.0000  135.7440 C   0  0  2  0  0  3  0  0  0  0  0  0
  184.8860  173.6690  136.5470 C   0  0  0  0  0  2  0  0  0  0  0  0
  185.5750  176.8020  134.5650 C   0  0  0  0  0  2  0  0  0  0  0  0
  184.1340  177.3390  134.5010 C   0  0  0  0  0  2  0  0  0  0  0  0
  181.7190  176.7750  134.5670 C   0  0  0  0  0  1  0  0  0  0  0  0
  183.1170  176.1930  134.4650 C   0  0  2  0  0  3  0  0  0  0  0  0
  181.3420  174.2460  136.5760 C   0  0  0  0  0  2  0  0  0  0  0  0
  180.7340  172.6810  137.2720 S   0  0  0  0  0  1  0  0  0  0  0  0
  190.8260  177.3130  142.1400 C   0  0  0  0  0  0  0  0  0  0  0  0
  190.1220  176.3770  144.8030 O   0  0  0  0  0  0  0  0  0  0  0  0
  189.5050  177.3590  144.3160 C   0  0  0  0  0  0  0  0  0  0  0  0
  191.4950  176.2980  142.4790 O   0  0  0  0  0  0  0  0  0  0  0  0
  189.8180  177.8480  143.0030 N   0  0  0  0  0  2  0  0  0  0  0  0
  186.9190  179.2740  147.4800 O   0  0  0  0  0  0  0  0  0  0  0  0
  188.4400  178.0300  145.1320 C   0  0  2  0  0  3  0  0  0  0  0  0
  187.4130  177.9530  147.3120 C   0  0  2  0  0  3  0  0  0  0  0  0
  186.0300  179.8610  145.3270 C   0  0  0  0  0  2  0  0  0  0  0  0
  186.0980  178.6720  144.3390 C   0  0  2  0  0  0  0  0  0  0  0  0
  188.7550  177.9880  146.6130 C   0  0  0  0  0  2  0  0  0  0  0  0
  185.1780  177.9140  146.6970 C   0  0  2  0  0  3  0  0  0  0  0  0
  186.4780  177.2000  146.3860 C   0  0  1  0  0  3  0  0  0  0  0  0
  186.9860  177.5290  144.9470 C   0  0  2  0  0  0  0  0  0  0  0  0
  186.5970  179.1450  142.9820 C   0  0  0  0  0  1  0  0  0  0  0  0
  184.1260  177.7140  145.5860 C   0  0  0  0  0  2  0  0  0  0  0  0
  184.6570  178.1620  144.2120 C   0  0  0  0  0  2  0  0  0  0  0  0
  185.7070  179.3470  146.7590 C   0  0  1  0  0  3  0  0  0  0  0  0
  186.8950  176.2490  144.1080 C   0  0  0  0  0  1  0  0  0  0  0  0
  191.0790  172.5150  136.3650 O   0  0  0  0  0  0  0  0  0  0  0  0
  192.1470  173.0360  136.0660 C   0  0  0  0  0  0  0  0  0  0  0  0
  193.3120  170.9780  135.9850 O   0  0  0  0  0  1  0  0  0  0  0  0
  193.2060  172.2320  135.3760 C   0  0  2  0  0  3  0  0  0  0  0  0
  194.5520  172.9390  135.4340 C   0  0  0  0  0  2  0  0  0  0  0  0
  195.5660  172.1150  136.2210 C   0  0  1  0  0  3  0  0  0  0  0  0
  196.5970  171.7170  135.3670 O   0  0  0  0  0  1  0  0  0  0  0  0
  195.8650  174.2870  137.1870 O   0  0  0  0  0  1  0  0  0  0  0  0
  196.1360  172.9300  137.3830 C   0  0  2  0  0  3  0  0  0  0  0  0
  198.2130  173.8770  138.0960 O   0  0  0  0  0  1  0  0  0  0  0  0
  197.6450  172.7540  137.4910 C   0  0  0  0  0  2  0  0  0  0  0  0
  186.3680  178.6630  139.3370 C   0  0  0  0  0  3  0  0  0  0  0  0
  185.5050  178.7850  138.4860 O   0  0  0  0  0  0  0  0  0  0  0  0
  1 54  1  1  0  0  0
  1 15  1  0  0  0  0
  2 20  1  0  0  0  0
  3  2  1  0  0  0  0
  4 17  1  1  0  0  0
  4  9  1  0  0  0  0
  4  1  1  0  0  0  0
  5 14  1  6  0  0  0
  5 13  1  0  0  0  0
  7 12  2  0  0  0  0
  7  6  1  0  0  0  0
  9 21  1  6  0  0  0
  9 11  1  0  0  0  0
 10  6  1  0  0  0  0
 10 64  1  1  0  0  0
 10  8  1  0  0  0  0
 13 11  1  6  0  0  0
 13  7  1  0  0  0  0
 14 21  1  0  0  0  0
 15 16  2  0  0  0  0
 16  3  2  0  0  0  0
 18  3  1  0  0  0  0
 19 18  1  6  0  0  0
 19  8  1  0  0  0  0
 19 20  1  0  0  0  0
 20 34  1  1  0  0  0
 22 28  1  6  0  0  0
 22  5  1  0  0  0  0
 23 27  1  0  0  0  0
 24 25  1  0  0  0  0
 24 22  1  0  0  0  0
 24 27  1  1  0  0  0
 25 26  1  0  0  0  0
 26 23  1  0  0  0  0
 26 32  1  0  0  0  0
 29 28  1  0  0  0  0
 31 29  1  0  0  0  0
 31 30  1  0  0  0  0
 31 25  1  0  0  0  0
 32 33  1  0  0  0  0
 34 37  2  0  0  0  0
 34 38  1  0  0  0  0
 36 35  2  0  0  0  0
 36 40  1  0  0  0  0
 38 36  1  0  0  0  0
 40 44  1  0  0  0  0
 41 39  1  0  0  0  0
 42 51  1  0  0  0  0
 43 47  1  0  0  0  0
 43 42  1  0  0  0  0
 44 41  1  0  0  0  0
 45 51  1  0  0  0  0
 46 45  1  0  0  0  0
 46 41  1  0  0  0  0
 47 40  1  0  0  0  0
 47 46  1  0  0  0  0
 48 43  1  0  0  0  0
 49 45  1  0  0  0  0
 50 43  1  0  0  0  0
 50 49  1  0  0  0  0
 51 39  1  0  0  0  0
 52 47  1  0  0  0  0
 54 53  2  0  0  0  0
 56 57  1  0  0  0  0
 56 55  1  0  0  0  0
 56 54  1  0  0  0  0
 57 58  1  0  0  0  0
 58 61  1  0  0  0  0
 59 58  1  0  0  0  0
 60 61  1  0  0  0  0
 61 63  1  0  0  0  0
 63 62  1  0  0  0  0
 65 64  2  0  0  0  0
M  END
>  <MODEL>
3

>  <REMARK>
 VINA RESULT:      -4.4      3.077     10.964
  Name = 
  11 active torsions:
  status: ('A' for Active; 'I' for Inactive)
    1  A    between atoms: N_2  and  C_17
    2  A    between atoms: C_3  and  C_35
    3  A    between atoms: C_6  and  C_9
    4  A    between atoms: C_9  and  C_52
    5  A    between atoms: C_10  and  C_58
    6  A    between atoms: C_15  and  C_28
    7  A    between atoms: C_29  and  C_32
    8  A    between atoms: C_40  and  C_53
    9  A    between atoms: C_43  and  C_53
   10  A    between atoms: C_43  and  C_65
   11  A    between atoms: C_52  and  C_65
                            x       y       z     vdW  Elec       q    Type
                         _______ _______ _______ _____ _____    ______ ____

>  <TORSDO>
F 11

$$$$
=
 OpenBabel10232410083D

 65 73  0  0  1  0  0  0  0  0999 V2000
  183.9360  177.7420  138.7740 C   0  0  1  0  0  3  0  0  0  0  0  0
  188.5450  177.7220  137.1460 C   0  0  0  0  0  2  0  0  0  0  0  0
  187.4610  178.3560  137.9510 C   0  0  0  0  0  0  0  0  0  0  0  0
  184.1390  178.8520  139.8190 C   0  0  1  0  0  3  0  0  0  0  0  0
  185.7540  178.4160  143.7410 C   0  0  2  0  0  3  0  0  0  0  0  0
  188.8670  177.3440  142.1270 O   0  0  0  0  0  0  0  0  0  0  0  0
  187.4770  177.2840  142.2720 C   0  0  0  0  0  0  0  0  0  0  0  0
  190.1780  178.5310  140.4620 C   0  0  0  0  0  2  0  0  0  0  0  0
  184.7660  178.4120  141.1510 C   0  0  1  0  0  3  0  0  0  0  0  0
  189.5510  178.5660  141.8560 C   0  0  2  0  0  3  0  0  0  0  0  0
  186.0350  179.0150  141.3330 O   0  0  0  0  0  0  0  0  0  0  0  0
  186.9020  176.1650  142.2260 O   0  0  0  0  0  0  0  0  0  0  0  0
  186.6690  178.5270  142.5080 C   0  0  1  0  0  3  0  0  0  0  0  0
  184.4840  179.2470  143.5420 C   0  0  0  0  0  2  0  0  0  0  0  0
  185.1870  177.1020  138.2200 C   0  0  0  0  0  3  0  0  0  0  0  0
  186.3110  177.7490  138.0510 C   0  0  0  0  0  0  0  0  0  0  0  0
  184.7660  179.9760  139.2660 O   0  0  0  0  0  1  0  0  0  0  0  0
  188.0240  178.9060  139.1990 C   0  0  0  0  0  2  0  0  0  0  0  0
  189.1840  177.9780  139.4540 C   0  0  1  0  0  3  0  0  0  0  0  0
  189.7550  177.6840  138.0790 C   0  0  1  0  0  3  0  0  0  0  0  0
  183.7800  178.8040  142.2650 C   0  0  0  0  0  2  0  0  0  0  0  0
  186.4920  178.7340  144.9760 N   0  0  2  0  0  0  0  0  0  0  0  0
  189.1180  176.1350  145.4070 C   0  0  0  0  0  2  0  0  0  0  0  0
  187.1880  177.5390  145.4690 C   0  0  2  0  0  3  0  0  0  0  0  0
  188.0620  177.9150  146.6330 C   0  0  2  0  0  3  0  0  0  0  0  0
  188.9390  176.6940  146.8220 C   0  0  2  0  0  3  0  0  0  0  0  0
  188.1700  176.9140  144.5020 C   0  0  0  0  0  2  0  0  0  0  0  0
  185.5520  179.1560  146.0320 C   0  0  0  0  0  2  0  0  0  0  0  0
  186.2870  179.4840  147.3440 C   0  0  0  0  0  2  0  0  0  0  0  0
  187.9810  178.7420  148.9980 C   0  0  0  0  0  1  0  0  0  0  0  0
  187.1580  178.3070  147.7990 C   0  0  2  0  0  3  0  0  0  0  0  0
  190.2860  177.1000  147.3970 C   0  0  0  0  0  2  0  0  0  0  0  0
  191.6280  176.5360  146.3080 S   0  0  0  0  0  1  0  0  0  0  0  0
  190.4060  176.3400  138.0350 C   0  0  0  0  0  0  0  0  0  0  0  0
  191.9800  173.9160  137.6970 O   0  0  0  0  0  0  0  0  0  0  0  0
  192.5310  175.0340  137.5240 C   0  0  0  0  0  0  0  0  0  0  0  0
  189.7350  175.3000  138.2820 O   0  0  0  0  0  0  0  0  0  0  0  0
  191.7920  176.2530  137.6860 N   0  0  0  0  0  2  0  0  0  0  0  0
  196.6810  176.0630  136.0800 O   0  0  0  0  0  0  0  0  0  0  0  0
  193.9770  175.0810  137.1270 C   0  0  2  0  0  3  0  0  0  0  0  0
  195.4300  175.9600  135.4160 C   0  0  2  0  0  3  0  0  0  0  0  0
  196.8210  174.0670  137.4090 C   0  0  0  0  0  2  0  0  0  0  0  0
  195.6210  173.1250  137.1510 C   0  0  2  0  0  0  0  0  0  0  0  0
  194.3100  176.3430  136.3590 C   0  0  0  0  0  2  0  0  0  0  0  0
  196.6260  174.0450  134.8880 C   0  0  2  0  0  3  0  0  0  0  0  0
  195.1920  174.5070  135.0510 C   0  0  1  0  0  3  0  0  0  0  0  0
  194.5250  173.8800  136.3160 C   0  0  2  0  0  0  0  0  0  0  0  0
  195.0860  172.5840  138.4680 C   0  0  0  0  0  1  0  0  0  0  0  0
  196.7560  172.5110  134.9840 C   0  0  0  0  0  2  0  0  0  0  0  0
  196.1770  171.9730  136.3050 C   0  0  0  0  0  2  0  0  0  0  0  0
  197.2430  174.7680  136.0850 C   0  0  1  0  0  3  0  0  0  0  0  0
  193.4260  172.9210  135.8460 C   0  0  0  0  0  1  0  0  0  0  0  0
  183.2960  175.5210  139.3120 O   0  0  0  0  0  0  0  0  0  0  0  0
  182.9720  176.7010  139.2740 C   0  0  0  0  0  0  0  0  0  0  0  0
  180.9600  176.0180  140.3150 O   0  0  0  0  0  1  0  0  0  0  0  0
  181.6430  177.1310  139.8170 C   0  0  2  0  0  3  0  0  0  0  0  0
  180.8040  177.7980  138.7370 C   0  0  0  0  0  2  0  0  0  0  0  0
  180.2190  179.1150  139.2390 C   0  0  1  0  0  3  0  0  0  0  0  0
  180.8570  179.4770  140.4290 O   0  0  0  0  0  1  0  0  0  0  0  0
  181.5760  179.9960  137.4720 O   0  0  0  0  0  1  0  0  0  0  0  0
  180.4000  180.2170  138.1950 C   0  0  2  0  0  3  0  0  0  0  0  0
  181.6300  182.2590  138.3930 O   0  0  0  0  0  1  0  0  0  0  0  0
  180.4940  181.5890  138.8510 C   0  0  0  0  0  2  0  0  0  0  0  0
  190.6120  178.7940  142.8810 C   0  0  0  0  0  3  0  0  0  0  0  0
  191.5630  178.0350  142.9600 O   0  0  0  0  0  0  0  0  0  0  0  0
  1 54  1  1  0  0  0
  1  4  1  0  0  0  0
  2  3  1  0  0  0  0
  2 20  1  0  0  0  0
  3 16  2  0  0  0  0
  3 18  1  0  0  0  0
  4 17  1  6  0  0  0
  4  9  1  0  0  0  0
  5 14  1  6  0  0  0
  5 22  1  0  0  0  0
  6  7  1  0  0  0  0
  7 13  1  0  0  0  0
  8 10  1  0  0  0  0
  9 11  1  0  0  0  0
  9 21  1  1  0  0  0
 10  6  1  0  0  0  0
 10 64  1  1  0  0  0
 12  7  2  0  0  0  0
 13 11  1  6  0  0  0
 13  5  1  0  0  0  0
 15  1  1  0  0  0  0
 16 15  2  0  0  0  0
 19 18  1  6  0  0  0
 19  8  1  0  0  0  0
 20 34  1  1  0  0  0
 20 19  1  0  0  0  0
 21 14  1  0  0  0  0
 22 24  1  0  0  0  0
 22 28  1  1  0  0  0
 23 26  1  0  0  0  0
 24 27  1  6  0  0  0
 24 25  1  0  0  0  0
 25 26  1  0  0  0  0
 25 31  1  0  0  0  0
 26 32  1  0  0  0  0
 27 23  1  0  0  0  0
 28 29  1  0  0  0  0
 29 31  1  0  0  0  0
 31 30  1  0  0  0  0
 33 32  1  0  0  0  0
 34 37  2  0  0  0  0
 36 38  1  0  0  0  0
 36 35  2  0  0  0  0
 38 34  1  0  0  0  0
 39 51  1  0  0  0  0
 40 36  1  0  0  0  0
 41 39  1  0  0  0  0
 41 44  1  0  0  0  0
 43 42  1  0  0  0  0
 43 48  1  0  0  0  0
 44 40  1  0  0  0  0
 45 49  1  0  0  0  0
 45 46  1  0  0  0  0
 45 51  1  0  0  0  0
 46 41  1  0  0  0  0
 46 47  1  0  0  0  0
 47 40  1  0  0  0  0
 47 43  1  0  0  0  0
 49 50  1  0  0  0  0
 50 43  1  0  0  0  0
 51 42  1  0  0  0  0
 52 47  1  0  0  0  0
 54 53  2  0  0  0  0
 54 56  1  0  0  0  0
 56 55  1  0  0  0  0
 57 58  1  0  0  0  0
 57 56  1  0  0  0  0
 58 59  1  0  0  0  0
 60 61  1  0  0  0  0
 61 63  1  0  0  0  0
 61 58  1  0  0  0  0
 62 63  1  0  0  0  0
 64 65  2  0  0  0  0
M  END
>  <MODEL>
4

>  <REMARK>
 VINA RESULT:      -3.8      2.869      4.445
  Name = 
  11 active torsions:
  status: ('A' for Active; 'I' for Inactive)
    1  A    between atoms: N_2  and  C_17
    2  A    between atoms: C_3  and  C_35
    3  A    between atoms: C_6  and  C_9
    4  A    between atoms: C_9  and  C_52
    5  A    between atoms: C_10  and  C_58
    6  A    between atoms: C_15  and  C_28
    7  A    between atoms: C_29  and  C_32
    8  A    between atoms: C_40  and  C_53
    9  A    between atoms: C_43  and  C_53
   10  A    between atoms: C_43  and  C_65
   11  A    between atoms: C_52  and  C_65
                            x       y       z     vdW  Elec       q    Type
                         _______ _______ _______ _____ _____    ______ ____

>  <TORSDO>
F 11

$$$$
=
 OpenBabel10232410083D

 65 73  0  0  1  0  0  0  0  0999 V2000
  184.1210  177.7160  138.8610 C   0  0  1  0  0  3  0  0  0  0  0  0
  188.7260  177.7780  137.2230 C   0  0  0  0  0  2  0  0  0  0  0  0
  187.6370  178.3850  138.0410 C   0  0  0  0  0  0  0  0  0  0  0  0
  184.3140  178.8100  139.9250 C   0  0  1  0  0  3  0  0  0  0  0  0
  185.9440  178.3260  143.8360 C   0  0  2  0  0  3  0  0  0  0  0  0
  189.0650  177.3180  142.1960 O   0  0  0  0  0  0  0  0  0  0  0  0
  187.6760  177.2400  142.3430 C   0  0  0  0  0  0  0  0  0  0  0  0
  190.3580  178.5490  140.5480 C   0  0  0  0  0  2  0  0  0  0  0  0
  184.9500  178.3550  141.2480 C   0  0  1  0  0  3  0  0  0  0  0  0
  189.7340  178.5530  141.9450 C   0  0  2  0  0  3  0  0  0  0  0  0
  186.2120  178.9690  141.4380 O   0  0  0  0  0  0  0  0  0  0  0  0
  187.1140  176.1140  142.2800 O   0  0  0  0  0  0  0  0  0  0  0  0
  186.8540  178.4690  142.6020 C   0  0  1  0  0  3  0  0  0  0  0  0
  184.6640  179.1460  143.6540 C   0  0  0  0  0  2  0  0  0  0  0  0
  185.3780  177.1000  138.2940 C   0  0  0  0  0  3  0  0  0  0  0  0
  186.4940  177.7630  138.1330 C   0  0  0  0  0  0  0  0  0  0  0  0
  184.9260  179.9500  139.3900 O   0  0  0  0  0  1  0  0  0  0  0  0
  188.1960  178.9200  139.2970 C   0  0  0  0  0  2  0  0  0  0  0  0
  189.3680  178.0020  139.5330 C   0  0  1  0  0  3  0  0  0  0  0  0
  189.9380  177.7380  138.1520 C   0  0  1  0  0  3  0  0  0  0  0  0
  183.9620  178.7160  142.3710 C   0  0  0  0  0  2  0  0  0  0  0  0
  186.6810  178.6310  145.0740 N   0  0  2  0  0  0  0  0  0  0  0  0
  189.4380  176.1520  145.3710 C   0  0  0  0  0  2  0  0  0  0  0  0
  187.4420  177.4540  145.5110 C   0  0  2  0  0  3  0  0  0  0  0  0
  188.3110  177.8270  146.6790 C   0  0  2  0  0  3  0  0  0  0  0  0
  189.2500  176.6450  146.8090 C   0  0  2  0  0  3  0  0  0  0  0  0
  188.4410  176.9180  144.5080 C   0  0  0  0  0  2  0  0  0  0  0  0
  185.7350  178.9630  146.1570 C   0  0  0  0  0  2  0  0  0  0  0  0
  186.4700  179.2750  147.4720 C   0  0  0  0  0  2  0  0  0  0  0  0
  188.2200  178.5540  149.0760 C   0  0  0  0  0  1  0  0  0  0  0  0
  187.4050  178.1270  147.8700 C   0  0  2  0  0  3  0  0  0  0  0  0
  190.5830  177.0950  147.3840 C   0  0  0  0  0  2  0  0  0  0  0  0
  191.8780  175.8820  146.9880 S   0  0  0  0  0  1  0  0  0  0  0  0
  190.6050  176.4020  138.0830 C   0  0  0  0  0  0  0  0  0  0  0  0
  192.1970  173.9990  137.6870 O   0  0  0  0  0  0  0  0  0  0  0  0
  192.7270  175.1250  137.4940 C   0  0  0  0  0  0  0  0  0  0  0  0
  189.9570  175.3540  138.3540 O   0  0  0  0  0  0  0  0  0  0  0  0
  191.9780  176.3340  137.6840 N   0  0  0  0  0  2  0  0  0  0  0  0
  196.7940  176.1910  135.8550 O   0  0  0  0  0  0  0  0  0  0  0  0
  194.1570  175.1910  137.0450 C   0  0  2  0  0  3  0  0  0  0  0  0
  195.5250  176.0200  135.2420 C   0  0  2  0  0  3  0  0  0  0  0  0
  197.0370  174.2700  137.2770 C   0  0  0  0  0  2  0  0  0  0  0  0
  195.8570  173.2840  137.1090 C   0  0  2  0  0  0  0  0  0  0  0  0
  194.4270  176.4200  136.2040 C   0  0  0  0  0  2  0  0  0  0  0  0
  196.7580  174.1140  134.7690 C   0  0  2  0  0  3  0  0  0  0  0  0
  195.3170  174.5450  134.9590 C   0  0  1  0  0  3  0  0  0  0  0  0
  194.7120  173.9650  136.2770 C   0  0  2  0  0  0  0  0  0  0  0  0
  195.3830  172.7970  138.4710 C   0  0  0  0  0  1  0  0  0  0  0  0
  196.9360  172.5910  134.9380 C   0  0  0  0  0  2  0  0  0  0  0  0
  196.4180  172.1060  136.3040 C   0  0  0  0  0  2  0  0  0  0  0  0
  197.3930  174.9130  135.9060 C   0  0  1  0  0  3  0  0  0  0  0  0
  193.6260  172.9530  135.8950 C   0  0  0  0  0  1  0  0  0  0  0  0
  182.8820  176.5760  140.5340 O   0  0  0  0  0  0  0  0  0  0  0  0
  183.1710  176.6560  139.3460 C   0  0  0  0  0  0  0  0  0  0  0  0
  181.2350  175.4030  138.8150 O   0  0  0  0  0  1  0  0  0  0  0  0
  182.5050  175.7550  138.3510 C   0  0  2  0  0  3  0  0  0  0  0  0
  183.3270  174.4950  138.1220 C   0  0  0  0  0  2  0  0  0  0  0  0
  182.8050  173.7170  136.9170 C   0  0  1  0  0  3  0  0  0  0  0  0
  182.8560  174.5340  135.7850 O   0  0  0  0  0  1  0  0  0  0  0  0
  183.0480  171.3710  137.3410 O   0  0  0  0  0  1  0  0  0  0  0  0
  183.6400  172.4560  136.6880 C   0  0  2  0  0  3  0  0  0  0  0  0
  185.9170  172.9950  136.1960 O   0  0  0  0  0  1  0  0  0  0  0  0
  185.0540  172.6260  137.2290 C   0  0  0  0  0  2  0  0  0  0  0  0
  190.7950  178.7750  142.9700 C   0  0  0  0  0  3  0  0  0  0  0  0
  190.5450  179.3980  143.9880 O   0  0  0  0  0  0  0  0  0  0  0  0
  1 54  1  1  0  0  0
  1  4  1  0  0  0  0
  2  3  1  0  0  0  0
  2 20  1  0  0  0  0
  3 16  2  0  0  0  0
  3 18  1  0  0  0  0
  4 17  1  6  0  0  0
  4  9  1  0  0  0  0
  5 14  1  6  0  0  0
  5 22  1  0  0  0  0
  6  7  1  0  0  0  0
  7 13  1  0  0  0  0
  8 10  1  0  0  0  0
  9 11  1  0  0  0  0
  9 21  1  1  0  0  0
 10  6  1  0  0  0  0
 10 64  1  1  0  0  0
 12  7  2  0  0  0  0
 13 11  1  6  0  0  0
 13  5  1  0  0  0  0
 15  1  1  0  0  0  0
 16 15  2  0  0  0  0
 19 18  1  6  0  0  0
 19  8  1  0  0  0  0
 20 34  1  1  0  0  0
 20 19  1  0  0  0  0
 21 14  1  0  0  0  0
 22 24  1  0  0  0  0
 22 28  1  1  0  0  0
 23 26  1  0  0  0  0
 24 27  1  6  0  0  0
 24 25  1  0  0  0  0
 25 26  1  0  0  0  0
 25 31  1  0  0  0  0
 26 32  1  0  0  0  0
 27 23  1  0  0  0  0
 28 29  1  0  0  0  0
 29 31  1  0  0  0  0
 31 30  1  0  0  0  0
 33 32  1  0  0  0  0
 34 37  2  0  0  0  0
 36 38  1  0  0  0  0
 36 35  2  0  0  0  0
 38 34  1  0  0  0  0
 39 51  1  0  0  0  0
 40 36  1  0  0  0  0
 41 39  1  0  0  0  0
 41 44  1  0  0  0  0
 43 42  1  0  0  0  0
 43 48  1  0  0  0  0
 44 40  1  0  0  0  0
 45 49  1  0  0  0  0
 45 46  1  0  0  0  0
 45 51  1  0  0  0  0
 46 41  1  0  0  0  0
 46 47  1  0  0  0  0
 47 40  1  0  0  0  0
 47 43  1  0  0  0  0
 49 50  1  0  0  0  0
 50 43  1  0  0  0  0
 51 42  1  0  0  0  0
 52 47  1  0  0  0  0
 54 53  2  0  0  0  0
 56 55  1  0  0  0  0
 56 54  1  0  0  0  0
 57 56  1  0  0  0  0
 58 57  1  0  0  0  0
 59 58  1  0  0  0  0
 61 58  1  0  0  0  0
 61 63  1  0  0  0  0
 61 60  1  0  0  0  0
 62 63  1  0  0  0  0
 64 65  2  0  0  0  0
M  END
>  <MODEL>
5

>  <REMARK>
 VINA RESULT:      -3.3      2.302      3.718
  Name = 
  11 active torsions:
  status: ('A' for Active; 'I' for Inactive)
    1  A    between atoms: N_2  and  C_17
    2  A    between atoms: C_3  and  C_35
    3  A    between atoms: C_6  and  C_9
    4  A    between atoms: C_9  and  C_52
    5  A    between atoms: C_10  and  C_58
    6  A    between atoms: C_15  and  C_28
    7  A    between atoms: C_29  and  C_32
    8  A    between atoms: C_40  and  C_53
    9  A    between atoms: C_43  and  C_53
   10  A    between atoms: C_43  and  C_65
   11  A    between atoms: C_52  and  C_65
                            x       y       z     vdW  Elec       q    Type
                         _______ _______ _______ _____ _____    ______ ____

>  <TORSDO>
F 11

$$$$
=
 OpenBabel10232410083D

 65 73  0  0  1  0  0  0  0  0999 V2000
  190.2610  175.2000  136.1540 C   0  0  1  0  0  3  0  0  0  0  0  0
  187.9270  179.0100  138.1360 C   0  0  0  0  0  2  0  0  0  0  0  0
  188.0410  177.9800  137.0640 C   0  0  0  0  0  0  0  0  0  0  0  0
  189.1560  174.8430  135.1440 C   0  0  1  0  0  3  0  0  0  0  0  0
  185.6290  172.5690  135.9020 C   0  0  2  0  0  3  0  0  0  0  0  0
  184.6620  175.2170  138.2460 O   0  0  0  0  0  0  0  0  0  0  0  0
  185.6010  174.3160  137.7330 C   0  0  0  0  0  0  0  0  0  0  0  0
  184.4330  177.5960  137.8080 C   0  0  0  0  0  2  0  0  0  0  0  0
  187.9790  174.0250  135.7000 C   0  0  1  0  0  3  0  0  0  0  0  0
  184.0040  176.1790  137.4230 C   0  0  2  0  0  3  0  0  0  0  0  0
  186.7770  174.7710  135.6430 O   0  0  0  0  0  0  0  0  0  0  0  0
  186.3500  173.6910  138.5290 O   0  0  0  0  0  0  0  0  0  0  0  0
  185.7080  174.0650  136.2570 C   0  0  1  0  0  3  0  0  0  0  0  0
  186.4570  172.2720  134.6480 C   0  0  0  0  0  2  0  0  0  0  0  0
  189.8680  176.1270  137.2790 C   0  0  0  0  0  3  0  0  0  0  0  0
  188.9800  177.0790  137.1510 C   0  0  0  0  0  0  0  0  0  0  0  0
  188.7440  175.9610  134.4090 O   0  0  0  0  0  1  0  0  0  0  0  0
  186.6970  177.4930  136.6960 C   0  0  0  0  0  2  0  0  0  0  0  0
  185.9410  177.6560  137.9890 C   0  0  1  0  0  3  0  0  0  0  0  0
  186.4680  178.9480  138.5870 C   0  0  1  0  0  3  0  0  0  0  0  0
  187.8920  172.7350  134.8650 C   0  0  0  0  0  2  0  0  0  0  0  0
  184.2290  172.1190  135.8170 N   0  0  2  0  0  0  0  0  0  0  0  0
  184.2640  168.4150  135.4750 C   0  0  0  0  0  2  0  0  0  0  0  0
  184.1640  170.7850  135.2060 C   0  0  2  0  0  3  0  0  0  0  0  0
  182.7510  170.2750  135.2730 C   0  0  2  0  0  3  0  0  0  0  0  0
  182.8920  168.8080  134.9200 C   0  0  2  0  0  3  0  0  0  0  0  0
  184.9440  169.7050  135.9230 C   0  0  0  0  0  2  0  0  0  0  0  0
  183.4570  173.0310  134.9500 C   0  0  0  0  0  2  0  0  0  0  0  0
  181.9890  172.5840  134.8270 C   0  0  0  0  0  2  0  0  0  0  0  0
  180.4390  170.6950  134.4010 C   0  0  0  0  0  1  0  0  0  0  0  0
  181.8920  171.1320  134.3480 C   0  0  2  0  0  3  0  0  0  0  0  0
  181.8020  167.9980  135.6010 C   0  0  0  0  0  2  0  0  0  0  0  0
  180.3240  167.9190  134.5450 S   0  0  0  0  0  1  0  0  0  0  0  0
  186.3830  178.9330  140.0790 C   0  0  0  0  0  0  0  0  0  0  0  0
  186.6040  178.6940  142.9700 O   0  0  0  0  0  0  0  0  0  0  0  0
  187.6450  178.6220  142.2670 C   0  0  0  0  0  0  0  0  0  0  0  0
  185.2670  179.0670  140.6530 O   0  0  0  0  0  0  0  0  0  0  0  0
  187.5800  178.7400  140.8390 N   0  0  0  0  0  2  0  0  0  0  0  0
  191.9700  178.0590  143.4290 O   0  0  0  0  0  0  0  0  0  0  0  0
  188.9660  178.3930  142.9410 C   0  0  2  0  0  3  0  0  0  0  0  0
  191.0950  177.3170  142.5920 C   0  0  2  0  0  3  0  0  0  0  0  0
  190.6990  178.4490  145.4300 C   0  0  0  0  0  2  0  0  0  0  0  0
  189.3290  177.7320  145.3830 C   0  0  2  0  0  0  0  0  0  0  0  0
  190.0920  178.2450  141.9400 C   0  0  0  0  0  2  0  0  0  0  0  0
  191.2760  176.1380  144.5800 C   0  0  2  0  0  3  0  0  0  0  0  0
  190.2870  176.3670  143.4540 C   0  0  1  0  0  3  0  0  0  0  0  0
  189.0570  177.2030  143.9290 C   0  0  2  0  0  0  0  0  0  0  0  0
  188.2330  178.6620  145.8840 C   0  0  0  0  0  1  0  0  0  0  0  0
  190.5920  175.6010  145.8540 C   0  0  0  0  0  2  0  0  0  0  0  0
  189.4600  176.5320  146.3280 C   0  0  0  0  0  2  0  0  0  0  0  0
  191.7830  177.5710  144.7410 C   0  0  1  0  0  3  0  0  0  0  0  0
  187.8230  176.2950  143.8910 C   0  0  0  0  0  1  0  0  0  0  0  0
  190.5290  173.4290  137.7100 O   0  0  0  0  0  0  0  0  0  0  0  0
  190.9290  173.9610  136.6820 C   0  0  0  0  0  0  0  0  0  0  0  0
  191.5290  172.2170  135.1980 O   0  0  0  0  0  1  0  0  0  0  0  0
  192.0300  173.3250  135.8880 C   0  0  2  0  0  3  0  0  0  0  0  0
  193.1690  172.8830  136.7950 C   0  0  0  0  0  2  0  0  0  0  0  0
  194.4210  172.5680  135.9800 C   0  0  1  0  0  3  0  0  0  0  0  0
  195.4680  173.3850  136.4130 O   0  0  0  0  0  1  0  0  0  0  0  0
  196.1170  170.9010  135.6850 O   0  0  0  0  0  1  0  0  0  0  0  0
  194.8080  171.0970  136.1380 C   0  0  2  0  0  3  0  0  0  0  0  0
  194.5480  169.0140  134.9920 O   0  0  0  0  0  1  0  0  0  0  0  0
  193.8830  170.1940  135.3320 C   0  0  0  0  0  2  0  0  0  0  0  0
  182.5250  176.0440  137.5650 C   0  0  0  0  0  3  0  0  0  0  0  0
  182.0530  175.1870  138.2920 O   0  0  0  0  0  0  0  0  0  0  0  0
  1 54  1  1  0  0  0
  1 15  1  0  0  0  0
  2 20  1  0  0  0  0
  3 16  2  0  0  0  0
  3  2  1  0  0  0  0
  4 17  1  1  0  0  0
  4  9  1  0  0  0  0
  4  1  1  0  0  0  0
  5 14  1  6  0  0  0
  5 13  1  0  0  0  0
  7  6  1  0  0  0  0
  7 12  2  0  0  0  0
  8 19  1  0  0  0  0
  9 21  1  6  0  0  0
 10 64  1  1  0  0  0
 10  8  1  0  0  0  0
 10  6  1  0  0  0  0
 11  9  1  0  0  0  0
 13 11  1  1  0  0  0
 13  7  1  0  0  0  0
 14 21  1  0  0  0  0
 16 15  2  0  0  0  0
 18  3  1  0  0  0  0
 19 18  1  6  0  0  0
 19 20  1  0  0  0  0
 20 34  1  1  0  0  0
 22 28  1  6  0  0  0
 22  5  1  0  0  0  0
 23 27  1  0  0  0  0
 24 25  1  0  0  0  0
 24 22  1  0  0  0  0
 24 27  1  1  0  0  0
 26 25  1  0  0  0  0
 26 23  1  0  0  0  0
 26 32  1  0  0  0  0
 29 28  1  0  0  0  0
 31 30  1  0  0  0  0
 31 29  1  0  0  0  0
 31 25  1  0  0  0  0
 33 32  1  0  0  0  0
 34 37  2  0  0  0  0
 34 38  1  0  0  0  0
 36 40  1  0  0  0  0
 36 35  2  0  0  0  0
 38 36  1  0  0  0  0
 39 51  1  0  0  0  0
 40 47  1  0  0  0  0
 41 39  1  0  0  0  0
 41 46  1  0  0  0  0
 43 42  1  0  0  0  0
 43 48  1  0  0  0  0
 43 50  1  0  0  0  0
 44 41  1  0  0  0  0
 44 40  1  0  0  0  0
 45 51  1  0  0  0  0
 45 49  1  0  0  0  0
 46 47  1  0  0  0  0
 46 45  1  0  0  0  0
 47 43  1  0  0  0  0
 49 50  1  0  0  0  0
 51 42  1  0  0  0  0
 52 47  1  0  0  0  0
 54 53  2  0  0  0  0
 55 56  1  0  0  0  0
 56 54  1  0  0  0  0
 56 57  1  0  0  0  0
 58 61  1  0  0  0  0
 58 59  1  0  0  0  0
 58 57  1  0  0  0  0
 60 61  1  0  0  0  0
 62 63  1  0  0  0  0
 63 61  1  0  0  0  0
 64 65  2  0  0  0  0
M  END
>  <MODEL>
6

>  <REMARK>
 VINA RESULT:      -2.2      3.607     10.529
  Name = 
  11 active torsions:
  status: ('A' for Active; 'I' for Inactive)
    1  A    between atoms: N_2  and  C_17
    2  A    between atoms: C_3  and  C_35
    3  A    between atoms: C_6  and  C_9
    4  A    between atoms: C_9  and  C_52
    5  A    between atoms: C_10  and  C_58
    6  A    between atoms: C_15  and  C_28
    7  A    between atoms: C_29  and  C_32
    8  A    between atoms: C_40  and  C_53
    9  A    between atoms: C_43  and  C_53
   10  A    between atoms: C_43  and  C_65
   11  A    between atoms: C_52  and  C_65
                            x       y       z     vdW  Elec       q    Type
                         _______ _______ _______ _____ _____    ______ ____

>  <TORSDO>
F 11

$$$$
