=
 OpenBabel10232411273D

 36 41  0  0  1  0  0  0  0  0999 V2000
  185.1570  178.0810  143.0660 C   0  0  1  0  0  3  0  0  0  0  0  0
  189.3600  176.8800  136.4660 C   0  0  0  0  0  0  0  0  0  0  0  0
  190.6450  177.3100  142.2370 C   0  0  0  0  0  2  0  0  0  0  0  0
  184.3020  178.0890  141.8180 C   0  0  0  0  0  0  0  0  0  0  0  0
  187.3770  176.9980  143.7780 C   0  0  0  0  0  0  0  0  0  0  0  0
  188.8510  177.7700  138.4280 C   0  0  0  0  0  0  0  0  0  0  0  0
  190.7300  177.0370  139.7170 C   0  0  0  0  0  3  0  0  0  0  0  0
  189.2420  176.4220  135.1240 N   0  0  0  0  0  1  0  0  0  0  0  0
  186.0570  178.8460  140.4900 O   0  0  0  0  0  0  0  0  0  0  0  0
  183.9120  180.2410  143.7720 C   0  0  0  0  0  2  0  0  0  0  0  0
  190.0730  177.5390  140.8730 C   0  0  0  0  0  0  0  0  0  0  0  0
  186.4980  177.5660  142.7990 N   0  0  0  0  0  2  0  0  0  0  0  0
  190.0850  177.2060  138.4810 C   0  0  0  0  0  0  0  0  0  0  0  0
  185.2320  179.4640  143.7290 C   0  0  0  0  0  2  0  0  0  0  0  0
  188.5910  176.6650  143.4230 C   0  0  0  0  0  0  0  0  0  0  0  0
  184.7510  178.4390  140.6500 N   0  0  0  0  0  0  0  0  0  0  0  0
  188.7950  178.1380  140.7670 C   0  0  0  0  0  3  0  0  0  0  0  0
  182.1070  178.9580  142.6090 C   0  0  0  0  0  2  0  0  0  0  0  0
  186.2000  178.3610  138.0750 C   0  0  0  0  0  3  0  0  0  0  0  0
  190.4090  176.6360  137.2100 N   0  0  0  0  0  0  0  0  0  0  0  0
  188.1560  178.2220  139.5240 C   0  0  0  0  0  0  0  0  0  0  0  0
  188.3100  177.5910  137.2060 C   0  0  0  0  0  0  0  0  0  0  0  0
  182.8530  177.7800  141.9850 C   0  0  0  0  0  2  0  0  0  0  0  0
  182.6770  179.3630  143.9690 C   0  0  0  0  0  2  0  0  0  0  0  0
  189.8050  176.3540  143.0360 C   0  0  0  0  0  3  0  0  0  0  0  0
  186.9590  177.8730  136.9790 C   0  0  0  0  0  3  0  0  0  0  0  0
  186.7970  178.5220  139.3570 C   0  0  0  0  0  0  0  0  0  0  0  0
  186.8940  176.6520  145.1490 C   0  0  0  0  0  2  0  0  0  0  0  0
  187.3450  177.6920  146.1640 C   0  0  0  0  0  2  0  0  0  0  0  0
  189.5360  177.6950  146.9270 C   0  0  1  0  0  3  0  0  0  0  0  0
  188.2470  177.0870  147.1300 N   0  0  0  0  0  0  0  0  0  0  0  0
  188.7210  178.1130  147.9280 O   0  0  0  0  0  0  0  0  0  0  0  0
  190.6150  176.7930  147.4960 C   0  0  0  0  0  2  0  0  0  0  0  0
  192.3490  175.3340  146.4660 O   0  0  0  0  0  1  0  0  0  0  0  0
  191.6620  176.5400  146.4690 C   0  0  0  0  0  0  0  0  0  0  0  0
  191.9010  177.4050  145.5850 O   0  0  0  0  0  0  0  0  0  0  0  0
  1 14  1  6  0  0  0
  2 22  1  0  0  0  0
  2 20  2  0  0  0  0
  3 25  1  0  0  0  0
  4 23  1  0  0  0  0
  4  1  1  0  0  0  0
  5 28  1  0  0  0  0
  6 13  1  0  0  0  0
  6 21  1  0  0  0  0
  7 11  1  0  0  0  0
  8  2  1  0  0  0  0
  9 16  1  0  0  0  0
 10 24  1  0  0  0  0
 11  3  1  0  0  0  0
 12  1  1  0  0  0  0
 12  5  1  0  0  0  0
 13  7  2  0  0  0  0
 14 10  1  0  0  0  0
 15  5  2  0  0  0  0
 16  4  2  0  0  0  0
 17 11  2  0  0  0  0
 18 24  1  0  0  0  0
 19 27  1  0  0  0  0
 20 13  1  0  0  0  0
 21 17  1  0  0  0  0
 22  6  2  0  0  0  0
 23 18  1  0  0  0  0
 25 15  2  0  0  0  0
 26 22  1  0  0  0  0
 26 19  2  0  0  0  0
 27 21  2  0  0  0  0
 27  9  1  0  0  0  0
 28 29  1  0  0  0  0
 29 31  1  0  0  0  0
 30 31  1  0  0  0  0
 30 33  1  1  0  0  0
 30 32  1  0  0  0  0
 31 32  1  0  0  0  0
 34 35  1  0  0  0  0
 35 33  1  0  0  0  0
 36 35  2  0  0  0  0
M  END
>  <MODEL>
1

>  <REMARK>
 VINA RESULT:      -9.0      0.000      0.000
  Name = 
  5 active torsions:
  status: ('A' for Active; 'I' for Inactive)
    1  A    between atoms: C_2  and  N_15
    2  A    between atoms: C_2  and  C_29
    3  A    between atoms: C_7  and  C_29
    4  A    between atoms: C_8  and  C_22
    5  A    between atoms: C_18  and  C_22
                            x       y       z     vdW  Elec       q    Type
                         _______ _______ _______ _____ _____    ______ ____

>  <TORSDO>
F 5

$$$$
=
 OpenBabel10232411273D

 36 41  0  0  1  0  0  0  0  0999 V2000
  185.0400  178.5170  138.9500 C   0  0  1  0  0  3  0  0  0  0  0  0
  186.2140  178.9240  146.7680 C   0  0  0  0  0  0  0  0  0  0  0  0
  189.2810  176.7760  142.1720 C   0  0  0  0  0  2  0  0  0  0  0  0
  183.8860  179.1650  139.6830 C   0  0  0  0  0  0  0  0  0  0  0  0
  187.5680  178.2620  139.3420 C   0  0  0  0  0  0  0  0  0  0  0  0
  186.1570  177.9970  144.7580 C   0  0  0  0  0  0  0  0  0  0  0  0
  188.4770  177.4840  144.4710 C   0  0  0  0  0  3  0  0  0  0  0  0
  185.8220  179.6460  147.9300 N   0  0  0  0  0  1  0  0  0  0  0  0
  184.3050  177.9630  141.6300 O   0  0  0  0  0  0  0  0  0  0  0  0
  183.2710  177.1010  137.6920 C   0  0  0  0  0  2  0  0  0  0  0  0
  188.1830  177.1250  143.1280 C   0  0  0  0  0  0  0  0  0  0  0  0
  186.2170  178.3850  139.8050 N   0  0  0  0  0  2  0  0  0  0  0  0
  187.4060  177.8920  145.2810 C   0  0  0  0  0  0  0  0  0  0  0  0
  184.6560  177.1590  138.3470 C   0  0  0  0  0  2  0  0  0  0  0  0
  188.5200  178.0520  140.2140 C   0  0  0  0  0  0  0  0  0  0  0  0
  183.5820  178.8930  140.9160 N   0  0  0  0  0  0  0  0  0  0  0  0
  186.8610  177.2310  142.6310 C   0  0  0  0  0  3  0  0  0  0  0  0
  182.0870  179.2870  137.9650 C   0  0  0  0  0  2  0  0  0  0  0  0
  183.6950  178.8040  143.8680 C   0  0  0  0  0  3  0  0  0  0  0  0
  187.4350  178.4900  146.5800 N   0  0  0  0  0  0  0  0  0  0  0  0
  185.8350  177.7120  143.4530 C   0  0  0  0  0  0  0  0  0  0  0  0
  185.3480  178.6540  145.6140 C   0  0  0  0  0  0  0  0  0  0  0  0
  183.0070  180.0760  138.8940 C   0  0  0  0  0  2  0  0  0  0  0  0
  182.8580  178.3940  136.9920 C   0  0  0  0  0  2  0  0  0  0  0  0
  189.4480  177.8290  141.1120 C   0  0  0  0  0  3  0  0  0  0  0  0
  184.0850  179.0910  145.2030 C   0  0  0  0  0  3  0  0  0  0  0  0
  184.5810  178.1250  142.9840 C   0  0  0  0  0  0  0  0  0  0  0  0
  187.9240  178.5060  137.9120 C   0  0  0  0  0  2  0  0  0  0  0  0
  188.6280  177.2990  137.3120 C   0  0  0  0  0  2  0  0  0  0  0  0
  190.6370  176.2570  137.8260 C   0  0  1  0  0  3  0  0  0  0  0  0
  190.0690  177.4910  137.3510 N   0  0  0  0  0  0  0  0  0  0  0  0
  190.6190  176.5490  136.5010 O   0  0  0  0  0  0  0  0  0  0  0  0
  192.0230  176.5210  138.3850 C   0  0  0  0  0  2  0  0  0  0  0  0
  194.0540  176.3040  136.9620 O   0  0  0  0  0  0  0  0  0  0  0  0
  193.0290  175.6910  137.6680 C   0  0  0  0  0  0  0  0  0  0  0  0
  192.9690  174.4340  137.7310 O   0  0  0  0  0  1  0  0  0  0  0  0
  1 14  1  1  0  0  0
  1  4  1  0  0  0  0
  1 12  1  0  0  0  0
  2  8  1  0  0  0  0
  3 11  1  0  0  0  0
  4 16  2  0  0  0  0
  5 12  1  0  0  0  0
  5 15  2  0  0  0  0
  6 13  1  0  0  0  0
  6 22  1  0  0  0  0
  7 13  2  0  0  0  0
  9 27  1  0  0  0  0
 10 14  1  0  0  0  0
 11  7  1  0  0  0  0
 13 20  1  0  0  0  0
 15 25  2  0  0  0  0
 16  9  1  0  0  0  0
 17 11  2  0  0  0  0
 17 21  1  0  0  0  0
 18 23  1  0  0  0  0
 19 26  1  0  0  0  0
 20  2  2  0  0  0  0
 21  6  2  0  0  0  0
 22  2  1  0  0  0  0
 23  4  1  0  0  0  0
 24 10  1  0  0  0  0
 24 18  1  0  0  0  0
 25  3  1  0  0  0  0
 26 22  2  0  0  0  0
 27 21  1  0  0  0  0
 27 19  2  0  0  0  0
 28  5  1  0  0  0  0
 29 31  1  0  0  0  0
 29 28  1  0  0  0  0
 30 33  1  1  0  0  0
 31 30  1  0  0  0  0
 32 31  1  0  0  0  0
 32 30  1  0  0  0  0
 34 35  2  0  0  0  0
 35 36  1  0  0  0  0
 35 33  1  0  0  0  0
M  END
>  <MODEL>
2

>  <REMARK>
 VINA RESULT:      -8.9      3.018      7.127
  Name = 
  5 active torsions:
  status: ('A' for Active; 'I' for Inactive)
    1  A    between atoms: C_2  and  N_15
    2  A    between atoms: C_2  and  C_29
    3  A    between atoms: C_7  and  C_29
    4  A    between atoms: C_8  and  C_22
    5  A    between atoms: C_18  and  C_22
                            x       y       z     vdW  Elec       q    Type
                         _______ _______ _______ _____ _____    ______ ____

>  <TORSDO>
F 5

$$$$
=
 OpenBabel10232411273D

 36 41  0  0  1  0  0  0  0  0999 V2000
  189.8240  177.7850  138.9520 C   0  0  1  0  0  3  0  0  0  0  0  0
  186.1510  178.5930  145.9180 C   0  0  0  0  0  0  0  0  0  0  0  0
  191.2520  176.1650  144.1230 C   0  0  0  0  0  2  0  0  0  0  0  0
  188.4880  178.4860  138.8320 C   0  0  0  0  0  0  0  0  0  0  0  0
  191.6140  177.5190  140.7780 C   0  0  0  0  0  0  0  0  0  0  0  0
  187.2580  177.5610  144.3010 C   0  0  0  0  0  0  0  0  0  0  0  0
  189.2720  177.0040  145.4670 C   0  0  0  0  0  3  0  0  0  0  0  0
  185.1770  179.3810  146.5920 N   0  0  0  0  0  1  0  0  0  0  0  0
  187.6210  177.3830  140.6880 O   0  0  0  0  0  0  0  0  0  0  0  0
  189.0880  176.3260  136.9400 C   0  0  0  0  0  2  0  0  0  0  0  0
  189.8170  176.5780  144.2260 C   0  0  0  0  0  0  0  0  0  0  0  0
  190.2580  177.6840  140.3430 N   0  0  0  0  0  2  0  0  0  0  0  0
  187.9480  177.4690  145.4670 C   0  0  0  0  0  0  0  0  0  0  0  0
  189.8160  176.4010  138.2880 C   0  0  0  0  0  2  0  0  0  0  0  0
  191.8540  177.3440  142.0520 C   0  0  0  0  0  0  0  0  0  0  0  0
  187.5020  178.2830  139.6520 N   0  0  0  0  0  0  0  0  0  0  0  0
  189.0530  176.6740  143.0380 C   0  0  0  0  0  3  0  0  0  0  0  0
  188.0660  178.5380  136.3790 C   0  0  0  0  0  2  0  0  0  0  0  0
  185.8390  178.3500  142.0950 C   0  0  0  0  0  3  0  0  0  0  0  0
  187.2260  178.1340  146.5080 N   0  0  0  0  0  0  0  0  0  0  0  0
  187.7610  177.2110  143.0720 C   0  0  0  0  0  0  0  0  0  0  0  0
  186.1270  178.2730  144.4850 C   0  0  0  0  0  0  0  0  0  0  0  0
  188.2870  179.3640  137.6440 C   0  0  0  0  0  2  0  0  0  0  0  0
  189.2250  177.5850  136.0870 C   0  0  0  0  0  2  0  0  0  0  0  0
  192.0590  177.1570  143.3330 C   0  0  0  0  0  3  0  0  0  0  0  0
  185.3730  178.7030  143.3890 C   0  0  0  0  0  3  0  0  0  0  0  0
  187.0470  177.6140  141.9350 C   0  0  0  0  0  0  0  0  0  0  0  0
  192.7590  177.6820  139.8320 C   0  0  0  0  0  2  0  0  0  0  0  0
  193.1410  176.3510  139.2040 C   0  0  0  0  0  2  0  0  0  0  0  0
  194.1180  175.3060  137.3770 C   0  0  1  0  0  3  0  0  0  0  0  0
  193.5450  176.5500  137.8220 N   0  0  0  0  0  0  0  0  0  0  0  0
  192.8380  175.6320  137.0650 O   0  0  0  0  0  0  0  0  0  0  0  0
  195.0120  175.5620  136.1790 C   0  0  0  0  0  2  0  0  0  0  0  0
  197.4730  175.7900  136.4720 O   0  0  0  0  0  0  0  0  0  0  0  0
  196.3570  174.9680  136.4090 C   0  0  0  0  0  0  0  0  0  0  0  0
  196.4770  173.7260  136.5810 O   0  0  0  0  0  1  0  0  0  0  0  0
  1 14  1  1  0  0  0
  1 12  1  0  0  0  0
  2 20  2  0  0  0  0
  2  8  1  0  0  0  0
  3 11  1  0  0  0  0
  4  1  1  0  0  0  0
  4 16  2  0  0  0  0
  5 15  2  0  0  0  0
  6 22  1  0  0  0  0
  6 13  2  0  0  0  0
  9 27  1  0  0  0  0
 10 14  1  0  0  0  0
 11  7  2  0  0  0  0
 12  5  1  0  0  0  0
 13  7  1  0  0  0  0
 13 20  1  0  0  0  0
 15 25  2  0  0  0  0
 16  9  1  0  0  0  0
 17 21  2  0  0  0  0
 17 11  1  0  0  0  0
 18 23  1  0  0  0  0
 19 26  1  0  0  0  0
 21  6  1  0  0  0  0
 22  2  1  0  0  0  0
 23  4  1  0  0  0  0
 24 18  1  0  0  0  0
 24 10  1  0  0  0  0
 25  3  1  0  0  0  0
 26 22  2  0  0  0  0
 27 19  2  0  0  0  0
 27 21  1  0  0  0  0
 28  5  1  0  0  0  0
 29 28  1  0  0  0  0
 30 33  1  6  0  0  0
 30 31  1  0  0  0  0
 31 29  1  0  0  0  0
 32 30  1  0  0  0  0
 32 31  1  0  0  0  0
 33 35  1  0  0  0  0
 35 34  2  0  0  0  0
 35 36  1  0  0  0  0
M  END
>  <MODEL>
3

>  <REMARK>
 VINA RESULT:      -8.6      3.721      7.842
  Name = 
  5 active torsions:
  status: ('A' for Active; 'I' for Inactive)
    1  A    between atoms: C_2  and  N_15
    2  A    between atoms: C_2  and  C_29
    3  A    between atoms: C_7  and  C_29
    4  A    between atoms: C_8  and  C_22
    5  A    between atoms: C_18  and  C_22
                            x       y       z     vdW  Elec       q    Type
                         _______ _______ _______ _____ _____    ______ ____

>  <TORSDO>
F 5

$$$$
=
 OpenBabel10232411273D

 36 41  0  0  1  0  0  0  0  0999 V2000
  183.4420  178.4660  139.4830 C   0  0  1  0  0  3  0  0  0  0  0  0
  190.2970  175.0870  137.4210 C   0  0  0  0  0  0  0  0  0  0  0  0
  188.5330  178.6510  141.8170 C   0  0  0  0  0  2  0  0  0  0  0  0
  183.3330  177.6490  138.2140 C   0  0  0  0  0  0  0  0  0  0  0  0
  184.9200  178.4280  141.5860 C   0  0  0  0  0  0  0  0  0  0  0  0
  188.9340  176.7050  138.0780 C   0  0  0  0  0  0  0  0  0  0  0  0
  189.8540  177.1710  140.2380 C   0  0  0  0  0  3  0  0  0  0  0  0
  190.8380  174.0020  136.6780 N   0  0  0  0  0  1  0  0  0  0  0  0
  185.5650  178.0080  137.6640 O   0  0  0  0  0  0  0  0  0  0  0  0
  182.1650  180.3400  138.2260 C   0  0  0  0  0  2  0  0  0  0  0  0
  188.7410  178.0240  140.4750 C   0  0  0  0  0  0  0  0  0  0  0  0
  184.6950  178.2080  140.1880 N   0  0  0  0  0  2  0  0  0  0  0  0
  189.9310  176.5420  138.9850 C   0  0  0  0  0  0  0  0  0  0  0  0
  183.2700  179.9700  139.2220 C   0  0  0  0  0  2  0  0  0  0  0  0
  186.1210  178.2470  142.0700 C   0  0  0  0  0  0  0  0  0  0  0  0
  184.3320  177.4520  137.4070 N   0  0  0  0  0  0  0  0  0  0  0  0
  187.7360  178.1790  139.4900 C   0  0  0  0  0  3  0  0  0  0  0  0
  181.1050  178.2740  137.2960 C   0  0  0  0  0  2  0  0  0  0  0  0
  186.8690  176.4170  136.3010 C   0  0  0  0  0  3  0  0  0  0  0  0
  190.8100  175.4990  138.5540 N   0  0  0  0  0  0  0  0  0  0  0  0
  187.8160  177.4760  138.2830 C   0  0  0  0  0  0  0  0  0  0  0  0
  189.0700  175.8150  137.0730 C   0  0  0  0  0  0  0  0  0  0  0  0
  181.9790  177.1470  137.8440 C   0  0  0  0  0  2  0  0  0  0  0  0
  180.9410  179.4280  138.2860 C   0  0  0  0  0  2  0  0  0  0  0  0
  187.3390  178.0680  142.5220 C   0  0  0  0  0  3  0  0  0  0  0  0
  188.0400  175.6290  136.1450 C   0  0  0  0  0  3  0  0  0  0  0  0
  186.7500  177.3340  137.3840 C   0  0  0  0  0  0  0  0  0  0  0  0
  183.7900  178.7230  142.5180 C   0  0  0  0  0  2  0  0  0  0  0  0
  184.2870  179.4260  143.7720 C   0  0  0  0  0  2  0  0  0  0  0  0
  185.3460  179.0060  145.7940 C   0  0  1  0  0  3  0  0  0  0  0  0
  184.3740  178.4790  144.8720 N   0  0  0  0  0  0  0  0  0  0  0  0
  184.0170  179.1670  146.0180 O   0  0  0  0  0  0  0  0  0  0  0  0
  185.8740  177.8840  146.6670 C   0  0  0  0  0  2  0  0  0  0  0  0
  187.8510  178.2900  148.1250 O   0  0  0  0  0  1  0  0  0  0  0  0
  187.3420  178.0340  146.8590 C   0  0  0  0  0  0  0  0  0  0  0  0
  188.1230  177.8940  145.8810 O   0  0  0  0  0  0  0  0  0  0  0  0
  1 14  1  6  0  0  0
  1 12  1  0  0  0  0
  2 20  2  0  0  0  0
  3 25  1  0  0  0  0
  4  1  1  0  0  0  0
  5 15  2  0  0  0  0
  5 28  1  0  0  0  0
  6 21  1  0  0  0  0
  6 13  1  0  0  0  0
  7 11  1  0  0  0  0
  8  2  1  0  0  0  0
 10 24  1  0  0  0  0
 10 14  1  0  0  0  0
 11  3  1  0  0  0  0
 12  5  1  0  0  0  0
 13  7  2  0  0  0  0
 15 25  2  0  0  0  0
 16  9  1  0  0  0  0
 16  4  2  0  0  0  0
 17 11  2  0  0  0  0
 18 23  1  0  0  0  0
 18 24  1  0  0  0  0
 19 27  1  0  0  0  0
 20 13  1  0  0  0  0
 21 17  1  0  0  0  0
 22  2  1  0  0  0  0
 22  6  2  0  0  0  0
 23  4  1  0  0  0  0
 26 19  2  0  0  0  0
 26 22  1  0  0  0  0
 27  9  1  0  0  0  0
 27 21  2  0  0  0  0
 28 29  1  0  0  0  0
 29 31  1  0  0  0  0
 30 32  1  0  0  0  0
 30 33  1  1  0  0  0
 31 30  1  0  0  0  0
 31 32  1  0  0  0  0
 33 35  1  0  0  0  0
 35 34  1  0  0  0  0
 36 35  2  0  0  0  0
M  END
>  <MODEL>
4

>  <REMARK>
 VINA RESULT:      -8.6      2.456      3.706
  Name = 
  5 active torsions:
  status: ('A' for Active; 'I' for Inactive)
    1  A    between atoms: C_2  and  N_15
    2  A    between atoms: C_2  and  C_29
    3  A    between atoms: C_7  and  C_29
    4  A    between atoms: C_8  and  C_22
    5  A    between atoms: C_18  and  C_22
                            x       y       z     vdW  Elec       q    Type
                         _______ _______ _______ _____ _____    ______ ____

>  <TORSDO>
F 5

$$$$
=
 OpenBabel10232411273D

 36 41  0  0  1  0  0  0  0  0999 V2000
  188.6810  177.9770  142.1520 C   0  0  1  0  0  3  0  0  0  0  0  0
  191.8900  176.3010  135.1120 C   0  0  0  0  0  0  0  0  0  0  0  0
  186.3610  176.7300  137.2060 C   0  0  0  0  0  2  0  0  0  0  0  0
  190.1940  177.9780  142.1820 C   0  0  0  0  0  0  0  0  0  0  0  0
  186.8680  178.4080  140.3810 C   0  0  0  0  0  0  0  0  0  0  0  0
  190.5280  176.0680  136.8420 C   0  0  0  0  0  0  0  0  0  0  0  0
  188.4200  176.4110  135.7610 C   0  0  0  0  0  3  0  0  0  0  0  0
  193.0770  176.4720  134.3460 N   0  0  0  0  0  1  0  0  0  0  0  0
  190.3380  176.4260  140.4550 O   0  0  0  0  0  0  0  0  0  0  0  0
  188.7710  176.5420  144.3090 C   0  0  0  0  0  2  0  0  0  0  0  0
  187.8150  176.4110  137.0470 C   0  0  0  0  0  0  0  0  0  0  0  0
  188.1680  177.9590  140.7840 N   0  0  0  0  0  2  0  0  0  0  0  0
  189.8060  176.1980  135.6990 C   0  0  0  0  0  0  0  0  0  0  0  0
  188.0840  176.8210  142.9670 C   0  0  0  0  0  2  0  0  0  0  0  0
  186.5000  178.2450  139.1360 C   0  0  0  0  0  0  0  0  0  0  0  0
  190.9230  177.2590  141.3830 N   0  0  0  0  0  0  0  0  0  0  0  0
  188.6040  176.2500  138.2110 C   0  0  0  0  0  3  0  0  0  0  0  0
  190.7370  178.0590  144.6110 C   0  0  0  0  0  2  0  0  0  0  0  0
  192.2780  176.3060  138.9350 C   0  0  0  0  0  3  0  0  0  0  0  0
  190.6920  176.3450  134.5850 N   0  0  0  0  0  0  0  0  0  0  0  0
  189.9940  176.1130  138.1070 C   0  0  0  0  0  0  0  0  0  0  0  0
  191.8470  176.1450  136.5710 C   0  0  0  0  0  0  0  0  0  0  0  0
  190.8500  178.7690  143.2630 C   0  0  0  0  0  2  0  0  0  0  0  0
  189.2870  177.7940  145.0170 C   0  0  0  0  0  2  0  0  0  0  0  0
  186.1560  178.0550  137.8850 C   0  0  0  0  0  3  0  0  0  0  0  0
  192.7780  176.2740  137.6070 C   0  0  0  0  0  3  0  0  0  0  0  0
  190.8790  176.2410  139.1860 C   0  0  0  0  0  0  0  0  0  0  0  0
  185.9890  179.1780  141.3110 C   0  0  0  0  0  2  0  0  0  0  0  0
  184.8600  178.3070  141.8410 C   0  0  0  0  0  2  0  0  0  0  0  0
  185.2430  178.5860  144.1120 C   0  0  1  0  0  3  0  0  0  0  0  0
  184.3120  178.8860  143.0560 N   0  0  0  0  0  0  0  0  0  0  0  0
  185.2410  179.8040  143.5130 O   0  0  0  0  0  0  0  0  0  0  0  0
  184.5360  178.6790  145.4510 C   0  0  0  0  0  2  0  0  0  0  0  0
  185.6070  179.6610  147.4720 O   0  0  0  0  0  1  0  0  0  0  0  0
  185.5280  178.6190  146.5580 C   0  0  0  0  0  0  0  0  0  0  0  0
  186.2700  177.6100  146.6860 O   0  0  0  0  0  0  0  0  0  0  0  0
  1  4  1  0  0  0  0
  1 14  1  1  0  0  0
  2 22  1  0  0  0  0
  3 25  1  0  0  0  0
  4 23  1  0  0  0  0
  5 12  1  0  0  0  0
  5 28  1  0  0  0  0
  6 21  1  0  0  0  0
  7 11  1  0  0  0  0
  8  2  1  0  0  0  0
  9 16  1  0  0  0  0
 10 24  1  0  0  0  0
 11  3  1  0  0  0  0
 11 17  2  0  0  0  0
 12  1  1  0  0  0  0
 13  7  2  0  0  0  0
 13  6  1  0  0  0  0
 14 10  1  0  0  0  0
 15  5  2  0  0  0  0
 16  4  2  0  0  0  0
 18 24  1  0  0  0  0
 19 27  1  0  0  0  0
 20  2  2  0  0  0  0
 20 13  1  0  0  0  0
 21 17  1  0  0  0  0
 21 27  2  0  0  0  0
 22  6  2  0  0  0  0
 22 26  1  0  0  0  0
 23 18  1  0  0  0  0
 25 15  2  0  0  0  0
 26 19  2  0  0  0  0
 27  9  1  0  0  0  0
 28 29  1  0  0  0  0
 29 31  1  0  0  0  0
 30 33  1  1  0  0  0
 31 32  1  0  0  0  0
 31 30  1  0  0  0  0
 32 30  1  0  0  0  0
 33 35  1  0  0  0  0
 35 36  2  0  0  0  0
 35 34  1  0  0  0  0
M  END
>  <MODEL>
5

>  <REMARK>
 VINA RESULT:      -8.5      2.484      5.391
  Name = 
  5 active torsions:
  status: ('A' for Active; 'I' for Inactive)
    1  A    between atoms: C_2  and  N_15
    2  A    between atoms: C_2  and  C_29
    3  A    between atoms: C_7  and  C_29
    4  A    between atoms: C_8  and  C_22
    5  A    between atoms: C_18  and  C_22
                            x       y       z     vdW  Elec       q    Type
                         _______ _______ _______ _____ _____    ______ ____

>  <TORSDO>
F 5

$$$$
=
 OpenBabel10232411273D

 36 41  0  0  1  0  0  0  0  0999 V2000
  185.7390  178.5620  139.2950 C   0  0  1  0  0  3  0  0  0  0  0  0
  187.6800  178.1870  146.9600 C   0  0  0  0  0  0  0  0  0  0  0  0
  190.2570  176.5040  141.8930 C   0  0  0  0  0  2  0  0  0  0  0  0
  184.6690  179.1340  140.1990 C   0  0  0  0  0  0  0  0  0  0  0  0
  188.2900  178.2660  139.4080 C   0  0  0  0  0  0  0  0  0  0  0  0
  187.4160  177.4650  144.8830 C   0  0  0  0  0  0  0  0  0  0  0  0
  189.6910  176.9800  144.3190 C   0  0  0  0  0  3  0  0  0  0  0  0
  187.4120  178.7900  148.2200 N   0  0  0  0  0  1  0  0  0  0  0  0
  185.2650  177.7440  141.9660 O   0  0  0  0  0  0  0  0  0  0  0  0
  183.8400  177.2790  138.0830 C   0  0  0  0  0  2  0  0  0  0  0  0
  189.2620  176.7580  142.9820 C   0  0  0  0  0  0  0  0  0  0  0  0
  186.9930  178.3440  140.0120 N   0  0  0  0  0  2  0  0  0  0  0  0
  188.7090  177.3070  145.2670 C   0  0  0  0  0  0  0  0  0  0  0  0
  185.2830  177.2700  138.6010 C   0  0  0  0  0  2  0  0  0  0  0  0
  189.3210  177.9690  140.1560 C   0  0  0  0  0  0  0  0  0  0  0  0
  184.4850  178.7410  141.4230 N   0  0  0  0  0  0  0  0  0  0  0  0
  187.8990  176.9140  142.6320 C   0  0  0  0  0  3  0  0  0  0  0  0
  182.7120  179.4280  138.6870 C   0  0  0  0  0  2  0  0  0  0  0  0
  184.8870  178.3590  144.3260 C   0  0  0  0  0  3  0  0  0  0  0  0
  188.8720  177.7720  146.6100 N   0  0  0  0  0  0  0  0  0  0  0  0
  186.9640  177.3110  143.5950 C   0  0  0  0  0  0  0  0  0  0  0  0
  186.7020  178.0340  145.8760 C   0  0  0  0  0  0  0  0  0  0  0  0
  183.7270  180.1200  139.5950 C   0  0  0  0  0  2  0  0  0  0  0  0
  183.3740  178.6360  137.5590 C   0  0  0  0  0  2  0  0  0  0  0  0
  190.3310  177.6570  140.9310 C   0  0  0  0  0  3  0  0  0  0  0  0
  185.4090  178.5110  145.6370 C   0  0  0  0  0  3  0  0  0  0  0  0
  185.6740  177.7700  143.2950 C   0  0  0  0  0  0  0  0  0  0  0  0
  188.5070  178.6510  137.9800 C   0  0  0  0  0  2  0  0  0  0  0  0
  189.0520  177.4800  137.1770 C   0  0  0  0  0  2  0  0  0  0  0  0
  188.2370  175.4130  136.5100 C   0  0  1  0  0  3  0  0  0  0  0  0
  188.4860  176.2340  137.6660 N   0  0  0  0  0  0  0  0  0  0  0  0
  189.3460  175.2250  137.2690 O   0  0  0  0  0  0  0  0  0  0  0  0
  187.2020  174.3580  136.8530 C   0  0  0  0  0  2  0  0  0  0  0  0
  188.0300  172.7480  135.1450 O   0  0  0  0  0  0  0  0  0  0  0  0
  187.7000  173.0100  136.4670 C   0  0  0  0  0  0  0  0  0  0  0  0
  187.8530  172.1190  137.3440 O   0  0  0  0  0  1  0  0  0  0  0  0
  1 14  1  1  0  0  0
  1 12  1  0  0  0  0
  1  4  1  0  0  0  0
  2  8  1  0  0  0  0
  3 11  1  0  0  0  0
  4 16  2  0  0  0  0
  5 12  1  0  0  0  0
  5 15  2  0  0  0  0
  6 13  1  0  0  0  0
  6 22  1  0  0  0  0
  7 13  2  0  0  0  0
  9 27  1  0  0  0  0
 10 14  1  0  0  0  0
 11  7  1  0  0  0  0
 13 20  1  0  0  0  0
 15 25  2  0  0  0  0
 16  9  1  0  0  0  0
 17 11  2  0  0  0  0
 17 21  1  0  0  0  0
 18 23  1  0  0  0  0
 19 26  1  0  0  0  0
 20  2  2  0  0  0  0
 21  6  2  0  0  0  0
 22  2  1  0  0  0  0
 23  4  1  0  0  0  0
 24 10  1  0  0  0  0
 24 18  1  0  0  0  0
 25  3  1  0  0  0  0
 26 22  2  0  0  0  0
 27 21  1  0  0  0  0
 27 19  2  0  0  0  0
 28  5  1  0  0  0  0
 29 31  1  0  0  0  0
 29 28  1  0  0  0  0
 30 33  1  1  0  0  0
 30 32  1  0  0  0  0
 30 31  1  0  0  0  0
 32 31  1  0  0  0  0
 34 35  2  0  0  0  0
 35 33  1  0  0  0  0
 35 36  1  0  0  0  0
M  END
>  <MODEL>
6

>  <REMARK>
 VINA RESULT:      -8.0      2.798      7.371
  Name = 
  5 active torsions:
  status: ('A' for Active; 'I' for Inactive)
    1  A    between atoms: C_2  and  N_15
    2  A    between atoms: C_2  and  C_29
    3  A    between atoms: C_7  and  C_29
    4  A    between atoms: C_8  and  C_22
    5  A    between atoms: C_18  and  C_22
                            x       y       z     vdW  Elec       q    Type
                         _______ _______ _______ _____ _____    ______ ____

>  <TORSDO>
F 5

$$$$
=
 OpenBabel10232411273D

 36 41  0  0  1  0  0  0  0  0999 V2000
  189.4020  177.5080  142.5840 C   0  0  1  0  0  3  0  0  0  0  0  0
  181.7370  178.1730  140.7220 C   0  0  0  0  0  0  0  0  0  0  0  0
  186.8230  178.3580  137.6830 C   0  0  0  0  0  2  0  0  0  0  0  0
  188.4950  177.4070  143.7910 C   0  0  0  0  0  0  0  0  0  0  0  0
  189.1960  177.0090  140.0710 C   0  0  0  0  0  0  0  0  0  0  0  0
  183.8900  178.6880  140.7190 C   0  0  0  0  0  0  0  0  0  0  0  0
  184.3910  178.3730  138.4010 C   0  0  0  0  0  3  0  0  0  0  0  0
  180.4330  177.8370  141.1820 N   0  0  0  0  0  1  0  0  0  0  0  0
  186.8630  178.7450  142.8120 O   0  0  0  0  0  0  0  0  0  0  0  0
  190.8380  179.1620  143.9700 C   0  0  0  0  0  2  0  0  0  0  0  0
  185.7630  178.5570  138.7210 C   0  0  0  0  0  0  0  0  0  0  0  0
  188.6520  177.4100  141.3340 N   0  0  0  0  0  2  0  0  0  0  0  0
  183.4620  178.4820  139.4470 C   0  0  0  0  0  0  0  0  0  0  0  0
  190.2540  178.7850  142.6030 C   0  0  0  0  0  2  0  0  0  0  0  0
  188.4340  177.0590  139.0090 C   0  0  0  0  0  0  0  0  0  0  0  0
  187.3320  177.9810  143.8580 N   0  0  0  0  0  0  0  0  0  0  0  0
  186.1620  178.7910  140.0590 C   0  0  0  0  0  3  0  0  0  0  0  0
  190.0600  177.5560  145.7220 C   0  0  0  0  0  2  0  0  0  0  0  0
  184.4710  178.5630  143.3940 C   0  0  0  0  0  3  0  0  0  0  0  0
  182.0700  178.1530  139.4550 N   0  0  0  0  0  0  0  0  0  0  0  0
  185.2080  178.8200  141.0840 C   0  0  0  0  0  0  0  0  0  0  0  0
  182.8780  178.4910  141.5890 C   0  0  0  0  0  0  0  0  0  0  0  0
  189.0330  176.6970  144.9870 C   0  0  0  0  0  2  0  0  0  0  0  0
  191.2330  177.9640  144.8310 C   0  0  0  0  0  2  0  0  0  0  0  0
  187.6490  177.1330  137.9620 C   0  0  0  0  0  3  0  0  0  0  0  0
  183.1270  178.4130  142.9630 C   0  0  0  0  0  3  0  0  0  0  0  0
  185.5200  178.7510  142.4490 C   0  0  0  0  0  0  0  0  0  0  0  0
  190.5600  176.4090  139.9670 C   0  0  0  0  0  2  0  0  0  0  0  0
  191.2520  176.8450  138.6850 C   0  0  0  0  0  2  0  0  0  0  0  0
  193.1060  176.5400  137.3230 C   0  0  1  0  0  3  0  0  0  0  0  0
  192.3190  175.9150  138.3540 N   0  0  0  0  0  0  0  0  0  0  0  0
  193.5110  176.5660  138.6180 O   0  0  0  0  0  0  0  0  0  0  0  0
  193.8860  175.4800  136.5690 C   0  0  0  0  0  2  0  0  0  0  0  0
  195.1080  177.4950  135.7680 O   0  0  0  0  0  1  0  0  0  0  0  0
  194.9490  176.1170  135.7460 C   0  0  0  0  0  0  0  0  0  0  0  0
  195.7260  175.4030  135.0580 O   0  0  0  0  0  0  0  0  0  0  0  0
  1 14  1  6  0  0  0
  1  4  1  0  0  0  0
  2  8  1  0  0  0  0
  2 22  1  0  0  0  0
  3 25  1  0  0  0  0
  3 11  1  0  0  0  0
  4 16  2  0  0  0  0
  4 23  1  0  0  0  0
  5 12  1  0  0  0  0
  6 21  1  0  0  0  0
  6 22  1  0  0  0  0
  7 11  2  0  0  0  0
  7 13  1  0  0  0  0
  9 16  1  0  0  0  0
 10 24  1  0  0  0  0
 11 17  1  0  0  0  0
 12  1  1  0  0  0  0
 13 20  1  0  0  0  0
 13  6  2  0  0  0  0
 14 10  1  0  0  0  0
 15  5  2  0  0  0  0
 17 21  2  0  0  0  0
 20  2  2  0  0  0  0
 21 27  1  0  0  0  0
 22 26  2  0  0  0  0
 23 18  1  0  0  0  0
 24 18  1  0  0  0  0
 25 15  2  0  0  0  0
 26 19  1  0  0  0  0
 27  9  1  0  0  0  0
 27 19  2  0  0  0  0
 28  5  1  0  0  0  0
 29 28  1  0  0  0  0
 30 33  1  6  0  0  0
 30 31  1  0  0  0  0
 30 32  1  0  0  0  0
 31 32  1  0  0  0  0
 31 29  1  0  0  0  0
 35 34  1  0  0  0  0
 35 33  1  0  0  0  0
 36 35  2  0  0  0  0
M  END
>  <MODEL>
7

>  <REMARK>
 VINA RESULT:      -8.0      3.531      7.394
  Name = 
  5 active torsions:
  status: ('A' for Active; 'I' for Inactive)
    1  A    between atoms: C_2  and  N_15
    2  A    between atoms: C_2  and  C_29
    3  A    between atoms: C_7  and  C_29
    4  A    between atoms: C_8  and  C_22
    5  A    between atoms: C_18  and  C_22
                            x       y       z     vdW  Elec       q    Type
                         _______ _______ _______ _____ _____    ______ ____

>  <TORSDO>
F 5

$$$$
=
 OpenBabel10232411273D

 36 41  0  0  1  0  0  0  0  0999 V2000
  188.7890  178.0150  142.2460 C   0  0  1  0  0  3  0  0  0  0  0  0
  191.8280  176.3270  135.1340 C   0  0  0  0  0  0  0  0  0  0  0  0
  186.3500  176.8370  137.3400 C   0  0  0  0  0  2  0  0  0  0  0  0
  190.3010  177.9900  142.2470 C   0  0  0  0  0  0  0  0  0  0  0  0
  186.9490  178.4870  140.5140 C   0  0  0  0  0  0  0  0  0  0  0  0
  190.4960  176.1070  136.8900 C   0  0  0  0  0  0  0  0  0  0  0  0
  188.3740  176.4920  135.8530 C   0  0  0  0  0  3  0  0  0  0  0  0
  193.0020  176.4820  134.3460 N   0  0  0  0  0  1  0  0  0  0  0  0
  190.3840  176.4460  140.5080 O   0  0  0  0  0  0  0  0  0  0  0  0
  188.8970  176.5660  144.3930 C   0  0  0  0  0  2  0  0  0  0  0  0
  187.7940  176.4940  137.1500 C   0  0  0  0  0  0  0  0  0  0  0  0
  188.2480  178.0140  140.8890 N   0  0  0  0  0  2  0  0  0  0  0  0
  189.7550  176.2570  135.7620 C   0  0  0  0  0  0  0  0  0  0  0  0
  188.1880  176.8640  143.0660 C   0  0  0  0  0  2  0  0  0  0  0  0
  186.5530  178.3380  139.2770 C   0  0  0  0  0  0  0  0  0  0  0  0
  191.0020  177.2630  141.4280 N   0  0  0  0  0  0  0  0  0  0  0  0
  188.6040  176.3130  138.2970 C   0  0  0  0  0  3  0  0  0  0  0  0
  190.8930  178.0470  144.6650 C   0  0  0  0  0  2  0  0  0  0  0  0
  192.2920  176.3030  138.9490 C   0  0  0  0  0  3  0  0  0  0  0  0
  190.6210  176.3950  134.6320 N   0  0  0  0  0  0  0  0  0  0  0  0
  189.9880  176.1530  138.1650 C   0  0  0  0  0  0  0  0  0  0  0  0
  191.8110  176.1630  136.5930 C   0  0  0  0  0  0  0  0  0  0  0  0
  190.9930  178.7630  143.3180 C   0  0  0  0  0  2  0  0  0  0  0  0
  189.4480  177.8040  145.0980 C   0  0  0  0  0  2  0  0  0  0  0  0
  186.1810  178.1620  138.0310 C   0  0  0  0  0  3  0  0  0  0  0  0
  192.7650  176.2700  137.6110 C   0  0  0  0  0  3  0  0  0  0  0  0
  190.8970  176.2590  139.2280 C   0  0  0  0  0  0  0  0  0  0  0  0
  186.1010  179.2670  141.4660 C   0  0  0  0  0  2  0  0  0  0  0  0
  184.9580  178.4160  141.9990 C   0  0  0  0  0  2  0  0  0  0  0  0
  182.9730  178.4170  143.2010 C   0  0  1  0  0  3  0  0  0  0  0  0
  184.1610  179.1870  142.9400 N   0  0  0  0  0  0  0  0  0  0  0  0
  184.0140  178.4040  144.0710 O   0  0  0  0  0  0  0  0  0  0  0  0
  181.8840  179.3330  143.7280 C   0  0  0  0  0  2  0  0  0  0  0  0
  180.0510  180.6570  142.6880 O   0  0  0  0  0  1  0  0  0  0  0  0
  180.8180  179.5010  142.7030 C   0  0  0  0  0  0  0  0  0  0  0  0
  180.6360  178.6120  141.8310 O   0  0  0  0  0  0  0  0  0  0  0  0
  1  4  1  0  0  0  0
  1 14  1  1  0  0  0
  2 22  1  0  0  0  0
  3 25  1  0  0  0  0
  4 23  1  0  0  0  0
  5 12  1  0  0  0  0
  5 28  1  0  0  0  0
  6 21  1  0  0  0  0
  7 11  1  0  0  0  0
  8  2  1  0  0  0  0
  9 16  1  0  0  0  0
 10 24  1  0  0  0  0
 11  3  1  0  0  0  0
 11 17  2  0  0  0  0
 12  1  1  0  0  0  0
 13  7  2  0  0  0  0
 13  6  1  0  0  0  0
 14 10  1  0  0  0  0
 15  5  2  0  0  0  0
 16  4  2  0  0  0  0
 18 24  1  0  0  0  0
 19 27  1  0  0  0  0
 20  2  2  0  0  0  0
 20 13  1  0  0  0  0
 21 17  1  0  0  0  0
 21 27  2  0  0  0  0
 22  6  2  0  0  0  0
 22 26  1  0  0  0  0
 23 18  1  0  0  0  0
 25 15  2  0  0  0  0
 26 19  2  0  0  0  0
 27  9  1  0  0  0  0
 28 29  1  0  0  0  0
 29 31  1  0  0  0  0
 30 33  1  1  0  0  0
 30 32  1  0  0  0  0
 31 30  1  0  0  0  0
 31 32  1  0  0  0  0
 34 35  1  0  0  0  0
 35 33  1  0  0  0  0
 36 35  2  0  0  0  0
M  END
>  <MODEL>
8

>  <REMARK>
 VINA RESULT:      -7.9      2.619      6.395
  Name = 
  5 active torsions:
  status: ('A' for Active; 'I' for Inactive)
    1  A    between atoms: C_2  and  N_15
    2  A    between atoms: C_2  and  C_29
    3  A    between atoms: C_7  and  C_29
    4  A    between atoms: C_8  and  C_22
    5  A    between atoms: C_18  and  C_22
                            x       y       z     vdW  Elec       q    Type
                         _______ _______ _______ _____ _____    ______ ____

>  <TORSDO>
F 5

$$$$
=
 OpenBabel10232411273D

 36 41  0  0  1  0  0  0  0  0999 V2000
  189.3850  177.5280  142.6280 C   0  0  1  0  0  3  0  0  0  0  0  0
  181.6720  178.2650  141.0010 C   0  0  0  0  0  0  0  0  0  0  0  0
  186.6750  178.5780  137.8360 C   0  0  0  0  0  2  0  0  0  0  0  0
  188.5110  177.3760  143.8530 C   0  0  0  0  0  0  0  0  0  0  0  0
  189.1110  177.1330  140.1020 C   0  0  0  0  0  0  0  0  0  0  0  0
  183.8260  178.7820  140.9620 C   0  0  0  0  0  0  0  0  0  0  0  0
  184.2630  178.5630  138.6200 C   0  0  0  0  0  3  0  0  0  0  0  0
  180.3820  177.9110  141.4820 N   0  0  0  0  0  1  0  0  0  0  0  0
  186.8540  178.7530  142.9750 O   0  0  0  0  0  0  0  0  0  0  0  0
  190.8590  179.1240  144.0410 C   0  0  0  0  0  2  0  0  0  0  0  0
  185.6440  178.7340  138.9100 C   0  0  0  0  0  0  0  0  0  0  0  0
  188.6010  177.4810  141.3950 N   0  0  0  0  0  2  0  0  0  0  0  0
  183.3630  178.6280  139.6950 C   0  0  0  0  0  0  0  0  0  0  0  0
  190.2380  178.8030  142.6760 C   0  0  0  0  0  2  0  0  0  0  0  0
  188.3210  177.2270  139.0640 C   0  0  0  0  0  0  0  0  0  0  0  0
  187.3500  177.9470  143.9750 N   0  0  0  0  0  0  0  0  0  0  0  0
  186.0790  178.9120  140.2460 C   0  0  0  0  0  3  0  0  0  0  0  0
  190.1270  177.4470  145.7460 C   0  0  0  0  0  2  0  0  0  0  0  0
  184.4790  178.5460  143.6120 C   0  0  0  0  0  3  0  0  0  0  0  0
  181.9720  178.2980  139.7270 N   0  0  0  0  0  0  0  0  0  0  0  0
  185.1530  178.8980  141.2960 C   0  0  0  0  0  0  0  0  0  0  0  0
  182.8370  178.5480  141.8500 C   0  0  0  0  0  0  0  0  0  0  0  0
  189.0800  176.6180  145.0040 C   0  0  0  0  0  2  0  0  0  0  0  0
  191.2770  177.8910  144.8410 C   0  0  0  0  0  2  0  0  0  0  0  0
  187.5070  177.3430  138.0420 C   0  0  0  0  0  3  0  0  0  0  0  0
  183.1230  178.4140  143.2120 C   0  0  0  0  0  3  0  0  0  0  0  0
  185.5010  178.7740  142.6480 C   0  0  0  0  0  0  0  0  0  0  0  0
  190.4710  176.5380  139.9370 C   0  0  0  0  0  2  0  0  0  0  0  0
  190.8390  176.4180  138.4660 C   0  0  0  0  0  2  0  0  0  0  0  0
  190.2560  174.8580  136.8500 C   0  0  1  0  0  3  0  0  0  0  0  0
  190.9600  175.0180  138.0960 N   0  0  0  0  0  0  0  0  0  0  0  0
  191.6070  174.9840  136.8730 O   0  0  0  0  0  0  0  0  0  0  0  0
  189.8860  173.3990  136.6620 C   0  0  0  0  0  2  0  0  0  0  0  0
  187.8460  171.9760  136.5810 O   0  0  0  0  0  0  0  0  0  0  0  0
  188.4060  173.2420  136.6680 C   0  0  0  0  0  0  0  0  0  0  0  0
  187.6660  174.2540  136.7860 O   0  0  0  0  0  1  0  0  0  0  0  0
  1 14  1  1  0  0  0
  1  4  1  0  0  0  0
  2  8  1  0  0  0  0
  2 22  1  0  0  0  0
  3 25  1  0  0  0  0
  3 11  1  0  0  0  0
  4 16  2  0  0  0  0
  4 23  1  0  0  0  0
  5 12  1  0  0  0  0
  6 21  1  0  0  0  0
  6 22  1  0  0  0  0
  7 11  2  0  0  0  0
  7 13  1  0  0  0  0
  9 16  1  0  0  0  0
 10 24  1  0  0  0  0
 11 17  1  0  0  0  0
 12  1  1  0  0  0  0
 13 20  1  0  0  0  0
 13  6  2  0  0  0  0
 14 10  1  0  0  0  0
 15  5  2  0  0  0  0
 17 21  2  0  0  0  0
 20  2  2  0  0  0  0
 21 27  1  0  0  0  0
 22 26  2  0  0  0  0
 23 18  1  0  0  0  0
 24 18  1  0  0  0  0
 25 15  2  0  0  0  0
 26 19  1  0  0  0  0
 27  9  1  0  0  0  0
 27 19  2  0  0  0  0
 28  5  1  0  0  0  0
 29 28  1  0  0  0  0
 30 33  1  1  0  0  0
 30 32  1  0  0  0  0
 30 31  1  0  0  0  0
 31 29  1  0  0  0  0
 32 31  1  0  0  0  0
 33 35  1  0  0  0  0
 34 35  2  0  0  0  0
 35 36  1  0  0  0  0
M  END
>  <MODEL>
9

>  <REMARK>
 VINA RESULT:      -7.6      2.839      7.455
  Name = 
  5 active torsions:
  status: ('A' for Active; 'I' for Inactive)
    1  A    between atoms: C_2  and  N_15
    2  A    between atoms: C_2  and  C_29
    3  A    between atoms: C_7  and  C_29
    4  A    between atoms: C_8  and  C_22
    5  A    between atoms: C_18  and  C_22
                            x       y       z     vdW  Elec       q    Type
                         _______ _______ _______ _____ _____    ______ ____

>  <TORSDO>
F 5

$$$$
