=
 OpenBabel10232412173D

 56 67  0  0  1  0  0  0  0  0999 V2000
  192.0960  175.7520  137.0310 C   0  0  0  0  0  0  0  0  0  0  0  0
  192.2230  175.9220  138.3930 C   0  0  0  0  0  3  0  0  0  0  0  0
  191.2950  176.8080  138.8220 N   0  0  0  0  0  0  0  0  0  0  0  0
  191.0400  176.5280  136.5870 C   0  0  0  0  0  3  0  0  0  0  0  0
  190.5900  177.1910  137.7230 C   0  0  0  0  0  0  0  0  0  0  0  0
  188.1110  175.8260  137.2130 C   0  0  0  0  0  3  0  0  0  0  0  0
  184.8860  173.0970  137.9200 O   0  0  0  0  0  0  0  0  0  0  0  0
  185.7030  175.3640  136.7750 N   0  0  0  0  0  0  0  0  0  0  0  0
  185.0340  176.6760  136.6840 C   0  0  1  0  0  3  0  0  0  0  0  0
  185.8910  177.8690  136.3440 C   0  0  0  0  0  3  0  0  0  0  0  0
  182.9460  174.6280  136.8230 C   0  0  2  0  0  3  0  0  0  0  0  0
  181.5510  176.0250  138.1570 N   0  0  0  0  0  2  0  0  0  0  0  0
  182.7600  175.9510  136.0780 C   0  0  2  0  0  3  0  0  0  0  0  0
  188.4170  177.7070  138.9400 C   0  0  0  0  0  2  0  0  0  0  0  0
  182.5270  174.9390  138.2450 C   0  0  0  0  0  2  0  0  0  0  0  0
  184.0060  176.6020  135.6370 N   0  0  0  0  0  2  0  0  0  0  0  0
  181.9750  176.8480  137.0290 C   0  0  0  0  0  2  0  0  0  0  0  0
  184.6250  174.0080  136.7470 S   0  0  0  0  0  0  0  0  0  0  0  0
  184.8140  173.2450  135.4640 O   0  0  0  0  0  0  0  0  0  0  0  0
  187.1250  178.1550  136.7410 C   0  0  0  0  0  3  0  0  0  0  0  0
  188.0090  177.2790  137.5520 C   0  0  2  0  0  0  0  0  0  0  0  0
  189.3290  178.0300  137.7540 C   0  0  2  0  0  3  0  0  0  0  0  0
  187.0980  175.0250  136.8940 C   0  0  0  0  0  3  0  0  0  0  0  0
  197.2390  175.9090  135.3210 C   0  0  0  0  0  3  0  0  0  0  0  0
  194.3360  175.1130  136.1040 C   0  0  0  0  0  0  0  0  0  0  0  0
  198.6500  174.6350  136.8090 N   0  0  0  0  0  0  0  0  0  0  0  0
  194.2720  172.8770  136.8410 N   0  0  0  0  0  0  0  0  0  0  0  0
  192.8980  174.7520  136.2610 C   0  0  1  0  0  3  0  0  0  0  0  0
  200.1400  172.7940  137.2640 C   0  0  0  0  0  1  0  0  0  0  0  0
  197.3250  172.3630  136.9710 S   0  0  0  0  0  0  0  0  0  0  0  0
  197.3070  175.0910  136.5710 C   0  0  2  0  0  3  0  0  0  0  0  0
  192.8920  173.3490  136.8780 C   0  0  0  0  0  2  0  0  0  0  0  0
  194.7260  176.1550  135.3570 C   0  0  0  0  0  3  0  0  0  0  0  0
  198.7840  173.3840  137.0870 C   0  0  0  0  0  0  0  0  0  0  0  0
  196.4610  173.8680  136.5120 C   0  0  2  0  0  3  0  0  0  0  0  0
  196.0960  176.4160  134.8390 C   0  0  0  0  0  3  0  0  0  0  0  0
  195.1230  173.9440  136.4740 C   0  0  0  0  0  0  0  0  0  0  0  0
  189.5470  175.6720  141.5560 N   0  0  0  0  0  2  0  0  0  0  0  0
  191.8560  177.7410  141.0350 C   0  0  0  0  0  0  0  0  0  0  0  0
  189.7090  176.7850  140.7240 N   0  0  0  0  0  2  0  0  0  0  0  0
  190.5750  177.6360  144.7080 N   0  0  2  0  0  0  0  0  0  0  0  0
  190.6120  174.9350  143.7020 C   0  0  0  0  0  2  0  0  0  0  0  0
  190.9930  177.1040  140.2140 C   0  0  0  0  0  0  0  0  0  0  0  0
  190.3410  177.5020  143.2480 C   0  0  1  0  0  3  0  0  0  0  0  0
  191.5840  178.0390  142.4950 C   0  0  0  0  0  2  0  0  0  0  0  0
  191.9090  175.4860  144.2840 C   0  0  0  0  0  2  0  0  0  0  0  0
  191.6380  176.7030  145.1890 C   0  0  0  0  0  2  0  0  0  0  0  0
  189.9050  176.0410  142.9270 C   0  0  1  0  0  3  0  0  0  0  0  0
  193.0880  178.1770  140.5600 O   0  0  0  0  0  1  0  0  0  0  0  0
  188.1630  178.2360  144.7740 C   0  0  2  0  0  3  0  0  0  0  0  0
  187.1070  177.2920  144.2210 C   0  0  0  0  0  2  0  0  0  0  0  0
  186.9030  177.1350  146.7050 C   0  0  0  0  0  2  0  0  0  0  0  0
  189.3000  177.4330  145.4330 C   0  0  2  0  0  3  0  0  0  0  0  0
  189.3620  177.8070  146.9330 C   0  0  0  0  0  2  0  0  0  0  0  0
  186.8140  178.0660  145.4920 C   0  0  1  0  0  3  0  0  0  0  0  0
  188.0220  177.5640  147.6550 C   0  0  0  0  0  2  0  0  0  0  0  0
  1  2  2  0  0  0  0
  2  3  1  0  0  0  0
  3 43  1  0  0  0  0
  4  1  1  0  0  0  0
  4  5  2  0  0  0  0
  5  3  1  0  0  0  0
  6 21  1  0  0  0  0
  8 23  1  0  0  0  0
  9 10  1  6  0  0  0
  9  8  1  0  0  0  0
 10 20  2  0  0  0  0
 11 15  1  1  0  0  0
 12 15  1  0  0  0  0
 13 11  1  0  0  0  0
 13 17  1  1  0  0  0
 16 13  1  0  0  0  0
 16  9  1  0  0  0  0
 17 12  1  0  0  0  0
 18  8  1  0  0  0  0
 18 11  1  0  0  0  0
 18  7  2  0  0  0  0
 19 18  2  0  0  0  0
 21 20  1  6  0  0  0
 21 22  1  0  0  0  0
 21 14  1  0  0  0  0
 22  5  1  1  0  0  0
 22 14  1  0  0  0  0
 23  6  2  0  0  0  0
 25 28  1  0  0  0  0
 25 37  1  0  0  0  0
 26 34  2  0  0  0  0
 27 32  1  0  0  0  0
 28 32  1  0  0  0  0
 28  1  1  1  0  0  0
 30 34  1  0  0  0  0
 31 24  1  6  0  0  0
 31 26  1  0  0  0  0
 33 25  2  0  0  0  0
 34 29  1  0  0  0  0
 35 37  1  1  0  0  0
 35 31  1  0  0  0  0
 35 30  1  0  0  0  0
 36 24  2  0  0  0  0
 36 33  1  0  0  0  0
 37 27  2  0  0  0  0
 38 48  1  0  0  0  0
 39 45  1  0  0  0  0
 40 38  1  0  0  0  0
 41 47  1  1  0  0  0
 41 53  1  0  0  0  0
 42 46  1  0  0  0  0
 43 40  1  0  0  0  0
 43 39  2  0  0  0  0
 44 45  1  6  0  0  0
 44 41  1  0  0  0  0
 46 47  1  0  0  0  0
 48 44  1  0  0  0  0
 48 42  1  6  0  0  0
 49 39  1  0  0  0  0
 50 51  1  6  0  0  0
 50 53  1  0  0  0  0
 50 55  1  0  0  0  0
 52 56  1  0  0  0  0
 53 54  1  1  0  0  0
 54 56  1  0  0  0  0
 55 51  1  6  0  0  0
 55 52  1  0  0  0  0
M  END
>  <MODEL>
1

>  <REMARK>
 VINA RESULT:     -10.2      0.000      0.000
  Name = 
  4 active torsions:
  status: ('A' for Active; 'I' for Inactive)
    1  A    between atoms: C_9  and  C_17
    2  A    between atoms: N_23  and  C_36
    3  A    between atoms: N_27  and  C_34
    4  A    between atoms: C_33  and  C_54
                            x       y       z     vdW  Elec       q    Type
                         _______ _______ _______ _____ _____    ______ ____

>  <TORSDO>
F 4

$$$$
=
 OpenBabel10232412173D

 56 67  0  0  1  0  0  0  0  0999 V2000
  191.7720  175.8500  136.8680 C   0  0  0  0  0  0  0  0  0  0  0  0
  191.9970  175.9550  138.2240 C   0  0  0  0  0  3  0  0  0  0  0  0
  191.1320  176.8510  138.7530 N   0  0  0  0  0  0  0  0  0  0  0  0
  190.7170  176.6790  136.5320 C   0  0  0  0  0  3  0  0  0  0  0  0
  190.3690  177.3050  137.7220 C   0  0  0  0  0  0  0  0  0  0  0  0
  187.8170  176.0610  137.2690 C   0  0  0  0  0  3  0  0  0  0  0  0
  184.5340  173.4040  137.9830 O   0  0  0  0  0  0  0  0  0  0  0  0
  185.3720  175.7110  136.9380 N   0  0  0  0  0  0  0  0  0  0  0  0
  184.7500  177.0470  136.9660 C   0  0  1  0  0  3  0  0  0  0  0  0
  185.6310  178.2300  136.6540 C   0  0  0  0  0  3  0  0  0  0  0  0
  182.5970  175.0670  137.0940 C   0  0  2  0  0  3  0  0  0  0  0  0
  181.3290  176.4220  138.5880 N   0  0  0  0  0  2  0  0  0  0  0  0
  182.4210  176.4410  136.4450 C   0  0  2  0  0  3  0  0  0  0  0  0
  188.2850  177.8150  139.0900 C   0  0  0  0  0  2  0  0  0  0  0  0
  182.2670  175.3000  138.5540 C   0  0  0  0  0  2  0  0  0  0  0  0
  183.6650  177.0770  135.9760 N   0  0  0  0  0  2  0  0  0  0  0  0
  181.7230  177.3020  137.4920 C   0  0  0  0  0  2  0  0  0  0  0  0
  184.2450  174.3960  136.8850 S   0  0  0  0  0  0  0  0  0  0  0  0
  184.3360  173.7120  135.5490 O   0  0  0  0  0  0  0  0  0  0  0  0
  186.8950  178.4480  136.9990 C   0  0  0  0  0  3  0  0  0  0  0  0
  187.7870  177.4920  137.7030 C   0  0  2  0  0  0  0  0  0  0  0  0
  189.1440  178.1830  137.8770 C   0  0  2  0  0  3  0  0  0  0  0  0
  186.7580  175.3170  136.9570 C   0  0  0  0  0  3  0  0  0  0  0  0
  196.3170  173.0240  137.7350 C   0  0  0  0  0  3  0  0  0  0  0  0
  193.6400  174.1900  136.6650 C   0  0  0  0  0  0  0  0  0  0  0  0
  195.7790  170.7710  138.4170 N   0  0  0  0  0  0  0  0  0  0  0  0
  192.3450  172.4900  135.6770 N   0  0  0  0  0  0  0  0  0  0  0  0
  192.4830  174.8590  136.0030 C   0  0  1  0  0  3  0  0  0  0  0  0
  195.8120  168.3840  138.0730 C   0  0  0  0  0  1  0  0  0  0  0  0
  194.0530  170.0600  136.5570 S   0  0  0  0  0  0  0  0  0  0  0  0
  195.2290  172.0510  138.0590 C   0  0  2  0  0  3  0  0  0  0  0  0
  191.5870  173.7230  135.4980 C   0  0  0  0  0  2  0  0  0  0  0  0
  194.7540  174.8610  136.9900 C   0  0  0  0  0  3  0  0  0  0  0  0
  195.2560  169.7450  137.8370 C   0  0  0  0  0  0  0  0  0  0  0  0
  194.3150  171.7990  136.9120 C   0  0  2  0  0  3  0  0  0  0  0  0
  196.0800  174.2770  137.3220 C   0  0  0  0  0  3  0  0  0  0  0  0
  193.5030  172.7570  136.4420 C   0  0  0  0  0  0  0  0  0  0  0  0
  189.4640  175.7070  141.5330 N   0  0  0  0  0  2  0  0  0  0  0  0
  191.8940  177.6200  140.9690 C   0  0  0  0  0  0  0  0  0  0  0  0
  189.6640  176.8470  140.7470 N   0  0  0  0  0  2  0  0  0  0  0  0
  190.8270  177.4180  144.7060 N   0  0  2  0  0  0  0  0  0  0  0  0
  190.5910  174.7790  143.5700 C   0  0  0  0  0  2  0  0  0  0  0  0
  190.9370  177.0940  140.1740 C   0  0  0  0  0  0  0  0  0  0  0  0
  190.4980  177.3790  143.2580 C   0  0  1  0  0  3  0  0  0  0  0  0
  191.7320  177.8610  142.4560 C   0  0  0  0  0  2  0  0  0  0  0  0
  191.9600  175.1990  144.0960 C   0  0  0  0  0  2  0  0  0  0  0  0
  191.8390  176.3830  145.0730 C   0  0  0  0  0  2  0  0  0  0  0  0
  189.9300  175.9750  142.8950 C   0  0  1  0  0  3  0  0  0  0  0  0
  193.1270  177.9870  140.4390 O   0  0  0  0  0  1  0  0  0  0  0  0
  188.4670  178.1710  144.9320 C   0  0  2  0  0  3  0  0  0  0  0  0
  187.3210  177.3170  144.4140 C   0  0  0  0  0  2  0  0  0  0  0  0
  187.2490  177.0890  146.9010 C   0  0  0  0  0  2  0  0  0  0  0  0
  189.5850  177.2740  145.4990 C   0  0  2  0  0  3  0  0  0  0  0  0
  189.7560  177.5920  147.0030 C   0  0  0  0  0  2  0  0  0  0  0  0
  187.1540  178.0650  145.7240 C   0  0  1  0  0  3  0  0  0  0  0  0
  188.4470  177.4120  147.7950 C   0  0  0  0  0  2  0  0  0  0  0  0
  1  2  2  0  0  0  0
  2  3  1  0  0  0  0
  3 43  1  0  0  0  0
  4  1  1  0  0  0  0
  4  5  2  0  0  0  0
  5  3  1  0  0  0  0
  6 21  1  0  0  0  0
  8 23  1  0  0  0  0
  8  9  1  0  0  0  0
  9 10  1  6  0  0  0
 10 20  2  0  0  0  0
 11 15  1  1  0  0  0
 13 11  1  0  0  0  0
 13 17  1  1  0  0  0
 15 12  1  0  0  0  0
 16 13  1  0  0  0  0
 16  9  1  0  0  0  0
 17 12  1  0  0  0  0
 18  8  1  0  0  0  0
 18 11  1  0  0  0  0
 18  7  2  0  0  0  0
 19 18  2  0  0  0  0
 21 20  1  6  0  0  0
 21 22  1  0  0  0  0
 21 14  1  0  0  0  0
 22  5  1  1  0  0  0
 22 14  1  0  0  0  0
 23  6  2  0  0  0  0
 25 33  2  0  0  0  0
 27 37  2  0  0  0  0
 28 25  1  0  0  0  0
 28  1  1  1  0  0  0
 30 35  1  0  0  0  0
 30 34  1  0  0  0  0
 31 24  1  6  0  0  0
 31 26  1  0  0  0  0
 32 27  1  0  0  0  0
 32 28  1  0  0  0  0
 33 36  1  0  0  0  0
 34 29  1  0  0  0  0
 34 26  2  0  0  0  0
 35 37  1  1  0  0  0
 35 31  1  0  0  0  0
 36 24  2  0  0  0  0
 37 25  1  0  0  0  0
 38 48  1  0  0  0  0
 39 45  1  0  0  0  0
 40 38  1  0  0  0  0
 41 47  1  1  0  0  0
 41 53  1  0  0  0  0
 42 46  1  0  0  0  0
 43 40  1  0  0  0  0
 43 39  2  0  0  0  0
 44 45  1  6  0  0  0
 44 41  1  0  0  0  0
 46 47  1  0  0  0  0
 48 44  1  0  0  0  0
 48 42  1  6  0  0  0
 49 39  1  0  0  0  0
 50 51  1  6  0  0  0
 50 53  1  0  0  0  0
 50 55  1  0  0  0  0
 52 56  1  0  0  0  0
 53 54  1  1  0  0  0
 54 56  1  0  0  0  0
 55 51  1  6  0  0  0
 55 52  1  0  0  0  0
M  END
>  <MODEL>
2

>  <REMARK>
 VINA RESULT:      -9.8      1.405      1.813
  Name = 
  4 active torsions:
  status: ('A' for Active; 'I' for Inactive)
    1  A    between atoms: C_9  and  C_17
    2  A    between atoms: N_23  and  C_36
    3  A    between atoms: N_27  and  C_34
    4  A    between atoms: C_33  and  C_54
                            x       y       z     vdW  Elec       q    Type
                         _______ _______ _______ _____ _____    ______ ____

>  <TORSDO>
F 4

$$$$
=
 OpenBabel10232412173D

 56 67  0  0  1  0  0  0  0  0999 V2000
  188.0560  176.1540  136.3910 C   0  0  0  0  0  0  0  0  0  0  0  0
  187.7590  176.3670  137.7200 C   0  0  0  0  0  3  0  0  0  0  0  0
  188.9070  176.5550  138.4100 N   0  0  0  0  0  0  0  0  0  0  0  0
  189.4270  176.2360  136.2270 C   0  0  0  0  0  3  0  0  0  0  0  0
  189.9210  176.4550  137.5080 C   0  0  0  0  0  0  0  0  0  0  0  0
  191.8390  174.3600  137.0620 C   0  0  0  0  0  3  0  0  0  0  0  0
  194.1650  171.5430  134.8240 O   0  0  0  0  0  0  0  0  0  0  0  0
  193.9610  173.0560  137.0120 N   0  0  0  0  0  0  0  0  0  0  0  0
  194.9760  173.8820  137.6930 C   0  0  1  0  0  3  0  0  0  0  0  0
  194.4840  174.9350  138.6530 C   0  0  0  0  0  3  0  0  0  0  0  0
  196.3730  171.6700  136.3780 C   0  0  2  0  0  3  0  0  0  0  0  0
  198.2210  173.0650  135.8140 N   0  0  0  0  0  2  0  0  0  0  0  0
  196.8800  172.3190  137.6670 C   0  0  2  0  0  3  0  0  0  0  0  0
  192.2410  176.8450  136.5400 C   0  0  0  0  0  2  0  0  0  0  0  0
  196.9790  172.5120  135.2740 C   0  0  0  0  0  2  0  0  0  0  0  0
  195.8490  172.9950  138.4750 N   0  0  0  0  0  2  0  0  0  0  0  0
  197.9680  173.2950  137.2330 C   0  0  0  0  0  2  0  0  0  0  0  0
  194.5850  171.6210  136.2690 S   0  0  0  0  0  0  0  0  0  0  0  0
  194.0780  170.4130  137.0080 O   0  0  0  0  0  0  0  0  0  0  0  0
  193.4250  175.7290  138.5540 C   0  0  0  0  0  3  0  0  0  0  0  0
  192.3910  175.6820  137.4880 C   0  0  2  0  0  0  0  0  0  0  0  0
  191.3710  176.7830  137.7980 C   0  0  2  0  0  3  0  0  0  0  0  0
  192.5420  173.2490  136.8530 C   0  0  0  0  0  3  0  0  0  0  0  0
  184.4870  172.1870  135.4260 C   0  0  0  0  0  3  0  0  0  0  0  0
  186.1240  174.8310  135.4930 C   0  0  0  0  0  0  0  0  0  0  0  0
  182.3230  172.7790  136.3180 N   0  0  0  0  0  0  0  0  0  0  0  0
  184.7070  176.6790  135.1490 N   0  0  0  0  0  0  0  0  0  0  0  0
  187.0030  176.0250  135.3370 C   0  0  1  0  0  3  0  0  0  0  0  0
  179.9820  173.2890  136.0460 C   0  0  0  0  0  1  0  0  0  0  0  0
  181.9920  175.1970  135.3250 S   0  0  0  0  0  0  0  0  0  0  0  0
  183.6910  173.2030  136.1820 C   0  0  2  0  0  3  0  0  0  0  0  0
  186.0540  177.2260  135.2610 C   0  0  0  0  0  2  0  0  0  0  0  0
  186.5880  173.5840  135.3290 C   0  0  0  0  0  3  0  0  0  0  0  0
  181.4250  173.6550  136.0220 C   0  0  0  0  0  0  0  0  0  0  0  0
  183.6460  174.5270  135.5050 C   0  0  2  0  0  3  0  0  0  0  0  0
  185.7800  172.3550  135.1140 C   0  0  0  0  0  3  0  0  0  0  0  0
  184.7450  175.2850  135.3780 C   0  0  0  0  0  0  0  0  0  0  0  0
  190.0960  175.6470  141.5060 N   0  0  0  0  0  2  0  0  0  0  0  0
  189.0620  178.2900  140.1550 C   0  0  0  0  0  0  0  0  0  0  0  0
  188.9310  176.0210  140.8290 N   0  0  0  0  0  2  0  0  0  0  0  0
  189.8630  178.6180  143.9500 N   0  0  2  0  0  0  0  0  0  0  0  0
  191.8580  176.9090  142.7640 C   0  0  0  0  0  2  0  0  0  0  0  0
  188.9960  176.9900  139.7950 C   0  0  0  0  0  0  0  0  0  0  0  0
  189.4020  177.8210  142.7840 C   0  0  1  0  0  3  0  0  0  0  0  0
  189.1830  178.7770  141.5850 C   0  0  0  0  0  2  0  0  0  0  0  0
  192.0910  178.4150  142.6960 C   0  0  0  0  0  2  0  0  0  0  0  0
  191.2410  179.1550  143.7450 C   0  0  0  0  0  2  0  0  0  0  0  0
  190.3750  176.6250  142.5600 C   0  0  1  0  0  3  0  0  0  0  0  0
  189.0180  179.2920  139.1900 O   0  0  0  0  0  1  0  0  0  0  0  0
  188.6970  178.3510  146.1300 C   0  0  2  0  0  3  0  0  0  0  0  0
  187.5730  177.3420  146.2970 C   0  0  0  0  0  2  0  0  0  0  0  0
  189.5360  176.3510  147.4820 C   0  0  0  0  0  2  0  0  0  0  0  0
  189.7730  177.7950  145.1770 C   0  0  2  0  0  3  0  0  0  0  0  0
  191.1050  177.6760  145.9550 C   0  0  0  0  0  2  0  0  0  0  0  0
  188.5660  177.5360  147.4280 C   0  0  1  0  0  3  0  0  0  0  0  0
  190.9740  176.7970  147.2140 C   0  0  0  0  0  2  0  0  0  0  0  0
  1  2  2  0  0  0  0
  2  3  1  0  0  0  0
  3 43  1  0  0  0  0
  4  1  1  0  0  0  0
  4  5  2  0  0  0  0
  5  3  1  0  0  0  0
  6 21  1  0  0  0  0
  7 18  2  0  0  0  0
  8  9  1  0  0  0  0
  9 16  1  0  0  0  0
  9 10  1  1  0  0  0
 11 15  1  6  0  0  0
 11 13  1  0  0  0  0
 12 17  1  0  0  0  0
 13 17  1  6  0  0  0
 13 16  1  0  0  0  0
 14 22  1  0  0  0  0
 15 12  1  0  0  0  0
 18 11  1  0  0  0  0
 18 19  2  0  0  0  0
 18  8  1  0  0  0  0
 20 10  2  0  0  0  0
 21 14  1  6  0  0  0
 21 22  1  0  0  0  0
 21 20  1  0  0  0  0
 22  5  1  6  0  0  0
 23  8  1  0  0  0  0
 23  6  2  0  0  0  0
 27 32  1  0  0  0  0
 27 37  2  0  0  0  0
 28 25  1  0  0  0  0
 28  1  1  1  0  0  0
 30 34  1  0  0  0  0
 31 24  1  6  0  0  0
 31 26  1  0  0  0  0
 32 28  1  0  0  0  0
 33 25  2  0  0  0  0
 34 29  1  0  0  0  0
 34 26  2  0  0  0  0
 35 30  1  1  0  0  0
 35 31  1  0  0  0  0
 36 33  1  0  0  0  0
 36 24  2  0  0  0  0
 37 25  1  0  0  0  0
 37 35  1  0  0  0  0
 38 48  1  0  0  0  0
 39 45  1  0  0  0  0
 40 38  1  0  0  0  0
 41 47  1  6  0  0  0
 41 53  1  0  0  0  0
 43 39  2  0  0  0  0
 43 40  1  0  0  0  0
 44 45  1  6  0  0  0
 44 41  1  0  0  0  0
 46 42  1  0  0  0  0
 46 47  1  0  0  0  0
 48 42  1  6  0  0  0
 48 44  1  0  0  0  0
 49 39  1  0  0  0  0
 50 51  1  6  0  0  0
 50 55  1  0  0  0  0
 53 54  1  1  0  0  0
 53 50  1  0  0  0  0
 54 56  1  0  0  0  0
 55 51  1  6  0  0  0
 55 52  1  0  0  0  0
 56 52  1  0  0  0  0
M  END
>  <MODEL>
3

>  <REMARK>
 VINA RESULT:      -9.3      2.473      9.025
  Name = 
  4 active torsions:
  status: ('A' for Active; 'I' for Inactive)
    1  A    between atoms: C_9  and  C_17
    2  A    between atoms: N_23  and  C_36
    3  A    between atoms: N_27  and  C_34
    4  A    between atoms: C_33  and  C_54
                            x       y       z     vdW  Elec       q    Type
                         _______ _______ _______ _____ _____    ______ ____

>  <TORSDO>
F 4

$$$$
=
 OpenBabel10232412173D

 56 67  0  0  1  0  0  0  0  0999 V2000
  189.6460  177.7510  140.4990 C   0  0  0  0  0  0  0  0  0  0  0  0
  190.7600  177.0620  140.0700 C   0  0  0  0  0  3  0  0  0  0  0  0
  190.4920  176.4740  138.8810 N   0  0  0  0  0  0  0  0  0  0  0  0
  188.6530  177.6220  139.5440 C   0  0  0  0  0  3  0  0  0  0  0  0
  189.2070  176.7970  138.5720 C   0  0  0  0  0  0  0  0  0  0  0  0
  186.3640  177.2010  138.4310 C   0  0  0  0  0  3  0  0  0  0  0  0
  182.6760  179.3810  138.4560 O   0  0  0  0  0  0  0  0  0  0  0  0
  184.0070  177.2240  137.6240 N   0  0  0  0  0  0  0  0  0  0  0  0
  184.0080  176.5600  136.3070 C   0  0  1  0  0  3  0  0  0  0  0  0
  185.1490  175.6210  136.0040 C   0  0  0  0  0  3  0  0  0  0  0  0
  181.3930  177.8300  136.6530 C   0  0  2  0  0  3  0  0  0  0  0  0
  181.2850  178.4210  134.3470 N   0  0  0  0  0  2  0  0  0  0  0  0
  181.5920  176.5540  135.8320 C   0  0  2  0  0  3  0  0  0  0  0  0
  188.0170  177.7720  136.5460 C   0  0  0  0  0  2  0  0  0  0  0  0
  181.6400  178.9500  135.6630 C   0  0  0  0  0  2  0  0  0  0  0  0
  182.7820  175.7600  136.1870 N   0  0  0  0  0  2  0  0  0  0  0  0
  181.6460  177.0070  134.3770 C   0  0  0  0  0  2  0  0  0  0  0  0
  182.4910  177.9370  138.0640 S   0  0  0  0  0  0  0  0  0  0  0  0
  181.8940  177.1750  139.2150 O   0  0  0  0  0  0  0  0  0  0  0  0
  186.4340  175.7360  136.3170 C   0  0  0  0  0  3  0  0  0  0  0  0
  187.0380  176.8000  137.1580 C   0  0  2  0  0  0  0  0  0  0  0  0
  188.5410  176.5130  137.2410 C   0  0  2  0  0  3  0  0  0  0  0  0
  185.0560  177.3870  138.5970 C   0  0  0  0  0  3  0  0  0  0  0  0
  186.1010  178.0620  144.5900 C   0  0  0  0  0  3  0  0  0  0  0  0
  188.5520  178.2940  142.6880 C   0  0  0  0  0  0  0  0  0  0  0  0
  186.9130  176.8130  146.4910 N   0  0  0  0  0  0  0  0  0  0  0  0
  190.5470  178.4000  143.9350 N   0  0  0  0  0  0  0  0  0  0  0  0
  189.6450  178.6070  141.7250 C   0  0  1  0  0  3  0  0  0  0  0  0
  187.6770  176.6800  148.7740 C   0  0  0  0  0  1  0  0  0  0  0  0
  189.3650  177.7480  146.7240 S   0  0  0  0  0  0  0  0  0  0  0  0
  187.1870  177.1860  145.1290 C   0  0  2  0  0  3  0  0  0  0  0  0
  190.9430  178.5260  142.5360 C   0  0  0  0  0  2  0  0  0  0  0  0
  187.2640  178.5290  142.3980 C   0  0  0  0  0  3  0  0  0  0  0  0
  187.8840  176.9550  147.3260 C   0  0  0  0  0  0  0  0  0  0  0  0
  188.5180  177.8530  145.1460 C   0  0  2  0  0  3  0  0  0  0  0  0
  186.1320  178.5940  143.3610 C   0  0  0  0  0  3  0  0  0  0  0  0
  189.1530  178.1730  144.0090 C   0  0  0  0  0  0  0  0  0  0  0  0
  193.8630  176.2280  138.2500 N   0  0  0  0  0  2  0  0  0  0  0  0
  191.2870  174.5830  137.5120 C   0  0  0  0  0  0  0  0  0  0  0  0
  192.6370  176.5270  137.6440 N   0  0  0  0  0  2  0  0  0  0  0  0
  194.5590  173.3030  135.8390 N   0  0  2  0  0  0  0  0  0  0  0  0
  195.1980  174.1260  138.5260 C   0  0  0  0  0  2  0  0  0  0  0  0
  191.4700  175.8190  138.0270 C   0  0  0  0  0  0  0  0  0  0  0  0
  193.7220  174.4050  136.3790 C   0  0  1  0  0  3  0  0  0  0  0  0
  192.2960  173.8620  136.6430 C   0  0  0  0  0  2  0  0  0  0  0  0
  194.6710  172.7070  138.3310 C   0  0  0  0  0  2  0  0  0  0  0  0
  194.8290  172.2550  136.8670 C   0  0  0  0  0  2  0  0  0  0  0  0
  194.4550  175.0660  137.5840 C   0  0  1  0  0  3  0  0  0  0  0  0
  190.1110  173.8830  137.7620 O   0  0  0  0  0  1  0  0  0  0  0  0
  197.0350  173.3440  136.0680 C   0  0  2  0  0  3  0  0  0  0  0  0
  197.9180  172.4980  135.1640 C   0  0  0  0  0  2  0  0  0  0  0  0
  198.1820  174.8440  134.3460 C   0  0  0  0  0  2  0  0  0  0  0  0
  195.8140  173.8610  135.2850 C   0  0  2  0  0  3  0  0  0  0  0  0
  195.8610  175.4080  135.2650 C   0  0  0  0  0  2  0  0  0  0  0  0
  198.3670  173.8990  135.5380 C   0  0  1  0  0  3  0  0  0  0  0  0
  197.1730  175.9470  134.6640 C   0  0  0  0  0  2  0  0  0  0  0  0
  2  1  2  0  0  0  0
  3  2  1  0  0  0  0
  4  1  1  0  0  0  0
  5  3  1  0  0  0  0
  5  4  2  0  0  0  0
  6 23  2  0  0  0  0
  8 18  1  0  0  0  0
  8 23  1  0  0  0  0
  9 10  1  1  0  0  0
  9  8  1  0  0  0  0
 10 20  2  0  0  0  0
 11 15  1  6  0  0  0
 11 18  1  0  0  0  0
 12 17  1  0  0  0  0
 12 15  1  0  0  0  0
 13 17  1  6  0  0  0
 13 16  1  0  0  0  0
 13 11  1  0  0  0  0
 14 21  1  0  0  0  0
 14 22  1  0  0  0  0
 16  9  1  0  0  0  0
 18  7  2  0  0  0  0
 18 19  2  0  0  0  0
 21 20  1  6  0  0  0
 21 22  1  0  0  0  0
 21  6  1  0  0  0  0
 22  5  1  1  0  0  0
 25 37  1  0  0  0  0
 26 34  2  0  0  0  0
 27 37  2  0  0  0  0
 28  1  1  6  0  0  0
 28 32  1  0  0  0  0
 28 25  1  0  0  0  0
 30 34  1  0  0  0  0
 31 24  1  1  0  0  0
 31 35  1  0  0  0  0
 31 26  1  0  0  0  0
 32 27  1  0  0  0  0
 33 25  2  0  0  0  0
 33 36  1  0  0  0  0
 34 29  1  0  0  0  0
 35 37  1  6  0  0  0
 35 30  1  0  0  0  0
 36 24  2  0  0  0  0
 39 49  1  0  0  0  0
 39 43  2  0  0  0  0
 40 43  1  0  0  0  0
 40 38  1  0  0  0  0
 41 44  1  0  0  0  0
 41 47  1  1  0  0  0
 43  3  1  0  0  0  0
 44 45  1  1  0  0  0
 44 48  1  0  0  0  0
 45 39  1  0  0  0  0
 46 42  1  0  0  0  0
 47 46  1  0  0  0  0
 48 38  1  0  0  0  0
 48 42  1  1  0  0  0
 50 51  1  6  0  0  0
 51 55  1  0  0  0  0
 52 56  1  0  0  0  0
 53 54  1  1  0  0  0
 53 41  1  0  0  0  0
 53 50  1  0  0  0  0
 55 52  1  6  0  0  0
 55 50  1  0  0  0  0
 56 54  1  0  0  0  0
M  END
>  <MODEL>
4

>  <REMARK>
 VINA RESULT:      -7.3      2.893      9.069
  Name = 
  4 active torsions:
  status: ('A' for Active; 'I' for Inactive)
    1  A    between atoms: C_9  and  C_17
    2  A    between atoms: N_23  and  C_36
    3  A    between atoms: N_27  and  C_34
    4  A    between atoms: C_33  and  C_54
                            x       y       z     vdW  Elec       q    Type
                         _______ _______ _______ _____ _____    ______ ____

>  <TORSDO>
F 4

$$$$
