=
 OpenBabel10232410513D

 65 72  0  0  1  0  0  0  0  0999 V2000
  188.7090  176.7590  138.0290 C   0  0  2  0  0  3  0  0  0  0  0  0
  189.1980  177.4220  140.4680 C   0  0  0  0  0  0  0  0  0  0  0  0
  191.4560  177.3300  141.2920 N   0  0  0  0  0  0  0  0  0  0  0  0
  187.8380  177.6090  140.6890 O   0  0  0  0  0  1  0  0  0  0  0  0
  192.0180  177.4100  139.9370 C   0  0  0  0  0  2  0  0  0  0  0  0
  190.0480  177.5090  141.4920 C   0  0  0  0  0  3  0  0  0  0  0  0
  191.0130  177.0120  138.8910 C   0  0  0  0  0  3  0  0  0  0  0  0
  189.6940  177.0920  139.1170 C   0  0  0  0  0  0  0  0  0  0  0  0
  192.2990  177.2830  142.4880 C   0  0  0  0  0  2  0  0  0  0  0  0
  191.5100  177.2440  143.7930 C   0  0  0  0  0  2  0  0  0  0  0  0
  191.9200  176.1670  144.5790 O   0  0  0  0  0  0  0  0  0  0  0  0
  191.4350  176.4640  145.8530 C   0  0  0  0  0  2  0  0  0  0  0  0
  187.3180  178.5150  147.8860 C   0  0  0  0  0  2  0  0  0  0  0  0
  185.9760  177.5220  145.4600 C   0  0  0  0  0  2  0  0  0  0  0  0
  185.9690  179.1040  147.4800 C   0  0  0  0  0  2  0  0  0  0  0  0
  188.0310  177.9710  146.7260 N   0  0  0  0  0  0  0  0  0  0  0  0
  185.1800  178.0930  146.6460 C   0  0  0  0  0  2  0  0  0  0  0  0
  189.9350  177.5190  148.0040 O   0  0  0  0  0  0  0  0  0  0  0  0
  189.3670  177.4720  146.8780 C   0  0  0  0  0  0  0  0  0  0  0  0
  187.4180  178.0210  145.3980 C   0  0  0  0  0  2  0  0  0  0  0  0
  190.0560  176.9120  145.7570 N   0  0  0  0  0  2  0  0  0  0  0  0
  189.2520  177.1670  136.6690 C   0  0  0  0  0  2  0  0  0  0  0  0
  189.7090  176.2820  134.4440 O   0  0  0  0  0  0  0  0  0  0  0  0
  193.1570  175.8570  135.4810 C   0  0  0  0  0  1  0  0  0  0  0  0
  191.9630  175.3820  134.6550 C   0  0  2  0  0  3  0  0  0  0  0  0
  191.0820  176.6020  134.3480 C   0  0  0  0  0  2  0  0  0  0  0  0
  190.3720  174.9190  136.3930 C   0  0  0  0  0  2  0  0  0  0  0  0
  191.1700  174.3290  135.3230 N   0  0  0  0  0  0  0  0  0  0  0  0
  189.3930  175.9350  135.7860 C   0  0  1  0  0  3  0  0  0  0  0  0
  192.0180  173.2860  135.8880 C   0  0  0  0  0  2  0  0  0  0  0  0
  192.0180  170.8130  135.0460 O   0  0  0  0  0  0  0  0  0  0  0  0
  192.5500  172.1630  134.5830 S   0  0  2  0  0  0  0  0  0  0  0  0
  194.3300  172.0420  134.8500 C   0  0  0  0  0  2  0  0  0  0  0  0
  194.9350  172.0240  137.3230 C   0  0  2  0  0  3  0  0  0  0  0  0
  194.7530  172.8670  136.0570 C   0  0  1  0  0  3  0  0  0  0  0  0
  195.9060  173.8210  135.6890 C   0  0  1  0  0  3  0  0  0  0  0  0
  196.7390  173.5290  138.1600 C   0  0  2  0  0  3  0  0  0  0  0  0
  197.0810  174.4350  139.1630 O   0  0  0  0  0  1  0  0  0  0  0  0
  196.8440  174.2170  136.7920 C   0  0  1  0  0  3  0  0  0  0  0  0
  197.1710  173.2230  135.8400 O   0  0  0  0  0  0  0  0  0  0  0  0
  195.3690  172.9380  138.4570 C   0  0  0  0  0  2  0  0  0  0  0  0
  195.8690  170.9990  137.1200 O   0  0  0  0  0  0  0  0  0  0  0  0
  194.3130  169.2580  137.5570 C   0  0  0  0  0  1  0  0  0  0  0  0
  195.5300  170.0100  138.0470 C   0  0  0  0  0  2  0  0  0  0  0  0
  187.3470  177.3940  138.2580 C   0  0  0  0  0  2  0  0  0  0  0  0
  186.5590  177.4450  136.9590 C   0  0  0  0  0  2  0  0  0  0  0  0
  184.4720  174.1900  137.4230 C   0  0  0  0  0  0  0  0  0  0  0  0
  183.3340  174.6950  137.9130 C   0  0  0  0  0  3  0  0  0  0  0  0
  182.9920  176.1510  137.7360 C   0  0  2  0  0  3  0  0  0  0  0  0
  184.1940  176.9990  137.5440 C   0  0  0  0  0  0  0  0  0  0  0  0
  186.5210  174.6260  136.2820 O   0  0  0  0  0  0  0  0  0  0  0  0
  184.5570  179.3000  138.1100 O   0  0  0  0  0  0  0  0  0  0  0  0
  182.6290  178.0470  138.9470 C   0  0  1  0  0  3  0  0  0  0  0  0
  185.5030  175.0960  136.8550 C   0  0  0  0  0  0  0  0  0  0  0  0
  183.8880  178.2340  138.1830 C   0  0  0  0  0  0  0  0  0  0  0  0
  185.3610  176.5540  137.0580 C   0  0  0  0  0  0  0  0  0  0  0  0
  184.7330  172.7300  137.5470 C   0  0  0  0  0  1  0  0  0  0  0  0
  182.2660  176.6760  138.8340 O   0  0  0  0  0  0  0  0  0  0  0  0
  183.8490  178.9620  142.2990 C   0  0  0  0  0  0  0  0  0  0  0  0
  182.7960  178.4040  140.3920 C   0  0  0  0  0  0  0  0  0  0  0  0
  185.0150  179.3630  143.1400 C   0  0  0  0  0  1  0  0  0  0  0  0
  182.5600  178.7980  142.7960 C   0  0  0  0  0  0  0  0  0  0  0  0
  181.5520  178.3550  141.5250 S   0  0  0  0  0  0  0  0  0  0  0  0
  182.1240  178.9790  144.2090 C   0  0  0  0  0  1  0  0  0  0  0  0
  183.9790  178.7360  140.9650 N   0  0  0  0  0  0  0  0  0  0  0  0
  1 22  1  6  0  0  0
  1 45  1  0  0  0  0
  1  8  1  0  0  0  0
  2  4  1  0  0  0  0
  2  6  2  0  0  0  0
  3  6  1  0  0  0  0
  3  9  1  0  0  0  0
  5  3  1  0  0  0  0
  7  8  2  0  0  0  0
  7  5  1  0  0  0  0
  8  2  1  0  0  0  0
  9 10  1  0  0  0  0
 10 11  1  0  0  0  0
 11 12  1  0  0  0  0
 14 17  1  0  0  0  0
 15 13  1  0  0  0  0
 16 19  1  0  0  0  0
 16 13  1  0  0  0  0
 17 15  1  0  0  0  0
 19 18  2  0  0  0  0
 20 14  1  0  0  0  0
 20 16  1  0  0  0  0
 21 12  1  0  0  0  0
 21 19  1  0  0  0  0
 23 29  1  0  0  0  0
 25 28  1  0  0  0  0
 25 24  1  1  0  0  0
 26 23  1  0  0  0  0
 26 25  1  0  0  0  0
 28 30  1  0  0  0  0
 28 27  1  0  0  0  0
 29 27  1  0  0  0  0
 29 22  1  1  0  0  0
 32 33  1  0  0  0  0
 32 31  2  1  0  0  0
 32 30  1  0  0  0  0
 34 42  1  6  0  0  0
 34 41  1  0  0  0  0
 35 33  1  6  0  0  0
 35 34  1  0  0  0  0
 36 40  1  6  0  0  0
 36 35  1  0  0  0  0
 36 39  1  0  0  0  0
 37 41  1  0  0  0  0
 37 38  1  1  0  0  0
 39 40  1  6  0  0  0
 39 37  1  0  0  0  0
 42 44  1  0  0  0  0
 43 44  1  0  0  0  0
 46 56  1  0  0  0  0
 46 45  1  0  0  0  0
 47 57  1  0  0  0  0
 47 48  2  0  0  0  0
 49 48  1  1  0  0  0
 49 58  1  0  0  0  0
 50 49  1  0  0  0  0
 50 55  1  0  0  0  0
 51 54  2  0  0  0  0
 52 55  2  0  0  0  0
 53 60  1  1  0  0  0
 54 56  1  0  0  0  0
 54 47  1  0  0  0  0
 55 53  1  0  0  0  0
 56 50  2  0  0  0  0
 58 53  1  0  0  0  0
 59 62  2  0  0  0  0
 59 61  1  0  0  0  0
 60 65  2  0  0  0  0
 60 63  1  0  0  0  0
 62 64  1  0  0  0  0
 63 62  1  0  0  0  0
 65 59  1  0  0  0  0
M  END
>  <MODEL>
1

>  <REMARK>
 VINA RESULT:      -7.8      0.000      0.000
  Name = 
  18 active torsions:
  status: ('A' for Active; 'I' for Inactive)
    1  A    between atoms: C_1  and  O_34
    2  A    between atoms: C_2  and  S_30
    3  A    between atoms: C_2  and  N_46
    4  A    between atoms: C_3  and  C_41
    5  A    between atoms: C_3  and  O_47
    6  A    between atoms: C_10  and  C_40
    7  A    between atoms: C_13  and  C_28
    8  A    between atoms: C_13  and  C_59
    9  A    between atoms: N_15  and  C_41
   10  A    between atoms: C_20  and  C_52
   11  A    between atoms: C_25  and  O_47
   12  A    between atoms: C_25  and  N_63
   13  A    between atoms: C_28  and  C_32
   14  A    between atoms: C_28  and  C_65
   15  A    between atoms: S_30  and  C_52
   16  A    between atoms: C_32  and  C_62
   17  A    between atoms: O_34  and  C_36
   18  A    between atoms: C_56  and  C_59
                            x       y       z     vdW  Elec       q    Type
                         _______ _______ _______ _____ _____    ______ ____

>  <TORSDO>
F 18

$$$$
=
 OpenBabel10232410513D

 65 72  0  0  1  0  0  0  0  0999 V2000
  187.2710  177.6600  136.8810 C   0  0  2  0  0  3  0  0  0  0  0  0
  189.0860  176.8070  135.2670 C   0  0  0  0  0  0  0  0  0  0  0  0
  189.2830  174.4470  134.8460 N   0  0  0  0  0  0  0  0  0  0  0  0
  189.5610  178.1050  135.1160 O   0  0  0  0  0  1  0  0  0  0  0  0
  187.8980  174.1940  135.2660 C   0  0  0  0  0  2  0  0  0  0  0  0
  189.7550  175.7940  134.7130 C   0  0  0  0  0  3  0  0  0  0  0  0
  187.3640  175.3080  136.1240 C   0  0  0  0  0  3  0  0  0  0  0  0
  187.8720  176.5470  136.0660 C   0  0  0  0  0  0  0  0  0  0  0  0
  190.1560  173.3830  134.3470 C   0  0  0  0  0  2  0  0  0  0  0  0
  191.6090  173.5240  134.7900 C   0  0  0  0  0  2  0  0  0  0  0  0
  191.7260  173.2990  136.1610 O   0  0  0  0  0  0  0  0  0  0  0  0
  192.6120  174.2830  136.5990 C   0  0  0  0  0  2  0  0  0  0  0  0
  197.5780  174.6370  137.3080 C   0  0  0  0  0  2  0  0  0  0  0  0
  197.5270  171.7010  137.0970 C   0  0  0  0  0  2  0  0  0  0  0  0
  198.7540  173.8250  137.8450 C   0  0  0  0  0  2  0  0  0  0  0  0
  196.3450  173.8430  137.2980 N   0  0  0  0  0  0  0  0  0  0  0  0
  198.8500  172.4850  137.1150 C   0  0  0  0  0  2  0  0  0  0  0  0
  195.0660  175.6860  136.6410 O   0  0  0  0  0  0  0  0  0  0  0  0
  195.1020  174.4590  136.9340 C   0  0  0  0  0  0  0  0  0  0  0  0
  196.3650  172.4500  137.7470 C   0  0  0  0  0  2  0  0  0  0  0  0
  193.9020  173.6820  136.8910 N   0  0  0  0  0  2  0  0  0  0  0  0
  188.2780  178.1960  137.8850 C   0  0  0  0  0  2  0  0  0  0  0  0
  189.0030  176.0390  138.7600 O   0  0  0  0  0  0  0  0  0  0  0  0
  192.0020  177.6940  139.9480 C   0  0  0  0  0  1  0  0  0  0  0  0
  190.9370  176.6140  140.1260 C   0  0  2  0  0  3  0  0  0  0  0  0
  190.4020  176.2400  138.7360 C   0  0  0  0  0  2  0  0  0  0  0  0
  188.9590  177.9630  140.3060 C   0  0  0  0  0  2  0  0  0  0  0  0
  189.8270  177.0260  141.0120 N   0  0  0  0  0  0  0  0  0  0  0  0
  188.3510  177.2600  139.0830 C   0  0  1  0  0  3  0  0  0  0  0  0
  190.3130  177.6600  142.2320 C   0  0  0  0  0  2  0  0  0  0  0  0
  190.1780  175.1420  142.9130 O   0  0  0  0  0  0  0  0  0  0  0  0
  190.9010  176.4000  143.3780 S   0  0  2  0  0  0  0  0  0  0  0  0
  190.0690  176.8320  144.9190 C   0  0  0  0  0  2  0  0  0  0  0  0
  190.4250  177.4430  147.3640 C   0  0  2  0  0  3  0  0  0  0  0  0
  191.0810  177.0760  146.0300 C   0  0  1  0  0  3  0  0  0  0  0  0
  192.1380  175.9550  146.0630 C   0  0  1  0  0  3  0  0  0  0  0  0
  192.2560  176.3460  148.6550 C   0  0  2  0  0  3  0  0  0  0  0  0
  193.3110  176.5740  149.5360 O   0  0  0  0  0  1  0  0  0  0  0  0
  192.7870  175.6670  147.3850 C   0  0  1  0  0  3  0  0  0  0  0  0
  191.7450  174.8660  146.8630 O   0  0  0  0  0  0  0  0  0  0  0  0
  191.5160  177.6520  148.4000 C   0  0  0  0  0  2  0  0  0  0  0  0
  189.5250  176.4520  147.7770 O   0  0  0  0  0  0  0  0  0  0  0  0
  187.8770  177.9770  148.5530 C   0  0  0  0  0  1  0  0  0  0  0  0
  188.2590  176.9690  147.4920 C   0  0  0  0  0  2  0  0  0  0  0  0
  185.9950  177.2410  137.5950 C   0  0  0  0  0  2  0  0  0  0  0  0
  184.8730  178.2220  137.2990 C   0  0  0  0  0  2  0  0  0  0  0  0
  182.0570  175.6810  138.1830 C   0  0  0  0  0  0  0  0  0  0  0  0
  181.5520  176.2470  139.2850 C   0  0  0  0  0  3  0  0  0  0  0  0
  181.7950  177.7020  139.5900 C   0  0  2  0  0  3  0  0  0  0  0  0
  183.0290  178.2200  138.9530 C   0  0  0  0  0  0  0  0  0  0  0  0
  183.4040  175.9590  136.2340 O   0  0  0  0  0  0  0  0  0  0  0  0
  184.5020  179.9760  139.6560 O   0  0  0  0  0  0  0  0  0  0  0  0
  182.7900  179.0470  141.1370 C   0  0  1  0  0  3  0  0  0  0  0  0
  183.0170  176.4320  137.3350 C   0  0  0  0  0  0  0  0  0  0  0  0
  183.5580  179.1690  139.8730 C   0  0  0  0  0  0  0  0  0  0  0  0
  183.5840  177.6980  137.8490 C   0  0  0  0  0  0  0  0  0  0  0  0
  181.7250  174.2630  137.8760 C   0  0  0  0  0  1  0  0  0  0  0  0
  181.8900  177.9560  140.9810 O   0  0  0  0  0  0  0  0  0  0  0  0
  185.4750  178.0520  143.4530 C   0  0  0  0  0  0  0  0  0  0  0  0
  183.6860  178.7940  142.3110 C   0  0  0  0  0  0  0  0  0  0  0  0
  186.8280  177.4430  143.6120 C   0  0  0  0  0  1  0  0  0  0  0  0
  184.7070  178.5130  144.5180 C   0  0  0  0  0  0  0  0  0  0  0  0
  183.2660  179.1270  143.9060 S   0  0  0  0  0  0  0  0  0  0  0  0
  185.0770  178.4780  145.9600 C   0  0  0  0  0  1  0  0  0  0  0  0
  184.9030  178.2030  142.2300 N   0  0  0  0  0  0  0  0  0  0  0  0
  1 45  1  1  0  0  0
  1 22  1  0  0  0  0
  2  8  1  0  0  0  0
  3  5  1  0  0  0  0
  4  2  1  0  0  0  0
  5  7  1  0  0  0  0
  6  3  1  0  0  0  0
  6  2  2  0  0  0  0
  8  7  2  0  0  0  0
  8  1  1  0  0  0  0
  9 10  1  0  0  0  0
  9  3  1  0  0  0  0
 10 11  1  0  0  0  0
 11 12  1  0  0  0  0
 12 21  1  0  0  0  0
 13 15  1  0  0  0  0
 14 17  1  0  0  0  0
 14 20  1  0  0  0  0
 16 13  1  0  0  0  0
 16 20  1  0  0  0  0
 17 15  1  0  0  0  0
 18 19  2  0  0  0  0
 19 16  1  0  0  0  0
 21 19  1  0  0  0  0
 23 29  1  0  0  0  0
 25 24  1  6  0  0  0
 25 28  1  0  0  0  0
 26 23  1  0  0  0  0
 26 25  1  0  0  0  0
 27 28  1  0  0  0  0
 28 30  1  0  0  0  0
 29 22  1  6  0  0  0
 29 27  1  0  0  0  0
 30 32  1  0  0  0  0
 32 31  2  6  0  0  0
 32 33  1  0  0  0  0
 34 42  1  1  0  0  0
 34 41  1  0  0  0  0
 35 33  1  6  0  0  0
 35 36  1  0  0  0  0
 35 34  1  0  0  0  0
 36 40  1  1  0  0  0
 36 39  1  0  0  0  0
 37 38  1  1  0  0  0
 39 40  1  1  0  0  0
 39 37  1  0  0  0  0
 41 37  1  0  0  0  0
 44 42  1  0  0  0  0
 44 43  1  0  0  0  0
 46 45  1  0  0  0  0
 46 56  1  0  0  0  0
 47 48  2  0  0  0  0
 49 48  1  1  0  0  0
 49 58  1  0  0  0  0
 50 49  1  0  0  0  0
 50 55  1  0  0  0  0
 51 54  2  0  0  0  0
 52 55  2  0  0  0  0
 53 60  1  1  0  0  0
 54 56  1  0  0  0  0
 54 47  1  0  0  0  0
 55 53  1  0  0  0  0
 56 50  2  0  0  0  0
 57 47  1  0  0  0  0
 58 53  1  0  0  0  0
 59 61  1  0  0  0  0
 59 62  2  0  0  0  0
 60 63  1  0  0  0  0
 62 64  1  0  0  0  0
 63 62  1  0  0  0  0
 65 60  2  0  0  0  0
 65 59  1  0  0  0  0
M  END
>  <MODEL>
2

>  <REMARK>
 VINA RESULT:      -7.7      2.456      8.619
  Name = 
  18 active torsions:
  status: ('A' for Active; 'I' for Inactive)
    1  A    between atoms: C_1  and  O_34
    2  A    between atoms: C_2  and  S_30
    3  A    between atoms: C_2  and  N_46
    4  A    between atoms: C_3  and  C_41
    5  A    between atoms: C_3  and  O_47
    6  A    between atoms: C_10  and  C_40
    7  A    between atoms: C_13  and  C_28
    8  A    between atoms: C_13  and  C_59
    9  A    between atoms: N_15  and  C_41
   10  A    between atoms: C_20  and  C_52
   11  A    between atoms: C_25  and  O_47
   12  A    between atoms: C_25  and  N_63
   13  A    between atoms: C_28  and  C_32
   14  A    between atoms: C_28  and  C_65
   15  A    between atoms: S_30  and  C_52
   16  A    between atoms: C_32  and  C_62
   17  A    between atoms: O_34  and  C_36
   18  A    between atoms: C_56  and  C_59
                            x       y       z     vdW  Elec       q    Type
                         _______ _______ _______ _____ _____    ______ ____

>  <TORSDO>
F 18

$$$$
=
 OpenBabel10232410513D

 65 72  0  0  1  0  0  0  0  0999 V2000
  189.2600  177.6900  137.9530 C   0  0  2  0  0  3  0  0  0  0  0  0
  190.4590  176.6510  139.9800 C   0  0  0  0  0  0  0  0  0  0  0  0
  190.3460  177.7510  142.1160 N   0  0  0  0  0  0  0  0  0  0  0  0
  190.9670  175.6470  139.1640 O   0  0  0  0  0  1  0  0  0  0  0  0
  189.1280  178.4820  141.7440 C   0  0  0  0  0  2  0  0  0  0  0  0
  190.8600  176.7310  141.2500 C   0  0  0  0  0  3  0  0  0  0  0  0
  188.9510  178.5480  140.2510 C   0  0  0  0  0  3  0  0  0  0  0  0
  189.5120  177.6450  139.4360 C   0  0  0  0  0  0  0  0  0  0  0  0
  190.9540  177.8670  143.4430 C   0  0  0  0  0  2  0  0  0  0  0  0
  191.0030  176.5510  144.2120 C   0  0  0  0  0  2  0  0  0  0  0  0
  191.7750  176.6880  145.3660 O   0  0  0  0  0  0  0  0  0  0  0  0
  190.8650  176.5290  146.4110 C   0  0  0  0  0  2  0  0  0  0  0  0
  186.4000  178.5830  147.4710 C   0  0  0  0  0  2  0  0  0  0  0  0
  185.6940  177.7580  144.7340 C   0  0  0  0  0  2  0  0  0  0  0  0
  185.2030  179.2300  146.7770 C   0  0  0  0  0  2  0  0  0  0  0  0
  187.3730  178.0820  146.4960 N   0  0  0  0  0  0  0  0  0  0  0  0
  184.6340  178.2880  145.7160 C   0  0  0  0  0  2  0  0  0  0  0  0
  188.8890  177.5090  148.1800 O   0  0  0  0  0  0  0  0  0  0  0  0
  188.6220  177.5390  146.9460 C   0  0  0  0  0  0  0  0  0  0  0  0
  187.1130  178.2190  145.0620 C   0  0  0  0  0  2  0  0  0  0  0  0
  189.5610  177.0190  146.0020 N   0  0  0  0  0  2  0  0  0  0  0  0
  188.1140  176.7660  137.5750 C   0  0  0  0  0  2  0  0  0  0  0  0
  186.7600  178.4780  136.4880 O   0  0  0  0  0  0  0  0  0  0  0  0
  185.1020  175.8100  134.6770 C   0  0  0  0  0  1  0  0  0  0  0  0
  185.0430  177.1850  135.3410 C   0  0  2  0  0  3  0  0  0  0  0  0
  186.4500  177.7980  135.2890 C   0  0  0  0  0  2  0  0  0  0  0  0
  185.5930  176.6110  137.6070 C   0  0  0  0  0  2  0  0  0  0  0  0
  184.5510  177.1420  136.7340 N   0  0  0  0  0  0  0  0  0  0  0  0
  186.8090  177.5490  137.5630 C   0  0  1  0  0  3  0  0  0  0  0  0
  183.3590  176.3120  136.8640 C   0  0  0  0  0  2  0  0  0  0  0  0
  182.2730  177.7080  134.9410 O   0  0  0  0  0  0  0  0  0  0  0  0
  181.9090  177.2480  136.3460 S   0  0  2  0  0  0  0  0  0  0  0  0
  182.0210  178.7520  137.3360 C   0  0  0  0  0  2  0  0  0  0  0  0
  182.2130  178.1500  139.8020 C   0  0  2  0  0  3  0  0  0  0  0  0
  181.2890  178.5840  138.6600 C   0  0  1  0  0  3  0  0  0  0  0  0
  180.3700  179.7900  138.9330 C   0  0  1  0  0  3  0  0  0  0  0  0
  180.8460  179.3870  141.4820 C   0  0  2  0  0  3  0  0  0  0  0  0
  180.0190  179.2410  142.5940 O   0  0  0  0  0  1  0  0  0  0  0  0
  180.0850  180.1210  140.3700 C   0  0  1  0  0  3  0  0  0  0  0  0
  181.0350  180.8340  139.6030 O   0  0  0  0  0  0  0  0  0  0  0  0
  181.3890  178.0260  141.0730 C   0  0  0  0  0  2  0  0  0  0  0  0
  183.2670  179.0570  139.9750 O   0  0  0  0  0  0  0  0  0  0  0  0
  185.1850  179.2130  141.3670 C   0  0  0  0  0  1  0  0  0  0  0  0
  184.3030  178.3070  140.5360 C   0  0  0  0  0  2  0  0  0  0  0  0
  190.4960  177.3460  137.1370 C   0  0  0  0  0  2  0  0  0  0  0  0
  190.1000  176.7960  135.7770 C   0  0  0  0  0  2  0  0  0  0  0  0
  192.3160  173.6690  136.4680 C   0  0  0  0  0  0  0  0  0  0  0  0
  191.6130  172.7240  135.8320 C   0  0  0  0  0  3  0  0  0  0  0  0
  190.6010  173.0880  134.7780 C   0  0  2  0  0  3  0  0  0  0  0  0
  190.0700  174.4620  134.9480 C   0  0  0  0  0  0  0  0  0  0  0  0
  192.7070  176.0030  136.7690 O   0  0  0  0  0  0  0  0  0  0  0  0
  187.9340  175.3700  134.3470 O   0  0  0  0  0  0  0  0  0  0  0  0
  188.3670  172.9620  134.3460 C   0  0  1  0  0  3  0  0  0  0  0  0
  191.9790  175.1020  136.2740 C   0  0  0  0  0  0  0  0  0  0  0  0
  188.7100  174.3940  134.5330 C   0  0  0  0  0  0  0  0  0  0  0  0
  190.7240  175.4520  135.5730 C   0  0  0  0  0  0  0  0  0  0  0  0
  193.3650  173.2630  137.4430 C   0  0  0  0  0  1  0  0  0  0  0  0
  189.4970  172.2000  134.7550 O   0  0  0  0  0  0  0  0  0  0  0  0
  185.7460  172.5250  136.8950 C   0  0  0  0  0  0  0  0  0  0  0  0
  187.1730  172.5640  135.1580 C   0  0  0  0  0  0  0  0  0  0  0  0
  185.1860  172.9750  138.2030 C   0  0  0  0  0  1  0  0  0  0  0  0
  185.1950  171.5000  136.1320 C   0  0  0  0  0  0  0  0  0  0  0  0
  186.1190  171.3200  134.7390 S   0  0  0  0  0  0  0  0  0  0  0  0
  183.9940  170.6880  136.4720 C   0  0  0  0  0  1  0  0  0  0  0  0
  186.8480  173.1090  136.3560 N   0  0  0  0  0  0  0  0  0  0  0  0
  1 45  1  6  0  0  0
  1  8  1  0  0  0  0
  2  6  2  0  0  0  0
  3  9  1  0  0  0  0
  4  2  1  0  0  0  0
  5  3  1  0  0  0  0
  6  3  1  0  0  0  0
  7  5  1  0  0  0  0
  8  2  1  0  0  0  0
  8  7  2  0  0  0  0
  9 10  1  0  0  0  0
 10 11  1  0  0  0  0
 11 12  1  0  0  0  0
 14 20  1  0  0  0  0
 14 17  1  0  0  0  0
 15 13  1  0  0  0  0
 16 19  1  0  0  0  0
 16 13  1  0  0  0  0
 17 15  1  0  0  0  0
 19 18  2  0  0  0  0
 20 16  1  0  0  0  0
 21 12  1  0  0  0  0
 21 19  1  0  0  0  0
 22  1  1  0  0  0  0
 23 29  1  0  0  0  0
 25 24  1  1  0  0  0
 25 28  1  0  0  0  0
 26 25  1  0  0  0  0
 26 23  1  0  0  0  0
 28 30  1  0  0  0  0
 28 27  1  0  0  0  0
 29 22  1  6  0  0  0
 29 27  1  0  0  0  0
 32 31  2  6  0  0  0
 32 30  1  0  0  0  0
 32 33  1  0  0  0  0
 34 42  1  1  0  0  0
 34 41  1  0  0  0  0
 35 33  1  6  0  0  0
 35 36  1  0  0  0  0
 35 34  1  0  0  0  0
 36 40  1  1  0  0  0
 36 39  1  0  0  0  0
 37 38  1  1  0  0  0
 39 40  1  6  0  0  0
 39 37  1  0  0  0  0
 41 37  1  0  0  0  0
 42 44  1  0  0  0  0
 44 43  1  0  0  0  0
 46 45  1  0  0  0  0
 47 57  1  0  0  0  0
 48 47  2  0  0  0  0
 49 50  1  0  0  0  0
 49 48  1  1  0  0  0
 50 56  2  0  0  0  0
 52 55  2  0  0  0  0
 53 55  1  0  0  0  0
 53 58  1  0  0  0  0
 53 60  1  1  0  0  0
 54 47  1  0  0  0  0
 54 51  2  0  0  0  0
 55 50  1  0  0  0  0
 56 46  1  0  0  0  0
 56 54  1  0  0  0  0
 58 49  1  0  0  0  0
 59 61  1  0  0  0  0
 60 65  2  0  0  0  0
 62 64  1  0  0  0  0
 62 59  2  0  0  0  0
 63 60  1  0  0  0  0
 63 62  1  0  0  0  0
 65 59  1  0  0  0  0
M  END
>  <MODEL>
3

>  <REMARK>
 VINA RESULT:      -6.8      2.527      8.870
  Name = 
  18 active torsions:
  status: ('A' for Active; 'I' for Inactive)
    1  A    between atoms: C_1  and  O_34
    2  A    between atoms: C_2  and  S_30
    3  A    between atoms: C_2  and  N_46
    4  A    between atoms: C_3  and  C_41
    5  A    between atoms: C_3  and  O_47
    6  A    between atoms: C_10  and  C_40
    7  A    between atoms: C_13  and  C_28
    8  A    between atoms: C_13  and  C_59
    9  A    between atoms: N_15  and  C_41
   10  A    between atoms: C_20  and  C_52
   11  A    between atoms: C_25  and  O_47
   12  A    between atoms: C_25  and  N_63
   13  A    between atoms: C_28  and  C_32
   14  A    between atoms: C_28  and  C_65
   15  A    between atoms: S_30  and  C_52
   16  A    between atoms: C_32  and  C_62
   17  A    between atoms: O_34  and  C_36
   18  A    between atoms: C_56  and  C_59
                            x       y       z     vdW  Elec       q    Type
                         _______ _______ _______ _____ _____    ______ ____

>  <TORSDO>
F 18

$$$$
=
 OpenBabel10232410513D

 65 72  0  0  1  0  0  0  0  0999 V2000
  184.1940  176.6940  136.8640 C   0  0  2  0  0  3  0  0  0  0  0  0
  182.6220  175.3580  135.3240 C   0  0  0  0  0  0  0  0  0  0  0  0
  182.1240  173.0630  135.8410 N   0  0  0  0  0  0  0  0  0  0  0  0
  182.5370  176.4490  134.4660 O   0  0  0  0  0  1  0  0  0  0  0  0
  182.4810  173.2400  137.2550 C   0  0  0  0  0  2  0  0  0  0  0  0
  182.0590  174.2010  134.9730 C   0  0  0  0  0  3  0  0  0  0  0  0
  183.3570  174.4450  137.4620 C   0  0  0  0  0  3  0  0  0  0  0  0
  183.3640  175.4680  136.5960 C   0  0  0  0  0  0  0  0  0  0  0  0
  181.6220  171.7920  135.3140 C   0  0  0  0  0  2  0  0  0  0  0  0
  182.6930  170.9430  134.6370 C   0  0  0  0  0  2  0  0  0  0  0  0
  183.5860  170.4390  135.5820 O   0  0  0  0  0  0  0  0  0  0  0  0
  184.1370  169.3130  134.9710 C   0  0  0  0  0  2  0  0  0  0  0  0
  188.4120  171.9550  134.8040 C   0  0  0  0  0  2  0  0  0  0  0  0
  189.6950  169.3180  134.5450 C   0  0  0  0  0  2  0  0  0  0  0  0
  189.9010  171.8120  135.1090 C   0  0  0  0  0  2  0  0  0  0  0  0
  187.7050  170.6850  134.9940 N   0  0  0  0  0  0  0  0  0  0  0  0
  190.4850  170.6230  134.3460 C   0  0  0  0  0  2  0  0  0  0  0  0
  185.6290  171.6870  134.6100 O   0  0  0  0  0  0  0  0  0  0  0  0
  186.2780  170.6350  134.8670 C   0  0  0  0  0  0  0  0  0  0  0  0
  188.4430  169.4890  135.4040 C   0  0  0  0  0  2  0  0  0  0  0  0
  185.5860  169.3920  135.0190 N   0  0  0  0  0  2  0  0  0  0  0  0
  185.4210  176.7180  135.9690 C   0  0  0  0  0  2  0  0  0  0  0  0
  187.1300  174.9830  136.1040 O   0  0  0  0  0  0  0  0  0  0  0  0
  189.3700  177.2620  134.3890 C   0  0  0  0  0  1  0  0  0  0  0  0
  189.1560  176.1430  135.4080 C   0  0  2  0  0  3  0  0  0  0  0  0
  187.9130  175.3460  134.9860 C   0  0  0  0  0  2  0  0  0  0  0  0
  187.6860  177.2300  136.9640 C   0  0  0  0  0  2  0  0  0  0  0  0
  189.0070  176.6340  136.7940 N   0  0  0  0  0  0  0  0  0  0  0  0
  186.6160  176.1540  136.7250 C   0  0  1  0  0  3  0  0  0  0  0  0
  190.0200  177.6280  137.1300 C   0  0  0  0  0  2  0  0  0  0  0  0
  190.6780  175.5090  138.5110 O   0  0  0  0  0  0  0  0  0  0  0  0
  191.2360  176.9010  138.2450 S   0  0  2  0  0  0  0  0  0  0  0  0
  190.9490  177.7840  139.7910 C   0  0  0  0  0  2  0  0  0  0  0  0
  190.3480  176.8180  142.0680 C   0  0  2  0  0  3  0  0  0  0  0  0
  189.8920  177.0790  140.6300 C   0  0  1  0  0  3  0  0  0  0  0  0
  188.5160  177.7480  140.4500 C   0  0  1  0  0  3  0  0  0  0  0  0
  188.0200  177.0540  142.9310 C   0  0  2  0  0  3  0  0  0  0  0  0
  186.9640  176.3750  143.5370 O   0  0  0  0  0  1  0  0  0  0  0  0
  187.5500  177.6420  141.5930 C   0  0  1  0  0  3  0  0  0  0  0  0
  188.3100  178.8100  141.3510 O   0  0  0  0  0  0  0  0  0  0  0  0
  189.2210  176.1270  142.8170 C   0  0  0  0  0  2  0  0  0  0  0  0
  190.7180  178.0090  142.7080 O   0  0  0  0  0  0  0  0  0  0  0  0
  191.7010  178.6790  144.7630 C   0  0  0  0  0  1  0  0  0  0  0  0
  191.6480  177.6270  143.6770 C   0  0  0  0  0  2  0  0  0  0  0  0
  184.6100  176.8130  138.3220 C   0  0  0  0  0  2  0  0  0  0  0  0
  184.4160  178.2370  138.8160 C   0  0  0  0  0  2  0  0  0  0  0  0
  182.1520  178.7820  141.9370 C   0  0  0  0  0  0  0  0  0  0  0  0
  181.0140  179.1720  141.3500 C   0  0  0  0  0  3  0  0  0  0  0  0
  180.7530  178.8830  139.8950 C   0  0  2  0  0  3  0  0  0  0  0  0
  182.0030  178.7090  139.1160 C   0  0  0  0  0  0  0  0  0  0  0  0
  184.2800  177.7390  141.6700 O   0  0  0  0  0  0  0  0  0  0  0  0
  182.4460  179.1480  136.8010 O   0  0  0  0  0  0  0  0  0  0  0  0
  180.4160  179.9480  137.9090 C   0  0  1  0  0  3  0  0  0  0  0  0
  183.2550  178.2200  141.1180 C   0  0  0  0  0  0  0  0  0  0  0  0
  181.7230  179.2490  137.8290 C   0  0  0  0  0  0  0  0  0  0  0  0
  183.1730  178.3210  139.6440 C   0  0  0  0  0  0  0  0  0  0  0  0
  182.3340  179.0140  143.3960 C   0  0  0  0  0  1  0  0  0  0  0  0
  179.9940  179.9010  139.2670 O   0  0  0  0  0  0  0  0  0  0  0  0
  180.3770  183.1530  136.0970 C   0  0  0  0  0  0  0  0  0  0  0  0
  180.5190  181.3750  137.4650 C   0  0  0  0  0  0  0  0  0  0  0  0
  180.0060  183.8790  134.8470 C   0  0  0  0  0  1  0  0  0  0  0  0
  180.9960  183.7590  137.1860 C   0  0  0  0  0  0  0  0  0  0  0  0
  181.2280  182.5970  138.3790 S   0  0  0  0  0  0  0  0  0  0  0  0
  181.3940  185.1900  137.2970 C   0  0  0  0  0  1  0  0  0  0  0  0
  180.1200  181.8280  136.2520 N   0  0  0  0  0  0  0  0  0  0  0  0
  1 22  1  6  0  0  0
  1 45  1  0  0  0  0
  2  8  1  0  0  0  0
  3  5  1  0  0  0  0
  4  2  1  0  0  0  0
  5  7  1  0  0  0  0
  6  2  2  0  0  0  0
  6  3  1  0  0  0  0
  8  1  1  0  0  0  0
  8  7  2  0  0  0  0
  9  3  1  0  0  0  0
 10  9  1  0  0  0  0
 10 11  1  0  0  0  0
 12 21  1  0  0  0  0
 12 11  1  0  0  0  0
 13 16  1  0  0  0  0
 13 15  1  0  0  0  0
 14 20  1  0  0  0  0
 16 20  1  0  0  0  0
 17 14  1  0  0  0  0
 17 15  1  0  0  0  0
 18 19  2  0  0  0  0
 19 16  1  0  0  0  0
 19 21  1  0  0  0  0
 23 29  1  0  0  0  0
 25 24  1  6  0  0  0
 25 28  1  0  0  0  0
 26 25  1  0  0  0  0
 26 23  1  0  0  0  0
 28 27  1  0  0  0  0
 28 30  1  0  0  0  0
 29 22  1  6  0  0  0
 29 27  1  0  0  0  0
 30 32  1  0  0  0  0
 32 31  2  1  0  0  0
 32 33  1  0  0  0  0
 34 42  1  1  0  0  0
 34 41  1  0  0  0  0
 35 33  1  1  0  0  0
 35 34  1  0  0  0  0
 36 35  1  0  0  0  0
 36 40  1  1  0  0  0
 36 39  1  0  0  0  0
 37 38  1  6  0  0  0
 39 40  1  1  0  0  0
 39 37  1  0  0  0  0
 41 37  1  0  0  0  0
 42 44  1  0  0  0  0
 44 43  1  0  0  0  0
 45 46  1  0  0  0  0
 46 56  1  0  0  0  0
 47 57  1  0  0  0  0
 48 47  2  0  0  0  0
 49 48  1  1  0  0  0
 50 56  2  0  0  0  0
 50 49  1  0  0  0  0
 52 55  2  0  0  0  0
 53 60  1  1  0  0  0
 53 58  1  0  0  0  0
 54 51  2  0  0  0  0
 54 47  1  0  0  0  0
 55 53  1  0  0  0  0
 55 50  1  0  0  0  0
 56 54  1  0  0  0  0
 58 49  1  0  0  0  0
 59 65  1  0  0  0  0
 59 62  2  0  0  0  0
 60 63  1  0  0  0  0
 61 59  1  0  0  0  0
 62 64  1  0  0  0  0
 62 63  1  0  0  0  0
 65 60  2  0  0  0  0
M  END
>  <MODEL>
4

>  <REMARK>
 VINA RESULT:      -6.5      4.129      9.185
  Name = 
  18 active torsions:
  status: ('A' for Active; 'I' for Inactive)
    1  A    between atoms: C_1  and  O_34
    2  A    between atoms: C_2  and  S_30
    3  A    between atoms: C_2  and  N_46
    4  A    between atoms: C_3  and  C_41
    5  A    between atoms: C_3  and  O_47
    6  A    between atoms: C_10  and  C_40
    7  A    between atoms: C_13  and  C_28
    8  A    between atoms: C_13  and  C_59
    9  A    between atoms: N_15  and  C_41
   10  A    between atoms: C_20  and  C_52
   11  A    between atoms: C_25  and  O_47
   12  A    between atoms: C_25  and  N_63
   13  A    between atoms: C_28  and  C_32
   14  A    between atoms: C_28  and  C_65
   15  A    between atoms: S_30  and  C_52
   16  A    between atoms: C_32  and  C_62
   17  A    between atoms: O_34  and  C_36
   18  A    between atoms: C_56  and  C_59
                            x       y       z     vdW  Elec       q    Type
                         _______ _______ _______ _____ _____    ______ ____

>  <TORSDO>
F 18

$$$$
=
 OpenBabel10232410513D

 65 72  0  0  1  0  0  0  0  0999 V2000
  188.2900  173.7650  136.0680 C   0  0  2  0  0  3  0  0  0  0  0  0
  186.0020  172.6110  136.3070 C   0  0  0  0  0  0  0  0  0  0  0  0
  185.5950  170.5370  135.1580 N   0  0  0  0  0  0  0  0  0  0  0  0
  185.5460  173.6740  137.0770 O   0  0  0  0  0  1  0  0  0  0  0  0
  187.0310  170.2460  135.0470 C   0  0  0  0  0  2  0  0  0  0  0  0
  185.1500  171.6490  135.9440 C   0  0  0  0  0  3  0  0  0  0  0  0
  187.8650  171.4880  135.2050 C   0  0  0  0  0  3  0  0  0  0  0  0
  187.4090  172.5640  135.8600 C   0  0  0  0  0  0  0  0  0  0  0  0
  184.5690  169.6130  134.6700 C   0  0  0  0  0  2  0  0  0  0  0  0
  183.2400  170.2880  134.3470 C   0  0  0  0  0  2  0  0  0  0  0  0
  182.2600  169.8990  135.2600 O   0  0  0  0  0  0  0  0  0  0  0  0
  181.1450  170.6620  134.9170 C   0  0  0  0  0  2  0  0  0  0  0  0
  180.2560  173.9290  138.6340 C   0  0  0  0  0  2  0  0  0  0  0  0
  181.1490  175.9480  136.6860 C   0  0  0  0  0  2  0  0  0  0  0  0
  180.6990  175.3050  139.1280 C   0  0  0  0  0  2  0  0  0  0  0  0
  180.8800  173.5990  137.3490 N   0  0  0  0  0  0  0  0  0  0  0  0
  180.5100  176.3480  138.0270 C   0  0  0  0  0  2  0  0  0  0  0  0
  179.9850  171.4410  137.3750 O   0  0  0  0  0  0  0  0  0  0  0  0
  180.6810  172.3030  136.7700 C   0  0  0  0  0  0  0  0  0  0  0  0
  181.7800  174.5560  136.7030 C   0  0  0  0  0  2  0  0  0  0  0  0
  181.2610  171.9860  135.5020 N   0  0  0  0  0  2  0  0  0  0  0  0
  187.7920  174.9450  135.2490 C   0  0  0  0  0  2  0  0  0  0  0  0
  187.7820  177.3820  135.1920 O   0  0  0  0  0  0  0  0  0  0  0  0
  184.6120  177.2630  136.9490 C   0  0  0  0  0  1  0  0  0  0  0  0
  185.9420  177.9660  136.6790 C   0  0  2  0  0  3  0  0  0  0  0  0
  186.3880  177.6070  135.2540 C   0  0  0  0  0  2  0  0  0  0  0  0
  187.4920  176.2710  137.3780 C   0  0  0  0  0  2  0  0  0  0  0  0
  186.9970  177.6160  137.6530 N   0  0  0  0  0  0  0  0  0  0  0  0
  188.1160  176.2430  135.9750 C   0  0  1  0  0  3  0  0  0  0  0  0
  186.5080  177.6670  139.0260 C   0  0  0  0  0  2  0  0  0  0  0  0
  188.9380  178.5870  139.2960 O   0  0  0  0  0  0  0  0  0  0  0  0
  187.6040  178.6940  140.0220 S   0  0  2  0  0  0  0  0  0  0  0  0
  187.8430  177.7070  141.5130 C   0  0  0  0  0  2  0  0  0  0  0  0
  185.8120  178.8740  142.5100 C   0  0  2  0  0  3  0  0  0  0  0  0
  187.2550  178.4120  142.7280 C   0  0  1  0  0  3  0  0  0  0  0  0
  187.5390  177.6120  144.0140 C   0  0  1  0  0  3  0  0  0  0  0  0
  185.2590  178.5420  144.9190 C   0  0  2  0  0  3  0  0  0  0  0  0
  184.8970  179.1950  146.0960 O   0  0  0  0  0  1  0  0  0  0  0  0
  186.5640  177.7670  145.1450 C   0  0  1  0  0  3  0  0  0  0  0  0
  186.5500  176.6480  144.2800 O   0  0  0  0  0  0  0  0  0  0  0  0
  185.3210  179.5490  143.7800 C   0  0  0  0  0  2  0  0  0  0  0  0
  184.9820  177.8010  142.1600 O   0  0  0  0  0  0  0  0  0  0  0  0
  183.2910  177.5540  140.5110 C   0  0  0  0  0  1  0  0  0  0  0  0
  183.8200  178.3890  141.6550 C   0  0  0  0  0  2  0  0  0  0  0  0
  189.7490  173.4850  135.7440 C   0  0  0  0  0  2  0  0  0  0  0  0
  190.5760  173.4290  137.0180 C   0  0  0  0  0  2  0  0  0  0  0  0
  192.7160  176.3810  138.3850 C   0  0  0  0  0  0  0  0  0  0  0  0
  193.7830  176.3050  137.5800 C   0  0  0  0  0  3  0  0  0  0  0  0
  193.7110  175.5730  136.2650 C   0  0  2  0  0  3  0  0  0  0  0  0
  192.6570  174.5310  136.2500 C   0  0  0  0  0  0  0  0  0  0  0  0
  190.4480  175.7450  138.7590 O   0  0  0  0  0  0  0  0  0  0  0  0
  192.5450  172.4750  135.0220 O   0  0  0  0  0  0  0  0  0  0  0  0
  194.6080  173.7800  135.1830 C   0  0  1  0  0  3  0  0  0  0  0  0
  191.4980  175.5900  138.0800 C   0  0  0  0  0  0  0  0  0  0  0  0
  193.1790  173.4790  135.4450 C   0  0  0  0  0  0  0  0  0  0  0  0
  191.5660  174.5500  137.0300 C   0  0  0  0  0  0  0  0  0  0  0  0
  192.8050  177.1830  139.6360 C   0  0  0  0  0  1  0  0  0  0  0  0
  194.9370  174.9490  135.9240 O   0  0  0  0  0  0  0  0  0  0  0  0
  197.0870  171.0690  135.4360 C   0  0  0  0  0  0  0  0  0  0  0  0
  195.5010  172.6530  135.6040 C   0  0  0  0  0  0  0  0  0  0  0  0
  198.2010  170.3250  134.7760 C   0  0  0  0  0  1  0  0  0  0  0  0
  196.6100  170.7700  136.7090 C   0  0  0  0  0  0  0  0  0  0  0  0
  195.3690  171.8450  137.0750 S   0  0  0  0  0  0  0  0  0  0  0  0
  197.0980  169.6900  137.6090 C   0  0  0  0  0  1  0  0  0  0  0  0
  196.4660  172.1090  134.8230 N   0  0  0  0  0  0  0  0  0  0  0  0
  1 22  1  6  0  0  0
  2  4  1  0  0  0  0
  3  6  1  0  0  0  0
  5  3  1  0  0  0  0
  5  7  1  0  0  0  0
  6  2  2  0  0  0  0
  7  8  2  0  0  0  0
  8  1  1  0  0  0  0
  8  2  1  0  0  0  0
  9  3  1  0  0  0  0
 10  9  1  0  0  0  0
 10 11  1  0  0  0  0
 12 11  1  0  0  0  0
 12 21  1  0  0  0  0
 13 15  1  0  0  0  0
 14 20  1  0  0  0  0
 14 17  1  0  0  0  0
 16 13  1  0  0  0  0
 17 15  1  0  0  0  0
 19 16  1  0  0  0  0
 19 18  2  0  0  0  0
 20 16  1  0  0  0  0
 21 19  1  0  0  0  0
 23 26  1  0  0  0  0
 23 29  1  0  0  0  0
 25 24  1  1  0  0  0
 25 28  1  0  0  0  0
 26 25  1  0  0  0  0
 27 28  1  0  0  0  0
 28 30  1  0  0  0  0
 29 22  1  6  0  0  0
 29 27  1  0  0  0  0
 30 32  1  0  0  0  0
 32 31  2  6  0  0  0
 32 33  1  0  0  0  0
 34 42  1  1  0  0  0
 34 35  1  0  0  0  0
 34 41  1  0  0  0  0
 35 33  1  6  0  0  0
 35 36  1  0  0  0  0
 36 40  1  6  0  0  0
 36 39  1  0  0  0  0
 37 39  1  0  0  0  0
 37 38  1  1  0  0  0
 39 40  1  6  0  0  0
 41 37  1  0  0  0  0
 43 44  1  0  0  0  0
 44 42  1  0  0  0  0
 45  1  1  0  0  0  0
 45 46  1  0  0  0  0
 46 56  1  0  0  0  0
 47 57  1  0  0  0  0
 48 47  2  0  0  0  0
 49 48  1  1  0  0  0
 50 49  1  0  0  0  0
 50 56  2  0  0  0  0
 52 55  2  0  0  0  0
 53 55  1  0  0  0  0
 53 60  1  1  0  0  0
 53 58  1  0  0  0  0
 54 47  1  0  0  0  0
 54 51  2  0  0  0  0
 55 50  1  0  0  0  0
 56 54  1  0  0  0  0
 58 49  1  0  0  0  0
 59 62  2  0  0  0  0
 60 63  1  0  0  0  0
 61 59  1  0  0  0  0
 62 63  1  0  0  0  0
 62 64  1  0  0  0  0
 65 59  1  0  0  0  0
 65 60  2  0  0  0  0
M  END
>  <MODEL>
5

>  <REMARK>
 VINA RESULT:      -6.4      3.309     11.475
  Name = 
  18 active torsions:
  status: ('A' for Active; 'I' for Inactive)
    1  A    between atoms: C_1  and  O_34
    2  A    between atoms: C_2  and  S_30
    3  A    between atoms: C_2  and  N_46
    4  A    between atoms: C_3  and  C_41
    5  A    between atoms: C_3  and  O_47
    6  A    between atoms: C_10  and  C_40
    7  A    between atoms: C_13  and  C_28
    8  A    between atoms: C_13  and  C_59
    9  A    between atoms: N_15  and  C_41
   10  A    between atoms: C_20  and  C_52
   11  A    between atoms: C_25  and  O_47
   12  A    between atoms: C_25  and  N_63
   13  A    between atoms: C_28  and  C_32
   14  A    between atoms: C_28  and  C_65
   15  A    between atoms: S_30  and  C_52
   16  A    between atoms: C_32  and  C_62
   17  A    between atoms: O_34  and  C_36
   18  A    between atoms: C_56  and  C_59
                            x       y       z     vdW  Elec       q    Type
                         _______ _______ _______ _____ _____    ______ ____

>  <TORSDO>
F 18

$$$$
=
 OpenBabel10232410513D

 65 72  0  0  1  0  0  0  0  0999 V2000
  189.5260  177.5390  138.4030 C   0  0  2  0  0  3  0  0  0  0  0  0
  190.3890  176.7310  140.6890 C   0  0  0  0  0  0  0  0  0  0  0  0
  189.7000  177.8760  142.6880 N   0  0  0  0  0  0  0  0  0  0  0  0
  191.1740  175.7740  140.0550 O   0  0  0  0  0  1  0  0  0  0  0  0
  188.5080  178.4320  142.0330 C   0  0  0  0  0  2  0  0  0  0  0  0
  190.5020  176.9040  142.0070 C   0  0  0  0  0  3  0  0  0  0  0  0
  188.6420  178.4250  140.5350 C   0  0  0  0  0  3  0  0  0  0  0  0
  189.4660  177.5760  139.9060 C   0  0  0  0  0  0  0  0  0  0  0  0
  189.9980  178.1140  144.1030 C   0  0  0  0  0  2  0  0  0  0  0  0
  188.8860  177.6670  145.0470 C   0  0  0  0  0  2  0  0  0  0  0  0
  189.2080  177.9860  146.3660 O   0  0  0  0  0  0  0  0  0  0  0  0
  187.9940  178.3660  146.9360 C   0  0  0  0  0  2  0  0  0  0  0  0
  183.2600  178.7650  145.2870 C   0  0  0  0  0  2  0  0  0  0  0  0
  184.5040  178.8950  142.6220 C   0  0  0  0  0  2  0  0  0  0  0  0
  182.4620  179.3280  144.1130 C   0  0  0  0  0  2  0  0  0  0  0  0
  184.7030  178.9110  145.0690 N   0  0  0  0  0  0  0  0  0  0  0  0
  182.9820  178.7530  142.7950 C   0  0  0  0  0  2  0  0  0  0  0  0
  185.1910  178.1160  147.2110 O   0  0  0  0  0  0  0  0  0  0  0  0
  185.6230  178.5450  146.1060 C   0  0  0  0  0  0  0  0  0  0  0  0
  185.2000  179.5160  143.8320 C   0  0  0  0  0  2  0  0  0  0  0  0
  187.0320  178.6560  145.8870 N   0  0  0  0  0  2  0  0  0  0  0  0
  188.6810  176.4000  137.8590 C   0  0  0  0  0  2  0  0  0  0  0  0
  187.1110  177.8890  136.7350 O   0  0  0  0  0  0  0  0  0  0  0  0
  186.4190  175.1790  134.4270 C   0  0  0  0  0  1  0  0  0  0  0  0
  185.9360  176.4040  135.2020 C   0  0  2  0  0  3  0  0  0  0  0  0
  187.1430  177.3220  135.4410 C   0  0  0  0  0  2  0  0  0  0  0  0
  186.2940  175.6740  137.4610 C   0  0  0  0  0  2  0  0  0  0  0  0
  185.2830  176.0660  136.4840 N   0  0  0  0  0  0  0  0  0  0  0  0
  187.2380  176.8600  137.7090 C   0  0  1  0  0  3  0  0  0  0  0  0
  184.3240  174.9770  136.3350 C   0  0  0  0  0  2  0  0  0  0  0  0
  182.3910  176.5390  135.5310 O   0  0  0  0  0  0  0  0  0  0  0  0
  182.6620  175.5820  136.6830 S   0  0  2  0  0  0  0  0  0  0  0  0
  182.9130  176.6700  138.1000 C   0  0  0  0  0  2  0  0  0  0  0  0
  180.7720  177.8290  138.8440 C   0  0  2  0  0  3  0  0  0  0  0  0
  182.0400  177.9120  137.9890 C   0  0  1  0  0  3  0  0  0  0  0  0
  182.8890  179.1900  138.1320 C   0  0  1  0  0  3  0  0  0  0  0  0
  180.7740  180.2930  139.2270 C   0  0  2  0  0  3  0  0  0  0  0  0
  180.0810  181.4760  138.9780 O   0  0  0  0  0  1  0  0  0  0  0  0
  182.2010  180.4100  138.6740 C   0  0  1  0  0  3  0  0  0  0  0  0
  183.0360  179.5940  139.4720 O   0  0  0  0  0  0  0  0  0  0  0  0
  179.9850  179.1160  138.6720 C   0  0  0  0  0  2  0  0  0  0  0  0
  181.0830  177.6070  140.1920 O   0  0  0  0  0  0  0  0  0  0  0  0
  180.3170  175.3600  140.1160 C   0  0  0  0  0  1  0  0  0  0  0  0
  180.0820  176.7520  140.6600 C   0  0  0  0  0  2  0  0  0  0  0  0
  190.9490  177.4290  137.8760 C   0  0  0  0  0  2  0  0  0  0  0  0
  190.9580  176.7810  136.5010 C   0  0  0  0  0  2  0  0  0  0  0  0
  193.9930  174.6080  137.6110 C   0  0  0  0  0  0  0  0  0  0  0  0
  193.9140  173.6050  136.7280 C   0  0  0  0  0  3  0  0  0  0  0  0
  193.1420  173.7630  135.4440 C   0  0  2  0  0  3  0  0  0  0  0  0
  192.0790  174.7920  135.5410 C   0  0  0  0  0  0  0  0  0  0  0  0
  193.3230  176.8250  138.1800 O   0  0  0  0  0  0  0  0  0  0  0  0
  189.9850  174.9520  134.3840 O   0  0  0  0  0  0  0  0  0  0  0  0
  191.3360  172.9120  134.3460 C   0  0  1  0  0  3  0  0  0  0  0  0
  193.1690  175.8280  137.4250 C   0  0  0  0  0  0  0  0  0  0  0  0
  191.0140  174.3100  134.7280 C   0  0  0  0  0  0  0  0  0  0  0  0
  192.0990  175.8190  136.4030 C   0  0  0  0  0  0  0  0  0  0  0  0
  194.8340  174.4400  138.8280 C   0  0  0  0  0  1  0  0  0  0  0  0
  192.5330  172.5540  135.0250 O   0  0  0  0  0  0  0  0  0  0  0  0
  188.2330  171.2830  135.4780 C   0  0  0  0  0  0  0  0  0  0  0  0
  190.2400  171.9650  134.7270 C   0  0  0  0  0  0  0  0  0  0  0  0
  186.8290  171.4580  135.9510 C   0  0  0  0  0  1  0  0  0  0  0  0
  188.8480  170.0430  135.3300 C   0  0  0  0  0  0  0  0  0  0  0  0
  190.4140  170.2910  134.7700 S   0  0  0  0  0  0  0  0  0  0  0  0
  188.2410  168.7130  135.6110 C   0  0  0  0  0  1  0  0  0  0  0  0
  189.0110  172.3480  135.1500 N   0  0  0  0  0  0  0  0  0  0  0  0
  1 22  1  1  0  0  0
  1  8  1  0  0  0  0
  2  6  2  0  0  0  0
  3  9  1  0  0  0  0
  4  2  1  0  0  0  0
  5  3  1  0  0  0  0
  6  3  1  0  0  0  0
  7  5  1  0  0  0  0
  8  7  2  0  0  0  0
  8  2  1  0  0  0  0
  9 10  1  0  0  0  0
 10 11  1  0  0  0  0
 11 12  1  0  0  0  0
 14 17  1  0  0  0  0
 14 20  1  0  0  0  0
 15 13  1  0  0  0  0
 16 13  1  0  0  0  0
 16 19  1  0  0  0  0
 17 15  1  0  0  0  0
 19 18  2  0  0  0  0
 20 16  1  0  0  0  0
 21 19  1  0  0  0  0
 21 12  1  0  0  0  0
 23 29  1  0  0  0  0
 25 24  1  1  0  0  0
 25 26  1  0  0  0  0
 25 28  1  0  0  0  0
 26 23  1  0  0  0  0
 27 29  1  0  0  0  0
 28 27  1  0  0  0  0
 29 22  1  6  0  0  0
 30 28  1  0  0  0  0
 30 32  1  0  0  0  0
 32 31  2  6  0  0  0
 32 33  1  0  0  0  0
 34 42  1  1  0  0  0
 35 33  1  1  0  0  0
 35 36  1  0  0  0  0
 35 34  1  0  0  0  0
 36 39  1  0  0  0  0
 36 40  1  1  0  0  0
 37 38  1  6  0  0  0
 39 37  1  0  0  0  0
 39 40  1  1  0  0  0
 41 34  1  0  0  0  0
 41 37  1  0  0  0  0
 42 44  1  0  0  0  0
 43 44  1  0  0  0  0
 45  1  1  0  0  0  0
 46 45  1  0  0  0  0
 47 57  1  0  0  0  0
 48 47  2  0  0  0  0
 49 50  1  0  0  0  0
 49 48  1  1  0  0  0
 50 56  2  0  0  0  0
 52 55  2  0  0  0  0
 53 60  1  1  0  0  0
 53 55  1  0  0  0  0
 53 58  1  0  0  0  0
 54 47  1  0  0  0  0
 54 51  2  0  0  0  0
 55 50  1  0  0  0  0
 56 46  1  0  0  0  0
 56 54  1  0  0  0  0
 58 49  1  0  0  0  0
 59 61  1  0  0  0  0
 60 63  1  0  0  0  0
 60 65  2  0  0  0  0
 62 59  2  0  0  0  0
 62 64  1  0  0  0  0
 63 62  1  0  0  0  0
 65 59  1  0  0  0  0
M  END
>  <MODEL>
6

>  <REMARK>
 VINA RESULT:      -6.4      2.564      9.531
  Name = 
  18 active torsions:
  status: ('A' for Active; 'I' for Inactive)
    1  A    between atoms: C_1  and  O_34
    2  A    between atoms: C_2  and  S_30
    3  A    between atoms: C_2  and  N_46
    4  A    between atoms: C_3  and  C_41
    5  A    between atoms: C_3  and  O_47
    6  A    between atoms: C_10  and  C_40
    7  A    between atoms: C_13  and  C_28
    8  A    between atoms: C_13  and  C_59
    9  A    between atoms: N_15  and  C_41
   10  A    between atoms: C_20  and  C_52
   11  A    between atoms: C_25  and  O_47
   12  A    between atoms: C_25  and  N_63
   13  A    between atoms: C_28  and  C_32
   14  A    between atoms: C_28  and  C_65
   15  A    between atoms: S_30  and  C_52
   16  A    between atoms: C_32  and  C_62
   17  A    between atoms: O_34  and  C_36
   18  A    between atoms: C_56  and  C_59
                            x       y       z     vdW  Elec       q    Type
                         _______ _______ _______ _____ _____    ______ ____

>  <TORSDO>
F 18

$$$$
=
 OpenBabel10232410513D

 65 72  0  0  1  0  0  0  0  0999 V2000
  190.0510  176.1740  137.3750 C   0  0  2  0  0  3  0  0  0  0  0  0
  189.4150  176.9040  139.7600 C   0  0  0  0  0  0  0  0  0  0  0  0
  191.1460  177.2620  141.3910 N   0  0  0  0  0  0  0  0  0  0  0  0
  188.0680  176.8110  139.4300 O   0  0  0  0  0  1  0  0  0  0  0  0
  192.1670  177.4640  140.3540 C   0  0  0  0  0  2  0  0  0  0  0  0
  189.7660  177.1530  141.0240 C   0  0  0  0  0  3  0  0  0  0  0  0
  191.7430  176.8800  139.0340 C   0  0  0  0  0  3  0  0  0  0  0  0
  190.4510  176.6910  138.7300 C   0  0  0  0  0  0  0  0  0  0  0  0
  191.4490  177.3770  142.8200 C   0  0  0  0  0  2  0  0  0  0  0  0
  190.2360  177.7220  143.6770 C   0  0  0  0  0  2  0  0  0  0  0  0
  190.3020  177.0630  144.9050 O   0  0  0  0  0  0  0  0  0  0  0  0
  189.3720  177.7260  145.7040 C   0  0  0  0  0  2  0  0  0  0  0  0
  184.4430  178.6530  145.3390 C   0  0  0  0  0  2  0  0  0  0  0  0
  184.8830  178.2990  142.4490 C   0  0  0  0  0  2  0  0  0  0  0  0
  183.4140  179.1980  144.3500 C   0  0  0  0  0  2  0  0  0  0  0  0
  185.7700  178.5540  144.7240 N   0  0  0  0  0  0  0  0  0  0  0  0
  183.4680  178.4090  143.0420 C   0  0  0  0  0  2  0  0  0  0  0  0
  186.7540  177.9350  146.7520 O   0  0  0  0  0  0  0  0  0  0  0  0
  186.9000  178.1700  145.5200 C   0  0  0  0  0  0  0  0  0  0  0  0
  185.9610  178.9360  143.3240 C   0  0  0  0  0  2  0  0  0  0  0  0
  188.1910  178.0410  144.9190 N   0  0  0  0  0  2  0  0  0  0  0  0
  190.9810  176.7090  136.2990 C   0  0  0  0  0  2  0  0  0  0  0  0
  192.2690  176.0130  134.3490 O   0  0  0  0  0  0  0  0  0  0  0  0
  195.1110  175.5860  136.5600 C   0  0  0  0  0  1  0  0  0  0  0  0
  194.3290  175.1500  135.3210 C   0  0  2  0  0  3  0  0  0  0  0  0
  193.5630  176.3700  134.7900 C   0  0  0  0  0  2  0  0  0  0  0  0
  192.2360  174.5160  136.3130 C   0  0  0  0  0  2  0  0  0  0  0  0
  193.4000  174.0300  135.5780 N   0  0  0  0  0  0  0  0  0  0  0  0
  191.4990  175.5540  135.4530 C   0  0  1  0  0  3  0  0  0  0  0  0
  194.0330  172.9660  136.3490 C   0  0  0  0  0  2  0  0  0  0  0  0
  193.6480  170.3840  136.2250 O   0  0  0  0  0  0  0  0  0  0  0  0
  194.1900  171.4890  135.3280 S   0  0  2  0  0  0  0  0  0  0  0  0
  195.9700  171.1960  135.3080 C   0  0  0  0  0  2  0  0  0  0  0  0
  197.5890  172.1500  137.0240 C   0  0  2  0  0  3  0  0  0  0  0  0
  196.7270  172.4260  135.7900 C   0  0  1  0  0  3  0  0  0  0  0  0
  197.4140  173.1410  134.6110 C   0  0  1  0  0  3  0  0  0  0  0  0
  199.2820  173.8400  136.3160 C   0  0  2  0  0  3  0  0  0  0  0  0
  199.8620  175.0640  136.6430 O   0  0  0  0  0  1  0  0  0  0  0  0
  198.6540  173.9280  134.9180 C   0  0  1  0  0  3  0  0  0  0  0  0
  198.7000  172.6350  134.3480 O   0  0  0  0  0  0  0  0  0  0  0  0
  198.3070  173.4320  137.4120 C   0  0  0  0  0  2  0  0  0  0  0  0
  198.5040  171.1160  136.7840 O   0  0  0  0  0  0  0  0  0  0  0  0
  199.2370  169.0370  137.6680 C   0  0  0  0  0  1  0  0  0  0  0  0
  198.1920  170.1290  137.7220 C   0  0  0  0  0  2  0  0  0  0  0  0
  188.6080  176.5040  137.0260 C   0  0  0  0  0  2  0  0  0  0  0  0
  188.3840  176.3920  135.5260 C   0  0  0  0  0  2  0  0  0  0  0  0
  186.8770  172.8050  135.6860 C   0  0  0  0  0  0  0  0  0  0  0  0
  185.5950  173.0630  135.4020 C   0  0  0  0  0  3  0  0  0  0  0  0
  185.1960  174.3470  134.7220 C   0  0  2  0  0  3  0  0  0  0  0  0
  186.1720  175.4390  134.9480 C   0  0  0  0  0  0  0  0  0  0  0  0
  189.1280  173.5910  135.6480 O   0  0  0  0  0  0  0  0  0  0  0  0
  185.8340  177.8120  135.0260 O   0  0  0  0  0  0  0  0  0  0  0  0
  183.9660  176.2320  135.0750 C   0  0  1  0  0  3  0  0  0  0  0  0
  187.9060  173.8580  135.5010 C   0  0  0  0  0  0  0  0  0  0  0  0
  185.3950  176.6300  135.0190 C   0  0  0  0  0  0  0  0  0  0  0  0
  187.4670  175.2460  135.2350 C   0  0  0  0  0  0  0  0  0  0  0  0
  187.2380  171.4900  136.2830 C   0  0  0  0  0  1  0  0  0  0  0  0
  183.9250  174.8120  135.1430 O   0  0  0  0  0  0  0  0  0  0  0  0
  181.9070  178.1540  137.4470 C   0  0  0  0  0  0  0  0  0  0  0  0
  183.2730  176.8110  136.2700 C   0  0  0  0  0  0  0  0  0  0  0  0
  180.8530  179.1950  137.6310 C   0  0  0  0  0  1  0  0  0  0  0  0
  182.5250  177.4890  138.5010 C   0  0  0  0  0  0  0  0  0  0  0  0
  183.6360  176.4000  137.8620 S   0  0  0  0  0  0  0  0  0  0  0  0
  182.2650  177.6910  139.9530 C   0  0  0  0  0  1  0  0  0  0  0  0
  182.3280  177.7810  136.2100 N   0  0  0  0  0  0  0  0  0  0  0  0
  1 22  1  6  0  0  0
  1  8  1  0  0  0  0
  2  6  2  0  0  0  0
  3  9  1  0  0  0  0
  4  2  1  0  0  0  0
  5  3  1  0  0  0  0
  6  3  1  0  0  0  0
  7  5  1  0  0  0  0
  8  7  2  0  0  0  0
  8  2  1  0  0  0  0
  9 10  1  0  0  0  0
 10 11  1  0  0  0  0
 11 12  1  0  0  0  0
 14 17  1  0  0  0  0
 14 20  1  0  0  0  0
 15 13  1  0  0  0  0
 16 13  1  0  0  0  0
 16 19  1  0  0  0  0
 17 15  1  0  0  0  0
 19 18  2  0  0  0  0
 20 16  1  0  0  0  0
 21 19  1  0  0  0  0
 21 12  1  0  0  0  0
 23 26  1  0  0  0  0
 23 29  1  0  0  0  0
 25 28  1  0  0  0  0
 25 24  1  1  0  0  0
 26 25  1  0  0  0  0
 28 27  1  0  0  0  0
 28 30  1  0  0  0  0
 29 22  1  1  0  0  0
 29 27  1  0  0  0  0
 32 31  2  1  0  0  0
 32 30  1  0  0  0  0
 33 32  1  0  0  0  0
 34 42  1  6  0  0  0
 34 41  1  0  0  0  0
 35 33  1  6  0  0  0
 35 34  1  0  0  0  0
 36 40  1  6  0  0  0
 36 39  1  0  0  0  0
 36 35  1  0  0  0  0
 37 38  1  1  0  0  0
 37 41  1  0  0  0  0
 39 40  1  6  0  0  0
 39 37  1  0  0  0  0
 42 44  1  0  0  0  0
 43 44  1  0  0  0  0
 45  1  1  0  0  0  0
 46 45  1  0  0  0  0
 47 57  1  0  0  0  0
 48 47  2  0  0  0  0
 49 50  1  0  0  0  0
 49 58  1  0  0  0  0
 49 48  1  1  0  0  0
 50 55  1  0  0  0  0
 50 56  2  0  0  0  0
 53 58  1  0  0  0  0
 53 60  1  1  0  0  0
 54 51  2  0  0  0  0
 54 47  1  0  0  0  0
 55 52  2  0  0  0  0
 55 53  1  0  0  0  0
 56 54  1  0  0  0  0
 56 46  1  0  0  0  0
 59 61  1  0  0  0  0
 59 62  2  0  0  0  0
 60 63  1  0  0  0  0
 62 64  1  0  0  0  0
 63 62  1  0  0  0  0
 65 60  2  0  0  0  0
 65 59  1  0  0  0  0
M  END
>  <MODEL>
7

>  <REMARK>
 VINA RESULT:      -6.2      2.154      3.114
  Name = 
  18 active torsions:
  status: ('A' for Active; 'I' for Inactive)
    1  A    between atoms: C_1  and  O_34
    2  A    between atoms: C_2  and  S_30
    3  A    between atoms: C_2  and  N_46
    4  A    between atoms: C_3  and  C_41
    5  A    between atoms: C_3  and  O_47
    6  A    between atoms: C_10  and  C_40
    7  A    between atoms: C_13  and  C_28
    8  A    between atoms: C_13  and  C_59
    9  A    between atoms: N_15  and  C_41
   10  A    between atoms: C_20  and  C_52
   11  A    between atoms: C_25  and  O_47
   12  A    between atoms: C_25  and  N_63
   13  A    between atoms: C_28  and  C_32
   14  A    between atoms: C_28  and  C_65
   15  A    between atoms: S_30  and  C_52
   16  A    between atoms: C_32  and  C_62
   17  A    between atoms: O_34  and  C_36
   18  A    between atoms: C_56  and  C_59
                            x       y       z     vdW  Elec       q    Type
                         _______ _______ _______ _____ _____    ______ ____

>  <TORSDO>
F 18

$$$$
=
 OpenBabel10232410513D

 65 72  0  0  1  0  0  0  0  0999 V2000
  189.8420  176.9050  139.2660 C   0  0  2  0  0  3  0  0  0  0  0  0
  192.1800  176.3320  138.3550 C   0  0  0  0  0  0  0  0  0  0  0  0
  192.4220  174.5730  136.7330 N   0  0  0  0  0  0  0  0  0  0  0  0
  192.7440  177.2690  139.2140 O   0  0  0  0  0  1  0  0  0  0  0  0
  191.0150  174.6740  136.3230 C   0  0  0  0  0  2  0  0  0  0  0  0
  192.9760  175.5420  137.6310 C   0  0  0  0  0  3  0  0  0  0  0  0
  190.1760  175.3500  137.3730 C   0  0  0  0  0  3  0  0  0  0  0  0
  190.7130  176.1840  138.2730 C   0  0  0  0  0  0  0  0  0  0  0  0
  193.3570  173.6420  136.0980 C   0  0  0  0  0  2  0  0  0  0  0  0
  192.9540  172.1770  136.2390 C   0  0  0  0  0  2  0  0  0  0  0  0
  193.9860  171.3440  135.8080 O   0  0  0  0  0  0  0  0  0  0  0  0
  194.7040  171.0530  136.9680 C   0  0  0  0  0  2  0  0  0  0  0  0
  198.3890  174.1250  138.4750 C   0  0  0  0  0  2  0  0  0  0  0  0
  199.6740  173.3570  135.9400 C   0  0  0  0  0  2  0  0  0  0  0  0
  199.8900  174.3440  138.2980 C   0  0  0  0  0  2  0  0  0  0  0  0
  197.9040  173.0430  137.6120 N   0  0  0  0  0  0  0  0  0  0  0  0
  200.2310  174.4930  136.8150 C   0  0  0  0  0  2  0  0  0  0  0  0
  195.7670  173.1390  138.5530 O   0  0  0  0  0  0  0  0  0  0  0  0
  196.5410  172.6060  137.7110 C   0  0  0  0  0  0  0  0  0  0  0  0
  198.8290  172.3480  136.7160 C   0  0  0  0  0  2  0  0  0  0  0  0
  196.0540  171.5740  136.8490 N   0  0  0  0  0  2  0  0  0  0  0  0
  189.2500  178.1610  138.6490 C   0  0  0  0  0  2  0  0  0  0  0  0
  187.1700  179.0460  137.7360 O   0  0  0  0  0  0  0  0  0  0  0  0
  187.6050  176.7810  134.9380 C   0  0  0  0  0  1  0  0  0  0  0  0
  186.6780  177.5250  135.8970 C   0  0  2  0  0  3  0  0  0  0  0  0
  187.3990  178.7980  136.3640 C   0  0  0  0  0  2  0  0  0  0  0  0
  187.3730  176.6000  138.0010 C   0  0  0  0  0  2  0  0  0  0  0  0
  186.2630  176.7130  137.0600 N   0  0  0  0  0  0  0  0  0  0  0  0
  187.7430  178.0010  138.5100 C   0  0  1  0  0  3  0  0  0  0  0  0
  185.8420  175.3730  136.6650 C   0  0  0  0  0  2  0  0  0  0  0  0
  183.9940  173.5560  136.9940 O   0  0  0  0  0  0  0  0  0  0  0  0
  184.3840  174.8930  137.6090 S   0  0  2  0  0  0  0  0  0  0  0  0
  183.1180  176.0310  137.0110 C   0  0  0  0  0  2  0  0  0  0  0  0
  182.1720  178.3390  137.5180 C   0  0  2  0  0  3  0  0  0  0  0  0
  182.7400  177.0370  138.0890 C   0  0  1  0  0  3  0  0  0  0  0  0
  181.9270  176.3580  139.2080 C   0  0  1  0  0  3  0  0  0  0  0  0
  180.6950  178.6560  139.5030 C   0  0  2  0  0  3  0  0  0  0  0  0
  180.4460  179.4680  140.6080 O   0  0  0  0  0  1  0  0  0  0  0  0
  180.9650  177.2200  139.9730 C   0  0  1  0  0  3  0  0  0  0  0  0
  180.5460  176.3480  138.9420 O   0  0  0  0  0  0  0  0  0  0  0  0
  181.8170  179.2610  138.6720 C   0  0  0  0  0  2  0  0  0  0  0  0
  181.0530  178.0930  136.7110 O   0  0  0  0  0  0  0  0  0  0  0  0
  181.1580  178.3350  134.3500 C   0  0  0  0  0  1  0  0  0  0  0  0
  181.1280  179.0410  135.6870 C   0  0  0  0  0  2  0  0  0  0  0  0
  190.5800  177.2530  140.5490 C   0  0  0  0  0  2  0  0  0  0  0  0
  190.2760  176.2300  141.6320 C   0  0  0  0  0  2  0  0  0  0  0  0
  191.3930  178.7660  144.3670 C   0  0  0  0  0  0  0  0  0  0  0  0
  190.3730  178.6660  145.2270 C   0  0  0  0  0  3  0  0  0  0  0  0
  189.4570  177.4700  145.2080 C   0  0  2  0  0  3  0  0  0  0  0  0
  189.4190  176.8030  143.8840 C   0  0  0  0  0  0  0  0  0  0  0  0
  192.5490  177.7980  142.5190 O   0  0  0  0  0  0  0  0  0  0  0  0
  187.6580  175.5540  142.8410 O   0  0  0  0  0  0  0  0  0  0  0  0
  187.2780  176.9120  144.8410 C   0  0  1  0  0  3  0  0  0  0  0  0
  191.5300  177.7870  143.2590 C   0  0  0  0  0  0  0  0  0  0  0  0
  188.0840  176.3310  143.7380 C   0  0  0  0  0  0  0  0  0  0  0  0
  190.4070  176.8650  142.9800 C   0  0  0  0  0  0  0  0  0  0  0  0
  192.3240  179.9230  144.4750 C   0  0  0  0  0  1  0  0  0  0  0  0
  188.1250  177.8010  145.5600 O   0  0  0  0  0  0  0  0  0  0  0  0
  184.6850  178.5850  142.8320 C   0  0  0  0  0  0  0  0  0  0  0  0
  186.0870  177.6600  144.3270 C   0  0  0  0  0  0  0  0  0  0  0  0
  184.1570  178.8820  141.4680 C   0  0  0  0  0  1  0  0  0  0  0  0
  184.0960  179.0490  144.0040 C   0  0  0  0  0  0  0  0  0  0  0  0
  184.9940  178.4830  145.3090 S   0  0  0  0  0  0  0  0  0  0  0  0
  182.8800  179.9000  144.1090 C   0  0  0  0  0  1  0  0  0  0  0  0
  185.7940  177.8210  143.0130 N   0  0  0  0  0  0  0  0  0  0  0  0
  1 22  1  6  0  0  0
  1 45  1  0  0  0  0
  2  4  1  0  0  0  0
  3  6  1  0  0  0  0
  5  3  1  0  0  0  0
  5  7  1  0  0  0  0
  6  2  2  0  0  0  0
  7  8  2  0  0  0  0
  8  2  1  0  0  0  0
  8  1  1  0  0  0  0
  9 10  1  0  0  0  0
  9  3  1  0  0  0  0
 11 10  1  0  0  0  0
 11 12  1  0  0  0  0
 14 20  1  0  0  0  0
 14 17  1  0  0  0  0
 15 13  1  0  0  0  0
 16 19  1  0  0  0  0
 16 13  1  0  0  0  0
 17 15  1  0  0  0  0
 19 18  2  0  0  0  0
 20 16  1  0  0  0  0
 21 12  1  0  0  0  0
 21 19  1  0  0  0  0
 23 29  1  0  0  0  0
 25 24  1  6  0  0  0
 25 26  1  0  0  0  0
 25 28  1  0  0  0  0
 26 23  1  0  0  0  0
 27 29  1  0  0  0  0
 28 27  1  0  0  0  0
 29 22  1  6  0  0  0
 30 28  1  0  0  0  0
 30 32  1  0  0  0  0
 32 31  2  6  0  0  0
 33 32  1  0  0  0  0
 34 42  1  1  0  0  0
 34 35  1  0  0  0  0
 34 41  1  0  0  0  0
 35 33  1  6  0  0  0
 35 36  1  0  0  0  0
 36 40  1  6  0  0  0
 36 39  1  0  0  0  0
 37 39  1  0  0  0  0
 37 38  1  1  0  0  0
 39 40  1  6  0  0  0
 41 37  1  0  0  0  0
 43 44  1  0  0  0  0
 44 42  1  0  0  0  0
 45 46  1  0  0  0  0
 46 56  1  0  0  0  0
 47 57  1  0  0  0  0
 47 48  2  0  0  0  0
 49 48  1  6  0  0  0
 49 58  1  0  0  0  0
 50 49  1  0  0  0  0
 51 54  2  0  0  0  0
 52 55  2  0  0  0  0
 53 60  1  6  0  0  0
 53 58  1  0  0  0  0
 54 47  1  0  0  0  0
 55 50  1  0  0  0  0
 55 53  1  0  0  0  0
 56 54  1  0  0  0  0
 56 50  2  0  0  0  0
 59 65  1  0  0  0  0
 59 62  2  0  0  0  0
 60 63  1  0  0  0  0
 61 59  1  0  0  0  0
 62 64  1  0  0  0  0
 62 63  1  0  0  0  0
 65 60  2  0  0  0  0
M  END
>  <MODEL>
8

>  <REMARK>
 VINA RESULT:      -6.0      2.630     10.391
  Name = 
  18 active torsions:
  status: ('A' for Active; 'I' for Inactive)
    1  A    between atoms: C_1  and  O_34
    2  A    between atoms: C_2  and  S_30
    3  A    between atoms: C_2  and  N_46
    4  A    between atoms: C_3  and  C_41
    5  A    between atoms: C_3  and  O_47
    6  A    between atoms: C_10  and  C_40
    7  A    between atoms: C_13  and  C_28
    8  A    between atoms: C_13  and  C_59
    9  A    between atoms: N_15  and  C_41
   10  A    between atoms: C_20  and  C_52
   11  A    between atoms: C_25  and  O_47
   12  A    between atoms: C_25  and  N_63
   13  A    between atoms: C_28  and  C_32
   14  A    between atoms: C_28  and  C_65
   15  A    between atoms: S_30  and  C_52
   16  A    between atoms: C_32  and  C_62
   17  A    between atoms: O_34  and  C_36
   18  A    between atoms: C_56  and  C_59
                            x       y       z     vdW  Elec       q    Type
                         _______ _______ _______ _____ _____    ______ ____

>  <TORSDO>
F 18

$$$$
=
 OpenBabel10232410513D

 65 72  0  0  1  0  0  0  0  0999 V2000
  188.5010  173.8220  135.5580 C   0  0  2  0  0  3  0  0  0  0  0  0
  186.1490  172.8270  135.8820 C   0  0  0  0  0  0  0  0  0  0  0  0
  185.5990  170.7240  134.8540 N   0  0  0  0  0  0  0  0  0  0  0  0
  185.7700  173.9590  136.5950 O   0  0  0  0  0  1  0  0  0  0  0  0
  187.0130  170.3380  134.7460 C   0  0  0  0  0  2  0  0  0  0  0  0
  185.2350  171.9030  135.5810 C   0  0  0  0  0  3  0  0  0  0  0  0
  187.9250  171.5310  134.8270 C   0  0  0  0  0  3  0  0  0  0  0  0
  187.5440  172.6680  135.4260 C   0  0  0  0  0  0  0  0  0  0  0  0
  184.5120  169.8400  134.4280 C   0  0  0  0  0  2  0  0  0  0  0  0
  183.1250  170.4540  134.5890 C   0  0  0  0  0  2  0  0  0  0  0  0
  182.2660  169.5580  135.2260 O   0  0  0  0  0  0  0  0  0  0  0  0
  181.0990  170.2920  135.4420 C   0  0  0  0  0  2  0  0  0  0  0  0
  181.1930  174.5900  138.0500 C   0  0  0  0  0  2  0  0  0  0  0  0
  181.8410  175.8170  135.4530 C   0  0  0  0  0  2  0  0  0  0  0  0
  181.8240  175.9800  138.0130 C   0  0  0  0  0  2  0  0  0  0  0  0
  181.5300  173.8210  136.8490 N   0  0  0  0  0  0  0  0  0  0  0  0
  181.5040  176.6710  136.6870 C   0  0  0  0  0  2  0  0  0  0  0  0
  180.4980  171.8990  137.6880 O   0  0  0  0  0  0  0  0  0  0  0  0
  181.1270  172.4480  136.7420 C   0  0  0  0  0  0  0  0  0  0  0  0
  182.3570  174.4210  135.8010 C   0  0  0  0  0  2  0  0  0  0  0  0
  181.4250  171.7020  135.5590 N   0  0  0  0  0  2  0  0  0  0  0  0
  187.9200  175.0770  134.9290 C   0  0  0  0  0  2  0  0  0  0  0  0
  187.8620  177.5030  135.1590 O   0  0  0  0  0  0  0  0  0  0  0  0
  185.1770  177.0660  137.5560 C   0  0  0  0  0  1  0  0  0  0  0  0
  186.4010  177.8460  137.0780 C   0  0  2  0  0  3  0  0  0  0  0  0
  186.5170  177.6640  135.5580 C   0  0  0  0  0  2  0  0  0  0  0  0
  188.0930  176.1480  137.2110 C   0  0  0  0  0  2  0  0  0  0  0  0
  187.6550  177.4340  137.7430 N   0  0  0  0  0  0  0  0  0  0  0  0
  188.3810  176.3000  135.7090 C   0  0  1  0  0  3  0  0  0  0  0  0
  187.4900  177.3150  139.1870 C   0  0  0  0  0  2  0  0  0  0  0  0
  189.8620  177.9970  140.0450 O   0  0  0  0  0  0  0  0  0  0  0  0
  188.4590  178.5890  140.0160 S   0  0  2  0  0  0  0  0  0  0  0  0
  187.9050  178.4730  141.7280 C   0  0  0  0  0  2  0  0  0  0  0  0
  188.7190  178.4220  144.1390 C   0  0  2  0  0  3  0  0  0  0  0  0
  189.0820  178.2340  142.6630 C   0  0  1  0  0  3  0  0  0  0  0  0
  189.8200  176.9340  142.2920 C   0  0  1  0  0  3  0  0  0  0  0  0
  190.3710  176.6920  144.8460 C   0  0  2  0  0  3  0  0  0  0  0  0
  191.5560  176.4800  145.5480 O   0  0  0  0  0  1  0  0  0  0  0  0
  190.5440  176.2190  143.3960 C   0  0  1  0  0  3  0  0  0  0  0  0
  189.2750  175.8030  142.9290 O   0  0  0  0  0  0  0  0  0  0  0  0
  189.9540  178.1490  144.9810 C   0  0  0  0  0  2  0  0  0  0  0  0
  187.6620  177.5830  144.5140 O   0  0  0  0  0  0  0  0  0  0  0  0
  185.8090  178.8390  145.3070 C   0  0  0  0  0  1  0  0  0  0  0  0
  187.1190  178.1700  145.6590 C   0  0  0  0  0  2  0  0  0  0  0  0
  189.8660  173.5230  134.9570 C   0  0  0  0  0  2  0  0  0  0  0  0
  190.8200  173.0210  136.0290 C   0  0  0  0  0  2  0  0  0  0  0  0
  193.0830  175.6750  137.7610 C   0  0  0  0  0  0  0  0  0  0  0  0
  194.2460  175.4520  137.1370 C   0  0  0  0  0  3  0  0  0  0  0  0
  194.2910  174.7260  135.8180 C   0  0  2  0  0  3  0  0  0  0  0  0
  193.1250  173.8320  135.6200 C   0  0  0  0  0  0  0  0  0  0  0  0
  190.7200  175.3480  137.7560 O   0  0  0  0  0  0  0  0  0  0  0  0
  192.9420  171.7990  134.3630 O   0  0  0  0  0  0  0  0  0  0  0  0
  195.1070  172.8200  134.8710 C   0  0  1  0  0  3  0  0  0  0  0  0
  191.8360  175.0500  137.2530 C   0  0  0  0  0  0  0  0  0  0  0  0
  193.6260  172.7130  134.8960 C   0  0  0  0  0  0  0  0  0  0  0  0
  191.9350  174.0010  136.2140 C   0  0  0  0  0  0  0  0  0  0  0  0
  193.0740  176.4690  139.0200 C   0  0  0  0  0  1  0  0  0  0  0  0
  195.4630  173.9420  135.6700 O   0  0  0  0  0  0  0  0  0  0  0  0
  196.2090  169.9210  136.8550 C   0  0  0  0  0  0  0  0  0  0  0  0
  195.7630  171.5890  135.4150 C   0  0  0  0  0  0  0  0  0  0  0  0
  196.0020  169.0890  138.0770 C   0  0  0  0  0  1  0  0  0  0  0  0
  197.2050  169.6740  135.9150 C   0  0  0  0  0  0  0  0  0  0  0  0
  197.0850  170.8310  134.7000 S   0  0  0  0  0  0  0  0  0  0  0  0
  198.2140  168.5800  135.9570 C   0  0  0  0  0  1  0  0  0  0  0  0
  195.4150  170.9880  136.5790 N   0  0  0  0  0  0  0  0  0  0  0  0
  1 22  1  6  0  0  0
  2  4  1  0  0  0  0
  3  6  1  0  0  0  0
  5  7  1  0  0  0  0
  5  3  1  0  0  0  0
  6  2  2  0  0  0  0
  7  8  2  0  0  0  0
  8  1  1  0  0  0  0
  8  2  1  0  0  0  0
  9 10  1  0  0  0  0
  9  3  1  0  0  0  0
 10 11  1  0  0  0  0
 11 12  1  0  0  0  0
 12 21  1  0  0  0  0
 14 20  1  0  0  0  0
 14 17  1  0  0  0  0
 15 13  1  0  0  0  0
 16 13  1  0  0  0  0
 17 15  1  0  0  0  0
 19 16  1  0  0  0  0
 19 18  2  0  0  0  0
 20 16  1  0  0  0  0
 21 19  1  0  0  0  0
 23 26  1  0  0  0  0
 23 29  1  0  0  0  0
 25 24  1  1  0  0  0
 25 28  1  0  0  0  0
 26 25  1  0  0  0  0
 27 28  1  0  0  0  0
 28 30  1  0  0  0  0
 29 22  1  6  0  0  0
 29 27  1  0  0  0  0
 30 32  1  0  0  0  0
 32 31  2  1  0  0  0
 32 33  1  0  0  0  0
 34 42  1  1  0  0  0
 34 41  1  0  0  0  0
 35 33  1  6  0  0  0
 35 34  1  0  0  0  0
 36 35  1  0  0  0  0
 36 40  1  1  0  0  0
 36 39  1  0  0  0  0
 37 41  1  0  0  0  0
 37 38  1  1  0  0  0
 39 40  1  1  0  0  0
 39 37  1  0  0  0  0
 42 44  1  0  0  0  0
 43 44  1  0  0  0  0
 45  1  1  0  0  0  0
 45 46  1  0  0  0  0
 46 56  1  0  0  0  0
 47 57  1  0  0  0  0
 48 47  2  0  0  0  0
 49 48  1  1  0  0  0
 50 49  1  0  0  0  0
 50 56  2  0  0  0  0
 52 55  2  0  0  0  0
 53 55  1  0  0  0  0
 53 60  1  1  0  0  0
 53 58  1  0  0  0  0
 54 51  2  0  0  0  0
 54 47  1  0  0  0  0
 55 50  1  0  0  0  0
 56 54  1  0  0  0  0
 58 49  1  0  0  0  0
 59 61  1  0  0  0  0
 60 65  2  0  0  0  0
 62 64  1  0  0  0  0
 62 59  2  0  0  0  0
 63 60  1  0  0  0  0
 63 62  1  0  0  0  0
 65 59  1  0  0  0  0
M  END
>  <MODEL>
9

>  <REMARK>
 VINA RESULT:      -5.9      3.225     11.196
  Name = 
  18 active torsions:
  status: ('A' for Active; 'I' for Inactive)
    1  A    between atoms: C_1  and  O_34
    2  A    between atoms: C_2  and  S_30
    3  A    between atoms: C_2  and  N_46
    4  A    between atoms: C_3  and  C_41
    5  A    between atoms: C_3  and  O_47
    6  A    between atoms: C_10  and  C_40
    7  A    between atoms: C_13  and  C_28
    8  A    between atoms: C_13  and  C_59
    9  A    between atoms: N_15  and  C_41
   10  A    between atoms: C_20  and  C_52
   11  A    between atoms: C_25  and  O_47
   12  A    between atoms: C_25  and  N_63
   13  A    between atoms: C_28  and  C_32
   14  A    between atoms: C_28  and  C_65
   15  A    between atoms: S_30  and  C_52
   16  A    between atoms: C_32  and  C_62
   17  A    between atoms: O_34  and  C_36
   18  A    between atoms: C_56  and  C_59
                            x       y       z     vdW  Elec       q    Type
                         _______ _______ _______ _____ _____    ______ ____

>  <TORSDO>
F 18

$$$$
