=
 OpenBabel10222421543D

 40 44  0  0  1  0  0  0  0  0999 V2000
  188.0140  177.0800  142.5670 N   0  0  0  0  0  0  0  0  0  0  0  0
  186.5430  177.4230  144.2890 C   0  0  2  0  0  3  0  0  0  0  0  0
  187.2940  178.2430  142.2410 C   0  0  0  0  0  0  0  0  0  0  0  0
  187.6030  176.5250  143.7890 N   0  0  0  0  0  2  0  0  0  0  0  0
  187.5070  178.9320  141.2080 O   0  0  0  0  0  0  0  0  0  0  0  0
  186.2960  178.5530  143.2710 C   0  0  1  0  0  3  0  0  0  0  0  0
  184.9000  178.4720  142.7200 C   0  0  0  0  0  0  0  0  0  0  0  0
  182.3760  178.3120  141.7070 N   0  0  0  0  0  0  0  0  0  0  0  0
  184.6720  177.8670  141.5220 N   0  0  0  0  0  0  0  0  0  0  0  0
  182.5720  178.9130  142.8810 N   0  0  0  0  0  0  0  0  0  0  0  0
  183.1920  177.1400  139.7670 N   0  0  0  0  0  1  0  0  0  0  0  0
  183.9860  179.6870  144.7410 C   0  0  0  0  0  1  0  0  0  0  0  0
  183.8150  179.0130  143.4220 C   0  0  0  0  0  0  0  0  0  0  0  0
  183.4170  177.7840  141.0150 C   0  0  0  0  0  0  0  0  0  0  0  0
  186.9090  177.9780  145.6640 C   0  0  0  0  0  2  0  0  0  0  0  0
  187.7240  177.4250  147.9580 C   0  0  2  0  0  3  0  0  0  0  0  0
  188.9390  177.5770  147.0530 C   0  0  1  0  0  0  0  0  0  0  0  0
  187.6640  176.9620  146.5170 C   0  0  2  0  0  3  0  0  0  0  0  0
  188.6590  178.6020  148.1330 C   0  0  0  0  0  2  0  0  0  0  0  0
  189.9360  176.5210  147.4940 C   0  0  0  0  0  2  0  0  0  0  0  0
  191.2820  177.1500  145.4550 N   0  0  0  0  0  1  0  0  0  0  0  0
  191.2440  176.7320  146.8150 C   0  0  0  0  0  0  0  0  0  0  0  0
  192.3170  176.5700  147.4520 O   0  0  0  0  0  0  0  0  0  0  0  0
  189.1080  176.5500  141.7580 C   0  0  0  0  0  2  0  0  0  0  0  0
  190.3910  177.3340  141.9670 C   0  0  0  0  0  2  0  0  0  0  0  0
  191.2290  177.2880  140.7050 C   0  0  0  0  0  2  0  0  0  0  0  0
  190.3480  177.0030  139.5020 C   0  0  0  0  0  2  0  0  0  0  0  0
  189.0040  178.3550  137.8550 C   0  0  0  0  0  0  0  0  0  0  0  0
  188.1180  177.2510  137.6370 N   0  0  0  0  0  2  0  0  0  0  0  0
  188.8290  179.4420  137.2440 O   0  0  0  0  0  0  0  0  0  0  0  0
  190.0930  178.2320  138.7690 N   0  0  0  0  0  2  0  0  0  0  0  0
  185.9150  178.5470  138.4430 O   0  0  0  0  0  1  0  0  0  0  0  0
  187.3470  177.3560  135.2070 C   0  0  0  0  0  1  0  0  0  0  0  0
  185.7750  178.0720  137.1370 C   0  0  1  0  0  3  0  0  0  0  0  0
  187.0060  177.2960  136.6920 C   0  0  2  0  0  0  0  0  0  0  0  0
  185.7690  176.5430  137.1580 C   0  0  2  0  0  3  0  0  0  0  0  0
  184.9110  176.0270  136.0120 C   0  0  0  0  0  2  0  0  0  0  0  0
  184.9680  174.6330  135.9730 O   0  0  0  0  0  0  0  0  0  0  0  0
  184.6270  172.7720  137.4160 C   0  0  0  0  0  1  0  0  0  0  0  0
  184.9680  174.2460  137.3150 C   0  0  0  0  0  2  0  0  0  0  0  0
  1  4  1  0  0  0  0
  2 15  1  1  0  0  0
  3  1  1  0  0  0  0
  3  6  1  0  0  0  0
  4  2  1  0  0  0  0
  5  3  2  0  0  0  0
  6  7  1  6  0  0  0
  6  2  1  0  0  0  0
  7 13  1  0  0  0  0
  8 10  1  0  0  0  0
  9  7  2  0  0  0  0
 10 13  2  0  0  0  0
 11 14  1  0  0  0  0
 13 12  1  0  0  0  0
 14  9  1  0  0  0  0
 14  8  2  0  0  0  0
 16 19  1  6  0  0  0
 17 20  1  1  0  0  0
 17 16  1  0  0  0  0
 17 19  1  0  0  0  0
 18 15  1  6  0  0  0
 18 17  1  0  0  0  0
 18 16  1  0  0  0  0
 21 22  1  0  0  0  0
 22 23  2  0  0  0  0
 22 20  1  0  0  0  0
 24 25  1  0  0  0  0
 24  1  1  0  0  0  0
 26 25  1  0  0  0  0
 27 26  1  0  0  0  0
 28 31  1  0  0  0  0
 29 28  1  0  0  0  0
 30 28  2  0  0  0  0
 31 27  1  0  0  0  0
 34 36  1  0  0  0  0
 34 32  1  1  0  0  0
 35 33  1  6  0  0  0
 35 34  1  0  0  0  0
 35 36  1  0  0  0  0
 35 29  1  0  0  0  0
 36 37  1  6  0  0  0
 38 37  1  0  0  0  0
 38 40  1  0  0  0  0
 40 39  1  0  0  0  0
M  END
>  <MODEL>
1

>  <REMARK>
 VINA RESULT:      -7.6      0.000      0.000
  Name = 
  14 active torsions:
  status: ('A' for Active; 'I' for Inactive)
    1  A    between atoms: O_1  and  C_3
    2  A    between atoms: O_1  and  C_38
    3  A    between atoms: N_2  and  C_21
    4  A    between atoms: C_3  and  C_31
    5  A    between atoms: C_5  and  C_16
    6  A    between atoms: C_5  and  C_29
    7  A    between atoms: C_6  and  C_39
    8  A    between atoms: N_8  and  C_30
    9  A    between atoms: C_9  and  C_11
   10  A    between atoms: C_9  and  C_35
   11  A    between atoms: C_14  and  C_18
   12  A    between atoms: C_14  and  C_22
   13  A    between atoms: C_18  and  N_37
   14  A    between atoms: C_21  and  C_22
                            x       y       z     vdW  Elec       q    Type
                         _______ _______ _______ _____ _____    ______ ____

>  <TORSDO>
F 14

$$$$
=
 OpenBabel10222421543D

 40 44  0  0  1  0  0  0  0  0999 V2000
  186.4830  178.3820  141.5940 N   0  0  0  0  0  0  0  0  0  0  0  0
  184.8700  178.0180  143.1780 C   0  0  2  0  0  3  0  0  0  0  0  0
  185.3510  179.0990  141.1700 C   0  0  0  0  0  0  0  0  0  0  0  0
  186.2590  177.6950  142.7980 N   0  0  0  0  0  2  0  0  0  0  0  0
  185.3220  179.8150  140.1340 O   0  0  0  0  0  0  0  0  0  0  0  0
  184.2330  178.9210  142.1040 C   0  0  1  0  0  3  0  0  0  0  0  0
  183.0760  178.2230  141.4450 C   0  0  0  0  0  0  0  0  0  0  0  0
  180.9930  176.9460  140.2390 N   0  0  0  0  0  0  0  0  0  0  0  0
  183.2970  177.3470  140.4270 N   0  0  0  0  0  0  0  0  0  0  0  0
  180.7490  177.8020  141.2320 N   0  0  0  0  0  0  0  0  0  0  0  0
  182.5100  175.7870  138.7700 N   0  0  0  0  0  1  0  0  0  0  0  0
  181.4400  179.4020  142.9700 C   0  0  0  0  0  1  0  0  0  0  0  0
  181.7590  178.4590  141.8600 C   0  0  0  0  0  0  0  0  0  0  0  0
  182.2630  176.7080  139.8250 C   0  0  0  0  0  0  0  0  0  0  0  0
  184.8240  178.6700  144.5580 C   0  0  0  0  0  2  0  0  0  0  0  0
  185.2190  178.3960  147.0070 C   0  0  2  0  0  3  0  0  0  0  0  0
  186.5750  178.5040  146.3230 C   0  0  1  0  0  0  0  0  0  0  0  0
  185.4340  177.7830  145.6390 C   0  0  2  0  0  3  0  0  0  0  0  0
  186.0800  179.6240  147.2150 C   0  0  0  0  0  2  0  0  0  0  0  0
  187.4990  177.5440  147.0500 C   0  0  0  0  0  2  0  0  0  0  0  0
  189.9380  176.8980  147.0510 N   0  0  0  0  0  1  0  0  0  0  0  0
  188.8410  177.5320  146.4040 C   0  0  0  0  0  0  0  0  0  0  0  0
  188.9980  178.0570  145.2710 O   0  0  0  0  0  0  0  0  0  0  0  0
  187.7660  178.4060  140.8960 C   0  0  0  0  0  2  0  0  0  0  0  0
  188.9340  178.3820  141.8660 C   0  0  0  0  0  2  0  0  0  0  0  0
  189.7720  177.1430  141.6250 C   0  0  0  0  0  2  0  0  0  0  0  0
  190.6230  177.3200  140.3810 C   0  0  0  0  0  2  0  0  0  0  0  0
  190.0180  176.0510  138.2910 C   0  0  0  0  0  0  0  0  0  0  0  0
  189.4180  177.2220  137.7250 N   0  0  0  0  0  2  0  0  0  0  0  0
  190.0310  174.9680  137.6480 O   0  0  0  0  0  0  0  0  0  0  0  0
  190.6080  176.1010  139.5890 N   0  0  0  0  0  2  0  0  0  0  0  0
  187.3230  178.8690  137.4470 O   0  0  0  0  0  1  0  0  0  0  0  0
  189.6440  177.0070  135.1930 C   0  0  0  0  0  1  0  0  0  0  0  0
  187.6060  178.2020  136.2530 C   0  0  1  0  0  3  0  0  0  0  0  0
  188.7660  177.2320  136.4190 C   0  0  2  0  0  0  0  0  0  0  0  0
  187.3370  176.7080  136.4380 C   0  0  2  0  0  3  0  0  0  0  0  0
  186.8990  176.1070  135.1100 C   0  0  0  0  0  2  0  0  0  0  0  0
  185.6230  175.5570  135.2420 O   0  0  0  0  0  0  0  0  0  0  0  0
  184.6320  173.4520  135.7380 C   0  0  0  0  0  1  0  0  0  0  0  0
  185.8250  174.1790  135.1480 C   0  0  0  0  0  2  0  0  0  0  0  0
  1  4  1  0  0  0  0
  2 15  1  1  0  0  0
  3  1  1  0  0  0  0
  3  6  1  0  0  0  0
  4  2  1  0  0  0  0
  5  3  2  0  0  0  0
  6  7  1  6  0  0  0
  6  2  1  0  0  0  0
  7 13  1  0  0  0  0
  8 10  1  0  0  0  0
  9  7  2  0  0  0  0
 10 13  2  0  0  0  0
 11 14  1  0  0  0  0
 13 12  1  0  0  0  0
 14  8  2  0  0  0  0
 14  9  1  0  0  0  0
 16 19  1  6  0  0  0
 17 16  1  0  0  0  0
 17 20  1  1  0  0  0
 17 19  1  0  0  0  0
 18 15  1  6  0  0  0
 18 17  1  0  0  0  0
 18 16  1  0  0  0  0
 22 20  1  0  0  0  0
 22 21  1  0  0  0  0
 23 22  2  0  0  0  0
 24  1  1  0  0  0  0
 24 25  1  0  0  0  0
 26 25  1  0  0  0  0
 27 26  1  0  0  0  0
 28 31  1  0  0  0  0
 29 28  1  0  0  0  0
 30 28  2  0  0  0  0
 31 27  1  0  0  0  0
 34 35  1  0  0  0  0
 34 36  1  0  0  0  0
 34 32  1  1  0  0  0
 35 33  1  6  0  0  0
 35 36  1  0  0  0  0
 35 29  1  0  0  0  0
 36 37  1  6  0  0  0
 37 38  1  0  0  0  0
 40 38  1  0  0  0  0
 40 39  1  0  0  0  0
M  END
>  <MODEL>
2

>  <REMARK>
 VINA RESULT:      -7.4      1.895      2.408
  Name = 
  14 active torsions:
  status: ('A' for Active; 'I' for Inactive)
    1  A    between atoms: O_1  and  C_3
    2  A    between atoms: O_1  and  C_38
    3  A    between atoms: N_2  and  C_21
    4  A    between atoms: C_3  and  C_31
    5  A    between atoms: C_5  and  C_16
    6  A    between atoms: C_5  and  C_29
    7  A    between atoms: C_6  and  C_39
    8  A    between atoms: N_8  and  C_30
    9  A    between atoms: C_9  and  C_11
   10  A    between atoms: C_9  and  C_35
   11  A    between atoms: C_14  and  C_18
   12  A    between atoms: C_14  and  C_22
   13  A    between atoms: C_18  and  N_37
   14  A    between atoms: C_21  and  C_22
                            x       y       z     vdW  Elec       q    Type
                         _______ _______ _______ _____ _____    ______ ____

>  <TORSDO>
F 14

$$$$
=
 OpenBabel10222421543D

 40 44  0  0  1  0  0  0  0  0999 V2000
  189.9270  177.3060  142.1030 N   0  0  0  0  0  0  0  0  0  0  0  0
  188.0130  177.8190  143.2500 C   0  0  2  0  0  3  0  0  0  0  0  0
  189.8150  176.3470  143.1250 C   0  0  0  0  0  0  0  0  0  0  0  0
  188.8750  178.2350  142.1270 N   0  0  0  0  0  2  0  0  0  0  0  0
  190.6250  175.3950  143.2850 O   0  0  0  0  0  0  0  0  0  0  0  0
  188.6250  176.5900  143.9490 C   0  0  1  0  0  3  0  0  0  0  0  0
  189.0010  176.9200  145.3670 C   0  0  0  0  0  0  0  0  0  0  0  0
  189.7030  177.5170  147.9310 N   0  0  0  0  0  0  0  0  0  0  0  0
  190.2860  176.7630  145.7870 N   0  0  0  0  0  0  0  0  0  0  0  0
  188.4360  177.6770  147.5450 N   0  0  0  0  0  0  0  0  0  0  0  0
  191.9880  176.9020  147.4850 N   0  0  0  0  0  1  0  0  0  0  0  0
  186.6190  177.5920  145.8870 C   0  0  0  0  0  1  0  0  0  0  0  0
  188.0450  177.3920  146.2760 C   0  0  0  0  0  0  0  0  0  0  0  0
  190.6400  177.0610  147.0620 C   0  0  0  0  0  0  0  0  0  0  0  0
  186.5920  177.5390  142.7670 C   0  0  0  0  0  2  0  0  0  0  0  0
  185.0390  179.4860  142.6080 C   0  0  2  0  0  3  0  0  0  0  0  0
  184.5810  178.4390  141.6020 C   0  0  1  0  0  0  0  0  0  0  0  0
  186.0570  178.6480  141.8650 C   0  0  2  0  0  3  0  0  0  0  0  0
  183.7440  178.7350  142.8290 C   0  0  0  0  0  2  0  0  0  0  0  0
  184.1100  179.2010  140.3770 C   0  0  0  0  0  2  0  0  0  0  0  0
  183.0580  176.9630  139.8780 N   0  0  0  0  0  1  0  0  0  0  0  0
  183.2730  178.3210  139.5140 C   0  0  0  0  0  0  0  0  0  0  0  0
  182.7320  178.7880  138.4780 O   0  0  0  0  0  0  0  0  0  0  0  0
  190.9820  177.2940  141.0940 C   0  0  0  0  0  2  0  0  0  0  0  0
  190.4170  177.1340  139.6930 C   0  0  0  0  0  2  0  0  0  0  0  0
  191.3530  176.2820  138.8600 C   0  0  0  0  0  2  0  0  0  0  0  0
  191.2320  176.6530  137.3930 C   0  0  0  0  0  2  0  0  0  0  0  0
  189.0710  175.9110  136.3330 C   0  0  0  0  0  0  0  0  0  0  0  0
  188.4560  177.1640  136.6550 N   0  0  0  0  0  2  0  0  0  0  0  0
  188.4190  175.0190  135.7290 O   0  0  0  0  0  0  0  0  0  0  0  0
  190.4300  175.6630  136.6930 N   0  0  0  0  0  2  0  0  0  0  0  0
  187.0740  178.4680  138.5440 O   0  0  0  0  0  1  0  0  0  0  0  0
  186.7120  177.7710  134.8940 C   0  0  0  0  0  1  0  0  0  0  0  0
  186.2960  178.2500  137.4040 C   0  0  1  0  0  3  0  0  0  0  0  0
  187.0630  177.4700  136.3470 C   0  0  2  0  0  0  0  0  0  0  0  0
  186.0610  176.7490  137.2380 C   0  0  2  0  0  3  0  0  0  0  0  0
  184.7140  176.5210  136.5670 C   0  0  0  0  0  2  0  0  0  0  0  0
  184.1630  175.3200  137.0150 O   0  0  0  0  0  0  0  0  0  0  0  0
  184.9530  173.1930  137.7300 C   0  0  0  0  0  1  0  0  0  0  0  0
  185.1690  174.3740  136.8050 C   0  0  0  0  0  2  0  0  0  0  0  0
  1  4  1  0  0  0  0
  1  3  1  0  0  0  0
  2 15  1  6  0  0  0
  2  6  1  0  0  0  0
  3  5  2  0  0  0  0
  3  6  1  0  0  0  0
  4  2  1  0  0  0  0
  6  7  1  1  0  0  0
  7  9  2  0  0  0  0
  7 13  1  0  0  0  0
  9 14  1  0  0  0  0
 10  8  1  0  0  0  0
 12 13  1  0  0  0  0
 13 10  2  0  0  0  0
 14 11  1  0  0  0  0
 14  8  2  0  0  0  0
 16 19  1  1  0  0  0
 17 20  1  6  0  0  0
 17 18  1  0  0  0  0
 17 16  1  0  0  0  0
 17 19  1  0  0  0  0
 18 16  1  0  0  0  0
 18 15  1  1  0  0  0
 22 21  1  0  0  0  0
 22 20  1  0  0  0  0
 23 22  2  0  0  0  0
 24  1  1  0  0  0  0
 25 24  1  0  0  0  0
 26 25  1  0  0  0  0
 27 26  1  0  0  0  0
 28 29  1  0  0  0  0
 28 31  1  0  0  0  0
 30 28  2  0  0  0  0
 31 27  1  0  0  0  0
 34 32  1  1  0  0  0
 35 33  1  6  0  0  0
 35 29  1  0  0  0  0
 35 36  1  0  0  0  0
 35 34  1  0  0  0  0
 36 37  1  6  0  0  0
 36 34  1  0  0  0  0
 37 38  1  0  0  0  0
 40 38  1  0  0  0  0
 40 39  1  0  0  0  0
M  END
>  <MODEL>
3

>  <REMARK>
 VINA RESULT:      -7.2      1.819      5.679
  Name = 
  14 active torsions:
  status: ('A' for Active; 'I' for Inactive)
    1  A    between atoms: O_1  and  C_3
    2  A    between atoms: O_1  and  C_38
    3  A    between atoms: N_2  and  C_21
    4  A    between atoms: C_3  and  C_31
    5  A    between atoms: C_5  and  C_16
    6  A    between atoms: C_5  and  C_29
    7  A    between atoms: C_6  and  C_39
    8  A    between atoms: N_8  and  C_30
    9  A    between atoms: C_9  and  C_11
   10  A    between atoms: C_9  and  C_35
   11  A    between atoms: C_14  and  C_18
   12  A    between atoms: C_14  and  C_22
   13  A    between atoms: C_18  and  N_37
   14  A    between atoms: C_21  and  C_22
                            x       y       z     vdW  Elec       q    Type
                         _______ _______ _______ _____ _____    ______ ____

>  <TORSDO>
F 14

$$$$
=
 OpenBabel10222421543D

 40 44  0  0  1  0  0  0  0  0999 V2000
  188.6750  177.3750  141.7010 N   0  0  0  0  0  0  0  0  0  0  0  0
  187.0480  177.8360  143.2450 C   0  0  2  0  0  3  0  0  0  0  0  0
  188.8090  176.4060  142.7110 C   0  0  0  0  0  0  0  0  0  0  0  0
  187.6340  178.2800  141.9660 N   0  0  0  0  0  2  0  0  0  0  0  0
  189.6530  175.4720  142.6790 O   0  0  0  0  0  0  0  0  0  0  0  0
  187.8230  176.6160  143.7780 C   0  0  1  0  0  3  0  0  0  0  0  0
  188.4930  176.9440  145.0830 C   0  0  0  0  0  0  0  0  0  0  0  0
  189.7260  177.5410  147.4390 N   0  0  0  0  0  0  0  0  0  0  0  0
  189.8510  176.9440  145.1730 N   0  0  0  0  0  0  0  0  0  0  0  0
  188.3940  177.5460  147.3780 N   0  0  0  0  0  0  0  0  0  0  0  0
  191.8890  177.2480  146.4210 N   0  0  0  0  0  1  0  0  0  0  0  0
  186.2490  177.2790  146.2000 C   0  0  0  0  0  1  0  0  0  0  0  0
  187.7400  177.2550  146.2230 C   0  0  0  0  0  0  0  0  0  0  0  0
  190.4690  177.2420  146.3440 C   0  0  0  0  0  0  0  0  0  0  0  0
  185.5610  177.5270  143.0800 C   0  0  0  0  0  2  0  0  0  0  0  0
  184.6780  179.6040  144.1450 C   0  0  2  0  0  3  0  0  0  0  0  0
  183.4890  178.7420  143.7420 C   0  0  1  0  0  0  0  0  0  0  0  0
  184.7270  178.7870  142.8710 C   0  0  2  0  0  3  0  0  0  0  0  0
  183.8230  178.9440  145.2060 C   0  0  0  0  0  2  0  0  0  0  0  0
  182.4160  179.6970  143.2520 C   0  0  0  0  0  2  0  0  0  0  0  0
  180.2680  179.1990  142.0260 N   0  0  0  0  0  1  0  0  0  0  0  0
  181.1060  178.9940  143.1570 C   0  0  0  0  0  0  0  0  0  0  0  0
  180.7530  178.1960  144.0640 O   0  0  0  0  0  0  0  0  0  0  0  0
  189.4830  177.3950  140.4860 C   0  0  0  0  0  2  0  0  0  0  0  0
  188.8940  178.3190  139.4340 C   0  0  0  0  0  2  0  0  0  0  0  0
  188.5630  177.5260  138.1860 C   0  0  0  0  0  2  0  0  0  0  0  0
  187.0720  177.5860  137.9080 C   0  0  0  0  0  2  0  0  0  0  0  0
  185.0660  178.7720  138.8640 C   0  0  0  0  0  0  0  0  0  0  0  0
  184.1970  177.7450  138.3740 N   0  0  0  0  0  2  0  0  0  0  0  0
  184.5990  179.7530  139.5000 O   0  0  0  0  0  0  0  0  0  0  0  0
  186.4730  178.6920  138.6360 N   0  0  0  0  0  2  0  0  0  0  0  0
  182.7290  177.2240  136.1940 O   0  0  0  0  0  1  0  0  0  0  0  0
  182.1820  177.3380  139.8850 C   0  0  0  0  0  1  0  0  0  0  0  0
  181.9190  177.4410  137.3110 C   0  0  1  0  0  3  0  0  0  0  0  0
  182.7470  177.7820  138.5410 C   0  0  2  0  0  0  0  0  0  0  0  0
  182.0640  178.8950  137.7590 C   0  0  2  0  0  3  0  0  0  0  0  0
  180.7590  179.3600  138.3900 C   0  0  0  0  0  2  0  0  0  0  0  0
  180.3760  180.5800  137.8310 O   0  0  0  0  0  0  0  0  0  0  0  0
  181.1480  182.8270  137.7070 C   0  0  0  0  0  1  0  0  0  0  0  0
  181.1610  181.5290  138.4900 C   0  0  0  0  0  2  0  0  0  0  0  0
  1  4  1  0  0  0  0
  1  3  1  0  0  0  0
  2 15  1  6  0  0  0
  2  6  1  0  0  0  0
  3  6  1  0  0  0  0
  4  2  1  0  0  0  0
  5  3  2  0  0  0  0
  6  7  1  1  0  0  0
  7  9  2  0  0  0  0
  7 13  1  0  0  0  0
  9 14  1  0  0  0  0
 10  8  1  0  0  0  0
 12 13  1  0  0  0  0
 13 10  2  0  0  0  0
 14 11  1  0  0  0  0
 14  8  2  0  0  0  0
 16 19  1  1  0  0  0
 17 20  1  6  0  0  0
 17 16  1  0  0  0  0
 17 19  1  0  0  0  0
 18 15  1  1  0  0  0
 18 17  1  0  0  0  0
 18 16  1  0  0  0  0
 21 22  1  0  0  0  0
 22 20  1  0  0  0  0
 22 23  2  0  0  0  0
 24  1  1  0  0  0  0
 25 24  1  0  0  0  0
 26 25  1  0  0  0  0
 27 26  1  0  0  0  0
 27 31  1  0  0  0  0
 28 30  2  0  0  0  0
 29 35  1  0  0  0  0
 29 28  1  0  0  0  0
 31 28  1  0  0  0  0
 34 32  1  6  0  0  0
 34 36  1  0  0  0  0
 34 35  1  0  0  0  0
 35 33  1  1  0  0  0
 36 37  1  1  0  0  0
 36 35  1  0  0  0  0
 38 37  1  0  0  0  0
 38 40  1  0  0  0  0
 39 40  1  0  0  0  0
M  END
>  <MODEL>
4

>  <REMARK>
 VINA RESULT:      -7.1      2.818      6.359
  Name = 
  14 active torsions:
  status: ('A' for Active; 'I' for Inactive)
    1  A    between atoms: O_1  and  C_3
    2  A    between atoms: O_1  and  C_38
    3  A    between atoms: N_2  and  C_21
    4  A    between atoms: C_3  and  C_31
    5  A    between atoms: C_5  and  C_16
    6  A    between atoms: C_5  and  C_29
    7  A    between atoms: C_6  and  C_39
    8  A    between atoms: N_8  and  C_30
    9  A    between atoms: C_9  and  C_11
   10  A    between atoms: C_9  and  C_35
   11  A    between atoms: C_14  and  C_18
   12  A    between atoms: C_14  and  C_22
   13  A    between atoms: C_18  and  N_37
   14  A    between atoms: C_21  and  C_22
                            x       y       z     vdW  Elec       q    Type
                         _______ _______ _______ _____ _____    ______ ____

>  <TORSDO>
F 14

$$$$
=
 OpenBabel10222421543D

 40 44  0  0  1  0  0  0  0  0999 V2000
  188.0860  177.0760  142.4650 N   0  0  0  0  0  0  0  0  0  0  0  0
  186.6040  177.4080  144.1780 C   0  0  2  0  0  3  0  0  0  0  0  0
  187.3720  178.2430  142.1430 C   0  0  0  0  0  0  0  0  0  0  0  0
  187.6650  176.5120  143.6800 N   0  0  0  0  0  2  0  0  0  0  0  0
  187.5930  178.9400  141.1160 O   0  0  0  0  0  0  0  0  0  0  0  0
  186.3660  178.5470  143.1680 C   0  0  1  0  0  3  0  0  0  0  0  0
  184.9740  178.4730  142.6060 C   0  0  0  0  0  0  0  0  0  0  0  0
  182.4580  178.3270  141.5710 N   0  0  0  0  0  0  0  0  0  0  0  0
  184.7660  177.9660  141.3600 N   0  0  0  0  0  0  0  0  0  0  0  0
  182.6340  178.8310  142.7940 N   0  0  0  0  0  0  0  0  0  0  0  0
  183.3110  177.3490  139.5420 N   0  0  0  0  0  1  0  0  0  0  0  0
  184.0220  179.4840  144.7190 C   0  0  0  0  0  1  0  0  0  0  0  0
  183.8720  178.9200  143.3460 C   0  0  0  0  0  0  0  0  0  0  0  0
  183.5150  177.8910  140.8410 C   0  0  0  0  0  0  0  0  0  0  0  0
  186.9600  177.9520  145.5610 C   0  0  0  0  0  2  0  0  0  0  0  0
  187.7300  177.3840  147.8660 C   0  0  2  0  0  3  0  0  0  0  0  0
  188.9590  177.4750  146.9710 C   0  0  1  0  0  0  0  0  0  0  0  0
  187.6630  176.9110  146.4290 C   0  0  2  0  0  3  0  0  0  0  0  0
  188.7150  178.5210  148.0400 C   0  0  0  0  0  2  0  0  0  0  0  0
  189.9050  176.3820  147.4300 C   0  0  0  0  0  2  0  0  0  0  0  0
  192.2860  176.8770  148.1030 N   0  0  0  0  0  1  0  0  0  0  0  0
  191.3090  176.7340  147.0780 C   0  0  0  0  0  0  0  0  0  0  0  0
  191.6380  176.8760  145.8720 O   0  0  0  0  0  0  0  0  0  0  0  0
  189.1850  176.5500  141.6590 C   0  0  0  0  0  2  0  0  0  0  0  0
  190.4760  176.4700  142.4550 C   0  0  0  0  0  2  0  0  0  0  0  0
  191.5080  177.3980  141.8470 C   0  0  0  0  0  2  0  0  0  0  0  0
  191.3860  177.3980  140.3340 C   0  0  0  0  0  2  0  0  0  0  0  0
  192.8860  176.5150  138.5130 C   0  0  0  0  0  0  0  0  0  0  0  0
  191.7660  175.9210  137.8470 N   0  0  0  0  0  2  0  0  0  0  0  0
  194.0450  176.4060  138.0320 O   0  0  0  0  0  0  0  0  0  0  0  0
  192.6980  177.2390  139.7290 N   0  0  0  0  0  2  0  0  0  0  0  0
  190.1980  173.7580  137.6430 O   0  0  0  0  0  1  0  0  0  0  0  0
  192.2100  175.8930  135.3350 C   0  0  0  0  0  1  0  0  0  0  0  0
  190.9660  173.9380  136.4910 C   0  0  1  0  0  3  0  0  0  0  0  0
  191.8910  175.1390  136.6210 C   0  0  2  0  0  0  0  0  0  0  0  0
  192.4420  173.7370  136.8360 C   0  0  2  0  0  3  0  0  0  0  0  0
  193.1730  173.1830  135.6210 C   0  0  0  0  0  2  0  0  0  0  0  0
  194.3390  172.5350  136.0300 O   0  0  0  0  0  0  0  0  0  0  0  0
  196.0640  173.2820  137.4870 C   0  0  0  0  0  1  0  0  0  0  0  0
  194.5800  173.0250  137.3150 C   0  0  0  0  0  2  0  0  0  0  0  0
  1  4  1  0  0  0  0
  2 15  1  1  0  0  0
  3  1  1  0  0  0  0
  3  6  1  0  0  0  0
  4  2  1  0  0  0  0
  5  3  2  0  0  0  0
  6  7  1  6  0  0  0
  6  2  1  0  0  0  0
  7 13  1  0  0  0  0
  8 10  1  0  0  0  0
  9  7  2  0  0  0  0
 10 13  2  0  0  0  0
 11 14  1  0  0  0  0
 13 12  1  0  0  0  0
 14  9  1  0  0  0  0
 14  8  2  0  0  0  0
 16 19  1  6  0  0  0
 17 20  1  1  0  0  0
 17 16  1  0  0  0  0
 17 19  1  0  0  0  0
 18 15  1  6  0  0  0
 18 17  1  0  0  0  0
 18 16  1  0  0  0  0
 22 20  1  0  0  0  0
 22 21  1  0  0  0  0
 23 22  2  0  0  0  0
 24 25  1  0  0  0  0
 24  1  1  0  0  0  0
 26 25  1  0  0  0  0
 27 26  1  0  0  0  0
 28 31  1  0  0  0  0
 29 28  1  0  0  0  0
 30 28  2  0  0  0  0
 31 27  1  0  0  0  0
 34 35  1  0  0  0  0
 34 36  1  0  0  0  0
 34 32  1  1  0  0  0
 35 33  1  6  0  0  0
 35 36  1  0  0  0  0
 35 29  1  0  0  0  0
 36 37  1  6  0  0  0
 37 38  1  0  0  0  0
 38 40  1  0  0  0  0
 40 39  1  0  0  0  0
M  END
>  <MODEL>
5

>  <REMARK>
 VINA RESULT:      -7.0      3.123      4.131
  Name = 
  14 active torsions:
  status: ('A' for Active; 'I' for Inactive)
    1  A    between atoms: O_1  and  C_3
    2  A    between atoms: O_1  and  C_38
    3  A    between atoms: N_2  and  C_21
    4  A    between atoms: C_3  and  C_31
    5  A    between atoms: C_5  and  C_16
    6  A    between atoms: C_5  and  C_29
    7  A    between atoms: C_6  and  C_39
    8  A    between atoms: N_8  and  C_30
    9  A    between atoms: C_9  and  C_11
   10  A    between atoms: C_9  and  C_35
   11  A    between atoms: C_14  and  C_18
   12  A    between atoms: C_14  and  C_22
   13  A    between atoms: C_18  and  N_37
   14  A    between atoms: C_21  and  C_22
                            x       y       z     vdW  Elec       q    Type
                         _______ _______ _______ _____ _____    ______ ____

>  <TORSDO>
F 14

$$$$
=
 OpenBabel10222421543D

 40 44  0  0  1  0  0  0  0  0999 V2000
  184.6740  179.0160  140.9970 N   0  0  0  0  0  0  0  0  0  0  0  0
  185.0600  178.7420  138.7560 C   0  0  2  0  0  3  0  0  0  0  0  0
  183.5320  178.3810  140.4780 C   0  0  0  0  0  0  0  0  0  0  0  0
  185.6360  179.2730  140.0070 N   0  0  0  0  0  2  0  0  0  0  0  0
  182.5480  178.0240  141.1800 O   0  0  0  0  0  0  0  0  0  0  0  0
  183.6550  178.1710  139.0310 C   0  0  1  0  0  3  0  0  0  0  0  0
  182.6130  178.9480  138.2760 C   0  0  0  0  0  0  0  0  0  0  0  0
  180.7310  180.3730  136.9150 N   0  0  0  0  0  0  0  0  0  0  0  0
  182.4210  180.2690  138.5400 N   0  0  0  0  0  0  0  0  0  0  0  0
  180.8970  179.0790  136.6390 N   0  0  0  0  0  0  0  0  0  0  0  0
  181.3030  182.3660  138.1420 N   0  0  0  0  0  1  0  0  0  0  0  0
  181.9800  176.8910  136.9480 C   0  0  0  0  0  1  0  0  0  0  0  0
  181.8250  178.3330  137.2940 C   0  0  0  0  0  0  0  0  0  0  0  0
  181.4860  180.9830  137.8630 C   0  0  0  0  0  0  0  0  0  0  0  0
  185.9810  177.6900  138.1420 C   0  0  0  0  0  2  0  0  0  0  0  0
  187.8710  178.5840  136.7780 C   0  0  2  0  0  3  0  0  0  0  0  0
  188.2680  177.2020  137.2790 C   0  0  1  0  0  0  0  0  0  0  0  0
  187.4450  178.1210  138.1560 C   0  0  2  0  0  3  0  0  0  0  0  0
  187.9890  177.4280  135.8070 C   0  0  0  0  0  2  0  0  0  0  0  0
  189.7460  177.2750  137.6110 C   0  0  0  0  0  2  0  0  0  0  0  0
  190.2240  174.8000  137.7290 N   0  0  0  0  0  1  0  0  0  0  0  0
  190.1640  176.0660  138.3750 C   0  0  0  0  0  0  0  0  0  0  0  0
  190.4920  176.1700  139.5850 O   0  0  0  0  0  0  0  0  0  0  0  0
  184.8630  179.3110  142.4140 C   0  0  0  0  0  2  0  0  0  0  0  0
  185.0550  178.0450  143.2300 C   0  0  0  0  0  2  0  0  0  0  0  0
  184.5830  178.2780  144.6510 C   0  0  0  0  0  2  0  0  0  0  0  0
  185.5660  179.1680  145.3900 C   0  0  0  0  0  2  0  0  0  0  0  0
  187.6940  177.9640  145.9940 C   0  0  0  0  0  0  0  0  0  0  0  0
  188.2860  178.3350  144.7440 N   0  0  0  0  0  2  0  0  0  0  0  0
  188.3420  177.2750  146.8260 O   0  0  0  0  0  0  0  0  0  0  0  0
  186.3640  178.3740  146.3100 N   0  0  0  0  0  2  0  0  0  0  0  0
  188.4550  176.1300  143.2320 O   0  0  0  0  0  1  0  0  0  0  0  0
  190.6570  179.0170  144.0960 C   0  0  0  0  0  1  0  0  0  0  0  0
  189.7140  176.6950  143.4470 C   0  0  1  0  0  3  0  0  0  0  0  0
  189.6270  177.9210  144.3440 C   0  0  2  0  0  0  0  0  0  0  0  0
  190.0630  176.5870  144.9320 C   0  0  2  0  0  3  0  0  0  0  0  0
  191.5720  176.4620  145.0860 C   0  0  0  0  0  2  0  0  0  0  0  0
  191.9830  177.1230  146.2450 O   0  0  0  0  0  0  0  0  0  0  0  0
  192.5640  175.4330  147.8150 C   0  0  0  0  0  1  0  0  0  0  0  0
  191.4750  176.3470  147.2890 C   0  0  0  0  0  2  0  0  0  0  0  0
  1 24  1  0  0  0  0
  2 15  1  1  0  0  0
  2  6  1  0  0  0  0
  2  4  1  0  0  0  0
  3  1  1  0  0  0  0
  3  5  2  0  0  0  0
  4  1  1  0  0  0  0
  6  7  1  6  0  0  0
  6  3  1  0  0  0  0
  7  9  2  0  0  0  0
  8 14  2  0  0  0  0
 10  8  1  0  0  0  0
 10 13  2  0  0  0  0
 12 13  1  0  0  0  0
 13  7  1  0  0  0  0
 14 11  1  0  0  0  0
 14  9  1  0  0  0  0
 16 19  1  6  0  0  0
 16 17  1  0  0  0  0
 16 18  1  0  0  0  0
 17 20  1  1  0  0  0
 17 18  1  0  0  0  0
 18 15  1  6  0  0  0
 19 17  1  0  0  0  0
 20 22  1  0  0  0  0
 21 22  1  0  0  0  0
 22 23  2  0  0  0  0
 24 25  1  0  0  0  0
 25 26  1  0  0  0  0
 26 27  1  0  0  0  0
 27 31  1  0  0  0  0
 28 31  1  0  0  0  0
 28 30  2  0  0  0  0
 29 28  1  0  0  0  0
 34 32  1  1  0  0  0
 34 35  1  0  0  0  0
 34 36  1  0  0  0  0
 35 33  1  6  0  0  0
 35 29  1  0  0  0  0
 35 36  1  0  0  0  0
 36 37  1  6  0  0  0
 37 38  1  0  0  0  0
 38 40  1  0  0  0  0
 40 39  1  0  0  0  0
M  END
>  <MODEL>
6

>  <REMARK>
 VINA RESULT:      -7.0      2.768      8.141
  Name = 
  14 active torsions:
  status: ('A' for Active; 'I' for Inactive)
    1  A    between atoms: O_1  and  C_3
    2  A    between atoms: O_1  and  C_38
    3  A    between atoms: N_2  and  C_21
    4  A    between atoms: C_3  and  C_31
    5  A    between atoms: C_5  and  C_16
    6  A    between atoms: C_5  and  C_29
    7  A    between atoms: C_6  and  C_39
    8  A    between atoms: N_8  and  C_30
    9  A    between atoms: C_9  and  C_11
   10  A    between atoms: C_9  and  C_35
   11  A    between atoms: C_14  and  C_18
   12  A    between atoms: C_14  and  C_22
   13  A    between atoms: C_18  and  N_37
   14  A    between atoms: C_21  and  C_22
                            x       y       z     vdW  Elec       q    Type
                         _______ _______ _______ _____ _____    ______ ____

>  <TORSDO>
F 14

$$$$
=
 OpenBabel10222421543D

 40 44  0  0  1  0  0  0  0  0999 V2000
  183.5390  178.0870  139.7280 N   0  0  0  0  0  0  0  0  0  0  0  0
  184.1370  176.7240  137.9880 C   0  0  2  0  0  3  0  0  0  0  0  0
  184.2800  178.8880  138.8410 C   0  0  0  0  0  0  0  0  0  0  0  0
  183.4220  176.7620  139.2780 N   0  0  0  0  0  2  0  0  0  0  0  0
  184.4920  180.1170  139.0170 O   0  0  0  0  0  0  0  0  0  0  0  0
  184.7410  178.1090  137.6860 C   0  0  1  0  0  3  0  0  0  0  0  0
  186.2420  178.0330  137.6430 C   0  0  0  0  0  0  0  0  0  0  0  0
  188.9620  177.8920  137.5860 N   0  0  0  0  0  0  0  0  0  0  0  0
  186.9630  178.1030  138.7950 N   0  0  0  0  0  0  0  0  0  0  0  0
  188.2800  177.8240  136.4420 N   0  0  0  0  0  0  0  0  0  0  0  0
  189.0580  178.0950  139.9840 N   0  0  0  0  0  1  0  0  0  0  0  0
  186.2000  177.8020  135.1250 C   0  0  0  0  0  1  0  0  0  0  0  0
  186.9230  177.8890  136.4270 C   0  0  0  0  0  0  0  0  0  0  0  0
  188.3170  178.0320  138.7710 C   0  0  0  0  0  0  0  0  0  0  0  0
  183.2060  176.2630  136.8680 C   0  0  0  0  0  2  0  0  0  0  0  0
  182.8920  174.2100  135.4840 C   0  0  2  0  0  3  0  0  0  0  0  0
  183.9200  173.8950  136.5630 C   0  0  1  0  0  0  0  0  0  0  0  0
  183.8800  175.2680  135.9270 C   0  0  2  0  0  3  0  0  0  0  0  0
  182.5470  173.2550  136.6070 C   0  0  0  0  0  2  0  0  0  0  0  0
  184.9600  173.0000  135.9150 C   0  0  0  0  0  2  0  0  0  0  0  0
  187.2340  172.0420  136.4400 N   0  0  0  0  0  1  0  0  0  0  0  0
  186.0460  172.6860  136.8850 C   0  0  0  0  0  0  0  0  0  0  0  0
  185.9260  173.0190  138.0920 O   0  0  0  0  0  0  0  0  0  0  0  0
  182.9080  178.5950  140.9430 C   0  0  0  0  0  2  0  0  0  0  0  0
  183.6460  178.1420  142.1900 C   0  0  0  0  0  2  0  0  0  0  0  0
  184.8130  179.0720  142.4570 C   0  0  0  0  0  2  0  0  0  0  0  0
  186.1090  178.2840  142.5070 C   0  0  0  0  0  2  0  0  0  0  0  0
  187.7640  177.7490  144.3290 C   0  0  0  0  0  0  0  0  0  0  0  0
  188.8570  177.9340  143.4220 N   0  0  0  0  0  2  0  0  0  0  0  0
  187.9790  177.4340  145.5290 O   0  0  0  0  0  0  0  0  0  0  0  0
  186.4200  177.9220  143.8800 N   0  0  0  0  0  2  0  0  0  0  0  0
  190.1230  175.8520  142.3070 O   0  0  0  0  0  1  0  0  0  0  0  0
  191.0820  178.9830  144.1000 C   0  0  0  0  0  1  0  0  0  0  0  0
  190.9790  176.5830  143.1340 C   0  0  1  0  0  3  0  0  0  0  0  0
  190.2520  177.7380  143.8050 C   0  0  2  0  0  0  0  0  0  0  0  0
  190.5050  176.4550  144.5820 C   0  0  2  0  0  3  0  0  0  0  0  0
  191.7050  176.5420  145.5140 C   0  0  0  0  0  2  0  0  0  0  0  0
  191.2770  176.4570  146.8400 O   0  0  0  0  0  0  0  0  0  0  0  0
  192.8260  175.9480  148.5730 C   0  0  0  0  0  1  0  0  0  0  0  0
  192.0390  175.4230  147.3880 C   0  0  0  0  0  2  0  0  0  0  0  0
  1 24  1  0  0  0  0
  2 15  1  6  0  0  0
  2  4  1  0  0  0  0
  3  5  2  0  0  0  0
  3  1  1  0  0  0  0
  4  1  1  0  0  0  0
  6  7  1  1  0  0  0
  6  2  1  0  0  0  0
  6  3  1  0  0  0  0
  7  9  2  0  0  0  0
  8 14  2  0  0  0  0
 10  8  1  0  0  0  0
 12 13  1  0  0  0  0
 13 10  2  0  0  0  0
 13  7  1  0  0  0  0
 14  9  1  0  0  0  0
 14 11  1  0  0  0  0
 16 18  1  0  0  0  0
 16 17  1  0  0  0  0
 16 19  1  1  0  0  0
 17 20  1  6  0  0  0
 17 19  1  0  0  0  0
 18 17  1  0  0  0  0
 18 15  1  1  0  0  0
 20 22  1  0  0  0  0
 21 22  1  0  0  0  0
 22 23  2  0  0  0  0
 24 25  1  0  0  0  0
 25 26  1  0  0  0  0
 26 27  1  0  0  0  0
 27 31  1  0  0  0  0
 28 30  2  0  0  0  0
 29 35  1  0  0  0  0
 29 28  1  0  0  0  0
 31 28  1  0  0  0  0
 34 32  1  6  0  0  0
 34 35  1  0  0  0  0
 34 36  1  0  0  0  0
 35 33  1  1  0  0  0
 35 36  1  0  0  0  0
 36 37  1  1  0  0  0
 37 38  1  0  0  0  0
 38 40  1  0  0  0  0
 40 39  1  0  0  0  0
M  END
>  <MODEL>
7

>  <REMARK>
 VINA RESULT:      -6.8      2.196      9.045
  Name = 
  14 active torsions:
  status: ('A' for Active; 'I' for Inactive)
    1  A    between atoms: O_1  and  C_3
    2  A    between atoms: O_1  and  C_38
    3  A    between atoms: N_2  and  C_21
    4  A    between atoms: C_3  and  C_31
    5  A    between atoms: C_5  and  C_16
    6  A    between atoms: C_5  and  C_29
    7  A    between atoms: C_6  and  C_39
    8  A    between atoms: N_8  and  C_30
    9  A    between atoms: C_9  and  C_11
   10  A    between atoms: C_9  and  C_35
   11  A    between atoms: C_14  and  C_18
   12  A    between atoms: C_14  and  C_22
   13  A    between atoms: C_18  and  N_37
   14  A    between atoms: C_21  and  C_22
                            x       y       z     vdW  Elec       q    Type
                         _______ _______ _______ _____ _____    ______ ____

>  <TORSDO>
F 14

$$$$
=
 OpenBabel10222421543D

 40 44  0  0  1  0  0  0  0  0999 V2000
  188.3390  177.6160  142.0320 N   0  0  0  0  0  0  0  0  0  0  0  0
  186.5490  178.9990  142.3890 C   0  0  2  0  0  3  0  0  0  0  0  0
  187.4860  176.9320  142.9160 C   0  0  0  0  0  0  0  0  0  0  0  0
  187.8380  178.8800  141.6800 N   0  0  0  0  0  2  0  0  0  0  0  0
  187.7110  175.7690  143.3470 O   0  0  0  0  0  0  0  0  0  0  0  0
  186.3030  177.7370  143.2390 C   0  0  1  0  0  3  0  0  0  0  0  0
  186.2610  178.0850  144.7010 C   0  0  0  0  0  0  0  0  0  0  0  0
  186.2070  178.7130  147.3510 N   0  0  0  0  0  0  0  0  0  0  0  0
  187.3620  177.8980  145.4790 N   0  0  0  0  0  0  0  0  0  0  0  0
  185.1130  178.9020  146.6120 N   0  0  0  0  0  0  0  0  0  0  0  0
  188.5010  178.0210  147.5980 N   0  0  0  0  0  1  0  0  0  0  0  0
  183.8560  178.8380  144.4970 C   0  0  0  0  0  1  0  0  0  0  0  0
  185.0990  178.6030  145.2860 C   0  0  0  0  0  0  0  0  0  0  0  0
  187.3400  178.2110  146.7990 C   0  0  0  0  0  0  0  0  0  0  0  0
  185.4090  179.2390  141.4010 C   0  0  0  0  0  2  0  0  0  0  0  0
  183.8190  177.6730  140.2830 C   0  0  2  0  0  3  0  0  0  0  0  0
  183.0050  178.7900  140.9210 C   0  0  1  0  0  0  0  0  0  0  0  0
  184.2490  178.2680  141.6070 C   0  0  2  0  0  3  0  0  0  0  0  0
  183.1080  178.6870  139.4130 C   0  0  0  0  0  2  0  0  0  0  0  0
  181.7440  178.1440  141.4640 C   0  0  0  0  0  2  0  0  0  0  0  0
  180.3820  180.2660  141.3680 N   0  0  0  0  0  1  0  0  0  0  0  0
  180.8830  179.1670  142.1200 C   0  0  0  0  0  0  0  0  0  0  0  0
  180.5720  179.0430  143.3330 O   0  0  0  0  0  0  0  0  0  0  0  0
  189.5710  177.0480  141.4920 C   0  0  0  0  0  2  0  0  0  0  0  0
  189.8340  177.5250  140.0750 C   0  0  0  0  0  2  0  0  0  0  0  0
  191.0820  176.8560  139.5350 C   0  0  0  0  0  2  0  0  0  0  0  0
  190.7410  176.0160  138.3180 C   0  0  0  0  0  2  0  0  0  0  0  0
  189.3200  177.0880  136.5360 C   0  0  0  0  0  0  0  0  0  0  0  0
  188.1450  176.4660  137.0670 N   0  0  0  0  0  2  0  0  0  0  0  0
  189.2440  177.8360  135.5250 O   0  0  0  0  0  0  0  0  0  0  0  0
  190.5900  176.8680  137.1510 N   0  0  0  0  0  2  0  0  0  0  0  0
  186.6310  178.4660  138.0090 O   0  0  0  0  0  1  0  0  0  0  0  0
  186.6720  176.2670  134.9920 C   0  0  0  0  0  1  0  0  0  0  0  0
  185.9850  177.7840  136.9750 C   0  0  1  0  0  3  0  0  0  0  0  0
  186.8220  176.6200  136.4680 C   0  0  2  0  0  0  0  0  0  0  0  0
  185.6740  176.3590  137.4330 C   0  0  2  0  0  3  0  0  0  0  0  0
  184.4070  175.8740  136.7430 C   0  0  0  0  0  2  0  0  0  0  0  0
  183.8390  174.8340  137.4810 O   0  0  0  0  0  0  0  0  0  0  0  0
  184.1750  172.4980  137.1870 C   0  0  0  0  0  1  0  0  0  0  0  0
  184.8170  173.8370  137.4910 C   0  0  0  0  0  2  0  0  0  0  0  0
  1  3  1  0  0  0  0
  2 15  1  6  0  0  0
  2  6  1  0  0  0  0
  3  6  1  0  0  0  0
  3  5  2  0  0  0  0
  4  1  1  0  0  0  0
  4  2  1  0  0  0  0
  6  7  1  1  0  0  0
  7 13  1  0  0  0  0
  7  9  2  0  0  0  0
  9 14  1  0  0  0  0
 10  8  1  0  0  0  0
 12 13  1  0  0  0  0
 13 10  2  0  0  0  0
 14  8  2  0  0  0  0
 14 11  1  0  0  0  0
 16 19  1  6  0  0  0
 16 17  1  0  0  0  0
 16 18  1  0  0  0  0
 17 20  1  1  0  0  0
 17 18  1  0  0  0  0
 18 15  1  6  0  0  0
 19 17  1  0  0  0  0
 20 22  1  0  0  0  0
 21 22  1  0  0  0  0
 22 23  2  0  0  0  0
 24  1  1  0  0  0  0
 25 24  1  0  0  0  0
 26 25  1  0  0  0  0
 27 26  1  0  0  0  0
 28 29  1  0  0  0  0
 28 31  1  0  0  0  0
 30 28  2  0  0  0  0
 31 27  1  0  0  0  0
 34 36  1  0  0  0  0
 34 32  1  1  0  0  0
 35 33  1  6  0  0  0
 35 34  1  0  0  0  0
 35 29  1  0  0  0  0
 35 36  1  0  0  0  0
 36 37  1  6  0  0  0
 37 38  1  0  0  0  0
 38 40  1  0  0  0  0
 39 40  1  0  0  0  0
M  END
>  <MODEL>
8

>  <REMARK>
 VINA RESULT:      -6.8      2.214      5.408
  Name = 
  14 active torsions:
  status: ('A' for Active; 'I' for Inactive)
    1  A    between atoms: O_1  and  C_3
    2  A    between atoms: O_1  and  C_38
    3  A    between atoms: N_2  and  C_21
    4  A    between atoms: C_3  and  C_31
    5  A    between atoms: C_5  and  C_16
    6  A    between atoms: C_5  and  C_29
    7  A    between atoms: C_6  and  C_39
    8  A    between atoms: N_8  and  C_30
    9  A    between atoms: C_9  and  C_11
   10  A    between atoms: C_9  and  C_35
   11  A    between atoms: C_14  and  C_18
   12  A    between atoms: C_14  and  C_22
   13  A    between atoms: C_18  and  N_37
   14  A    between atoms: C_21  and  C_22
                            x       y       z     vdW  Elec       q    Type
                         _______ _______ _______ _____ _____    ______ ____

>  <TORSDO>
F 14

$$$$
=
 OpenBabel10222421543D

 40 44  0  0  1  0  0  0  0  0999 V2000
  186.7760  178.0290  137.0040 N   0  0  0  0  0  0  0  0  0  0  0  0
  184.9110  177.3300  138.1360 C   0  0  2  0  0  3  0  0  0  0  0  0
  186.0820  177.1780  136.1260 C   0  0  0  0  0  0  0  0  0  0  0  0
  186.1290  178.1580  138.2430 N   0  0  0  0  0  2  0  0  0  0  0  0
  186.4530  176.9320  134.9470 O   0  0  0  0  0  0  0  0  0  0  0  0
  184.8680  176.6450  136.7560 C   0  0  1  0  0  3  0  0  0  0  0  0
  184.9410  175.1510  136.9050 C   0  0  0  0  0  0  0  0  0  0  0  0
  185.0930  172.4450  137.1810 N   0  0  0  0  0  0  0  0  0  0  0  0
  186.1470  174.5360  137.0420 N   0  0  0  0  0  0  0  0  0  0  0  0
  183.8980  173.0220  137.0470 N   0  0  0  0  0  0  0  0  0  0  0  0
  187.4940  172.5610  137.3330 N   0  0  0  0  0  1  0  0  0  0  0  0
  182.4220  174.9720  136.7670 C   0  0  0  0  0  1  0  0  0  0  0  0
  183.7780  174.3690  136.9070 C   0  0  0  0  0  0  0  0  0  0  0  0
  186.2270  173.1890  137.1810 C   0  0  0  0  0  0  0  0  0  0  0  0
  183.6610  178.1730  138.3820 C   0  0  0  0  0  2  0  0  0  0  0  0
  181.4590  178.2410  139.5550 C   0  0  2  0  0  3  0  0  0  0  0  0
  182.4980  178.8750  140.4710 C   0  0  1  0  0  0  0  0  0  0  0  0
  182.8710  177.6960  139.5980 C   0  0  2  0  0  3  0  0  0  0  0  0
  181.4210  179.7290  139.8340 C   0  0  0  0  0  2  0  0  0  0  0  0
  182.1430  178.4450  141.8820 C   0  0  0  0  0  2  0  0  0  0  0  0
  182.9540  179.2270  144.1390 N   0  0  0  0  0  1  0  0  0  0  0  0
  183.2490  178.7880  142.8190 C   0  0  0  0  0  0  0  0  0  0  0  0
  184.4460  178.6600  142.4520 O   0  0  0  0  0  0  0  0  0  0  0  0
  187.9950  178.7470  136.6420 C   0  0  0  0  0  2  0  0  0  0  0  0
  188.9830  178.7910  137.7940 C   0  0  0  0  0  2  0  0  0  0  0  0
  189.6920  177.4570  137.9090 C   0  0  0  0  0  2  0  0  0  0  0  0
  189.9550  177.1280  139.3670 C   0  0  0  0  0  2  0  0  0  0  0  0
  189.0590  177.9060  141.5890 C   0  0  0  0  0  0  0  0  0  0  0  0
  190.3240  177.6590  142.2120 N   0  0  0  0  0  2  0  0  0  0  0  0
  188.0930  178.3540  142.2620 O   0  0  0  0  0  0  0  0  0  0  0  0
  188.8800  177.6460  140.1960 N   0  0  0  0  0  2  0  0  0  0  0  0
  191.5350  175.6630  143.5260 O   0  0  0  0  0  1  0  0  0  0  0  0
  190.8660  179.2910  144.0970 C   0  0  0  0  0  1  0  0  0  0  0  0
  191.2940  176.7510  144.3670 C   0  0  1  0  0  3  0  0  0  0  0  0
  190.5650  177.8690  143.6360 C   0  0  2  0  0  0  0  0  0  0  0  0
  189.7850  176.9260  144.5400 C   0  0  2  0  0  3  0  0  0  0  0  0
  189.5000  177.5090  145.9160 C   0  0  0  0  0  2  0  0  0  0  0  0
  188.3450  176.9270  146.4430 O   0  0  0  0  0  0  0  0  0  0  0  0
  188.7980  178.0480  148.4920 C   0  0  0  0  0  1  0  0  0  0  0  0
  187.8430  177.8850  147.3260 C   0  0  0  0  0  2  0  0  0  0  0  0
  1  4  1  0  0  0  0
  2  4  1  0  0  0  0
  2 15  1  6  0  0  0
  3  6  1  0  0  0  0
  3  1  1  0  0  0  0
  5  3  2  0  0  0  0
  6  7  1  1  0  0  0
  6  2  1  0  0  0  0
  7 13  1  0  0  0  0
  7  9  2  0  0  0  0
  8 14  2  0  0  0  0
  9 14  1  0  0  0  0
 10  8  1  0  0  0  0
 12 13  1  0  0  0  0
 13 10  2  0  0  0  0
 14 11  1  0  0  0  0
 16 18  1  0  0  0  0
 16 19  1  6  0  0  0
 16 17  1  0  0  0  0
 17 20  1  1  0  0  0
 18 15  1  6  0  0  0
 18 17  1  0  0  0  0
 19 17  1  0  0  0  0
 20 22  1  0  0  0  0
 22 21  1  0  0  0  0
 23 22  2  0  0  0  0
 24  1  1  0  0  0  0
 24 25  1  0  0  0  0
 25 26  1  0  0  0  0
 26 27  1  0  0  0  0
 27 31  1  0  0  0  0
 28 29  1  0  0  0  0
 28 30  2  0  0  0  0
 29 35  1  0  0  0  0
 31 28  1  0  0  0  0
 34 32  1  6  0  0  0
 34 36  1  0  0  0  0
 35 33  1  1  0  0  0
 35 34  1  0  0  0  0
 35 36  1  0  0  0  0
 36 37  1  1  0  0  0
 37 38  1  0  0  0  0
 38 40  1  0  0  0  0
 40 39  1  0  0  0  0
M  END
>  <MODEL>
9

>  <REMARK>
 VINA RESULT:      -6.7      2.481      7.977
  Name = 
  14 active torsions:
  status: ('A' for Active; 'I' for Inactive)
    1  A    between atoms: O_1  and  C_3
    2  A    between atoms: O_1  and  C_38
    3  A    between atoms: N_2  and  C_21
    4  A    between atoms: C_3  and  C_31
    5  A    between atoms: C_5  and  C_16
    6  A    between atoms: C_5  and  C_29
    7  A    between atoms: C_6  and  C_39
    8  A    between atoms: N_8  and  C_30
    9  A    between atoms: C_9  and  C_11
   10  A    between atoms: C_9  and  C_35
   11  A    between atoms: C_14  and  C_18
   12  A    between atoms: C_14  and  C_22
   13  A    between atoms: C_18  and  N_37
   14  A    between atoms: C_21  and  C_22
                            x       y       z     vdW  Elec       q    Type
                         _______ _______ _______ _____ _____    ______ ____

>  <TORSDO>
F 14

$$$$
