=
 OpenBabel10222422103D

 29 32  0  0  1  0  0  0  0  0999 V2000
  191.6740  176.6170  143.1090 C   0  0  0  0  0  3  0  0  0  0  0  0
  189.8460  176.9360  141.9690 C   0  0  2  0  0  3  0  0  0  0  0  0
  187.6620  177.9260  141.9470 C   0  0  0  0  0  0  0  0  0  0  0  0
  188.7980  177.6910  141.2630 C   0  0  0  0  0  0  0  0  0  0  0  0
  187.5390  177.4840  143.3800 C   0  0  0  0  0  0  0  0  0  0  0  0
  189.4650  176.0340  143.0800 C   0  0  2  0  0  3  0  0  0  0  0  0
  188.4320  176.6790  143.8930 N   0  0  0  0  0  0  0  0  0  0  0  0
  186.6190  178.6140  141.3330 O   0  0  0  0  0  1  0  0  0  0  0  0
  191.0910  177.2700  141.9880 N   0  0  0  0  0  2  0  0  0  0  0  0
  190.7680  175.9270  143.7950 C   0  0  0  0  0  3  0  0  0  0  0  0
  190.1160  177.6500  139.1570 N   0  0  1  0  0  0  0  0  0  0  0  0
  188.9980  178.2780  139.8830 C   0  0  1  0  0  3  0  0  0  0  0  0
  189.8220  176.2320  138.8610 C   0  0  1  0  0  3  0  0  0  0  0  0
  189.5520  177.2530  137.8490 C   0  0  1  0  0  3  0  0  0  0  0  0
  188.1130  177.6540  137.8700 C   0  0  0  0  0  3  0  0  0  0  0  0
  187.7910  178.2400  139.0070 C   0  0  0  0  0  3  0  0  0  0  0  0
  191.0110  175.5710  138.5570 O   0  0  0  0  0  0  0  0  0  0  0  0
  191.9720  176.5820  138.5140 C   0  0  0  0  0  1  0  0  0  0  0  0
  186.5230  178.0760  144.3210 C   0  0  1  0  0  3  0  0  0  0  0  0
  185.1680  177.9610  143.7790 N   0  0  0  0  0  2  0  0  0  0  0  0
  184.2420  179.0410  143.6140 C   0  0  0  0  0  0  0  0  0  0  0  0
  184.5790  180.2260  143.8670 O   0  0  0  0  0  0  0  0  0  0  0  0
  182.9290  178.7710  143.1420 N   0  0  0  0  0  1  0  0  0  0  0  0
  186.6290  177.6180  145.7860 C   0  0  2  0  0  3  0  0  0  0  0  0
  185.6500  179.4420  146.9870 O   0  0  0  0  0  1  0  0  0  0  0  0
  185.4480  178.1120  146.6160 C   0  0  0  0  0  2  0  0  0  0  0  0
  187.9630  178.0160  146.4320 C   0  0  0  0  0  2  0  0  0  0  0  0
  188.3010  177.2030  147.6780 C   0  0  0  0  0  2  0  0  0  0  0  0
  188.2940  178.0230  148.8060 O   0  0  0  0  0  1  0  0  0  0  0  0
  1 10  2  0  0  0  0
  2  4  1  1  0  0  0
  2  9  1  0  0  0  0
  2  6  1  0  0  0  0
  3  5  1  0  0  0  0
  4  3  2  0  0  0  0
  5  7  2  0  0  0  0
  5 19  1  0  0  0  0
  6 10  1  1  0  0  0
  6  7  1  0  0  0  0
  8  3  1  0  0  0  0
  9  1  1  0  0  0  0
 11 12  1  0  0  0  0
 12  4  1  0  0  0  0
 13 11  1  0  0  0  0
 14 15  1  0  0  0  0
 14 13  1  0  0  0  0
 14 11  1  0  0  0  0
 15 16  2  0  0  0  0
 16 12  1  0  0  0  0
 17 13  1  0  0  0  0
 18 17  1  0  0  0  0
 19 24  1  0  0  0  0
 20 19  1  0  0  0  0
 21 20  1  0  0  0  0
 21 22  2  0  0  0  0
 23 21  1  0  0  0  0
 24 27  1  0  0  0  0
 24 26  1  0  0  0  0
 26 25  1  0  0  0  0
 27 28  1  0  0  0  0
 28 29  1  0  0  0  0
M  END
>  <MODEL>
1

>  <REMARK>
 VINA RESULT:      -7.8      0.000      0.000
  Name = 
  8 active torsions:
  status: ('A' for Active; 'I' for Inactive)
    1  A    between atoms: N_3  and  C_24
    2  A    between atoms: O_4  and  C_15
    3  A    between atoms: C_5  and  C_17
    4  A    between atoms: C_8  and  C_9
    5  A    between atoms: C_11  and  C_29
    6  A    between atoms: C_12  and  C_24
    7  A    between atoms: C_17  and  C_29
    8  A    between atoms: C_24  and  C_29
                            x       y       z     vdW  Elec       q    Type
                         _______ _______ _______ _____ _____    ______ ____

>  <TORSDO>
F 8

$$$$
=
 OpenBabel10222422103D

 29 32  0  0  1  0  0  0  0  0999 V2000
  191.1310  176.4980  144.0760 C   0  0  0  0  0  3  0  0  0  0  0  0
  189.1800  177.4640  144.0190 C   0  0  2  0  0  3  0  0  0  0  0  0
  187.1860  177.8470  142.7430 C   0  0  0  0  0  0  0  0  0  0  0  0
  187.7130  177.5630  143.9490 C   0  0  0  0  0  0  0  0  0  0  0  0
  188.0810  177.9800  141.5410 C   0  0  0  0  0  0  0  0  0  0  0  0
  190.0030  178.1770  143.0150 C   0  0  2  0  0  3  0  0  0  0  0  0
  189.3780  178.0450  141.6970 N   0  0  0  0  0  0  0  0  0  0  0  0
  185.8070  177.9790  142.6080 O   0  0  0  0  0  1  0  0  0  0  0  0
  189.8140  176.5130  144.6140 N   0  0  0  0  0  2  0  0  0  0  0  0
  191.2760  177.4100  143.1200 C   0  0  0  0  0  3  0  0  0  0  0  0
  187.5600  177.1280  146.3900 N   0  0  1  0  0  0  0  0  0  0  0  0
  186.8130  177.2600  145.1270 C   0  0  1  0  0  3  0  0  0  0  0  0
  188.1710  178.4170  146.7800 C   0  0  1  0  0  3  0  0  0  0  0  0
  186.8750  178.0320  147.3390 C   0  0  1  0  0  3  0  0  0  0  0  0
  185.7590  178.6730  146.5830 C   0  0  0  0  0  3  0  0  0  0  0  0
  185.7080  178.2390  145.3380 C   0  0  0  0  0  3  0  0  0  0  0  0
  189.1770  178.1830  147.7160 O   0  0  0  0  0  0  0  0  0  0  0  0
  188.5100  178.1320  148.9410 C   0  0  0  0  0  1  0  0  0  0  0  0
  187.5620  177.8550  140.1320 C   0  0  1  0  0  3  0  0  0  0  0  0
  186.5950  178.9120  139.8290 N   0  0  0  0  0  2  0  0  0  0  0  0
  185.3230  178.7210  139.2000 C   0  0  0  0  0  0  0  0  0  0  0  0
  184.9040  177.5670  138.9240 O   0  0  0  0  0  0  0  0  0  0  0  0
  184.5150  179.8510  138.8980 N   0  0  0  0  0  1  0  0  0  0  0  0
  188.6340  177.6850  139.0420 C   0  0  2  0  0  3  0  0  0  0  0  0
  188.2820  179.0940  137.1400 O   0  0  0  0  0  1  0  0  0  0  0  0
  188.9550  179.0100  138.3590 C   0  0  0  0  0  2  0  0  0  0  0  0
  188.2610  176.6090  138.0130 C   0  0  0  0  0  2  0  0  0  0  0  0
  189.4560  175.7980  137.5230 C   0  0  0  0  0  2  0  0  0  0  0  0
  190.3430  175.5590  138.5730 O   0  0  0  0  0  1  0  0  0  0  0  0
  1  9  1  0  0  0  0
  2  4  1  6  0  0  0
  2  9  1  0  0  0  0
  3  4  2  0  0  0  0
  4 12  1  0  0  0  0
  5  7  2  0  0  0  0
  5  3  1  0  0  0  0
  6 10  1  6  0  0  0
  6  2  1  0  0  0  0
  7  6  1  0  0  0  0
  8  3  1  0  0  0  0
 10  1  2  0  0  0  0
 11 13  1  0  0  0  0
 11 14  1  0  0  0  0
 12 16  1  0  0  0  0
 12 11  1  0  0  0  0
 13 14  1  0  0  0  0
 13 17  1  0  0  0  0
 15 14  1  0  0  0  0
 16 15  2  0  0  0  0
 17 18  1  0  0  0  0
 19  5  1  0  0  0  0
 20 19  1  0  0  0  0
 21 20  1  0  0  0  0
 22 21  2  0  0  0  0
 23 21  1  0  0  0  0
 24 19  1  0  0  0  0
 25 26  1  0  0  0  0
 26 24  1  0  0  0  0
 27 24  1  0  0  0  0
 28 27  1  0  0  0  0
 28 29  1  0  0  0  0
M  END
>  <MODEL>
2

>  <REMARK>
 VINA RESULT:      -7.5      1.992      6.674
  Name = 
  8 active torsions:
  status: ('A' for Active; 'I' for Inactive)
    1  A    between atoms: N_3  and  C_24
    2  A    between atoms: O_4  and  C_15
    3  A    between atoms: C_5  and  C_17
    4  A    between atoms: C_8  and  C_9
    5  A    between atoms: C_11  and  C_29
    6  A    between atoms: C_12  and  C_24
    7  A    between atoms: C_17  and  C_29
    8  A    between atoms: C_24  and  C_29
                            x       y       z     vdW  Elec       q    Type
                         _______ _______ _______ _____ _____    ______ ____

>  <TORSDO>
F 8

$$$$
=
 OpenBabel10222422103D

 29 32  0  0  1  0  0  0  0  0999 V2000
  189.3910  177.2530  140.6450 C   0  0  0  0  0  3  0  0  0  0  0  0
  188.0220  177.8150  142.2410 C   0  0  2  0  0  3  0  0  0  0  0  0
  185.7320  177.9480  142.9430 C   0  0  0  0  0  0  0  0  0  0  0  0
  186.9960  177.6300  143.2820 C   0  0  0  0  0  0  0  0  0  0  0  0
  185.4160  178.3980  141.5430 C   0  0  0  0  0  0  0  0  0  0  0  0
  187.7820  178.7920  141.1540 C   0  0  2  0  0  3  0  0  0  0  0  0
  186.3870  178.6980  140.7190 N   0  0  0  0  0  0  0  0  0  0  0  0
  184.7150  177.8200  143.8850 O   0  0  0  0  0  1  0  0  0  0  0  0
  188.9250  176.9430  141.9530 N   0  0  0  0  0  2  0  0  0  0  0  0
  188.7330  178.2830  140.1260 C   0  0  0  0  0  3  0  0  0  0  0  0
  188.7440  176.8840  144.8820 N   0  0  1  0  0  0  0  0  0  0  0  0
  187.2980  177.0170  144.6320 C   0  0  1  0  0  3  0  0  0  0  0  0
  189.3860  178.2110  144.9850 C   0  0  1  0  0  3  0  0  0  0  0  0
  188.9660  177.5150  146.2010 C   0  0  1  0  0  3  0  0  0  0  0  0
  187.6350  178.0090  146.6630 C   0  0  0  0  0  3  0  0  0  0  0  0
  186.6860  177.7260  145.7920 C   0  0  0  0  0  3  0  0  0  0  0  0
  190.7620  178.0700  144.8120 O   0  0  0  0  0  0  0  0  0  0  0  0
  191.1200  179.1260  143.9740 C   0  0  0  0  0  1  0  0  0  0  0  0
  184.0220  178.3440  140.9750 C   0  0  1  0  0  3  0  0  0  0  0  0
  183.1080  179.1990  141.7320 N   0  0  0  0  0  2  0  0  0  0  0  0
  181.7140  178.9460  141.9470 C   0  0  0  0  0  0  0  0  0  0  0  0
  181.1810  177.8820  141.5400 O   0  0  0  0  0  0  0  0  0  0  0  0
  180.9280  179.9050  142.6410 N   0  0  0  0  0  1  0  0  0  0  0  0
  183.9170  178.5440  139.4530 C   0  0  2  0  0  3  0  0  0  0  0  0
  184.1430  180.8300  138.7820 O   0  0  0  0  0  1  0  0  0  0  0  0
  183.2060  179.8480  139.1060 C   0  0  0  0  0  2  0  0  0  0  0  0
  183.2580  177.3510  138.7460 C   0  0  0  0  0  2  0  0  0  0  0  0
  183.9720  176.9360  137.4640 C   0  0  0  0  0  2  0  0  0  0  0  0
  185.2730  177.4380  137.4500 O   0  0  0  0  0  1  0  0  0  0  0  0
  1  9  1  0  0  0  0
  2  9  1  6  0  0  0
  2  4  1  0  0  0  0
  3  4  2  0  0  0  0
  3  8  1  0  0  0  0
  4 12  1  0  0  0  0
  5  3  1  0  0  0  0
  6 10  1  6  0  0  0
  6  2  1  0  0  0  0
  7  6  1  0  0  0  0
  7  5  2  0  0  0  0
 10  1  2  0  0  0  0
 11 13  1  0  0  0  0
 11 14  1  0  0  0  0
 12 11  1  0  0  0  0
 12 16  1  0  0  0  0
 13 14  1  0  0  0  0
 14 15  1  0  0  0  0
 16 15  2  0  0  0  0
 17 13  1  0  0  0  0
 18 17  1  0  0  0  0
 19  5  1  0  0  0  0
 19 20  1  0  0  0  0
 20 21  1  0  0  0  0
 21 23  1  0  0  0  0
 22 21  2  0  0  0  0
 24 19  1  0  0  0  0
 25 26  1  0  0  0  0
 26 24  1  0  0  0  0
 27 24  1  0  0  0  0
 28 27  1  0  0  0  0
 29 28  1  0  0  0  0
M  END
>  <MODEL>
3

>  <REMARK>
 VINA RESULT:      -7.4      2.813      6.107
  Name = 
  8 active torsions:
  status: ('A' for Active; 'I' for Inactive)
    1  A    between atoms: N_3  and  C_24
    2  A    between atoms: O_4  and  C_15
    3  A    between atoms: C_5  and  C_17
    4  A    between atoms: C_8  and  C_9
    5  A    between atoms: C_11  and  C_29
    6  A    between atoms: C_12  and  C_24
    7  A    between atoms: C_17  and  C_29
    8  A    between atoms: C_24  and  C_29
                            x       y       z     vdW  Elec       q    Type
                         _______ _______ _______ _____ _____    ______ ____

>  <TORSDO>
F 8

$$$$
=
 OpenBabel10222422103D

 29 32  0  0  1  0  0  0  0  0999 V2000
  186.2750  178.3470  144.5750 C   0  0  0  0  0  3  0  0  0  0  0  0
  188.2570  177.4940  144.2880 C   0  0  2  0  0  3  0  0  0  0  0  0
  190.1630  177.3310  142.8400 C   0  0  0  0  0  0  0  0  0  0  0  0
  189.7180  177.4780  144.1030 C   0  0  0  0  0  0  0  0  0  0  0  0
  189.1850  177.2610  141.7000 C   0  0  0  0  0  0  0  0  0  0  0  0
  187.3930  176.8320  143.2830 C   0  0  2  0  0  3  0  0  0  0  0  0
  187.9090  177.1140  141.9420 N   0  0  0  0  0  0  0  0  0  0  0  0
  191.5320  177.2850  142.5960 O   0  0  0  0  0  1  0  0  0  0  0  0
  187.6280  178.3530  145.0130 N   0  0  0  0  0  2  0  0  0  0  0  0
  186.0990  177.5190  143.5510 C   0  0  0  0  0  3  0  0  0  0  0  0
  190.0170  177.8720  146.5380 N   0  0  1  0  0  0  0  0  0  0  0  0
  190.6910  177.7210  145.2370 C   0  0  1  0  0  3  0  0  0  0  0  0
  189.3640  176.6090  146.9440 C   0  0  1  0  0  3  0  0  0  0  0  0
  190.7030  176.9220  147.4400 C   0  0  1  0  0  3  0  0  0  0  0  0
  191.7470  176.2380  146.6200 C   0  0  0  0  0  3  0  0  0  0  0  0
  191.7550  176.6860  145.3790 C   0  0  0  0  0  3  0  0  0  0  0  0
  188.4190  176.8790  147.9330 O   0  0  0  0  0  0  0  0  0  0  0  0
  188.7820  178.1310  148.4320 C   0  0  0  0  0  1  0  0  0  0  0  0
  189.5890  177.5390  140.2750 C   0  0  1  0  0  3  0  0  0  0  0  0
  189.8890  176.2980  139.5580 N   0  0  0  0  0  2  0  0  0  0  0  0
  191.0960  176.0240  138.8370 C   0  0  0  0  0  0  0  0  0  0  0  0
  192.0500  176.8430  138.8380 O   0  0  0  0  0  0  0  0  0  0  0  0
  191.2210  174.8010  138.1230 N   0  0  0  0  0  1  0  0  0  0  0  0
  188.6570  178.4790  139.4920 C   0  0  2  0  0  3  0  0  0  0  0  0
  186.2730  178.6360  139.3450 O   0  0  0  0  0  1  0  0  0  0  0  0
  187.3540  177.7860  139.1080 C   0  0  0  0  0  2  0  0  0  0  0  0
  189.3390  179.0940  138.2620 C   0  0  0  0  0  2  0  0  0  0  0  0
  188.7240  178.6470  136.9400 C   0  0  0  0  0  2  0  0  0  0  0  0
  189.5700  177.7470  136.2930 O   0  0  0  0  0  1  0  0  0  0  0  0
  1  9  1  0  0  0  0
  2  4  1  6  0  0  0
  2  9  1  0  0  0  0
  3  4  2  0  0  0  0
  4 12  1  0  0  0  0
  5  7  2  0  0  0  0
  5  3  1  0  0  0  0
  6 10  1  6  0  0  0
  6  2  1  0  0  0  0
  7  6  1  0  0  0  0
  8  3  1  0  0  0  0
 10  1  2  0  0  0  0
 11 13  1  0  0  0  0
 11 14  1  0  0  0  0
 12 16  1  0  0  0  0
 12 11  1  0  0  0  0
 13 14  1  0  0  0  0
 13 17  1  0  0  0  0
 15 14  1  0  0  0  0
 16 15  2  0  0  0  0
 17 18  1  0  0  0  0
 19  5  1  0  0  0  0
 20 19  1  0  0  0  0
 21 22  2  0  0  0  0
 21 20  1  0  0  0  0
 23 21  1  0  0  0  0
 24 19  1  0  0  0  0
 26 25  1  0  0  0  0
 26 24  1  0  0  0  0
 27 24  1  0  0  0  0
 28 27  1  0  0  0  0
 29 28  1  0  0  0  0
M  END
>  <MODEL>
4

>  <REMARK>
 VINA RESULT:      -7.2      2.186      7.453
  Name = 
  8 active torsions:
  status: ('A' for Active; 'I' for Inactive)
    1  A    between atoms: N_3  and  C_24
    2  A    between atoms: O_4  and  C_15
    3  A    between atoms: C_5  and  C_17
    4  A    between atoms: C_8  and  C_9
    5  A    between atoms: C_11  and  C_29
    6  A    between atoms: C_12  and  C_24
    7  A    between atoms: C_17  and  C_29
    8  A    between atoms: C_24  and  C_29
                            x       y       z     vdW  Elec       q    Type
                         _______ _______ _______ _____ _____    ______ ____

>  <TORSDO>
F 8

$$$$
=
 OpenBabel10222422103D

 29 32  0  0  1  0  0  0  0  0999 V2000
  191.5780  176.8740  143.3300 C   0  0  0  0  0  3  0  0  0  0  0  0
  190.2100  177.0030  141.6420 C   0  0  2  0  0  3  0  0  0  0  0  0
  188.1690  177.9440  140.8020 C   0  0  0  0  0  0  0  0  0  0  0  0
  189.4560  177.6370  140.5470 C   0  0  0  0  0  0  0  0  0  0  0  0
  187.5920  177.7000  142.1690 C   0  0  0  0  0  0  0  0  0  0  0  0
  189.4750  176.2550  142.6880 C   0  0  2  0  0  3  0  0  0  0  0  0
  188.2580  176.9870  143.0410 N   0  0  0  0  0  0  0  0  0  0  0  0
  187.3910  178.5250  139.8050 O   0  0  0  0  0  1  0  0  0  0  0  0
  191.3940  177.3580  142.0050 N   0  0  0  0  0  2  0  0  0  0  0  0
  190.4860  176.2690  143.7830 C   0  0  0  0  0  3  0  0  0  0  0  0
  190.9010  176.9500  138.6470 N   0  0  1  0  0  0  0  0  0  0  0  0
  190.0940  178.0340  139.2340 C   0  0  1  0  0  3  0  0  0  0  0  0
  190.0460  175.8100  138.2540 C   0  0  1  0  0  3  0  0  0  0  0  0
  190.4120  176.8160  137.2570 C   0  0  1  0  0  3  0  0  0  0  0  0
  189.3210  177.8220  137.0930 C   0  0  0  0  0  3  0  0  0  0  0  0
  189.1390  178.5210  138.1970 C   0  0  0  0  0  3  0  0  0  0  0  0
  190.8400  174.6760  138.0930 O   0  0  0  0  0  0  0  0  0  0  0  0
  191.5940  174.9360  136.9480 C   0  0  0  0  0  1  0  0  0  0  0  0
  186.3480  178.3980  142.6550 C   0  0  1  0  0  3  0  0  0  0  0  0
  185.1440  177.7890  142.0880 N   0  0  0  0  0  2  0  0  0  0  0  0
  184.2650  178.4070  141.1410 C   0  0  0  0  0  0  0  0  0  0  0  0
  184.5280  179.5380  140.6570 O   0  0  0  0  0  0  0  0  0  0  0  0
  183.0870  177.7250  140.7320 N   0  0  0  0  0  1  0  0  0  0  0  0
  186.2590  178.6130  144.1750 C   0  0  2  0  0  3  0  0  0  0  0  0
  186.7920  177.4200  146.1810 O   0  0  0  0  0  1  0  0  0  0  0  0
  186.1940  177.2870  144.9280 C   0  0  0  0  0  2  0  0  0  0  0  0
  185.0950  179.5320  144.5730 C   0  0  0  0  0  2  0  0  0  0  0  0
  183.9300  178.7900  145.2200 C   0  0  0  0  0  2  0  0  0  0  0  0
  182.8200  178.8020  144.3760 O   0  0  0  0  0  1  0  0  0  0  0  0
  1 10  2  0  0  0  0
  2  4  1  1  0  0  0
  2  9  1  0  0  0  0
  2  6  1  0  0  0  0
  3  5  1  0  0  0  0
  4  3  2  0  0  0  0
  5 19  1  0  0  0  0
  5  7  2  0  0  0  0
  6  7  1  0  0  0  0
  6 10  1  1  0  0  0
  8  3  1  0  0  0  0
  9  1  1  0  0  0  0
 11 12  1  0  0  0  0
 12  4  1  0  0  0  0
 13 11  1  0  0  0  0
 14 13  1  0  0  0  0
 14 11  1  0  0  0  0
 15 14  1  0  0  0  0
 15 16  2  0  0  0  0
 16 12  1  0  0  0  0
 17 13  1  0  0  0  0
 18 17  1  0  0  0  0
 19 24  1  0  0  0  0
 20 19  1  0  0  0  0
 21 20  1  0  0  0  0
 22 21  2  0  0  0  0
 23 21  1  0  0  0  0
 24 27  1  0  0  0  0
 24 26  1  0  0  0  0
 26 25  1  0  0  0  0
 27 28  1  0  0  0  0
 29 28  1  0  0  0  0
M  END
>  <MODEL>
5

>  <REMARK>
 VINA RESULT:      -7.0      1.625      2.351
  Name = 
  8 active torsions:
  status: ('A' for Active; 'I' for Inactive)
    1  A    between atoms: N_3  and  C_24
    2  A    between atoms: O_4  and  C_15
    3  A    between atoms: C_5  and  C_17
    4  A    between atoms: C_8  and  C_9
    5  A    between atoms: C_11  and  C_29
    6  A    between atoms: C_12  and  C_24
    7  A    between atoms: C_17  and  C_29
    8  A    between atoms: C_24  and  C_29
                            x       y       z     vdW  Elec       q    Type
                         _______ _______ _______ _____ _____    ______ ____

>  <TORSDO>
F 8

$$$$
=
 OpenBabel10222422103D

 29 32  0  0  1  0  0  0  0  0999 V2000
  189.5520  176.5610  142.2570 C   0  0  0  0  0  3  0  0  0  0  0  0
  187.7780  177.7470  142.6900 C   0  0  2  0  0  3  0  0  0  0  0  0
  185.5990  178.4140  141.9410 C   0  0  0  0  0  0  0  0  0  0  0  0
  186.3600  178.0170  142.9800 C   0  0  0  0  0  0  0  0  0  0  0  0
  186.1900  178.4950  140.5610 C   0  0  0  0  0  0  0  0  0  0  0  0
  188.4170  178.4050  141.5270 C   0  0  2  0  0  3  0  0  0  0  0  0
  187.4850  178.4040  140.3980 N   0  0  0  0  0  0  0  0  0  0  0  0
  184.2550  178.7090  142.1470 O   0  0  0  0  0  1  0  0  0  0  0  0
  188.4140  176.7030  143.0990 N   0  0  0  0  0  2  0  0  0  0  0  0
  189.5750  177.4920  141.3090 C   0  0  0  0  0  3  0  0  0  0  0  0
  186.6900  177.1850  145.2970 N   0  0  1  0  0  0  0  0  0  0  0  0
  185.7370  177.7680  144.3360 C   0  0  1  0  0  3  0  0  0  0  0  0
  187.7710  178.1420  145.6140 C   0  0  1  0  0  3  0  0  0  0  0  0
  186.6060  178.0490  146.4940 C   0  0  1  0  0  3  0  0  0  0  0  0
  185.6140  179.1190  146.1760 C   0  0  0  0  0  3  0  0  0  0  0  0
  185.1100  178.9650  144.9660 C   0  0  0  0  0  3  0  0  0  0  0  0
  188.8430  177.4520  146.1770 O   0  0  0  0  0  0  0  0  0  0  0  0
  188.8360  177.8290  147.5210 C   0  0  0  0  0  1  0  0  0  0  0  0
  185.3380  178.4940  139.3180 C   0  0  1  0  0  3  0  0  0  0  0  0
  184.7360  179.8080  139.0880 N   0  0  0  0  0  2  0  0  0  0  0  0
  183.3310  180.0820  139.0300 C   0  0  0  0  0  0  0  0  0  0  0  0
  182.4860  179.1790  139.2600 O   0  0  0  0  0  0  0  0  0  0  0  0
  182.8870  181.3980  138.7240 N   0  0  0  0  0  1  0  0  0  0  0  0
  185.9980  177.9030  138.0610 C   0  0  2  0  0  3  0  0  0  0  0  0
  187.7890  179.2500  137.2210 O   0  0  0  0  0  1  0  0  0  0  0  0
  186.4250  178.9950  137.0840 C   0  0  0  0  0  2  0  0  0  0  0  0
  185.1140  176.8560  137.3680 C   0  0  0  0  0  2  0  0  0  0  0  0
  185.8980  175.6700  136.8150 C   0  0  0  0  0  2  0  0  0  0  0  0
  185.0240  174.6980  136.3290 O   0  0  0  0  0  1  0  0  0  0  0  0
  1  9  1  0  0  0  0
  2  4  1  6  0  0  0
  2  9  1  0  0  0  0
  3  8  1  0  0  0  0
  3  4  2  0  0  0  0
  4 12  1  0  0  0  0
  5  3  1  0  0  0  0
  6 10  1  6  0  0  0
  6  2  1  0  0  0  0
  7  5  2  0  0  0  0
  7  6  1  0  0  0  0
 10  1  2  0  0  0  0
 11 13  1  0  0  0  0
 11 14  1  0  0  0  0
 12 16  1  0  0  0  0
 12 11  1  0  0  0  0
 13 17  1  0  0  0  0
 13 14  1  0  0  0  0
 15 14  1  0  0  0  0
 16 15  2  0  0  0  0
 17 18  1  0  0  0  0
 19  5  1  0  0  0  0
 20 19  1  0  0  0  0
 21 20  1  0  0  0  0
 21 22  2  0  0  0  0
 23 21  1  0  0  0  0
 24 19  1  0  0  0  0
 26 25  1  0  0  0  0
 26 24  1  0  0  0  0
 27 24  1  0  0  0  0
 28 27  1  0  0  0  0
 29 28  1  0  0  0  0
M  END
>  <MODEL>
6

>  <REMARK>
 VINA RESULT:      -7.0      2.847      6.845
  Name = 
  8 active torsions:
  status: ('A' for Active; 'I' for Inactive)
    1  A    between atoms: N_3  and  C_24
    2  A    between atoms: O_4  and  C_15
    3  A    between atoms: C_5  and  C_17
    4  A    between atoms: C_8  and  C_9
    5  A    between atoms: C_11  and  C_29
    6  A    between atoms: C_12  and  C_24
    7  A    between atoms: C_17  and  C_29
    8  A    between atoms: C_24  and  C_29
                            x       y       z     vdW  Elec       q    Type
                         _______ _______ _______ _____ _____    ______ ____

>  <TORSDO>
F 8

$$$$
=
 OpenBabel10222422103D

 29 32  0  0  1  0  0  0  0  0999 V2000
  189.4660  176.0880  142.5480 C   0  0  0  0  0  3  0  0  0  0  0  0
  187.8800  177.5300  142.9280 C   0  0  2  0  0  3  0  0  0  0  0  0
  185.8940  178.5720  142.0800 C   0  0  0  0  0  0  0  0  0  0  0  0
  186.5080  178.0170  143.1430 C   0  0  0  0  0  0  0  0  0  0  0  0
  186.5840  178.6090  140.7450 C   0  0  0  0  0  0  0  0  0  0  0  0
  188.6960  178.1190  141.8410 C   0  0  2  0  0  3  0  0  0  0  0  0
  187.8550  178.3140  140.6580 N   0  0  0  0  0  0  0  0  0  0  0  0
  184.6030  179.0750  142.2180 O   0  0  0  0  0  1  0  0  0  0  0  0
  188.3110  176.3810  143.3240 N   0  0  0  0  0  2  0  0  0  0  0  0
  189.7040  177.0380  141.6500 C   0  0  0  0  0  3  0  0  0  0  0  0
  186.5870  177.1690  145.4770 N   0  0  1  0  0  0  0  0  0  0  0  0
  185.7610  177.8210  144.4450 C   0  0  1  0  0  3  0  0  0  0  0  0
  187.7090  178.0420  145.8820 C   0  0  1  0  0  3  0  0  0  0  0  0
  186.4740  178.0420  146.6660 C   0  0  1  0  0  3  0  0  0  0  0  0
  185.5960  179.1830  146.2730 C   0  0  0  0  0  3  0  0  0  0  0  0
  185.1800  179.0650  145.0260 C   0  0  0  0  0  3  0  0  0  0  0  0
  188.6770  177.2730  146.5270 O   0  0  0  0  0  0  0  0  0  0  0  0
  189.8920  177.7630  146.0460 C   0  0  0  0  0  1  0  0  0  0  0  0
  185.8300  178.7950  139.4530 C   0  0  1  0  0  3  0  0  0  0  0  0
  186.2680  177.8330  138.4410 N   0  0  0  0  0  2  0  0  0  0  0  0
  186.9410  178.1580  137.2200 C   0  0  0  0  0  0  0  0  0  0  0  0
  187.2820  179.3410  136.9640 O   0  0  0  0  0  0  0  0  0  0  0  0
  187.2420  177.1250  136.2910 N   0  0  0  0  0  1  0  0  0  0  0  0
  184.3000  178.8810  139.5850 C   0  0  2  0  0  3  0  0  0  0  0  0
  183.0010  176.9760  140.2250 O   0  0  0  0  0  1  0  0  0  0  0  0
  183.6250  177.5880  139.1380 C   0  0  0  0  0  2  0  0  0  0  0  0
  183.7130  180.0940  138.8490 C   0  0  0  0  0  2  0  0  0  0  0  0
  182.2020  180.0160  138.6590 C   0  0  0  0  0  2  0  0  0  0  0  0
  181.6630  181.2960  138.5320 O   0  0  0  0  0  1  0  0  0  0  0  0
  1  9  1  0  0  0  0
  2  4  1  6  0  0  0
  2  9  1  0  0  0  0
  3  8  1  0  0  0  0
  3  4  2  0  0  0  0
  4 12  1  0  0  0  0
  5  3  1  0  0  0  0
  6 10  1  6  0  0  0
  6  2  1  0  0  0  0
  7  5  2  0  0  0  0
  7  6  1  0  0  0  0
 10  1  2  0  0  0  0
 11 13  1  0  0  0  0
 11 14  1  0  0  0  0
 12 16  1  0  0  0  0
 12 11  1  0  0  0  0
 13 17  1  0  0  0  0
 13 14  1  0  0  0  0
 15 14  1  0  0  0  0
 16 15  2  0  0  0  0
 18 17  1  0  0  0  0
 19 24  1  0  0  0  0
 19  5  1  0  0  0  0
 20 19  1  0  0  0  0
 21 20  1  0  0  0  0
 22 21  2  0  0  0  0
 23 21  1  0  0  0  0
 26 24  1  0  0  0  0
 26 25  1  0  0  0  0
 27 24  1  0  0  0  0
 28 27  1  0  0  0  0
 29 28  1  0  0  0  0
M  END
>  <MODEL>
7

>  <REMARK>
 VINA RESULT:      -6.9      2.860      6.743
  Name = 
  8 active torsions:
  status: ('A' for Active; 'I' for Inactive)
    1  A    between atoms: N_3  and  C_24
    2  A    between atoms: O_4  and  C_15
    3  A    between atoms: C_5  and  C_17
    4  A    between atoms: C_8  and  C_9
    5  A    between atoms: C_11  and  C_29
    6  A    between atoms: C_12  and  C_24
    7  A    between atoms: C_17  and  C_29
    8  A    between atoms: C_24  and  C_29
                            x       y       z     vdW  Elec       q    Type
                         _______ _______ _______ _____ _____    ______ ____

>  <TORSDO>
F 8

$$$$
=
 OpenBabel10222422103D

 29 32  0  0  1  0  0  0  0  0999 V2000
  188.2410  178.4070  140.4540 C   0  0  0  0  0  3  0  0  0  0  0  0
  186.9500  178.1470  142.1880 C   0  0  2  0  0  3  0  0  0  0  0  0
  186.7940  178.2150  144.5810 C   0  0  0  0  0  0  0  0  0  0  0  0
  186.2140  178.5280  143.4050 C   0  0  0  0  0  0  0  0  0  0  0  0
  188.1540  177.5740  144.6040 C   0  0  0  0  0  0  0  0  0  0  0  0
  187.9190  177.0290  142.2480 C   0  0  2  0  0  3  0  0  0  0  0  0
  188.6780  177.1130  143.4970 N   0  0  0  0  0  0  0  0  0  0  0  0
  186.1430  178.5240  145.7720 O   0  0  0  0  0  1  0  0  0  0  0  0
  187.1340  178.9280  141.1800 N   0  0  0  0  0  2  0  0  0  0  0  0
  188.7550  177.3380  141.0530 C   0  0  0  0  0  3  0  0  0  0  0  0
  184.2600  179.2650  142.0600 N   0  0  1  0  0  0  0  0  0  0  0  0
  184.9280  179.3240  143.3720 C   0  0  1  0  0  3  0  0  0  0  0  0
  183.7930  177.8940  141.7670 C   0  0  1  0  0  3  0  0  0  0  0  0
  182.8680  178.8630  142.3540 C   0  0  1  0  0  3  0  0  0  0  0  0
  182.7820  178.6850  143.8340 C   0  0  0  0  0  3  0  0  0  0  0  0
  183.9340  178.9520  144.4200 C   0  0  0  0  0  3  0  0  0  0  0  0
  183.5470  177.7760  140.4000 O   0  0  0  0  0  0  0  0  0  0  0  0
  183.7350  179.0640  139.8980 C   0  0  0  0  0  1  0  0  0  0  0  0
  189.0360  177.5990  145.8250 C   0  0  1  0  0  3  0  0  0  0  0  0
  188.3590  177.0050  146.9790 N   0  0  0  0  0  2  0  0  0  0  0  0
  188.1100  177.6610  148.2270 C   0  0  0  0  0  0  0  0  0  0  0  0
  188.4050  178.8730  148.3910 O   0  0  0  0  0  0  0  0  0  0  0  0
  187.5070  176.9350  149.2910 N   0  0  0  0  0  1  0  0  0  0  0  0
  190.4650  177.0690  145.6230 C   0  0  2  0  0  3  0  0  0  0  0  0
  192.3800  176.1430  146.7200 O   0  0  0  0  0  1  0  0  0  0  0  0
  191.0650  176.5590  146.9300 C   0  0  0  0  0  2  0  0  0  0  0  0
  191.3870  178.1000  144.9570 C   0  0  0  0  0  2  0  0  0  0  0  0
  191.7430  177.7540  143.5140 C   0  0  0  0  0  2  0  0  0  0  0  0
  191.8800  176.3740  143.3680 O   0  0  0  0  0  1  0  0  0  0  0  0
  1 10  2  0  0  0  0
  1  9  1  0  0  0  0
  2  9  1  1  0  0  0
  2  6  1  0  0  0  0
  2  4  1  0  0  0  0
  3  5  1  0  0  0  0
  3  8  1  0  0  0  0
  4  3  2  0  0  0  0
  5 19  1  0  0  0  0
  6 10  1  6  0  0  0
  6  7  1  0  0  0  0
  7  5  2  0  0  0  0
 11 14  1  0  0  0  0
 11 12  1  0  0  0  0
 12  4  1  0  0  0  0
 12 16  1  0  0  0  0
 13 11  1  0  0  0  0
 13 14  1  0  0  0  0
 14 15  1  0  0  0  0
 15 16  2  0  0  0  0
 17 13  1  0  0  0  0
 18 17  1  0  0  0  0
 19 20  1  0  0  0  0
 20 21  1  0  0  0  0
 21 22  2  0  0  0  0
 21 23  1  0  0  0  0
 24 19  1  0  0  0  0
 24 26  1  0  0  0  0
 25 26  1  0  0  0  0
 27 24  1  0  0  0  0
 28 27  1  0  0  0  0
 29 28  1  0  0  0  0
M  END
>  <MODEL>
8

>  <REMARK>
 VINA RESULT:      -6.9      2.444      5.607
  Name = 
  8 active torsions:
  status: ('A' for Active; 'I' for Inactive)
    1  A    between atoms: N_3  and  C_24
    2  A    between atoms: O_4  and  C_15
    3  A    between atoms: C_5  and  C_17
    4  A    between atoms: C_8  and  C_9
    5  A    between atoms: C_11  and  C_29
    6  A    between atoms: C_12  and  C_24
    7  A    between atoms: C_17  and  C_29
    8  A    between atoms: C_24  and  C_29
                            x       y       z     vdW  Elec       q    Type
                         _______ _______ _______ _____ _____    ______ ____

>  <TORSDO>
F 8

$$$$
=
 OpenBabel10222422103D

 29 32  0  0  1  0  0  0  0  0999 V2000
  187.9820  177.6720  135.8860 C   0  0  0  0  0  3  0  0  0  0  0  0
  189.6110  177.5930  137.3270 C   0  0  2  0  0  3  0  0  0  0  0  0
  190.2160  177.3440  139.6350 C   0  0  0  0  0  0  0  0  0  0  0  0
  190.4890  177.0140  138.3580 C   0  0  0  0  0  0  0  0  0  0  0  0
  189.0250  178.2060  139.9530 C   0  0  0  0  0  0  0  0  0  0  0  0
  188.8910  178.8550  137.6160 C   0  0  2  0  0  3  0  0  0  0  0  0
  188.3880  178.8200  138.9910 N   0  0  0  0  0  0  0  0  0  0  0  0
  191.0190  176.8510  140.6590 O   0  0  0  0  0  1  0  0  0  0  0  0
  189.0960  176.9220  136.3550 N   0  0  0  0  0  2  0  0  0  0  0  0
  187.7970  178.7720  136.6080 C   0  0  0  0  0  3  0  0  0  0  0  0
  191.0990  174.6200  138.0960 N   0  0  1  0  0  0  0  0  0  0  0  0
  191.5780  176.0120  138.0400 C   0  0  1  0  0  3  0  0  0  0  0  0
  190.1080  174.3600  137.0310 C   0  0  1  0  0  3  0  0  0  0  0  0
  191.5130  174.0190  136.8090 C   0  0  1  0  0  3  0  0  0  0  0  0
  192.2060  175.0970  136.0420 C   0  0  0  0  0  3  0  0  0  0  0  0
  192.2570  176.2220  136.7300 C   0  0  0  0  0  3  0  0  0  0  0  0
  189.3880  173.2090  137.3460 O   0  0  0  0  0  0  0  0  0  0  0  0
  188.2240  173.3030  136.5810 C   0  0  0  0  0  1  0  0  0  0  0  0
  188.4080  178.2530  141.3270 C   0  0  1  0  0  3  0  0  0  0  0  0
  187.0030  177.8460  141.2910 N   0  0  0  0  0  2  0  0  0  0  0  0
  185.8840  178.6900  141.5850 C   0  0  0  0  0  0  0  0  0  0  0  0
  186.0430  179.9130  141.8320 O   0  0  0  0  0  0  0  0  0  0  0  0
  184.5730  178.1400  141.5830 N   0  0  0  0  0  1  0  0  0  0  0  0
  189.2110  177.5560  142.4390 C   0  0  2  0  0  3  0  0  0  0  0  0
  188.0660  176.7850  144.3940 O   0  0  0  0  0  1  0  0  0  0  0  0
  188.4110  176.4320  143.0890 C   0  0  0  0  0  2  0  0  0  0  0  0
  189.7360  178.5410  143.4920 C   0  0  0  0  0  2  0  0  0  0  0  0
  191.2400  178.4390  143.7240 C   0  0  0  0  0  2  0  0  0  0  0  0
  191.6060  177.1110  143.9430 O   0  0  0  0  0  1  0  0  0  0  0  0
  1  9  1  0  0  0  0
  1 10  2  0  0  0  0
  2  9  1  1  0  0  0
  2  6  1  0  0  0  0
  2  4  1  0  0  0  0
  3  5  1  0  0  0  0
  3  8  1  0  0  0  0
  4  3  2  0  0  0  0
  5 19  1  0  0  0  0
  6 10  1  6  0  0  0
  6  7  1  0  0  0  0
  7  5  2  0  0  0  0
 12 11  1  0  0  0  0
 12  4  1  0  0  0  0
 13 17  1  0  0  0  0
 13 11  1  0  0  0  0
 14 13  1  0  0  0  0
 14 11  1  0  0  0  0
 15 16  2  0  0  0  0
 15 14  1  0  0  0  0
 16 12  1  0  0  0  0
 18 17  1  0  0  0  0
 19 24  1  0  0  0  0
 20 19  1  0  0  0  0
 20 21  1  0  0  0  0
 21 22  2  0  0  0  0
 23 21  1  0  0  0  0
 24 26  1  0  0  0  0
 24 27  1  0  0  0  0
 26 25  1  0  0  0  0
 27 28  1  0  0  0  0
 28 29  1  0  0  0  0
M  END
>  <MODEL>
9

>  <REMARK>
 VINA RESULT:      -6.8      2.660      4.698
  Name = 
  8 active torsions:
  status: ('A' for Active; 'I' for Inactive)
    1  A    between atoms: N_3  and  C_24
    2  A    between atoms: O_4  and  C_15
    3  A    between atoms: C_5  and  C_17
    4  A    between atoms: C_8  and  C_9
    5  A    between atoms: C_11  and  C_29
    6  A    between atoms: C_12  and  C_24
    7  A    between atoms: C_17  and  C_29
    8  A    between atoms: C_24  and  C_29
                            x       y       z     vdW  Elec       q    Type
                         _______ _______ _______ _____ _____    ______ ____

>  <TORSDO>
F 8

$$$$
