=
 OpenBabel10222421483D

 31 33  0  0  1  0  0  0  0  0999 V2000
  186.6360  177.7270  143.5390 N   0  0  0  0  0  0  0  0  0  0  0  0
  185.1620  179.2730  142.5710 O   0  0  0  0  0  0  0  0  0  0  0  0
  185.6070  178.7290  143.6200 C   0  0  0  0  0  0  0  0  0  0  0  0
  185.0250  179.1200  144.9380 C   0  0  0  0  0  2  0  0  0  0  0  0
  183.5150  178.9720  144.9010 C   0  0  0  0  0  1  0  0  0  0  0  0
  187.0420  177.0340  144.6900 N   0  0  0  0  0  2  0  0  0  0  0  0
  188.4360  176.8960  144.6200 N   0  0  0  0  0  2  0  0  0  0  0  0
  190.1370  178.6270  144.3620 C   0  0  0  0  0  2  0  0  0  0  0  0
  190.7470  176.8030  146.5760 C   0  0  0  0  0  0  0  0  0  0  0  0
  191.3270  177.7090  144.3270 C   0  0  0  0  0  0  0  0  0  0  0  0
  189.0230  178.0710  145.2510 C   0  0  2  0  0  3  0  0  0  0  0  0
  189.5660  177.7400  146.6540 C   0  0  1  0  0  3  0  0  0  0  0  0
  192.1080  177.7370  143.3410 O   0  0  0  0  0  0  0  0  0  0  0  0
  191.0320  176.0380  147.5390 O   0  0  0  0  0  0  0  0  0  0  0  0
  191.6030  176.8380  145.4290 N   0  0  0  0  0  2  0  0  0  0  0  0
  188.5060  177.9940  148.8840 C   0  0  0  0  0  2  0  0  0  0  0  0
  188.4660  177.2220  147.5800 C   0  0  0  0  0  3  0  0  0  0  0  0
  187.4550  178.3220  147.8480 C   0  0  0  0  0  2  0  0  0  0  0  0
  187.1760  177.3050  142.2500 C   0  0  0  0  0  2  0  0  0  0  0  0
  187.8940  178.4560  141.5470 C   0  0  0  0  0  2  0  0  0  0  0  0
  187.0720  178.3970  138.7910 F   0  0  0  0  0  0  0  0  0  0  0  0
  188.7620  177.9630  140.4360 C   0  0  0  0  0  0  0  0  0  0  0  0
  190.0450  177.4890  140.7250 C   0  0  0  0  0  2  0  0  0  0  0  0
  190.4280  176.9960  138.4270 C   0  0  0  0  0  0  0  0  0  0  0  0
  189.1450  177.4560  138.1030 C   0  0  0  0  0  2  0  0  0  0  0  0
  188.3110  177.9450  139.1100 C   0  0  0  0  0  0  0  0  0  0  0  0
  190.8410  177.0220  139.7250 N   0  0  0  0  0  0  0  0  0  0  0  0
  192.6110  174.7690  136.1050 C   0  0  0  0  0  1  0  0  0  0  0  0
  191.0060  174.1880  137.7520 O   0  0  0  0  0  0  0  0  0  0  0  0
  191.3220  176.4930  137.4210 N   0  0  0  0  0  2  0  0  0  0  0  0
  191.6070  175.1140  137.1470 C   0  0  0  0  0  0  0  0  0  0  0  0
  1  3  1  0  0  0  0
  1  6  1  0  0  0  0
  2  3  2  0  0  0  0
  3  4  1  0  0  0  0
  5  4  1  0  0  0  0
  7  6  1  0  0  0  0
  8 11  1  0  0  0  0
  9 12  1  0  0  0  0
  9 14  2  0  0  0  0
 10  8  1  0  0  0  0
 10 15  1  0  0  0  0
 11  7  1  6  0  0  0
 11 12  1  0  0  0  0
 12 17  1  1  0  0  0
 13 10  2  0  0  0  0
 15  9  1  0  0  0  0
 17 18  1  0  0  0  0
 17 16  1  0  0  0  0
 18 16  1  0  0  0  0
 19  1  1  0  0  0  0
 20 19  1  0  0  0  0
 21 26  1  0  0  0  0
 22 23  1  0  0  0  0
 22 20  1  0  0  0  0
 24 27  2  0  0  0  0
 25 24  1  0  0  0  0
 25 26  1  0  0  0  0
 26 22  2  0  0  0  0
 27 23  1  0  0  0  0
 28 31  1  0  0  0  0
 30 24  1  0  0  0  0
 31 30  1  0  0  0  0
 31 29  2  0  0  0  0
M  END
>  <MODEL>
1

>  <REMARK>
 VINA RESULT:      -8.3      0.000      0.000
  Name = 
  9 active torsions:
  status: ('A' for Active; 'I' for Inactive)
    1  A    between atoms: N_2  and  N_3
    2  A    between atoms: N_2  and  N_9
    3  A    between atoms: N_3  and  C_15
    4  A    between atoms: C_7  and  C_27
    5  A    between atoms: N_9  and  C_25
    6  A    between atoms: C_10  and  C_14
    7  A    between atoms: C_14  and  C_25
    8  A    between atoms: N_17  and  C_19
    9  A    between atoms: C_18  and  C_26
                            x       y       z     vdW  Elec       q    Type
                         _______ _______ _______ _____ _____    ______ ____

>  <TORSDO>
F 9

$$$$
=
 OpenBabel10222421483D

 31 33  0  0  1  0  0  0  0  0999 V2000
  188.1260  177.2990  142.0440 N   0  0  0  0  0  0  0  0  0  0  0  0
  188.0340  178.8040  140.2480 O   0  0  0  0  0  0  0  0  0  0  0  0
  187.5090  178.3750  141.3130 C   0  0  0  0  0  0  0  0  0  0  0  0
  186.2260  178.9780  141.7800 C   0  0  0  0  0  2  0  0  0  0  0  0
  185.2420  179.0550  140.6280 C   0  0  0  0  0  1  0  0  0  0  0  0
  187.4790  176.7380  143.1570 N   0  0  0  0  0  2  0  0  0  0  0  0
  188.4370  176.6160  144.1740 N   0  0  0  0  0  2  0  0  0  0  0  0
  190.0660  178.2810  144.9050 C   0  0  0  0  0  2  0  0  0  0  0  0
  188.6400  177.0670  147.1620 C   0  0  0  0  0  0  0  0  0  0  0  0
  190.7700  177.4170  145.9130 C   0  0  0  0  0  0  0  0  0  0  0  0
  188.5820  177.9250  144.7970 C   0  0  2  0  0  3  0  0  0  0  0  0
  187.9160  177.9620  146.1850 C   0  0  1  0  0  3  0  0  0  0  0  0
  192.0100  177.2270  145.8160 O   0  0  0  0  0  0  0  0  0  0  0  0
  188.0380  176.5680  148.1530 O   0  0  0  0  0  0  0  0  0  0  0  0
  190.0470  176.8480  147.0100 N   0  0  0  0  0  2  0  0  0  0  0  0
  185.6670  178.5880  147.0290 C   0  0  0  0  0  2  0  0  0  0  0  0
  186.4210  177.6520  146.1050 C   0  0  0  0  0  3  0  0  0  0  0  0
  185.6760  178.8480  145.5400 C   0  0  0  0  0  2  0  0  0  0  0  0
  189.3550  176.6720  141.5680 C   0  0  0  0  0  2  0  0  0  0  0  0
  190.4380  177.7140  141.2960 C   0  0  0  0  0  2  0  0  0  0  0  0
  189.5510  176.4260  138.8810 F   0  0  0  0  0  0  0  0  0  0  0  0
  191.3610  177.2720  140.2080 C   0  0  0  0  0  0  0  0  0  0  0  0
  192.7370  177.4740  140.3500 C   0  0  0  0  0  2  0  0  0  0  0  0
  193.1500  176.4470  138.2420 C   0  0  0  0  0  0  0  0  0  0  0  0
  191.7780  176.2220  138.0700 C   0  0  0  0  0  2  0  0  0  0  0  0
  190.8810  176.6390  139.0550 C   0  0  0  0  0  0  0  0  0  0  0  0
  193.5920  177.0620  139.3750 N   0  0  0  0  0  0  0  0  0  0  0  0
  195.5750  174.4590  135.9420 C   0  0  0  0  0  1  0  0  0  0  0  0
  193.9910  173.7120  137.5430 O   0  0  0  0  0  0  0  0  0  0  0  0
  194.1080  176.0410  137.2500 N   0  0  0  0  0  2  0  0  0  0  0  0
  194.5210  174.6970  136.9640 C   0  0  0  0  0  0  0  0  0  0  0  0
  1  6  1  0  0  0  0
  2  3  2  0  0  0  0
  3  4  1  0  0  0  0
  3  1  1  0  0  0  0
  5  4  1  0  0  0  0
  6  7  1  0  0  0  0
  8 10  1  0  0  0  0
  9 14  2  0  0  0  0
 10 15  1  0  0  0  0
 11  7  1  1  0  0  0
 11  8  1  0  0  0  0
 11 12  1  0  0  0  0
 12 17  1  6  0  0  0
 12  9  1  0  0  0  0
 13 10  2  0  0  0  0
 15  9  1  0  0  0  0
 17 16  1  0  0  0  0
 18 17  1  0  0  0  0
 18 16  1  0  0  0  0
 19  1  1  0  0  0  0
 20 19  1  0  0  0  0
 21 26  1  0  0  0  0
 22 23  1  0  0  0  0
 22 20  1  0  0  0  0
 24 27  2  0  0  0  0
 25 24  1  0  0  0  0
 25 26  1  0  0  0  0
 26 22  2  0  0  0  0
 27 23  1  0  0  0  0
 28 31  1  0  0  0  0
 30 24  1  0  0  0  0
 31 30  1  0  0  0  0
 31 29  2  0  0  0  0
M  END
>  <MODEL>
2

>  <REMARK>
 VINA RESULT:      -8.0      2.076      2.707
  Name = 
  9 active torsions:
  status: ('A' for Active; 'I' for Inactive)
    1  A    between atoms: N_2  and  N_3
    2  A    between atoms: N_2  and  N_9
    3  A    between atoms: N_3  and  C_15
    4  A    between atoms: C_7  and  C_27
    5  A    between atoms: N_9  and  C_25
    6  A    between atoms: C_10  and  C_14
    7  A    between atoms: C_14  and  C_25
    8  A    between atoms: N_17  and  C_19
    9  A    between atoms: C_18  and  C_26
                            x       y       z     vdW  Elec       q    Type
                         _______ _______ _______ _____ _____    ______ ____

>  <TORSDO>
F 9

$$$$
=
 OpenBabel10222421483D

 31 33  0  0  1  0  0  0  0  0999 V2000
  190.3560  177.0480  144.1660 N   0  0  0  0  0  0  0  0  0  0  0  0
  191.9310  175.3160  144.3130 O   0  0  0  0  0  0  0  0  0  0  0  0
  191.3760  176.3080  144.8620 C   0  0  0  0  0  0  0  0  0  0  0  0
  191.8190  176.7200  146.2270 C   0  0  0  0  0  2  0  0  0  0  0  0
  192.2330  175.4980  147.0250 C   0  0  0  0  0  1  0  0  0  0  0  0
  189.8290  178.2240  144.7230 N   0  0  0  0  0  2  0  0  0  0  0  0
  188.5140  178.3510  144.2530 N   0  0  0  0  0  2  0  0  0  0  0  0
  186.6200  176.8570  143.8780 C   0  0  0  0  0  2  0  0  0  0  0  0
  186.1030  178.7750  146.0360 C   0  0  0  0  0  0  0  0  0  0  0  0
  185.5690  177.9240  143.7550 C   0  0  0  0  0  0  0  0  0  0  0  0
  187.7330  177.2730  144.8430 C   0  0  2  0  0  3  0  0  0  0  0  0
  187.1400  177.6900  146.2020 C   0  0  1  0  0  3  0  0  0  0  0  0
  184.8630  177.9870  142.7150 O   0  0  0  0  0  0  0  0  0  0  0  0
  185.8550  179.5830  146.9740 O   0  0  0  0  0  0  0  0  0  0  0  0
  185.3330  178.8380  144.8310 N   0  0  0  0  0  2  0  0  0  0  0  0
  187.7740  177.7040  148.6030 C   0  0  0  0  0  2  0  0  0  0  0  0
  188.2310  178.0710  147.2030 C   0  0  0  0  0  3  0  0  0  0  0  0
  188.7680  176.8220  147.8810 C   0  0  0  0  0  2  0  0  0  0  0  0
  189.9520  176.6810  142.8120 C   0  0  0  0  0  2  0  0  0  0  0  0
  190.7480  177.4610  141.7660 C   0  0  0  0  0  2  0  0  0  0  0  0
  191.7450  176.7220  139.1720 F   0  0  0  0  0  0  0  0  0  0  0  0
  189.9700  177.6320  140.5030 C   0  0  0  0  0  0  0  0  0  0  0  0
  188.6890  178.1890  140.5540 C   0  0  0  0  0  2  0  0  0  0  0  0
  188.4710  178.0160  138.1890 C   0  0  0  0  0  0  0  0  0  0  0  0
  189.7540  177.4620  138.1010 C   0  0  0  0  0  2  0  0  0  0  0  0
  190.5050  177.2660  139.2610 C   0  0  0  0  0  0  0  0  0  0  0  0
  187.9750  178.3660  139.4100 N   0  0  0  0  0  0  0  0  0  0  0  0
  186.1950  177.6090  135.0630 C   0  0  0  0  0  1  0  0  0  0  0  0
  186.8920  176.0310  136.6930 O   0  0  0  0  0  0  0  0  0  0  0  0
  187.6620  178.2270  137.0210 N   0  0  0  0  0  2  0  0  0  0  0  0
  186.9360  177.2250  136.2940 C   0  0  0  0  0  0  0  0  0  0  0  0
  1  6  1  0  0  0  0
  1  3  1  0  0  0  0
  2  3  2  0  0  0  0
  3  4  1  0  0  0  0
  4  5  1  0  0  0  0
  7  6  1  0  0  0  0
  8 11  1  0  0  0  0
  9 12  1  0  0  0  0
  9 14  2  0  0  0  0
 10  8  1  0  0  0  0
 10 15  1  0  0  0  0
 11  7  1  6  0  0  0
 11 12  1  0  0  0  0
 12 17  1  1  0  0  0
 13 10  2  0  0  0  0
 15  9  1  0  0  0  0
 17 18  1  0  0  0  0
 17 16  1  0  0  0  0
 18 16  1  0  0  0  0
 19  1  1  0  0  0  0
 20 19  1  0  0  0  0
 21 26  1  0  0  0  0
 22 23  1  0  0  0  0
 22 20  1  0  0  0  0
 24 27  2  0  0  0  0
 25 24  1  0  0  0  0
 25 26  1  0  0  0  0
 26 22  2  0  0  0  0
 27 23  1  0  0  0  0
 28 31  1  0  0  0  0
 30 24  1  0  0  0  0
 31 29  2  0  0  0  0
 31 30  1  0  0  0  0
M  END
>  <MODEL>
3

>  <REMARK>
 VINA RESULT:      -7.9      2.353      4.702
  Name = 
  9 active torsions:
  status: ('A' for Active; 'I' for Inactive)
    1  A    between atoms: N_2  and  N_3
    2  A    between atoms: N_2  and  N_9
    3  A    between atoms: N_3  and  C_15
    4  A    between atoms: C_7  and  C_27
    5  A    between atoms: N_9  and  C_25
    6  A    between atoms: C_10  and  C_14
    7  A    between atoms: C_14  and  C_25
    8  A    between atoms: N_17  and  C_19
    9  A    between atoms: C_18  and  C_26
                            x       y       z     vdW  Elec       q    Type
                         _______ _______ _______ _____ _____    ______ ____

>  <TORSDO>
F 9

$$$$
=
 OpenBabel10222421483D

 31 33  0  0  1  0  0  0  0  0999 V2000
  187.2220  177.9700  145.2520 N   0  0  0  0  0  0  0  0  0  0  0  0
  185.6800  177.6170  146.9840 O   0  0  0  0  0  0  0  0  0  0  0  0
  186.7980  178.0760  146.6240 C   0  0  0  0  0  0  0  0  0  0  0  0
  187.6850  178.7010  147.6500 C   0  0  0  0  0  2  0  0  0  0  0  0
  188.2050  177.6390  148.5990 C   0  0  0  0  0  1  0  0  0  0  0  0
  188.5150  178.3670  144.8780 N   0  0  0  0  0  2  0  0  0  0  0  0
  189.3610  177.2680  145.0820 N   0  0  0  0  0  2  0  0  0  0  0  0
  191.1440  178.4580  143.9140 C   0  0  0  0  0  2  0  0  0  0  0  0
  191.8570  175.6660  144.4650 C   0  0  0  0  0  0  0  0  0  0  0  0
  191.3380  177.4570  142.8090 C   0  0  0  0  0  0  0  0  0  0  0  0
  190.7180  177.7810  145.2180 C   0  0  2  0  0  3  0  0  0  0  0  0
  191.7050  176.6590  145.5920 C   0  0  1  0  0  3  0  0  0  0  0  0
  191.2250  177.8210  141.6100 O   0  0  0  0  0  0  0  0  0  0  0  0
  192.1940  174.4720  144.6940 O   0  0  0  0  0  0  0  0  0  0  0  0
  191.6960  176.1040  143.1110 N   0  0  0  0  0  2  0  0  0  0  0  0
  192.5960  175.6050  147.6560 C   0  0  0  0  0  2  0  0  0  0  0  0
  191.3300  175.9910  146.9150 C   0  0  0  0  0  3  0  0  0  0  0  0
  191.8220  176.8340  148.0770 C   0  0  0  0  0  2  0  0  0  0  0  0
  186.3810  177.3170  144.2540 C   0  0  0  0  0  2  0  0  0  0  0  0
  185.3520  178.2880  143.6770 C   0  0  0  0  0  2  0  0  0  0  0  0
  183.1270  178.2840  141.8540 F   0  0  0  0  0  0  0  0  0  0  0  0
  185.4970  178.4230  142.1970 C   0  0  0  0  0  0  0  0  0  0  0  0
  186.7720  178.5500  141.6390 C   0  0  0  0  0  2  0  0  0  0  0  0
  185.8530  178.6470  139.4450 C   0  0  0  0  0  0  0  0  0  0  0  0
  184.5610  178.5130  139.9690 C   0  0  0  0  0  2  0  0  0  0  0  0
  184.3820  178.4060  141.3500 C   0  0  0  0  0  0  0  0  0  0  0  0
  186.9210  178.6590  140.2920 N   0  0  0  0  0  0  0  0  0  0  0  0
  186.9770  178.1470  135.7570 C   0  0  0  0  0  1  0  0  0  0  0  0
  187.1950  176.7350  137.6510 O   0  0  0  0  0  0  0  0  0  0  0  0
  186.0810  178.7690  138.0320 N   0  0  0  0  0  2  0  0  0  0  0  0
  186.7760  177.8320  137.1960 C   0  0  0  0  0  0  0  0  0  0  0  0
  1  3  1  0  0  0  0
  3  2  2  0  0  0  0
  3  4  1  0  0  0  0
  4  5  1  0  0  0  0
  6  7  1  0  0  0  0
  6  1  1  0  0  0  0
  8 11  1  0  0  0  0
  9 14  2  0  0  0  0
  9 12  1  0  0  0  0
 10 15  1  0  0  0  0
 10  8  1  0  0  0  0
 11  7  1  6  0  0  0
 11 12  1  0  0  0  0
 12 17  1  1  0  0  0
 13 10  2  0  0  0  0
 15  9  1  0  0  0  0
 16 18  1  0  0  0  0
 17 16  1  0  0  0  0
 17 18  1  0  0  0  0
 19  1  1  0  0  0  0
 20 19  1  0  0  0  0
 22 20  1  0  0  0  0
 23 22  1  0  0  0  0
 24 25  1  0  0  0  0
 24 27  2  0  0  0  0
 25 26  1  0  0  0  0
 26 21  1  0  0  0  0
 26 22  2  0  0  0  0
 27 23  1  0  0  0  0
 28 31  1  0  0  0  0
 30 24  1  0  0  0  0
 31 29  2  0  0  0  0
 31 30  1  0  0  0  0
M  END
>  <MODEL>
4

>  <REMARK>
 VINA RESULT:      -7.8      2.990      3.919
  Name = 
  9 active torsions:
  status: ('A' for Active; 'I' for Inactive)
    1  A    between atoms: N_2  and  N_3
    2  A    between atoms: N_2  and  N_9
    3  A    between atoms: N_3  and  C_15
    4  A    between atoms: C_7  and  C_27
    5  A    between atoms: N_9  and  C_25
    6  A    between atoms: C_10  and  C_14
    7  A    between atoms: C_14  and  C_25
    8  A    between atoms: N_17  and  C_19
    9  A    between atoms: C_18  and  C_26
                            x       y       z     vdW  Elec       q    Type
                         _______ _______ _______ _____ _____    ______ ____

>  <TORSDO>
F 9

$$$$
=
 OpenBabel10222421483D

 31 33  0  0  1  0  0  0  0  0999 V2000
  185.8160  178.6990  140.4090 N   0  0  0  0  0  0  0  0  0  0  0  0
  183.5730  178.7970  141.0880 O   0  0  0  0  0  0  0  0  0  0  0  0
  184.4020  178.5990  140.1570 C   0  0  0  0  0  0  0  0  0  0  0  0
  183.8910  178.2920  138.7880 C   0  0  0  0  0  2  0  0  0  0  0  0
  182.6900  179.1650  138.4780 C   0  0  0  0  0  1  0  0  0  0  0  0
  186.7320  178.6020  139.3500 N   0  0  0  0  0  2  0  0  0  0  0  0
  187.8010  177.8120  139.7980 N   0  0  0  0  0  2  0  0  0  0  0  0
  188.9570  179.0690  138.0540 C   0  0  0  0  0  2  0  0  0  0  0  0
  190.2660  176.5060  138.6200 C   0  0  0  0  0  0  0  0  0  0  0  0
  189.0080  177.9640  137.0370 C   0  0  0  0  0  0  0  0  0  0  0  0
  189.0320  178.5240  139.4820 C   0  0  2  0  0  3  0  0  0  0  0  0
  190.2630  177.6120  139.6480 C   0  0  1  0  0  3  0  0  0  0  0  0
  188.5070  178.1410  135.8970 O   0  0  0  0  0  0  0  0  0  0  0  0
  190.8550  175.4130  138.8470 O   0  0  0  0  0  0  0  0  0  0  0  0
  189.6640  176.7280  137.3400 N   0  0  0  0  0  2  0  0  0  0  0  0
  191.8140  177.2870  141.5590 C   0  0  0  0  0  2  0  0  0  0  0  0
  190.3900  177.0850  141.0770 C   0  0  0  0  0  3  0  0  0  0  0  0
  190.7230  178.2270  142.0210 C   0  0  0  0  0  2  0  0  0  0  0  0
  186.3220  179.0460  141.7340 C   0  0  0  0  0  2  0  0  0  0  0  0
  185.6960  178.1640  142.8130 C   0  0  0  0  0  2  0  0  0  0  0  0
  185.6380  179.0720  145.5420 F   0  0  0  0  0  0  0  0  0  0  0  0
  186.7020  177.7590  143.8400 C   0  0  0  0  0  0  0  0  0  0  0  0
  187.7450  176.9010  143.4800 C   0  0  0  0  0  3  0  0  0  0  0  0
  188.6360  176.9850  145.6870 C   0  0  0  0  0  0  0  0  0  0  0  0
  187.6080  177.8530  146.0800 C   0  0  0  0  0  3  0  0  0  0  0  0
  186.6360  178.2370  145.1550 C   0  0  0  0  0  0  0  0  0  0  0  0
  188.6780  176.5360  144.4010 N   0  0  0  0  0  0  0  0  0  0  0  0
  191.9850  176.1760  147.4870 C   0  0  0  0  0  1  0  0  0  0  0  0
  191.5470  177.3910  145.4980 O   0  0  0  0  0  0  0  0  0  0  0  0
  189.6510  176.5570  146.6090 N   0  0  0  0  0  2  0  0  0  0  0  0
  191.0670  176.7400  146.4630 C   0  0  0  0  0  0  0  0  0  0  0  0
  1 19  1  0  0  0  0
  3  1  1  0  0  0  0
  3  2  2  0  0  0  0
  4  3  1  0  0  0  0
  5  4  1  0  0  0  0
  6  7  1  0  0  0  0
  6  1  1  0  0  0  0
  8 11  1  0  0  0  0
  9 14  2  0  0  0  0
  9 12  1  0  0  0  0
 10 15  1  0  0  0  0
 10  8  1  0  0  0  0
 11 12  1  0  0  0  0
 11  7  1  6  0  0  0
 12 17  1  1  0  0  0
 13 10  2  0  0  0  0
 15  9  1  0  0  0  0
 16 18  1  0  0  0  0
 17 16  1  0  0  0  0
 17 18  1  0  0  0  0
 19 20  1  0  0  0  0
 20 22  1  0  0  0  0
 22 26  1  0  0  0  0
 23 22  2  0  0  0  0
 23 27  1  0  0  0  0
 24 25  1  0  0  0  0
 24 30  1  0  0  0  0
 26 21  1  0  0  0  0
 26 25  2  0  0  0  0
 27 24  2  0  0  0  0
 29 31  2  0  0  0  0
 31 30  1  0  0  0  0
 31 28  1  0  0  0  0
M  END
>  <MODEL>
5

>  <REMARK>
 VINA RESULT:      -7.4      2.741      6.812
  Name = 
  9 active torsions:
  status: ('A' for Active; 'I' for Inactive)
    1  A    between atoms: N_2  and  N_3
    2  A    between atoms: N_2  and  N_9
    3  A    between atoms: N_3  and  C_15
    4  A    between atoms: C_7  and  C_27
    5  A    between atoms: N_9  and  C_25
    6  A    between atoms: C_10  and  C_14
    7  A    between atoms: C_14  and  C_25
    8  A    between atoms: N_17  and  C_19
    9  A    between atoms: C_18  and  C_26
                            x       y       z     vdW  Elec       q    Type
                         _______ _______ _______ _____ _____    ______ ____

>  <TORSDO>
F 9

$$$$
=
 OpenBabel10222421483D

 31 33  0  0  1  0  0  0  0  0999 V2000
  187.1800  178.0880  145.0310 N   0  0  0  0  0  0  0  0  0  0  0  0
  185.9310  177.6290  146.9620 O   0  0  0  0  0  0  0  0  0  0  0  0
  187.0240  178.0100  146.4600 C   0  0  0  0  0  0  0  0  0  0  0  0
  188.1590  178.3480  147.3700 C   0  0  0  0  0  2  0  0  0  0  0  0
  188.0970  177.4820  148.6150 C   0  0  0  0  0  1  0  0  0  0  0  0
  188.4310  178.3910  144.4710 N   0  0  0  0  0  2  0  0  0  0  0  0
  189.2790  177.3070  144.7400 N   0  0  0  0  0  2  0  0  0  0  0  0
  191.1050  178.5100  143.6550 C   0  0  0  0  0  2  0  0  0  0  0  0
  191.8250  175.7350  144.2730 C   0  0  0  0  0  0  0  0  0  0  0  0
  191.3700  177.5000  142.5730 C   0  0  0  0  0  0  0  0  0  0  0  0
  190.6190  177.8400  144.9420 C   0  0  2  0  0  3  0  0  0  0  0  0
  191.6010  176.7370  145.3800 C   0  0  1  0  0  3  0  0  0  0  0  0
  191.3160  177.8500  141.3660 O   0  0  0  0  0  0  0  0  0  0  0  0
  192.1660  174.5480  144.5340 O   0  0  0  0  0  0  0  0  0  0  0  0
  191.7300  176.1560  142.9080 N   0  0  0  0  0  2  0  0  0  0  0  0
  192.3950  175.6510  147.4670 C   0  0  0  0  0  2  0  0  0  0  0  0
  191.1640  176.0770  146.6890 C   0  0  0  0  0  3  0  0  0  0  0  0
  191.6460  176.9020  147.8690 C   0  0  0  0  0  2  0  0  0  0  0  0
  186.0910  177.7130  144.1340 C   0  0  0  0  0  2  0  0  0  0  0  0
  184.9680  178.7480  144.1660 C   0  0  0  0  0  2  0  0  0  0  0  0
  182.0940  178.7340  144.0490 F   0  0  0  0  0  0  0  0  0  0  0  0
  184.1920  178.7530  142.8890 C   0  0  0  0  0  0  0  0  0  0  0  0
  184.8760  178.7550  141.6690 C   0  0  0  0  0  2  0  0  0  0  0  0
  182.8210  178.7290  140.4670 C   0  0  0  0  0  0  0  0  0  0  0  0
  182.1040  178.7190  141.6710 C   0  0  0  0  0  2  0  0  0  0  0  0
  182.7920  178.7360  142.8850 C   0  0  0  0  0  0  0  0  0  0  0  0
  184.1830  178.7440  140.4990 N   0  0  0  0  0  0  0  0  0  0  0  0
  181.1830  179.6750  137.0710 C   0  0  0  0  0  1  0  0  0  0  0  0
  182.4470  180.9760  138.6000 O   0  0  0  0  0  0  0  0  0  0  0  0
  182.1520  178.7210  139.1950 N   0  0  0  0  0  2  0  0  0  0  0  0
  181.9560  179.8480  138.3290 C   0  0  0  0  0  0  0  0  0  0  0  0
  1  3  1  0  0  0  0
  3  2  2  0  0  0  0
  3  4  1  0  0  0  0
  4  5  1  0  0  0  0
  6  7  1  0  0  0  0
  6  1  1  0  0  0  0
  8 11  1  0  0  0  0
  9 14  2  0  0  0  0
  9 12  1  0  0  0  0
 10 15  1  0  0  0  0
 10  8  1  0  0  0  0
 11  7  1  6  0  0  0
 11 12  1  0  0  0  0
 12 17  1  1  0  0  0
 13 10  2  0  0  0  0
 15  9  1  0  0  0  0
 16 18  1  0  0  0  0
 17 16  1  0  0  0  0
 17 18  1  0  0  0  0
 19 20  1  0  0  0  0
 19  1  1  0  0  0  0
 22 20  1  0  0  0  0
 23 22  1  0  0  0  0
 24 27  2  0  0  0  0
 24 25  1  0  0  0  0
 25 26  1  0  0  0  0
 26 22  2  0  0  0  0
 26 21  1  0  0  0  0
 27 23  1  0  0  0  0
 28 31  1  0  0  0  0
 30 24  1  0  0  0  0
 31 29  2  0  0  0  0
 31 30  1  0  0  0  0
M  END
>  <MODEL>
6

>  <REMARK>
 VINA RESULT:      -7.4      3.436      5.758
  Name = 
  9 active torsions:
  status: ('A' for Active; 'I' for Inactive)
    1  A    between atoms: N_2  and  N_3
    2  A    between atoms: N_2  and  N_9
    3  A    between atoms: N_3  and  C_15
    4  A    between atoms: C_7  and  C_27
    5  A    between atoms: N_9  and  C_25
    6  A    between atoms: C_10  and  C_14
    7  A    between atoms: C_14  and  C_25
    8  A    between atoms: N_17  and  C_19
    9  A    between atoms: C_18  and  C_26
                            x       y       z     vdW  Elec       q    Type
                         _______ _______ _______ _____ _____    ______ ____

>  <TORSDO>
F 9

$$$$
=
 OpenBabel10222421483D

 31 33  0  0  1  0  0  0  0  0999 V2000
  186.9430  178.4150  140.1540 N   0  0  0  0  0  0  0  0  0  0  0  0
  188.3380  177.2150  138.7000 O   0  0  0  0  0  0  0  0  0  0  0  0
  187.3510  177.9890  138.8410 C   0  0  0  0  0  0  0  0  0  0  0  0
  186.5970  178.4260  137.6290 C   0  0  0  0  0  2  0  0  0  0  0  0
  185.5040  177.4240  137.3110 C   0  0  0  0  0  1  0  0  0  0  0  0
  185.7730  179.1720  140.3210 N   0  0  0  0  0  2  0  0  0  0  0  0
  185.5550  179.2990  141.7000 N   0  0  0  0  0  2  0  0  0  0  0  0
  183.6960  177.7350  141.4640 C   0  0  0  0  0  2  0  0  0  0  0  0
  183.7330  179.0150  144.1020 C   0  0  0  0  0  0  0  0  0  0  0  0
  182.6100  178.6760  141.9030 C   0  0  0  0  0  0  0  0  0  0  0  0
  185.0180  178.0310  142.1750 C   0  0  2  0  0  3  0  0  0  0  0  0
  184.8180  178.0450  143.7030 C   0  0  1  0  0  3  0  0  0  0  0  0
  181.6360  178.9050  141.1390 O   0  0  0  0  0  0  0  0  0  0  0  0
  183.7270  179.5450  145.2480 O   0  0  0  0  0  0  0  0  0  0  0  0
  182.6510  179.2760  143.2010 N   0  0  0  0  0  2  0  0  0  0  0  0
  186.0560  177.6640  145.8210 C   0  0  0  0  0  2  0  0  0  0  0  0
  186.1310  178.2970  144.4440 C   0  0  0  0  0  3  0  0  0  0  0  0
  186.8300  176.9770  144.7190 C   0  0  0  0  0  2  0  0  0  0  0  0
  187.6460  177.9530  141.3470 C   0  0  0  0  0  2  0  0  0  0  0  0
  188.9950  178.6520  141.5010 C   0  0  0  0  0  2  0  0  0  0  0  0
  190.4090  176.1620  141.2310 F   0  0  0  0  0  0  0  0  0  0  0  0
  189.8070  178.0410  142.5950 C   0  0  0  0  0  0  0  0  0  0  0  0
  189.8940  178.6880  143.8310 C   0  0  0  0  0  3  0  0  0  0  0  0
  191.2720  176.9490  144.6950 C   0  0  0  0  0  0  0  0  0  0  0  0
  191.2010  176.2700  143.4720 C   0  0  0  0  0  3  0  0  0  0  0  0
  190.4690  176.8200  142.4170 C   0  0  0  0  0  0  0  0  0  0  0  0
  190.6170  178.1350  144.8420 N   0  0  0  0  0  0  0  0  0  0  0  0
  192.4910  175.7760  148.1950 C   0  0  0  0  0  1  0  0  0  0  0  0
  190.3710  176.5580  147.4710 O   0  0  0  0  0  0  0  0  0  0  0  0
  192.0210  176.4240  145.8030 N   0  0  0  0  0  2  0  0  0  0  0  0
  191.5590  176.2840  147.1540 C   0  0  0  0  0  0  0  0  0  0  0  0
  1  6  1  0  0  0  0
  1 19  1  0  0  0  0
  2  3  2  0  0  0  0
  3  1  1  0  0  0  0
  4  3  1  0  0  0  0
  5  4  1  0  0  0  0
  6  7  1  0  0  0  0
  8 10  1  0  0  0  0
  8 11  1  0  0  0  0
  9 14  2  0  0  0  0
 10 15  1  0  0  0  0
 11  7  1  6  0  0  0
 11 12  1  0  0  0  0
 12  9  1  0  0  0  0
 12 17  1  1  0  0  0
 13 10  2  0  0  0  0
 15  9  1  0  0  0  0
 17 18  1  0  0  0  0
 17 16  1  0  0  0  0
 18 16  1  0  0  0  0
 19 20  1  0  0  0  0
 20 22  1  0  0  0  0
 21 26  1  0  0  0  0
 22 23  2  0  0  0  0
 23 27  1  0  0  0  0
 24 27  2  0  0  0  0
 24 30  1  0  0  0  0
 25 24  1  0  0  0  0
 26 22  1  0  0  0  0
 26 25  2  0  0  0  0
 30 31  1  0  0  0  0
 31 29  2  0  0  0  0
 31 28  1  0  0  0  0
M  END
>  <MODEL>
7

>  <REMARK>
 VINA RESULT:      -7.4      3.058      6.693
  Name = 
  9 active torsions:
  status: ('A' for Active; 'I' for Inactive)
    1  A    between atoms: N_2  and  N_3
    2  A    between atoms: N_2  and  N_9
    3  A    between atoms: N_3  and  C_15
    4  A    between atoms: C_7  and  C_27
    5  A    between atoms: N_9  and  C_25
    6  A    between atoms: C_10  and  C_14
    7  A    between atoms: C_14  and  C_25
    8  A    between atoms: N_17  and  C_19
    9  A    between atoms: C_18  and  C_26
                            x       y       z     vdW  Elec       q    Type
                         _______ _______ _______ _____ _____    ______ ____

>  <TORSDO>
F 9

$$$$
=
 OpenBabel10222421483D

 31 33  0  0  1  0  0  0  0  0999 V2000
  183.7480  178.9200  140.2950 N   0  0  0  0  0  0  0  0  0  0  0  0
  181.4150  178.6790  140.2970 O   0  0  0  0  0  0  0  0  0  0  0  0
  182.4370  179.2010  139.7720 C   0  0  0  0  0  0  0  0  0  0  0  0
  182.2590  180.1390  138.6240 C   0  0  0  0  0  2  0  0  0  0  0  0
  181.4790  179.4580  137.5160 C   0  0  0  0  0  1  0  0  0  0  0  0
  184.8710  179.5960  139.7930 N   0  0  0  0  0  2  0  0  0  0  0  0
  185.0670  179.1530  138.4770 N   0  0  0  0  0  2  0  0  0  0  0  0
  187.2240  178.0480  138.7720 C   0  0  0  0  0  2  0  0  0  0  0  0
  186.1420  177.6560  136.0740 C   0  0  0  0  0  0  0  0  0  0  0  0
  187.8930  178.6300  137.5580 C   0  0  0  0  0  0  0  0  0  0  0  0
  185.7230  177.8540  138.5480 C   0  0  2  0  0  3  0  0  0  0  0  0
  185.4700  177.0290  137.2710 C   0  0  1  0  0  3  0  0  0  0  0  0
  188.9640  179.2770  137.6860 O   0  0  0  0  0  0  0  0  0  0  0  0
  185.6990  177.4650  134.9080 O   0  0  0  0  0  0  0  0  0  0  0  0
  187.3460  178.4110  136.2540 N   0  0  0  0  0  2  0  0  0  0  0  0
  183.7500  175.3010  136.8040 C   0  0  0  0  0  2  0  0  0  0  0  0
  183.9790  176.7820  137.0430 C   0  0  0  0  0  3  0  0  0  0  0  0
  183.4260  175.9040  138.1520 C   0  0  0  0  0  2  0  0  0  0  0  0
  183.9260  178.0420  141.4480 C   0  0  0  0  0  2  0  0  0  0  0  0
  184.2590  178.8410  142.7060 C   0  0  0  0  0  2  0  0  0  0  0  0
  184.5170  178.4780  145.5480 F   0  0  0  0  0  0  0  0  0  0  0  0
  185.4990  178.3330  143.3650 C   0  0  0  0  0  0  0  0  0  0  0  0
  186.6140  178.0180  142.5830 C   0  0  0  0  0  3  0  0  0  0  0  0
  187.8590  177.4120  144.5200 C   0  0  0  0  0  0  0  0  0  0  0  0
  186.7630  177.7250  145.3350 C   0  0  0  0  0  3  0  0  0  0  0  0
  185.5780  178.1830  144.7550 C   0  0  0  0  0  0  0  0  0  0  0  0
  187.7560  177.5690  143.1700 N   0  0  0  0  0  0  0  0  0  0  0  0
  191.5630  176.9120  145.5880 C   0  0  0  0  0  1  0  0  0  0  0  0
  190.4920  178.7310  144.5040 O   0  0  0  0  0  0  0  0  0  0  0  0
  189.0940  176.9300  145.0740 N   0  0  0  0  0  2  0  0  0  0  0  0
  190.3690  177.5850  145.0120 C   0  0  0  0  0  0  0  0  0  0  0  0
  1 19  1  0  0  0  0
  3  1  1  0  0  0  0
  3  2  2  0  0  0  0
  4  3  1  0  0  0  0
  5  4  1  0  0  0  0
  6  1  1  0  0  0  0
  7  6  1  0  0  0  0
  9 15  1  0  0  0  0
  9 12  1  0  0  0  0
 10 13  2  0  0  0  0
 10  8  1  0  0  0  0
 11  7  1  6  0  0  0
 11  8  1  0  0  0  0
 12 17  1  6  0  0  0
 12 11  1  0  0  0  0
 14  9  2  0  0  0  0
 15 10  1  0  0  0  0
 16 17  1  0  0  0  0
 16 18  1  0  0  0  0
 17 18  1  0  0  0  0
 19 20  1  0  0  0  0
 20 22  1  0  0  0  0
 22 26  1  0  0  0  0
 23 27  1  0  0  0  0
 23 22  2  0  0  0  0
 24 30  1  0  0  0  0
 24 25  1  0  0  0  0
 26 25  2  0  0  0  0
 26 21  1  0  0  0  0
 27 24  2  0  0  0  0
 29 31  2  0  0  0  0
 31 30  1  0  0  0  0
 31 28  1  0  0  0  0
M  END
>  <MODEL>
8

>  <REMARK>
 VINA RESULT:      -7.3      4.053      8.008
  Name = 
  9 active torsions:
  status: ('A' for Active; 'I' for Inactive)
    1  A    between atoms: N_2  and  N_3
    2  A    between atoms: N_2  and  N_9
    3  A    between atoms: N_3  and  C_15
    4  A    between atoms: C_7  and  C_27
    5  A    between atoms: N_9  and  C_25
    6  A    between atoms: C_10  and  C_14
    7  A    between atoms: C_14  and  C_25
    8  A    between atoms: N_17  and  C_19
    9  A    between atoms: C_18  and  C_26
                            x       y       z     vdW  Elec       q    Type
                         _______ _______ _______ _____ _____    ______ ____

>  <TORSDO>
F 9

$$$$
=
 OpenBabel10222421483D

 31 33  0  0  1  0  0  0  0  0999 V2000
  186.6650  177.6890  144.0490 N   0  0  0  0  0  0  0  0  0  0  0  0
  184.8950  178.8470  143.0360 O   0  0  0  0  0  0  0  0  0  0  0  0
  185.4570  178.4710  144.1010 C   0  0  0  0  0  0  0  0  0  0  0  0
  184.8330  178.8230  145.4110 C   0  0  0  0  0  2  0  0  0  0  0  0
  183.3350  178.9900  145.2400 C   0  0  0  0  0  1  0  0  0  0  0  0
  187.2210  177.1660  145.2270 N   0  0  0  0  0  2  0  0  0  0  0  0
  188.5660  176.8750  144.9560 N   0  0  0  0  0  2  0  0  0  0  0  0
  190.3450  178.4240  144.3290 C   0  0  0  0  0  2  0  0  0  0  0  0
  191.1660  176.6140  146.4860 C   0  0  0  0  0  0  0  0  0  0  0  0
  191.4220  177.3940  144.1320 C   0  0  0  0  0  0  0  0  0  0  0  0
  189.3590  178.0050  145.4210 C   0  0  2  0  0  3  0  0  0  0  0  0
  190.1080  177.6650  146.7230 C   0  0  1  0  0  3  0  0  0  0  0  0
  192.0170  177.3170  143.0260 O   0  0  0  0  0  0  0  0  0  0  0  0
  191.5460  175.8540  147.4190 O   0  0  0  0  0  0  0  0  0  0  0  0
  191.8070  176.5330  145.2080 N   0  0  0  0  0  2  0  0  0  0  0  0
  189.4140  178.1620  149.0550 C   0  0  0  0  0  2  0  0  0  0  0  0
  189.1450  177.2830  147.8480 C   0  0  0  0  0  3  0  0  0  0  0  0
  188.2290  178.4520  148.1620 C   0  0  0  0  0  2  0  0  0  0  0  0
  187.2550  177.3000  142.7720 C   0  0  0  0  0  2  0  0  0  0  0  0
  187.7350  178.5210  141.9890 C   0  0  0  0  0  2  0  0  0  0  0  0
  189.8210  177.8420  140.1290 F   0  0  0  0  0  0  0  0  0  0  0  0
  187.5110  178.3530  140.5220 C   0  0  0  0  0  0  0  0  0  0  0  0
  186.2290  178.5400  139.9960 C   0  0  0  0  0  2  0  0  0  0  0  0
  187.0190  178.0920  137.7950 C   0  0  0  0  0  0  0  0  0  0  0  0
  188.3170  177.9050  138.2870 C   0  0  0  0  0  2  0  0  0  0  0  0
  188.5630  178.0320  139.6550 C   0  0  0  0  0  0  0  0  0  0  0  0
  186.0140  178.4060  138.6600 N   0  0  0  0  0  0  0  0  0  0  0  0
  185.4590  177.2050  134.3460 C   0  0  0  0  0  1  0  0  0  0  0  0
  184.6690  176.8250  136.5500 O   0  0  0  0  0  0  0  0  0  0  0  0
  186.7200  177.9620  136.3950 N   0  0  0  0  0  2  0  0  0  0  0  0
  185.5810  177.3020  135.8240 C   0  0  0  0  0  0  0  0  0  0  0  0
  1  3  1  0  0  0  0
  1  6  1  0  0  0  0
  2  3  2  0  0  0  0
  3  4  1  0  0  0  0
  5  4  1  0  0  0  0
  7  6  1  0  0  0  0
  8 11  1  0  0  0  0
  9 12  1  0  0  0  0
  9 14  2  0  0  0  0
 10  8  1  0  0  0  0
 10 15  1  0  0  0  0
 11  7  1  6  0  0  0
 11 12  1  0  0  0  0
 12 17  1  1  0  0  0
 13 10  2  0  0  0  0
 15  9  1  0  0  0  0
 17 18  1  0  0  0  0
 17 16  1  0  0  0  0
 18 16  1  0  0  0  0
 19  1  1  0  0  0  0
 20 19  1  0  0  0  0
 22 20  1  0  0  0  0
 23 22  1  0  0  0  0
 24 25  1  0  0  0  0
 24 27  2  0  0  0  0
 25 26  1  0  0  0  0
 26 21  1  0  0  0  0
 26 22  2  0  0  0  0
 27 23  1  0  0  0  0
 28 31  1  0  0  0  0
 30 24  1  0  0  0  0
 31 30  1  0  0  0  0
 31 29  2  0  0  0  0
M  END
>  <MODEL>
9

>  <REMARK>
 VINA RESULT:      -7.3      2.336      2.844
  Name = 
  9 active torsions:
  status: ('A' for Active; 'I' for Inactive)
    1  A    between atoms: N_2  and  N_3
    2  A    between atoms: N_2  and  N_9
    3  A    between atoms: N_3  and  C_15
    4  A    between atoms: C_7  and  C_27
    5  A    between atoms: N_9  and  C_25
    6  A    between atoms: C_10  and  C_14
    7  A    between atoms: C_14  and  C_25
    8  A    between atoms: N_17  and  C_19
    9  A    between atoms: C_18  and  C_26
                            x       y       z     vdW  Elec       q    Type
                         _______ _______ _______ _____ _____    ______ ____

>  <TORSDO>
F 9

$$$$
