=
 OpenBabel10232408233D

 30 34  0  0  1  0  0  0  0  0999 V2000
  189.9750  177.5300  143.7600 C   0  0  0  0  0  0  0  0  0  0  0  0
  189.3190  177.0740  146.0170 C   0  0  0  0  0  0  0  0  0  0  0  0
  189.9070  176.8070  141.4150 C   0  0  0  0  0  3  0  0  0  0  0  0
  190.5970  176.9130  146.4400 N   0  0  0  0  0  0  0  0  0  0  0  0
  187.1490  177.4270  145.7930 N   0  0  0  0  0  0  0  0  0  0  0  0
  191.6070  177.0420  145.5150 C   0  0  0  0  0  3  0  0  0  0  0  0
  187.7330  177.5580  144.6050 N   0  0  0  0  0  0  0  0  0  0  0  0
  188.1160  177.1130  146.7080 C   0  0  0  0  0  3  0  0  0  0  0  0
  189.5280  177.8970  142.3660 C   0  0  1  0  0  3  0  0  0  0  0  0
  188.0320  178.2240  142.2640 C   0  0  0  0  0  0  0  0  0  0  0  0
  187.5490  178.7360  141.1240 C   0  0  0  0  0  3  0  0  0  0  0  0
  187.1500  178.0280  143.4120 N   0  0  0  0  0  0  0  0  0  0  0  0
  189.2880  178.1250  139.4210 C   0  0  0  0  0  3  0  0  0  0  0  0
  188.3040  178.9140  139.8690 C   0  0  0  0  0  3  0  0  0  0  0  0
  189.0280  177.3570  144.7360 C   0  0  0  0  0  0  0  0  0  0  0  0
  189.8210  176.9130  140.0870 C   0  0  0  0  0  0  0  0  0  0  0  0
  191.3170  177.3600  144.1590 C   0  0  0  0  0  3  0  0  0  0  0  0
  182.9680  178.8050  143.2590 C   0  0  0  0  0  0  0  0  0  0  0  0
  183.6340  178.2990  142.1340 C   0  0  0  0  0  3  0  0  0  0  0  0
  183.6950  179.0500  144.4320 C   0  0  0  0  0  3  0  0  0  0  0  0
  185.7310  178.2740  143.3600 C   0  0  0  0  0  0  0  0  0  0  0  0
  185.0660  178.7890  144.4810 C   0  0  0  0  0  3  0  0  0  0  0  0
  185.0050  178.0380  142.1830 C   0  0  0  0  0  3  0  0  0  0  0  0
  180.6280  178.4130  144.0960 N   0  0  0  0  0  1  0  0  0  0  0  0
  181.0600  179.9090  142.3780 O   0  0  0  0  0  0  0  0  0  0  0  0
  181.5210  179.0800  143.2080 C   0  0  0  0  0  0  0  0  0  0  0  0
  191.4560  175.8520  138.4200 C   0  0  0  0  0  0  0  0  0  0  0  0
  192.1020  176.9130  138.2130 O   0  0  0  0  0  0  0  0  0  0  0  0
  190.3340  175.8220  139.3100 N   0  0  0  0  0  2  0  0  0  0  0  0
  191.8630  174.6050  137.7210 C   0  0  0  0  0  1  0  0  0  0  0  0
  1 17  2  0  0  0  0
  1 15  1  0  0  0  0
  2  4  1  0  0  0  0
  2  8  1  0  0  0  0
  5  8  2  0  0  0  0
  6  4  2  0  0  0  0
  7 15  1  0  0  0  0
  7  5  1  0  0  0  0
  9  3  1  6  0  0  0
  9  1  1  0  0  0  0
 10  9  1  0  0  0  0
 10 12  1  0  0  0  0
 11 10  2  0  0  0  0
 12  7  1  0  0  0  0
 13 14  2  0  0  0  0
 13 16  1  0  0  0  0
 14 11  1  0  0  0  0
 15  2  2  0  0  0  0
 16  3  2  0  0  0  0
 17  6  1  0  0  0  0
 18 20  1  0  0  0  0
 19 23  1  0  0  0  0
 19 18  2  0  0  0  0
 20 22  2  0  0  0  0
 21 12  1  0  0  0  0
 21 22  1  0  0  0  0
 23 21  2  0  0  0  0
 25 26  2  0  0  0  0
 26 18  1  0  0  0  0
 26 24  1  0  0  0  0
 27 29  1  0  0  0  0
 28 27  2  0  0  0  0
 29 16  1  0  0  0  0
 30 27  1  0  0  0  0
M  END
>  <MODEL>
1

>  <REMARK>
 VINA RESULT:      -9.6      0.000      0.000
  Name = 
  3 active torsions:
  status: ('A' for Active; 'I' for Inactive)
    1  A    between atoms: C_5  and  C_22
    2  A    between atoms: N_16  and  C_27
    3  A    between atoms: N_20  and  C_21
                            x       y       z     vdW  Elec       q    Type
                         _______ _______ _______ _____ _____    ______ ____

>  <TORSDO>
F 3

$$$$
=
 OpenBabel10232408233D

 30 34  0  0  1  0  0  0  0  0999 V2000
  188.1660  177.8150  137.8510 C   0  0  0  0  0  0  0  0  0  0  0  0
  190.3440  176.8300  137.9820 C   0  0  0  0  0  0  0  0  0  0  0  0
  185.7520  177.5140  138.1840 C   0  0  0  0  0  3  0  0  0  0  0  0
  190.5480  176.9120  136.6440 N   0  0  0  0  0  0  0  0  0  0  0  0
  190.4930  176.6830  140.1810 N   0  0  0  0  0  0  0  0  0  0  0  0
  189.5440  177.4390  135.8660 C   0  0  0  0  0  3  0  0  0  0  0  0
  189.2920  177.1540  139.8610 N   0  0  0  0  0  0  0  0  0  0  0  0
  191.1840  176.4570  139.0220 C   0  0  0  0  0  3  0  0  0  0  0  0
  186.9530  178.2980  138.6080 C   0  0  1  0  0  3  0  0  0  0  0  0
  187.1240  178.2680  140.1330 C   0  0  0  0  0  0  0  0  0  0  0  0
  186.1920  178.8370  140.9080 C   0  0  0  0  0  3  0  0  0  0  0  0
  188.3130  177.6680  140.7330 N   0  0  0  0  0  0  0  0  0  0  0  0
  184.1810  178.9680  139.4140 C   0  0  0  0  0  3  0  0  0  0  0  0
  184.9120  179.4060  140.4450 C   0  0  0  0  0  3  0  0  0  0  0  0
  189.2020  177.2520  138.5500 C   0  0  0  0  0  0  0  0  0  0  0  0
  184.5000  177.8240  138.5270 C   0  0  0  0  0  0  0  0  0  0  0  0
  188.3360  177.9080  136.4540 C   0  0  0  0  0  3  0  0  0  0  0  0
  188.8650  177.4260  144.9470 C   0  0  0  0  0  0  0  0  0  0  0  0
  187.8080  176.7410  144.3330 C   0  0  0  0  0  3  0  0  0  0  0  0
  189.7360  178.1890  144.1570 C   0  0  0  0  0  3  0  0  0  0  0  0
  188.5050  177.5700  142.1580 C   0  0  0  0  0  0  0  0  0  0  0  0
  189.5560  178.2630  142.7740 C   0  0  0  0  0  3  0  0  0  0  0  0
  187.6270  176.8140  142.9500 C   0  0  0  0  0  3  0  0  0  0  0  0
  190.2990  176.9110  146.9490 N   0  0  0  0  0  1  0  0  0  0  0  0
  188.1220  177.6700  147.1880 O   0  0  0  0  0  0  0  0  0  0  0  0
  189.0570  177.3490  146.4060 C   0  0  0  0  0  0  0  0  0  0  0  0
  182.5800  176.1260  138.6200 C   0  0  0  0  0  0  0  0  0  0  0  0
  182.6960  175.9010  139.8530 O   0  0  0  0  0  0  0  0  0  0  0  0
  183.4500  177.0410  137.9430 N   0  0  0  0  0  2  0  0  0  0  0  0
  181.5220  175.4240  137.8480 C   0  0  0  0  0  1  0  0  0  0  0  0
  1 15  2  0  0  0  0
  1  9  1  0  0  0  0
  2 15  1  0  0  0  0
  2  8  1  0  0  0  0
  3 16  2  0  0  0  0
  4  2  2  0  0  0  0
  6 17  2  0  0  0  0
  6  4  1  0  0  0  0
  7  5  1  0  0  0  0
  7 12  1  0  0  0  0
  8  5  2  0  0  0  0
  9  3  1  1  0  0  0
  9 10  1  0  0  0  0
 10 12  1  0  0  0  0
 10 11  2  0  0  0  0
 12 21  1  0  0  0  0
 13 14  2  0  0  0  0
 14 11  1  0  0  0  0
 15  7  1  0  0  0  0
 16 13  1  0  0  0  0
 17  1  1  0  0  0  0
 18 26  1  0  0  0  0
 19 18  1  0  0  0  0
 20 18  2  0  0  0  0
 21 22  2  0  0  0  0
 21 23  1  0  0  0  0
 22 20  1  0  0  0  0
 23 19  2  0  0  0  0
 26 24  1  0  0  0  0
 26 25  2  0  0  0  0
 27 28  2  0  0  0  0
 29 16  1  0  0  0  0
 29 27  1  0  0  0  0
 30 27  1  0  0  0  0
M  END
>  <MODEL>
2

>  <REMARK>
 VINA RESULT:      -8.8      3.191      6.836
  Name = 
  3 active torsions:
  status: ('A' for Active; 'I' for Inactive)
    1  A    between atoms: C_5  and  C_22
    2  A    between atoms: N_16  and  C_27
    3  A    between atoms: N_20  and  C_21
                            x       y       z     vdW  Elec       q    Type
                         _______ _______ _______ _____ _____    ______ ____

>  <TORSDO>
F 3

$$$$
=
 OpenBabel10232408233D

 30 34  0  0  1  0  0  0  0  0999 V2000
  186.9840  178.3390  137.9800 C   0  0  0  0  0  0  0  0  0  0  0  0
  189.1900  177.8830  138.7900 C   0  0  0  0  0  0  0  0  0  0  0  0
  184.6890  177.5130  137.6940 C   0  0  0  0  0  3  0  0  0  0  0  0
  189.7420  177.9440  137.5520 N   0  0  0  0  0  0  0  0  0  0  0  0
  188.7390  177.8810  140.9520 N   0  0  0  0  0  0  0  0  0  0  0  0
  188.9120  178.1910  136.4840 C   0  0  0  0  0  3  0  0  0  0  0  0
  187.6070  178.0510  140.2760 N   0  0  0  0  0  0  0  0  0  0  0  0
  189.7600  177.7630  140.0490 C   0  0  0  0  0  3  0  0  0  0  0  0
  185.5340  178.5690  138.3310 C   0  0  1  0  0  3  0  0  0  0  0  0
  185.2700  178.6530  139.8410 C   0  0  0  0  0  0  0  0  0  0  0  0
  184.0610  179.0320  140.2740 C   0  0  0  0  0  3  0  0  0  0  0  0
  186.3380  178.3700  140.7960 N   0  0  0  0  0  0  0  0  0  0  0  0
  182.5710  178.6290  138.2960 C   0  0  0  0  0  3  0  0  0  0  0  0
  182.8760  179.2720  139.4300 C   0  0  0  0  0  3  0  0  0  0  0  0
  187.8730  178.0610  138.9860 C   0  0  0  0  0  0  0  0  0  0  0  0
  183.3560  177.5470  137.6570 C   0  0  0  0  0  0  0  0  0  0  0  0
  187.5180  178.4000  136.6760 C   0  0  0  0  0  3  0  0  0  0  0  0
  185.7870  178.4420  145.0160 C   0  0  0  0  0  0  0  0  0  0  0  0
  185.0610  179.3150  144.1940 C   0  0  0  0  0  3  0  0  0  0  0  0
  186.6940  177.5470  144.4320 C   0  0  0  0  0  3  0  0  0  0  0  0
  186.1360  178.3880  142.2230 C   0  0  0  0  0  0  0  0  0  0  0  0
  186.8690  177.5220  143.0460 C   0  0  0  0  0  3  0  0  0  0  0  0
  185.2360  179.2900  142.8090 C   0  0  0  0  0  3  0  0  0  0  0  0
  186.7150  178.2820  147.3500 N   0  0  0  0  0  1  0  0  0  0  0  0
  184.4590  178.6540  146.9720 O   0  0  0  0  0  0  0  0  0  0  0  0
  185.6030  178.4670  146.4780 C   0  0  0  0  0  0  0  0  0  0  0  0
  181.9810  175.3930  137.4300 C   0  0  0  0  0  0  0  0  0  0  0  0
  181.8930  175.1900  138.6700 O   0  0  0  0  0  0  0  0  0  0  0  0
  182.6970  176.5170  136.9060 N   0  0  0  0  0  2  0  0  0  0  0  0
  181.3320  174.4420  136.4900 C   0  0  0  0  0  1  0  0  0  0  0  0
  1  9  1  0  0  0  0
  1 15  2  0  0  0  0
  2 15  1  0  0  0  0
  2  8  1  0  0  0  0
  4  2  2  0  0  0  0
  6 17  2  0  0  0  0
  6  4  1  0  0  0  0
  7 12  1  0  0  0  0
  7  5  1  0  0  0  0
  8  5  2  0  0  0  0
  9  3  1  1  0  0  0
  9 10  1  0  0  0  0
 10 11  2  0  0  0  0
 10 12  1  0  0  0  0
 12 21  1  0  0  0  0
 13 14  2  0  0  0  0
 14 11  1  0  0  0  0
 15  7  1  0  0  0  0
 16  3  2  0  0  0  0
 16 13  1  0  0  0  0
 17  1  1  0  0  0  0
 18 26  1  0  0  0  0
 19 18  2  0  0  0  0
 20 18  1  0  0  0  0
 21 23  2  0  0  0  0
 21 22  1  0  0  0  0
 22 20  2  0  0  0  0
 23 19  1  0  0  0  0
 26 25  2  0  0  0  0
 26 24  1  0  0  0  0
 27 28  2  0  0  0  0
 29 27  1  0  0  0  0
 29 16  1  0  0  0  0
 30 27  1  0  0  0  0
M  END
>  <MODEL>
3

>  <REMARK>
 VINA RESULT:      -8.5      3.569      6.388
  Name = 
  3 active torsions:
  status: ('A' for Active; 'I' for Inactive)
    1  A    between atoms: C_5  and  C_22
    2  A    between atoms: N_16  and  C_27
    3  A    between atoms: N_20  and  C_21
                            x       y       z     vdW  Elec       q    Type
                         _______ _______ _______ _____ _____    ______ ____

>  <TORSDO>
F 3

$$$$
=
 OpenBabel10232408233D

 30 34  0  0  1  0  0  0  0  0999 V2000
  190.4630  177.2810  139.2600 C   0  0  0  0  0  0  0  0  0  0  0  0
  191.7460  177.2880  141.2810 C   0  0  0  0  0  0  0  0  0  0  0  0
  188.7770  176.1240  137.9000 C   0  0  0  0  0  3  0  0  0  0  0  0
  192.9270  177.1710  140.6250 N   0  0  0  0  0  0  0  0  0  0  0  0
  190.0960  177.6620  142.7020 N   0  0  0  0  0  0  0  0  0  0  0  0
  192.9010  177.0870  139.2530 C   0  0  0  0  0  3  0  0  0  0  0  0
  189.5920  177.5440  141.4770 N   0  0  0  0  0  0  0  0  0  0  0  0
  191.4510  177.4980  142.6210 C   0  0  0  0  0  3  0  0  0  0  0  0
  189.0930  177.3880  138.6350 C   0  0  1  0  0  3  0  0  0  0  0  0
  187.9840  177.7380  139.6360 C   0  0  0  0  0  0  0  0  0  0  0  0
  186.7600  178.0370  139.1790 C   0  0  0  0  0  3  0  0  0  0  0  0
  188.2680  177.7940  141.0680 N   0  0  0  0  0  0  0  0  0  0  0  0
  186.7360  177.0540  136.8710 C   0  0  0  0  0  3  0  0  0  0  0  0
  186.3150  177.9460  137.7760 C   0  0  0  0  0  3  0  0  0  0  0  0
  190.5740  177.3300  140.6250 C   0  0  0  0  0  0  0  0  0  0  0  0
  187.7290  175.9760  137.0880 C   0  0  0  0  0  0  0  0  0  0  0  0
  191.6700  177.1480  138.5420 C   0  0  0  0  0  3  0  0  0  0  0  0
  185.2450  178.5900  143.9560 C   0  0  0  0  0  0  0  0  0  0  0  0
  186.2660  177.6710  144.2380 C   0  0  0  0  0  3  0  0  0  0  0  0
  185.2330  179.2420  142.7160 C   0  0  0  0  0  3  0  0  0  0  0  0
  187.2560  178.0720  142.0560 C   0  0  0  0  0  0  0  0  0  0  0  0
  186.2300  178.9820  141.7720 C   0  0  0  0  0  3  0  0  0  0  0  0
  187.2620  177.4120  143.2930 C   0  0  0  0  0  3  0  0  0  0  0  0
  184.4820  178.7900  146.3460 N   0  0  0  0  0  1  0  0  0  0  0  0
  183.0280  179.1670  144.5800 O   0  0  0  0  0  0  0  0  0  0  0  0
  184.1940  178.8640  144.9520 C   0  0  0  0  0  0  0  0  0  0  0  0
  186.7900  173.6240  136.6820 C   0  0  0  0  0  0  0  0  0  0  0  0
  186.0470  173.6280  137.6980 O   0  0  0  0  0  0  0  0  0  0  0  0
  187.6310  174.7400  136.3670 N   0  0  0  0  0  2  0  0  0  0  0  0
  186.8010  172.4330  135.7930 C   0  0  0  0  0  1  0  0  0  0  0  0
  1 15  1  0  0  0  0
  2  8  1  0  0  0  0
  4  2  1  0  0  0  0
  6  4  2  0  0  0  0
  7  5  1  0  0  0  0
  8  5  2  0  0  0  0
  9  3  1  1  0  0  0
  9  1  1  0  0  0  0
  9 10  1  0  0  0  0
 10 12  1  0  0  0  0
 11 10  2  0  0  0  0
 12  7  1  0  0  0  0
 12 21  1  0  0  0  0
 13 16  1  0  0  0  0
 13 14  2  0  0  0  0
 14 11  1  0  0  0  0
 15  2  2  0  0  0  0
 15  7  1  0  0  0  0
 16  3  2  0  0  0  0
 17  6  1  0  0  0  0
 17  1  2  0  0  0  0
 18 19  1  0  0  0  0
 18 26  1  0  0  0  0
 20 18  2  0  0  0  0
 21 23  1  0  0  0  0
 22 21  2  0  0  0  0
 22 20  1  0  0  0  0
 23 19  2  0  0  0  0
 25 26  2  0  0  0  0
 26 24  1  0  0  0  0
 27 28  2  0  0  0  0
 29 27  1  0  0  0  0
 29 16  1  0  0  0  0
 30 27  1  0  0  0  0
M  END
>  <MODEL>
4

>  <REMARK>
 VINA RESULT:      -8.4      2.898      4.224
  Name = 
  3 active torsions:
  status: ('A' for Active; 'I' for Inactive)
    1  A    between atoms: C_5  and  C_22
    2  A    between atoms: N_16  and  C_27
    3  A    between atoms: N_20  and  C_21
                            x       y       z     vdW  Elec       q    Type
                         _______ _______ _______ _____ _____    ______ ____

>  <TORSDO>
F 3

$$$$
=
 OpenBabel10232408233D

 30 34  0  0  1  0  0  0  0  0999 V2000
  186.0320  177.9440  143.4820 C   0  0  0  0  0  0  0  0  0  0  0  0
  185.0870  178.8070  145.5050 C   0  0  0  0  0  0  0  0  0  0  0  0
  187.6810  178.2550  141.6890 C   0  0  0  0  0  3  0  0  0  0  0  0
  183.8630  178.9890  144.9490 N   0  0  0  0  0  0  0  0  0  0  0  0
  186.8330  178.5030  146.8250 N   0  0  0  0  0  0  0  0  0  0  0  0
  183.6990  178.6640  143.6230 C   0  0  0  0  0  3  0  0  0  0  0  0
  187.1610  178.1470  145.5860 N   0  0  0  0  0  0  0  0  0  0  0  0
  185.5350  178.9330  146.8130 C   0  0  0  0  0  3  0  0  0  0  0  0
  187.2500  177.3600  142.8070 C   0  0  1  0  0  3  0  0  0  0  0  0
  188.4120  177.0770  143.7680 C   0  0  0  0  0  0  0  0  0  0  0  0
  189.4770  176.3960  143.3260 C   0  0  0  0  0  3  0  0  0  0  0  0
  188.3390  177.5020  145.1640 N   0  0  0  0  0  0  0  0  0  0  0  0
  189.3380  176.6380  140.8330 C   0  0  0  0  0  3  0  0  0  0  0  0
  189.7170  175.9760  141.9330 C   0  0  0  0  0  3  0  0  0  0  0  0
  186.1200  178.3180  144.7980 C   0  0  0  0  0  0  0  0  0  0  0  0
  188.6050  177.9250  140.7850 C   0  0  0  0  0  0  0  0  0  0  0  0
  184.7780  178.1290  142.8650 C   0  0  0  0  0  3  0  0  0  0  0  0
  191.5530  176.9560  147.9010 C   0  0  0  0  0  0  0  0  0  0  0  0
  190.3530  177.5380  148.3300 C   0  0  0  0  0  3  0  0  0  0  0  0
  191.6810  176.5560  146.5640 C   0  0  0  0  0  3  0  0  0  0  0  0
  189.4190  177.3050  146.0990 C   0  0  0  0  0  0  0  0  0  0  0  0
  190.6230  176.7320  145.6690 C   0  0  0  0  0  3  0  0  0  0  0  0
  189.2940  177.7140  147.4350 C   0  0  0  0  0  3  0  0  0  0  0  0
  193.0650  177.8280  149.7140 N   0  0  0  0  0  1  0  0  0  0  0  0
  193.2880  175.6720  148.8910 O   0  0  0  0  0  0  0  0  0  0  0  0
  192.6700  176.7690  148.8450 C   0  0  0  0  0  0  0  0  0  0  0  0
  188.7480  178.5620  138.3040 C   0  0  0  0  0  0  0  0  0  0  0  0
  188.5020  177.4010  137.8810 O   0  0  0  0  0  0  0  0  0  0  0  0
  188.8210  178.8450  139.7060 N   0  0  0  0  0  2  0  0  0  0  0  0
  188.9730  179.6590  137.3280 C   0  0  0  0  0  1  0  0  0  0  0  0
  1 15  1  0  0  0  0
  2  8  1  0  0  0  0
  4  2  1  0  0  0  0
  6  4  2  0  0  0  0
  7  5  1  0  0  0  0
  8  5  2  0  0  0  0
  9  3  1  6  0  0  0
  9  1  1  0  0  0  0
  9 10  1  0  0  0  0
 10 12  1  0  0  0  0
 11 10  2  0  0  0  0
 12  7  1  0  0  0  0
 12 21  1  0  0  0  0
 13 14  2  0  0  0  0
 14 11  1  0  0  0  0
 15  2  2  0  0  0  0
 15  7  1  0  0  0  0
 16 13  1  0  0  0  0
 16  3  2  0  0  0  0
 17  1  2  0  0  0  0
 17  6  1  0  0  0  0
 18 19  1  0  0  0  0
 18 26  1  0  0  0  0
 20 18  2  0  0  0  0
 21 23  1  0  0  0  0
 22 21  2  0  0  0  0
 22 20  1  0  0  0  0
 23 19  2  0  0  0  0
 26 25  2  0  0  0  0
 26 24  1  0  0  0  0
 27 29  1  0  0  0  0
 28 27  2  0  0  0  0
 29 16  1  0  0  0  0
 30 27  1  0  0  0  0
M  END
>  <MODEL>
5

>  <REMARK>
 VINA RESULT:      -8.3      2.775      6.524
  Name = 
  3 active torsions:
  status: ('A' for Active; 'I' for Inactive)
    1  A    between atoms: C_5  and  C_22
    2  A    between atoms: N_16  and  C_27
    3  A    between atoms: N_20  and  C_21
                            x       y       z     vdW  Elec       q    Type
                         _______ _______ _______ _____ _____    ______ ____

>  <TORSDO>
F 3

$$$$
=
 OpenBabel10232408233D

 30 34  0  0  1  0  0  0  0  0999 V2000
  186.0670  178.5380  144.3460 C   0  0  0  0  0  0  0  0  0  0  0  0
  183.7780  178.5950  145.0440 C   0  0  0  0  0  0  0  0  0  0  0  0
  187.8800  177.2090  143.3570 C   0  0  0  0  0  3  0  0  0  0  0  0
  184.0980  178.7880  146.3480 N   0  0  0  0  0  0  0  0  0  0  0  0
  182.8350  178.4780  143.0500 N   0  0  0  0  0  0  0  0  0  0  0  0
  185.4300  178.8440  146.6870 C   0  0  0  0  0  3  0  0  0  0  0  0
  184.1540  178.3870  142.9090 N   0  0  0  0  0  0  0  0  0  0  0  0
  182.5580  178.6010  144.3840 C   0  0  0  0  0  3  0  0  0  0  0  0
  187.0300  178.4280  143.1890 C   0  0  1  0  0  3  0  0  0  0  0  0
  186.3480  178.4410  141.8140 C   0  0  0  0  0  0  0  0  0  0  0  0
  187.1000  178.5300  140.7100 C   0  0  0  0  0  3  0  0  0  0  0  0
  184.8910  178.4050  141.7100 N   0  0  0  0  0  0  0  0  0  0  0  0
  189.3740  177.8080  141.4850 C   0  0  0  0  0  3  0  0  0  0  0  0
  188.5740  178.4970  140.6630 C   0  0  0  0  0  3  0  0  0  0  0  0
  184.7210  178.4660  144.0960 C   0  0  0  0  0  0  0  0  0  0  0  0
  188.9490  176.9370  142.6060 C   0  0  0  0  0  0  0  0  0  0  0  0
  186.4410  178.7270  145.6920 C   0  0  0  0  0  3  0  0  0  0  0  0
  182.8000  178.2860  138.0040 C   0  0  0  0  0  0  0  0  0  0  0  0
  183.3200  179.4970  138.4830 C   0  0  0  0  0  3  0  0  0  0  0  0
  182.9780  177.1190  138.7580 C   0  0  0  0  0  3  0  0  0  0  0  0
  184.1980  178.3680  140.4460 C   0  0  0  0  0  0  0  0  0  0  0  0
  183.6690  177.1600  139.9720 C   0  0  0  0  0  3  0  0  0  0  0  0
  184.0110  179.5380  139.6960 C   0  0  0  0  0  3  0  0  0  0  0  0
  181.1000  179.2370  136.4110 N   0  0  0  0  0  1  0  0  0  0  0  0
  182.3000  177.3230  135.8920 O   0  0  0  0  0  0  0  0  0  0  0  0
  182.0720  178.2420  136.7230 C   0  0  0  0  0  0  0  0  0  0  0  0
  190.9570  175.7790  143.7050 C   0  0  0  0  0  0  0  0  0  0  0  0
  191.5030  176.8480  144.0850 O   0  0  0  0  0  0  0  0  0  0  0  0
  189.7270  175.7880  142.9710 N   0  0  0  0  0  2  0  0  0  0  0  0
  191.6070  174.4800  144.0180 C   0  0  0  0  0  1  0  0  0  0  0  0
  1 17  2  0  0  0  0
  2  4  1  0  0  0  0
  4  6  2  0  0  0  0
  5  8  2  0  0  0  0
  7  5  1  0  0  0  0
  7 15  1  0  0  0  0
  8  2  1  0  0  0  0
  9  3  1  1  0  0  0
  9  1  1  0  0  0  0
 10  9  1  0  0  0  0
 11 10  2  0  0  0  0
 12 10  1  0  0  0  0
 12  7  1  0  0  0  0
 13 16  1  0  0  0  0
 14 11  1  0  0  0  0
 14 13  2  0  0  0  0
 15  1  1  0  0  0  0
 15  2  2  0  0  0  0
 16 29  1  0  0  0  0
 16  3  2  0  0  0  0
 17  6  1  0  0  0  0
 18 19  2  0  0  0  0
 18 20  1  0  0  0  0
 19 23  1  0  0  0  0
 20 22  2  0  0  0  0
 21 12  1  0  0  0  0
 22 21  1  0  0  0  0
 23 21  2  0  0  0  0
 24 26  1  0  0  0  0
 25 26  2  0  0  0  0
 26 18  1  0  0  0  0
 27 30  1  0  0  0  0
 27 28  2  0  0  0  0
 29 27  1  0  0  0  0
M  END
>  <MODEL>
6

>  <REMARK>
 VINA RESULT:      -8.2      3.249      4.841
  Name = 
  3 active torsions:
  status: ('A' for Active; 'I' for Inactive)
    1  A    between atoms: C_5  and  C_22
    2  A    between atoms: N_16  and  C_27
    3  A    between atoms: N_20  and  C_21
                            x       y       z     vdW  Elec       q    Type
                         _______ _______ _______ _____ _____    ______ ____

>  <TORSDO>
F 3

$$$$
=
 OpenBabel10232408233D

 30 34  0  0  1  0  0  0  0  0999 V2000
  187.4460  178.3790  145.1630 C   0  0  0  0  0  0  0  0  0  0  0  0
  185.1680  178.1840  144.4520 C   0  0  0  0  0  0  0  0  0  0  0  0
  189.6060  177.2520  145.4680 C   0  0  0  0  0  3  0  0  0  0  0  0
  184.6770  178.4340  145.6910 N   0  0  0  0  0  0  0  0  0  0  0  0
  185.5320  177.9260  142.2880 N   0  0  0  0  0  0  0  0  0  0  0  0
  185.5730  178.6480  146.7120 C   0  0  0  0  0  3  0  0  0  0  0  0
  186.7020  177.9860  142.9180 N   0  0  0  0  0  0  0  0  0  0  0  0
  184.5400  178.0380  143.2230 C   0  0  0  0  0  3  0  0  0  0  0  0
  188.9000  178.3620  144.7570 C   0  0  0  0  0  0  0  0  0  0  0  0
  189.1160  178.2730  143.2400 C   0  0  0  0  0  0  0  0  0  0  0  0
  190.3500  178.4310  142.7440 C   0  0  0  0  0  3  0  0  0  0  0  0
  187.9830  178.0680  142.3410 N   0  0  0  0  0  0  0  0  0  0  0  0
  191.8390  177.9880  144.7140 C   0  0  0  0  0  3  0  0  0  0  0  0
  191.5880  178.5670  143.5340 C   0  0  0  0  0  3  0  0  0  0  0  0
  186.4890  178.1480  144.2080 C   0  0  0  0  0  0  0  0  0  0  0  0
  190.9310  177.0930  145.4690 C   0  0  1  0  0  3  0  0  0  0  0  0
  186.9750  178.6310  146.4680 C   0  0  0  0  0  3  0  0  0  0  0  0
  188.4160  177.6120  138.1310 C   0  0  0  0  0  0  0  0  0  0  0  0
  187.2890  178.2580  138.6590 C   0  0  0  0  0  3  0  0  0  0  0  0
  189.3960  177.1210  139.0040 C   0  0  0  0  0  3  0  0  0  0  0  0
  188.1320  177.9310  140.9130 C   0  0  0  0  0  0  0  0  0  0  0  0
  189.2530  177.2760  140.3850 C   0  0  0  0  0  3  0  0  0  0  0  0
  187.1470  178.4140  140.0390 C   0  0  0  0  0  3  0  0  0  0  0  0
  187.5740  177.9520  135.7840 N   0  0  0  0  0  1  0  0  0  0  0  0
  189.5760  176.8590  136.2010 O   0  0  0  0  0  0  0  0  0  0  0  0
  188.5670  177.4480  136.6740 C   0  0  0  0  0  0  0  0  0  0  0  0
  191.9500  176.1730  147.6360 C   0  0  0  0  0  0  0  0  0  0  0  0
  191.9820  177.2880  148.2210 O   0  0  0  0  0  0  0  0  0  0  0  0
  191.4620  176.0470  146.2950 N   0  0  0  0  0  2  0  0  0  0  0  0
  192.4350  174.9640  148.3500 C   0  0  0  0  0  1  0  0  0  0  0  0
  1 17  2  0  0  0  0
  2  4  1  0  0  0  0
  3 16  1  0  0  0  0
  4  6  2  0  0  0  0
  5  7  1  0  0  0  0
  5  8  2  0  0  0  0
  7 15  1  0  0  0  0
  8  2  1  0  0  0  0
  9  1  1  0  0  0  0
  9  3  2  0  0  0  0
 10  9  1  0  0  0  0
 11 10  2  0  0  0  0
 11 14  1  0  0  0  0
 12  7  1  0  0  0  0
 12 10  1  0  0  0  0
 13 16  1  0  0  0  0
 14 13  2  0  0  0  0
 15  2  2  0  0  0  0
 15  1  1  0  0  0  0
 16 29  1  1  0  0  0
 17  6  1  0  0  0  0
 18 19  2  0  0  0  0
 18 20  1  0  0  0  0
 19 23  1  0  0  0  0
 20 22  2  0  0  0  0
 21 12  1  0  0  0  0
 22 21  1  0  0  0  0
 23 21  2  0  0  0  0
 24 26  1  0  0  0  0
 25 26  2  0  0  0  0
 26 18  1  0  0  0  0
 27 28  2  0  0  0  0
 27 30  1  0  0  0  0
 29 27  1  0  0  0  0
M  END
>  <MODEL>
7

>  <REMARK>
 VINA RESULT:      -7.9      2.834      6.328
  Name = 
  3 active torsions:
  status: ('A' for Active; 'I' for Inactive)
    1  A    between atoms: C_5  and  C_22
    2  A    between atoms: N_16  and  C_27
    3  A    between atoms: N_20  and  C_21
                            x       y       z     vdW  Elec       q    Type
                         _______ _______ _______ _____ _____    ______ ____

>  <TORSDO>
F 3

$$$$
=
 OpenBabel10232408233D

 30 34  0  0  1  0  0  0  0  0999 V2000
  186.3120  178.4370  139.6050 C   0  0  0  0  0  0  0  0  0  0  0  0
  188.5130  177.6820  139.0460 C   0  0  0  0  0  0  0  0  0  0  0  0
  184.1160  177.8550  140.5380 C   0  0  0  0  0  3  0  0  0  0  0  0
  188.3330  177.8910  137.7180 N   0  0  0  0  0  0  0  0  0  0  0  0
  189.2750  177.3780  141.0970 N   0  0  0  0  0  0  0  0  0  0  0  0
  187.1140  178.3680  137.2960 C   0  0  0  0  0  3  0  0  0  0  0  0
  187.9980  177.7420  141.1610 N   0  0  0  0  0  0  0  0  0  0  0  0
  189.6350  177.3190  139.7790 C   0  0  0  0  0  3  0  0  0  0  0  0
  185.3190  178.7270  140.7050 C   0  0  0  0  0  0  0  0  0  0  0  0
  185.9070  178.5940  142.1170 C   0  0  0  0  0  0  0  0  0  0  0  0
  185.1820  178.9980  143.1690 C   0  0  0  0  0  3  0  0  0  0  0  0
  187.2600  178.0790  142.3110 N   0  0  0  0  0  0  0  0  0  0  0  0
  182.8330  179.0320  142.2880 C   0  0  0  0  0  3  0  0  0  0  0  0
  183.7830  179.4630  143.1270 C   0  0  0  0  0  3  0  0  0  0  0  0
  187.5430  177.9340  139.9390 C   0  0  0  0  0  0  0  0  0  0  0  0
  182.9870  178.0030  141.2340 C   0  0  1  0  0  3  0  0  0  0  0  0
  186.0820  178.6570  138.2320 C   0  0  0  0  0  3  0  0  0  0  0  0
  188.9870  177.4680  146.1540 C   0  0  0  0  0  0  0  0  0  0  0  0
  189.7480  178.0280  145.1190 C   0  0  0  0  0  3  0  0  0  0  0  0
  187.6530  177.1130  145.9080 C   0  0  0  0  0  3  0  0  0  0  0  0
  187.8450  177.8890  143.6150 C   0  0  0  0  0  0  0  0  0  0  0  0
  187.0880  177.3200  144.6480 C   0  0  0  0  0  3  0  0  0  0  0  0
  189.1830  178.2340  143.8580 C   0  0  0  0  0  3  0  0  0  0  0  0
  188.9050  177.6880  148.6590 N   0  0  0  0  0  1  0  0  0  0  0  0
  190.6980  176.6740  147.5950 O   0  0  0  0  0  0  0  0  0  0  0  0
  189.5830  177.2500  147.4840 C   0  0  0  0  0  0  0  0  0  0  0  0
  181.0860  177.2480  139.6850 C   0  0  0  0  0  0  0  0  0  0  0  0
  181.2840  178.1470  138.8260 O   0  0  0  0  0  0  0  0  0  0  0  0
  181.8830  177.1610  140.8720 N   0  0  0  0  0  2  0  0  0  0  0  0
  179.9970  176.2610  139.4670 C   0  0  0  0  0  1  0  0  0  0  0  0
  1 15  2  0  0  0  0
  1  9  1  0  0  0  0
  2  8  1  0  0  0  0
  2 15  1  0  0  0  0
  3  9  2  0  0  0  0
  3 16  1  0  0  0  0
  4  2  2  0  0  0  0
  5  7  1  0  0  0  0
  6  4  1  0  0  0  0
  6 17  2  0  0  0  0
  7 12  1  0  0  0  0
  8  5  2  0  0  0  0
  9 10  1  0  0  0  0
 10 12  1  0  0  0  0
 10 11  2  0  0  0  0
 12 21  1  0  0  0  0
 13 14  2  0  0  0  0
 14 11  1  0  0  0  0
 15  7  1  0  0  0  0
 16 29  1  6  0  0  0
 16 13  1  0  0  0  0
 17  1  1  0  0  0  0
 18 26  1  0  0  0  0
 19 18  2  0  0  0  0
 20 18  1  0  0  0  0
 21 23  2  0  0  0  0
 21 22  1  0  0  0  0
 22 20  2  0  0  0  0
 23 19  1  0  0  0  0
 26 25  2  0  0  0  0
 26 24  1  0  0  0  0
 27 29  1  0  0  0  0
 28 27  2  0  0  0  0
 30 27  1  0  0  0  0
M  END
>  <MODEL>
8

>  <REMARK>
 VINA RESULT:      -7.9      2.802      7.165
  Name = 
  3 active torsions:
  status: ('A' for Active; 'I' for Inactive)
    1  A    between atoms: C_5  and  C_22
    2  A    between atoms: N_16  and  C_27
    3  A    between atoms: N_20  and  C_21
                            x       y       z     vdW  Elec       q    Type
                         _______ _______ _______ _____ _____    ______ ____

>  <TORSDO>
F 3

$$$$
=
 OpenBabel10232408233D

 30 34  0  0  1  0  0  0  0  0999 V2000
  187.6950  178.4440  141.1030 C   0  0  0  0  0  0  0  0  0  0  0  0
  186.6730  177.9630  138.9930 C   0  0  0  0  0  0  0  0  0  0  0  0
  188.6010  177.5420  143.2000 C   0  0  0  0  0  3  0  0  0  0  0  0
  185.5280  178.6180  139.3090 N   0  0  0  0  0  0  0  0  0  0  0  0
  188.3960  176.9760  138.0230 N   0  0  0  0  0  0  0  0  0  0  0  0
  185.4340  179.1940  140.5540 C   0  0  0  0  0  3  0  0  0  0  0  0
  188.7200  177.2780  139.2770 N   0  0  0  0  0  0  0  0  0  0  0  0
  187.1080  177.3850  137.8090 C   0  0  0  0  0  3  0  0  0  0  0  0
  188.9290  178.3190  141.9650 C   0  0  0  0  0  0  0  0  0  0  0  0
  190.1340  177.7130  141.2340 C   0  0  0  0  0  0  0  0  0  0  0  0
  191.3330  177.7150  141.8320 C   0  0  0  0  0  3  0  0  0  0  0  0
  189.9890  177.1820  139.8800 N   0  0  0  0  0  0  0  0  0  0  0  0
  190.7790  178.0180  144.2600 C   0  0  0  0  0  3  0  0  0  0  0  0
  191.6070  178.1450  143.2160 C   0  0  0  0  0  3  0  0  0  0  0  0
  187.6990  177.8740  139.8560 C   0  0  0  0  0  0  0  0  0  0  0  0
  189.4230  177.4220  144.2450 C   0  0  1  0  0  3  0  0  0  0  0  0
  186.5170  179.1250  141.4740 C   0  0  0  0  0  3  0  0  0  0  0  0
  193.1710  175.3570  137.7210 C   0  0  0  0  0  0  0  0  0  0  0  0
  193.3940  176.5390  138.4410 C   0  0  0  0  0  3  0  0  0  0  0  0
  191.8920  174.7860  137.7210 C   0  0  0  0  0  3  0  0  0  0  0  0
  191.0740  176.5600  139.1640 C   0  0  0  0  0  0  0  0  0  0  0  0
  190.8510  175.3840  138.4350 C   0  0  0  0  0  3  0  0  0  0  0  0
  192.3530  177.1370  139.1550 C   0  0  0  0  0  3  0  0  0  0  0  0
  195.4120  175.4850  136.5830 N   0  0  0  0  0  1  0  0  0  0  0  0
  194.2080  173.5060  136.6560 O   0  0  0  0  0  0  0  0  0  0  0  0
  194.2700  174.7250  136.9680 C   0  0  0  0  0  0  0  0  0  0  0  0
  188.8220  177.2590  146.7330 C   0  0  0  0  0  0  0  0  0  0  0  0
  189.2350  178.4130  147.0190 O   0  0  0  0  0  0  0  0  0  0  0  0
  188.9140  176.7420  145.4010 N   0  0  0  0  0  2  0  0  0  0  0  0
  188.2320  176.4120  147.8030 C   0  0  0  0  0  1  0  0  0  0  0  0
  1 17  1  0  0  0  0
  1  9  1  0  0  0  0
  2  4  2  0  0  0  0
  2 15  1  0  0  0  0
  3 16  1  0  0  0  0
  4  6  1  0  0  0  0
  5  7  1  0  0  0  0
  6 17  2  0  0  0  0
  7 15  1  0  0  0  0
  7 12  1  0  0  0  0
  8  5  2  0  0  0  0
  8  2  1  0  0  0  0
  9  3  2  0  0  0  0
 10 11  2  0  0  0  0
 10  9  1  0  0  0  0
 11 14  1  0  0  0  0
 12 10  1  0  0  0  0
 14 13  2  0  0  0  0
 15  1  2  0  0  0  0
 16 13  1  0  0  0  0
 16 29  1  1  0  0  0
 18 19  1  0  0  0  0
 19 23  2  0  0  0  0
 20 18  2  0  0  0  0
 20 22  1  0  0  0  0
 21 12  1  0  0  0  0
 22 21  2  0  0  0  0
 23 21  1  0  0  0  0
 24 26  1  0  0  0  0
 25 26  2  0  0  0  0
 26 18  1  0  0  0  0
 27 28  2  0  0  0  0
 27 30  1  0  0  0  0
 29 27  1  0  0  0  0
M  END
>  <MODEL>
9

>  <REMARK>
 VINA RESULT:      -7.7      3.014      8.605
  Name = 
  3 active torsions:
  status: ('A' for Active; 'I' for Inactive)
    1  A    between atoms: C_5  and  C_22
    2  A    between atoms: N_16  and  C_27
    3  A    between atoms: N_20  and  C_21
                            x       y       z     vdW  Elec       q    Type
                         _______ _______ _______ _____ _____    ______ ____

>  <TORSDO>
F 3

$$$$
