=
 OpenBabel10232408203D

 30 34  0  0  1  0  0  0  0  0999 V2000
  188.3370  178.8680  142.6920 O   0  0  0  0  0  0  0  0  0  0  0  0
  185.3230  178.4590  142.8860 C   0  0  0  0  0  3  0  0  0  0  0  0
  186.6480  178.3830  139.3590 N   0  0  0  0  0  2  0  0  0  0  0  0
  188.5900  175.9600  136.2480 N   0  0  0  0  0  0  0  0  0  0  0  0
  187.6220  177.9670  142.1800 C   0  0  0  0  0  0  0  0  0  0  0  0
  189.0440  176.2940  137.4070 C   0  0  0  0  0  3  0  0  0  0  0  0
  189.9530  176.9590  140.2140 C   0  0  0  0  0  0  0  0  0  0  0  0
  185.7950  178.5080  140.5070 C   0  0  0  0  0  0  0  0  0  0  0  0
  189.5670  176.4130  141.5760 C   0  0  2  0  0  3  0  0  0  0  0  0
  191.0270  176.6360  139.7280 O   0  0  0  0  0  0  0  0  0  0  0  0
  184.4830  178.9380  140.2920 C   0  0  0  0  0  3  0  0  0  0  0  0
  186.2280  178.2680  141.8370 C   0  0  0  0  0  0  0  0  0  0  0  0
  188.1650  176.6690  141.9120 N   0  0  0  0  0  2  0  0  0  0  0  0
  188.2030  178.7370  137.0740 C   0  0  2  0  0  3  0  0  0  0  0  0
  183.6150  179.0990  141.3710 C   0  0  0  0  0  3  0  0  0  0  0  0
  188.0970  178.2660  135.6160 C   0  0  0  0  0  2  0  0  0  0  0  0
  189.1140  179.7920  137.1400 O   0  0  0  0  0  1  0  0  0  0  0  0
  184.0470  178.8540  142.6360 N   0  0  0  0  0  0  0  0  0  0  0  0
  187.6700  177.3500  139.2080 C   0  0  1  0  0  3  0  0  0  0  0  0
  189.1100  179.2550  139.8180 F   0  0  0  0  0  0  0  0  0  0  0  0
  187.6540  176.8040  135.5330 C   0  0  0  0  0  2  0  0  0  0  0  0
  188.6210  177.5970  138.0320 C   0  0  1  0  0  0  0  0  0  0  0  0
  189.0670  177.9170  139.4600 C   0  0  1  0  0  0  0  0  0  0  0  0
  190.5050  176.7820  142.6960 C   0  0  0  0  0  0  0  0  0  0  0  0
  191.3900  178.9390  143.5740 C   0  0  0  0  0  3  0  0  0  0  0  0
  191.5550  178.6970  144.8740 C   0  0  0  0  0  3  0  0  0  0  0  0
  191.5070  177.8860  142.5230 C   0  0  0  0  0  2  0  0  0  0  0  0
  190.5020  176.0070  143.7830 C   0  0  0  0  0  3  0  0  0  0  0  0
  191.7770  177.3670  145.4700 C   0  0  0  0  0  3  0  0  0  0  0  0
  191.3220  176.2020  144.9960 C   0  0  0  0  0  3  0  0  0  0  0  0
  3  8  1  0  0  0  0
  4  6  2  0  0  0  0
  5  1  2  0  0  0  0
  7  9  1  0  0  0  0
  8 12  1  0  0  0  0
  9 13  1  0  0  0  0
  9 24  1  1  0  0  0
 10  7  2  0  0  0  0
 11  8  2  0  0  0  0
 11 15  1  0  0  0  0
 12  5  1  0  0  0  0
 12  2  2  0  0  0  0
 13  5  1  0  0  0  0
 14 17  1  6  0  0  0
 14 22  1  0  0  0  0
 15 18  2  0  0  0  0
 16 14  1  0  0  0  0
 18  2  1  0  0  0  0
 19  3  1  6  0  0  0
 19 23  1  0  0  0  0
 21 16  1  0  0  0  0
 21  4  1  0  0  0  0
 22  6  1  6  0  0  0
 22 19  1  0  0  0  0
 22 23  1  0  0  0  0
 23 20  1  1  0  0  0
 23  7  1  0  0  0  0
 24 28  2  0  0  0  0
 25 26  2  0  0  0  0
 26 29  1  0  0  0  0
 27 24  1  0  0  0  0
 27 25  1  0  0  0  0
 28 30  1  0  0  0  0
 30 29  2  0  0  0  0
M  END
>  <MODEL>
1

>  <REMARK>
 VINA RESULT:      -6.9      0.000      0.000
  Name = 
  1 active torsions:
  status: ('A' for Active; 'I' for Inactive)
    1  A    between atoms: C_1  and  C_14
                            x       y       z     vdW  Elec       q    Type
                         _______ _______ _______ _____ _____    ______ ____

>  <TORSDO>
F 1

$$$$
=
 OpenBabel10232408203D

 30 34  0  0  1  0  0  0  0  0999 V2000
  191.9540  176.9440  138.1360 O   0  0  0  0  0  0  0  0  0  0  0  0
  190.9130  177.0790  140.9980 C   0  0  0  0  0  3  0  0  0  0  0  0
  188.1970  177.0860  138.3850 N   0  0  0  0  0  2  0  0  0  0  0  0
  185.7270  174.6460  135.6910 N   0  0  0  0  0  0  0  0  0  0  0  0
  191.0730  176.2410  138.6960 C   0  0  0  0  0  0  0  0  0  0  0  0
  187.0080  174.7830  135.7030 C   0  0  0  0  0  3  0  0  0  0  0  0
  190.0160  175.0080  135.9240 C   0  0  0  0  0  0  0  0  0  0  0  0
  188.9360  177.2590  139.6040 C   0  0  0  0  0  0  0  0  0  0  0  0
  191.0220  174.4190  136.8950 C   0  0  2  0  0  3  0  0  0  0  0  0
  189.9340  174.5400  134.7990 O   0  0  0  0  0  0  0  0  0  0  0  0
  188.3060  177.9410  140.6490 C   0  0  0  0  0  3  0  0  0  0  0  0
  190.2750  176.8230  139.7800 C   0  0  0  0  0  0  0  0  0  0  0  0
  190.8320  174.8960  138.2670 N   0  0  0  0  0  2  0  0  0  0  0  0
  186.7680  177.3590  136.0090 C   0  0  2  0  0  3  0  0  0  0  0  0
  188.9820  178.1580  141.8490 C   0  0  0  0  0  3  0  0  0  0  0  0
  185.3260  177.0510  135.5790 C   0  0  0  0  0  2  0  0  0  0  0  0
  187.3420  178.2180  135.0720 O   0  0  0  0  0  1  0  0  0  0  0  0
  190.2600  177.7230  142.0000 N   0  0  0  0  0  0  0  0  0  0  0  0
  188.2880  175.9030  137.5350 C   0  0  1  0  0  3  0  0  0  0  0  0
  189.6940  177.4460  136.2260 F   0  0  0  0  0  0  0  0  0  0  0  0
  184.8500  175.7090  136.1390 C   0  0  0  0  0  2  0  0  0  0  0  0
  187.6210  176.0780  136.1670 C   0  0  1  0  0  0  0  0  0  0  0  0
  189.1410  176.1780  136.2970 C   0  0  1  0  0  0  0  0  0  0  0  0
  192.4590  174.5050  136.4500 C   0  0  0  0  0  0  0  0  0  0  0  0
  193.8090  176.2420  135.2810 C   0  0  0  0  0  3  0  0  0  0  0  0
  195.0330  176.0670  135.7780 C   0  0  0  0  0  3  0  0  0  0  0  0
  192.8160  175.1380  135.1360 C   0  0  0  0  0  2  0  0  0  0  0  0
  193.3740  173.8800  137.1940 C   0  0  0  0  0  3  0  0  0  0  0  0
  195.5500  174.8050  136.3370 C   0  0  0  0  0  3  0  0  0  0  0  0
  194.8300  173.8580  136.9500 C   0  0  0  0  0  3  0  0  0  0  0  0
  1  5  2  0  0  0  0
  2 18  1  0  0  0  0
  3  8  1  0  0  0  0
  4  6  2  0  0  0  0
  4 21  1  0  0  0  0
  5 12  1  0  0  0  0
  7 23  1  0  0  0  0
  7  9  1  0  0  0  0
  8 12  1  0  0  0  0
  8 11  2  0  0  0  0
  9 24  1  6  0  0  0
  9 13  1  0  0  0  0
 10  7  2  0  0  0  0
 11 15  1  0  0  0  0
 12  2  2  0  0  0  0
 13  5  1  0  0  0  0
 14 17  1  6  0  0  0
 14 22  1  0  0  0  0
 15 18  2  0  0  0  0
 16 14  1  0  0  0  0
 16 21  1  0  0  0  0
 19  3  1  1  0  0  0
 22  6  1  6  0  0  0
 22 23  1  0  0  0  0
 22 19  1  0  0  0  0
 23 20  1  6  0  0  0
 23 19  1  0  0  0  0
 24 28  2  0  0  0  0
 25 26  2  0  0  0  0
 26 29  1  0  0  0  0
 27 25  1  0  0  0  0
 27 24  1  0  0  0  0
 29 30  2  0  0  0  0
 30 28  1  0  0  0  0
M  END
>  <MODEL>
2

>  <REMARK>
 VINA RESULT:      -6.8      3.414      5.669
  Name = 
  1 active torsions:
  status: ('A' for Active; 'I' for Inactive)
    1  A    between atoms: C_1  and  C_14
                            x       y       z     vdW  Elec       q    Type
                         _______ _______ _______ _____ _____    ______ ____

>  <TORSDO>
F 1

$$$$
=
 OpenBabel10232408203D

 30 34  0  0  1  0  0  0  0  0999 V2000
  187.1660  176.9030  138.5610 O   0  0  0  0  0  0  0  0  0  0  0  0
  184.9800  178.8290  139.4570 C   0  0  0  0  0  3  0  0  0  0  0  0
  187.5150  178.0480  142.1330 N   0  0  0  0  0  2  0  0  0  0  0  0
  191.4920  178.9660  143.7630 N   0  0  0  0  0  0  0  0  0  0  0  0
  187.2750  178.0210  139.1300 C   0  0  0  0  0  0  0  0  0  0  0  0
  191.1880  178.4960  142.6030 C   0  0  0  0  0  3  0  0  0  0  0  0
  190.3770  177.5810  139.8370 C   0  0  0  0  0  0  0  0  0  0  0  0
  186.3180  178.4360  141.4410 C   0  0  0  0  0  0  0  0  0  0  0  0
  189.7750  178.3070  138.6490 C   0  0  2  0  0  3  0  0  0  0  0  0
  191.5600  177.2760  139.8080 O   0  0  0  0  0  0  0  0  0  0  0  0
  185.1960  178.7420  142.2150 C   0  0  0  0  0  3  0  0  0  0  0  0
  186.2060  178.4740  140.0270 C   0  0  0  0  0  0  0  0  0  0  0  0
  188.4360  178.8330  138.9260 N   0  0  0  0  0  2  0  0  0  0  0  0
  189.4930  176.8360  143.6770 C   0  0  2  0  0  3  0  0  0  0  0  0
  183.9990  179.1050  141.5970 C   0  0  0  0  0  3  0  0  0  0  0  0
  190.2560  177.2280  144.9510 C   0  0  0  0  0  2  0  0  0  0  0  0
  189.6460  175.4650  143.4660 O   0  0  0  0  0  1  0  0  0  0  0  0
  183.9170  179.1440  140.2420 N   0  0  0  0  0  0  0  0  0  0  0  0
  188.8640  178.3900  141.6900 C   0  0  1  0  0  3  0  0  0  0  0  0
  188.7770  176.0440  140.9420 F   0  0  0  0  0  0  0  0  0  0  0  0
  190.6660  178.7020  144.9240 C   0  0  0  0  0  2  0  0  0  0  0  0
  189.9660  177.6330  142.4390 C   0  0  1  0  0  0  0  0  0  0  0  0
  189.5490  177.1910  141.0350 C   0  0  1  0  0  0  0  0  0  0  0  0
  189.8390  177.5540  137.3450 C   0  0  0  0  0  0  0  0  0  0  0  0
  189.6730  175.1470  136.7250 C   0  0  0  0  0  3  0  0  0  0  0  0
  189.1230  175.1790  135.5120 C   0  0  0  0  0  3  0  0  0  0  0  0
  190.5470  176.2330  137.2590 C   0  0  0  0  0  2  0  0  0  0  0  0
  189.3710  178.1660  136.2550 C   0  0  0  0  0  3  0  0  0  0  0  0
  189.2110  176.3090  134.5690 C   0  0  0  0  0  3  0  0  0  0  0  0
  189.3200  177.6020  134.8920 C   0  0  0  0  0  3  0  0  0  0  0  0
  1  5  2  0  0  0  0
  2 12  2  0  0  0  0
  2 18  1  0  0  0  0
  4 21  1  0  0  0  0
  5 12  1  0  0  0  0
  6  4  2  0  0  0  0
  7 23  1  0  0  0  0
  8  3  1  0  0  0  0
  8 11  2  0  0  0  0
  9 24  1  6  0  0  0
  9 13  1  0  0  0  0
  9  7  1  0  0  0  0
 10  7  2  0  0  0  0
 12  8  1  0  0  0  0
 13  5  1  0  0  0  0
 14 17  1  6  0  0  0
 14 16  1  0  0  0  0
 15 11  1  0  0  0  0
 18 15  2  0  0  0  0
 19  3  1  1  0  0  0
 19 22  1  0  0  0  0
 21 16  1  0  0  0  0
 22  6  1  1  0  0  0
 22 14  1  0  0  0  0
 23 20  1  6  0  0  0
 23 19  1  0  0  0  0
 23 22  1  0  0  0  0
 25 27  1  0  0  0  0
 26 25  2  0  0  0  0
 27 24  1  0  0  0  0
 28 24  2  0  0  0  0
 29 30  2  0  0  0  0
 29 26  1  0  0  0  0
 30 28  1  0  0  0  0
M  END
>  <MODEL>
3

>  <REMARK>
 VINA RESULT:      -6.4      1.874      5.999
  Name = 
  1 active torsions:
  status: ('A' for Active; 'I' for Inactive)
    1  A    between atoms: C_1  and  C_14
                            x       y       z     vdW  Elec       q    Type
                         _______ _______ _______ _____ _____    ______ ____

>  <TORSDO>
F 1

$$$$
=
 OpenBabel10232408203D

 30 34  0  0  1  0  0  0  0  0999 V2000
  190.9050  175.7880  140.1570 O   0  0  0  0  0  0  0  0  0  0  0  0
  193.3610  176.1660  138.3910 C   0  0  0  0  0  3  0  0  0  0  0  0
  190.0920  176.4990  136.5480 N   0  0  0  0  0  2  0  0  0  0  0  0
  186.7310  179.1470  135.5370 N   0  0  0  0  0  0  0  0  0  0  0  0
  191.1710  176.7190  139.3520 C   0  0  0  0  0  0  0  0  0  0  0  0
  187.1090  178.7340  136.6980 C   0  0  0  0  0  3  0  0  0  0  0  0
  188.1750  177.8770  139.3950 C   0  0  0  0  0  0  0  0  0  0  0  0
  191.4740  176.2880  136.8720 C   0  0  0  0  0  0  0  0  0  0  0  0
  189.3690  178.3220  140.2170 C   0  0  2  0  0  3  0  0  0  0  0  0
  187.0570  178.2390  139.7290 O   0  0  0  0  0  0  0  0  0  0  0  0
  192.3210  175.8670  135.8430 C   0  0  0  0  0  3  0  0  0  0  0  0
  192.0050  176.4360  138.1800 C   0  0  0  0  0  0  0  0  0  0  0  0
  190.6470  178.0360  139.5610 N   0  0  0  0  0  2  0  0  0  0  0  0
  187.4190  176.3160  135.7790 C   0  0  2  0  0  3  0  0  0  0  0  0
  193.6700  175.6260  136.1040 C   0  0  0  0  0  3  0  0  0  0  0  0
  186.5910  176.8890  134.6200 C   0  0  0  0  0  2  0  0  0  0  0  0
  186.7100  175.2640  136.3610 O   0  0  0  0  0  1  0  0  0  0  0  0
  194.1590  175.7820  137.3610 N   0  0  0  0  0  0  0  0  0  0  0  0
  189.2620  177.5450  137.1400 C   0  0  1  0  0  3  0  0  0  0  0  0
  188.4540  175.6100  138.4350 F   0  0  0  0  0  0  0  0  0  0  0  0
  186.9490  178.3510  134.3460 C   0  0  0  0  0  2  0  0  0  0  0  0
  187.7680  177.3880  136.8390 C   0  0  1  0  0  0  0  0  0  0  0  0
  188.3240  176.9700  138.2010 C   0  0  1  0  0  0  0  0  0  0  0  0
  189.3490  177.8800  141.6580 C   0  0  0  0  0  0  0  0  0  0  0  0
  190.3790  178.7520  143.7520 C   0  0  0  0  0  3  0  0  0  0  0  0
  189.4980  178.4130  144.6920 C   0  0  0  0  0  3  0  0  0  0  0  0
  190.5880  177.9650  142.5020 C   0  0  0  0  0  2  0  0  0  0  0  0
  188.2400  177.2880  142.1060 C   0  0  0  0  0  3  0  0  0  0  0  0
  188.5490  177.2890  144.6010 C   0  0  0  0  0  3  0  0  0  0  0  0
  188.0050  176.8010  143.4800 C   0  0  0  0  0  3  0  0  0  0  0  0
  3  8  1  0  0  0  0
  4  6  2  0  0  0  0
  5 13  1  0  0  0  0
  5  1  2  0  0  0  0
  7 10  2  0  0  0  0
  7  9  1  0  0  0  0
  8 12  2  0  0  0  0
  9 24  1  1  0  0  0
 11 15  2  0  0  0  0
 11  8  1  0  0  0  0
 12  2  1  0  0  0  0
 12  5  1  0  0  0  0
 13  9  1  0  0  0  0
 14 17  1  1  0  0  0
 14 22  1  0  0  0  0
 15 18  1  0  0  0  0
 16 14  1  0  0  0  0
 18  2  2  0  0  0  0
 19  3  1  6  0  0  0
 19 23  1  0  0  0  0
 21 16  1  0  0  0  0
 21  4  1  0  0  0  0
 22  6  1  6  0  0  0
 22 19  1  0  0  0  0
 22 23  1  0  0  0  0
 23 20  1  1  0  0  0
 23  7  1  0  0  0  0
 24 28  2  0  0  0  0
 24 27  1  0  0  0  0
 25 26  2  0  0  0  0
 27 25  1  0  0  0  0
 28 30  1  0  0  0  0
 29 26  1  0  0  0  0
 30 29  2  0  0  0  0
M  END
>  <MODEL>
4

>  <REMARK>
 VINA RESULT:      -6.4      2.761      5.204
  Name = 
  1 active torsions:
  status: ('A' for Active; 'I' for Inactive)
    1  A    between atoms: C_1  and  C_14
                            x       y       z     vdW  Elec       q    Type
                         _______ _______ _______ _____ _____    ______ ____

>  <TORSDO>
F 1

$$$$
=
 OpenBabel10232408203D

 30 34  0  0  1  0  0  0  0  0999 V2000
  187.4010  179.4230  142.3040 O   0  0  0  0  0  0  0  0  0  0  0  0
  184.4300  178.8680  141.9150 C   0  0  0  0  0  3  0  0  0  0  0  0
  186.5000  178.3370  138.8110 N   0  0  0  0  0  2  0  0  0  0  0  0
  189.1400  175.5910  136.6180 N   0  0  0  0  0  0  0  0  0  0  0  0
  186.8400  178.4130  141.8040 C   0  0  0  0  0  0  0  0  0  0  0  0
  189.3190  176.1240  137.7770 C   0  0  0  0  0  3  0  0  0  0  0  0
  189.5720  177.2600  140.5690 C   0  0  0  0  0  0  0  0  0  0  0  0
  185.4120  178.5830  139.7160 C   0  0  0  0  0  0  0  0  0  0  0  0
  188.9090  176.9060  141.8870 C   0  0  2  0  0  3  0  0  0  0  0  0
  190.7340  176.9330  140.3820 O   0  0  0  0  0  0  0  0  0  0  0  0
  184.1690  178.8960  139.1590 C   0  0  0  0  0  3  0  0  0  0  0  0
  185.5480  178.5740  141.1280 C   0  0  0  0  0  0  0  0  0  0  0  0
  187.4610  177.1250  141.8700 N   0  0  0  0  0  2  0  0  0  0  0  0
  188.5100  178.4330  136.8830 C   0  0  2  0  0  3  0  0  0  0  0  0
  183.0810  179.1670  139.9880 C   0  0  0  0  0  3  0  0  0  0  0  0
  188.7400  177.7400  135.5320 C   0  0  0  0  0  2  0  0  0  0  0  0
  189.3570  179.5380  136.9710 O   0  0  0  0  0  1  0  0  0  0  0  0
  183.2310  179.1430  141.3380 N   0  0  0  0  0  0  0  0  0  0  0  0
  187.5560  177.3570  139.0490 C   0  0  1  0  0  3  0  0  0  0  0  0
  188.7770  179.4150  139.6380 F   0  0  0  0  0  0  0  0  0  0  0  0
  188.3630  176.2590  135.5930 C   0  0  0  0  0  2  0  0  0  0  0  0
  188.7360  177.4790  138.0800 C   0  0  1  0  0  0  0  0  0  0  0  0
  188.8480  178.0380  139.4980 C   0  0  1  0  0  0  0  0  0  0  0  0
  189.5680  177.4960  143.1070 C   0  0  0  0  0  0  0  0  0  0  0  0
  190.1200  176.6200  145.3720 C   0  0  0  0  0  3  0  0  0  0  0  0
  191.2250  177.2880  145.7000 C   0  0  0  0  0  3  0  0  0  0  0  0
  189.0580  177.1750  144.4820 C   0  0  0  0  0  2  0  0  0  0  0  0
  190.5180  178.4130  142.9120 C   0  0  0  0  0  3  0  0  0  0  0  0
  191.6070  178.6100  145.1700 C   0  0  0  0  0  3  0  0  0  0  0  0
  191.2990  179.0970  143.9620 C   0  0  0  0  0  3  0  0  0  0  0  0
  3  8  1  0  0  0  0
  4  6  2  0  0  0  0
  5 13  1  0  0  0  0
  5  1  2  0  0  0  0
  7  9  1  0  0  0  0
  8 12  1  0  0  0  0
  9 24  1  1  0  0  0
 10  7  2  0  0  0  0
 11  8  2  0  0  0  0
 11 15  1  0  0  0  0
 12  5  1  0  0  0  0
 12  2  2  0  0  0  0
 13  9  1  0  0  0  0
 14 17  1  1  0  0  0
 14 22  1  0  0  0  0
 15 18  2  0  0  0  0
 16 21  1  0  0  0  0
 16 14  1  0  0  0  0
 18  2  1  0  0  0  0
 19  3  1  6  0  0  0
 19 23  1  0  0  0  0
 21  4  1  0  0  0  0
 22  6  1  6  0  0  0
 22 19  1  0  0  0  0
 22 23  1  0  0  0  0
 23 20  1  1  0  0  0
 23  7  1  0  0  0  0
 24 27  1  0  0  0  0
 25 26  2  0  0  0  0
 27 25  1  0  0  0  0
 28 24  2  0  0  0  0
 28 30  1  0  0  0  0
 29 26  1  0  0  0  0
 30 29  2  0  0  0  0
M  END
>  <MODEL>
5

>  <REMARK>
 VINA RESULT:      -6.4      0.912      1.418
  Name = 
  1 active torsions:
  status: ('A' for Active; 'I' for Inactive)
    1  A    between atoms: C_1  and  C_14
                            x       y       z     vdW  Elec       q    Type
                         _______ _______ _______ _____ _____    ______ ____

>  <TORSDO>
F 1

$$$$
=
 OpenBabel10232408203D

 30 34  0  0  1  0  0  0  0  0999 V2000
  186.7530  177.3430  142.0590 O   0  0  0  0  0  0  0  0  0  0  0  0
  188.4250  178.4990  139.7880 C   0  0  0  0  0  3  0  0  0  0  0  0
  184.7340  178.3570  139.0440 N   0  0  0  0  0  2  0  0  0  0  0  0
  180.8320  180.3110  139.5740 N   0  0  0  0  0  0  0  0  0  0  0  0
  186.5900  178.4130  141.4160 C   0  0  0  0  0  0  0  0  0  0  0  0
  181.6200  179.8330  140.4740 C   0  0  0  0  0  3  0  0  0  0  0  0
  183.6120  178.8620  142.5320 C   0  0  0  0  0  0  0  0  0  0  0  0
  186.1630  178.4130  138.9170 C   0  0  0  0  0  0  0  0  0  0  0  0
  184.9120  179.4400  143.0580 C   0  0  2  0  0  3  0  0  0  0  0  0
  182.6130  178.9170  143.2330 O   0  0  0  0  0  0  0  0  0  0  0  0
  186.6990  178.3390  137.6290 C   0  0  0  0  0  3  0  0  0  0  0  0
  187.0470  178.4890  140.0250 C   0  0  0  0  0  0  0  0  0  0  0  0
  185.9460  179.5380  142.0250 N   0  0  0  0  0  2  0  0  0  0  0  0
  182.0260  177.6970  139.0380 C   0  0  2  0  0  3  0  0  0  0  0  0
  188.0820  178.3670  137.4460 C   0  0  0  0  0  3  0  0  0  0  0  0
  180.7900  178.2300  138.2980 C   0  0  0  0  0  2  0  0  0  0  0  0
  181.7240  176.4440  139.5710 O   0  0  0  0  0  1  0  0  0  0  0  0
  188.9100  178.4500  138.5190 N   0  0  0  0  0  0  0  0  0  0  0  0
  183.9710  179.1000  140.0430 C   0  0  1  0  0  3  0  0  0  0  0  0
  183.9500  176.8710  141.0960 F   0  0  0  0  0  0  0  0  0  0  0  0
  180.7930  179.7590  138.2340 C   0  0  0  0  0  2  0  0  0  0  0  0
  182.5070  178.6590  140.1490 C   0  0  1  0  0  0  0  0  0  0  0  0
  183.5260  178.1880  141.1870 C   0  0  1  0  0  0  0  0  0  0  0  0
  185.4230  178.8060  144.3250 C   0  0  0  0  0  0  0  0  0  0  0  0
  187.3640  177.3430  144.8710 C   0  0  0  0  0  3  0  0  0  0  0  0
  187.6680  177.6890  146.1210 C   0  0  0  0  0  3  0  0  0  0  0  0
  185.9820  177.4130  144.3130 C   0  0  0  0  0  2  0  0  0  0  0  0
  185.2320  179.4700  145.4680 C   0  0  0  0  0  3  0  0  0  0  0  0
  186.7260  178.2700  147.0950 C   0  0  0  0  0  3  0  0  0  0  0  0
  185.6700  179.0400  146.8100 C   0  0  0  0  0  3  0  0  0  0  0  0
  2 12  1  0  0  0  0
  4  6  2  0  0  0  0
  5 13  1  0  0  0  0
  5  1  2  0  0  0  0
  7  9  1  0  0  0  0
  7 10  2  0  0  0  0
  8  3  1  0  0  0  0
  8 12  2  0  0  0  0
  9 24  1  1  0  0  0
 11  8  1  0  0  0  0
 12  5  1  0  0  0  0
 13  9  1  0  0  0  0
 14 17  1  1  0  0  0
 14 22  1  0  0  0  0
 15 11  2  0  0  0  0
 15 18  1  0  0  0  0
 16 14  1  0  0  0  0
 18  2  2  0  0  0  0
 19  3  1  6  0  0  0
 19 22  1  0  0  0  0
 19 23  1  0  0  0  0
 21 16  1  0  0  0  0
 21  4  1  0  0  0  0
 22  6  1  1  0  0  0
 22 23  1  0  0  0  0
 23 20  1  6  0  0  0
 23  7  1  0  0  0  0
 24 28  2  0  0  0  0
 25 26  2  0  0  0  0
 26 29  1  0  0  0  0
 27 24  1  0  0  0  0
 27 25  1  0  0  0  0
 28 30  1  0  0  0  0
 30 29  2  0  0  0  0
M  END
>  <MODEL>
6

>  <REMARK>
 VINA RESULT:      -6.3      3.194      5.952
  Name = 
  1 active torsions:
  status: ('A' for Active; 'I' for Inactive)
    1  A    between atoms: C_1  and  C_14
                            x       y       z     vdW  Elec       q    Type
                         _______ _______ _______ _____ _____    ______ ____

>  <TORSDO>
F 1

$$$$
=
 OpenBabel10232408203D

 30 34  0  0  1  0  0  0  0  0999 V2000
  184.7510  177.5440  142.2720 O   0  0  0  0  0  0  0  0  0  0  0  0
  184.2040  178.8460  144.9730 C   0  0  0  0  0  3  0  0  0  0  0  0
  187.7440  177.6240  144.5590 N   0  0  0  0  0  2  0  0  0  0  0  0
  191.7310  178.4920  142.9230 N   0  0  0  0  0  0  0  0  0  0  0  0
  185.3950  178.4500  142.8630 C   0  0  0  0  0  0  0  0  0  0  0  0
  190.6170  178.3500  142.2920 C   0  0  0  0  0  3  0  0  0  0  0  0
  187.9320  178.1960  140.9090 C   0  0  0  0  0  0  0  0  0  0  0  0
  186.4920  178.0520  145.1140 C   0  0  0  0  0  0  0  0  0  0  0  0
  186.7650  179.1610  140.8180 C   0  0  2  0  0  3  0  0  0  0  0  0
  188.6630  178.0570  139.9400 O   0  0  0  0  0  0  0  0  0  0  0  0
  186.3440  177.9810  146.5010 C   0  0  0  0  0  3  0  0  0  0  0  0
  185.3930  178.4900  144.3290 C   0  0  0  0  0  0  0  0  0  0  0  0
  186.1410  179.4190  142.1180 N   0  0  0  0  0  2  0  0  0  0  0  0
  190.0260  176.2580  143.7260 C   0  0  2  0  0  3  0  0  0  0  0  0
  185.1410  178.3630  147.0960 C   0  0  0  0  0  3  0  0  0  0  0  0
  191.5200  176.3480  144.0700 C   0  0  0  0  0  2  0  0  0  0  0  0
  189.7840  175.0380  143.0940 O   0  0  0  0  0  1  0  0  0  0  0  0
  184.1060  178.7880  146.3270 N   0  0  0  0  0  0  0  0  0  0  0  0
  188.3770  178.2400  143.3950 C   0  0  1  0  0  3  0  0  0  0  0  0
  187.4450  176.2230  142.3270 F   0  0  0  0  0  0  0  0  0  0  0  0
  191.9830  177.8020  144.1720 C   0  0  0  0  0  2  0  0  0  0  0  0
  189.5550  177.4330  142.8380 C   0  0  1  0  0  0  0  0  0  0  0  0
  188.1920  177.3760  142.1470 C   0  0  1  0  0  0  0  0  0  0  0  0
  185.7540  178.8370  139.7480 C   0  0  0  0  0  0  0  0  0  0  0  0
  185.5400  177.0140  138.0640 C   0  0  0  0  0  3  0  0  0  0  0  0
  184.2210  176.8740  137.9290 C   0  0  0  0  0  3  0  0  0  0  0  0
  186.1950  178.3080  138.4140 C   0  0  0  0  0  2  0  0  0  0  0  0
  184.4820  179.1670  139.9810 C   0  0  0  0  0  3  0  0  0  0  0  0
  183.2240  177.9270  138.1920 C   0  0  0  0  0  3  0  0  0  0  0  0
  183.3380  178.9200  139.0810 C   0  0  0  0  0  3  0  0  0  0  0  0
  1  5  2  0  0  0  0
  2 18  1  0  0  0  0
  3  8  1  0  0  0  0
  4 21  1  0  0  0  0
  5 12  1  0  0  0  0
  6  4  2  0  0  0  0
  7 23  1  0  0  0  0
  8 11  2  0  0  0  0
  9 24  1  6  0  0  0
  9  7  1  0  0  0  0
  9 13  1  0  0  0  0
 10  7  2  0  0  0  0
 11 15  1  0  0  0  0
 12  2  2  0  0  0  0
 12  8  1  0  0  0  0
 13  5  1  0  0  0  0
 14 17  1  6  0  0  0
 14 16  1  0  0  0  0
 16 21  1  0  0  0  0
 18 15  2  0  0  0  0
 19  3  1  1  0  0  0
 22  6  1  6  0  0  0
 22 19  1  0  0  0  0
 22 14  1  0  0  0  0
 23 20  1  1  0  0  0
 23 22  1  0  0  0  0
 23 19  1  0  0  0  0
 24 28  2  0  0  0  0
 25 27  1  0  0  0  0
 26 25  2  0  0  0  0
 26 29  1  0  0  0  0
 27 24  1  0  0  0  0
 29 30  2  0  0  0  0
 30 28  1  0  0  0  0
M  END
>  <MODEL>
7

>  <REMARK>
 VINA RESULT:      -6.0      2.574      6.375
  Name = 
  1 active torsions:
  status: ('A' for Active; 'I' for Inactive)
    1  A    between atoms: C_1  and  C_14
                            x       y       z     vdW  Elec       q    Type
                         _______ _______ _______ _____ _____    ______ ____

>  <TORSDO>
F 1

$$$$
=
 OpenBabel10232408203D

 30 34  0  0  1  0  0  0  0  0999 V2000
  183.2840  177.8170  136.5120 O   0  0  0  0  0  0  0  0  0  0  0  0
  183.5950  174.9260  135.5980 C   0  0  0  0  0  3  0  0  0  0  0  0
  186.7580  176.4360  136.9790 N   0  0  0  0  0  2  0  0  0  0  0  0
  189.0440  177.4280  140.6000 N   0  0  0  0  0  0  0  0  0  0  0  0
  183.7760  176.8360  137.1290 C   0  0  0  0  0  0  0  0  0  0  0  0
  187.8870  177.8610  140.2360 C   0  0  0  0  0  3  0  0  0  0  0  0
  185.0950  178.6770  139.4070 C   0  0  0  0  0  0  0  0  0  0  0  0
  185.8220  175.6120  136.2680 C   0  0  0  0  0  0  0  0  0  0  0  0
  183.7620  177.9540  139.4340 C   0  0  2  0  0  3  0  0  0  0  0  0
  185.3170  179.5440  140.2380 O   0  0  0  0  0  0  0  0  0  0  0  0
  186.3420  174.6510  135.3960 C   0  0  0  0  0  3  0  0  0  0  0  0
  184.4140  175.7580  136.3670 C   0  0  0  0  0  0  0  0  0  0  0  0
  183.7360  176.7790  138.5600 N   0  0  0  0  0  2  0  0  0  0  0  0
  188.7410  178.2140  137.8010 C   0  0  2  0  0  3  0  0  0  0  0  0
  185.4810  173.8360  134.6620 C   0  0  0  0  0  3  0  0  0  0  0  0
  190.1030  178.0620  138.4940 C   0  0  0  0  0  2  0  0  0  0  0  0
  188.6690  179.4830  137.2250 O   0  0  0  0  0  1  0  0  0  0  0  0
  184.1360  173.9850  134.7800 N   0  0  0  0  0  0  0  0  0  0  0  0
  186.5570  176.9120  138.3440 C   0  0  1  0  0  3  0  0  0  0  0  0
  185.9880  178.9700  137.1140 F   0  0  0  0  0  0  0  0  0  0  0  0
  190.0420  177.0350  139.6260 C   0  0  0  0  0  2  0  0  0  0  0  0
  187.5580  177.9900  138.7730 C   0  0  1  0  0  0  0  0  0  0  0  0
  186.1390  178.3820  138.3600 C   0  0  1  0  0  0  0  0  0  0  0  0
  182.5560  178.8380  139.2460 C   0  0  0  0  0  0  0  0  0  0  0  0
  180.3930  179.0980  140.4540 C   0  0  0  0  0  3  0  0  0  0  0  0
  180.1030  180.3880  140.2910 C   0  0  0  0  0  3  0  0  0  0  0  0
  181.1710  178.3000  139.4620 C   0  0  0  0  0  2  0  0  0  0  0  0
  182.7590  180.0620  138.7520 C   0  0  0  0  0  3  0  0  0  0  0  0
  180.5750  181.2310  139.1780 C   0  0  0  0  0  3  0  0  0  0  0  0
  181.7260  181.0880  138.5110 C   0  0  0  0  0  3  0  0  0  0  0  0
  1  5  2  0  0  0  0
  2 12  1  0  0  0  0
  5 13  1  0  0  0  0
  6  4  2  0  0  0  0
  7  9  1  0  0  0  0
  7 10  2  0  0  0  0
  8 12  2  0  0  0  0
  8  3  1  0  0  0  0
  9 24  1  6  0  0  0
 11  8  1  0  0  0  0
 12  5  1  0  0  0  0
 13  9  1  0  0  0  0
 14 17  1  1  0  0  0
 14 16  1  0  0  0  0
 14 22  1  0  0  0  0
 15 18  1  0  0  0  0
 15 11  2  0  0  0  0
 16 21  1  0  0  0  0
 18  2  2  0  0  0  0
 19  3  1  6  0  0  0
 19 23  1  0  0  0  0
 19 22  1  0  0  0  0
 21  4  1  0  0  0  0
 22  6  1  1  0  0  0
 23 20  1  6  0  0  0
 23 22  1  0  0  0  0
 23  7  1  0  0  0  0
 24 27  1  0  0  0  0
 26 25  2  0  0  0  0
 27 25  1  0  0  0  0
 28 24  2  0  0  0  0
 29 26  1  0  0  0  0
 30 28  1  0  0  0  0
 30 29  2  0  0  0  0
M  END
>  <MODEL>
8

>  <REMARK>
 VINA RESULT:      -5.8      3.182      7.347
  Name = 
  1 active torsions:
  status: ('A' for Active; 'I' for Inactive)
    1  A    between atoms: C_1  and  C_14
                            x       y       z     vdW  Elec       q    Type
                         _______ _______ _______ _____ _____    ______ ____

>  <TORSDO>
F 1

$$$$
=
 OpenBabel10232408203D

 30 34  0  0  1  0  0  0  0  0999 V2000
  187.8720  176.2090  137.9850 O   0  0  0  0  0  0  0  0  0  0  0  0
  188.4960  177.9590  140.4020 C   0  0  0  0  0  3  0  0  0  0  0  0
  191.5070  176.1970  138.9780 N   0  0  0  0  0  2  0  0  0  0  0  0
  194.6260  176.2370  135.8820 N   0  0  0  0  0  0  0  0  0  0  0  0
  188.7600  177.0910  138.1200 C   0  0  0  0  0  0  0  0  0  0  0  0
  193.3490  176.1650  135.7340 C   0  0  0  0  0  3  0  0  0  0  0  0
  190.3360  176.1940  135.4690 C   0  0  0  0  0  0  0  0  0  0  0  0
  190.5960  176.8760  139.8560 C   0  0  0  0  0  0  0  0  0  0  0  0
  189.3010  177.2920  135.6240 C   0  0  2  0  0  3  0  0  0  0  0  0
  190.6310  175.8110  134.3470 O   0  0  0  0  0  0  0  0  0  0  0  0
  190.9820  177.0310  141.1900 C   0  0  0  0  0  3  0  0  0  0  0  0
  189.3190  177.3450  139.4520 C   0  0  0  0  0  0  0  0  0  0  0  0
  189.2400  177.8240  136.9870 N   0  0  0  0  0  2  0  0  0  0  0  0
  193.1880  174.4110  137.6540 C   0  0  2  0  0  3  0  0  0  0  0  0
  190.1290  177.6640  142.0940 C   0  0  0  0  0  3  0  0  0  0  0  0
  194.7030  174.3370  137.4120 C   0  0  0  0  0  2  0  0  0  0  0  0
  192.6290  173.1590  137.3950 O   0  0  0  0  0  1  0  0  0  0  0  0
  188.9150  178.1150  141.6840 N   0  0  0  0  0  0  0  0  0  0  0  0
  191.6940  176.5380  137.5710 C   0  0  1  0  0  3  0  0  0  0  0  0
  190.2740  174.5400  137.3140 F   0  0  0  0  0  0  0  0  0  0  0  0
  195.2800  175.7090  137.0620 C   0  0  0  0  0  2  0  0  0  0  0  0
  192.5070  175.4990  136.7900 C   0  0  1  0  0  0  0  0  0  0  0  0
  190.9840  175.5360  136.6610 C   0  0  1  0  0  0  0  0  0  0  0  0
  187.9380  176.9620  135.0730 C   0  0  0  0  0  0  0  0  0  0  0  0
  186.4040  175.0120  135.2990 C   0  0  0  0  0  3  0  0  0  0  0  0
  185.1930  175.5600  135.2040 C   0  0  0  0  0  3  0  0  0  0  0  0
  187.6120  175.5670  134.6220 C   0  0  0  0  0  2  0  0  0  0  0  0
  187.0910  177.9740  134.8740 C   0  0  0  0  0  3  0  0  0  0  0  0
  184.8850  176.8240  134.5090 C   0  0  0  0  0  3  0  0  0  0  0  0
  185.7080  177.8690  134.3660 C   0  0  0  0  0  3  0  0  0  0  0  0
  1  5  2  0  0  0  0
  2 18  1  0  0  0  0
  3  8  1  0  0  0  0
  4 21  1  0  0  0  0
  5 12  1  0  0  0  0
  6  4  2  0  0  0  0
  7  9  1  0  0  0  0
  7 23  1  0  0  0  0
  8 11  2  0  0  0  0
  9 24  1  1  0  0  0
  9 13  1  0  0  0  0
 10  7  2  0  0  0  0
 11 15  1  0  0  0  0
 12  8  1  0  0  0  0
 12  2  2  0  0  0  0
 13  5  1  0  0  0  0
 14 17  1  6  0  0  0
 16 14  1  0  0  0  0
 18 15  2  0  0  0  0
 19  3  1  1  0  0  0
 21 16  1  0  0  0  0
 22  6  1  6  0  0  0
 22 19  1  0  0  0  0
 22 14  1  0  0  0  0
 23 22  1  0  0  0  0
 23 20  1  1  0  0  0
 23 19  1  0  0  0  0
 26 25  2  0  0  0  0
 27 24  1  0  0  0  0
 27 25  1  0  0  0  0
 28 24  2  0  0  0  0
 29 26  1  0  0  0  0
 30 29  2  0  0  0  0
 30 28  1  0  0  0  0
M  END
>  <MODEL>
9

>  <REMARK>
 VINA RESULT:      -5.7      3.350      7.184
  Name = 
  1 active torsions:
  status: ('A' for Active; 'I' for Inactive)
    1  A    between atoms: C_1  and  C_14
                            x       y       z     vdW  Elec       q    Type
                         _______ _______ _______ _____ _____    ______ ____

>  <TORSDO>
F 1

$$$$
