=
 OpenBabel10232407553D

 26 27  0  0  1  0  0  0  0  0999 V2000
  190.0010  176.9910  139.7310 C   0  0  0  0  0  0  0  0  0  0  0  0
  188.4380  178.6850  139.7410 N   0  0  0  0  0  0  0  0  0  0  0  0
  189.0390  177.6890  140.5570 C   0  0  0  0  0  0  0  0  0  0  0  0
  190.7410  176.0330  140.0790 O   0  0  0  0  0  0  0  0  0  0  0  0
  188.7710  177.5050  141.8600 C   0  0  1  0  0  3  0  0  0  0  0  0
  189.9790  177.5290  138.4600 O   0  0  0  0  0  0  0  0  0  0  0  0
  189.0220  178.5880  138.4000 C   0  0  0  0  0  2  0  0  0  0  0  0
  188.8560  175.3710  142.9010 O   0  0  0  0  0  1  0  0  0  0  0  0
  189.5840  176.5400  142.6710 C   0  0  2  0  0  3  0  0  0  0  0  0
  189.9850  177.1780  143.9960 C   0  0  0  0  0  2  0  0  0  0  0  0
  191.2730  177.9840  143.8710 C   0  0  0  0  0  0  0  0  0  0  0  0
  191.9840  177.8820  145.0490 F   0  0  0  0  0  0  0  0  0  0  0  0
  190.9790  179.3160  143.6370 F   0  0  0  0  0  0  0  0  0  0  0  0
  192.0460  177.4930  142.8360 F   0  0  0  0  0  0  0  0  0  0  0  0
  187.8060  178.3220  142.5400 N   0  0  0  0  0  2  0  0  0  0  0  0
  186.5830  178.1160  144.6840 C   0  0  0  0  0  2  0  0  0  0  0  0
  185.1500  178.1710  145.2070 C   0  0  0  0  0  2  0  0  0  0  0  0
  186.5920  177.8210  143.1830 C   0  0  0  0  0  3  0  0  0  0  0  0
  184.3590  179.2430  144.5720 N   0  0  0  0  0  0  0  0  0  0  0  0
  184.7400  179.5240  143.1760 C   0  0  0  0  0  2  0  0  0  0  0  0
  185.3280  178.3060  142.4630 C   0  0  0  0  0  2  0  0  0  0  0  0
  182.9720  178.7950  144.5580 C   0  0  0  0  0  2  0  0  0  0  0  0
  182.2890  179.3500  143.4380 O   0  0  0  0  0  0  0  0  0  0  0  0
  181.0000  178.9540  143.0670 C   0  0  0  0  0  0  0  0  0  0  0  0
  180.6590  179.0150  141.8560 O   0  0  0  0  0  0  0  0  0  0  0  0
  180.0090  178.4690  144.0740 C   0  0  0  0  0  1  0  0  0  0  0  0
  1  4  2  0  0  0  0
  1  3  1  0  0  0  0
  2  3  2  0  0  0  0
  3  5  1  0  0  0  0
  5 15  1  1  0  0  0
  5  9  1  0  0  0  0
  6  1  1  0  0  0  0
  7  6  1  0  0  0  0
  7  2  1  0  0  0  0
  9  8  1  1  0  0  0
  9 10  1  0  0  0  0
 11 10  1  0  0  0  0
 11 12  1  0  0  0  0
 13 11  1  0  0  0  0
 14 11  1  0  0  0  0
 15 18  1  0  0  0  0
 16 17  1  0  0  0  0
 18 16  1  0  0  0  0
 19 17  1  0  0  0  0
 20 19  1  0  0  0  0
 21 20  1  0  0  0  0
 21 18  1  0  0  0  0
 22 19  1  0  0  0  0
 23 22  1  0  0  0  0
 24 23  1  0  0  0  0
 24 26  1  0  0  0  0
 25 24  2  0  0  0  0
M  END
>  <MODEL>
1

>  <REMARK>
 VINA RESULT:      -7.0      0.000      0.000
  Name = 
  8 active torsions:
  status: ('A' for Active; 'I' for Inactive)
    1  A    between atoms: C_3  and  C_20
    2  A    between atoms: C_4  and  N_18
    3  A    between atoms: C_4  and  O_19
    4  A    between atoms: C_7  and  O_19
    5  A    between atoms: C_10  and  C_14
    6  A    between atoms: C_10  and  C_20
    7  A    between atoms: C_14  and  N_21
    8  A    between atoms: C_16  and  N_21
                            x       y       z     vdW  Elec       q    Type
                         _______ _______ _______ _____ _____    ______ ____

>  <TORSDO>
F 8

$$$$
=
 OpenBabel10232407553D

 26 27  0  0  1  0  0  0  0  0999 V2000
  188.3210  177.9050  146.8590 C   0  0  0  0  0  0  0  0  0  0  0  0
  187.3330  177.1460  144.9190 N   0  0  0  0  0  0  0  0  0  0  0  0
  188.5890  177.4390  145.5150 C   0  0  0  0  0  0  0  0  0  0  0  0
  189.1680  178.2710  147.7150 O   0  0  0  0  0  0  0  0  0  0  0  0
  189.7790  177.2510  144.9210 C   0  0  1  0  0  3  0  0  0  0  0  0
  186.9560  177.9090  147.0700 O   0  0  0  0  0  0  0  0  0  0  0  0
  186.2840  177.4490  145.8970 C   0  0  0  0  0  2  0  0  0  0  0  0
  191.9210  178.2730  145.0070 O   0  0  0  0  0  1  0  0  0  0  0  0
  191.0490  177.4300  145.6980 C   0  0  2  0  0  3  0  0  0  0  0  0
  191.7090  176.0770  145.9420 C   0  0  0  0  0  2  0  0  0  0  0  0
  192.0280  175.8590  147.4160 C   0  0  0  0  0  0  0  0  0  0  0  0
  191.2130  174.8620  147.9100 F   0  0  0  0  0  0  0  0  0  0  0  0
  191.7980  177.0230  148.1300 F   0  0  0  0  0  0  0  0  0  0  0  0
  193.3470  175.4760  147.5700 F   0  0  0  0  0  0  0  0  0  0  0  0
  189.8660  176.7380  143.5830 N   0  0  0  0  0  2  0  0  0  0  0  0
  190.7520  176.6720  141.2710 C   0  0  0  0  0  2  0  0  0  0  0  0
  190.5070  177.3390  139.9200 C   0  0  0  0  0  2  0  0  0  0  0  0
  190.1910  177.5360  142.4020 C   0  0  0  0  0  3  0  0  0  0  0  0
  189.0710  177.5150  139.6300 N   0  0  0  0  0  0  0  0  0  0  0  0
  188.2400  177.7430  140.8260 C   0  0  0  0  0  2  0  0  0  0  0  0
  189.0100  178.4110  141.9670 C   0  0  0  0  0  2  0  0  0  0  0  0
  188.9500  178.6990  138.7900 C   0  0  0  0  0  2  0  0  0  0  0  0
  188.2830  178.3720  137.5740 O   0  0  0  0  0  0  0  0  0  0  0  0
  186.9120  178.1050  137.5130 C   0  0  0  0  0  0  0  0  0  0  0  0
  186.1090  178.8520  138.1330 O   0  0  0  0  0  0  0  0  0  0  0  0
  186.3730  176.9480  136.7360 C   0  0  0  0  0  1  0  0  0  0  0  0
  1  6  1  0  0  0  0
  1  4  2  0  0  0  0
  2  3  2  0  0  0  0
  2  7  1  0  0  0  0
  3  1  1  0  0  0  0
  5 15  1  1  0  0  0
  5  3  1  0  0  0  0
  5  9  1  0  0  0  0
  7  6  1  0  0  0  0
  9  8  1  6  0  0  0
  9 10  1  0  0  0  0
 10 11  1  0  0  0  0
 11 14  1  0  0  0  0
 11 12  1  0  0  0  0
 11 13  1  0  0  0  0
 16 18  1  0  0  0  0
 17 16  1  0  0  0  0
 18 15  1  0  0  0  0
 19 17  1  0  0  0  0
 19 20  1  0  0  0  0
 20 21  1  0  0  0  0
 21 18  1  0  0  0  0
 22 19  1  0  0  0  0
 23 22  1  0  0  0  0
 24 23  1  0  0  0  0
 24 25  2  0  0  0  0
 26 24  1  0  0  0  0
M  END
>  <MODEL>
2

>  <REMARK>
 VINA RESULT:      -7.0      3.690      6.226
  Name = 
  8 active torsions:
  status: ('A' for Active; 'I' for Inactive)
    1  A    between atoms: C_3  and  C_20
    2  A    between atoms: C_4  and  N_18
    3  A    between atoms: C_4  and  O_19
    4  A    between atoms: C_7  and  O_19
    5  A    between atoms: C_10  and  C_14
    6  A    between atoms: C_10  and  C_20
    7  A    between atoms: C_14  and  N_21
    8  A    between atoms: C_16  and  N_21
                            x       y       z     vdW  Elec       q    Type
                         _______ _______ _______ _____ _____    ______ ____

>  <TORSDO>
F 8

$$$$
=
 OpenBabel10232407553D

 26 27  0  0  1  0  0  0  0  0999 V2000
  189.7040  177.4450  147.4030 C   0  0  0  0  0  0  0  0  0  0  0  0
  190.7720  176.5950  145.5450 N   0  0  0  0  0  0  0  0  0  0  0  0
  189.5220  177.0800  146.0150 C   0  0  0  0  0  0  0  0  0  0  0  0
  188.8330  177.9130  148.1830 O   0  0  0  0  0  0  0  0  0  0  0  0
  188.4190  177.2090  145.2590 C   0  0  0  0  0  0  0  0  0  0  0  0
  191.0090  177.1810  147.7710 O   0  0  0  0  0  0  0  0  0  0  0  0
  191.7260  176.6460  146.6570 C   0  0  0  0  0  3  0  0  0  0  0  0
  186.5480  177.0540  146.7130 O   0  0  0  0  0  1  0  0  0  0  0  0
  187.2010  177.8900  145.8060 C   0  0  2  0  0  3  0  0  0  0  0  0
  186.2580  178.2700  144.6690 C   0  0  0  0  0  2  0  0  0  0  0  0
  185.1580  179.2150  145.1370 C   0  0  0  0  0  0  0  0  0  0  0  0
  185.6000  179.9080  146.2440 F   0  0  0  0  0  0  0  0  0  0  0  0
  184.0260  178.4950  145.4780 F   0  0  0  0  0  0  0  0  0  0  0  0
  184.8450  180.1180  144.1380 F   0  0  0  0  0  0  0  0  0  0  0  0
  188.4240  176.8310  143.8730 N   0  0  0  0  0  2  0  0  0  0  0  0
  190.0030  176.2060  142.0710 C   0  0  0  0  0  2  0  0  0  0  0  0
  190.4540  176.7110  140.7020 C   0  0  0  0  0  2  0  0  0  0  0  0
  189.3610  177.3400  142.8720 C   0  0  0  0  0  3  0  0  0  0  0  0
  189.3290  177.2060  139.8860 N   0  0  0  0  0  0  0  0  0  0  0  0
  188.2380  177.8110  140.6700 C   0  0  0  0  0  2  0  0  0  0  0  0
  188.7190  178.4170  141.9900 C   0  0  0  0  0  2  0  0  0  0  0  0
  189.8620  178.2470  139.0160 C   0  0  0  0  0  2  0  0  0  0  0  0
  188.7970  178.9820  138.4210 O   0  0  0  0  0  0  0  0  0  0  0  0
  188.3390  178.7320  137.1240 C   0  0  0  0  0  0  0  0  0  0  0  0
  187.2300  179.2050  136.7580 O   0  0  0  0  0  0  0  0  0  0  0  0
  189.1290  177.9100  136.1580 C   0  0  0  0  0  1  0  0  0  0  0  0
  1  6  1  0  0  0  0
  1  4  2  0  0  0  0
  2  3  1  0  0  0  0
  2  7  2  0  0  0  0
  3  1  1  0  0  0  0
  5  9  1  0  0  0  0
  5  3  2  0  0  0  0
  7  6  1  0  0  0  0
  9  8  1  1  0  0  0
 10 11  1  0  0  0  0
 10  9  1  0  0  0  0
 11 13  1  0  0  0  0
 11 12  1  0  0  0  0
 14 11  1  0  0  0  0
 15  5  1  0  0  0  0
 16 18  1  0  0  0  0
 17 16  1  0  0  0  0
 18 15  1  0  0  0  0
 19 20  1  0  0  0  0
 19 17  1  0  0  0  0
 20 21  1  0  0  0  0
 21 18  1  0  0  0  0
 22 19  1  0  0  0  0
 23 22  1  0  0  0  0
 24 23  1  0  0  0  0
 25 24  2  0  0  0  0
 26 24  1  0  0  0  0
M  END
>  <MODEL>
3

>  <REMARK>
 VINA RESULT:      -6.8      3.870      6.961
  Name = 
  8 active torsions:
  status: ('A' for Active; 'I' for Inactive)
    1  A    between atoms: C_3  and  C_20
    2  A    between atoms: C_4  and  N_18
    3  A    between atoms: C_4  and  O_19
    4  A    between atoms: C_7  and  O_19
    5  A    between atoms: C_10  and  C_14
    6  A    between atoms: C_10  and  C_20
    7  A    between atoms: C_14  and  N_21
    8  A    between atoms: C_16  and  N_21
                            x       y       z     vdW  Elec       q    Type
                         _______ _______ _______ _____ _____    ______ ____

>  <TORSDO>
F 8

$$$$
=
 OpenBabel10232407553D

 26 27  0  0  1  0  0  0  0  0999 V2000
  185.1600  179.0720  145.6680 C   0  0  0  0  0  0  0  0  0  0  0  0
  184.8340  178.1210  143.5930 N   0  0  0  0  0  0  0  0  0  0  0  0
  185.8240  178.3940  144.5750 C   0  0  0  0  0  0  0  0  0  0  0  0
  185.6880  179.4880  146.7320 O   0  0  0  0  0  0  0  0  0  0  0  0
  187.1110  178.0230  144.4860 C   0  0  1  0  0  3  0  0  0  0  0  0
  183.8210  179.2200  145.3590 O   0  0  0  0  0  0  0  0  0  0  0  0
  183.5550  178.6500  144.0770 C   0  0  0  0  0  2  0  0  0  0  0  0
  189.3550  178.3180  145.2090 O   0  0  0  0  0  1  0  0  0  0  0  0
  188.0350  178.2080  145.6520 C   0  0  2  0  0  3  0  0  0  0  0  0
  187.9010  177.0360  146.6180 C   0  0  0  0  0  2  0  0  0  0  0  0
  188.4730  177.3640  147.9920 C   0  0  0  0  0  0  0  0  0  0  0  0
  189.8200  177.0690  148.0010 F   0  0  0  0  0  0  0  0  0  0  0  0
  187.8400  176.6070  148.9630 F   0  0  0  0  0  0  0  0  0  0  0  0
  188.3060  178.7070  148.2720 F   0  0  0  0  0  0  0  0  0  0  0  0
  187.5990  177.3140  143.3360 N   0  0  0  0  0  2  0  0  0  0  0  0
  189.3360  176.7430  141.6650 C   0  0  0  0  0  2  0  0  0  0  0  0
  189.8250  177.2160  140.2990 C   0  0  0  0  0  2  0  0  0  0  0  0
  188.5490  177.8530  142.3630 C   0  0  0  0  0  3  0  0  0  0  0  0
  188.7140  177.5650  139.3920 N   0  0  0  0  0  0  0  0  0  0  0  0
  187.5280  178.1080  140.0780 C   0  0  0  0  0  2  0  0  0  0  0  0
  187.8710  178.8210  141.3870 C   0  0  0  0  0  2  0  0  0  0  0  0
  189.2080  178.6050  138.4980 C   0  0  0  0  0  2  0  0  0  0  0  0
  188.1900  178.9820  137.5750 O   0  0  0  0  0  0  0  0  0  0  0  0
  187.8500  178.2030  136.4650 C   0  0  0  0  0  0  0  0  0  0  0  0
  188.7280  177.9430  135.6000 O   0  0  0  0  0  0  0  0  0  0  0  0
  186.4660  177.6760  136.2720 C   0  0  0  0  0  1  0  0  0  0  0  0
  1  4  2  0  0  0  0
  2  7  1  0  0  0  0
  2  3  2  0  0  0  0
  3  1  1  0  0  0  0
  5 15  1  1  0  0  0
  5  3  1  0  0  0  0
  5  9  1  0  0  0  0
  6  1  1  0  0  0  0
  7  6  1  0  0  0  0
  9  8  1  6  0  0  0
  9 10  1  0  0  0  0
 10 11  1  0  0  0  0
 11 12  1  0  0  0  0
 11 14  1  0  0  0  0
 11 13  1  0  0  0  0
 16 18  1  0  0  0  0
 17 16  1  0  0  0  0
 18 15  1  0  0  0  0
 19 20  1  0  0  0  0
 19 17  1  0  0  0  0
 20 21  1  0  0  0  0
 21 18  1  0  0  0  0
 22 19  1  0  0  0  0
 23 22  1  0  0  0  0
 24 23  1  0  0  0  0
 25 24  2  0  0  0  0
 26 24  1  0  0  0  0
M  END
>  <MODEL>
4

>  <REMARK>
 VINA RESULT:      -6.6      2.750      6.569
  Name = 
  8 active torsions:
  status: ('A' for Active; 'I' for Inactive)
    1  A    between atoms: C_3  and  C_20
    2  A    between atoms: C_4  and  N_18
    3  A    between atoms: C_4  and  O_19
    4  A    between atoms: C_7  and  O_19
    5  A    between atoms: C_10  and  C_14
    6  A    between atoms: C_10  and  C_20
    7  A    between atoms: C_14  and  N_21
    8  A    between atoms: C_16  and  N_21
                            x       y       z     vdW  Elec       q    Type
                         _______ _______ _______ _____ _____    ______ ____

>  <TORSDO>
F 8

$$$$
=
 OpenBabel10232407553D

 26 27  0  0  1  0  0  0  0  0999 V2000
  189.6100  176.5430  147.0230 C   0  0  0  0  0  0  0  0  0  0  0  0
  191.0150  177.2410  145.3340 N   0  0  0  0  0  0  0  0  0  0  0  0
  189.6470  177.0770  145.6790 C   0  0  0  0  0  0  0  0  0  0  0  0
  188.5850  176.2520  147.6940 O   0  0  0  0  0  0  0  0  0  0  0  0
  188.6150  177.4180  144.8900 C   0  0  0  0  0  0  0  0  0  0  0  0
  190.9040  176.3760  147.4770 O   0  0  0  0  0  0  0  0  0  0  0  0
  191.8270  176.7900  146.4690 C   0  0  0  0  0  3  0  0  0  0  0  0
  186.3680  176.7670  144.4750 O   0  0  0  0  0  1  0  0  0  0  0  0
  187.2110  177.3630  145.4150 C   0  0  2  0  0  3  0  0  0  0  0  0
  186.7190  178.7690  145.7440 C   0  0  0  0  0  2  0  0  0  0  0  0
  186.0290  178.8250  147.1020 C   0  0  0  0  0  0  0  0  0  0  0  0
  186.7380  178.0560  148.0000 F   0  0  0  0  0  0  0  0  0  0  0  0
  184.7410  178.3270  147.0010 F   0  0  0  0  0  0  0  0  0  0  0  0
  185.9850  180.1280  147.5630 F   0  0  0  0  0  0  0  0  0  0  0  0
  188.8330  177.9770  143.5860 N   0  0  0  0  0  2  0  0  0  0  0  0
  188.2750  178.0140  141.1730 C   0  0  0  0  0  2  0  0  0  0  0  0
  188.8390  177.5060  139.8490 C   0  0  0  0  0  2  0  0  0  0  0  0
  188.8500  177.2110  142.3400 C   0  0  0  0  0  3  0  0  0  0  0  0
  190.3040  177.6530  139.7660 N   0  0  0  0  0  0  0  0  0  0  0  0
  190.9950  177.5220  141.0620 C   0  0  0  0  0  2  0  0  0  0  0  0
  190.2400  176.6320  142.0510 C   0  0  0  0  0  2  0  0  0  0  0  0
  190.7910  176.5790  138.9090 C   0  0  0  0  0  2  0  0  0  0  0  0
  192.2150  176.5410  138.9310 O   0  0  0  0  0  0  0  0  0  0  0  0
  192.9740  176.0430  137.8670 C   0  0  0  0  0  0  0  0  0  0  0  0
  193.8540  176.7740  137.3410 O   0  0  0  0  0  0  0  0  0  0  0  0
  192.7610  174.6650  137.3310 C   0  0  0  0  0  1  0  0  0  0  0  0
  1  6  1  0  0  0  0
  1  4  2  0  0  0  0
  2  3  1  0  0  0  0
  2  7  2  0  0  0  0
  3  1  1  0  0  0  0
  5  9  1  0  0  0  0
  5  3  2  0  0  0  0
  7  6  1  0  0  0  0
  9  8  1  6  0  0  0
  9 10  1  0  0  0  0
 10 11  1  0  0  0  0
 11 14  1  0  0  0  0
 11 12  1  0  0  0  0
 13 11  1  0  0  0  0
 15  5  1  0  0  0  0
 16 18  1  0  0  0  0
 17 16  1  0  0  0  0
 18 15  1  0  0  0  0
 19 17  1  0  0  0  0
 19 20  1  0  0  0  0
 20 21  1  0  0  0  0
 21 18  1  0  0  0  0
 22 23  1  0  0  0  0
 22 19  1  0  0  0  0
 24 23  1  0  0  0  0
 25 24  2  0  0  0  0
 26 24  1  0  0  0  0
M  END
>  <MODEL>
5

>  <REMARK>
 VINA RESULT:      -6.5      3.907      7.876
  Name = 
  8 active torsions:
  status: ('A' for Active; 'I' for Inactive)
    1  A    between atoms: C_3  and  C_20
    2  A    between atoms: C_4  and  N_18
    3  A    between atoms: C_4  and  O_19
    4  A    between atoms: C_7  and  O_19
    5  A    between atoms: C_10  and  C_14
    6  A    between atoms: C_10  and  C_20
    7  A    between atoms: C_14  and  N_21
    8  A    between atoms: C_16  and  N_21
                            x       y       z     vdW  Elec       q    Type
                         _______ _______ _______ _____ _____    ______ ____

>  <TORSDO>
F 8

$$$$
=
 OpenBabel10232407553D

 26 27  0  0  1  0  0  0  0  0999 V2000
  185.0770  179.0420  145.7340 C   0  0  0  0  0  0  0  0  0  0  0  0
  184.6610  178.2170  143.6220 N   0  0  0  0  0  0  0  0  0  0  0  0
  185.6900  178.4210  144.5800 C   0  0  0  0  0  0  0  0  0  0  0  0
  185.6510  179.3890  146.8000 O   0  0  0  0  0  0  0  0  0  0  0  0
  186.9680  178.0410  144.4200 C   0  0  1  0  0  3  0  0  0  0  0  0
  183.7300  179.2220  145.4870 O   0  0  0  0  0  0  0  0  0  0  0  0
  183.4080  178.7310  144.1850 C   0  0  0  0  0  2  0  0  0  0  0  0
  189.2180  178.4300  145.0770 O   0  0  0  0  0  1  0  0  0  0  0  0
  187.9380  178.1480  145.5590 C   0  0  2  0  0  3  0  0  0  0  0  0
  187.9520  176.8500  146.3590 C   0  0  0  0  0  2  0  0  0  0  0  0
  188.6630  177.0150  147.6960 C   0  0  0  0  0  0  0  0  0  0  0  0
  187.9900  176.2880  148.6560 F   0  0  0  0  0  0  0  0  0  0  0  0
  188.6740  178.3480  148.0670 F   0  0  0  0  0  0  0  0  0  0  0  0
  189.9610  176.5490  147.6090 F   0  0  0  0  0  0  0  0  0  0  0  0
  187.4030  177.3950  143.2130 N   0  0  0  0  0  2  0  0  0  0  0  0
  189.5230  176.4340  142.3680 C   0  0  0  0  0  2  0  0  0  0  0  0
  190.4590  176.5740  141.1700 C   0  0  0  0  0  2  0  0  0  0  0  0
  188.6550  177.6840  142.5150 C   0  0  0  0  0  3  0  0  0  0  0  0
  189.7280  176.7190  139.8970 N   0  0  0  0  0  0  0  0  0  0  0  0
  188.4370  177.4190  140.0220 C   0  0  0  0  0  2  0  0  0  0  0  0
  188.4080  178.4100  141.1870 C   0  0  0  0  0  2  0  0  0  0  0  0
  190.5680  177.5190  139.0140 C   0  0  0  0  0  2  0  0  0  0  0  0
  191.9250  177.0980  139.1140 O   0  0  0  0  0  0  0  0  0  0  0  0
  192.5390  176.2930  138.1490 C   0  0  0  0  0  0  0  0  0  0  0  0
  193.7760  176.4140  137.9410 O   0  0  0  0  0  0  0  0  0  0  0  0
  191.7640  175.2970  137.3500 C   0  0  0  0  0  1  0  0  0  0  0  0
  1  4  2  0  0  0  0
  2  7  1  0  0  0  0
  2  3  2  0  0  0  0
  3  1  1  0  0  0  0
  5 15  1  1  0  0  0
  5  3  1  0  0  0  0
  5  9  1  0  0  0  0
  6  1  1  0  0  0  0
  7  6  1  0  0  0  0
  9  8  1  6  0  0  0
  9 10  1  0  0  0  0
 10 11  1  0  0  0  0
 11 13  1  0  0  0  0
 11 12  1  0  0  0  0
 14 11  1  0  0  0  0
 16 18  1  0  0  0  0
 17 16  1  0  0  0  0
 18 15  1  0  0  0  0
 19 20  1  0  0  0  0
 19 17  1  0  0  0  0
 20 21  1  0  0  0  0
 21 18  1  0  0  0  0
 22 23  1  0  0  0  0
 22 19  1  0  0  0  0
 24 23  1  0  0  0  0
 25 24  2  0  0  0  0
 26 24  1  0  0  0  0
M  END
>  <MODEL>
6

>  <REMARK>
 VINA RESULT:      -6.4      2.681      7.445
  Name = 
  8 active torsions:
  status: ('A' for Active; 'I' for Inactive)
    1  A    between atoms: C_3  and  C_20
    2  A    between atoms: C_4  and  N_18
    3  A    between atoms: C_4  and  O_19
    4  A    between atoms: C_7  and  O_19
    5  A    between atoms: C_10  and  C_14
    6  A    between atoms: C_10  and  C_20
    7  A    between atoms: C_14  and  N_21
    8  A    between atoms: C_16  and  N_21
                            x       y       z     vdW  Elec       q    Type
                         _______ _______ _______ _____ _____    ______ ____

>  <TORSDO>
F 8

$$$$
=
 OpenBabel10232407553D

 26 27  0  0  1  0  0  0  0  0999 V2000
  190.3770  176.2330  136.1800 C   0  0  0  0  0  0  0  0  0  0  0  0
  190.6970  175.1000  138.1610 N   0  0  0  0  0  0  0  0  0  0  0  0
  190.0570  176.2320  137.5910 C   0  0  0  0  0  0  0  0  0  0  0  0
  190.0050  177.0750  135.3200 O   0  0  0  0  0  0  0  0  0  0  0  0
  189.2670  177.0830  138.2660 C   0  0  1  0  0  3  0  0  0  0  0  0
  191.1910  175.1520  135.9010 O   0  0  0  0  0  0  0  0  0  0  0  0
  191.4300  174.4070  137.0970 C   0  0  0  0  0  2  0  0  0  0  0  0
  188.9810  179.4110  137.8850 O   0  0  0  0  0  1  0  0  0  0  0  0
  188.5020  178.1470  137.5350 C   0  0  2  0  0  3  0  0  0  0  0  0
  187.0160  178.0390  137.8600 C   0  0  0  0  0  2  0  0  0  0  0  0
  186.2490  177.3010  136.7700 C   0  0  0  0  0  0  0  0  0  0  0  0
  186.7410  177.6790  135.5380 F   0  0  0  0  0  0  0  0  0  0  0  0
  184.9040  177.6210  136.8350 F   0  0  0  0  0  0  0  0  0  0  0  0
  186.4050  175.9350  136.9160 F   0  0  0  0  0  0  0  0  0  0  0  0
  189.0220  176.9110  139.6700 N   0  0  0  0  0  2  0  0  0  0  0  0
  188.7020  178.0980  141.8200 C   0  0  0  0  0  2  0  0  0  0  0  0
  189.4310  178.3060  143.1450 C   0  0  0  0  0  2  0  0  0  0  0  0
  189.6870  177.6640  140.7330 C   0  0  0  0  0  3  0  0  0  0  0  0
  190.0670  177.0690  143.6370 N   0  0  0  0  0  0  0  0  0  0  0  0
  190.5380  176.1690  142.5690 C   0  0  0  0  0  2  0  0  0  0  0  0
  190.9040  176.9130  141.2830 C   0  0  0  0  0  2  0  0  0  0  0  0
  191.2380  177.4730  144.4070 C   0  0  0  0  0  2  0  0  0  0  0  0
  191.6050  176.4420  145.3190 O   0  0  0  0  0  0  0  0  0  0  0  0
  191.3860  176.5380  146.6960 C   0  0  0  0  0  0  0  0  0  0  0  0
  192.3340  176.2980  147.4910 O   0  0  0  0  0  0  0  0  0  0  0  0
  190.0510  176.9110  147.2540 C   0  0  0  0  0  1  0  0  0  0  0  0
  1  3  1  0  0  0  0
  3  2  2  0  0  0  0
  3  5  1  0  0  0  0
  4  1  2  0  0  0  0
  5 15  1  6  0  0  0
  6  1  1  0  0  0  0
  6  7  1  0  0  0  0
  7  2  1  0  0  0  0
  9 10  1  0  0  0  0
  9  8  1  1  0  0  0
  9  5  1  0  0  0  0
 11 13  1  0  0  0  0
 11 14  1  0  0  0  0
 11 10  1  0  0  0  0
 12 11  1  0  0  0  0
 15 18  1  0  0  0  0
 16 17  1  0  0  0  0
 17 19  1  0  0  0  0
 18 21  1  0  0  0  0
 18 16  1  0  0  0  0
 19 22  1  0  0  0  0
 20 19  1  0  0  0  0
 21 20  1  0  0  0  0
 22 23  1  0  0  0  0
 23 24  1  0  0  0  0
 24 26  1  0  0  0  0
 24 25  2  0  0  0  0
M  END
>  <MODEL>
7

>  <REMARK>
 VINA RESULT:      -6.2      5.397      7.220
  Name = 
  8 active torsions:
  status: ('A' for Active; 'I' for Inactive)
    1  A    between atoms: C_3  and  C_20
    2  A    between atoms: C_4  and  N_18
    3  A    between atoms: C_4  and  O_19
    4  A    between atoms: C_7  and  O_19
    5  A    between atoms: C_10  and  C_14
    6  A    between atoms: C_10  and  C_20
    7  A    between atoms: C_14  and  N_21
    8  A    between atoms: C_16  and  N_21
                            x       y       z     vdW  Elec       q    Type
                         _______ _______ _______ _____ _____    ______ ____

>  <TORSDO>
F 8

$$$$
=
 OpenBabel10232407553D

 26 27  0  0  1  0  0  0  0  0999 V2000
  187.9780  176.9100  136.8420 C   0  0  0  0  0  0  0  0  0  0  0  0
  187.7260  178.2780  138.6800 N   0  0  0  0  0  0  0  0  0  0  0  0
  188.6040  177.3410  138.0730 C   0  0  0  0  0  0  0  0  0  0  0  0
  188.4330  176.0790  136.0130 O   0  0  0  0  0  0  0  0  0  0  0  0
  189.8060  176.9920  138.5630 C   0  0  0  0  0  0  0  0  0  0  0  0
  186.7610  177.5480  136.7080 O   0  0  0  0  0  0  0  0  0  0  0  0
  186.5430  178.4130  137.8240 C   0  0  0  0  0  3  0  0  0  0  0  0
  190.5520  174.7840  138.1060 O   0  0  0  0  0  1  0  0  0  0  0  0
  190.7280  176.1250  137.7590 C   0  0  2  0  0  3  0  0  0  0  0  0
  192.1760  176.5430  137.9920 C   0  0  0  0  0  2  0  0  0  0  0  0
  193.1070  175.9840  136.9220 C   0  0  0  0  0  0  0  0  0  0  0  0
  192.3720  175.6970  135.7910 F   0  0  0  0  0  0  0  0  0  0  0  0
  193.7080  174.8230  137.3750 F   0  0  0  0  0  0  0  0  0  0  0  0
  194.0790  176.9130  136.6020 F   0  0  0  0  0  0  0  0  0  0  0  0
  190.2950  177.5520  139.7910 N   0  0  0  0  0  2  0  0  0  0  0  0
  191.4890  177.3230  141.9490 C   0  0  0  0  0  2  0  0  0  0  0  0
  191.1750  177.0860  143.4240 C   0  0  0  0  0  2  0  0  0  0  0  0
  190.3270  176.8510  141.0740 C   0  0  0  0  0  3  0  0  0  0  0  0
  189.9890  177.8380  143.8760 N   0  0  0  0  0  0  0  0  0  0  0  0
  188.9640  178.0250  142.8330 C   0  0  0  0  0  2  0  0  0  0  0  0
  188.9700  176.9100  141.7860 C   0  0  0  0  0  2  0  0  0  0  0  0
  189.3770  177.0610  144.9460 C   0  0  0  0  0  2  0  0  0  0  0  0
  189.0710  177.9050  146.0520 O   0  0  0  0  0  0  0  0  0  0  0  0
  189.4290  177.5890  147.3660 C   0  0  0  0  0  0  0  0  0  0  0  0
  190.4590  176.8960  147.5760 O   0  0  0  0  0  0  0  0  0  0  0  0
  188.6140  178.0460  148.5320 C   0  0  0  0  0  1  0  0  0  0  0  0
  1  3  1  0  0  0  0
  3  5  2  0  0  0  0
  3  2  1  0  0  0  0
  4  1  2  0  0  0  0
  5 15  1  0  0  0  0
  6  1  1  0  0  0  0
  6  7  1  0  0  0  0
  7  2  2  0  0  0  0
  9 10  1  0  0  0  0
  9  8  1  1  0  0  0
  9  5  1  0  0  0  0
 11 13  1  0  0  0  0
 11 10  1  0  0  0  0
 12 11  1  0  0  0  0
 14 11  1  0  0  0  0
 15 18  1  0  0  0  0
 16 17  1  0  0  0  0
 17 19  1  0  0  0  0
 18 21  1  0  0  0  0
 18 16  1  0  0  0  0
 19 22  1  0  0  0  0
 20 19  1  0  0  0  0
 21 20  1  0  0  0  0
 22 23  1  0  0  0  0
 23 24  1  0  0  0  0
 24 25  2  0  0  0  0
 24 26  1  0  0  0  0
M  END
>  <MODEL>
8

>  <REMARK>
 VINA RESULT:      -6.2      4.906      6.259
  Name = 
  8 active torsions:
  status: ('A' for Active; 'I' for Inactive)
    1  A    between atoms: C_3  and  C_20
    2  A    between atoms: C_4  and  N_18
    3  A    between atoms: C_4  and  O_19
    4  A    between atoms: C_7  and  O_19
    5  A    between atoms: C_10  and  C_14
    6  A    between atoms: C_10  and  C_20
    7  A    between atoms: C_14  and  N_21
    8  A    between atoms: C_16  and  N_21
                            x       y       z     vdW  Elec       q    Type
                         _______ _______ _______ _____ _____    ______ ____

>  <TORSDO>
F 8

$$$$
=
 OpenBabel10232407553D

 26 27  0  0  1  0  0  0  0  0999 V2000
  188.1950  177.6150  146.5940 C   0  0  0  0  0  0  0  0  0  0  0  0
  187.2500  177.9670  144.5210 N   0  0  0  0  0  0  0  0  0  0  0  0
  188.4910  177.9140  145.2100 C   0  0  0  0  0  0  0  0  0  0  0  0
  189.0230  177.4880  147.5340 O   0  0  0  0  0  0  0  0  0  0  0  0
  189.6930  178.0680  144.6300 C   0  0  1  0  0  3  0  0  0  0  0  0
  186.8270  177.5010  146.7480 O   0  0  0  0  0  0  0  0  0  0  0  0
  186.1810  177.7130  145.4920 C   0  0  0  0  0  2  0  0  0  0  0  0
  191.9930  178.5950  144.9020 O   0  0  0  0  0  1  0  0  0  0  0  0
  190.9480  177.8250  145.4150 C   0  0  2  0  0  3  0  0  0  0  0  0
  191.3150  176.3450  145.3700 C   0  0  0  0  0  2  0  0  0  0  0  0
  191.7950  175.8390  146.7250 C   0  0  0  0  0  0  0  0  0  0  0  0
  192.8500  174.9710  146.5340 F   0  0  0  0  0  0  0  0  0  0  0  0
  190.7710  175.1670  147.3710 F   0  0  0  0  0  0  0  0  0  0  0  0
  192.2200  176.8960  147.5080 F   0  0  0  0  0  0  0  0  0  0  0  0
  189.8090  178.3240  143.2220 N   0  0  0  0  0  2  0  0  0  0  0  0
  188.5490  178.1970  141.0940 C   0  0  0  0  0  2  0  0  0  0  0  0
  188.5930  177.4410  139.7680 C   0  0  0  0  0  2  0  0  0  0  0  0
  189.3240  177.4330  142.1680 C   0  0  0  0  0  3  0  0  0  0  0  0
  189.9670  177.2860  139.2530 N   0  0  0  0  0  0  0  0  0  0  0  0
  190.9930  177.1690  140.3040 C   0  0  0  0  0  2  0  0  0  0  0  0
  190.4510  176.5630  141.6000 C   0  0  0  0  0  2  0  0  0  0  0  0
  189.9950  176.0480  138.4840 C   0  0  0  0  0  2  0  0  0  0  0  0
  191.2690  175.4240  138.6060 O   0  0  0  0  0  0  0  0  0  0  0  0
  191.9700  174.9160  137.5070 C   0  0  0  0  0  0  0  0  0  0  0  0
  191.6230  173.8120  137.0100 O   0  0  0  0  0  0  0  0  0  0  0  0
  193.1290  175.6460  136.9120 C   0  0  0  0  0  1  0  0  0  0  0  0
  1  6  1  0  0  0  0
  1  4  2  0  0  0  0
  2  3  2  0  0  0  0
  2  7  1  0  0  0  0
  3  1  1  0  0  0  0
  5 15  1  6  0  0  0
  5  3  1  0  0  0  0
  5  9  1  0  0  0  0
  7  6  1  0  0  0  0
  9  8  1  6  0  0  0
 10  9  1  0  0  0  0
 10 11  1  0  0  0  0
 11 13  1  0  0  0  0
 11 14  1  0  0  0  0
 12 11  1  0  0  0  0
 16 18  1  0  0  0  0
 17 16  1  0  0  0  0
 18 15  1  0  0  0  0
 19 17  1  0  0  0  0
 19 20  1  0  0  0  0
 20 21  1  0  0  0  0
 21 18  1  0  0  0  0
 22 23  1  0  0  0  0
 22 19  1  0  0  0  0
 24 23  1  0  0  0  0
 25 24  2  0  0  0  0
 26 24  1  0  0  0  0
M  END
>  <MODEL>
9

>  <REMARK>
 VINA RESULT:      -6.1      3.549      7.399
  Name = 
  8 active torsions:
  status: ('A' for Active; 'I' for Inactive)
    1  A    between atoms: C_3  and  C_20
    2  A    between atoms: C_4  and  N_18
    3  A    between atoms: C_4  and  O_19
    4  A    between atoms: C_7  and  O_19
    5  A    between atoms: C_10  and  C_14
    6  A    between atoms: C_10  and  C_20
    7  A    between atoms: C_14  and  N_21
    8  A    between atoms: C_16  and  N_21
                            x       y       z     vdW  Elec       q    Type
                         _______ _______ _______ _____ _____    ______ ____

>  <TORSDO>
F 8

$$$$
