=
 OpenBabel10232411543D

 31 35  0  0  1  0  0  0  0  0999 V2000
  188.2160  176.9470  139.0820 N   0  0  1  0  0  0  0  0  0  0  0  0
  187.6800  177.8910  138.0820 C   0  0  1  0  0  3  0  0  0  0  0  0
  191.2140  176.5990  139.5180 C   0  0  0  0  0  3  0  0  0  0  0  0
  190.4190  176.5940  142.1210 S   0  0  0  0  0  0  0  0  0  0  0  0
  190.2680  176.9720  140.3840 C   0  0  0  0  0  0  0  0  0  0  0  0
  190.0410  177.6420  137.4490 C   0  0  0  0  0  2  0  0  0  0  0  0
  188.7040  176.9280  137.6760 C   0  0  1  0  0  3  0  0  0  0  0  0
  188.3000  177.9480  141.2700 C   0  0  0  0  0  3  0  0  0  0  0  0
  189.0410  177.7350  139.9990 C   0  0  2  0  0  3  0  0  0  0  0  0
  188.8560  177.4410  142.3650 C   0  0  0  0  0  0  0  0  0  0  0  0
  191.1630  176.8690  138.0690 C   0  0  0  0  0  0  0  0  0  0  0  0
  192.0920  176.4440  137.3350 O   0  0  0  0  0  0  0  0  0  0  0  0
  188.4150  177.6090  146.1200 C   0  0  0  0  0  3  0  0  0  0  0  0
  189.0070  177.5040  144.8580 C   0  0  0  0  0  3  0  0  0  0  0  0
  188.2220  177.5580  143.6960 C   0  0  0  0  0  0  0  0  0  0  0  0
  187.0310  177.7690  146.2330 C   0  0  0  0  0  3  0  0  0  0  0  0
  186.8310  177.7170  143.8210 C   0  0  0  0  0  3  0  0  0  0  0  0
  186.2400  177.8220  145.0830 C   0  0  0  0  0  3  0  0  0  0  0  0
  184.0280  177.7020  137.8470 O   0  0  0  0  0  0  0  0  0  0  0  0
  185.3030  179.1780  139.0390 O   0  0  0  0  0  1  0  0  0  0  0  0
  186.3520  177.4510  137.6460 N   0  0  0  0  0  0  0  0  0  0  0  0
  185.1790  178.1030  138.1650 C   0  0  0  0  0  0  0  0  0  0  0  0
  186.0530  175.0330  137.3580 C   0  0  0  0  0  3  0  0  0  0  0  0
  186.2400  176.4140  135.3850 C   0  0  0  0  0  0  0  0  0  0  0  0
  185.9050  174.0700  135.1560 C   0  0  0  0  0  0  0  0  0  0  0  0
  186.2260  176.3000  136.7890 C   0  0  0  0  0  0  0  0  0  0  0  0
  185.8940  173.9120  136.5430 C   0  0  0  0  0  0  0  0  0  0  0  0
  186.0810  175.3040  134.6130 N   0  0  0  0  0  0  0  0  0  0  0  0
  185.7490  172.9950  134.3460 F   0  0  0  0  0  0  0  0  0  0  0  0
  185.7250  172.6870  137.0970 F   0  0  0  0  0  0  0  0  0  0  0  0
  186.4690  177.7240  134.7120 C   0  0  0  0  0  1  0  0  0  0  0  0
  1  9  1  0  0  0  0
  2  1  1  0  0  0  0
  3  5  2  0  0  0  0
  4 10  1  0  0  0  0
  5  4  1  0  0  0  0
  6  7  1  0  0  0  0
  6 11  1  0  0  0  0
  7  2  1  0  0  0  0
  7  1  1  0  0  0  0
  8 10  2  0  0  0  0
  9  5  1  0  0  0  0
  9  8  1  0  0  0  0
 10 15  1  0  0  0  0
 11  3  1  0  0  0  0
 12 11  2  0  0  0  0
 13 16  1  0  0  0  0
 14 13  2  0  0  0  0
 15 17  2  0  0  0  0
 15 14  1  0  0  0  0
 17 18  1  0  0  0  0
 18 16  2  0  0  0  0
 19 22  2  0  0  0  0
 21  2  1  0  0  0  0
 21 22  1  0  0  0  0
 22 20  1  0  0  0  0
 24 26  2  0  0  0  0
 25 27  1  0  0  0  0
 26 23  1  0  0  0  0
 26 21  1  0  0  0  0
 27 30  1  0  0  0  0
 27 23  2  0  0  0  0
 28 25  2  0  0  0  0
 28 24  1  0  0  0  0
 29 25  1  0  0  0  0
 31 24  1  0  0  0  0
M  END
>  <MODEL>
1

>  <REMARK>
 VINA RESULT:      -8.5      0.000      0.000
  Name = 
  3 active torsions:
  status: ('A' for Active; 'I' for Inactive)
    1  A    between atoms: C_2  and  N_16
    2  A    between atoms: C_11  and  N_16
    3  A    between atoms: C_21  and  C_26
                            x       y       z     vdW  Elec       q    Type
                         _______ _______ _______ _____ _____    ______ ____

>  <TORSDO>
F 3

$$$$
=
 OpenBabel10232411543D

 31 35  0  0  1  0  0  0  0  0999 V2000
  187.4470  177.2630  138.9070 N   0  0  1  0  0  0  0  0  0  0  0  0
  187.3180  178.0650  137.6740 C   0  0  1  0  0  3  0  0  0  0  0  0
  190.0900  177.0480  140.4140 C   0  0  0  0  0  3  0  0  0  0  0  0
  188.4240  177.3370  142.5470 S   0  0  0  0  0  0  0  0  0  0  0  0
  188.9050  177.4980  140.8370 C   0  0  0  0  0  0  0  0  0  0  0  0
  189.7450  177.8030  137.9530 C   0  0  0  0  0  2  0  0  0  0  0  0
  188.4020  177.0870  137.7780 C   0  0  1  0  0  3  0  0  0  0  0  0
  186.7700  178.5230  140.8440 C   0  0  0  0  0  3  0  0  0  0  0  0
  187.9090  178.1770  139.9530 C   0  0  2  0  0  3  0  0  0  0  0  0
  186.8920  178.1660  142.1180 C   0  0  0  0  0  0  0  0  0  0  0  0
  190.5600  177.1390  139.0200 C   0  0  0  0  0  0  0  0  0  0  0  0
  191.6810  176.6540  138.7190 O   0  0  0  0  0  0  0  0  0  0  0  0
  183.5320  179.0380  143.6240 C   0  0  0  0  0  3  0  0  0  0  0  0
  184.5410  178.7870  142.6900 C   0  0  0  0  0  3  0  0  0  0  0  0
  185.8300  178.4260  143.1130 C   0  0  0  0  0  0  0  0  0  0  0  0
  183.8020  178.9300  144.9910 C   0  0  0  0  0  3  0  0  0  0  0  0
  186.0900  178.3210  144.4900 C   0  0  0  0  0  3  0  0  0  0  0  0
  185.0810  178.5720  145.4230 C   0  0  0  0  0  3  0  0  0  0  0  0
  185.3080  177.3010  134.7080 O   0  0  0  0  0  0  0  0  0  0  0  0
  187.3660  178.2910  134.8160 O   0  0  0  0  0  1  0  0  0  0  0  0
  186.2230  177.5420  136.8550 N   0  0  0  0  0  0  0  0  0  0  0  0
  186.2670  177.6930  135.4250 C   0  0  0  0  0  0  0  0  0  0  0  0
  184.1320  177.8260  138.1080 C   0  0  0  0  0  3  0  0  0  0  0  0
  184.8080  175.5910  137.4860 C   0  0  0  0  0  0  0  0  0  0  0  0
  182.7670  175.9220  138.6630 C   0  0  0  0  0  0  0  0  0  0  0  0
  185.0600  176.9780  137.4910 C   0  0  0  0  0  0  0  0  0  0  0  0
  182.9830  177.3000  138.6980 C   0  0  0  0  0  0  0  0  0  0  0  0
  183.6780  175.1060  138.0680 N   0  0  0  0  0  0  0  0  0  0  0  0
  181.6560  175.3910  139.2280 F   0  0  0  0  0  0  0  0  0  0  0  0
  182.0870  178.1250  139.2920 F   0  0  0  0  0  0  0  0  0  0  0  0
  185.7760  174.6260  136.8920 C   0  0  0  0  0  1  0  0  0  0  0  0
  1  9  1  0  0  0  0
  2  7  1  0  0  0  0
  2  1  1  0  0  0  0
  3  5  2  0  0  0  0
  5  4  1  0  0  0  0
  6 11  1  0  0  0  0
  7  6  1  0  0  0  0
  7  1  1  0  0  0  0
  8 10  2  0  0  0  0
  9  5  1  0  0  0  0
  9  8  1  0  0  0  0
 10  4  1  0  0  0  0
 10 15  1  0  0  0  0
 11  3  1  0  0  0  0
 12 11  2  0  0  0  0
 13 16  1  0  0  0  0
 14 15  1  0  0  0  0
 14 13  2  0  0  0  0
 15 17  2  0  0  0  0
 16 18  2  0  0  0  0
 17 18  1  0  0  0  0
 19 22  2  0  0  0  0
 20 22  1  0  0  0  0
 21 26  1  0  0  0  0
 21  2  1  0  0  0  0
 22 21  1  0  0  0  0
 23 27  1  0  0  0  0
 24 26  1  0  0  0  0
 24 28  2  0  0  0  0
 25 27  2  0  0  0  0
 25 29  1  0  0  0  0
 26 23  2  0  0  0  0
 27 30  1  0  0  0  0
 28 25  1  0  0  0  0
 31 24  1  0  0  0  0
M  END
>  <MODEL>
2

>  <REMARK>
 VINA RESULT:      -8.5      2.488      3.347
  Name = 
  3 active torsions:
  status: ('A' for Active; 'I' for Inactive)
    1  A    between atoms: C_2  and  N_16
    2  A    between atoms: C_11  and  N_16
    3  A    between atoms: C_21  and  C_26
                            x       y       z     vdW  Elec       q    Type
                         _______ _______ _______ _____ _____    ______ ____

>  <TORSDO>
F 3

$$$$
=
 OpenBabel10232411543D

 31 35  0  0  1  0  0  0  0  0999 V2000
  188.1060  177.1250  139.6490 N   0  0  1  0  0  0  0  0  0  0  0  0
  187.8420  177.9760  138.4720 C   0  0  1  0  0  3  0  0  0  0  0  0
  190.8830  176.9200  140.8920 C   0  0  0  0  0  3  0  0  0  0  0  0
  189.4190  177.0670  143.1820 S   0  0  0  0  0  0  0  0  0  0  0  0
  189.7330  177.3170  141.4440 C   0  0  0  0  0  0  0  0  0  0  0  0
  190.2900  177.7720  138.5120 C   0  0  0  0  0  2  0  0  0  0  0  0
  188.9540  177.0260  138.4290 C   0  0  1  0  0  3  0  0  0  0  0  0
  187.5830  178.2790  141.6960 C   0  0  0  0  0  3  0  0  0  0  0  0
  188.6410  178.0060  140.6880 C   0  0  2  0  0  3  0  0  0  0  0  0
  187.8330  177.8700  142.9360 C   0  0  0  0  0  0  0  0  0  0  0  0
  191.2180  177.0860  139.4660 C   0  0  0  0  0  0  0  0  0  0  0  0
  192.3170  176.6470  139.0410 O   0  0  0  0  0  0  0  0  0  0  0  0
  186.3440  178.0050  146.4120 C   0  0  0  0  0  3  0  0  0  0  0  0
  187.2560  177.8370  145.3660 C   0  0  0  0  0  3  0  0  0  0  0  0
  186.8630  178.0550  144.0360 C   0  0  0  0  0  0  0  0  0  0  0  0
  185.0300  178.3940  146.1390 C   0  0  0  0  0  3  0  0  0  0  0  0
  185.5380  178.4440  143.7730 C   0  0  0  0  0  3  0  0  0  0  0  0
  184.6280  178.6130  144.8190 C   0  0  0  0  0  3  0  0  0  0  0  0
  184.3720  177.5590  137.3710 O   0  0  0  0  0  0  0  0  0  0  0  0
  185.2280  179.1010  138.8260 O   0  0  0  0  0  1  0  0  0  0  0  0
  186.6880  177.4580  137.7340 N   0  0  0  0  0  0  0  0  0  0  0  0
  185.3850  178.0290  137.9540 C   0  0  0  0  0  0  0  0  0  0  0  0
  186.5570  175.0340  137.3760 C   0  0  0  0  0  3  0  0  0  0  0  0
  187.2500  176.4340  135.5340 C   0  0  0  0  0  0  0  0  0  0  0  0
  187.0650  174.0830  135.2230 C   0  0  0  0  0  0  0  0  0  0  0  0
  186.8430  176.3100  136.8780 C   0  0  0  0  0  0  0  0  0  0  0  0
  186.6680  173.9150  136.5510 C   0  0  0  0  0  0  0  0  0  0  0  0
  187.3490  175.3260  134.7510 N   0  0  0  0  0  0  0  0  0  0  0  0
  187.1770  173.0090  134.4040 F   0  0  0  0  0  0  0  0  0  0  0  0
  186.3870  172.6810  137.0370 F   0  0  0  0  0  0  0  0  0  0  0  0
  187.6190  177.7550  134.9510 C   0  0  0  0  0  1  0  0  0  0  0  0
  1  9  1  0  0  0  0
  2  1  1  0  0  0  0
  3  5  2  0  0  0  0
  5  4  1  0  0  0  0
  6 11  1  0  0  0  0
  7  2  1  0  0  0  0
  7  6  1  0  0  0  0
  7  1  1  0  0  0  0
  8 10  2  0  0  0  0
  9  5  1  0  0  0  0
  9  8  1  0  0  0  0
 10  4  1  0  0  0  0
 10 15  1  0  0  0  0
 11  3  1  0  0  0  0
 12 11  2  0  0  0  0
 14 13  2  0  0  0  0
 15 14  1  0  0  0  0
 16 13  1  0  0  0  0
 17 15  2  0  0  0  0
 17 18  1  0  0  0  0
 18 16  2  0  0  0  0
 19 22  2  0  0  0  0
 21 22  1  0  0  0  0
 21  2  1  0  0  0  0
 22 20  1  0  0  0  0
 24 26  2  0  0  0  0
 25 27  1  0  0  0  0
 26 23  1  0  0  0  0
 26 21  1  0  0  0  0
 27 30  1  0  0  0  0
 27 23  2  0  0  0  0
 28 25  2  0  0  0  0
 28 24  1  0  0  0  0
 29 25  1  0  0  0  0
 31 24  1  0  0  0  0
M  END
>  <MODEL>
3

>  <REMARK>
 VINA RESULT:      -8.5      1.015      1.222
  Name = 
  3 active torsions:
  status: ('A' for Active; 'I' for Inactive)
    1  A    between atoms: C_2  and  N_16
    2  A    between atoms: C_11  and  N_16
    3  A    between atoms: C_21  and  C_26
                            x       y       z     vdW  Elec       q    Type
                         _______ _______ _______ _____ _____    ______ ____

>  <TORSDO>
F 3

$$$$
=
 OpenBabel10232411543D

 31 35  0  0  1  0  0  0  0  0999 V2000
  189.0560  176.9760  140.9850 N   0  0  1  0  0  0  0  0  0  0  0  0
  189.9370  177.7160  140.0600 C   0  0  1  0  0  3  0  0  0  0  0  0
  189.6090  176.8580  143.9810 C   0  0  0  0  0  3  0  0  0  0  0  0
  186.9150  177.2360  144.0760 S   0  0  0  0  0  0  0  0  0  0  0  0
  188.5340  177.3180  143.3340 C   0  0  0  0  0  0  0  0  0  0  0  0
  191.2850  177.4890  142.1020 C   0  0  0  0  0  2  0  0  0  0  0  0
  190.5280  176.7540  140.9910 C   0  0  1  0  0  3  0  0  0  0  0  0
  187.1810  178.3230  141.6690 C   0  0  0  0  0  3  0  0  0  0  0  0
  188.5860  177.9440  141.9770 C   0  0  2  0  0  3  0  0  0  0  0  0
  186.2780  178.0300  142.5980 C   0  0  0  0  0  0  0  0  0  0  0  0
  190.9790  176.8860  143.4370 C   0  0  0  0  0  0  0  0  0  0  0  0
  191.9170  176.3960  144.1170 O   0  0  0  0  0  0  0  0  0  0  0  0
  182.7000  178.9960  143.3620 C   0  0  0  0  0  3  0  0  0  0  0  0
  184.0600  178.7160  143.5200 C   0  0  0  0  0  3  0  0  0  0  0  0
  184.8410  178.3280  142.4200 C   0  0  0  0  0  0  0  0  0  0  0  0
  182.1060  178.8900  142.1010 C   0  0  0  0  0  3  0  0  0  0  0  0
  184.2330  178.2230  141.1580 C   0  0  0  0  0  3  0  0  0  0  0  0
  182.8730  178.5040  141.0000 C   0  0  0  0  0  3  0  0  0  0  0  0
  190.9620  176.1920  136.8890 O   0  0  0  0  0  0  0  0  0  0  0  0
  192.2400  176.6440  138.7300 O   0  0  0  0  0  1  0  0  0  0  0  0
  189.8380  177.1430  138.7150 N   0  0  0  0  0  0  0  0  0  0  0  0
  191.0180  176.6360  138.0670 C   0  0  0  0  0  0  0  0  0  0  0  0
  187.7840  176.0440  137.9430 C   0  0  0  0  0  3  0  0  0  0  0  0
  188.1170  178.3750  137.4020 C   0  0  0  0  0  0  0  0  0  0  0  0
  186.1220  177.2780  136.7140 C   0  0  0  0  0  0  0  0  0  0  0  0
  188.5830  177.1910  138.0090 C   0  0  0  0  0  0  0  0  0  0  0  0
  186.5510  176.0830  137.2930 C   0  0  0  0  0  0  0  0  0  0  0  0
  186.9090  178.3850  136.7760 N   0  0  0  0  0  0  0  0  0  0  0  0
  184.9250  177.3370  136.0800 F   0  0  0  0  0  0  0  0  0  0  0  0
  185.7790  174.9700  137.2340 F   0  0  0  0  0  0  0  0  0  0  0  0
  188.9370  179.6200  137.3910 C   0  0  0  0  0  1  0  0  0  0  0  0
  1  7  1  0  0  0  0
  1  9  1  0  0  0  0
  2  1  1  0  0  0  0
  2  7  1  0  0  0  0
  5  3  2  0  0  0  0
  5  4  1  0  0  0  0
  6 11  1  0  0  0  0
  7  6  1  0  0  0  0
  8  9  1  0  0  0  0
  8 10  2  0  0  0  0
  9  5  1  0  0  0  0
 10  4  1  0  0  0  0
 11  3  1  0  0  0  0
 11 12  2  0  0  0  0
 13 14  1  0  0  0  0
 15 10  1  0  0  0  0
 15 14  2  0  0  0  0
 16 13  2  0  0  0  0
 17 15  1  0  0  0  0
 18 17  2  0  0  0  0
 18 16  1  0  0  0  0
 19 22  2  0  0  0  0
 21  2  1  0  0  0  0
 22 21  1  0  0  0  0
 22 20  1  0  0  0  0
 23 26  1  0  0  0  0
 24 26  2  0  0  0  0
 25 28  2  0  0  0  0
 25 27  1  0  0  0  0
 26 21  1  0  0  0  0
 27 23  2  0  0  0  0
 28 24  1  0  0  0  0
 29 25  1  0  0  0  0
 30 27  1  0  0  0  0
 31 24  1  0  0  0  0
M  END
>  <MODEL>
4

>  <REMARK>
 VINA RESULT:      -8.3      2.630      4.455
  Name = 
  3 active torsions:
  status: ('A' for Active; 'I' for Inactive)
    1  A    between atoms: C_2  and  N_16
    2  A    between atoms: C_11  and  N_16
    3  A    between atoms: C_21  and  C_26
                            x       y       z     vdW  Elec       q    Type
                         _______ _______ _______ _____ _____    ______ ____

>  <TORSDO>
F 3

$$$$
=
 OpenBabel10232411543D

 31 35  0  0  1  0  0  0  0  0999 V2000
  189.2180  177.1030  140.5760 N   0  0  1  0  0  0  0  0  0  0  0  0
  190.1170  177.9550  139.7720 C   0  0  1  0  0  3  0  0  0  0  0  0
  189.7530  176.5370  143.5240 C   0  0  0  0  0  3  0  0  0  0  0  0
  187.0660  176.9460  143.6670 S   0  0  0  0  0  0  0  0  0  0  0  0
  188.6910  177.1060  142.9490 C   0  0  0  0  0  0  0  0  0  0  0  0
  191.4510  177.4060  141.7620 C   0  0  0  0  0  2  0  0  0  0  0  0
  190.6860  176.8560  140.5530 C   0  0  1  0  0  3  0  0  0  0  0  0
  187.3650  178.3700  141.4470 C   0  0  0  0  0  3  0  0  0  0  0  0
  188.7610  177.9240  141.6990 C   0  0  2  0  0  3  0  0  0  0  0  0
  186.4510  177.9600  142.3210 C   0  0  0  0  0  0  0  0  0  0  0  0
  191.1260  176.6190  142.9930 C   0  0  0  0  0  0  0  0  0  0  0  0
  192.0520  176.0170  143.5960 O   0  0  0  0  0  0  0  0  0  0  0  0
  183.0820  178.7200  140.7750 C   0  0  0  0  0  3  0  0  0  0  0  0
  184.4330  178.3880  140.9130 C   0  0  0  0  0  3  0  0  0  0  0  0
  185.0200  178.3070  142.1850 C   0  0  0  0  0  0  0  0  0  0  0  0
  182.3050  178.9740  141.9090 C   0  0  0  0  0  3  0  0  0  0  0  0
  184.2300  178.5670  143.3170 C   0  0  0  0  0  3  0  0  0  0  0  0
  182.8800  178.8980  143.1790 C   0  0  0  0  0  3  0  0  0  0  0  0
  189.1160  178.0930  136.2510 O   0  0  0  0  0  0  0  0  0  0  0  0
  188.6780  179.5980  137.9150 O   0  0  0  0  0  1  0  0  0  0  0  0
  190.0150  177.5880  138.3580 N   0  0  0  0  0  0  0  0  0  0  0  0
  189.2640  178.4220  137.4580 C   0  0  0  0  0  0  0  0  0  0  0  0
  191.9580  176.2130  137.7660 C   0  0  0  0  0  3  0  0  0  0  0  0
  189.7580  175.2260  137.6110 C   0  0  0  0  0  0  0  0  0  0  0  0
  191.6770  173.9190  137.0910 C   0  0  0  0  0  0  0  0  0  0  0  0
  190.5710  176.3410  137.9010 C   0  0  0  0  0  0  0  0  0  0  0  0
  192.5160  175.0010  137.3590 C   0  0  0  0  0  0  0  0  0  0  0  0
  190.3300  174.0560  137.2170 N   0  0  0  0  0  0  0  0  0  0  0  0
  192.1990  172.7320  136.6950 F   0  0  0  0  0  0  0  0  0  0  0  0
  193.8600  174.8810  137.2310 F   0  0  0  0  0  0  0  0  0  0  0  0
  188.2720  175.3050  137.6850 C   0  0  0  0  0  1  0  0  0  0  0  0
  1  9  1  0  0  0  0
  2  7  1  0  0  0  0
  2  1  1  0  0  0  0
  5  3  2  0  0  0  0
  5  4  1  0  0  0  0
  6 11  1  0  0  0  0
  7  1  1  0  0  0  0
  7  6  1  0  0  0  0
  8  9  1  0  0  0  0
  8 10  2  0  0  0  0
  9  5  1  0  0  0  0
 10  4  1  0  0  0  0
 11  3  1  0  0  0  0
 11 12  2  0  0  0  0
 13 14  2  0  0  0  0
 13 16  1  0  0  0  0
 14 15  1  0  0  0  0
 15 10  1  0  0  0  0
 15 17  2  0  0  0  0
 16 18  2  0  0  0  0
 18 17  1  0  0  0  0
 19 22  2  0  0  0  0
 21  2  1  0  0  0  0
 22 20  1  0  0  0  0
 22 21  1  0  0  0  0
 23 26  1  0  0  0  0
 24 31  1  0  0  0  0
 24 26  2  0  0  0  0
 25 28  2  0  0  0  0
 25 27  1  0  0  0  0
 26 21  1  0  0  0  0
 27 23  2  0  0  0  0
 28 24  1  0  0  0  0
 29 25  1  0  0  0  0
 30 27  1  0  0  0  0
M  END
>  <MODEL>
5

>  <REMARK>
 VINA RESULT:      -8.1      3.276      4.846
  Name = 
  3 active torsions:
  status: ('A' for Active; 'I' for Inactive)
    1  A    between atoms: C_2  and  N_16
    2  A    between atoms: C_11  and  N_16
    3  A    between atoms: C_21  and  C_26
                            x       y       z     vdW  Elec       q    Type
                         _______ _______ _______ _____ _____    ______ ____

>  <TORSDO>
F 3

$$$$
=
 OpenBabel10232411543D

 31 35  0  0  1  0  0  0  0  0999 V2000
  186.0970  178.0110  143.4470 N   0  0  1  0  0  0  0  0  0  0  0  0
  186.6930  178.8090  144.5360 C   0  0  1  0  0  3  0  0  0  0  0  0
  183.2450  178.4870  142.4810 C   0  0  0  0  0  3  0  0  0  0  0  0
  184.4460  178.1590  140.0610 S   0  0  0  0  0  0  0  0  0  0  0  0
  184.3920  178.5500  141.8010 C   0  0  0  0  0  0  0  0  0  0  0  0
  184.2840  179.2480  144.7360 C   0  0  0  0  0  2  0  0  0  0  0  0
  185.3870  178.1840  144.7430 C   0  0  1  0  0  3  0  0  0  0  0  0
  186.6770  178.9080  141.2890 C   0  0  0  0  0  3  0  0  0  0  0  0
  185.6970  178.9590  142.4060 C   0  0  2  0  0  3  0  0  0  0  0  0
  186.2010  178.5310  140.1070 C   0  0  0  0  0  0  0  0  0  0  0  0
  183.1160  178.7910  143.9180 C   0  0  0  0  0  0  0  0  0  0  0  0
  181.9930  178.6690  144.4710 O   0  0  0  0  0  0  0  0  0  0  0  0
  189.2840  178.3070  137.9240 C   0  0  0  0  0  3  0  0  0  0  0  0
  188.4600  178.4130  139.0490 C   0  0  0  0  0  3  0  0  0  0  0  0
  187.0640  178.4130  138.9120 C   0  0  0  0  0  0  0  0  0  0  0  0
  188.7180  178.1990  136.6510 C   0  0  0  0  0  3  0  0  0  0  0  0
  186.5060  178.3060  137.6270 C   0  0  0  0  0  3  0  0  0  0  0  0
  187.3290  178.1990  136.5030 C   0  0  0  0  0  3  0  0  0  0  0  0
  188.5130  177.0330  147.1740 O   0  0  0  0  0  0  0  0  0  0  0  0
  186.4250  177.9580  147.2610 O   0  0  0  0  0  1  0  0  0  0  0  0
  187.7490  178.0380  145.1970 N   0  0  0  0  0  0  0  0  0  0  0  0
  187.5920  177.6470  146.5730 C   0  0  0  0  0  0  0  0  0  0  0  0
  190.0820  178.6120  144.6980 C   0  0  0  0  0  3  0  0  0  0  0  0
  189.1240  176.6610  143.6420 C   0  0  0  0  0  0  0  0  0  0  0  0
  191.3950  177.2330  143.2240 C   0  0  0  0  0  0  0  0  0  0  0  0
  188.9810  177.7700  144.5000 C   0  0  0  0  0  0  0  0  0  0  0  0
  191.2930  178.3470  144.0590 C   0  0  0  0  0  0  0  0  0  0  0  0
  190.3180  176.4260  143.0320 N   0  0  0  0  0  0  0  0  0  0  0  0
  192.5640  176.9570  142.5960 F   0  0  0  0  0  0  0  0  0  0  0  0
  192.3570  179.1630  144.2550 F   0  0  0  0  0  0  0  0  0  0  0  0
  187.9810  175.7520  143.3460 C   0  0  0  0  0  1  0  0  0  0  0  0
  1  2  1  0  0  0  0
  1  7  1  0  0  0  0
  2  7  1  0  0  0  0
  2 21  1  0  0  0  0
  3 11  1  0  0  0  0
  4 10  1  0  0  0  0
  4  5  1  0  0  0  0
  5  9  1  0  0  0  0
  5  3  2  0  0  0  0
  6  7  1  0  0  0  0
  8  9  1  0  0  0  0
  9  1  1  0  0  0  0
 10  8  2  0  0  0  0
 11 12  2  0  0  0  0
 11  6  1  0  0  0  0
 13 14  1  0  0  0  0
 15 14  2  0  0  0  0
 15 10  1  0  0  0  0
 16 13  2  0  0  0  0
 17 15  1  0  0  0  0
 18 16  1  0  0  0  0
 18 17  2  0  0  0  0
 21 22  1  0  0  0  0
 22 19  2  0  0  0  0
 22 20  1  0  0  0  0
 24 26  2  0  0  0  0
 25 27  1  0  0  0  0
 26 23  1  0  0  0  0
 26 21  1  0  0  0  0
 27 30  1  0  0  0  0
 27 23  2  0  0  0  0
 28 25  2  0  0  0  0
 28 24  1  0  0  0  0
 29 25  1  0  0  0  0
 31 24  1  0  0  0  0
M  END
>  <MODEL>
6

>  <REMARK>
 VINA RESULT:      -8.1      4.806      8.426
  Name = 
  3 active torsions:
  status: ('A' for Active; 'I' for Inactive)
    1  A    between atoms: C_2  and  N_16
    2  A    between atoms: C_11  and  N_16
    3  A    between atoms: C_21  and  C_26
                            x       y       z     vdW  Elec       q    Type
                         _______ _______ _______ _____ _____    ______ ____

>  <TORSDO>
F 3

$$$$
=
 OpenBabel10232411543D

 31 35  0  0  1  0  0  0  0  0999 V2000
  188.7970  177.1820  140.5300 N   0  0  1  0  0  0  0  0  0  0  0  0
  189.5980  178.0380  139.6330 C   0  0  1  0  0  3  0  0  0  0  0  0
  189.7040  176.5370  143.3690 C   0  0  0  0  0  3  0  0  0  0  0  0
  187.0670  176.9840  143.8730 S   0  0  0  0  0  0  0  0  0  0  0  0
  188.5850  177.1360  142.9510 C   0  0  0  0  0  0  0  0  0  0  0  0
  191.1710  177.4220  141.4180 C   0  0  0  0  0  2  0  0  0  0  0  0
  190.2440  176.9120  140.3090 C   0  0  1  0  0  3  0  0  0  0  0  0
  187.0970  178.4550  141.6640 C   0  0  0  0  0  3  0  0  0  0  0  0
  188.5050  177.9820  141.7200 C   0  0  2  0  0  3  0  0  0  0  0  0
  186.2980  178.0390  142.6410 C   0  0  0  0  0  0  0  0  0  0  0  0
  190.9960  176.6110  142.6640 C   0  0  0  0  0  0  0  0  0  0  0  0
  191.9820  175.9810  143.1260 O   0  0  0  0  0  0  0  0  0  0  0  0
  182.9450  179.1630  143.9870 C   0  0  0  0  0  3  0  0  0  0  0  0
  184.2970  178.8130  143.9190 C   0  0  0  0  0  3  0  0  0  0  0  0
  184.8690  178.4110  142.7020 C   0  0  0  0  0  0  0  0  0  0  0  0
  182.1520  179.1140  142.8370 C   0  0  0  0  0  3  0  0  0  0  0  0
  184.0610  178.3630  141.5530 C   0  0  0  0  0  3  0  0  0  0  0  0
  182.7100  178.7140  141.6210 C   0  0  0  0  0  3  0  0  0  0  0  0
  188.6630  178.4850  136.1190 O   0  0  0  0  0  0  0  0  0  0  0  0
  188.9820  180.0840  137.7210 O   0  0  0  0  0  1  0  0  0  0  0  0
  189.3040  177.7070  138.2370 N   0  0  0  0  0  0  0  0  0  0  0  0
  188.9750  178.7560  137.3090 C   0  0  0  0  0  0  0  0  0  0  0  0
  187.9940  175.6920  137.7430 C   0  0  0  0  0  3  0  0  0  0  0  0
  190.3940  175.5980  137.4810 C   0  0  0  0  0  0  0  0  0  0  0  0
  189.0760  173.6840  136.9710 C   0  0  0  0  0  0  0  0  0  0  0  0
  189.2380  176.3270  137.8290 C   0  0  0  0  0  0  0  0  0  0  0  0
  187.9080  174.3670  137.3150 C   0  0  0  0  0  0  0  0  0  0  0  0
  190.2810  174.3070  137.0660 N   0  0  0  0  0  0  0  0  0  0  0  0
  189.0150  172.3970  136.5510 F   0  0  0  0  0  0  0  0  0  0  0  0
  186.7010  173.7560  137.2310 F   0  0  0  0  0  0  0  0  0  0  0  0
  191.7550  176.1950  137.5970 C   0  0  0  0  0  1  0  0  0  0  0  0
  1  9  1  0  0  0  0
  2  7  1  0  0  0  0
  2  1  1  0  0  0  0
  5  3  2  0  0  0  0
  5  4  1  0  0  0  0
  6 11  1  0  0  0  0
  7  1  1  0  0  0  0
  7  6  1  0  0  0  0
  8  9  1  0  0  0  0
  8 10  2  0  0  0  0
  9  5  1  0  0  0  0
 10 15  1  0  0  0  0
 10  4  1  0  0  0  0
 11 12  2  0  0  0  0
 11  3  1  0  0  0  0
 14 13  1  0  0  0  0
 15 14  2  0  0  0  0
 16 13  2  0  0  0  0
 17 18  2  0  0  0  0
 17 15  1  0  0  0  0
 18 16  1  0  0  0  0
 19 22  2  0  0  0  0
 21  2  1  0  0  0  0
 22 20  1  0  0  0  0
 22 21  1  0  0  0  0
 23 26  1  0  0  0  0
 24 31  1  0  0  0  0
 24 26  2  0  0  0  0
 25 28  2  0  0  0  0
 25 27  1  0  0  0  0
 26 21  1  0  0  0  0
 27 23  2  0  0  0  0
 28 24  1  0  0  0  0
 29 25  1  0  0  0  0
 30 27  1  0  0  0  0
M  END
>  <MODEL>
7

>  <REMARK>
 VINA RESULT:      -8.1      2.744      3.999
  Name = 
  3 active torsions:
  status: ('A' for Active; 'I' for Inactive)
    1  A    between atoms: C_2  and  N_16
    2  A    between atoms: C_11  and  N_16
    3  A    between atoms: C_21  and  C_26
                            x       y       z     vdW  Elec       q    Type
                         _______ _______ _______ _____ _____    ______ ____

>  <TORSDO>
F 3

$$$$
=
 OpenBabel10232411543D

 31 35  0  0  1  0  0  0  0  0999 V2000
  188.7810  178.2320  142.1990 N   0  0  1  0  0  0  0  0  0  0  0  0
  189.6460  177.2010  142.8060 C   0  0  1  0  0  3  0  0  0  0  0  0
  188.0670  178.1870  139.2350 C   0  0  0  0  0  3  0  0  0  0  0  0
  185.6220  178.8410  140.2350 S   0  0  0  0  0  0  0  0  0  0  0  0
  187.2640  178.1490  140.3020 C   0  0  0  0  0  0  0  0  0  0  0  0
  190.0320  176.9450  140.3930 C   0  0  0  0  0  2  0  0  0  0  0  0
  190.0990  177.8900  141.5970 C   0  0  1  0  0  3  0  0  0  0  0  0
  186.4520  177.6910  142.4790 C   0  0  0  0  0  3  0  0  0  0  0  0
  187.6440  177.5250  141.6070 C   0  0  2  0  0  3  0  0  0  0  0  0
  185.4110  178.3150  141.9380 C   0  0  0  0  0  0  0  0  0  0  0  0
  189.4370  177.6420  139.2090 C   0  0  0  0  0  0  0  0  0  0  0  0
  190.1220  177.7600  138.1610 O   0  0  0  0  0  0  0  0  0  0  0  0
  181.7590  178.9200  142.7240 C   0  0  0  0  0  3  0  0  0  0  0  0
  182.9410  178.6750  142.0180 C   0  0  0  0  0  3  0  0  0  0  0  0
  184.1660  178.5710  142.6940 C   0  0  0  0  0  0  0  0  0  0  0  0
  181.7920  179.0630  144.1140 C   0  0  0  0  0  3  0  0  0  0  0  0
  184.1870  178.7180  144.0910 C   0  0  0  0  0  3  0  0  0  0  0  0
  183.0060  178.9620  144.7970 C   0  0  0  0  0  3  0  0  0  0  0  0
  192.2170  178.7760  144.8880 O   0  0  0  0  0  1  0  0  0  0  0  0
  192.2120  178.4680  142.6230 O   0  0  0  0  0  0  0  0  0  0  0  0
  190.3090  177.7460  143.9940 N   0  0  0  0  0  0  0  0  0  0  0  0
  191.6070  178.3540  143.8700 C   0  0  0  0  0  0  0  0  0  0  0  0
  188.4620  178.1520  145.5570 C   0  0  0  0  0  3  0  0  0  0  0  0
  190.3250  176.8040  146.2990 C   0  0  0  0  0  0  0  0  0  0  0  0
  188.4890  177.1890  147.7640 C   0  0  0  0  0  0  0  0  0  0  0  0
  189.7070  177.5720  145.2910 C   0  0  0  0  0  0  0  0  0  0  0  0
  187.8490  177.9640  146.7960 C   0  0  0  0  0  0  0  0  0  0  0  0
  189.7030  176.6360  147.4990 N   0  0  0  0  0  0  0  0  0  0  0  0
  187.9100  176.9920  148.9730 F   0  0  0  0  0  0  0  0  0  0  0  0
  186.6420  178.5260  147.0490 F   0  0  0  0  0  0  0  0  0  0  0  0
  191.6720  176.1990  146.1030 C   0  0  0  0  0  1  0  0  0  0  0  0
  1  2  1  0  0  0  0
  2 21  1  0  0  0  0
  3  5  2  0  0  0  0
  4  5  1  0  0  0  0
  4 10  1  0  0  0  0
  5  9  1  0  0  0  0
  6  7  1  0  0  0  0
  7  1  1  0  0  0  0
  7  2  1  0  0  0  0
  9  1  1  0  0  0  0
  9  8  1  0  0  0  0
 10  8  2  0  0  0  0
 10 15  1  0  0  0  0
 11  3  1  0  0  0  0
 11  6  1  0  0  0  0
 12 11  2  0  0  0  0
 13 16  1  0  0  0  0
 14 15  1  0  0  0  0
 14 13  2  0  0  0  0
 15 17  2  0  0  0  0
 16 18  2  0  0  0  0
 17 18  1  0  0  0  0
 20 22  2  0  0  0  0
 21 26  1  0  0  0  0
 22 21  1  0  0  0  0
 22 19  1  0  0  0  0
 23 27  1  0  0  0  0
 24 28  2  0  0  0  0
 25 29  1  0  0  0  0
 26 23  2  0  0  0  0
 26 24  1  0  0  0  0
 27 30  1  0  0  0  0
 27 25  2  0  0  0  0
 28 25  1  0  0  0  0
 31 24  1  0  0  0  0
M  END
>  <MODEL>
8

>  <REMARK>
 VINA RESULT:      -7.7      4.830      7.936
  Name = 
  3 active torsions:
  status: ('A' for Active; 'I' for Inactive)
    1  A    between atoms: C_2  and  N_16
    2  A    between atoms: C_11  and  N_16
    3  A    between atoms: C_21  and  C_26
                            x       y       z     vdW  Elec       q    Type
                         _______ _______ _______ _____ _____    ______ ____

>  <TORSDO>
F 3

$$$$
=
 OpenBabel10232411543D

 31 35  0  0  1  0  0  0  0  0999 V2000
  188.8520  177.9500  144.9440 N   0  0  1  0  0  0  0  0  0  0  0  0
  187.7250  177.3800  145.7090 C   0  0  1  0  0  3  0  0  0  0  0  0
  191.6920  176.8780  145.2300 C   0  0  0  0  0  3  0  0  0  0  0  0
  191.6390  177.1800  142.5260 S   0  0  0  0  0  0  0  0  0  0  0  0
  190.9210  176.9570  144.1420 C   0  0  0  0  0  0  0  0  0  0  0  0
  189.7160  176.5390  146.8790 C   0  0  0  0  0  2  0  0  0  0  0  0
  188.9410  177.7790  146.4200 C   0  0  1  0  0  3  0  0  0  0  0  0
  189.0030  176.9660  142.7520 C   0  0  0  0  0  3  0  0  0  0  0  0
  189.4290  176.8480  144.1710 C   0  0  2  0  0  3  0  0  0  0  0  0
  189.9730  177.1350  141.8600 C   0  0  0  0  0  0  0  0  0  0  0  0
  191.1780  176.6980  146.6000 C   0  0  0  0  0  0  0  0  0  0  0  0
  191.9900  176.6690  147.5590 O   0  0  0  0  0  0  0  0  0  0  0  0
  188.2690  178.1030  138.6230 C   0  0  0  0  0  3  0  0  0  0  0  0
  188.5400  177.9570  139.9870 C   0  0  0  0  0  3  0  0  0  0  0  0
  189.6970  177.2880  140.4150 C   0  0  0  0  0  0  0  0  0  0  0  0
  189.1520  177.5810  137.6740 C   0  0  0  0  0  3  0  0  0  0  0  0
  190.5770  176.7660  139.4530 C   0  0  0  0  0  3  0  0  0  0  0  0
  190.3060  176.9130  138.0900 C   0  0  0  0  0  3  0  0  0  0  0  0
  185.6070  179.9100  147.3010 O   0  0  0  0  0  0  0  0  0  0  0  0
  187.4280  178.8320  148.1640 O   0  0  0  0  0  1  0  0  0  0  0  0
  186.6750  178.3890  145.8710 N   0  0  0  0  0  0  0  0  0  0  0  0
  186.5390  179.0820  147.1240 C   0  0  0  0  0  0  0  0  0  0  0  0
  186.1680  178.9870  143.5460 C   0  0  0  0  0  3  0  0  0  0  0  0
  184.3380  178.4010  145.0100 C   0  0  0  0  0  0  0  0  0  0  0  0
  183.9010  178.9460  142.7360 C   0  0  0  0  0  0  0  0  0  0  0  0
  185.7190  178.6010  144.8140 C   0  0  0  0  0  0  0  0  0  0  0  0
  185.2600  179.1630  142.5020 C   0  0  0  0  0  0  0  0  0  0  0  0
  183.4740  178.5790  143.9740 N   0  0  0  0  0  0  0  0  0  0  0  0
  183.0020  179.1090  141.7350 F   0  0  0  0  0  0  0  0  0  0  0  0
  185.6980  179.5350  141.2750 F   0  0  0  0  0  0  0  0  0  0  0  0
  183.7850  178.0380  146.3460 C   0  0  0  0  0  1  0  0  0  0  0  0
  1  2  1  0  0  0  0
  1  7  1  0  0  0  0
  2 21  1  0  0  0  0
  2  7  1  0  0  0  0
  3 11  1  0  0  0  0
  4  5  1  0  0  0  0
  5  9  1  0  0  0  0
  5  3  2  0  0  0  0
  7  6  1  0  0  0  0
  8  9  1  0  0  0  0
  9  1  1  0  0  0  0
 10  4  1  0  0  0  0
 10  8  2  0  0  0  0
 11  6  1  0  0  0  0
 11 12  2  0  0  0  0
 13 14  1  0  0  0  0
 14 15  2  0  0  0  0
 15 10  1  0  0  0  0
 16 18  1  0  0  0  0
 16 13  2  0  0  0  0
 17 15  1  0  0  0  0
 18 17  2  0  0  0  0
 21 22  1  0  0  0  0
 22 19  2  0  0  0  0
 22 20  1  0  0  0  0
 23 26  1  0  0  0  0
 24 31  1  0  0  0  0
 25 28  2  0  0  0  0
 26 24  2  0  0  0  0
 26 21  1  0  0  0  0
 27 25  1  0  0  0  0
 27 23  2  0  0  0  0
 28 24  1  0  0  0  0
 29 25  1  0  0  0  0
 30 27  1  0  0  0  0
M  END
>  <MODEL>
9

>  <REMARK>
 VINA RESULT:      -7.7      4.930      7.839
  Name = 
  3 active torsions:
  status: ('A' for Active; 'I' for Inactive)
    1  A    between atoms: C_2  and  N_16
    2  A    between atoms: C_11  and  N_16
    3  A    between atoms: C_21  and  C_26
                            x       y       z     vdW  Elec       q    Type
                         _______ _______ _______ _____ _____    ______ ____

>  <TORSDO>
F 3

$$$$
