=
 OpenBabel10232408343D

 41 47  0  0  1  0  0  0  0  0999 V2000
  184.1700  178.4360  143.0150 C   0  0  0  0  0  0  0  0  0  0  0  0
  187.8730  178.0030  140.8490 C   0  0  0  0  0  0  0  0  0  0  0  0
  184.5500  178.6600  140.5540 C   0  0  1  0  0  3  0  0  0  0  0  0
  180.7730  179.6220  143.2480 C   0  0  0  0  0  1  0  0  0  0  0  0
  189.4840  176.9900  143.8990 C   0  0  0  0  0  3  0  0  0  0  0  0
  189.1170  177.3610  141.3330 C   0  0  0  0  0  0  0  0  0  0  0  0
  188.9360  177.9800  144.8690 C   0  0  0  0  0  2  0  0  0  0  0  0
  186.3930  178.8700  139.3870 C   0  0  1  0  0  3  0  0  0  0  0  0
  186.7910  178.3230  141.5760 C   0  0  1  0  0  3  0  0  0  0  0  0
  185.4820  178.1350  143.6430 C   0  0  0  0  0  0  0  0  0  0  0  0
  185.5110  177.8370  145.1160 C   0  0  0  0  0  2  0  0  0  0  0  0
  185.3410  178.6230  138.4690 N   0  0  0  0  0  0  0  0  0  0  0  0
  183.7410  178.0010  141.6330 C   0  0  2  0  0  3  0  0  0  0  0  0
  185.8360  178.9170  140.6820 C   0  0  2  0  0  3  0  0  0  0  0  0
  184.2660  178.5120  139.1510 N   0  0  0  0  0  0  0  0  0  0  0  0
  183.2160  179.0090  143.6730 N   0  0  0  0  0  0  0  0  0  0  0  0
  182.3370  178.5120  141.6390 C   0  0  0  0  0  0  0  0  0  0  0  0
  186.5880  178.0300  142.9630 N   0  0  0  0  0  0  0  0  0  0  0  0
  187.5740  178.2570  139.4150 C   0  0  0  0  0  3  0  0  0  0  0  0
  182.0860  179.0630  142.8180 C   0  0  0  0  0  0  0  0  0  0  0  0
  187.8590  177.3720  145.6420 N   0  0  0  0  0  0  0  0  0  0  0  0
  186.7810  178.3450  145.7940 C   0  0  0  0  0  2  0  0  0  0  0  0
  189.3160  177.1730  142.6170 C   0  0  0  0  0  0  0  0  0  0  0  0
  190.1120  176.9870  140.3650 N   0  0  0  0  0  2  0  0  0  0  0  0
  192.0260  177.9140  141.3600 O   0  0  0  0  0  0  0  0  0  0  0  0
  191.5170  177.2740  140.3990 C   0  0  0  0  0  0  0  0  0  0  0  0
  191.8470  176.5000  138.1040 C   0  0  0  0  0  3  0  0  0  0  0  0
  192.3570  176.8060  139.2930 C   0  0  0  0  0  3  0  0  0  0  0  0
  192.7270  176.0270  136.9950 C   0  0  2  0  0  3  0  0  0  0  0  0
  192.0100  174.9860  136.1600 C   0  0  0  0  0  2  0  0  0  0  0  0
  193.8150  173.3370  136.1330 N   0  0  0  0  0  2  0  0  0  0  0  0
  193.6330  173.8180  137.5110 C   0  0  1  0  0  3  0  0  0  0  0  0
  193.9240  175.3080  137.5750 C   0  0  0  0  0  2  0  0  0  0  0  0
  192.4670  173.6220  136.6480 C   0  0  1  0  0  3  0  0  0  0  0  0
  181.3410  178.2960  140.5430 C   0  0  0  0  0  2  0  0  0  0  0  0
  181.2760  176.8280  140.1690 C   0  0  0  0  0  1  0  0  0  0  0  0
  188.3470  176.9520  146.9630 C   0  0  0  0  0  2  0  0  0  0  0  0
  189.7290  177.5110  147.3270 C   0  0  0  0  0  2  0  0  0  0  0  0
  190.7780  176.4110  147.3620 C   0  0  0  0  0  2  0  0  0  0  0  0
  192.7510  175.7760  148.1150 C   0  0  0  0  0  1  0  0  0  0  0  0
  191.9770  176.9100  147.8720 O   0  0  0  0  0  0  0  0  0  0  0  0
  1 10  1  0  0  0  0
  1 16  2  0  0  0  0
  2  6  1  0  0  0  0
  3 15  1  6  0  0  0
  3 14  1  0  0  0  0
  3 13  1  0  0  0  0
  5  7  1  0  0  0  0
  6 23  2  0  0  0  0
  7 21  1  0  0  0  0
  8 19  1  1  0  0  0
  8 14  1  0  0  0  0
  9  2  1  6  0  0  0
  9 18  1  0  0  0  0
 10 11  1  0  0  0  0
 11 22  1  0  0  0  0
 12 15  2  0  0  0  0
 12  8  1  0  0  0  0
 13 17  1  6  0  0  0
 13  1  1  0  0  0  0
 14  9  1  0  0  0  0
 17 20  2  0  0  0  0
 18 10  2  0  0  0  0
 19  2  2  0  0  0  0
 20  4  1  0  0  0  0
 20 16  1  0  0  0  0
 21 22  1  0  0  0  0
 21 37  1  0  0  0  0
 23  5  2  0  0  0  0
 24 26  1  0  0  0  0
 24  6  1  0  0  0  0
 26 25  2  0  0  0  0
 27 28  2  0  0  0  0
 28 26  1  0  0  0  0
 29 33  1  0  0  0  0
 29 27  1  0  0  0  0
 30 34  1  0  0  0  0
 30 29  1  0  0  0  0
 31 34  1  0  0  0  0
 31 32  1  0  0  0  0
 32 33  1  0  0  0  0
 34 32  1  0  0  0  0
 35 17  1  0  0  0  0
 36 35  1  0  0  0  0
 37 38  1  0  0  0  0
 38 39  1  0  0  0  0
 39 41  1  0  0  0  0
 41 40  1  0  0  0  0
M  END
>  <MODEL>
1

>  <REMARK>
 VINA RESULT:      -9.0      0.000      0.000
  Name = 
  8 active torsions:
  status: ('A' for Active; 'I' for Inactive)
    1  A    between atoms: C_2  and  C_33
    2  A    between atoms: C_8  and  C_16
    3  A    between atoms: C_8  and  C_20
    4  A    between atoms: C_9  and  C_26
    5  A    between atoms: N_10  and  C_11
    6  A    between atoms: C_16  and  O_24
    7  A    between atoms: C_20  and  N_39
    8  A    between atoms: C_34  and  C_38
                            x       y       z     vdW  Elec       q    Type
                         _______ _______ _______ _____ _____    ______ ____

>  <TORSDO>
F 8

$$$$
=
 OpenBabel10232408343D

 41 47  0  0  1  0  0  0  0  0999 V2000
  186.4270  178.1710  143.9890 C   0  0  0  0  0  0  0  0  0  0  0  0
  189.3160  176.9920  141.0150 C   0  0  0  0  0  0  0  0  0  0  0  0
  188.6650  177.1160  144.3490 C   0  0  1  0  0  3  0  0  0  0  0  0
  185.0900  177.9890  147.3340 C   0  0  0  0  0  1  0  0  0  0  0  0
  187.2350  178.4630  138.4790 C   0  0  0  0  0  3  0  0  0  0  0  0
  189.3620  177.4250  139.5980 C   0  0  0  0  0  0  0  0  0  0  0  0
  185.8830  177.9850  138.8880 C   0  0  0  0  0  2  0  0  0  0  0  0
  190.0320  176.1110  142.9610 C   0  0  1  0  0  3  0  0  0  0  0  0
  188.3170  177.1880  141.8890 C   0  0  1  0  0  3  0  0  0  0  0  0
  186.2330  178.3170  142.5240 C   0  0  0  0  0  0  0  0  0  0  0  0
  185.0060  179.0360  142.0400 C   0  0  0  0  0  2  0  0  0  0  0  0
  190.7390  176.3160  144.1730 N   0  0  0  0  0  0  0  0  0  0  0  0
  187.7530  178.2520  144.7100 C   0  0  2  0  0  3  0  0  0  0  0  0
  188.7210  176.6020  143.1370 C   0  0  2  0  0  3  0  0  0  0  0  0
  189.9370  176.8920  144.9840 N   0  0  0  0  0  0  0  0  0  0  0  0
  185.4250  178.0810  144.8030 N   0  0  0  0  0  0  0  0  0  0  0  0
  187.2750  178.1300  146.1200 C   0  0  0  0  0  0  0  0  0  0  0  0
  187.1180  177.9330  141.6490 N   0  0  0  0  0  0  0  0  0  0  0  0
  190.4690  176.3920  141.7370 C   0  0  0  0  0  3  0  0  0  0  0  0
  185.9520  178.0470  146.1190 C   0  0  0  0  0  0  0  0  0  0  0  0
  185.1770  179.0470  139.5960 N   0  0  0  0  0  0  0  0  0  0  0  0
  184.4670  178.4640  140.7300 C   0  0  0  0  0  2  0  0  0  0  0  0
  188.3010  177.9420  139.0230 C   0  0  0  0  0  0  0  0  0  0  0  0
  190.5820  177.2260  138.8650 N   0  0  0  0  0  2  0  0  0  0  0  0
  190.2280  175.0520  138.0520 O   0  0  0  0  0  0  0  0  0  0  0  0
  190.9800  176.0620  138.1280 C   0  0  0  0  0  0  0  0  0  0  0  0
  193.2280  175.1770  137.7530 C   0  0  0  0  0  3  0  0  0  0  0  0
  192.2840  176.0650  137.4580 C   0  0  0  0  0  3  0  0  0  0  0  0
  194.5460  175.2030  137.0540 C   0  0  2  0  0  3  0  0  0  0  0  0
  194.3960  174.7170  135.6260 C   0  0  0  0  0  2  0  0  0  0  0  0
  196.2620  173.1390  135.6560 N   0  0  0  0  0  2  0  0  0  0  0  0
  195.4580  172.9450  136.8730 C   0  0  1  0  0  3  0  0  0  0  0  0
  195.4830  174.2130  137.7090 C   0  0  0  0  0  2  0  0  0  0  0  0
  194.7970  173.2520  135.6040 C   0  0  1  0  0  3  0  0  0  0  0  0
  188.1450  178.2370  147.3330 C   0  0  0  0  0  2  0  0  0  0  0  0
  188.3220  176.8770  147.9800 C   0  0  0  0  0  1  0  0  0  0  0  0
  184.2260  179.7180  138.6980 C   0  0  0  0  0  2  0  0  0  0  0  0
  182.8710  179.0080  138.5760 C   0  0  0  0  0  2  0  0  0  0  0  0
  181.7400  180.0060  138.3870 C   0  0  0  0  0  2  0  0  0  0  0  0
  181.1520  182.1180  138.1440 C   0  0  0  0  0  1  0  0  0  0  0  0
  182.2240  181.3080  138.5160 O   0  0  0  0  0  0  0  0  0  0  0  0
  1 16  2  0  0  0  0
  2 19  2  0  0  0  0
  3 13  1  0  0  0  0
  3 15  1  6  0  0  0
  5  7  1  0  0  0  0
  5 23  2  0  0  0  0
  6  2  1  0  0  0  0
  7 21  1  0  0  0  0
  8 19  1  6  0  0  0
  8 14  1  0  0  0  0
  8 12  1  0  0  0  0
  9  2  1  1  0  0  0
  9 14  1  0  0  0  0
 10  1  1  0  0  0  0
 11 10  1  0  0  0  0
 12 15  2  0  0  0  0
 13  1  1  6  0  0  0
 13 17  1  0  0  0  0
 14  3  1  0  0  0  0
 16 20  1  0  0  0  0
 17 35  1  0  0  0  0
 18  9  1  0  0  0  0
 18 10  2  0  0  0  0
 20 17  2  0  0  0  0
 20  4  1  0  0  0  0
 21 22  1  0  0  0  0
 22 11  1  0  0  0  0
 23  6  2  0  0  0  0
 24  6  1  0  0  0  0
 25 26  2  0  0  0  0
 26 24  1  0  0  0  0
 28 27  2  0  0  0  0
 28 26  1  0  0  0  0
 29 33  1  0  0  0  0
 29 27  1  0  0  0  0
 30 29  1  0  0  0  0
 31 32  1  0  0  0  0
 32 33  1  0  0  0  0
 34 30  1  0  0  0  0
 34 31  1  0  0  0  0
 34 32  1  0  0  0  0
 35 36  1  0  0  0  0
 37 21  1  0  0  0  0
 38 37  1  0  0  0  0
 39 41  1  0  0  0  0
 39 38  1  0  0  0  0
 40 41  1  0  0  0  0
M  END
>  <MODEL>
2

>  <REMARK>
 VINA RESULT:      -8.5      2.558      6.497
  Name = 
  8 active torsions:
  status: ('A' for Active; 'I' for Inactive)
    1  A    between atoms: C_2  and  C_33
    2  A    between atoms: C_8  and  C_16
    3  A    between atoms: C_8  and  C_20
    4  A    between atoms: C_9  and  C_26
    5  A    between atoms: N_10  and  C_11
    6  A    between atoms: C_16  and  O_24
    7  A    between atoms: C_20  and  N_39
    8  A    between atoms: C_34  and  C_38
                            x       y       z     vdW  Elec       q    Type
                         _______ _______ _______ _____ _____    ______ ____

>  <TORSDO>
F 8

$$$$
=
 OpenBabel10232408343D

 41 47  0  0  1  0  0  0  0  0999 V2000
  186.0800  178.4940  139.7140 C   0  0  0  0  0  0  0  0  0  0  0  0
  189.9920  177.4570  138.2290 C   0  0  0  0  0  0  0  0  0  0  0  0
  186.8030  178.2230  137.3350 C   0  0  1  0  0  3  0  0  0  0  0  0
  182.7880  179.8830  139.2260 C   0  0  0  0  0  1  0  0  0  0  0  0
  191.0940  176.9590  141.6140 C   0  0  0  0  0  3  0  0  0  0  0  0
  191.1050  176.8530  138.9990 C   0  0  0  0  0  0  0  0  0  0  0  0
  190.5020  178.1450  142.2980 C   0  0  0  0  0  2  0  0  0  0  0  0
  188.7970  178.1060  136.4330 C   0  0  1  0  0  3  0  0  0  0  0  0
  188.8520  177.9670  138.7190 C   0  0  1  0  0  3  0  0  0  0  0  0
  187.2670  178.2480  140.5710 C   0  0  0  0  0  0  0  0  0  0  0  0
  187.0740  178.2360  142.0610 C   0  0  0  0  0  2  0  0  0  0  0  0
  187.8600  177.7460  135.4310 N   0  0  0  0  0  0  0  0  0  0  0  0
  185.8060  177.8270  138.3850 C   0  0  2  0  0  3  0  0  0  0  0  0
  188.0760  178.4300  137.6020 C   0  0  2  0  0  3  0  0  0  0  0  0
  186.6980  177.8250  135.9560 N   0  0  0  0  0  0  0  0  0  0  0  0
  185.0950  179.2330  140.1090 N   0  0  0  0  0  0  0  0  0  0  0  0
  184.4600  178.4050  138.0920 C   0  0  0  0  0  0  0  0  0  0  0  0
  188.4420  177.9560  140.0910 N   0  0  0  0  0  0  0  0  0  0  0  0
  189.9100  177.4480  136.7450 C   0  0  0  0  0  3  0  0  0  0  0  0
  184.0980  179.1830  139.1020 C   0  0  0  0  0  0  0  0  0  0  0  0
  189.2850  177.7540  143.0020 N   0  0  0  0  0  0  0  0  0  0  0  0
  188.2790  178.7950  142.8160 C   0  0  0  0  0  2  0  0  0  0  0  0
  191.1140  176.9030  140.3110 C   0  0  0  0  0  0  0  0  0  0  0  0
  192.1870  176.2480  138.2710 N   0  0  0  0  0  2  0  0  0  0  0  0
  191.2550  174.1400  137.8210 O   0  0  0  0  0  0  0  0  0  0  0  0
  192.2360  174.9260  137.7160 C   0  0  0  0  0  0  0  0  0  0  0  0
  194.4220  173.8350  137.6350 C   0  0  0  0  0  3  0  0  0  0  0  0
  193.4530  174.5020  137.0170 C   0  0  0  0  0  3  0  0  0  0  0  0
  195.6500  173.4140  136.8970 C   0  0  2  0  0  3  0  0  0  0  0  0
  196.8480  173.4130  137.8240 C   0  0  0  0  0  2  0  0  0  0  0  0
  198.3520  174.6670  136.3600 N   0  0  0  0  0  2  0  0  0  0  0  0
  197.0510  175.3520  136.4020 C   0  0  1  0  0  3  0  0  0  0  0  0
  195.9750  174.4400  135.8360 C   0  0  0  0  0  2  0  0  0  0  0  0
  197.5830  174.7260  137.6130 C   0  0  1  0  0  3  0  0  0  0  0  0
  183.6050  178.0370  136.9200 C   0  0  0  0  0  2  0  0  0  0  0  0
  183.3750  176.5380  136.8820 C   0  0  0  0  0  1  0  0  0  0  0  0
  189.5570  177.5680  144.4340 C   0  0  0  0  0  2  0  0  0  0  0  0
  191.0240  177.7900  144.8280 C   0  0  0  0  0  2  0  0  0  0  0  0
  191.5740  176.6010  145.5980 C   0  0  0  0  0  2  0  0  0  0  0  0
  192.2610  175.7860  147.5290 C   0  0  0  0  0  1  0  0  0  0  0  0
  191.8150  176.9600  146.9250 O   0  0  0  0  0  0  0  0  0  0  0  0
  1 16  2  0  0  0  0
  1 10  1  0  0  0  0
  2  6  1  0  0  0  0
  3 15  1  6  0  0  0
  3 14  1  0  0  0  0
  3 13  1  0  0  0  0
  5  7  1  0  0  0  0
  6 23  2  0  0  0  0
  7 21  1  0  0  0  0
  8 19  1  1  0  0  0
  8 14  1  0  0  0  0
  9  2  1  6  0  0  0
  9 18  1  0  0  0  0
 10 11  1  0  0  0  0
 11 22  1  0  0  0  0
 12 15  2  0  0  0  0
 12  8  1  0  0  0  0
 13 17  1  6  0  0  0
 13  1  1  0  0  0  0
 14  9  1  0  0  0  0
 17 20  2  0  0  0  0
 18 10  2  0  0  0  0
 19  2  2  0  0  0  0
 20  4  1  0  0  0  0
 20 16  1  0  0  0  0
 21 37  1  0  0  0  0
 22 21  1  0  0  0  0
 23  5  2  0  0  0  0
 24  6  1  0  0  0  0
 26 25  2  0  0  0  0
 26 24  1  0  0  0  0
 28 27  2  0  0  0  0
 28 26  1  0  0  0  0
 29 27  1  0  0  0  0
 29 30  1  0  0  0  0
 31 32  1  0  0  0  0
 31 34  1  0  0  0  0
 32 34  1  0  0  0  0
 33 32  1  0  0  0  0
 33 29  1  0  0  0  0
 34 30  1  0  0  0  0
 35 17  1  0  0  0  0
 36 35  1  0  0  0  0
 37 38  1  0  0  0  0
 38 39  1  0  0  0  0
 39 41  1  0  0  0  0
 41 40  1  0  0  0  0
M  END
>  <MODEL>
3

>  <REMARK>
 VINA RESULT:      -7.7      2.460      3.687
  Name = 
  8 active torsions:
  status: ('A' for Active; 'I' for Inactive)
    1  A    between atoms: C_2  and  C_33
    2  A    between atoms: C_8  and  C_16
    3  A    between atoms: C_8  and  C_20
    4  A    between atoms: C_9  and  C_26
    5  A    between atoms: N_10  and  C_11
    6  A    between atoms: C_16  and  O_24
    7  A    between atoms: C_20  and  N_39
    8  A    between atoms: C_34  and  C_38
                            x       y       z     vdW  Elec       q    Type
                         _______ _______ _______ _____ _____    ______ ____

>  <TORSDO>
F 8

$$$$
=
 OpenBabel10232408343D

 41 47  0  0  1  0  0  0  0  0999 V2000
  192.8750  174.3320  136.1570 C   0  0  0  0  0  0  0  0  0  0  0  0
  191.3150  176.9430  139.2130 C   0  0  0  0  0  0  0  0  0  0  0  0
  194.0830  175.2970  138.1220 C   0  0  1  0  0  3  0  0  0  0  0  0
  195.6440  172.8990  134.3460 C   0  0  0  0  0  1  0  0  0  0  0  0
  188.0380  176.5860  137.7790 C   0  0  0  0  0  3  0  0  0  0  0  0
  189.8880  177.1900  139.5290 C   0  0  0  0  0  0  0  0  0  0  0  0
  188.3330  176.7200  136.3230 C   0  0  0  0  0  2  0  0  0  0  0  0
  193.5510  176.9230  139.4930 C   0  0  1  0  0  3  0  0  0  0  0  0
  191.8070  176.2980  138.1440 C   0  0  1  0  0  3  0  0  0  0  0  0
  191.4790  174.8370  136.2000 C   0  0  0  0  0  0  0  0  0  0  0  0
  190.5030  174.3090  135.1860 C   0  0  0  0  0  2  0  0  0  0  0  0
  194.6770  176.2600  140.0440 N   0  0  0  0  0  0  0  0  0  0  0  0
  193.7410  174.0490  137.3630 C   0  0  2  0  0  3  0  0  0  0  0  0
  193.2390  176.2990  138.2660 C   0  0  2  0  0  3  0  0  0  0  0  0
  194.9920  175.3200  139.2370 N   0  0  0  0  0  0  0  0  0  0  0  0
  193.4340  173.9680  135.0490 N   0  0  0  0  0  0  0  0  0  0  0  0
  194.9450  173.4920  136.6750 C   0  0  0  0  0  0  0  0  0  0  0  0
  191.0420  175.6410  137.1270 N   0  0  0  0  0  0  0  0  0  0  0  0
  192.4360  177.2520  140.1390 C   0  0  0  0  0  3  0  0  0  0  0  0
  194.7170  173.4580  135.3700 C   0  0  0  0  0  0  0  0  0  0  0  0
  188.3700  175.4000  135.7030 N   0  0  0  0  0  0  0  0  0  0  0  0
  189.4790  175.3570  134.7540 C   0  0  0  0  0  2  0  0  0  0  0  0
  188.9510  176.8970  138.6580 C   0  0  0  0  0  0  0  0  0  0  0  0
  189.5660  177.7930  140.7930 N   0  0  0  0  0  2  0  0  0  0  0  0
  189.9240  175.9670  142.2260 O   0  0  0  0  0  0  0  0  0  0  0  0
  189.5840  177.1740  142.0870 C   0  0  0  0  0  0  0  0  0  0  0  0
  189.2410  177.4800  144.4880 C   0  0  0  0  0  3  0  0  0  0  0  0
  189.2040  177.9740  143.2550 C   0  0  0  0  0  3  0  0  0  0  0  0
  188.8490  178.3180  145.6590 C   0  0  2  0  0  3  0  0  0  0  0  0
  189.5400  177.8270  146.9150 C   0  0  0  0  0  2  0  0  0  0  0  0
  187.5530  177.7700  148.3390 N   0  0  0  0  0  2  0  0  0  0  0  0
  187.2330  177.1310  147.0530 C   0  0  1  0  0  3  0  0  0  0  0  0
  187.3720  178.1450  145.9300 C   0  0  0  0  0  2  0  0  0  0  0  0
  188.5540  176.9380  147.6540 C   0  0  1  0  0  3  0  0  0  0  0  0
  196.1450  172.9290  137.3690 C   0  0  0  0  0  2  0  0  0  0  0  0
  195.8590  171.5240  137.8660 C   0  0  0  0  0  1  0  0  0  0  0  0
  187.1050  175.1210  135.0100 C   0  0  0  0  0  2  0  0  0  0  0  0
  186.1220  174.2640  135.8190 C   0  0  0  0  0  2  0  0  0  0  0  0
  186.8250  173.0860  136.4730 C   0  0  0  0  0  2  0  0  0  0  0  0
  185.0730  172.8620  137.7930 C   0  0  0  0  0  1  0  0  0  0  0  0
  186.4600  172.9970  137.8160 O   0  0  0  0  0  0  0  0  0  0  0  0
  1 10  1  0  0  0  0
  2  6  1  0  0  0  0
  2 19  2  0  0  0  0
  3 14  1  0  0  0  0
  3 15  1  1  0  0  0
  4 20  1  0  0  0  0
  5 23  2  0  0  0  0
  6 24  1  0  0  0  0
  7  5  1  0  0  0  0
  8 12  1  0  0  0  0
  8 19  1  1  0  0  0
  9 18  1  1  0  0  0
  9 14  1  0  0  0  0
  9  2  1  0  0  0  0
 10 18  2  0  0  0  0
 11 10  1  0  0  0  0
 13  1  1  6  0  0  0
 13  3  1  0  0  0  0
 14  8  1  0  0  0  0
 15 12  2  0  0  0  0
 16 20  1  0  0  0  0
 16  1  2  0  0  0  0
 17 13  1  0  0  0  0
 17 35  1  0  0  0  0
 20 17  2  0  0  0  0
 21  7  1  0  0  0  0
 22 11  1  0  0  0  0
 22 21  1  0  0  0  0
 23  6  2  0  0  0  0
 24 26  1  0  0  0  0
 26 25  2  0  0  0  0
 26 28  1  0  0  0  0
 27 29  1  0  0  0  0
 28 27  2  0  0  0  0
 29 33  1  0  0  0  0
 29 30  1  0  0  0  0
 30 34  1  0  0  0  0
 32 34  1  0  0  0  0
 32 31  1  0  0  0  0
 33 32  1  0  0  0  0
 34 31  1  0  0  0  0
 35 36  1  0  0  0  0
 37 21  1  0  0  0  0
 37 38  1  0  0  0  0
 38 39  1  0  0  0  0
 39 41  1  0  0  0  0
 40 41  1  0  0  0  0
M  END
>  <MODEL>
4

>  <REMARK>
 VINA RESULT:      -7.6      3.671     10.701
  Name = 
  8 active torsions:
  status: ('A' for Active; 'I' for Inactive)
    1  A    between atoms: C_2  and  C_33
    2  A    between atoms: C_8  and  C_16
    3  A    between atoms: C_8  and  C_20
    4  A    between atoms: C_9  and  C_26
    5  A    between atoms: N_10  and  C_11
    6  A    between atoms: C_16  and  O_24
    7  A    between atoms: C_20  and  N_39
    8  A    between atoms: C_34  and  C_38
                            x       y       z     vdW  Elec       q    Type
                         _______ _______ _______ _____ _____    ______ ____

>  <TORSDO>
F 8

$$$$
=
 OpenBabel10232408343D

 41 47  0  0  1  0  0  0  0  0999 V2000
  185.9060  178.5270  139.5270 C   0  0  0  0  0  0  0  0  0  0  0  0
  189.7720  177.3220  138.0480 C   0  0  0  0  0  0  0  0  0  0  0  0
  186.5850  178.1010  137.1590 C   0  0  1  0  0  3  0  0  0  0  0  0
  182.6360  179.9550  139.0080 C   0  0  0  0  0  1  0  0  0  0  0  0
  190.9190  177.0030  141.4400 C   0  0  0  0  0  3  0  0  0  0  0  0
  190.8850  176.7410  138.8350 C   0  0  0  0  0  0  0  0  0  0  0  0
  190.3620  178.2390  142.0610 C   0  0  0  0  0  2  0  0  0  0  0  0
  188.5610  177.8890  136.2340 C   0  0  1  0  0  3  0  0  0  0  0  0
  188.6510  177.8840  138.5240 C   0  0  1  0  0  3  0  0  0  0  0  0
  187.1020  178.3080  140.3790 C   0  0  0  0  0  0  0  0  0  0  0  0
  186.9330  178.3880  141.8710 C   0  0  0  0  0  2  0  0  0  0  0  0
  187.6010  177.4900  135.2700 N   0  0  0  0  0  0  0  0  0  0  0  0
  185.5970  177.7890  138.2450 C   0  0  2  0  0  3  0  0  0  0  0  0
  187.8660  178.2970  137.3930 C   0  0  2  0  0  3  0  0  0  0  0  0
  186.4490  177.6240  135.8080 N   0  0  0  0  0  0  0  0  0  0  0  0
  184.9430  179.3090  139.8930 N   0  0  0  0  0  0  0  0  0  0  0  0
  184.2580  178.3770  137.9390 C   0  0  0  0  0  0  0  0  0  0  0  0
  188.2630  177.9630  139.9000 N   0  0  0  0  0  0  0  0  0  0  0  0
  189.6650  177.2270  136.5680 C   0  0  0  0  0  3  0  0  0  0  0  0
  183.9290  179.2210  138.9060 C   0  0  0  0  0  0  0  0  0  0  0  0
  189.1500  177.9160  142.8050 N   0  0  0  0  0  0  0  0  0  0  0  0
  188.1620  178.9650  142.5720 C   0  0  0  0  0  2  0  0  0  0  0  0
  190.9170  176.8690  140.1410 C   0  0  0  0  0  0  0  0  0  0  0  0
  191.9420  176.0710  138.1290 N   0  0  0  0  0  2  0  0  0  0  0  0
  190.9090  174.0070  137.6970 O   0  0  0  0  0  0  0  0  0  0  0  0
  191.9300  174.7410  137.5930 C   0  0  0  0  0  0  0  0  0  0  0  0
  194.1600  173.7400  137.5860 C   0  0  0  0  0  3  0  0  0  0  0  0
  193.1310  174.2450  136.9140 C   0  0  0  0  0  3  0  0  0  0  0  0
  195.3700  173.2410  136.8680 C   0  0  2  0  0  3  0  0  0  0  0  0
  196.5680  173.2330  137.7940 C   0  0  0  0  0  2  0  0  0  0  0  0
  198.1180  174.3640  136.2800 N   0  0  0  0  0  2  0  0  0  0  0  0
  196.8440  175.1000  136.2910 C   0  0  1  0  0  3  0  0  0  0  0  0
  195.7330  174.2080  135.7630 C   0  0  0  0  0  2  0  0  0  0  0  0
  197.3530  174.5060  137.5280 C   0  0  1  0  0  3  0  0  0  0  0  0
  183.3780  177.9590  136.8040 C   0  0  0  0  0  2  0  0  0  0  0  0
  183.1040  176.4680  136.8680 C   0  0  0  0  0  1  0  0  0  0  0  0
  189.4410  177.8100  144.2410 C   0  0  0  0  0  2  0  0  0  0  0  0
  188.4320  176.9600  145.0250 C   0  0  0  0  0  2  0  0  0  0  0  0
  187.5810  177.8210  145.9440 C   0  0  0  0  0  2  0  0  0  0  0  0
  185.6710  178.8800  146.2480 C   0  0  0  0  0  1  0  0  0  0  0  0
  186.2880  177.9340  145.4310 O   0  0  0  0  0  0  0  0  0  0  0  0
  1 16  2  0  0  0  0
  1 10  1  0  0  0  0
  2  6  1  0  0  0  0
  3 15  1  6  0  0  0
  3 14  1  0  0  0  0
  3 13  1  0  0  0  0
  5  7  1  0  0  0  0
  6 23  2  0  0  0  0
  7 21  1  0  0  0  0
  8 19  1  1  0  0  0
  8 14  1  0  0  0  0
  9  2  1  6  0  0  0
  9 18  1  0  0  0  0
 10 11  1  0  0  0  0
 11 22  1  0  0  0  0
 12 15  2  0  0  0  0
 12  8  1  0  0  0  0
 13 17  1  6  0  0  0
 13  1  1  0  0  0  0
 14  9  1  0  0  0  0
 17 20  2  0  0  0  0
 18 10  2  0  0  0  0
 19  2  2  0  0  0  0
 20  4  1  0  0  0  0
 20 16  1  0  0  0  0
 21 37  1  0  0  0  0
 22 21  1  0  0  0  0
 23  5  2  0  0  0  0
 24  6  1  0  0  0  0
 26 25  2  0  0  0  0
 26 24  1  0  0  0  0
 28 27  2  0  0  0  0
 28 26  1  0  0  0  0
 29 27  1  0  0  0  0
 29 30  1  0  0  0  0
 31 32  1  0  0  0  0
 31 34  1  0  0  0  0
 32 34  1  0  0  0  0
 33 32  1  0  0  0  0
 33 29  1  0  0  0  0
 34 30  1  0  0  0  0
 35 36  1  0  0  0  0
 35 17  1  0  0  0  0
 37 38  1  0  0  0  0
 38 39  1  0  0  0  0
 41 39  1  0  0  0  0
 41 40  1  0  0  0  0
M  END
>  <MODEL>
5

>  <REMARK>
 VINA RESULT:      -7.6      2.687      4.057
  Name = 
  8 active torsions:
  status: ('A' for Active; 'I' for Inactive)
    1  A    between atoms: C_2  and  C_33
    2  A    between atoms: C_8  and  C_16
    3  A    between atoms: C_8  and  C_20
    4  A    between atoms: C_9  and  C_26
    5  A    between atoms: N_10  and  C_11
    6  A    between atoms: C_16  and  O_24
    7  A    between atoms: C_20  and  N_39
    8  A    between atoms: C_34  and  C_38
                            x       y       z     vdW  Elec       q    Type
                         _______ _______ _______ _____ _____    ______ ____

>  <TORSDO>
F 8

$$$$
=
 OpenBabel10232408343D

 41 47  0  0  1  0  0  0  0  0999 V2000
  184.0530  177.8650  137.7260 C   0  0  0  0  0  0  0  0  0  0  0  0
  188.3640  177.8450  137.6990 C   0  0  0  0  0  0  0  0  0  0  0  0
  185.5790  177.5870  135.7650 C   0  0  1  0  0  3  0  0  0  0  0  0
  180.8900  178.2110  136.0280 C   0  0  0  0  0  1  0  0  0  0  0  0
  188.3410  178.0030  141.2900 C   0  0  0  0  0  3  0  0  0  0  0  0
  189.2610  177.6570  138.8640 C   0  0  0  0  0  0  0  0  0  0  0  0
  187.2890  179.0310  141.5370 C   0  0  0  0  0  2  0  0  0  0  0  0
  187.7280  177.9560  135.5400 C   0  0  1  0  0  3  0  0  0  0  0  0
  187.0390  178.0550  137.7230 C   0  0  1  0  0  3  0  0  0  0  0  0
  184.9030  178.0490  138.9300 C   0  0  0  0  0  0  0  0  0  0  0  0
  184.2260  178.1230  140.2700 C   0  0  0  0  0  2  0  0  0  0  0  0
  187.3000  177.2520  134.3860 N   0  0  0  0  0  0  0  0  0  0  0  0
  184.4110  177.0250  136.5210 C   0  0  2  0  0  3  0  0  0  0  0  0
  186.6000  178.1710  136.3590 C   0  0  2  0  0  3  0  0  0  0  0  0
  186.0440  177.0470  134.5150 N   0  0  0  0  0  0  0  0  0  0  0  0
  182.8470  178.3280  137.6660 N   0  0  0  0  0  0  0  0  0  0  0  0
  183.1470  177.1670  135.7380 C   0  0  0  0  0  0  0  0  0  0  0  0
  186.2040  178.0580  138.8860 N   0  0  0  0  0  0  0  0  0  0  0  0
  188.7930  177.6730  136.2860 C   0  0  0  0  0  3  0  0  0  0  0  0
  182.2910  177.9030  136.4330 C   0  0  0  0  0  0  0  0  0  0  0  0
  186.0360  178.3790  141.9020 N   0  0  0  0  0  0  0  0  0  0  0  0
  184.9360  179.0690  141.2360 C   0  0  0  0  0  2  0  0  0  0  0  0
  188.8140  177.8320  140.0850 C   0  0  0  0  0  0  0  0  0  0  0  0
  190.6350  177.3180  138.6170 N   0  0  0  0  0  2  0  0  0  0  0  0
  190.4220  175.0220  138.1760 O   0  0  0  0  0  0  0  0  0  0  0  0
  191.1730  176.0290  138.2920 C   0  0  0  0  0  0  0  0  0  0  0  0
  193.1420  174.9320  137.3460 C   0  0  0  0  0  3  0  0  0  0  0  0
  192.6200  175.9000  138.0920 C   0  0  0  0  0  3  0  0  0  0  0  0
  194.6190  174.8270  137.1580 C   0  0  2  0  0  3  0  0  0  0  0  0
  194.9520  173.6760  136.2310 C   0  0  0  0  0  2  0  0  0  0  0  0
  196.6820  172.6630  137.6300 N   0  0  0  0  0  2  0  0  0  0  0  0
  195.5130  172.9700  138.4690 C   0  0  1  0  0  3  0  0  0  0  0  0
  195.2700  174.4700  138.4750 C   0  0  0  0  0  2  0  0  0  0  0  0
  195.3210  172.4870  137.1010 C   0  0  1  0  0  3  0  0  0  0  0  0
  182.8520  176.4630  134.4510 C   0  0  0  0  0  2  0  0  0  0  0  0
  182.7360  174.9680  134.6790 C   0  0  0  0  0  1  0  0  0  0  0  0
  185.8440  178.4150  143.3580 C   0  0  0  0  0  2  0  0  0  0  0  0
  184.3730  178.4360  143.7970 C   0  0  0  0  0  2  0  0  0  0  0  0
  184.2410  178.7910  145.2690 C   0  0  0  0  0  2  0  0  0  0  0  0
  185.5810  178.6590  147.0150 C   0  0  0  0  0  1  0  0  0  0  0  0
  185.4620  179.2540  145.7600 O   0  0  0  0  0  0  0  0  0  0  0  0
  1 10  1  0  0  0  0
  2  6  1  0  0  0  0
  3 15  1  1  0  0  0
  3 14  1  0  0  0  0
  3 13  1  0  0  0  0
  4 20  1  0  0  0  0
  5  7  1  0  0  0  0
  6 23  2  0  0  0  0
  7 21  1  0  0  0  0
  8 19  1  1  0  0  0
  8 14  1  0  0  0  0
  9  2  1  6  0  0  0
  9 18  1  0  0  0  0
 10 11  1  0  0  0  0
 11 22  1  0  0  0  0
 12 15  2  0  0  0  0
 12  8  1  0  0  0  0
 13 17  1  6  0  0  0
 13  1  1  0  0  0  0
 14  9  1  0  0  0  0
 16  1  2  0  0  0  0
 17 20  2  0  0  0  0
 18 10  2  0  0  0  0
 19  2  2  0  0  0  0
 20 16  1  0  0  0  0
 21 37  1  0  0  0  0
 22 21  1  0  0  0  0
 23  5  2  0  0  0  0
 24  6  1  0  0  0  0
 25 26  2  0  0  0  0
 26 24  1  0  0  0  0
 27 28  2  0  0  0  0
 28 26  1  0  0  0  0
 29 27  1  0  0  0  0
 29 33  1  0  0  0  0
 30 34  1  0  0  0  0
 30 29  1  0  0  0  0
 31 32  1  0  0  0  0
 32 33  1  0  0  0  0
 34 31  1  0  0  0  0
 34 32  1  0  0  0  0
 35 36  1  0  0  0  0
 35 17  1  0  0  0  0
 37 38  1  0  0  0  0
 38 39  1  0  0  0  0
 39 41  1  0  0  0  0
 41 40  1  0  0  0  0
M  END
>  <MODEL>
6

>  <REMARK>
 VINA RESULT:      -7.2      3.068      4.710
  Name = 
  8 active torsions:
  status: ('A' for Active; 'I' for Inactive)
    1  A    between atoms: C_2  and  C_33
    2  A    between atoms: C_8  and  C_16
    3  A    between atoms: C_8  and  C_20
    4  A    between atoms: C_9  and  C_26
    5  A    between atoms: N_10  and  C_11
    6  A    between atoms: C_16  and  O_24
    7  A    between atoms: C_20  and  N_39
    8  A    between atoms: C_34  and  C_38
                            x       y       z     vdW  Elec       q    Type
                         _______ _______ _______ _____ _____    ______ ____

>  <TORSDO>
F 8

$$$$
=
 OpenBabel10232408343D

 41 47  0  0  1  0  0  0  0  0999 V2000
  188.9070  177.4480  143.4390 C   0  0  0  0  0  0  0  0  0  0  0  0
  186.7570  178.3440  139.8110 C   0  0  0  0  0  0  0  0  0  0  0  0
  186.5330  178.1970  143.2000 C   0  0  1  0  0  3  0  0  0  0  0  0
  189.2970  177.6910  147.0150 C   0  0  0  0  0  1  0  0  0  0  0  0
  189.5970  177.2320  137.9080 C   0  0  0  0  0  3  0  0  0  0  0  0
  187.1360  177.9540  138.4320 C   0  0  0  0  0  0  0  0  0  0  0  0
  190.7220  177.8650  138.6540 C   0  0  0  0  0  2  0  0  0  0  0  0
  185.4520  179.0640  141.5010 C   0  0  1  0  0  3  0  0  0  0  0  0
  187.5120  178.2490  140.9150 C   0  0  1  0  0  3  0  0  0  0  0  0
  189.4900  177.3750  142.0750 C   0  0  0  0  0  0  0  0  0  0  0  0
  190.8850  176.8340  141.9290 C   0  0  0  0  0  2  0  0  0  0  0  0
  184.4890  178.7320  142.4870 N   0  0  0  0  0  0  0  0  0  0  0  0
  187.4620  177.1750  143.7890 C   0  0  2  0  0  3  0  0  0  0  0  0
  186.7260  178.7380  142.0140 C   0  0  2  0  0  3  0  0  0  0  0  0
  185.1230  178.2370  143.4810 N   0  0  0  0  0  0  0  0  0  0  0  0
  189.6430  177.6390  144.4850 N   0  0  0  0  0  0  0  0  0  0  0  0
  187.5390  177.3130  145.2740 C   0  0  0  0  0  0  0  0  0  0  0  0
  188.8200  177.6710  140.9980 N   0  0  0  0  0  0  0  0  0  0  0  0
  185.3880  178.7690  140.2060 C   0  0  0  0  0  3  0  0  0  0  0  0
  188.7940  177.5630  145.6180 C   0  0  0  0  0  0  0  0  0  0  0  0
  191.3550  176.8790  139.5240 N   0  0  0  0  0  0  0  0  0  0  0  0
  191.6640  177.5110  140.8040 C   0  0  0  0  0  2  0  0  0  0  0  0
  188.3670  177.5950  138.1550 C   0  0  0  0  0  0  0  0  0  0  0  0
  186.1320  178.0190  137.4060 N   0  0  0  0  0  2  0  0  0  0  0  0
  187.2100  176.8230  135.6960 O   0  0  0  0  0  0  0  0  0  0  0  0
  186.1960  177.4670  136.0830 C   0  0  0  0  0  0  0  0  0  0  0  0
  183.9500  176.9300  135.2830 C   0  0  0  0  0  3  0  0  0  0  0  0
  185.0560  177.6610  135.1840 C   0  0  0  0  0  3  0  0  0  0  0  0
  182.8030  177.1510  134.3540 C   0  0  2  0  0  3  0  0  0  0  0  0
  182.3780  178.6050  134.3760 C   0  0  0  0  0  2  0  0  0  0  0  0
  179.9830  178.2060  134.6580 N   0  0  0  0  0  2  0  0  0  0  0  0
  180.7190  177.3610  135.6100 C   0  0  1  0  0  3  0  0  0  0  0  0
  181.5990  176.3820  134.8500 C   0  0  0  0  0  2  0  0  0  0  0  0
  181.1930  178.7150  135.3210 C   0  0  1  0  0  3  0  0  0  0  0  0
  186.4070  177.0560  146.2190 C   0  0  0  0  0  2  0  0  0  0  0  0
  185.8120  178.3660  146.7000 C   0  0  0  0  0  1  0  0  0  0  0  0
  192.5850  176.3640  138.9080 C   0  0  0  0  0  2  0  0  0  0  0  0
  192.4990  176.1900  137.3850 C   0  0  0  0  0  2  0  0  0  0  0  0
  192.4620  174.7200  136.9990 C   0  0  0  0  0  2  0  0  0  0  0  0
  190.4170  173.9170  136.8130 C   0  0  0  0  0  1  0  0  0  0  0  0
  191.4450  174.4950  136.0710 O   0  0  0  0  0  0  0  0  0  0  0  0
  1 16  2  0  0  0  0
  2 19  2  0  0  0  0
  3 15  1  6  0  0  0
  3 13  1  0  0  0  0
  5 23  2  0  0  0  0
  5  7  1  0  0  0  0
  6  2  1  0  0  0  0
  7 21  1  0  0  0  0
  8 19  1  6  0  0  0
  8 14  1  0  0  0  0
  8 12  1  0  0  0  0
  9  2  1  1  0  0  0
  9 18  1  0  0  0  0
  9 14  1  0  0  0  0
 10  1  1  0  0  0  0
 11 10  1  0  0  0  0
 12 15  2  0  0  0  0
 13  1  1  6  0  0  0
 13 17  1  0  0  0  0
 14  3  1  0  0  0  0
 16 20  1  0  0  0  0
 17 20  2  0  0  0  0
 17 35  1  0  0  0  0
 18 10  2  0  0  0  0
 20  4  1  0  0  0  0
 21 22  1  0  0  0  0
 22 11  1  0  0  0  0
 23  6  2  0  0  0  0
 24  6  1  0  0  0  0
 25 26  2  0  0  0  0
 26 24  1  0  0  0  0
 28 27  2  0  0  0  0
 28 26  1  0  0  0  0
 29 30  1  0  0  0  0
 29 33  1  0  0  0  0
 29 27  1  0  0  0  0
 30 34  1  0  0  0  0
 31 34  1  0  0  0  0
 31 32  1  0  0  0  0
 33 32  1  0  0  0  0
 34 32  1  0  0  0  0
 35 36  1  0  0  0  0
 37 21  1  0  0  0  0
 38 37  1  0  0  0  0
 39 38  1  0  0  0  0
 41 40  1  0  0  0  0
 41 39  1  0  0  0  0
M  END
>  <MODEL>
7

>  <REMARK>
 VINA RESULT:      -6.8      3.128      7.857
  Name = 
  8 active torsions:
  status: ('A' for Active; 'I' for Inactive)
    1  A    between atoms: C_2  and  C_33
    2  A    between atoms: C_8  and  C_16
    3  A    between atoms: C_8  and  C_20
    4  A    between atoms: C_9  and  C_26
    5  A    between atoms: N_10  and  C_11
    6  A    between atoms: C_16  and  O_24
    7  A    between atoms: C_20  and  N_39
    8  A    between atoms: C_34  and  C_38
                            x       y       z     vdW  Elec       q    Type
                         _______ _______ _______ _____ _____    ______ ____

>  <TORSDO>
F 8

$$$$
=
 OpenBabel10232408343D

 41 47  0  0  1  0  0  0  0  0999 V2000
  189.4250  177.4810  143.0230 C   0  0  0  0  0  0  0  0  0  0  0  0
  186.4050  178.5040  140.1220 C   0  0  0  0  0  0  0  0  0  0  0  0
  187.0890  178.2660  143.4430 C   0  0  1  0  0  3  0  0  0  0  0  0
  190.7580  177.6210  146.3710 C   0  0  0  0  0  1  0  0  0  0  0  0
  188.6140  177.4110  137.5050 C   0  0  0  0  0  3  0  0  0  0  0  0
  186.3950  178.1480  138.6830 C   0  0  0  0  0  0  0  0  0  0  0  0
  189.9090  178.0090  137.9390 C   0  0  0  0  0  2  0  0  0  0  0  0
  185.6110  179.1920  142.1150 C   0  0  1  0  0  3  0  0  0  0  0  0
  187.4250  178.3690  140.9820 C   0  0  1  0  0  3  0  0  0  0  0  0
  189.6230  177.4390  141.5520 C   0  0  0  0  0  0  0  0  0  0  0  0
  190.9180  176.8860  141.0270 C   0  0  0  0  0  2  0  0  0  0  0  0
  184.9390  178.8450  143.3140 N   0  0  0  0  0  0  0  0  0  0  0  0
  188.1210  177.2170  143.7390 C   0  0  2  0  0  3  0  0  0  0  0  0
  186.9690  178.8370  142.2620 C   0  0  2  0  0  3  0  0  0  0  0  0
  185.8050  178.3150  144.0910 N   0  0  0  0  0  0  0  0  0  0  0  0
  190.4170  177.6340  143.8390 N   0  0  0  0  0  0  0  0  0  0  0  0
  188.5930  177.3120  145.1530 C   0  0  0  0  0  0  0  0  0  0  0  0
  188.6960  177.7740  140.7000 N   0  0  0  0  0  0  0  0  0  0  0  0
  185.1990  178.9340  140.8770 C   0  0  0  0  0  3  0  0  0  0  0  0
  189.8980  177.5370  145.1560 C   0  0  0  0  0  0  0  0  0  0  0  0
  190.7320  176.9930  138.5850 N   0  0  0  0  0  0  0  0  0  0  0  0
  191.3820  177.5850  139.7500 C   0  0  0  0  0  2  0  0  0  0  0  0
  187.5020  177.7820  138.0790 C   0  0  0  0  0  0  0  0  0  0  0  0
  185.1560  178.2530  137.9630 N   0  0  0  0  0  2  0  0  0  0  0  0
  185.3350  176.3820  136.5560 O   0  0  0  0  0  0  0  0  0  0  0  0
  184.6680  177.3860  136.9300 C   0  0  0  0  0  0  0  0  0  0  0  0
  182.2490  177.7190  137.0230 C   0  0  0  0  0  3  0  0  0  0  0  0
  183.3720  177.6850  136.3140 C   0  0  0  0  0  3  0  0  0  0  0  0
  180.9430  178.0270  136.3700 C   0  0  2  0  0  3  0  0  0  0  0  0
  181.0840  177.9840  134.8620 C   0  0  0  0  0  2  0  0  0  0  0  0
  179.9820  180.1170  134.4030 N   0  0  0  0  0  2  0  0  0  0  0  0
  180.9470  180.3080  135.4960 C   0  0  1  0  0  3  0  0  0  0  0  0
  180.5470  179.4520  136.6860 C   0  0  0  0  0  2  0  0  0  0  0  0
  181.2730  179.4140  134.3850 C   0  0  1  0  0  3  0  0  0  0  0  0
  187.7480  177.0430  146.3590 C   0  0  0  0  0  2  0  0  0  0  0  0
  188.2470  177.8470  147.5440 C   0  0  0  0  0  1  0  0  0  0  0  0
  191.7440  176.4800  137.6510 C   0  0  0  0  0  2  0  0  0  0  0  0
  193.0750  176.1010  138.3140 C   0  0  0  0  0  2  0  0  0  0  0  0
  193.8490  175.1040  137.4660 C   0  0  0  0  0  2  0  0  0  0  0  0
  194.3310  176.1840  135.6050 C   0  0  0  0  0  1  0  0  0  0  0  0
  194.8940  175.7500  136.8040 O   0  0  0  0  0  0  0  0  0  0  0  0
  1 16  2  0  0  0  0
  2 19  2  0  0  0  0
  3 13  1  0  0  0  0
  3 15  1  6  0  0  0
  5  7  1  0  0  0  0
  5 23  2  0  0  0  0
  6  2  1  0  0  0  0
  7 21  1  0  0  0  0
  8 19  1  6  0  0  0
  8 14  1  0  0  0  0
  8 12  1  0  0  0  0
  9  2  1  1  0  0  0
  9 14  1  0  0  0  0
 10  1  1  0  0  0  0
 11 10  1  0  0  0  0
 12 15  2  0  0  0  0
 13  1  1  6  0  0  0
 13 17  1  0  0  0  0
 14  3  1  0  0  0  0
 16 20  1  0  0  0  0
 17 20  2  0  0  0  0
 17 35  1  0  0  0  0
 18  9  1  0  0  0  0
 18 10  2  0  0  0  0
 20  4  1  0  0  0  0
 21 22  1  0  0  0  0
 22 11  1  0  0  0  0
 23  6  2  0  0  0  0
 24  6  1  0  0  0  0
 25 26  2  0  0  0  0
 26 24  1  0  0  0  0
 28 26  1  0  0  0  0
 28 27  2  0  0  0  0
 29 33  1  0  0  0  0
 29 27  1  0  0  0  0
 30 29  1  0  0  0  0
 31 32  1  0  0  0  0
 32 33  1  0  0  0  0
 34 31  1  0  0  0  0
 34 30  1  0  0  0  0
 34 32  1  0  0  0  0
 35 36  1  0  0  0  0
 37 38  1  0  0  0  0
 37 21  1  0  0  0  0
 39 38  1  0  0  0  0
 40 41  1  0  0  0  0
 41 39  1  0  0  0  0
M  END
>  <MODEL>
8

>  <REMARK>
 VINA RESULT:      -6.6      3.048      8.494
  Name = 
  8 active torsions:
  status: ('A' for Active; 'I' for Inactive)
    1  A    between atoms: C_2  and  C_33
    2  A    between atoms: C_8  and  C_16
    3  A    between atoms: C_8  and  C_20
    4  A    between atoms: C_9  and  C_26
    5  A    between atoms: N_10  and  C_11
    6  A    between atoms: C_16  and  O_24
    7  A    between atoms: C_20  and  N_39
    8  A    between atoms: C_34  and  C_38
                            x       y       z     vdW  Elec       q    Type
                         _______ _______ _______ _____ _____    ______ ____

>  <TORSDO>
F 8

$$$$
=
 OpenBabel10232408343D

 41 47  0  0  1  0  0  0  0  0999 V2000
  183.7540  173.6960  136.7920 C   0  0  0  0  0  0  0  0  0  0  0  0
  187.9310  174.6930  136.4120 C   0  0  0  0  0  0  0  0  0  0  0  0
  185.5960  172.2830  135.8650 C   0  0  1  0  0  3  0  0  0  0  0  0
  180.8950  171.6920  135.8910 C   0  0  0  0  0  1  0  0  0  0  0  0
  187.3090  177.7700  138.1630 C   0  0  0  0  0  3  0  0  0  0  0  0
  188.6520  175.7890  137.1020 C   0  0  0  0  0  0  0  0  0  0  0  0
  186.0480  178.2320  137.5150 C   0  0  0  0  0  2  0  0  0  0  0  0
  187.6360  172.7890  135.2430 C   0  0  1  0  0  3  0  0  0  0  0  0
  186.6040  174.5000  136.3650 C   0  0  1  0  0  3  0  0  0  0  0  0
  184.3480  174.9970  137.1920 C   0  0  0  0  0  0  0  0  0  0  0  0
  183.4670  175.9930  137.8920 C   0  0  0  0  0  2  0  0  0  0  0  0
  187.5450  171.3740  135.2730 N   0  0  0  0  0  0  0  0  0  0  0  0
  184.4580  172.3600  136.8400 C   0  0  2  0  0  3  0  0  0  0  0  0
  186.3730  173.3110  135.5910 C   0  0  2  0  0  3  0  0  0  0  0  0
  186.3510  171.0820  135.6250 N   0  0  0  0  0  0  0  0  0  0  0  0
  182.5040  173.5870  136.4760 N   0  0  0  0  0  0  0  0  0  0  0  0
  183.3320  171.4730  136.4220 C   0  0  0  0  0  0  0  0  0  0  0  0
  185.6120  175.2760  137.0460 N   0  0  0  0  0  0  0  0  0  0  0  0
  188.6040  173.5280  135.7790 C   0  0  0  0  0  3  0  0  0  0  0  0
  182.2480  172.2130  136.2390 C   0  0  0  0  0  0  0  0  0  0  0  0
  184.9080  177.9170  138.3700 N   0  0  0  0  0  0  0  0  0  0  0  0
  183.8120  177.4370  137.5340 C   0  0  0  0  0  2  0  0  0  0  0  0
  187.9910  176.7910  137.6340 C   0  0  0  0  0  0  0  0  0  0  0  0
  190.0870  175.7430  137.1380 N   0  0  0  0  0  2  0  0  0  0  0  0
  190.4520  176.0060  139.4430 O   0  0  0  0  0  0  0  0  0  0  0  0
  190.9370  175.8580  138.2880 C   0  0  0  0  0  0  0  0  0  0  0  0
  192.9580  174.8930  137.3070 C   0  0  0  0  0  3  0  0  0  0  0  0
  192.3900  175.7980  138.0980 C   0  0  0  0  0  3  0  0  0  0  0  0
  194.4390  174.8550  137.1310 C   0  0  2  0  0  3  0  0  0  0  0  0
  194.8420  173.6510  136.3050 C   0  0  0  0  0  2  0  0  0  0  0  0
  196.6170  172.8580  137.7880 N   0  0  0  0  0  2  0  0  0  0  0  0
  195.4270  173.1700  138.5960 C   0  0  1  0  0  3  0  0  0  0  0  0
  195.1000  174.6490  138.4750 C   0  0  0  0  0  2  0  0  0  0  0  0
  195.2710  172.5620  137.2740 C   0  0  1  0  0  3  0  0  0  0  0  0
  183.3910  169.9780  136.3690 C   0  0  0  0  0  2  0  0  0  0  0  0
  183.3420  169.4970  134.9310 C   0  0  0  0  0  1  0  0  0  0  0  0
  184.4840  179.1080  139.1200 C   0  0  0  0  0  2  0  0  0  0  0  0
  183.6650  178.7960  140.3790 C   0  0  0  0  0  2  0  0  0  0  0  0
  184.5600  178.6540  141.6000 C   0  0  0  0  0  2  0  0  0  0  0  0
  186.7580  178.6910  141.7780 C   0  0  0  0  0  1  0  0  0  0  0  0
  185.6620  179.5020  141.4850 O   0  0  0  0  0  0  0  0  0  0  0  0
  1 13  1  0  0  0  0
  1 10  1  0  0  0  0
  2  6  1  0  0  0  0
  3 15  1  1  0  0  0
  3 13  1  0  0  0  0
  4 20  1  0  0  0  0
  6 24  1  0  0  0  0
  6 23  2  0  0  0  0
  7  5  1  0  0  0  0
  7 21  1  0  0  0  0
  8 12  1  0  0  0  0
  8 14  1  0  0  0  0
  8 19  1  1  0  0  0
  9  2  1  1  0  0  0
  9 18  1  0  0  0  0
 10 11  1  0  0  0  0
 12 15  2  0  0  0  0
 13 17  1  6  0  0  0
 14  3  1  0  0  0  0
 14  9  1  0  0  0  0
 16  1  2  0  0  0  0
 18 10  2  0  0  0  0
 19  2  2  0  0  0  0
 20 17  2  0  0  0  0
 20 16  1  0  0  0  0
 21 37  1  0  0  0  0
 22 11  1  0  0  0  0
 22 21  1  0  0  0  0
 23  5  2  0  0  0  0
 24 26  1  0  0  0  0
 26 25  2  0  0  0  0
 27 28  2  0  0  0  0
 28 26  1  0  0  0  0
 29 27  1  0  0  0  0
 29 33  1  0  0  0  0
 30 29  1  0  0  0  0
 30 34  1  0  0  0  0
 31 32  1  0  0  0  0
 33 32  1  0  0  0  0
 34 31  1  0  0  0  0
 34 32  1  0  0  0  0
 35 17  1  0  0  0  0
 36 35  1  0  0  0  0
 37 38  1  0  0  0  0
 38 39  1  0  0  0  0
 41 39  1  0  0  0  0
 41 40  1  0  0  0  0
M  END
>  <MODEL>
9

>  <REMARK>
 VINA RESULT:      -6.5      4.502      7.025
  Name = 
  8 active torsions:
  status: ('A' for Active; 'I' for Inactive)
    1  A    between atoms: C_2  and  C_33
    2  A    between atoms: C_8  and  C_16
    3  A    between atoms: C_8  and  C_20
    4  A    between atoms: C_9  and  C_26
    5  A    between atoms: N_10  and  C_11
    6  A    between atoms: C_16  and  O_24
    7  A    between atoms: C_20  and  N_39
    8  A    between atoms: C_34  and  C_38
                            x       y       z     vdW  Elec       q    Type
                         _______ _______ _______ _____ _____    ______ ____

>  <TORSDO>
F 8

$$$$
