=
 OpenBabel10232411503D

 47 49  0  0  1  0  0  0  0  0999 V2000
  190.7760  177.3370  141.0830 C   0  0  0  0  0  0  0  0  0  0  0  0
  190.0500  177.2020  138.7560 C   0  0  0  0  0  0  0  0  0  0  0  0
  192.4210  177.2290  139.3000 C   0  0  0  0  0  3  0  0  0  0  0  0
  191.3960  177.1790  138.3550 C   0  0  0  0  0  3  0  0  0  0  0  0
  189.7370  177.2850  140.1290 C   0  0  0  0  0  0  0  0  0  0  0  0
  192.1120  177.3070  140.6570 C   0  0  0  0  0  3  0  0  0  0  0  0
  191.0910  176.7430  143.3520 N   0  0  0  0  0  0  0  0  0  0  0  0
  190.4630  177.4240  142.4790 N   0  0  0  0  0  0  0  0  0  0  0  0
  191.3740  176.5410  147.0800 C   0  0  0  0  0  3  0  0  0  0  0  0
  191.7010  176.4390  145.7260 C   0  0  0  0  0  3  0  0  0  0  0  0
  190.7780  176.8350  144.7440 C   0  0  0  0  0  0  0  0  0  0  0  0
  189.1950  177.4290  146.4920 C   0  0  0  0  0  0  0  0  0  0  0  0
  190.1230  177.0370  147.4620 C   0  0  0  0  0  3  0  0  0  0  0  0
  189.5280  177.3340  145.1330 C   0  0  0  0  0  3  0  0  0  0  0  0
  187.8760  177.9830  146.9250 C   0  0  2  0  0  3  0  0  0  0  0  0
  187.5890  177.5830  148.2310 O   0  0  0  0  0  1  0  0  0  0  0  0
  186.7710  177.5250  145.9800 C   0  0  0  0  0  2  0  0  0  0  0  0
  184.7340  178.7030  146.6060 N   0  0  0  0  0  1  0  0  0  0  0  0
  185.8250  178.6690  145.6470 C   0  0  0  0  0  2  0  0  0  0  0  0
  188.9610  177.1450  137.7190 C   0  0  2  0  0  3  0  0  0  0  0  0
  187.7470  175.2570  136.7340 O   0  0  0  0  0  0  0  0  0  0  0  0
  189.9950  174.8490  137.4200 C   0  0  0  0  0  2  0  0  0  0  0  0
  189.4120  173.5570  136.9650 C   0  0  0  0  0  2  0  0  0  0  0  0
  187.9340  173.8660  136.8720 C   0  0  2  0  0  3  0  0  0  0  0  0
  189.0130  175.8570  136.8780 C   0  0  2  0  0  3  0  0  0  0  0  0
  187.3480  173.1780  135.7300 N   0  0  0  0  0  2  0  0  0  0  0  0
  185.9210  173.4650  135.7220 C   0  0  0  0  0  2  0  0  0  0  0  0
  184.9080  171.3280  136.0140 O   0  0  0  0  0  0  0  0  0  0  0  0
  185.1880  172.4440  136.5240 C   0  0  0  0  0  0  0  0  0  0  0  0
  184.8150  172.7250  137.8370 O   0  0  0  0  0  1  0  0  0  0  0  0
  187.4440  178.6140  136.2660 C   0  0  0  0  0  1  0  0  0  0  0  0
  188.7890  178.4750  136.9620 C   0  0  1  0  0  3  0  0  0  0  0  0
  189.0010  179.5610  137.8140 O   0  0  0  0  0  1  0  0  0  0  0  0
  188.3080  177.2970  140.5920 C   0  0  0  0  0  2  0  0  0  0  0  0
  187.8690  178.7150  140.9270 C   0  0  0  0  0  2  0  0  0  0  0  0
  185.6470  179.1460  139.1940 O   0  0  0  0  0  0  0  0  0  0  0  0
  185.3990  178.9040  140.4070 C   0  0  0  0  0  0  0  0  0  0  0  0
  184.0490  178.8050  140.8590 N   0  0  0  0  0  2  0  0  0  0  0  0
  186.4710  178.7190  141.3400 N   0  0  0  0  0  2  0  0  0  0  0  0
  182.9160  179.0040  139.9610 C   0  0  0  0  0  2  0  0  0  0  0  0
  182.1420  177.7020  139.7540 C   0  0  1  0  0  0  0  0  0  0  0  0
  182.9000  176.6240  140.2120 O   0  0  0  0  0  1  0  0  0  0  0  0
  180.8190  177.7410  140.5010 C   0  0  0  0  0  1  0  0  0  0  0  0
  181.4420  175.8650  137.6580 O   0  0  0  0  0  1  0  0  0  0  0  0
  180.5190  178.4620  137.5060 O   0  0  0  0  0  1  0  0  0  0  0  0
  181.8180  177.4840  137.9750 P   0  0  0  0  0  0  0  0  0  0  0  0
  183.0490  177.8720  137.1860 O   0  0  0  0  0  0  0  0  0  0  0  0
  1  8  1  0  0  0  0
  2  5  1  0  0  0  0
  3  6  2  0  0  0  0
  4  2  2  0  0  0  0
  4  3  1  0  0  0  0
  5 34  1  0  0  0  0
  5  1  2  0  0  0  0
  6  1  1  0  0  0  0
  7 11  1  0  0  0  0
  8  7  2  0  0  0  0
  9 13  1  0  0  0  0
 10  9  2  0  0  0  0
 11 14  2  0  0  0  0
 11 10  1  0  0  0  0
 12 15  1  0  0  0  0
 12 13  2  0  0  0  0
 14 12  1  0  0  0  0
 15 16  1  1  0  0  0
 17 15  1  0  0  0  0
 19 17  1  0  0  0  0
 19 18  1  0  0  0  0
 20 32  1  6  0  0  0
 20  2  1  0  0  0  0
 21 24  1  0  0  0  0
 21 25  1  0  0  0  0
 23 22  1  0  0  0  0
 24 26  1  6  0  0  0
 24 23  1  0  0  0  0
 25 22  1  0  0  0  0
 25 20  1  1  0  0  0
 27 26  1  0  0  0  0
 27 29  1  0  0  0  0
 28 29  2  0  0  0  0
 29 30  1  0  0  0  0
 32 31  1  1  0  0  0
 32 33  1  0  0  0  0
 34 35  1  0  0  0  0
 35 39  1  0  0  0  0
 36 37  2  0  0  0  0
 37 38  1  0  0  0  0
 37 39  1  0  0  0  0
 40 38  1  0  0  0  0
 41 40  1  0  0  0  0
 41 42  1  0  0  0  0
 41 43  1  1  0  0  0
 44 46  1  0  0  0  0
 45 46  1  0  0  0  0
 46 41  1  0  0  0  0
 47 46  2  0  0  0  0
M  END
>  <MODEL>
1

>  <REMARK>
 VINA RESULT:      -7.8      0.000      0.000
  Name = 
  17 active torsions:
  status: ('A' for Active; 'I' for Inactive)
    1  A    between atoms: C_1  and  P_25
    2  A    between atoms: C_1  and  C_39
    3  A    between atoms: N_4  and  C_34
    4  A    between atoms: C_7  and  N_35
    5  A    between atoms: C_10  and  C_24
    6  A    between atoms: C_15  and  C_29
    7  A    between atoms: C_17  and  C_29
    8  A    between atoms: C_17  and  N_42
    9  A    between atoms: C_19  and  C_37
   10  A    between atoms: C_19  and  C_41
   11  A    between atoms: C_21  and  N_33
   12  A    between atoms: C_22  and  C_46
   13  A    between atoms: C_24  and  C_28
   14  A    between atoms: C_24  and  C_32
   15  A    between atoms: C_26  and  C_37
   16  A    between atoms: N_33  and  C_46
   17  A    between atoms: N_36  and  C_39
                            x       y       z     vdW  Elec       q    Type
                         _______ _______ _______ _____ _____    ______ ____

>  <TORSDO>
F 17

$$$$
=
 OpenBabel10232411503D

 47 49  0  0  1  0  0  0  0  0999 V2000
  183.0540  178.6720  142.8330 C   0  0  0  0  0  0  0  0  0  0  0  0
  181.7510  178.6140  140.7700 C   0  0  0  0  0  0  0  0  0  0  0  0
  180.7490  179.4360  142.8280 C   0  0  0  0  0  3  0  0  0  0  0  0
  180.6530  179.1410  141.4680 C   0  0  0  0  0  3  0  0  0  0  0  0
  182.9600  178.3750  141.4580 C   0  0  0  0  0  0  0  0  0  0  0  0
  181.9440  179.2030  143.5070 C   0  0  0  0  0  3  0  0  0  0  0  0
  184.3710  178.5780  144.7980 N   0  0  0  0  0  0  0  0  0  0  0  0
  184.2790  178.4280  143.5370 N   0  0  0  0  0  0  0  0  0  0  0  0
  186.9110  178.3240  147.5360 C   0  0  0  0  0  3  0  0  0  0  0  0
  185.7070  178.5760  146.8750 C   0  0  0  0  0  3  0  0  0  0  0  0
  185.5930  178.3310  145.4960 C   0  0  0  0  0  0  0  0  0  0  0  0
  187.9070  177.5840  145.4520 C   0  0  0  0  0  0  0  0  0  0  0  0
  188.0090  177.8260  146.8260 C   0  0  0  0  0  3  0  0  0  0  0  0
  186.6950  177.8300  144.7910 C   0  0  0  0  0  3  0  0  0  0  0  0
  189.0850  177.0260  144.7200 C   0  0  2  0  0  3  0  0  0  0  0  0
  190.1980  176.9760  145.5610 O   0  0  0  0  0  1  0  0  0  0  0  0
  189.3940  177.8690  143.4880 C   0  0  0  0  0  2  0  0  0  0  0  0
  190.0050  175.6270  142.7610 N   0  0  0  0  0  1  0  0  0  0  0  0
  189.7980  176.9930  142.3120 C   0  0  0  0  0  2  0  0  0  0  0  0
  181.6250  178.3050  139.3020 C   0  0  2  0  0  3  0  0  0  0  0  0
  182.6160  176.7740  137.6640 O   0  0  0  0  0  0  0  0  0  0  0  0
  180.9620  175.8650  139.1230 C   0  0  0  0  0  2  0  0  0  0  0  0
  181.3420  174.8090  138.1430 C   0  0  0  0  0  2  0  0  0  0  0  0
  182.1230  175.5790  137.1010 C   0  0  2  0  0  3  0  0  0  0  0  0
  182.0710  176.8720  138.9590 C   0  0  2  0  0  3  0  0  0  0  0  0
  183.2330  174.7740  136.6110 N   0  0  0  0  0  2  0  0  0  0  0  0
  184.1340  174.5330  137.7300 C   0  0  0  0  0  2  0  0  0  0  0  0
  185.8770  172.9300  137.9980 O   0  0  0  0  0  1  0  0  0  0  0  0
  184.6860  173.1500  137.6540 C   0  0  0  0  0  0  0  0  0  0  0  0
  183.8850  172.1030  137.2060 O   0  0  0  0  0  0  0  0  0  0  0  0
  181.3110  179.6830  137.1640 C   0  0  0  0  0  1  0  0  0  0  0  0
  182.1530  179.4410  138.4070 C   0  0  1  0  0  3  0  0  0  0  0  0
  182.2810  180.6260  139.1350 O   0  0  0  0  0  1  0  0  0  0  0  0
  184.1580  177.8250  140.7370 C   0  0  0  0  0  2  0  0  0  0  0  0
  185.0540  178.9550  140.2520 C   0  0  0  0  0  2  0  0  0  0  0  0
  187.8170  178.4540  139.7620 O   0  0  0  0  0  0  0  0  0  0  0  0
  187.0240  178.3360  138.7880 C   0  0  0  0  0  0  0  0  0  0  0  0
  187.5080  177.9180  137.5130 N   0  0  0  0  0  2  0  0  0  0  0  0
  185.6280  178.6140  138.9570 N   0  0  0  0  0  2  0  0  0  0  0  0
  188.9220  177.6410  137.2760 C   0  0  0  0  0  2  0  0  0  0  0  0
  189.1340  176.1860  136.8570 C   0  0  1  0  0  0  0  0  0  0  0  0
  188.0430  175.4150  137.2590 O   0  0  0  0  0  1  0  0  0  0  0  0
  189.2990  176.0810  135.3500 C   0  0  0  0  0  1  0  0  0  0  0  0
  190.6960  173.8680  137.5230 O   0  0  0  0  0  1  0  0  0  0  0  0
  192.0080  176.2250  136.9370 O   0  0  0  0  0  0  0  0  0  0  0  0
  190.6370  175.5530  137.6670 P   0  0  0  0  0  0  0  0  0  0  0  0
  190.6160  175.9250  139.1330 O   0  0  0  0  0  1  0  0  0  0  0  0
  1  6  1  0  0  0  0
  1  8  1  0  0  0  0
  2  5  1  0  0  0  0
  2  4  2  0  0  0  0
  3  6  2  0  0  0  0
  4  3  1  0  0  0  0
  5  1  2  0  0  0  0
  7 11  1  0  0  0  0
  8  7  2  0  0  0  0
 10  9  1  0  0  0  0
 11 10  2  0  0  0  0
 12 13  1  0  0  0  0
 13  9  2  0  0  0  0
 14 12  2  0  0  0  0
 14 11  1  0  0  0  0
 15 12  1  0  0  0  0
 15 16  1  1  0  0  0
 17 15  1  0  0  0  0
 19 18  1  0  0  0  0
 19 17  1  0  0  0  0
 20 32  1  6  0  0  0
 20  2  1  0  0  0  0
 21 25  1  0  0  0  0
 23 22  1  0  0  0  0
 24 26  1  1  0  0  0
 24 21  1  0  0  0  0
 24 23  1  0  0  0  0
 25 22  1  0  0  0  0
 25 20  1  6  0  0  0
 26 27  1  0  0  0  0
 29 27  1  0  0  0  0
 29 28  1  0  0  0  0
 30 29  2  0  0  0  0
 32 31  1  6  0  0  0
 32 33  1  0  0  0  0
 34  5  1  0  0  0  0
 35 34  1  0  0  0  0
 37 39  1  0  0  0  0
 37 36  2  0  0  0  0
 38 37  1  0  0  0  0
 39 35  1  0  0  0  0
 40 38  1  0  0  0  0
 41 43  1  6  0  0  0
 41 42  1  0  0  0  0
 41 40  1  0  0  0  0
 41 46  1  0  0  0  0
 44 46  1  0  0  0  0
 45 46  2  0  0  0  0
 46 47  1  0  0  0  0
M  END
>  <MODEL>
2

>  <REMARK>
 VINA RESULT:      -7.8      2.656      6.674
  Name = 
  17 active torsions:
  status: ('A' for Active; 'I' for Inactive)
    1  A    between atoms: C_1  and  P_25
    2  A    between atoms: C_1  and  C_39
    3  A    between atoms: N_4  and  C_34
    4  A    between atoms: C_7  and  N_35
    5  A    between atoms: C_10  and  C_24
    6  A    between atoms: C_15  and  C_29
    7  A    between atoms: C_17  and  C_29
    8  A    between atoms: C_17  and  N_42
    9  A    between atoms: C_19  and  C_37
   10  A    between atoms: C_19  and  C_41
   11  A    between atoms: C_21  and  N_33
   12  A    between atoms: C_22  and  C_46
   13  A    between atoms: C_24  and  C_28
   14  A    between atoms: C_24  and  C_32
   15  A    between atoms: C_26  and  C_37
   16  A    between atoms: N_33  and  C_46
   17  A    between atoms: N_36  and  C_39
                            x       y       z     vdW  Elec       q    Type
                         _______ _______ _______ _____ _____    ______ ____

>  <TORSDO>
F 17

$$$$
=
 OpenBabel10232411503D

 47 49  0  0  1  0  0  0  0  0999 V2000
  183.1530  178.6850  143.2250 C   0  0  0  0  0  0  0  0  0  0  0  0
  181.7640  178.5350  141.2240 C   0  0  0  0  0  0  0  0  0  0  0  0
  180.7880  179.2210  143.3430 C   0  0  0  0  0  3  0  0  0  0  0  0
  180.6550  178.9410  141.9830 C   0  0  0  0  0  3  0  0  0  0  0  0
  183.0220  178.4030  141.8490 C   0  0  0  0  0  0  0  0  0  0  0  0
  182.0310  179.0940  143.9610 C   0  0  0  0  0  3  0  0  0  0  0  0
  184.5330  178.3350  145.1160 N   0  0  0  0  0  0  0  0  0  0  0  0
  184.4280  178.5500  143.8660 N   0  0  0  0  0  0  0  0  0  0  0  0
  187.2250  178.3220  147.7180 C   0  0  0  0  0  3  0  0  0  0  0  0
  185.9710  178.4660  147.1200 C   0  0  0  0  0  3  0  0  0  0  0  0
  185.8070  178.1970  145.7510 C   0  0  0  0  0  0  0  0  0  0  0  0
  188.1690  177.6440  145.5890 C   0  0  0  0  0  0  0  0  0  0  0  0
  188.3220  177.9090  146.9540 C   0  0  0  0  0  3  0  0  0  0  0  0
  186.9080  177.7820  144.9910 C   0  0  0  0  0  3  0  0  0  0  0  0
  189.3500  177.1780  144.7990 C   0  0  2  0  0  3  0  0  0  0  0  0
  190.3720  178.1270  144.8510 O   0  0  0  0  0  1  0  0  0  0  0  0
  188.9500  176.9140  143.3520 C   0  0  0  0  0  2  0  0  0  0  0  0
  190.7600  177.0970  141.7330 N   0  0  0  0  0  1  0  0  0  0  0  0
  190.0510  176.1760  142.6050 C   0  0  0  0  0  2  0  0  0  0  0  0
  181.5980  178.2400  139.7570 C   0  0  2  0  0  3  0  0  0  0  0  0
  181.7260  180.0500  138.1080 O   0  0  0  0  0  0  0  0  0  0  0  0
  180.2280  180.3660  139.9360 C   0  0  0  0  0  2  0  0  0  0  0  0
  180.2390  181.6170  139.1280 C   0  0  0  0  0  2  0  0  0  0  0  0
  181.4330  181.4240  138.2200 C   0  0  2  0  0  3  0  0  0  0  0  0
  180.8770  179.3740  139.0050 C   0  0  2  0  0  3  0  0  0  0  0  0
  181.1540  181.9740  136.9010 N   0  0  0  0  0  2  0  0  0  0  0  0
  180.4620  183.2420  137.0860 C   0  0  0  0  0  2  0  0  0  0  0  0
  181.2230  184.9810  135.6450 O   0  0  0  0  0  0  0  0  0  0  0  0
  181.3660  184.3760  136.7400 C   0  0  0  0  0  0  0  0  0  0  0  0
  182.3660  184.7660  137.6270 O   0  0  0  0  0  1  0  0  0  0  0  0
  182.1620  175.9280  138.8070 C   0  0  0  0  0  1  0  0  0  0  0  0
  181.1200  176.8010  139.4890 C   0  0  1  0  0  3  0  0  0  0  0  0
  180.6870  176.1950  140.6710 O   0  0  0  0  0  1  0  0  0  0  0  0
  184.2310  177.9850  141.0620 C   0  0  0  0  0  2  0  0  0  0  0  0
  184.8390  179.1790  140.3420 C   0  0  0  0  0  2  0  0  0  0  0  0
  187.5620  178.3820  140.0710 O   0  0  0  0  0  0  0  0  0  0  0  0
  186.8340  178.3200  139.0430 C   0  0  0  0  0  0  0  0  0  0  0  0
  187.3630  177.8200  137.8160 N   0  0  0  0  0  2  0  0  0  0  0  0
  185.4660  178.7460  139.1000 N   0  0  0  0  0  2  0  0  0  0  0  0
  188.7530  177.3910  137.6910 C   0  0  0  0  0  2  0  0  0  0  0  0
  188.8650  176.1300  136.8350 C   0  0  1  0  0  0  0  0  0  0  0  0
  187.7360  175.3320  137.0210 O   0  0  0  0  0  1  0  0  0  0  0  0
  188.9930  176.4890  135.3640 C   0  0  0  0  0  1  0  0  0  0  0  0
  190.8310  175.7070  138.8880 O   0  0  0  0  0  1  0  0  0  0  0  0
  189.9850  173.5420  137.4000 O   0  0  0  0  0  1  0  0  0  0  0  0
  190.3410  175.1950  137.3520 P   0  0  0  0  0  0  0  0  0  0  0  0
  191.4630  175.4380  136.3670 O   0  0  0  0  0  0  0  0  0  0  0  0
  1  8  1  0  0  0  0
  1  6  1  0  0  0  0
  2  5  1  0  0  0  0
  2  4  2  0  0  0  0
  3  6  2  0  0  0  0
  4  3  1  0  0  0  0
  5  1  2  0  0  0  0
  7 11  1  0  0  0  0
  8  7  2  0  0  0  0
 10  9  1  0  0  0  0
 11 10  2  0  0  0  0
 12 13  1  0  0  0  0
 13  9  2  0  0  0  0
 14 12  2  0  0  0  0
 14 11  1  0  0  0  0
 15 16  1  6  0  0  0
 15 12  1  0  0  0  0
 17 15  1  0  0  0  0
 18 19  1  0  0  0  0
 19 17  1  0  0  0  0
 20 32  1  1  0  0  0
 20  2  1  0  0  0  0
 21 24  1  0  0  0  0
 21 25  1  0  0  0  0
 23 22  1  0  0  0  0
 24 26  1  6  0  0  0
 24 23  1  0  0  0  0
 25 20  1  1  0  0  0
 25 22  1  0  0  0  0
 26 27  1  0  0  0  0
 28 29  2  0  0  0  0
 29 27  1  0  0  0  0
 29 30  1  0  0  0  0
 32 31  1  1  0  0  0
 32 33  1  0  0  0  0
 34  5  1  0  0  0  0
 35 34  1  0  0  0  0
 37 39  1  0  0  0  0
 37 36  2  0  0  0  0
 38 37  1  0  0  0  0
 39 35  1  0  0  0  0
 40 38  1  0  0  0  0
 41 43  1  6  0  0  0
 41 42  1  0  0  0  0
 41 46  1  0  0  0  0
 41 40  1  0  0  0  0
 46 45  1  0  0  0  0
 46 44  1  0  0  0  0
 47 46  2  0  0  0  0
M  END
>  <MODEL>
3

>  <REMARK>
 VINA RESULT:      -7.7      3.237      8.134
  Name = 
  17 active torsions:
  status: ('A' for Active; 'I' for Inactive)
    1  A    between atoms: C_1  and  P_25
    2  A    between atoms: C_1  and  C_39
    3  A    between atoms: N_4  and  C_34
    4  A    between atoms: C_7  and  N_35
    5  A    between atoms: C_10  and  C_24
    6  A    between atoms: C_15  and  C_29
    7  A    between atoms: C_17  and  C_29
    8  A    between atoms: C_17  and  N_42
    9  A    between atoms: C_19  and  C_37
   10  A    between atoms: C_19  and  C_41
   11  A    between atoms: C_21  and  N_33
   12  A    between atoms: C_22  and  C_46
   13  A    between atoms: C_24  and  C_28
   14  A    between atoms: C_24  and  C_32
   15  A    between atoms: C_26  and  C_37
   16  A    between atoms: N_33  and  C_46
   17  A    between atoms: N_36  and  C_39
                            x       y       z     vdW  Elec       q    Type
                         _______ _______ _______ _____ _____    ______ ____

>  <TORSDO>
F 17

$$$$
=
 OpenBabel10232411503D

 47 49  0  0  1  0  0  0  0  0999 V2000
  190.2380  177.6510  142.1590 C   0  0  0  0  0  0  0  0  0  0  0  0
  190.3640  177.1540  139.7730 C   0  0  0  0  0  0  0  0  0  0  0  0
  192.3940  177.5700  141.0450 C   0  0  0  0  0  3  0  0  0  0  0  0
  191.7620  177.2720  139.8390 C   0  0  0  0  0  3  0  0  0  0  0  0
  189.5960  177.3480  140.9410 C   0  0  0  0  0  0  0  0  0  0  0  0
  191.6360  177.7580  142.2000 C   0  0  0  0  0  3  0  0  0  0  0  0
  189.6750  177.1840  144.4100 N   0  0  0  0  0  0  0  0  0  0  0  0
  189.4620  177.8510  143.3470 N   0  0  0  0  0  0  0  0  0  0  0  0
  188.5830  177.1610  147.9910 C   0  0  0  0  0  3  0  0  0  0  0  0
  189.3560  176.9460  146.8480 C   0  0  0  0  0  3  0  0  0  0  0  0
  188.9010  177.3890  145.5950 C   0  0  0  0  0  0  0  0  0  0  0  0
  186.8880  178.2570  146.6470 C   0  0  0  0  0  0  0  0  0  0  0  0
  187.3520  177.8170  147.8910 C   0  0  0  0  0  3  0  0  0  0  0  0
  187.6690  178.0490  145.5010 C   0  0  0  0  0  3  0  0  0  0  0  0
  185.5830  178.9820  146.5690 C   0  0  2  0  0  3  0  0  0  0  0  0
  184.5720  178.2210  147.1590 O   0  0  0  0  0  1  0  0  0  0  0  0
  185.2310  179.2890  145.1180 C   0  0  0  0  0  2  0  0  0  0  0  0
  183.0080  179.3550  144.1280 N   0  0  0  0  0  1  0  0  0  0  0  0
  184.0330  178.4730  144.6600 C   0  0  0  0  0  2  0  0  0  0  0  0
  189.7030  176.8300  138.4600 C   0  0  2  0  0  3  0  0  0  0  0  0
  191.2900  176.0540  136.7600 O   0  0  0  0  0  0  0  0  0  0  0  0
  189.3640  174.6970  137.1320 C   0  0  0  0  0  2  0  0  0  0  0  0
  190.1250  174.1130  135.9930 C   0  0  0  0  0  2  0  0  0  0  0  0
  191.1100  175.2080  135.6470 C   0  0  2  0  0  3  0  0  0  0  0  0
  190.3680  175.6410  137.7420 C   0  0  2  0  0  3  0  0  0  0  0  0
  192.3890  174.6280  135.2610 N   0  0  0  0  0  2  0  0  0  0  0  0
  193.2760  175.7200  134.8820 C   0  0  0  0  0  2  0  0  0  0  0  0
  194.5650  174.9150  136.7180 O   0  0  0  0  0  1  0  0  0  0  0  0
  194.4700  175.7430  135.7740 C   0  0  0  0  0  0  0  0  0  0  0  0
  195.4810  176.6770  135.5610 O   0  0  0  0  0  0  0  0  0  0  0  0
  188.1560  177.9570  136.7550 C   0  0  0  0  0  1  0  0  0  0  0  0
  189.4020  178.0840  137.6180 C   0  0  1  0  0  3  0  0  0  0  0  0
  189.3070  179.2150  138.4320 O   0  0  0  0  0  1  0  0  0  0  0  0
  188.1000  177.2150  140.9070 C   0  0  0  0  0  2  0  0  0  0  0  0
  187.4410  178.5830  141.0110 C   0  0  0  0  0  2  0  0  0  0  0  0
  184.6610  179.1720  141.2450 O   0  0  0  0  0  0  0  0  0  0  0  0
  185.1460  179.1150  140.0820 C   0  0  0  0  0  0  0  0  0  0  0  0
  184.3270  179.3870  138.9470 N   0  0  0  0  0  2  0  0  0  0  0  0
  186.5280  178.7820  139.8920 N   0  0  0  0  0  2  0  0  0  0  0  0
  182.9090  179.7110  139.0760 C   0  0  0  0  0  2  0  0  0  0  0  0
  182.0360  178.6120  138.4720 C   0  0  1  0  0  0  0  0  0  0  0  0
  180.8470  179.1630  137.9950 O   0  0  0  0  0  1  0  0  0  0  0  0
  182.7630  177.9160  137.3330 C   0  0  0  0  0  1  0  0  0  0  0  0
  181.3830  178.1830  141.2370 O   0  0  0  0  0  1  0  0  0  0  0  0
  180.2540  176.5280  139.3390 O   0  0  0  0  0  0  0  0  0  0  0  0
  181.6460  177.3910  139.7660 P   0  0  0  0  0  0  0  0  0  0  0  0
  182.8040  176.4300  139.9200 O   0  0  0  0  0  1  0  0  0  0  0  0
  1  6  1  0  0  0  0
  1  8  1  0  0  0  0
  2  4  2  0  0  0  0
  2  5  1  0  0  0  0
  3  6  2  0  0  0  0
  4  3  1  0  0  0  0
  5  1  2  0  0  0  0
  7 11  1  0  0  0  0
  8  7  2  0  0  0  0
 10  9  2  0  0  0  0
 11 10  1  0  0  0  0
 12 13  2  0  0  0  0
 13  9  1  0  0  0  0
 14 11  2  0  0  0  0
 14 12  1  0  0  0  0
 15 12  1  0  0  0  0
 15 16  1  6  0  0  0
 17 15  1  0  0  0  0
 18 19  1  0  0  0  0
 19 17  1  0  0  0  0
 20 32  1  6  0  0  0
 20  2  1  0  0  0  0
 21 25  1  0  0  0  0
 22 25  1  0  0  0  0
 23 22  1  0  0  0  0
 24 26  1  1  0  0  0
 24 23  1  0  0  0  0
 24 21  1  0  0  0  0
 25 20  1  6  0  0  0
 27 26  1  0  0  0  0
 27 29  1  0  0  0  0
 29 28  1  0  0  0  0
 30 29  2  0  0  0  0
 32 31  1  1  0  0  0
 32 33  1  0  0  0  0
 34  5  1  0  0  0  0
 34 35  1  0  0  0  0
 37 36  2  0  0  0  0
 38 40  1  0  0  0  0
 38 37  1  0  0  0  0
 39 37  1  0  0  0  0
 39 35  1  0  0  0  0
 41 43  1  6  0  0  0
 41 40  1  0  0  0  0
 41 46  1  0  0  0  0
 42 41  1  0  0  0  0
 45 46  2  0  0  0  0
 46 47  1  0  0  0  0
 46 44  1  0  0  0  0
M  END
>  <MODEL>
4

>  <REMARK>
 VINA RESULT:      -7.7      2.398      3.685
  Name = 
  17 active torsions:
  status: ('A' for Active; 'I' for Inactive)
    1  A    between atoms: C_1  and  P_25
    2  A    between atoms: C_1  and  C_39
    3  A    between atoms: N_4  and  C_34
    4  A    between atoms: C_7  and  N_35
    5  A    between atoms: C_10  and  C_24
    6  A    between atoms: C_15  and  C_29
    7  A    between atoms: C_17  and  C_29
    8  A    between atoms: C_17  and  N_42
    9  A    between atoms: C_19  and  C_37
   10  A    between atoms: C_19  and  C_41
   11  A    between atoms: C_21  and  N_33
   12  A    between atoms: C_22  and  C_46
   13  A    between atoms: C_24  and  C_28
   14  A    between atoms: C_24  and  C_32
   15  A    between atoms: C_26  and  C_37
   16  A    between atoms: N_33  and  C_46
   17  A    between atoms: N_36  and  C_39
                            x       y       z     vdW  Elec       q    Type
                         _______ _______ _______ _____ _____    ______ ____

>  <TORSDO>
F 17

$$$$
=
 OpenBabel10232411503D

 47 49  0  0  1  0  0  0  0  0999 V2000
  184.7140  178.4660  143.7270 C   0  0  0  0  0  0  0  0  0  0  0  0
  183.4240  178.4400  141.6550 C   0  0  0  0  0  0  0  0  0  0  0  0
  182.3810  179.1400  143.7380 C   0  0  0  0  0  3  0  0  0  0  0  0
  182.3030  178.8960  142.3670 C   0  0  0  0  0  3  0  0  0  0  0  0
  184.6380  178.2200  142.3400 C   0  0  0  0  0  0  0  0  0  0  0  0
  183.5810  178.9260  144.4140 C   0  0  0  0  0  3  0  0  0  0  0  0
  185.9970  178.2120  145.7000 N   0  0  0  0  0  0  0  0  0  0  0  0
  185.9440  178.2410  144.4280 N   0  0  0  0  0  0  0  0  0  0  0  0
  188.5140  177.8690  148.4500 C   0  0  0  0  0  3  0  0  0  0  0  0
  187.3030  178.0990  147.7930 C   0  0  0  0  0  3  0  0  0  0  0  0
  187.2250  177.9840  146.3950 C   0  0  0  0  0  0  0  0  0  0  0  0
  189.5880  177.4130  146.3240 C   0  0  0  0  0  0  0  0  0  0  0  0
  189.6550  177.5240  147.7170 C   0  0  0  0  0  3  0  0  0  0  0  0
  188.3700  177.6360  145.6660 C   0  0  0  0  0  3  0  0  0  0  0  0
  190.8130  177.0160  145.5650 C   0  0  2  0  0  3  0  0  0  0  0  0
  191.8750  176.7930  146.4420 O   0  0  0  0  0  1  0  0  0  0  0  0
  191.1840  178.0940  144.5530 C   0  0  0  0  0  2  0  0  0  0  0  0
  190.8560  176.1240  143.1590 N   0  0  0  0  0  1  0  0  0  0  0  0
  191.1770  177.5410  143.1360 C   0  0  0  0  0  2  0  0  0  0  0  0
  183.3170  178.1860  140.1750 C   0  0  2  0  0  3  0  0  0  0  0  0
  183.3970  176.2870  138.6280 O   0  0  0  0  0  0  0  0  0  0  0  0
  181.3810  176.5780  139.8670 C   0  0  0  0  0  2  0  0  0  0  0  0
  181.1770  175.4520  138.9140 C   0  0  0  0  0  2  0  0  0  0  0  0
  182.3640  175.5740  137.9860 C   0  0  2  0  0  3  0  0  0  0  0  0
  182.8790  176.7450  139.8540 C   0  0  2  0  0  3  0  0  0  0  0  0
  182.8430  174.2520  137.6080 N   0  0  0  0  0  2  0  0  0  0  0  0
  181.7780  173.5880  136.8680 C   0  0  0  0  0  2  0  0  0  0  0  0
  180.9240  171.3910  137.2170 O   0  0  0  0  0  1  0  0  0  0  0  0
  181.9280  172.1080  136.9690 C   0  0  0  0  0  0  0  0  0  0  0  0
  183.1780  171.5210  136.7870 O   0  0  0  0  0  0  0  0  0  0  0  0
  184.6190  178.2120  137.9680 C   0  0  0  0  0  1  0  0  0  0  0  0
  184.5100  178.7530  139.3850 C   0  0  1  0  0  3  0  0  0  0  0  0
  184.4710  180.1490  139.3620 O   0  0  0  0  0  1  0  0  0  0  0  0
  185.8590  177.7460  141.6060 C   0  0  0  0  0  2  0  0  0  0  0  0
  186.8920  178.8600  141.5130 C   0  0  0  0  0  2  0  0  0  0  0  0
  187.9380  178.5960  138.8740 O   0  0  0  0  0  0  0  0  0  0  0  0
  188.6770  178.2350  139.8300 C   0  0  0  0  0  0  0  0  0  0  0  0
  190.0000  177.7630  139.5780 N   0  0  0  0  0  2  0  0  0  0  0  0
  188.1970  178.3020  141.1790 N   0  0  0  0  0  2  0  0  0  0  0  0
  190.5370  177.6530  138.2250 C   0  0  0  0  0  2  0  0  0  0  0  0
  190.7030  176.1890  137.8170 C   0  0  1  0  0  0  0  0  0  0  0  0
  190.4640  175.3630  138.9150 O   0  0  0  0  0  1  0  0  0  0  0  0
  189.7400  175.8330  136.6970 C   0  0  0  0  0  1  0  0  0  0  0  0
  192.8760  174.3290  137.5400 O   0  0  0  0  0  1  0  0  0  0  0  0
  192.5100  176.2390  135.5800 O   0  0  0  0  0  0  0  0  0  0  0  0
  192.4120  175.9280  137.2410 P   0  0  0  0  0  0  0  0  0  0  0  0
  193.3430  176.8630  137.9820 O   0  0  0  0  0  1  0  0  0  0  0  0
  1  6  1  0  0  0  0
  1  8  1  0  0  0  0
  2  5  1  0  0  0  0
  2  4  2  0  0  0  0
  3  6  2  0  0  0  0
  4  3  1  0  0  0  0
  5  1  2  0  0  0  0
  7 11  1  0  0  0  0
  8  7  2  0  0  0  0
 10  9  1  0  0  0  0
 11 10  2  0  0  0  0
 12 13  1  0  0  0  0
 13  9  2  0  0  0  0
 14 12  2  0  0  0  0
 14 11  1  0  0  0  0
 15 12  1  0  0  0  0
 15 16  1  1  0  0  0
 17 15  1  0  0  0  0
 19 18  1  0  0  0  0
 19 17  1  0  0  0  0
 20 32  1  6  0  0  0
 20  2  1  0  0  0  0
 21 25  1  0  0  0  0
 23 22  1  0  0  0  0
 24 26  1  1  0  0  0
 24 21  1  0  0  0  0
 24 23  1  0  0  0  0
 25 22  1  0  0  0  0
 25 20  1  6  0  0  0
 27 29  1  0  0  0  0
 27 26  1  0  0  0  0
 29 28  1  0  0  0  0
 30 29  2  0  0  0  0
 32 31  1  6  0  0  0
 33 32  1  0  0  0  0
 34  5  1  0  0  0  0
 35 34  1  0  0  0  0
 36 37  2  0  0  0  0
 37 39  1  0  0  0  0
 38 37  1  0  0  0  0
 39 35  1  0  0  0  0
 40 38  1  0  0  0  0
 41 43  1  6  0  0  0
 41 40  1  0  0  0  0
 41 42  1  0  0  0  0
 45 46  2  0  0  0  0
 46 44  1  0  0  0  0
 46 41  1  0  0  0  0
 46 47  1  0  0  0  0
M  END
>  <MODEL>
5

>  <REMARK>
 VINA RESULT:      -7.5      2.981      6.563
  Name = 
  17 active torsions:
  status: ('A' for Active; 'I' for Inactive)
    1  A    between atoms: C_1  and  P_25
    2  A    between atoms: C_1  and  C_39
    3  A    between atoms: N_4  and  C_34
    4  A    between atoms: C_7  and  N_35
    5  A    between atoms: C_10  and  C_24
    6  A    between atoms: C_15  and  C_29
    7  A    between atoms: C_17  and  C_29
    8  A    between atoms: C_17  and  N_42
    9  A    between atoms: C_19  and  C_37
   10  A    between atoms: C_19  and  C_41
   11  A    between atoms: C_21  and  N_33
   12  A    between atoms: C_22  and  C_46
   13  A    between atoms: C_24  and  C_28
   14  A    between atoms: C_24  and  C_32
   15  A    between atoms: C_26  and  C_37
   16  A    between atoms: N_33  and  C_46
   17  A    between atoms: N_36  and  C_39
                            x       y       z     vdW  Elec       q    Type
                         _______ _______ _______ _____ _____    ______ ____

>  <TORSDO>
F 17

$$$$
=
 OpenBabel10232411503D

 47 49  0  0  1  0  0  0  0  0999 V2000
  185.5960  178.2200  145.1660 C   0  0  0  0  0  0  0  0  0  0  0  0
  187.8290  178.0790  146.1400 C   0  0  0  0  0  0  0  0  0  0  0  0
  185.9650  178.9040  147.4660 C   0  0  0  0  0  3  0  0  0  0  0  0
  187.3180  178.5870  147.3450 C   0  0  0  0  0  3  0  0  0  0  0  0
  186.9630  177.8970  145.0410 C   0  0  0  0  0  0  0  0  0  0  0  0
  185.1080  178.7210  146.3820 C   0  0  0  0  0  3  0  0  0  0  0  0
  183.7930  178.8770  143.7800 N   0  0  0  0  0  0  0  0  0  0  0  0
  184.7130  178.0390  144.0510 N   0  0  0  0  0  0  0  0  0  0  0  0
  180.7340  178.9070  141.6210 C   0  0  0  0  0  3  0  0  0  0  0  0
  181.5710  179.0940  142.7240 C   0  0  0  0  0  3  0  0  0  0  0  0
  182.9170  178.6940  142.6650 C   0  0  0  0  0  0  0  0  0  0  0  0
  182.5720  177.9140  140.3880 C   0  0  0  0  0  0  0  0  0  0  0  0
  181.2350  178.3200  140.4540 C   0  0  0  0  0  3  0  0  0  0  0  0
  183.4130  178.1100  141.4930 C   0  0  0  0  0  3  0  0  0  0  0  0
  183.0910  177.3160  139.1200 C   0  0  2  0  0  3  0  0  0  0  0  0
  182.4650  177.9000  138.0170 O   0  0  0  0  0  1  0  0  0  0  0  0
  182.8660  175.8080  139.1140 C   0  0  0  0  0  2  0  0  0  0  0  0
  180.5710  175.0600  138.7960 N   0  0  0  0  0  1  0  0  0  0  0  0
  181.7980  175.4170  138.1040 C   0  0  0  0  0  2  0  0  0  0  0  0
  189.2930  177.7420  146.0330 C   0  0  2  0  0  3  0  0  0  0  0  0
  190.4550  176.7380  144.1220 O   0  0  0  0  0  0  0  0  0  0  0  0
  190.7780  179.0760  144.4690 C   0  0  0  0  0  2  0  0  0  0  0  0
  191.6540  178.6520  143.3420 C   0  0  0  0  0  2  0  0  0  0  0  0
  191.6140  177.1430  143.4300 C   0  0  2  0  0  3  0  0  0  0  0  0
  189.8340  177.9080  144.6010 C   0  0  2  0  0  3  0  0  0  0  0  0
  191.6150  176.5630  142.0940 N   0  0  0  0  0  2  0  0  0  0  0  0
  191.6820  177.6570  141.1350 C   0  0  0  0  0  2  0  0  0  0  0  0
  193.7580  177.3080  140.0180 O   0  0  0  0  0  1  0  0  0  0  0  0
  192.5020  177.2560  139.9560 C   0  0  0  0  0  0  0  0  0  0  0  0
  191.8780  176.8210  138.7890 O   0  0  0  0  0  0  0  0  0  0  0  0
  191.0610  176.4640  147.3780 C   0  0  0  0  0  1  0  0  0  0  0  0
  189.6620  176.4480  146.7810 C   0  0  1  0  0  3  0  0  0  0  0  0
  188.7220  176.1650  147.7740 O   0  0  0  0  0  1  0  0  0  0  0  0
  187.4760  177.3420  143.7430 C   0  0  0  0  0  2  0  0  0  0  0  0
  187.1600  178.2910  142.5960 C   0  0  0  0  0  2  0  0  0  0  0  0
  186.6530  178.7810  139.8340 O   0  0  0  0  0  0  0  0  0  0  0  0
  187.8160  178.4140  140.1540 C   0  0  0  0  0  0  0  0  0  0  0  0
  188.8340  178.3030  139.1600 N   0  0  0  0  0  2  0  0  0  0  0  0
  188.1270  178.1110  141.5200 N   0  0  0  0  0  2  0  0  0  0  0  0
  188.5720  178.5790  137.7510 C   0  0  0  0  0  2  0  0  0  0  0  0
  188.5570  177.2880  136.9320 C   0  0  1  0  0  0  0  0  0  0  0  0
  189.6370  177.2760  136.0500 O   0  0  0  0  0  1  0  0  0  0  0  0
  188.6350  176.0740  137.8430 C   0  0  0  0  0  1  0  0  0  0  0  0
  187.0260  178.4110  134.7740 O   0  0  0  0  0  0  0  0  0  0  0  0
  186.8560  175.6960  135.2460 O   0  0  0  0  0  1  0  0  0  0  0  0
  187.0090  177.2170  135.9730 P   0  0  0  0  0  0  0  0  0  0  0  0
  185.8330  177.4540  136.8940 O   0  0  0  0  0  1  0  0  0  0  0  0
  1  6  1  0  0  0  0
  2  4  2  0  0  0  0
  4  3  1  0  0  0  0
  5  1  2  0  0  0  0
  5  2  1  0  0  0  0
  6  3  2  0  0  0  0
  7  8  2  0  0  0  0
  8  1  1  0  0  0  0
  9 10  1  0  0  0  0
 11 10  2  0  0  0  0
 11  7  1  0  0  0  0
 12 13  1  0  0  0  0
 12 14  2  0  0  0  0
 13  9  2  0  0  0  0
 14 11  1  0  0  0  0
 15 16  1  6  0  0  0
 15 12  1  0  0  0  0
 17 15  1  0  0  0  0
 19 18  1  0  0  0  0
 19 17  1  0  0  0  0
 20  2  1  0  0  0  0
 20 32  1  6  0  0  0
 21 25  1  0  0  0  0
 22 25  1  0  0  0  0
 23 24  1  0  0  0  0
 23 22  1  0  0  0  0
 24 26  1  6  0  0  0
 24 21  1  0  0  0  0
 25 20  1  1  0  0  0
 27 26  1  0  0  0  0
 29 28  1  0  0  0  0
 29 27  1  0  0  0  0
 30 29  2  0  0  0  0
 32 31  1  1  0  0  0
 32 33  1  0  0  0  0
 34  5  1  0  0  0  0
 35 34  1  0  0  0  0
 36 37  2  0  0  0  0
 37 39  1  0  0  0  0
 38 37  1  0  0  0  0
 39 35  1  0  0  0  0
 40 38  1  0  0  0  0
 41 40  1  0  0  0  0
 41 43  1  1  0  0  0
 42 41  1  0  0  0  0
 44 46  2  0  0  0  0
 45 46  1  0  0  0  0
 46 47  1  0  0  0  0
 46 41  1  0  0  0  0
M  END
>  <MODEL>
6

>  <REMARK>
 VINA RESULT:      -7.3      2.440      8.231
  Name = 
  17 active torsions:
  status: ('A' for Active; 'I' for Inactive)
    1  A    between atoms: C_1  and  P_25
    2  A    between atoms: C_1  and  C_39
    3  A    between atoms: N_4  and  C_34
    4  A    between atoms: C_7  and  N_35
    5  A    between atoms: C_10  and  C_24
    6  A    between atoms: C_15  and  C_29
    7  A    between atoms: C_17  and  C_29
    8  A    between atoms: C_17  and  N_42
    9  A    between atoms: C_19  and  C_37
   10  A    between atoms: C_19  and  C_41
   11  A    between atoms: C_21  and  N_33
   12  A    between atoms: C_22  and  C_46
   13  A    between atoms: C_24  and  C_28
   14  A    between atoms: C_24  and  C_32
   15  A    between atoms: C_26  and  C_37
   16  A    between atoms: N_33  and  C_46
   17  A    between atoms: N_36  and  C_39
                            x       y       z     vdW  Elec       q    Type
                         _______ _______ _______ _____ _____    ______ ____

>  <TORSDO>
F 17

$$$$
=
 OpenBabel10232411503D

 47 49  0  0  1  0  0  0  0  0999 V2000
  185.2590  178.2750  143.9000 C   0  0  0  0  0  0  0  0  0  0  0  0
  187.1860  178.2500  145.3980 C   0  0  0  0  0  0  0  0  0  0  0  0
  185.0130  178.9800  146.2100 C   0  0  0  0  0  3  0  0  0  0  0  0
  186.3670  178.7330  146.4320 C   0  0  0  0  0  3  0  0  0  0  0  0
  186.6290  178.0220  144.1220 C   0  0  0  0  0  0  0  0  0  0  0  0
  184.4610  178.7520  144.9510 C   0  0  0  0  0  3  0  0  0  0  0  0
  183.7340  178.7590  142.1560 N   0  0  0  0  0  0  0  0  0  0  0  0
  184.6890  178.0470  142.6050 N   0  0  0  0  0  0  0  0  0  0  0  0
  183.1260  178.9220  138.4660 C   0  0  0  0  0  3  0  0  0  0  0  0
  183.6910  179.1620  139.7200 C   0  0  0  0  0  3  0  0  0  0  0  0
  183.1710  178.5310  140.8620 C   0  0  0  0  0  0  0  0  0  0  0  0
  181.5090  177.4220  139.4750 C   0  0  0  0  0  0  0  0  0  0  0  0
  182.0380  178.0510  138.3430 C   0  0  0  0  0  3  0  0  0  0  0  0
  182.0830  177.6580  140.7330 C   0  0  0  0  0  3  0  0  0  0  0  0
  180.3640  176.4740  139.3150 C   0  0  2  0  0  3  0  0  0  0  0  0
  180.4560  175.4430  140.2510 O   0  0  0  0  0  1  0  0  0  0  0  0
  180.3410  175.9020  137.9030 C   0  0  0  0  0  2  0  0  0  0  0  0
  182.2510  174.4820  137.3880 N   0  0  0  0  0  1  0  0  0  0  0  0
  180.8830  174.4810  137.8780 C   0  0  0  0  0  2  0  0  0  0  0  0
  188.6450  177.9890  145.6610 C   0  0  2  0  0  3  0  0  0  0  0  0
  190.0940  176.7950  144.0860 O   0  0  0  0  0  0  0  0  0  0  0  0
  190.5460  179.1130  144.4160 C   0  0  0  0  0  2  0  0  0  0  0  0
  191.6020  178.5610  143.5230 C   0  0  0  0  0  2  0  0  0  0  0  0
  191.4070  177.0670  143.6510 C   0  0  2  0  0  3  0  0  0  0  0  0
  189.4940  178.0350  144.3770 C   0  0  2  0  0  3  0  0  0  0  0  0
  191.6420  176.4190  142.3680 N   0  0  0  0  0  2  0  0  0  0  0  0
  191.1190  177.2930  141.3270 C   0  0  0  0  0  2  0  0  0  0  0  0
  191.2680  176.7420  139.0130 O   0  0  0  0  0  0  0  0  0  0  0  0
  191.8760  177.0910  140.0580 C   0  0  0  0  0  0  0  0  0  0  0  0
  193.2550  177.2890  140.0300 O   0  0  0  0  0  1  0  0  0  0  0  0
  190.2810  176.7470  147.1940 C   0  0  0  0  0  1  0  0  0  0  0  0
  188.8750  176.8040  146.6170 C   0  0  1  0  0  3  0  0  0  0  0  0
  187.9350  176.8110  147.6500 O   0  0  0  0  0  1  0  0  0  0  0  0
  187.4740  177.4930  142.9990 C   0  0  0  0  0  2  0  0  0  0  0  0
  187.7950  178.6000  142.0060 C   0  0  0  0  0  2  0  0  0  0  0  0
  188.8410  178.8960  139.3700 O   0  0  0  0  0  0  0  0  0  0  0  0
  187.6390  178.5290  139.4800 C   0  0  0  0  0  0  0  0  0  0  0  0
  186.8690  178.2300  138.3170 N   0  0  0  0  0  2  0  0  0  0  0  0
  187.0390  178.4000  140.7760 N   0  0  0  0  0  2  0  0  0  0  0  0
  187.4190  178.3620  136.9710 C   0  0  0  0  0  2  0  0  0  0  0  0
  186.7580  177.3760  136.0080 C   0  0  1  0  0  0  0  0  0  0  0  0
  185.4530  177.1110  136.4250 O   0  0  0  0  0  1  0  0  0  0  0  0
  186.7320  177.9400  134.5970 C   0  0  0  0  0  1  0  0  0  0  0  0
  187.2230  174.8600  137.3160 O   0  0  0  0  0  1  0  0  0  0  0  0
  187.4380  174.9820  134.5670 O   0  0  0  0  0  0  0  0  0  0  0  0
  187.7080  175.8220  136.0120 P   0  0  0  0  0  0  0  0  0  0  0  0
  189.1830  176.1310  136.1440 O   0  0  0  0  0  1  0  0  0  0  0  0
  1  5  2  0  0  0  0
  1  6  1  0  0  0  0
  2 20  1  0  0  0  0
  2  4  2  0  0  0  0
  3  4  1  0  0  0  0
  5  2  1  0  0  0  0
  6  3  2  0  0  0  0
  7  8  2  0  0  0  0
  8  1  1  0  0  0  0
  9 10  1  0  0  0  0
 10 11  2  0  0  0  0
 11  7  1  0  0  0  0
 12 14  2  0  0  0  0
 13  9  2  0  0  0  0
 13 12  1  0  0  0  0
 14 11  1  0  0  0  0
 15 12  1  0  0  0  0
 15 16  1  1  0  0  0
 17 15  1  0  0  0  0
 18 19  1  0  0  0  0
 19 17  1  0  0  0  0
 20 32  1  6  0  0  0
 21 25  1  0  0  0  0
 23 24  1  0  0  0  0
 23 22  1  0  0  0  0
 24 26  1  6  0  0  0
 24 21  1  0  0  0  0
 25 22  1  0  0  0  0
 25 20  1  1  0  0  0
 27 26  1  0  0  0  0
 28 29  2  0  0  0  0
 29 27  1  0  0  0  0
 30 29  1  0  0  0  0
 32 31  1  1  0  0  0
 32 33  1  0  0  0  0
 34  5  1  0  0  0  0
 35 34  1  0  0  0  0
 36 37  2  0  0  0  0
 37 39  1  0  0  0  0
 38 37  1  0  0  0  0
 39 35  1  0  0  0  0
 40 38  1  0  0  0  0
 41 43  1  6  0  0  0
 41 46  1  0  0  0  0
 41 42  1  0  0  0  0
 41 40  1  0  0  0  0
 45 46  2  0  0  0  0
 46 47  1  0  0  0  0
 46 44  1  0  0  0  0
M  END
>  <MODEL>
7

>  <REMARK>
 VINA RESULT:      -6.4      2.623      8.278
  Name = 
  17 active torsions:
  status: ('A' for Active; 'I' for Inactive)
    1  A    between atoms: C_1  and  P_25
    2  A    between atoms: C_1  and  C_39
    3  A    between atoms: N_4  and  C_34
    4  A    between atoms: C_7  and  N_35
    5  A    between atoms: C_10  and  C_24
    6  A    between atoms: C_15  and  C_29
    7  A    between atoms: C_17  and  C_29
    8  A    between atoms: C_17  and  N_42
    9  A    between atoms: C_19  and  C_37
   10  A    between atoms: C_19  and  C_41
   11  A    between atoms: C_21  and  N_33
   12  A    between atoms: C_22  and  C_46
   13  A    between atoms: C_24  and  C_28
   14  A    between atoms: C_24  and  C_32
   15  A    between atoms: C_26  and  C_37
   16  A    between atoms: N_33  and  C_46
   17  A    between atoms: N_36  and  C_39
                            x       y       z     vdW  Elec       q    Type
                         _______ _______ _______ _____ _____    ______ ____

>  <TORSDO>
F 17

$$$$
=
 OpenBabel10232411503D

 47 49  0  0  1  0  0  0  0  0999 V2000
  185.8280  178.0410  144.4690 C   0  0  0  0  0  0  0  0  0  0  0  0
  188.2380  177.6570  144.5190 C   0  0  0  0  0  0  0  0  0  0  0  0
  187.0700  178.3640  146.5310 C   0  0  0  0  0  3  0  0  0  0  0  0
  188.2490  178.0060  145.8790 C   0  0  0  0  0  3  0  0  0  0  0  0
  187.0200  177.6770  143.8080 C   0  0  0  0  0  0  0  0  0  0  0  0
  185.8650  178.3800  145.8300 C   0  0  0  0  0  3  0  0  0  0  0  0
  183.6390  178.8500  144.0750 N   0  0  0  0  0  0  0  0  0  0  0  0
  184.5890  178.0660  143.7510 N   0  0  0  0  0  0  0  0  0  0  0  0
  179.9820  179.0140  143.2920 C   0  0  0  0  0  3  0  0  0  0  0  0
  181.1740  178.9910  144.0190 C   0  0  0  0  0  3  0  0  0  0  0  0
  182.4060  178.8740  143.3530 C   0  0  0  0  0  0  0  0  0  0  0  0
  181.2310  178.8000  141.2250 C   0  0  0  0  0  0  0  0  0  0  0  0
  180.0110  178.9210  141.8960 C   0  0  0  0  0  3  0  0  0  0  0  0
  182.4290  178.7840  141.9550 C   0  0  0  0  0  3  0  0  0  0  0  0
  181.2390  178.7300  139.7310 C   0  0  2  0  0  3  0  0  0  0  0  0
  180.4820  177.6420  139.2940 O   0  0  0  0  0  1  0  0  0  0  0  0
  182.6680  178.6190  139.2120 C   0  0  0  0  0  2  0  0  0  0  0  0
  183.8600  177.4360  137.4480 N   0  0  0  0  0  1  0  0  0  0  0  0
  182.6870  178.2430  137.7380 C   0  0  0  0  0  2  0  0  0  0  0  0
  189.5230  177.2720  143.8360 C   0  0  2  0  0  3  0  0  0  0  0  0
  190.9250  176.6520  145.7490 O   0  0  0  0  0  0  0  0  0  0  0  0
  191.2870  175.4540  143.7190 C   0  0  0  0  0  2  0  0  0  0  0  0
  192.3090  175.0070  144.7060 C   0  0  0  0  0  2  0  0  0  0  0  0
  192.1930  176.0400  145.8050 C   0  0  2  0  0  3  0  0  0  0  0  0
  190.2860  176.1680  144.5910 C   0  0  2  0  0  3  0  0  0  0  0  0
  192.3760  175.4110  147.1050 N   0  0  0  0  0  2  0  0  0  0  0  0
  192.1600  176.4280  148.1250 C   0  0  0  0  0  2  0  0  0  0  0  0
  193.2020  175.0920  149.8020 O   0  0  0  0  0  1  0  0  0  0  0  0
  193.1050  176.2250  149.2610 C   0  0  0  0  0  0  0  0  0  0  0  0
  193.8810  177.2860  149.7200 O   0  0  0  0  0  0  0  0  0  0  0  0
  191.1180  179.1750  144.4730 C   0  0  0  0  0  1  0  0  0  0  0  0
  190.3340  178.4920  143.3620 C   0  0  1  0  0  3  0  0  0  0  0  0
  191.1930  178.1400  142.3180 O   0  0  0  0  0  1  0  0  0  0  0  0
  186.9710  177.2950  142.3560 C   0  0  0  0  0  2  0  0  0  0  0  0
  187.1230  178.5270  141.4750 C   0  0  0  0  0  2  0  0  0  0  0  0
  186.8960  178.4990  138.6340 O   0  0  0  0  0  0  0  0  0  0  0  0
  188.0520  178.3770  139.1250 C   0  0  0  0  0  0  0  0  0  0  0  0
  189.1900  178.2810  138.2700 N   0  0  0  0  0  2  0  0  0  0  0  0
  188.2320  178.3420  140.5470 N   0  0  0  0  0  2  0  0  0  0  0  0
  189.0680  178.2900  136.8160 C   0  0  0  0  0  2  0  0  0  0  0  0
  189.3120  176.8980  136.2340 C   0  0  1  0  0  0  0  0  0  0  0  0
  190.0060  177.0050  135.0280 O   0  0  0  0  0  1  0  0  0  0  0  0
  190.1120  176.0440  137.2030 C   0  0  0  0  0  1  0  0  0  0  0  0
  187.8800  174.9090  134.7320 O   0  0  0  0  0  0  0  0  0  0  0  0
  187.1330  175.3860  137.3470 O   0  0  0  0  0  1  0  0  0  0  0  0
  187.7040  176.1000  135.9220 P   0  0  0  0  0  0  0  0  0  0  0  0
  186.7090  177.1350  135.4460 O   0  0  0  0  0  1  0  0  0  0  0  0
  1  6  1  0  0  0  0
  2  4  2  0  0  0  0
  4  3  1  0  0  0  0
  5  1  2  0  0  0  0
  5  2  1  0  0  0  0
  6  3  2  0  0  0  0
  8  7  2  0  0  0  0
  8  1  1  0  0  0  0
  9 10  1  0  0  0  0
 11 10  2  0  0  0  0
 11  7  1  0  0  0  0
 12 13  1  0  0  0  0
 12 14  2  0  0  0  0
 13  9  2  0  0  0  0
 14 11  1  0  0  0  0
 15 16  1  1  0  0  0
 15 12  1  0  0  0  0
 17 15  1  0  0  0  0
 18 19  1  0  0  0  0
 19 17  1  0  0  0  0
 20 32  1  1  0  0  0
 20  2  1  0  0  0  0
 21 24  1  0  0  0  0
 22 25  1  0  0  0  0
 22 23  1  0  0  0  0
 23 24  1  0  0  0  0
 24 26  1  1  0  0  0
 25 20  1  6  0  0  0
 25 21  1  0  0  0  0
 26 27  1  0  0  0  0
 27 29  1  0  0  0  0
 29 30  2  0  0  0  0
 29 28  1  0  0  0  0
 32 31  1  1  0  0  0
 33 32  1  0  0  0  0
 34  5  1  0  0  0  0
 35 34  1  0  0  0  0
 36 37  2  0  0  0  0
 37 39  1  0  0  0  0
 38 37  1  0  0  0  0
 39 35  1  0  0  0  0
 40 38  1  0  0  0  0
 41 40  1  0  0  0  0
 41 43  1  1  0  0  0
 42 41  1  0  0  0  0
 44 46  2  0  0  0  0
 46 41  1  0  0  0  0
 46 45  1  0  0  0  0
 47 46  1  0  0  0  0
M  END
>  <MODEL>
8

>  <REMARK>
 VINA RESULT:      -6.4      2.808      8.847
  Name = 
  17 active torsions:
  status: ('A' for Active; 'I' for Inactive)
    1  A    between atoms: C_1  and  P_25
    2  A    between atoms: C_1  and  C_39
    3  A    between atoms: N_4  and  C_34
    4  A    between atoms: C_7  and  N_35
    5  A    between atoms: C_10  and  C_24
    6  A    between atoms: C_15  and  C_29
    7  A    between atoms: C_17  and  C_29
    8  A    between atoms: C_17  and  N_42
    9  A    between atoms: C_19  and  C_37
   10  A    between atoms: C_19  and  C_41
   11  A    between atoms: C_21  and  N_33
   12  A    between atoms: C_22  and  C_46
   13  A    between atoms: C_24  and  C_28
   14  A    between atoms: C_24  and  C_32
   15  A    between atoms: C_26  and  C_37
   16  A    between atoms: N_33  and  C_46
   17  A    between atoms: N_36  and  C_39
                            x       y       z     vdW  Elec       q    Type
                         _______ _______ _______ _____ _____    ______ ____

>  <TORSDO>
F 17

$$$$
=
 OpenBabel10232411503D

 47 49  0  0  1  0  0  0  0  0999 V2000
  186.6130  174.4590  136.6570 C   0  0  0  0  0  0  0  0  0  0  0  0
  184.5410  175.7470  136.6900 C   0  0  0  0  0  0  0  0  0  0  0  0
  184.6240  173.5380  137.7020 C   0  0  0  0  0  3  0  0  0  0  0  0
  183.9150  174.6930  137.3750 C   0  0  0  0  0  3  0  0  0  0  0  0
  185.8990  175.6290  136.3250 C   0  0  0  0  0  0  0  0  0  0  0  0
  185.9670  173.4220  137.3460 C   0  0  0  0  0  3  0  0  0  0  0  0
  188.9050  174.1380  137.1520 N   0  0  0  0  0  0  0  0  0  0  0  0
  187.9920  174.3320  136.2860 N   0  0  0  0  0  0  0  0  0  0  0  0
  192.0120  173.1100  135.3330 C   0  0  0  0  0  3  0  0  0  0  0  0
  190.6640  173.2190  135.6810 C   0  0  0  0  0  3  0  0  0  0  0  0
  190.2790  174.0090  136.7770 C   0  0  0  0  0  0  0  0  0  0  0  0
  192.6120  174.5720  137.1730 C   0  0  0  0  0  0  0  0  0  0  0  0
  192.9840  173.7870  136.0770 C   0  0  0  0  0  3  0  0  0  0  0  0
  191.2570  174.6870  137.5170 C   0  0  0  0  0  3  0  0  0  0  0  0
  193.6660  175.3090  137.9350 C   0  0  2  0  0  3  0  0  0  0  0  0
  193.6330  176.6670  137.6160 O   0  0  0  0  0  1  0  0  0  0  0  0
  195.0430  174.7310  137.6310 C   0  0  0  0  0  2  0  0  0  0  0  0
  196.1330  175.0210  139.7900 N   0  0  0  0  0  1  0  0  0  0  0  0
  195.6260  174.0340  138.8510 C   0  0  0  0  0  2  0  0  0  0  0  0
  183.7560  176.9860  136.3480 C   0  0  2  0  0  3  0  0  0  0  0  0
  183.7690  177.7520  138.6760 O   0  0  0  0  0  0  0  0  0  0  0  0
  181.7980  176.6410  137.9220 C   0  0  0  0  0  2  0  0  0  0  0  0
  181.6440  176.9140  139.3770 C   0  0  0  0  0  2  0  0  0  0  0  0
  183.0420  177.3070  139.7990 C   0  0  2  0  0  3  0  0  0  0  0  0
  182.9570  177.5280  137.5470 C   0  0  2  0  0  3  0  0  0  0  0  0
  182.9860  178.3660  140.7970 N   0  0  0  0  0  2  0  0  0  0  0  0
  183.9850  178.0700  141.8160 C   0  0  0  0  0  2  0  0  0  0  0  0
  185.4890  179.5450  140.7020 O   0  0  0  0  0  0  0  0  0  0  0  0
  185.0560  179.1060  141.8000 C   0  0  0  0  0  0  0  0  0  0  0  0
  185.5760  179.5910  142.9980 O   0  0  0  0  0  1  0  0  0  0  0  0
  182.4370  175.4870  134.7400 C   0  0  0  0  0  1  0  0  0  0  0  0
  183.0160  176.8690  135.0030 C   0  0  1  0  0  3  0  0  0  0  0  0
  182.0110  177.8350  134.9050 O   0  0  0  0  0  1  0  0  0  0  0  0
  186.6000  176.7440  135.6050 C   0  0  0  0  0  2  0  0  0  0  0  0
  186.8570  177.9100  136.5480 C   0  0  0  0  0  2  0  0  0  0  0  0
  188.7210  179.1140  138.3390 O   0  0  0  0  0  0  0  0  0  0  0  0
  188.1040  178.0900  138.7440 C   0  0  0  0  0  0  0  0  0  0  0  0
  188.3110  177.6030  140.0680 N   0  0  0  0  0  2  0  0  0  0  0  0
  187.1840  177.4130  137.8780 N   0  0  0  0  0  2  0  0  0  0  0  0
  189.2500  178.2390  140.9880 C   0  0  0  0  0  2  0  0  0  0  0  0
  190.3060  177.2440  141.4700 C   0  0  1  0  0  0  0  0  0  0  0  0
  190.3540  176.1500  140.6060 O   0  0  0  0  0  1  0  0  0  0  0  0
  191.6750  177.9020  141.5280 C   0  0  0  0  0  1  0  0  0  0  0  0
  191.1220  175.7570  143.7900 O   0  0  0  0  0  1  0  0  0  0  0  0
  189.5360  177.9890  144.1390 O   0  0  0  0  0  1  0  0  0  0  0  0
  189.8520  176.6630  143.1360 P   0  0  0  0  0  0  0  0  0  0  0  0
  188.6160  175.7950  143.0480 O   0  0  0  0  0  0  0  0  0  0  0  0
  1  6  1  0  0  0  0
  2  4  2  0  0  0  0
  4  3  1  0  0  0  0
  5  1  2  0  0  0  0
  5  2  1  0  0  0  0
  6  3  2  0  0  0  0
  8  1  1  0  0  0  0
  8  7  2  0  0  0  0
  9 10  2  0  0  0  0
  9 13  1  0  0  0  0
 10 11  1  0  0  0  0
 11  7  1  0  0  0  0
 11 14  2  0  0  0  0
 12 14  1  0  0  0  0
 12 15  1  0  0  0  0
 13 12  2  0  0  0  0
 15 16  1  6  0  0  0
 17 15  1  0  0  0  0
 17 19  1  0  0  0  0
 19 18  1  0  0  0  0
 20 32  1  6  0  0  0
 20  2  1  0  0  0  0
 21 24  1  0  0  0  0
 22 23  1  0  0  0  0
 23 24  1  0  0  0  0
 24 26  1  1  0  0  0
 25 20  1  6  0  0  0
 25 22  1  0  0  0  0
 25 21  1  0  0  0  0
 26 27  1  0  0  0  0
 28 29  2  0  0  0  0
 29 27  1  0  0  0  0
 29 30  1  0  0  0  0
 32 31  1  1  0  0  0
 33 32  1  0  0  0  0
 34  5  1  0  0  0  0
 34 35  1  0  0  0  0
 35 39  1  0  0  0  0
 36 37  2  0  0  0  0
 37 38  1  0  0  0  0
 38 40  1  0  0  0  0
 39 37  1  0  0  0  0
 40 41  1  0  0  0  0
 41 43  1  1  0  0  0
 41 46  1  0  0  0  0
 42 41  1  0  0  0  0
 46 44  1  0  0  0  0
 46 45  1  0  0  0  0
 47 46  2  0  0  0  0
M  END
>  <MODEL>
9

>  <REMARK>
 VINA RESULT:      -6.2      3.521      8.572
  Name = 
  17 active torsions:
  status: ('A' for Active; 'I' for Inactive)
    1  A    between atoms: C_1  and  P_25
    2  A    between atoms: C_1  and  C_39
    3  A    between atoms: N_4  and  C_34
    4  A    between atoms: C_7  and  N_35
    5  A    between atoms: C_10  and  C_24
    6  A    between atoms: C_15  and  C_29
    7  A    between atoms: C_17  and  C_29
    8  A    between atoms: C_17  and  N_42
    9  A    between atoms: C_19  and  C_37
   10  A    between atoms: C_19  and  C_41
   11  A    between atoms: C_21  and  N_33
   12  A    between atoms: C_22  and  C_46
   13  A    between atoms: C_24  and  C_28
   14  A    between atoms: C_24  and  C_32
   15  A    between atoms: C_26  and  C_37
   16  A    between atoms: N_33  and  C_46
   17  A    between atoms: N_36  and  C_39
                            x       y       z     vdW  Elec       q    Type
                         _______ _______ _______ _____ _____    ______ ____

>  <TORSDO>
F 17

$$$$
