=
 OpenBabel10232411233D

 37 39  0  0  1  0  0  0  0  0999 V2000
  181.5790  178.5920  139.6710 N   0  0  0  0  0  0  0  0  0  0  0  0
  180.5760  177.5990  140.0600 C   0  0  0  0  0  0  0  0  0  0  0  0
  180.2900  177.4320  141.3170 O   0  0  0  0  0  0  0  0  0  0  0  0
  182.6030  178.9900  143.3650 C   0  0  0  0  0  3  0  0  0  0  0  0
  183.5480  178.7750  142.3620 C   0  0  0  0  0  0  0  0  0  0  0  0
  183.2140  178.7350  141.1430 C   0  0  0  0  0  2  0  0  0  0  0  0
  184.3210  178.7120  144.9640 C   0  0  0  0  0  0  0  0  0  0  0  0
  187.2030  178.0090  146.6470 N   0  0  0  0  0  0  0  0  0  0  0  0
  182.9890  179.0100  144.6930 C   0  0  0  0  0  3  0  0  0  0  0  0
  188.2310  177.2280  145.7900 C   0  0  1  0  0  3  0  0  0  0  0  0
  184.8860  178.6750  146.1710 N   0  0  0  0  0  2  0  0  0  0  0  0
  186.5010  178.0890  144.4160 C   0  0  2  0  0  3  0  0  0  0  0  0
  185.1930  178.3670  143.9990 C   0  0  0  0  0  0  0  0  0  0  0  0
  187.7060  176.8510  143.8760 S   0  0  0  0  0  0  0  0  0  0  0  0
  186.1940  178.1900  145.8460 C   0  0  0  0  0  0  0  0  0  0  0  0
  184.8060  178.5090  142.7010 N   0  0  0  0  0  0  0  0  0  0  0  0
  182.9680  178.4200  139.9180 C   0  0  0  0  0  2  0  0  0  0  0  0
  189.8680  177.5090  146.0340 C   0  0  0  0  0  2  0  0  0  0  0  0
  190.2690  176.7310  147.3230 C   0  0  0  0  0  2  0  0  0  0  0  0
  191.6700  176.1980  147.1510 C   0  0  0  0  0  1  0  0  0  0  0  0
  181.2730  179.9270  139.8780 C   0  0  0  0  0  2  0  0  0  0  0  0
  181.5260  180.4920  138.4670 C   0  0  0  0  0  2  0  0  0  0  0  0
  181.4450  181.9850  138.2800 C   0  0  0  0  0  2  0  0  0  0  0  0
  180.4890  182.5220  137.1790 C   0  0  2  0  0  3  0  0  0  0  0  0
  180.3330  181.3410  136.0880 C   0  0  0  0  0  1  0  0  0  0  0  0
  182.2130  184.3570  137.5850 O   0  0  0  0  0  1  0  0  0  0  0  0
  181.4080  183.7400  136.7670 C   0  0  0  0  0  0  0  0  0  0  0  0
  180.9890  184.4530  135.6330 O   0  0  0  0  0  0  0  0  0  0  0  0
  180.0820  176.4900  139.1240 C   0  0  0  0  0  2  0  0  0  0  0  0
  180.0090  177.0850  137.6450 C   0  0  0  0  0  2  0  0  0  0  0  0
  186.0940  177.0210  136.9450 C   0  0  0  0  0  1  0  0  0  0  0  0
  181.9560  178.0660  135.5110 O   0  0  0  0  0  0  0  0  0  0  0  0
  181.0660  176.3700  136.8870 N   0  0  0  0  0  2  0  0  0  0  0  0
  184.7860  177.0670  136.0390 C   0  0  0  0  0  0  0  0  0  0  0  0
  183.5880  177.0250  136.8480 N   0  0  0  0  0  2  0  0  0  0  0  0
  182.2140  177.1290  136.3160 C   0  0  0  0  0  0  0  0  0  0  0  0
  184.6150  176.9840  134.7550 O   0  0  0  0  0  0  0  0  0  0  0  0
  1 21  1  0  0  0  0
  1 17  1  0  0  0  0
  1  2  1  0  0  0  0
  2  3  2  0  0  0  0
  4  9  1  0  0  0  0
  5 16  1  0  0  0  0
  5  4  2  0  0  0  0
  6  5  1  0  0  0  0
  7 11  1  0  0  0  0
  9  7  2  0  0  0  0
 10 18  1  6  0  0  0
 10  8  1  0  0  0  0
 12 14  1  1  0  0  0
 12 15  1  0  0  0  0
 13 12  1  0  0  0  0
 13  7  1  0  0  0  0
 14 10  1  0  0  0  0
 15 11  1  0  0  0  0
 15  8  2  0  0  0  0
 16 13  2  0  0  0  0
 17  6  1  0  0  0  0
 18 19  1  0  0  0  0
 20 19  1  0  0  0  0
 22 21  1  0  0  0  0
 23 22  1  0  0  0  0
 24 25  1  6  0  0  0
 24 23  1  0  0  0  0
 27 24  1  0  0  0  0
 27 26  1  0  0  0  0
 28 27  2  0  0  0  0
 29  2  1  0  0  0  0
 30 29  1  0  0  0  0
 32 36  2  0  0  0  0
 33 30  1  0  0  0  0
 34 35  1  0  0  0  0
 34 31  1  0  0  0  0
 36 35  1  0  0  0  0
 36 33  1  0  0  0  0
 37 34  2  0  0  0  0
M  END
>  <MODEL>
1

>  <REMARK>
 VINA RESULT:      -7.4      0.000      0.000
  Name = 
  11 active torsions:
  status: ('A' for Active; 'I' for Inactive)
    1  A    between atoms: C_4  and  N_7
    2  A    between atoms: C_4  and  C_30
    3  A    between atoms: N_7  and  C_37
    4  A    between atoms: C_8  and  C_18
    5  A    between atoms: N_9  and  C_17
    6  A    between atoms: C_11  and  C_16
    7  A    between atoms: C_11  and  C_19
    8  A    between atoms: C_14  and  C_30
    9  A    between atoms: C_14  and  C_32
   10  A    between atoms: C_17  and  C_18
   11  A    between atoms: C_27  and  C_32
                            x       y       z     vdW  Elec       q    Type
                         _______ _______ _______ _____ _____    ______ ____

>  <TORSDO>
F 11

$$$$
=
 OpenBabel10232411233D

 37 39  0  0  1  0  0  0  0  0999 V2000
  190.1930  175.7470  136.2580 N   0  0  0  0  0  0  0  0  0  0  0  0
  191.4700  175.0610  136.0530 C   0  0  0  0  0  0  0  0  0  0  0  0
  191.4820  173.7860  135.8030 O   0  0  0  0  0  0  0  0  0  0  0  0
  191.7760  177.0690  139.5130 C   0  0  0  0  0  3  0  0  0  0  0  0
  190.5560  176.3920  139.5140 C   0  0  0  0  0  0  0  0  0  0  0  0
  190.0870  175.8830  138.4560 C   0  0  0  0  0  2  0  0  0  0  0  0
  191.4320  177.5740  141.7960 C   0  0  0  0  0  0  0  0  0  0  0  0
  190.1830  178.0740  144.9310 N   0  0  0  0  0  0  0  0  0  0  0  0
  192.2590  177.6340  140.6790 C   0  0  0  0  0  3  0  0  0  0  0  0
  188.6470  177.8900  145.0090 C   0  0  1  0  0  3  0  0  0  0  0  0
  191.7100  178.0610  143.0060 N   0  0  0  0  0  2  0  0  0  0  0  0
  189.4720  177.0530  142.9490 C   0  0  2  0  0  3  0  0  0  0  0  0
  190.1960  177.0430  141.7500 C   0  0  0  0  0  0  0  0  0  0  0  0
  187.7190  177.3360  143.3010 S   0  0  0  0  0  0  0  0  0  0  0  0
  190.4690  177.8370  143.6840 C   0  0  0  0  0  0  0  0  0  0  0  0
  189.8280  176.3680  140.6270 N   0  0  0  0  0  0  0  0  0  0  0  0
  189.3950  175.5570  137.4190 C   0  0  0  0  0  2  0  0  0  0  0  0
  187.9770  177.2630  146.4150 C   0  0  0  0  0  2  0  0  0  0  0  0
  189.0400  177.4500  147.5390 C   0  0  0  0  0  2  0  0  0  0  0  0
  188.3730  178.0820  148.7360 C   0  0  0  0  0  1  0  0  0  0  0  0
  189.3420  175.8550  135.1700 C   0  0  0  0  0  2  0  0  0  0  0  0
  189.0920  177.3750  135.1630 C   0  0  0  0  0  2  0  0  0  0  0  0
  187.7020  177.8630  135.4810 C   0  0  0  0  0  2  0  0  0  0  0  0
  187.5520  178.9270  136.6030 C   0  0  2  0  0  3  0  0  0  0  0  0
  189.0410  179.2400  137.1450 C   0  0  0  0  0  1  0  0  0  0  0  0
  185.4210  177.6790  137.2430 O   0  0  0  0  0  0  0  0  0  0  0  0
  186.6420  178.0310  137.5340 C   0  0  0  0  0  0  0  0  0  0  0  0
  186.9970  178.0220  138.8930 O   0  0  0  0  0  1  0  0  0  0  0  0
  192.8220  175.6610  136.4560 C   0  0  0  0  0  2  0  0  0  0  0  0
  193.5800  174.6020  137.3760 C   0  0  0  0  0  2  0  0  0  0  0  0
  199.6710  174.1950  136.8680 C   0  0  0  0  0  1  0  0  0  0  0  0
  195.8500  173.6720  139.1910 O   0  0  0  0  0  0  0  0  0  0  0  0
  194.8150  175.2940  137.8260 N   0  0  0  0  0  2  0  0  0  0  0  0
  198.5740  174.3570  138.0100 C   0  0  0  0  0  0  0  0  0  0  0  0
  197.2430  174.4230  137.4500 N   0  0  0  0  0  2  0  0  0  0  0  0
  196.0020  174.4960  138.2480 C   0  0  0  0  0  0  0  0  0  0  0  0
  198.6730  174.5830  139.2840 O   0  0  0  0  0  0  0  0  0  0  0  0
  1 17  1  0  0  0  0
  2  1  1  0  0  0  0
  2 29  1  0  0  0  0
  3  2  2  0  0  0  0
  4  5  2  0  0  0  0
  4  9  1  0  0  0  0
  5 16  1  0  0  0  0
  6  5  1  0  0  0  0
  7 11  1  0  0  0  0
  8 10  1  0  0  0  0
  9  7  2  0  0  0  0
 10 18  1  1  0  0  0
 11 15  1  0  0  0  0
 12 13  1  6  0  0  0
 12 14  1  0  0  0  0
 12 15  1  0  0  0  0
 13  7  1  0  0  0  0
 14 10  1  0  0  0  0
 15  8  2  0  0  0  0
 16 13  2  0  0  0  0
 17  6  1  0  0  0  0
 18 19  1  0  0  0  0
 19 20  1  0  0  0  0
 21  1  1  0  0  0  0
 22 21  1  0  0  0  0
 22 23  1  0  0  0  0
 23 24  1  0  0  0  0
 24 25  1  1  0  0  0
 24 27  1  0  0  0  0
 26 27  2  0  0  0  0
 27 28  1  0  0  0  0
 29 30  1  0  0  0  0
 30 33  1  0  0  0  0
 31 34  1  0  0  0  0
 33 36  1  0  0  0  0
 34 37  2  0  0  0  0
 35 34  1  0  0  0  0
 35 36  1  0  0  0  0
 36 32  2  0  0  0  0
M  END
>  <MODEL>
2

>  <REMARK>
 VINA RESULT:      -7.4      6.828      9.630
  Name = 
  11 active torsions:
  status: ('A' for Active; 'I' for Inactive)
    1  A    between atoms: C_4  and  N_7
    2  A    between atoms: C_4  and  C_30
    3  A    between atoms: N_7  and  C_37
    4  A    between atoms: C_8  and  C_18
    5  A    between atoms: N_9  and  C_17
    6  A    between atoms: C_11  and  C_16
    7  A    between atoms: C_11  and  C_19
    8  A    between atoms: C_14  and  C_30
    9  A    between atoms: C_14  and  C_32
   10  A    between atoms: C_17  and  C_18
   11  A    between atoms: C_27  and  C_32
                            x       y       z     vdW  Elec       q    Type
                         _______ _______ _______ _____ _____    ______ ____

>  <TORSDO>
F 11

$$$$
=
 OpenBabel10232411233D

 37 39  0  0  1  0  0  0  0  0999 V2000
  182.8720  178.9990  138.7790 N   0  0  0  0  0  0  0  0  0  0  0  0
  181.9100  177.8950  138.7710 C   0  0  0  0  0  0  0  0  0  0  0  0
  181.5360  177.3610  139.8950 O   0  0  0  0  0  0  0  0  0  0  0  0
  183.6150  178.8380  142.5570 C   0  0  0  0  0  3  0  0  0  0  0  0
  184.6360  178.8040  141.6080 C   0  0  0  0  0  0  0  0  0  0  0  0
  184.3920  178.9480  140.3750 C   0  0  0  0  0  2  0  0  0  0  0  0
  185.2220  178.3530  144.2200 C   0  0  0  0  0  0  0  0  0  0  0  0
  187.9990  177.4610  145.9880 N   0  0  0  0  0  0  0  0  0  0  0  0
  183.9040  178.6600  143.8980 C   0  0  0  0  0  3  0  0  0  0  0  0
  189.1120  176.8470  145.1030 C   0  0  1  0  0  3  0  0  0  0  0  0
  185.7010  178.1400  145.4460 N   0  0  0  0  0  2  0  0  0  0  0  0
  187.4570  177.8720  143.7500 C   0  0  2  0  0  3  0  0  0  0  0  0
  186.1730  178.1830  143.2830 C   0  0  0  0  0  0  0  0  0  0  0  0
  188.7380  176.7610  143.1180 S   0  0  0  0  0  0  0  0  0  0  0  0
  187.0440  177.7420  145.1510 C   0  0  0  0  0  0  0  0  0  0  0  0
  185.8750  178.5170  141.9970 N   0  0  0  0  0  0  0  0  0  0  0  0
  184.2450  178.8220  139.1010 C   0  0  0  0  0  2  0  0  0  0  0  0
  190.7170  177.1240  145.5100 C   0  0  0  0  0  2  0  0  0  0  0  0
  190.8950  176.6390  146.9810 C   0  0  0  0  0  2  0  0  0  0  0  0
  192.1560  175.8150  147.0690 C   0  0  0  0  0  1  0  0  0  0  0  0
  182.4590  180.2040  139.3250 C   0  0  0  0  0  2  0  0  0  0  0  0
  181.6550  180.7830  138.1450 C   0  0  0  0  0  3  0  0  0  0  0  0
  181.5760  182.2820  138.0130 C   0  0  0  0  0  3  0  0  0  0  0  0
  180.5170  182.8640  137.0370 C   0  0  2  0  0  3  0  0  0  0  0  0
  180.5030  181.8980  135.7420 C   0  0  0  0  0  1  0  0  0  0  0  0
  181.0850  185.0310  135.8190 O   0  0  0  0  0  0  0  0  0  0  0  0
  181.2310  184.2620  136.8600 C   0  0  0  0  0  0  0  0  0  0  0  0
  182.3970  184.4410  137.6220 O   0  0  0  0  0  1  0  0  0  0  0  0
  181.5720  177.0830  137.5160 C   0  0  0  0  0  2  0  0  0  0  0  0
  182.2540  177.7980  136.2640 C   0  0  0  0  0  2  0  0  0  0  0  0
  185.7300  172.9540  137.6680 C   0  0  0  0  0  1  0  0  0  0  0  0
  185.2510  177.2270  136.3350 O   0  0  0  0  0  0  0  0  0  0  0  0
  183.0610  176.7400  135.6060 N   0  0  0  0  0  2  0  0  0  0  0  0
  185.8120  174.2640  136.7670 C   0  0  0  0  0  0  0  0  0  0  0  0
  184.5870  175.0290  136.8460 N   0  0  0  0  0  2  0  0  0  0  0  0
  184.3720  176.3340  136.1890 C   0  0  0  0  0  0  0  0  0  0  0  0
  186.6850  174.6660  135.8960 O   0  0  0  0  0  0  0  0  0  0  0  0
  1 17  1  0  0  0  0
  1 21  1  0  0  0  0
  2  1  1  0  0  0  0
  2  3  2  0  0  0  0
  4  9  1  0  0  0  0
  5 16  1  0  0  0  0
  5  4  2  0  0  0  0
  6  5  1  0  0  0  0
  7 11  1  0  0  0  0
  9  7  2  0  0  0  0
 10 18  1  6  0  0  0
 10  8  1  0  0  0  0
 12 14  1  6  0  0  0
 12 15  1  0  0  0  0
 13 12  1  0  0  0  0
 13  7  1  0  0  0  0
 14 10  1  0  0  0  0
 15 11  1  0  0  0  0
 15  8  2  0  0  0  0
 16 13  2  0  0  0  0
 17  6  1  0  0  0  0
 18 19  1  0  0  0  0
 19 20  1  0  0  0  0
 22 21  1  0  0  0  0
 23 22  2  0  0  0  0
 24 25  1  6  0  0  0
 24 23  1  0  0  0  0
 26 27  2  0  0  0  0
 27 24  1  0  0  0  0
 27 28  1  0  0  0  0
 29  2  1  0  0  0  0
 30 29  1  0  0  0  0
 33 36  1  0  0  0  0
 33 30  1  0  0  0  0
 34 35  1  0  0  0  0
 34 31  1  0  0  0  0
 36 32  2  0  0  0  0
 36 35  1  0  0  0  0
 37 34  2  0  0  0  0
M  END
>  <MODEL>
3

>  <REMARK>
 VINA RESULT:      -7.4      1.489      1.853
  Name = 
  11 active torsions:
  status: ('A' for Active; 'I' for Inactive)
    1  A    between atoms: C_4  and  N_7
    2  A    between atoms: C_4  and  C_30
    3  A    between atoms: N_7  and  C_37
    4  A    between atoms: C_8  and  C_18
    5  A    between atoms: N_9  and  C_17
    6  A    between atoms: C_11  and  C_16
    7  A    between atoms: C_11  and  C_19
    8  A    between atoms: C_14  and  C_30
    9  A    between atoms: C_14  and  C_32
   10  A    between atoms: C_17  and  C_18
   11  A    between atoms: C_27  and  C_32
                            x       y       z     vdW  Elec       q    Type
                         _______ _______ _______ _____ _____    ______ ____

>  <TORSDO>
F 11

$$$$
=
 OpenBabel10232411233D

 37 39  0  0  1  0  0  0  0  0999 V2000
  188.4800  176.6940  136.5510 N   0  0  0  0  0  0  0  0  0  0  0  0
  188.8840  175.6220  135.6400 C   0  0  0  0  0  0  0  0  0  0  0  0
  187.9790  174.8500  135.1160 O   0  0  0  0  0  0  0  0  0  0  0  0
  191.0930  177.1950  139.3390 C   0  0  0  0  0  3  0  0  0  0  0  0
  189.8070  176.7300  139.6160 C   0  0  0  0  0  0  0  0  0  0  0  0
  188.9850  176.4840  138.6870 C   0  0  0  0  0  2  0  0  0  0  0  0
  191.4680  177.3670  141.6660 C   0  0  0  0  0  0  0  0  0  0  0  0
  191.2120  177.5400  145.0630 N   0  0  0  0  0  0  0  0  0  0  0  0
  191.9680  177.4760  140.3730 C   0  0  0  0  0  3  0  0  0  0  0  0
  189.7450  177.5940  145.5590 C   0  0  1  0  0  3  0  0  0  0  0  0
  192.1460  177.5990  142.7910 N   0  0  0  0  0  2  0  0  0  0  0  0
  189.8160  176.9850  143.2690 C   0  0  2  0  0  3  0  0  0  0  0  0
  190.1840  177.0550  141.9190 C   0  0  0  0  0  0  0  0  0  0  0  0
  188.3100  177.4830  144.1410 S   0  0  0  0  0  0  0  0  0  0  0  0
  191.1070  177.4680  143.7680 C   0  0  0  0  0  0  0  0  0  0  0  0
  189.4060  176.6410  140.8810 N   0  0  0  0  0  0  0  0  0  0  0  0
  187.9940  176.4470  137.8640 C   0  0  0  0  0  2  0  0  0  0  0  0
  189.3570  176.8610  147.0190 C   0  0  0  0  0  2  0  0  0  0  0  0
  189.2610  177.9980  148.0800 C   0  0  0  0  0  2  0  0  0  0  0  0
  187.8970  177.9460  148.7230 C   0  0  0  0  0  1  0  0  0  0  0  0
  187.7530  177.7470  136.0200 C   0  0  0  0  0  2  0  0  0  0  0  0
  186.3280  177.3420  136.4430 C   0  0  0  0  0  2  0  0  0  0  0  0
  185.5000  178.3550  137.1920 C   0  0  0  0  0  2  0  0  0  0  0  0
  184.5240  177.8260  138.2770 C   0  0  2  0  0  3  0  0  0  0  0  0
  183.0350  177.9570  137.6630 C   0  0  0  0  0  1  0  0  0  0  0  0
  184.4120  180.0870  139.4510 O   0  0  0  0  0  0  0  0  0  0  0  0
  184.9270  178.8930  139.3710 C   0  0  0  0  0  0  0  0  0  0  0  0
  186.1900  178.7070  139.9550 O   0  0  0  0  0  1  0  0  0  0  0  0
  190.3250  175.1120  135.5260 C   0  0  0  0  0  2  0  0  0  0  0  0
  191.3070  176.3540  135.7220 C   0  0  0  0  0  2  0  0  0  0  0  0
  195.4720  172.8410  138.5190 C   0  0  0  0  0  1  0  0  0  0  0  0
  193.9220  176.8600  137.2090 O   0  0  0  0  0  0  0  0  0  0  0  0
  192.6710  175.8070  135.5090 N   0  0  0  0  0  2  0  0  0  0  0  0
  195.3930  174.2560  137.7950 C   0  0  0  0  0  0  0  0  0  0  0  0
  194.0620  174.5130  137.2930 N   0  0  0  0  0  2  0  0  0  0  0  0
  193.6410  175.7690  136.6410 C   0  0  0  0  0  0  0  0  0  0  0  0
  196.3080  175.1120  137.4580 O   0  0  0  0  0  0  0  0  0  0  0  0
  1 17  1  0  0  0  0
  2  1  1  0  0  0  0
  3  2  2  0  0  0  0
  4  5  2  0  0  0  0
  4  9  1  0  0  0  0
  5 16  1  0  0  0  0
  6  5  1  0  0  0  0
  7 13  1  0  0  0  0
  7 11  1  0  0  0  0
  8 10  1  0  0  0  0
  9  7  2  0  0  0  0
 10 18  1  1  0  0  0
 11 15  1  0  0  0  0
 12 13  1  6  0  0  0
 12 15  1  0  0  0  0
 12 14  1  0  0  0  0
 14 10  1  0  0  0  0
 15  8  2  0  0  0  0
 16 13  2  0  0  0  0
 17  6  1  0  0  0  0
 18 19  1  0  0  0  0
 19 20  1  0  0  0  0
 21 22  1  0  0  0  0
 21  1  1  0  0  0  0
 22 23  1  0  0  0  0
 23 24  1  0  0  0  0
 24 25  1  6  0  0  0
 24 27  1  0  0  0  0
 27 26  2  0  0  0  0
 27 28  1  0  0  0  0
 29  2  1  0  0  0  0
 29 30  1  0  0  0  0
 33 30  1  0  0  0  0
 33 36  1  0  0  0  0
 34 31  1  0  0  0  0
 35 34  1  0  0  0  0
 36 32  2  0  0  0  0
 36 35  1  0  0  0  0
 37 34  2  0  0  0  0
M  END
>  <MODEL>
4

>  <REMARK>
 VINA RESULT:      -7.2      5.541      7.984
  Name = 
  11 active torsions:
  status: ('A' for Active; 'I' for Inactive)
    1  A    between atoms: C_4  and  N_7
    2  A    between atoms: C_4  and  C_30
    3  A    between atoms: N_7  and  C_37
    4  A    between atoms: C_8  and  C_18
    5  A    between atoms: N_9  and  C_17
    6  A    between atoms: C_11  and  C_16
    7  A    between atoms: C_11  and  C_19
    8  A    between atoms: C_14  and  C_30
    9  A    between atoms: C_14  and  C_32
   10  A    between atoms: C_17  and  C_18
   11  A    between atoms: C_27  and  C_32
                            x       y       z     vdW  Elec       q    Type
                         _______ _______ _______ _____ _____    ______ ____

>  <TORSDO>
F 11

$$$$
=
 OpenBabel10232411233D

 37 39  0  0  1  0  0  0  0  0999 V2000
  184.4670  178.5580  144.6160 N   0  0  0  0  0  0  0  0  0  0  0  0
  185.4190  178.7980  145.7020 C   0  0  0  0  0  0  0  0  0  0  0  0
  185.6170  180.0100  146.1260 O   0  0  0  0  0  0  0  0  0  0  0  0
  187.7750  177.2010  143.1780 C   0  0  0  0  0  3  0  0  0  0  0  0
  186.9550  178.0590  142.4450 C   0  0  0  0  0  0  0  0  0  0  0  0
  185.9170  178.5710  142.9560 C   0  0  0  0  0  2  0  0  0  0  0  0
  189.0890  176.8930  141.2380 C   0  0  0  0  0  0  0  0  0  0  0  0
  190.3540  176.7810  138.0720 N   0  0  0  0  0  0  0  0  0  0  0  0
  188.8940  176.6390  142.5920 C   0  0  0  0  0  3  0  0  0  0  0  0
  189.3280  177.2070  136.9930 C   0  0  1  0  0  3  0  0  0  0  0  0
  190.0980  176.4410  140.4920 N   0  0  0  0  0  2  0  0  0  0  0  0
  188.5350  177.7810  139.1530 C   0  0  2  0  0  3  0  0  0  0  0  0
  188.2150  177.6070  140.5050 C   0  0  0  0  0  0  0  0  0  0  0  0
  187.5130  177.7960  137.6590 S   0  0  0  0  0  0  0  0  0  0  0  0
  189.7040  176.8960  139.1930 C   0  0  0  0  0  0  0  0  0  0  0  0
  187.2150  178.2630  141.1570 N   0  0  0  0  0  0  0  0  0  0  0  0
  184.7230  178.9380  143.2700 C   0  0  0  0  0  2  0  0  0  0  0  0
  189.8770  178.0130  135.6260 C   0  0  0  0  0  2  0  0  0  0  0  0
  189.3320  177.2290  134.3950 C   0  0  0  0  0  2  0  0  0  0  0  0
  187.8670  176.9430  134.6130 C   0  0  0  0  0  1  0  0  0  0  0  0
  183.1260  178.7890  144.8750 C   0  0  0  0  0  2  0  0  0  0  0  0
  182.5290  178.5660  143.4730 C   0  0  0  0  0  3  0  0  0  0  0  0
  181.0600  178.8430  143.2790 C   0  0  0  0  0  3  0  0  0  0  0  0
  180.4870  178.7100  141.8410 C   0  0  2  0  0  3  0  0  0  0  0  0
  181.7260  178.3090  140.8850 C   0  0  0  0  0  1  0  0  0  0  0  0
  179.9820  180.9070  140.6470 O   0  0  0  0  0  0  0  0  0  0  0  0
  179.9830  180.2050  141.7450 C   0  0  0  0  0  0  0  0  0  0  0  0
  179.9890  180.9200  142.9530 O   0  0  0  0  0  1  0  0  0  0  0  0
  186.4630  177.7690  146.1490 C   0  0  0  0  0  2  0  0  0  0  0  0
  186.8030  178.0420  147.6830 C   0  0  0  0  0  2  0  0  0  0  0  0
  191.7440  177.8360  144.0680 C   0  0  0  0  0  1  0  0  0  0  0  0
  189.2560  176.2400  147.4640 O   0  0  0  0  0  0  0  0  0  0  0  0
  188.2530  178.3610  147.7080 N   0  0  0  0  0  2  0  0  0  0  0  0
  191.3150  177.3890  145.5350 C   0  0  0  0  0  0  0  0  0  0  0  0
  189.9500  177.7720  145.8190 N   0  0  0  0  0  2  0  0  0  0  0  0
  189.2290  177.4360  147.0640 C   0  0  0  0  0  0  0  0  0  0  0  0
  191.9930  176.9010  146.5270 O   0  0  0  0  0  0  0  0  0  0  0  0
  1 21  1  0  0  0  0
  1  2  1  0  0  0  0
  2  3  2  0  0  0  0
  2 29  1  0  0  0  0
  5  6  1  0  0  0  0
  5  4  2  0  0  0  0
  6 17  1  0  0  0  0
  7  9  2  0  0  0  0
  8 15  2  0  0  0  0
  9  4  1  0  0  0  0
 10 18  1  1  0  0  0
 10 14  1  0  0  0  0
 10  8  1  0  0  0  0
 11  7  1  0  0  0  0
 12 14  1  6  0  0  0
 12 15  1  0  0  0  0
 12 13  1  0  0  0  0
 13 16  2  0  0  0  0
 13  7  1  0  0  0  0
 15 11  1  0  0  0  0
 16  5  1  0  0  0  0
 17  1  1  0  0  0  0
 19 20  1  0  0  0  0
 19 18  1  0  0  0  0
 22 21  1  0  0  0  0
 23 22  2  0  0  0  0
 24 25  1  6  0  0  0
 24 23  1  0  0  0  0
 26 27  2  0  0  0  0
 27 24  1  0  0  0  0
 27 28  1  0  0  0  0
 29 30  1  0  0  0  0
 30 33  1  0  0  0  0
 31 34  1  0  0  0  0
 34 35  1  0  0  0  0
 34 37  2  0  0  0  0
 35 36  1  0  0  0  0
 36 32  2  0  0  0  0
 36 33  1  0  0  0  0
M  END
>  <MODEL>
5

>  <REMARK>
 VINA RESULT:      -7.1      4.308      8.608
  Name = 
  11 active torsions:
  status: ('A' for Active; 'I' for Inactive)
    1  A    between atoms: C_4  and  N_7
    2  A    between atoms: C_4  and  C_30
    3  A    between atoms: N_7  and  C_37
    4  A    between atoms: C_8  and  C_18
    5  A    between atoms: N_9  and  C_17
    6  A    between atoms: C_11  and  C_16
    7  A    between atoms: C_11  and  C_19
    8  A    between atoms: C_14  and  C_30
    9  A    between atoms: C_14  and  C_32
   10  A    between atoms: C_17  and  C_18
   11  A    between atoms: C_27  and  C_32
                            x       y       z     vdW  Elec       q    Type
                         _______ _______ _______ _____ _____    ______ ____

>  <TORSDO>
F 11

$$$$
=
 OpenBabel10232411233D

 37 39  0  0  1  0  0  0  0  0999 V2000
  184.7410  177.9390  138.6070 N   0  0  0  0  0  0  0  0  0  0  0  0
  184.7570  179.0200  139.5940 C   0  0  0  0  0  0  0  0  0  0  0  0
  184.4820  180.2340  139.2210 O   0  0  0  0  0  0  0  0  0  0  0  0
  188.3470  177.6480  139.9350 C   0  0  0  0  0  3  0  0  0  0  0  0
  188.0710  177.6970  138.5680 C   0  0  0  0  0  0  0  0  0  0  0  0
  186.8950  177.8830  138.1420 C   0  0  0  0  0  2  0  0  0  0  0  0
  190.5980  177.1590  139.4050 C   0  0  0  0  0  0  0  0  0  0  0  0
  193.5440  176.3090  137.9110 N   0  0  0  0  0  0  0  0  0  0  0  0
  189.6380  177.4240  140.3760 C   0  0  0  0  0  3  0  0  0  0  0  0
  193.3620  175.7800  136.4660 C   0  0  1  0  0  3  0  0  0  0  0  0
  191.8900  176.9150  139.6240 N   0  0  0  0  0  2  0  0  0  0  0  0
  191.3580  176.7930  137.2300 C   0  0  2  0  0  3  0  0  0  0  0  0
  190.2930  177.0690  138.0970 C   0  0  0  0  0  0  0  0  0  0  0  0
  191.4740  175.7640  135.7450 S   0  0  0  0  0  0  0  0  0  0  0  0
  192.3350  176.5860  138.3030 C   0  0  0  0  0  0  0  0  0  0  0  0
  189.0460  177.4450  137.6990 N   0  0  0  0  0  0  0  0  0  0  0  0
  185.7310  177.8050  137.5950 C   0  0  0  0  0  2  0  0  0  0  0  0
  194.5520  176.1060  135.3280 C   0  0  0  0  0  2  0  0  0  0  0  0
  195.5370  174.8980  135.3520 C   0  0  0  0  0  2  0  0  0  0  0  0
  196.8800  175.3780  135.8450 C   0  0  0  0  0  1  0  0  0  0  0  0
  183.5190  177.5940  138.0530 C   0  0  0  0  0  2  0  0  0  0  0  0
  183.2010  176.3170  138.8550 C   0  0  0  0  0  2  0  0  0  0  0  0
  183.0090  175.0330  138.0890 C   0  0  0  0  0  2  0  0  0  0  0  0
  183.8920  174.8060  136.8310 C   0  0  2  0  0  3  0  0  0  0  0  0
  182.9320  175.0150  135.5490 C   0  0  0  0  0  1  0  0  0  0  0  0
  183.4620  172.3030  137.0560 O   0  0  0  0  0  0  0  0  0  0  0  0
  184.2730  173.3140  137.1860 C   0  0  0  0  0  0  0  0  0  0  0  0
  185.3320  173.1640  138.0960 O   0  0  0  0  0  1  0  0  0  0  0  0
  185.4150  178.8920  140.9720 C   0  0  0  0  0  2  0  0  0  0  0  0
  184.2610  178.8760  142.0730 C   0  0  0  0  0  2  0  0  0  0  0  0
  187.5680  177.6630  147.0850 C   0  0  0  0  0  1  0  0  0  0  0  0
  183.6600  178.5940  145.0510 O   0  0  0  0  0  0  0  0  0  0  0  0
  184.8420  179.5630  143.2540 N   0  0  0  0  0  2  0  0  0  0  0  0
  186.2210  178.4160  146.6930 C   0  0  0  0  0  0  0  0  0  0  0  0
  185.9920  178.3700  145.2660 N   0  0  0  0  0  2  0  0  0  0  0  0
  184.7930  178.9080  144.5930 C   0  0  0  0  0  0  0  0  0  0  0  0
  185.4100  179.1600  147.3810 O   0  0  0  0  0  0  0  0  0  0  0  0
  1  2  1  0  0  0  0
  2 29  1  0  0  0  0
  3  2  2  0  0  0  0
  4  9  1  0  0  0  0
  5  4  2  0  0  0  0
  6  5  1  0  0  0  0
  7 11  1  0  0  0  0
  7  9  2  0  0  0  0
  8 15  2  0  0  0  0
 10 18  1  6  0  0  0
 10  8  1  0  0  0  0
 12 14  1  1  0  0  0
 12 13  1  0  0  0  0
 12 15  1  0  0  0  0
 13  7  1  0  0  0  0
 14 10  1  0  0  0  0
 15 11  1  0  0  0  0
 16 13  2  0  0  0  0
 16  5  1  0  0  0  0
 17  6  1  0  0  0  0
 17  1  1  0  0  0  0
 18 19  1  0  0  0  0
 19 20  1  0  0  0  0
 21  1  1  0  0  0  0
 21 22  1  0  0  0  0
 23 22  1  0  0  0  0
 24 25  1  6  0  0  0
 24 27  1  0  0  0  0
 24 23  1  0  0  0  0
 26 27  2  0  0  0  0
 27 28  1  0  0  0  0
 29 30  1  0  0  0  0
 30 33  1  0  0  0  0
 33 36  1  0  0  0  0
 34 31  1  0  0  0  0
 34 37  2  0  0  0  0
 35 34  1  0  0  0  0
 36 32  2  0  0  0  0
 36 35  1  0  0  0  0
M  END
>  <MODEL>
6

>  <REMARK>
 VINA RESULT:      -7.0      5.263      8.824
  Name = 
  11 active torsions:
  status: ('A' for Active; 'I' for Inactive)
    1  A    between atoms: C_4  and  N_7
    2  A    between atoms: C_4  and  C_30
    3  A    between atoms: N_7  and  C_37
    4  A    between atoms: C_8  and  C_18
    5  A    between atoms: N_9  and  C_17
    6  A    between atoms: C_11  and  C_16
    7  A    between atoms: C_11  and  C_19
    8  A    between atoms: C_14  and  C_30
    9  A    between atoms: C_14  and  C_32
   10  A    between atoms: C_17  and  C_18
   11  A    between atoms: C_27  and  C_32
                            x       y       z     vdW  Elec       q    Type
                         _______ _______ _______ _____ _____    ______ ____

>  <TORSDO>
F 11

$$$$
=
 OpenBabel10232411233D

 37 39  0  0  1  0  0  0  0  0999 V2000
  185.2160  178.4060  138.7910 N   0  0  0  0  0  0  0  0  0  0  0  0
  184.1960  179.4000  139.1300 C   0  0  0  0  0  0  0  0  0  0  0  0
  184.3990  180.6510  138.8450 O   0  0  0  0  0  0  0  0  0  0  0  0
  184.9220  178.3980  142.6340 C   0  0  0  0  0  3  0  0  0  0  0  0
  186.1620  178.3920  141.9940 C   0  0  0  0  0  0  0  0  0  0  0  0
  186.2510  178.4860  140.7360 C   0  0  0  0  0  2  0  0  0  0  0  0
  186.0430  178.0520  144.6850 C   0  0  0  0  0  0  0  0  0  0  0  0
  188.2790  177.3660  147.1680 N   0  0  0  0  0  0  0  0  0  0  0  0
  184.8480  178.2760  144.0090 C   0  0  0  0  0  3  0  0  0  0  0  0
  189.6150  176.7880  146.6390 C   0  0  1  0  0  3  0  0  0  0  0  0
  186.1830  177.9020  146.0030 N   0  0  0  0  0  2  0  0  0  0  0  0
  188.3410  177.6810  144.8500 C   0  0  2  0  0  3  0  0  0  0  0  0
  187.2170  177.9060  144.0440 C   0  0  0  0  0  0  0  0  0  0  0  0
  189.7940  176.6240  144.6330 S   0  0  0  0  0  0  0  0  0  0  0  0
  187.5730  177.5700  146.0940 C   0  0  0  0  0  0  0  0  0  0  0  0
  187.2610  178.1850  142.7120 N   0  0  0  0  0  0  0  0  0  0  0  0
  186.4590  178.3140  139.4760 C   0  0  0  0  0  2  0  0  0  0  0  0
  191.0370  177.1650  147.4480 C   0  0  0  0  0  2  0  0  0  0  0  0
  191.9810  175.9350  147.2910 C   0  0  0  0  0  2  0  0  0  0  0  0
  192.8000  175.7890  148.5490 C   0  0  0  0  0  1  0  0  0  0  0  0
  185.4520  178.1610  137.4480 C   0  0  0  0  0  2  0  0  0  0  0  0
  186.5610  177.0970  137.5500 C   0  0  0  0  0  2  0  0  0  0  0  0
  187.4580  176.8970  136.3560 C   0  0  0  0  0  2  0  0  0  0  0  0
  188.7370  177.7740  136.2610 C   0  0  2  0  0  3  0  0  0  0  0  0
  189.3370  177.5560  134.7770 C   0  0  0  0  0  1  0  0  0  0  0  0
  190.0600  177.6670  138.4390 O   0  0  0  0  0  1  0  0  0  0  0  0
  189.5010  177.0470  137.4390 C   0  0  0  0  0  0  0  0  0  0  0  0
  189.9820  175.7620  137.1410 O   0  0  0  0  0  0  0  0  0  0  0  0
  183.0510  179.1300  140.1120 C   0  0  0  0  0  2  0  0  0  0  0  0
  181.7160  178.9050  139.2680 C   0  0  0  0  0  2  0  0  0  0  0  0
  184.5280  173.6870  137.7210 C   0  0  0  0  0  1  0  0  0  0  0  0
  181.4580  176.8980  136.9850 O   0  0  0  0  0  0  0  0  0  0  0  0
  181.4920  177.4370  139.2810 N   0  0  0  0  0  2  0  0  0  0  0  0
  183.1190  174.3970  137.5060 C   0  0  0  0  0  0  0  0  0  0  0  0
  183.0660  175.6710  138.1870 N   0  0  0  0  0  2  0  0  0  0  0  0
  181.9270  176.6090  138.1200 C   0  0  0  0  0  0  0  0  0  0  0  0
  182.0090  173.9810  136.9780 O   0  0  0  0  0  0  0  0  0  0  0  0
  1  2  1  0  0  0  0
  1 17  1  0  0  0  0
  2 29  1  0  0  0  0
  3  2  2  0  0  0  0
  4  9  1  0  0  0  0
  5  4  2  0  0  0  0
  5 16  1  0  0  0  0
  6  5  1  0  0  0  0
  7 11  1  0  0  0  0
  9  7  2  0  0  0  0
 10  8  1  0  0  0  0
 10 18  1  6  0  0  0
 11 15  1  0  0  0  0
 12 13  1  6  0  0  0
 12 15  1  0  0  0  0
 13  7  1  0  0  0  0
 14 12  1  0  0  0  0
 14 10  1  0  0  0  0
 15  8  2  0  0  0  0
 16 13  2  0  0  0  0
 17  6  1  0  0  0  0
 19 18  1  0  0  0  0
 19 20  1  0  0  0  0
 21 22  1  0  0  0  0
 21  1  1  0  0  0  0
 23 22  1  0  0  0  0
 24 25  1  6  0  0  0
 24 23  1  0  0  0  0
 24 27  1  0  0  0  0
 27 26  1  0  0  0  0
 28 27  2  0  0  0  0
 30 33  1  0  0  0  0
 30 29  1  0  0  0  0
 32 36  2  0  0  0  0
 34 31  1  0  0  0  0
 34 35  1  0  0  0  0
 36 35  1  0  0  0  0
 36 33  1  0  0  0  0
 37 34  2  0  0  0  0
M  END
>  <MODEL>
7

>  <REMARK>
 VINA RESULT:      -6.6      2.631      5.021
  Name = 
  11 active torsions:
  status: ('A' for Active; 'I' for Inactive)
    1  A    between atoms: C_4  and  N_7
    2  A    between atoms: C_4  and  C_30
    3  A    between atoms: N_7  and  C_37
    4  A    between atoms: C_8  and  C_18
    5  A    between atoms: N_9  and  C_17
    6  A    between atoms: C_11  and  C_16
    7  A    between atoms: C_11  and  C_19
    8  A    between atoms: C_14  and  C_30
    9  A    between atoms: C_14  and  C_32
   10  A    between atoms: C_17  and  C_18
   11  A    between atoms: C_27  and  C_32
                            x       y       z     vdW  Elec       q    Type
                         _______ _______ _______ _____ _____    ______ ____

>  <TORSDO>
F 11

$$$$
=
 OpenBabel10232411233D

 37 39  0  0  1  0  0  0  0  0999 V2000
  189.2670  176.7800  137.1890 N   0  0  0  0  0  0  0  0  0  0  0  0
  188.8990  177.9150  136.3420 C   0  0  0  0  0  0  0  0  0  0  0  0
  189.1900  179.1230  136.7240 O   0  0  0  0  0  0  0  0  0  0  0  0
  191.4520  177.3640  140.3100 C   0  0  0  0  0  3  0  0  0  0  0  0
  190.1620  176.8410  140.4060 C   0  0  0  0  0  0  0  0  0  0  0  0
  189.4850  176.5690  139.3730 C   0  0  0  0  0  2  0  0  0  0  0  0
  191.5000  177.5280  142.6670 C   0  0  0  0  0  0  0  0  0  0  0  0
  190.7770  177.6540  145.9980 N   0  0  0  0  0  0  0  0  0  0  0  0
  192.1650  177.6720  141.4530 C   0  0  0  0  0  3  0  0  0  0  0  0
  189.2560  177.6380  146.2900 C   0  0  1  0  0  3  0  0  0  0  0  0
  192.0070  177.7760  143.8740 N   0  0  0  0  0  2  0  0  0  0  0  0
  189.6640  177.0570  144.0280 C   0  0  2  0  0  3  0  0  0  0  0  0
  190.2080  177.1580  142.7410 C   0  0  0  0  0  0  0  0  0  0  0  0
  188.0330  177.4800  144.6880 S   0  0  0  0  0  0  0  0  0  0  0  0
  190.8530  177.5900  144.7000 C   0  0  0  0  0  0  0  0  0  0  0  0
  189.5980  176.7210  141.6040 N   0  0  0  0  0  0  0  0  0  0  0  0
  188.6180  176.4980  138.4220 C   0  0  0  0  0  2  0  0  0  0  0  0
  188.7060  176.8730  147.6800 C   0  0  0  0  0  2  0  0  0  0  0  0
  188.1400  177.9880  148.6100 C   0  0  0  0  0  2  0  0  0  0  0  0
  186.9740  178.6500  147.9180 C   0  0  0  0  0  1  0  0  0  0  0  0
  190.6160  176.5080  137.3470 C   0  0  0  0  0  2  0  0  0  0  0  0
  190.8740  175.6450  136.0970 C   0  0  0  0  0  2  0  0  0  0  0  0
  192.1970  175.8020  135.3920 C   0  0  0  0  0  2  0  0  0  0  0  0
  193.3090  174.7650  135.7100 C   0  0  2  0  0  3  0  0  0  0  0  0
  192.6030  173.5680  136.5340 C   0  0  0  0  0  1  0  0  0  0  0  0
  194.1750  175.8520  137.8480 O   0  0  0  0  0  1  0  0  0  0  0  0
  194.2040  175.7610  136.5490 C   0  0  0  0  0  0  0  0  0  0  0  0
  194.6770  176.8810  135.8460 O   0  0  0  0  0  0  0  0  0  0  0  0
  187.8840  177.8180  135.1970 C   0  0  0  0  0  2  0  0  0  0  0  0
  186.5380  177.1920  135.7810 C   0  0  0  0  0  2  0  0  0  0  0  0
  185.9590  179.1470  141.5570 C   0  0  0  0  0  1  0  0  0  0  0  0
  184.3200  177.1400  137.8750 O   0  0  0  0  0  0  0  0  0  0  0  0
  185.9070  178.2870  136.5600 N   0  0  0  0  0  2  0  0  0  0  0  0
  185.0330  178.8450  140.2980 C   0  0  0  0  0  0  0  0  0  0  0  0
  185.8190  178.4170  139.1620 N   0  0  0  0  0  2  0  0  0  0  0  0
  185.2540  177.9880  137.8660 C   0  0  0  0  0  0  0  0  0  0  0  0
  183.7720  179.0530  140.0770 O   0  0  0  0  0  0  0  0  0  0  0  0
  1 21  1  0  0  0  0
  1 17  1  0  0  0  0
  2  3  2  0  0  0  0
  2  1  1  0  0  0  0
  4  5  2  0  0  0  0
  4  9  1  0  0  0  0
  5 16  1  0  0  0  0
  6  5  1  0  0  0  0
  7 13  1  0  0  0  0
  7 11  1  0  0  0  0
  8 10  1  0  0  0  0
  9  7  2  0  0  0  0
 10 18  1  1  0  0  0
 11 15  1  0  0  0  0
 12 13  1  6  0  0  0
 12 14  1  0  0  0  0
 12 15  1  0  0  0  0
 14 10  1  0  0  0  0
 15  8  2  0  0  0  0
 16 13  2  0  0  0  0
 17  6  1  0  0  0  0
 18 19  1  0  0  0  0
 20 19  1  0  0  0  0
 22 21  1  0  0  0  0
 23 24  1  0  0  0  0
 23 22  1  0  0  0  0
 24 25  1  1  0  0  0
 24 27  1  0  0  0  0
 27 26  1  0  0  0  0
 28 27  2  0  0  0  0
 29 30  1  0  0  0  0
 29  2  1  0  0  0  0
 30 33  1  0  0  0  0
 33 36  1  0  0  0  0
 34 31  1  0  0  0  0
 35 34  1  0  0  0  0
 36 32  2  0  0  0  0
 36 35  1  0  0  0  0
 37 34  2  0  0  0  0
M  END
>  <MODEL>
8

>  <REMARK>
 VINA RESULT:      -6.6      4.787      8.412
  Name = 
  11 active torsions:
  status: ('A' for Active; 'I' for Inactive)
    1  A    between atoms: C_4  and  N_7
    2  A    between atoms: C_4  and  C_30
    3  A    between atoms: N_7  and  C_37
    4  A    between atoms: C_8  and  C_18
    5  A    between atoms: N_9  and  C_17
    6  A    between atoms: C_11  and  C_16
    7  A    between atoms: C_11  and  C_19
    8  A    between atoms: C_14  and  C_30
    9  A    between atoms: C_14  and  C_32
   10  A    between atoms: C_17  and  C_18
   11  A    between atoms: C_27  and  C_32
                            x       y       z     vdW  Elec       q    Type
                         _______ _______ _______ _____ _____    ______ ____

>  <TORSDO>
F 11

$$$$
=
 OpenBabel10232411233D

 37 39  0  0  1  0  0  0  0  0999 V2000
  187.8240  178.1290  142.3570 N   0  0  0  0  0  0  0  0  0  0  0  0
  189.2400  177.8590  142.6100 C   0  0  0  0  0  0  0  0  0  0  0  0
  189.9960  178.7980  143.0970 O   0  0  0  0  0  0  0  0  0  0  0  0
  184.0720  177.8040  141.5360 C   0  0  0  0  0  3  0  0  0  0  0  0
  184.9170  178.6290  140.7920 C   0  0  0  0  0  0  0  0  0  0  0  0
  186.1620  178.6620  141.0100 C   0  0  0  0  0  2  0  0  0  0  0  0
  182.2380  178.7150  140.3570 C   0  0  0  0  0  0  0  0  0  0  0  0
  180.1270  180.5860  138.4390 N   0  0  0  0  0  0  0  0  0  0  0  0
  182.7110  177.8000  141.2920 C   0  0  0  0  0  3  0  0  0  0  0  0
  180.7670  181.9060  137.9430 C   0  0  1  0  0  3  0  0  0  0  0  0
  180.9670  178.8710  139.9860 N   0  0  0  0  0  2  0  0  0  0  0  0
  182.4310  180.4690  138.8310 C   0  0  2  0  0  3  0  0  0  0  0  0
  183.0430  179.6040  139.7470 C   0  0  0  0  0  0  0  0  0  0  0  0
  182.6960  182.2200  138.4560 S   0  0  0  0  0  0  0  0  0  0  0  0
  181.0700  180.0150  139.1310 C   0  0  0  0  0  0  0  0  0  0  0  0
  184.3880  179.4680  139.9060 N   0  0  0  0  0  0  0  0  0  0  0  0
  187.3780  178.9720  141.3030 C   0  0  0  0  0  2  0  0  0  0  0  0
  180.3280  182.5020  136.4350 C   0  0  0  0  0  2  0  0  0  0  0  0
  180.0630  184.0270  136.6170 C   0  0  0  0  0  2  0  0  0  0  0  0
  180.7410  184.7740  135.4960 C   0  0  0  0  0  1  0  0  0  0  0  0
  187.0070  178.3500  143.4540 C   0  0  0  0  0  2  0  0  0  0  0  0
  187.0990  176.9790  144.1500 C   0  0  0  0  0  2  0  0  0  0  0  0
  187.3290  176.9580  145.6390 C   0  0  0  0  0  2  0  0  0  0  0  0
  188.3020  178.0150  146.2320 C   0  0  2  0  0  3  0  0  0  0  0  0
  189.7400  177.2920  146.3700 C   0  0  0  0  0  1  0  0  0  0  0  0
  186.3910  178.9160  147.6600 O   0  0  0  0  0  0  0  0  0  0  0  0
  187.4920  178.2250  147.5720 C   0  0  0  0  0  0  0  0  0  0  0  0
  188.2320  178.0610  148.7540 O   0  0  0  0  0  1  0  0  0  0  0  0
  189.9870  176.6570  142.0200 C   0  0  0  0  0  2  0  0  0  0  0  0
  191.3410  177.1880  141.3640 C   0  0  0  0  0  2  0  0  0  0  0  0
  186.6070  177.0320  137.4790 C   0  0  0  0  0  1  0  0  0  0  0  0
  190.6740  175.6410  138.8200 O   0  0  0  0  0  0  0  0  0  0  0  0
  190.9560  177.6590  140.0090 N   0  0  0  0  0  2  0  0  0  0  0  0
  188.1720  176.7390  137.4710 C   0  0  0  0  0  0  0  0  0  0  0  0
  188.7610  177.0100  138.7640 N   0  0  0  0  0  2  0  0  0  0  0  0
  190.1770  176.7650  139.1060 C   0  0  0  0  0  0  0  0  0  0  0  0
  188.9980  176.4580  136.5110 O   0  0  0  0  0  0  0  0  0  0  0  0
  1  2  1  0  0  0  0
  1 21  1  0  0  0  0
  2  3  2  0  0  0  0
  5  6  1  0  0  0  0
  5  4  2  0  0  0  0
  6 17  1  0  0  0  0
  7  9  2  0  0  0  0
  8 15  2  0  0  0  0
  9  4  1  0  0  0  0
 10 18  1  6  0  0  0
 10  8  1  0  0  0  0
 10 14  1  0  0  0  0
 11  7  1  0  0  0  0
 12 14  1  1  0  0  0
 12 15  1  0  0  0  0
 12 13  1  0  0  0  0
 13 16  2  0  0  0  0
 13  7  1  0  0  0  0
 15 11  1  0  0  0  0
 16  5  1  0  0  0  0
 17  1  1  0  0  0  0
 18 19  1  0  0  0  0
 20 19  1  0  0  0  0
 21 22  1  0  0  0  0
 22 23  1  0  0  0  0
 23 24  1  0  0  0  0
 24 25  1  1  0  0  0
 24 27  1  0  0  0  0
 27 26  2  0  0  0  0
 27 28  1  0  0  0  0
 29  2  1  0  0  0  0
 30 29  1  0  0  0  0
 32 36  2  0  0  0  0
 33 30  1  0  0  0  0
 34 31  1  0  0  0  0
 34 35  1  0  0  0  0
 35 36  1  0  0  0  0
 36 33  1  0  0  0  0
 37 34  2  0  0  0  0
M  END
>  <MODEL>
9

>  <REMARK>
 VINA RESULT:      -6.6      4.302      9.694
  Name = 
  11 active torsions:
  status: ('A' for Active; 'I' for Inactive)
    1  A    between atoms: C_4  and  N_7
    2  A    between atoms: C_4  and  C_30
    3  A    between atoms: N_7  and  C_37
    4  A    between atoms: C_8  and  C_18
    5  A    between atoms: N_9  and  C_17
    6  A    between atoms: C_11  and  C_16
    7  A    between atoms: C_11  and  C_19
    8  A    between atoms: C_14  and  C_30
    9  A    between atoms: C_14  and  C_32
   10  A    between atoms: C_17  and  C_18
   11  A    between atoms: C_27  and  C_32
                            x       y       z     vdW  Elec       q    Type
                         _______ _______ _______ _____ _____    ______ ____

>  <TORSDO>
F 11

$$$$
