=
 OpenBabel10232408003D

 46 48  0  0  1  0  0  0  0  0999 V2000
  183.2030  178.7930  142.4120 C   0  0  0  0  0  3  0  0  0  0  0  0
  183.2020  178.9770  143.7380 C   0  0  0  0  0  0  0  0  0  0  0  0
  182.0330  178.8000  144.4900 O   0  0  0  0  0  0  0  0  0  0  0  0
  179.9820  177.7730  143.7440 C   0  0  0  0  0  1  0  0  0  0  0  0
  180.7280  179.0720  143.9920 C   0  0  0  0  0  2  0  0  0  0  0  0
  184.4530  179.3740  144.4590 C   0  0  0  0  0  2  0  0  0  0  0  0
  185.2530  178.1470  144.8690 C   0  0  0  0  0  2  0  0  0  0  0  0
  185.9460  179.5520  146.6690 O   0  0  0  0  0  1  0  0  0  0  0  0
  185.6540  178.2270  146.3330 C   0  0  2  0  0  3  0  0  0  0  0  0
  186.8240  177.3960  146.5640 N   0  0  0  0  0  2  0  0  0  0  0  0
  187.7740  178.1840  147.3380 C   0  0  1  0  0  3  0  0  0  0  0  0
  187.5620  177.9310  148.8230 C   0  0  0  0  0  1  0  0  0  0  0  0
  189.5540  178.5190  145.5200 C   0  0  0  0  0  2  0  0  0  0  0  0
  189.5390  176.4030  147.0300 C   0  0  0  0  0  2  0  0  0  0  0  0
  191.0440  176.1390  147.0810 C   0  0  0  0  0  2  0  0  0  0  0  0
  189.9360  177.5490  144.3850 C   0  0  1  0  0  3  0  0  0  0  0  0
  189.2110  177.8910  146.8920 C   0  0  2  0  0  3  0  0  0  0  0  0
  191.8370  176.8640  145.9920 C   0  0  0  0  0  2  0  0  0  0  0  0
  191.2080  176.7070  144.6090 C   0  0  0  0  0  2  0  0  0  0  0  0
  188.7580  176.6840  143.9570 C   0  0  0  0  0  2  0  0  0  0  0  0
  189.5590  176.2310  141.7280 O   0  0  0  0  0  1  0  0  0  0  0  0
  188.5060  176.7950  142.4560 C   0  0  2  0  0  3  0  0  0  0  0  0
  187.9550  178.1030  140.7900 O   0  0  0  0  0  1  0  0  0  0  0  0
  188.2840  178.1280  142.0690 O   0  0  0  0  0  0  0  0  0  0  0  0
  184.4190  178.9620  141.5610 C   0  0  0  0  0  2  0  0  0  0  0  0
  184.6840  179.0310  138.8360 S   0  0  0  0  0  0  0  0  0  0  0  0
  182.9400  177.4610  140.2700 C   0  0  0  0  0  2  0  0  0  0  0  0
  184.3310  178.0670  140.3390 C   0  0  2  0  0  3  0  0  0  0  0  0
  182.7260  176.6720  137.8390 C   0  0  2  0  0  3  0  0  0  0  0  0
  185.1660  177.5260  137.9420 C   0  0  0  0  0  2  0  0  0  0  0  0
  182.8790  176.2690  139.3140 C   0  0  0  0  0  2  0  0  0  0  0  0
  184.0270  176.9850  137.0820 C   0  0  1  0  0  3  0  0  0  0  0  0
  181.6850  177.7210  137.6020 C   0  0  0  0  0  3  0  0  0  0  0  0
  181.8000  178.5090  136.6790 O   0  0  0  0  0  0  0  0  0  0  0  0
  184.4900  175.7960  136.3850 N   0  0  0  0  0  2  0  0  0  0  0  0
  185.5740  175.2210  137.1680 C   0  0  0  0  0  2  0  0  0  0  0  0
  186.2760  174.1290  136.3580 C   0  0  1  0  0  3  0  0  0  0  0  0
  187.7880  174.4280  136.2700 C   0  0  0  0  0  3  0  0  0  0  0  0
  189.6920  175.8680  137.0480 C   0  0  0  0  0  2  0  0  0  0  0  0
  188.6320  173.1830  136.5740 C   0  0  0  0  0  2  0  0  0  0  0  0
  190.1160  173.4890  136.3950 C   0  0  0  0  0  2  0  0  0  0  0  0
  190.5320  174.6240  137.3270 C   0  0  0  0  0  2  0  0  0  0  0  0
  188.2110  175.5500  137.2250 C   0  0  0  0  0  2  0  0  0  0  0  0
  185.1990  171.8820  136.0410 C   0  0  0  0  0  1  0  0  0  0  0  0
  186.0090  172.7470  136.9870 C   0  0  2  0  0  3  0  0  0  0  0  0
  185.3000  172.8600  138.1860 O   0  0  0  0  0  1  0  0  0  0  0  0
  1  2  2  0  0  0  0
  2  6  1  0  0  0  0
  2  3  1  0  0  0  0
  4  5  1  0  0  0  0
  5  3  1  0  0  0  0
  6  7  1  0  0  0  0
  7  9  1  0  0  0  0
  9 10  1  0  0  0  0
  9  8  1  6  0  0  0
 10 11  1  0  0  0  0
 11 12  1  1  0  0  0
 13 17  1  0  0  0  0
 14 15  1  0  0  0  0
 16 20  1  1  0  0  0
 16 19  1  0  0  0  0
 16 13  1  0  0  0  0
 17 14  1  0  0  0  0
 17 11  1  6  0  0  0
 18 15  1  0  0  0  0
 19 18  1  0  0  0  0
 22 21  1  6  0  0  0
 22 20  1  0  0  0  0
 23 24  1  0  0  0  0
 24 22  1  0  0  0  0
 25  1  1  0  0  0  0
 26 28  1  0  0  0  0
 27 28  1  0  0  0  0
 28 25  1  1  0  0  0
 29 33  1  1  0  0  0
 29 31  1  0  0  0  0
 30 26  1  0  0  0  0
 31 27  1  0  0  0  0
 32 35  1  1  0  0  0
 32 29  1  0  0  0  0
 32 30  1  0  0  0  0
 34 33  2  0  0  0  0
 35 36  1  0  0  0  0
 37 45  1  0  0  0  0
 37 36  1  1  0  0  0
 38 37  1  0  0  0  0
 38 40  1  0  0  0  0
 38 43  1  0  0  0  0
 39 43  1  0  0  0  0
 39 42  1  0  0  0  0
 41 40  1  0  0  0  0
 41 42  1  0  0  0  0
 45 44  1  6  0  0  0
 45 46  1  0  0  0  0
M  END
>  <MODEL>
1

>  <REMARK>
 VINA RESULT:      -6.8      0.000      0.000
  Name = 
  19 active torsions:
  status: ('A' for Active; 'I' for Inactive)
    1  A    between atoms: O_4  and  C_14
    2  A    between atoms: O_4  and  C_19
    3  A    between atoms: C_6  and  C_31
    4  A    between atoms: C_6  and  C_41
    5  A    between atoms: C_9  and  C_33
    6  A    between atoms: C_13  and  C_42
    7  A    between atoms: C_16  and  O_32
    8  A    between atoms: C_16  and  C_44
    9  A    between atoms: C_17  and  C_42
   10  A    between atoms: C_18  and  C_24
   11  A    between atoms: C_19  and  C_31
   12  A    between atoms: C_20  and  C_44
   13  A    between atoms: N_21  and  C_29
   14  A    between atoms: N_21  and  C_41
   15  A    between atoms: C_22  and  C_29
   16  A    between atoms: C_23  and  C_33
   17  A    between atoms: N_27  and  C_39
   18  A    between atoms: N_27  and  C_43
   19  A    between atoms: C_33  and  C_43
                            x       y       z     vdW  Elec       q    Type
                         _______ _______ _______ _____ _____    ______ ____

>  <TORSDO>
F 19

$$$$
=
 OpenBabel10232408003D

 46 48  0  0  1  0  0  0  0  0999 V2000
  190.8650  177.1540  139.3370 C   0  0  0  0  0  3  0  0  0  0  0  0
  190.8220  176.5540  138.1410 C   0  0  0  0  0  0  0  0  0  0  0  0
  191.9690  175.9740  137.5840 O   0  0  0  0  0  0  0  0  0  0  0  0
  193.4520  175.0270  135.9330 C   0  0  0  0  0  1  0  0  0  0  0  0
  192.0560  175.5440  136.2290 C   0  0  0  0  0  2  0  0  0  0  0  0
  189.5440  176.4820  137.3630 C   0  0  0  0  0  2  0  0  0  0  0  0
  189.3020  177.7770  136.6030 C   0  0  0  0  0  2  0  0  0  0  0  0
  187.3370  179.0600  137.0350 O   0  0  0  0  0  1  0  0  0  0  0  0
  187.8220  177.9660  136.3130 C   0  0  2  0  0  3  0  0  0  0  0  0
  187.0940  176.7680  136.6970 N   0  0  0  0  0  2  0  0  0  0  0  0
  186.3900  176.2870  135.5150 C   0  0  1  0  0  3  0  0  0  0  0  0
  187.1760  175.1530  134.8740 C   0  0  0  0  0  1  0  0  0  0  0  0
  183.9760  177.0790  135.8840 C   0  0  0  0  0  2  0  0  0  0  0  0
  184.9230  174.9950  137.1160 C   0  0  0  0  0  2  0  0  0  0  0  0
  183.6350  174.1770  137.2190 C   0  0  0  0  0  2  0  0  0  0  0  0
  183.2830  177.3960  137.2240 C   0  0  1  0  0  3  0  0  0  0  0  0
  184.9550  175.8810  135.8690 C   0  0  2  0  0  3  0  0  0  0  0  0
  182.3620  174.9950  136.9910 C   0  0  0  0  0  2  0  0  0  0  0  0
  182.3570  176.3000  137.7860 C   0  0  0  0  0  2  0  0  0  0  0  0
  184.2710  177.8880  138.2720 C   0  0  0  0  0  2  0  0  0  0  0  0
  182.6250  179.6450  138.4120 O   0  0  0  0  0  1  0  0  0  0  0  0
  183.6850  179.0340  139.0910 C   0  0  2  0  0  3  0  0  0  0  0  0
  185.1450  179.6170  140.6140 O   0  0  0  0  0  1  0  0  0  0  0  0
  184.6710  179.9770  139.4360 O   0  0  0  0  0  0  0  0  0  0  0  0
  189.6730  177.7840  139.9810 C   0  0  0  0  0  2  0  0  0  0  0  0
  191.3030  178.3600  142.1060 S   0  0  0  0  0  0  0  0  0  0  0  0
  189.6780  176.1570  141.8420 C   0  0  0  0  0  2  0  0  0  0  0  0
  189.7530  177.6320  141.4890 C   0  0  2  0  0  3  0  0  0  0  0  0
  190.5970  176.0420  144.2340 C   0  0  2  0  0  3  0  0  0  0  0  0
  190.5810  178.5860  143.7570 C   0  0  0  0  0  2  0  0  0  0  0  0
  189.3650  175.9350  143.3220 C   0  0  0  0  0  2  0  0  0  0  0  0
  190.9710  177.4570  144.7070 C   0  0  1  0  0  3  0  0  0  0  0  0
  191.7930  175.2980  143.7260 C   0  0  0  0  0  3  0  0  0  0  0  0
  192.3240  174.4410  144.4110 O   0  0  0  0  0  0  0  0  0  0  0  0
  190.3740  177.7140  146.0080 N   0  0  0  0  0  2  0  0  0  0  0  0
  189.0660  177.0760  146.0260 C   0  0  0  0  0  2  0  0  0  0  0  0
  188.0300  178.0330  146.6180 C   0  0  1  0  0  3  0  0  0  0  0  0
  186.6950  177.9020  145.8520 C   0  0  0  0  0  3  0  0  0  0  0  0
  184.3190  178.6810  145.6240 C   0  0  0  0  0  2  0  0  0  0  0  0
  186.8840  178.1040  144.3420 C   0  0  0  0  0  2  0  0  0  0  0  0
  185.5670  177.8850  143.6060 C   0  0  0  0  0  2  0  0  0  0  0  0
  184.5110  178.8590  144.1200 C   0  0  0  0  0  2  0  0  0  0  0  0
  185.6420  178.8990  146.3500 C   0  0  0  0  0  2  0  0  0  0  0  0
  188.8920  178.5000  148.9300 C   0  0  0  0  0  1  0  0  0  0  0  0
  187.8470  177.7540  148.1220 C   0  0  2  0  0  3  0  0  0  0  0  0
  187.9690  176.3920  148.4080 O   0  0  0  0  0  1  0  0  0  0  0  0
  1 25  1  0  0  0  0
  2  1  2  0  0  0  0
  3  2  1  0  0  0  0
  4  5  1  0  0  0  0
  5  3  1  0  0  0  0
  6  2  1  0  0  0  0
  7  6  1  0  0  0  0
  9  7  1  0  0  0  0
  9 10  1  0  0  0  0
  9  8  1  1  0  0  0
 11 12  1  1  0  0  0
 11 10  1  0  0  0  0
 13 16  1  0  0  0  0
 14 15  1  0  0  0  0
 16 19  1  0  0  0  0
 16 20  1  1  0  0  0
 17 11  1  1  0  0  0
 17 13  1  0  0  0  0
 17 14  1  0  0  0  0
 18 15  1  0  0  0  0
 18 19  1  0  0  0  0
 20 22  1  0  0  0  0
 22 21  1  6  0  0  0
 22 24  1  0  0  0  0
 24 23  1  0  0  0  0
 26 30  1  0  0  0  0
 27 31  1  0  0  0  0
 28 25  1  6  0  0  0
 28 27  1  0  0  0  0
 28 26  1  0  0  0  0
 29 33  1  6  0  0  0
 29 32  1  0  0  0  0
 30 32  1  0  0  0  0
 31 29  1  0  0  0  0
 32 35  1  1  0  0  0
 33 34  2  0  0  0  0
 35 36  1  0  0  0  0
 37 36  1  6  0  0  0
 37 45  1  0  0  0  0
 38 43  1  0  0  0  0
 38 37  1  0  0  0  0
 39 43  1  0  0  0  0
 40 38  1  0  0  0  0
 41 42  1  0  0  0  0
 41 40  1  0  0  0  0
 42 39  1  0  0  0  0
 45 46  1  0  0  0  0
 45 44  1  1  0  0  0
M  END
>  <MODEL>
2

>  <REMARK>
 VINA RESULT:      -6.7      2.731     10.430
  Name = 
  19 active torsions:
  status: ('A' for Active; 'I' for Inactive)
    1  A    between atoms: O_4  and  C_14
    2  A    between atoms: O_4  and  C_19
    3  A    between atoms: C_6  and  C_31
    4  A    between atoms: C_6  and  C_41
    5  A    between atoms: C_9  and  C_33
    6  A    between atoms: C_13  and  C_42
    7  A    between atoms: C_16  and  O_32
    8  A    between atoms: C_16  and  C_44
    9  A    between atoms: C_17  and  C_42
   10  A    between atoms: C_18  and  C_24
   11  A    between atoms: C_19  and  C_31
   12  A    between atoms: C_20  and  C_44
   13  A    between atoms: N_21  and  C_29
   14  A    between atoms: N_21  and  C_41
   15  A    between atoms: C_22  and  C_29
   16  A    between atoms: C_23  and  C_33
   17  A    between atoms: N_27  and  C_39
   18  A    between atoms: N_27  and  C_43
   19  A    between atoms: C_33  and  C_43
                            x       y       z     vdW  Elec       q    Type
                         _______ _______ _______ _____ _____    ______ ____

>  <TORSDO>
F 19

$$$$
=
 OpenBabel10232408003D

 46 48  0  0  1  0  0  0  0  0999 V2000
  182.4050  177.9850  138.8970 C   0  0  0  0  0  3  0  0  0  0  0  0
  183.1150  178.5060  139.9050 C   0  0  0  0  0  0  0  0  0  0  0  0
  182.7330  178.3010  141.2370 O   0  0  0  0  0  0  0  0  0  0  0  0
  180.4160  178.2100  141.9020 C   0  0  0  0  0  1  0  0  0  0  0  0
  181.6940  179.0300  141.8800 C   0  0  0  0  0  2  0  0  0  0  0  0
  184.3420  179.3230  139.6390 C   0  0  0  0  0  2  0  0  0  0  0  0
  185.5990  178.5070  139.8960 C   0  0  0  0  0  2  0  0  0  0  0  0
  185.5470  179.9010  141.8310 O   0  0  0  0  0  1  0  0  0  0  0  0
  186.1150  178.7360  141.3070 C   0  0  2  0  0  3  0  0  0  0  0  0
  187.5620  178.8680  141.2820 N   0  0  0  0  0  2  0  0  0  0  0  0
  188.1240  177.5250  141.3300 C   0  0  1  0  0  3  0  0  0  0  0  0
  189.0910  177.3310  140.1720 C   0  0  0  0  0  1  0  0  0  0  0  0
  187.8470  176.5020  143.6680 C   0  0  0  0  0  2  0  0  0  0  0  0
  189.4180  178.5310  143.2520 C   0  0  0  0  0  2  0  0  0  0  0  0
  190.4760  178.2310  144.3160 C   0  0  0  0  0  2  0  0  0  0  0  0
  187.4690  177.2260  144.9740 C   0  0  1  0  0  3  0  0  0  0  0  0
  188.7770  177.2600  142.6910 C   0  0  2  0  0  3  0  0  0  0  0  0
  190.0190  177.2300  145.3780 C   0  0  0  0  0  2  0  0  0  0  0  0
  188.6320  177.5560  145.9300 C   0  0  0  0  0  2  0  0  0  0  0  0
  186.5930  178.4440  144.7150 C   0  0  0  0  0  2  0  0  0  0  0  0
  184.2510  178.1470  144.2180 O   0  0  0  0  0  1  0  0  0  0  0  0
  185.1820  178.2380  145.2590 C   0  0  2  0  0  3  0  0  0  0  0  0
  185.5870  179.0940  147.2330 O   0  0  0  0  0  1  0  0  0  0  0  0
  184.8260  179.2530  146.1650 O   0  0  0  0  0  0  0  0  0  0  0  0
  182.7680  178.1670  137.4590 C   0  0  0  0  0  2  0  0  0  0  0  0
  182.4530  176.3470  135.4360 S   0  0  0  0  0  0  0  0  0  0  0  0
  183.3410  175.8210  137.9850 C   0  0  0  0  0  2  0  0  0  0  0  0
  183.3760  176.8910  136.9080 C   0  0  2  0  0  3  0  0  0  0  0  0
  183.6420  173.6260  136.6930 C   0  0  2  0  0  3  0  0  0  0  0  0
  183.8910  175.4120  134.8370 C   0  0  0  0  0  2  0  0  0  0  0  0
  184.2630  174.6460  137.6600 C   0  0  0  0  0  2  0  0  0  0  0  0
  183.7950  173.9320  135.1930 C   0  0  1  0  0  3  0  0  0  0  0  0
  182.2360  173.2440  137.0360 C   0  0  0  0  0  3  0  0  0  0  0  0
  181.8700  172.0850  136.9410 O   0  0  0  0  0  0  0  0  0  0  0  0
  184.9650  173.2470  134.6690 N   0  0  0  0  0  2  0  0  0  0  0  0
  185.9640  174.2590  134.3560 C   0  0  0  0  0  2  0  0  0  0  0  0
  187.3210  173.8420  134.9260 C   0  0  1  0  0  3  0  0  0  0  0  0
  187.8680  174.9540  135.8480 C   0  0  0  0  0  3  0  0  0  0  0  0
  189.8400  176.3710  136.4880 C   0  0  0  0  0  2  0  0  0  0  0  0
  187.0050  176.2220  135.7820 C   0  0  0  0  0  2  0  0  0  0  0  0
  187.5200  177.2680  136.7640 C   0  0  0  0  0  2  0  0  0  0  0  0
  188.9690  177.6230  136.4410 C   0  0  0  0  0  2  0  0  0  0  0  0
  189.3140  175.3290  135.5060 C   0  0  0  0  0  2  0  0  0  0  0  0
  187.4830  172.6890  137.1520 C   0  0  0  0  0  1  0  0  0  0  0  0
  187.1940  172.5010  135.6740 C   0  0  2  0  0  3  0  0  0  0  0  0
  188.0880  171.5500  135.1750 O   0  0  0  0  0  1  0  0  0  0  0  0
  1  2  2  0  0  0  0
  2  3  1  0  0  0  0
  3  5  1  0  0  0  0
  5  4  1  0  0  0  0
  6  7  1  0  0  0  0
  6  2  1  0  0  0  0
  7  9  1  0  0  0  0
  9  8  1  6  0  0  0
 10  9  1  0  0  0  0
 10 11  1  0  0  0  0
 11 12  1  6  0  0  0
 13 16  1  0  0  0  0
 14 15  1  0  0  0  0
 15 18  1  0  0  0  0
 16 20  1  6  0  0  0
 16 19  1  0  0  0  0
 17 11  1  6  0  0  0
 17 14  1  0  0  0  0
 17 13  1  0  0  0  0
 18 19  1  0  0  0  0
 20 22  1  0  0  0  0
 22 21  1  6  0  0  0
 22 24  1  0  0  0  0
 24 23  1  0  0  0  0
 25  1  1  0  0  0  0
 26 28  1  0  0  0  0
 28 25  1  1  0  0  0
 28 27  1  0  0  0  0
 29 33  1  1  0  0  0
 29 31  1  0  0  0  0
 30 32  1  0  0  0  0
 30 26  1  0  0  0  0
 31 27  1  0  0  0  0
 32 35  1  1  0  0  0
 32 29  1  0  0  0  0
 34 33  2  0  0  0  0
 36 35  1  0  0  0  0
 37 36  1  1  0  0  0
 37 45  1  0  0  0  0
 37 38  1  0  0  0  0
 40 38  1  0  0  0  0
 40 41  1  0  0  0  0
 42 39  1  0  0  0  0
 42 41  1  0  0  0  0
 43 38  1  0  0  0  0
 43 39  1  0  0  0  0
 45 44  1  1  0  0  0
 46 45  1  0  0  0  0
M  END
>  <MODEL>
3

>  <REMARK>
 VINA RESULT:      -6.7      2.344      4.154
  Name = 
  19 active torsions:
  status: ('A' for Active; 'I' for Inactive)
    1  A    between atoms: O_4  and  C_14
    2  A    between atoms: O_4  and  C_19
    3  A    between atoms: C_6  and  C_31
    4  A    between atoms: C_6  and  C_41
    5  A    between atoms: C_9  and  C_33
    6  A    between atoms: C_13  and  C_42
    7  A    between atoms: C_16  and  O_32
    8  A    between atoms: C_16  and  C_44
    9  A    between atoms: C_17  and  C_42
   10  A    between atoms: C_18  and  C_24
   11  A    between atoms: C_19  and  C_31
   12  A    between atoms: C_20  and  C_44
   13  A    between atoms: N_21  and  C_29
   14  A    between atoms: N_21  and  C_41
   15  A    between atoms: C_22  and  C_29
   16  A    between atoms: C_23  and  C_33
   17  A    between atoms: N_27  and  C_39
   18  A    between atoms: N_27  and  C_43
   19  A    between atoms: C_33  and  C_43
                            x       y       z     vdW  Elec       q    Type
                         _______ _______ _______ _____ _____    ______ ____

>  <TORSDO>
F 19

$$$$
=
 OpenBabel10232408003D

 46 48  0  0  1  0  0  0  0  0999 V2000
  192.3840  176.9290  138.9770 C   0  0  0  0  0  3  0  0  0  0  0  0
  192.8220  176.2500  137.9090 C   0  0  0  0  0  0  0  0  0  0  0  0
  194.1400  175.7790  137.8460 O   0  0  0  0  0  0  0  0  0  0  0  0
  194.8010  173.4960  137.4390 C   0  0  0  0  0  1  0  0  0  0  0  0
  194.6080  174.8800  136.8460 C   0  0  0  0  0  2  0  0  0  0  0  0
  191.9150  175.9690  136.7510 C   0  0  0  0  0  2  0  0  0  0  0  0
  191.1590  174.6660  136.9610 C   0  0  0  0  0  2  0  0  0  0  0  0
  191.4120  173.4400  134.9300 O   0  0  0  0  0  1  0  0  0  0  0  0
  190.5050  174.2050  135.6690 C   0  0  2  0  0  3  0  0  0  0  0  0
  190.0970  175.3620  134.8900 N   0  0  0  0  0  2  0  0  0  0  0  0
  188.6450  175.4510  134.9680 C   0  0  1  0  0  3  0  0  0  0  0  0
  188.0430  174.0540  134.9540 C   0  0  0  0  0  1  0  0  0  0  0  0
  186.9790  175.6660  136.9090 C   0  0  0  0  0  2  0  0  0  0  0  0
  188.1280  177.7540  135.8700 C   0  0  0  0  0  2  0  0  0  0  0  0
  188.1980  178.6310  137.1210 C   0  0  0  0  0  2  0  0  0  0  0  0
  185.7200  176.5520  136.9760 C   0  0  1  0  0  3  0  0  0  0  0  0
  188.2170  176.2620  136.1960 C   0  0  2  0  0  3  0  0  0  0  0  0
  187.2730  178.1740  138.2500 C   0  0  0  0  0  2  0  0  0  0  0  0
  185.8580  177.8720  137.7600 C   0  0  0  0  0  2  0  0  0  0  0  0
  185.1100  176.7780  135.5990 C   0  0  0  0  0  2  0  0  0  0  0  0
  182.8930  176.2860  136.4110 O   0  0  0  0  0  1  0  0  0  0  0  0
  183.8300  175.9680  135.4210 C   0  0  2  0  0  3  0  0  0  0  0  0
  183.4120  174.0570  136.4020 O   0  0  0  0  0  1  0  0  0  0  0  0
  184.0920  174.5870  135.4020 O   0  0  0  0  0  0  0  0  0  0  0  0
  190.9880  177.4490  139.1010 C   0  0  0  0  0  2  0  0  0  0  0  0
  192.0940  177.7300  141.5910 S   0  0  0  0  0  0  0  0  0  0  0  0
  189.8150  176.3240  140.9630 C   0  0  0  0  0  2  0  0  0  0  0  0
  190.6010  177.5610  140.5630 C   0  0  2  0  0  3  0  0  0  0  0  0
  189.9410  176.3080  143.5250 C   0  0  2  0  0  3  0  0  0  0  0  0
  191.1350  178.5210  142.9150 C   0  0  0  0  0  2  0  0  0  0  0  0
  189.0650  176.5200  142.2810 C   0  0  0  0  0  2  0  0  0  0  0  0
  190.7440  177.5280  144.0060 C   0  0  1  0  0  3  0  0  0  0  0  0
  190.7920  175.0780  143.4640 C   0  0  0  0  0  3  0  0  0  0  0  0
  191.8570  175.0330  144.0550 O   0  0  0  0  0  0  0  0  0  0  0  0
  189.9990  178.2330  145.0360 N   0  0  0  0  0  2  0  0  0  0  0  0
  188.9940  177.3180  145.5550 C   0  0  0  0  0  2  0  0  0  0  0  0
  187.9550  178.0940  146.3680 C   0  0  1  0  0  3  0  0  0  0  0  0
  186.5660  177.9650  145.7060 C   0  0  0  0  0  3  0  0  0  0  0  0
  184.1770  178.7380  145.6710 C   0  0  0  0  0  2  0  0  0  0  0  0
  186.6370  178.1830  144.1890 C   0  0  0  0  0  2  0  0  0  0  0  0
  185.2680  177.9660  143.5540 C   0  0  0  0  0  2  0  0  0  0  0  0
  184.2510  178.9310  144.1580 C   0  0  0  0  0  2  0  0  0  0  0  0
  185.5520  178.9530  146.2950 C   0  0  0  0  0  2  0  0  0  0  0  0
  188.8520  178.4350  148.6890 C   0  0  0  0  0  1  0  0  0  0  0  0
  187.9360  177.5900  147.8240 C   0  0  2  0  0  3  0  0  0  0  0  0
  188.3610  176.2620  147.9110 O   0  0  0  0  0  1  0  0  0  0  0  0
  1 25  1  0  0  0  0
  2  1  2  0  0  0  0
  3  2  1  0  0  0  0
  5  4  1  0  0  0  0
  5  3  1  0  0  0  0
  6  7  1  0  0  0  0
  6  2  1  0  0  0  0
  9  8  1  6  0  0  0
  9  7  1  0  0  0  0
 10 11  1  0  0  0  0
 10  9  1  0  0  0  0
 11 12  1  1  0  0  0
 13 16  1  0  0  0  0
 14 17  1  0  0  0  0
 14 15  1  0  0  0  0
 15 18  1  0  0  0  0
 16 20  1  6  0  0  0
 16 19  1  0  0  0  0
 17 11  1  6  0  0  0
 17 13  1  0  0  0  0
 19 18  1  0  0  0  0
 22 20  1  0  0  0  0
 22 21  1  1  0  0  0
 24 22  1  0  0  0  0
 24 23  1  0  0  0  0
 26 30  1  0  0  0  0
 27 31  1  0  0  0  0
 28 25  1  6  0  0  0
 28 27  1  0  0  0  0
 28 26  1  0  0  0  0
 29 33  1  6  0  0  0
 29 32  1  0  0  0  0
 30 32  1  0  0  0  0
 31 29  1  0  0  0  0
 32 35  1  1  0  0  0
 33 34  2  0  0  0  0
 35 36  1  0  0  0  0
 37 36  1  6  0  0  0
 37 45  1  0  0  0  0
 38 43  1  0  0  0  0
 38 37  1  0  0  0  0
 39 43  1  0  0  0  0
 40 38  1  0  0  0  0
 41 42  1  0  0  0  0
 41 40  1  0  0  0  0
 42 39  1  0  0  0  0
 45 46  1  0  0  0  0
 45 44  1  1  0  0  0
M  END
>  <MODEL>
4

>  <REMARK>
 VINA RESULT:      -6.6      3.127     10.740
  Name = 
  19 active torsions:
  status: ('A' for Active; 'I' for Inactive)
    1  A    between atoms: O_4  and  C_14
    2  A    between atoms: O_4  and  C_19
    3  A    between atoms: C_6  and  C_31
    4  A    between atoms: C_6  and  C_41
    5  A    between atoms: C_9  and  C_33
    6  A    between atoms: C_13  and  C_42
    7  A    between atoms: C_16  and  O_32
    8  A    between atoms: C_16  and  C_44
    9  A    between atoms: C_17  and  C_42
   10  A    between atoms: C_18  and  C_24
   11  A    between atoms: C_19  and  C_31
   12  A    between atoms: C_20  and  C_44
   13  A    between atoms: N_21  and  C_29
   14  A    between atoms: N_21  and  C_41
   15  A    between atoms: C_22  and  C_29
   16  A    between atoms: C_23  and  C_33
   17  A    between atoms: N_27  and  C_39
   18  A    between atoms: N_27  and  C_43
   19  A    between atoms: C_33  and  C_43
                            x       y       z     vdW  Elec       q    Type
                         _______ _______ _______ _____ _____    ______ ____

>  <TORSDO>
F 19

$$$$
=
 OpenBabel10232408003D

 46 48  0  0  1  0  0  0  0  0999 V2000
  191.1480  176.1550  138.9120 C   0  0  0  0  0  3  0  0  0  0  0  0
  190.6200  175.3680  137.9660 C   0  0  0  0  0  0  0  0  0  0  0  0
  191.3190  174.2540  137.4830 O   0  0  0  0  0  0  0  0  0  0  0  0
  192.4570  175.2240  135.5900 C   0  0  0  0  0  1  0  0  0  0  0  0
  192.5750  174.3400  136.8180 C   0  0  0  0  0  2  0  0  0  0  0  0
  189.2650  175.6530  137.3970 C   0  0  0  0  0  2  0  0  0  0  0  0
  189.3170  176.8410  136.4480 C   0  0  0  0  0  2  0  0  0  0  0  0
  187.7490  178.2760  137.5330 O   0  0  0  0  0  1  0  0  0  0  0  0
  187.9650  177.5310  136.3700 C   0  0  2  0  0  3  0  0  0  0  0  0
  186.9170  176.5350  136.2280 N   0  0  0  0  0  2  0  0  0  0  0  0
  185.6840  177.2390  135.9010 C   0  0  1  0  0  3  0  0  0  0  0  0
  185.7050  177.6600  134.4390 C   0  0  0  0  0  1  0  0  0  0  0  0
  183.2500  177.2230  136.7130 C   0  0  0  0  0  2  0  0  0  0  0  0
  184.8460  175.2210  137.1680 C   0  0  0  0  0  2  0  0  0  0  0  0
  183.8170  174.0900  137.1410 C   0  0  0  0  0  2  0  0  0  0  0  0
  182.7360  176.9720  138.1440 C   0  0  1  0  0  3  0  0  0  0  0  0
  184.4630  176.3810  136.2480 C   0  0  2  0  0  3  0  0  0  0  0  0
  182.3700  174.5640  137.2880 C   0  0  0  0  0  2  0  0  0  0  0  0
  182.1960  175.5580  138.4350 C   0  0  0  0  0  2  0  0  0  0  0  0
  183.7440  177.4140  139.1950 C   0  0  0  0  0  2  0  0  0  0  0  0
  182.2820  179.3310  139.1190 O   0  0  0  0  0  1  0  0  0  0  0  0
  183.4960  178.8560  139.6290 C   0  0  2  0  0  3  0  0  0  0  0  0
  184.0240  180.8300  138.8430 O   0  0  0  0  0  1  0  0  0  0  0  0
  184.5610  179.6960  139.2580 O   0  0  0  0  0  0  0  0  0  0  0  0
  190.4460  177.3510  139.4680 C   0  0  0  0  0  2  0  0  0  0  0  0
  189.0720  178.4810  141.5510 S   0  0  0  0  0  0  0  0  0  0  0  0
  191.4560  177.1180  141.7120 C   0  0  0  0  0  2  0  0  0  0  0  0
  190.1470  177.1440  140.9410 C   0  0  2  0  0  3  0  0  0  0  0  0
  190.7560  177.5550  144.1410 C   0  0  2  0  0  3  0  0  0  0  0  0
  188.4820  177.4320  142.9120 C   0  0  0  0  0  2  0  0  0  0  0  0
  191.2840  176.5390  143.1170 C   0  0  0  0  0  2  0  0  0  0  0  0
  189.2280  177.7150  144.2130 C   0  0  1  0  0  3  0  0  0  0  0  0
  191.4460  178.8820  144.0890 C   0  0  0  0  0  3  0  0  0  0  0  0
  190.7990  179.9140  144.0430 O   0  0  0  0  0  0  0  0  0  0  0  0
  188.6920  176.8550  145.2560 N   0  0  0  0  0  2  0  0  0  0  0  0
  187.2470  177.0260  145.2680 C   0  0  0  0  0  2  0  0  0  0  0  0
  186.8930  178.4160  145.8020 C   0  0  1  0  0  3  0  0  0  0  0  0
  185.6400  178.9540  145.0780 C   0  0  0  0  0  3  0  0  0  0  0  0
  184.3810  179.1340  142.9130 C   0  0  0  0  0  2  0  0  0  0  0  0
  184.3460  178.5030  145.7690 C   0  0  0  0  0  2  0  0  0  0  0  0
  183.1320  179.1200  145.0820 C   0  0  0  0  0  2  0  0  0  0  0  0
  183.0940  178.7050  143.6140 C   0  0  0  0  0  2  0  0  0  0  0  0
  185.5880  178.5150  143.6100 C   0  0  0  0  0  2  0  0  0  0  0  0
  186.3650  179.7410  147.8690 C   0  0  0  0  0  1  0  0  0  0  0  0
  186.6830  178.3600  147.3280 C   0  0  2  0  0  3  0  0  0  0  0  0
  187.8230  177.8900  147.9840 O   0  0  0  0  0  1  0  0  0  0  0  0
  1 25  1  0  0  0  0
  2  1  2  0  0  0  0
  3  2  1  0  0  0  0
  4  5  1  0  0  0  0
  5  3  1  0  0  0  0
  6  2  1  0  0  0  0
  7  6  1  0  0  0  0
  9  7  1  0  0  0  0
  9  8  1  1  0  0  0
 10  9  1  0  0  0  0
 11 12  1  6  0  0  0
 11 10  1  0  0  0  0
 13 16  1  0  0  0  0
 15 14  1  0  0  0  0
 15 18  1  0  0  0  0
 16 19  1  0  0  0  0
 16 20  1  1  0  0  0
 17 11  1  1  0  0  0
 17 13  1  0  0  0  0
 17 14  1  0  0  0  0
 18 19  1  0  0  0  0
 20 22  1  0  0  0  0
 22 21  1  6  0  0  0
 23 24  1  0  0  0  0
 24 22  1  0  0  0  0
 26 30  1  0  0  0  0
 27 31  1  0  0  0  0
 28 25  1  6  0  0  0
 28 26  1  0  0  0  0
 28 27  1  0  0  0  0
 29 33  1  6  0  0  0
 29 32  1  0  0  0  0
 30 32  1  0  0  0  0
 31 29  1  0  0  0  0
 32 35  1  1  0  0  0
 34 33  2  0  0  0  0
 35 36  1  0  0  0  0
 37 36  1  6  0  0  0
 37 45  1  0  0  0  0
 38 40  1  0  0  0  0
 38 37  1  0  0  0  0
 39 43  1  0  0  0  0
 39 42  1  0  0  0  0
 41 40  1  0  0  0  0
 42 41  1  0  0  0  0
 43 38  1  0  0  0  0
 45 44  1  1  0  0  0
 45 46  1  0  0  0  0
M  END
>  <MODEL>
5

>  <REMARK>
 VINA RESULT:      -6.5      2.474     10.284
  Name = 
  19 active torsions:
  status: ('A' for Active; 'I' for Inactive)
    1  A    between atoms: O_4  and  C_14
    2  A    between atoms: O_4  and  C_19
    3  A    between atoms: C_6  and  C_31
    4  A    between atoms: C_6  and  C_41
    5  A    between atoms: C_9  and  C_33
    6  A    between atoms: C_13  and  C_42
    7  A    between atoms: C_16  and  O_32
    8  A    between atoms: C_16  and  C_44
    9  A    between atoms: C_17  and  C_42
   10  A    between atoms: C_18  and  C_24
   11  A    between atoms: C_19  and  C_31
   12  A    between atoms: C_20  and  C_44
   13  A    between atoms: N_21  and  C_29
   14  A    between atoms: N_21  and  C_41
   15  A    between atoms: C_22  and  C_29
   16  A    between atoms: C_23  and  C_33
   17  A    between atoms: N_27  and  C_39
   18  A    between atoms: N_27  and  C_43
   19  A    between atoms: C_33  and  C_43
                            x       y       z     vdW  Elec       q    Type
                         _______ _______ _______ _____ _____    ______ ____

>  <TORSDO>
F 19

$$$$
=
 OpenBabel10232408003D

 46 48  0  0  1  0  0  0  0  0999 V2000
  189.5810  176.4910  137.7760 C   0  0  0  0  0  3  0  0  0  0  0  0
  189.4990  175.9640  136.5480 C   0  0  0  0  0  0  0  0  0  0  0  0
  189.8310  174.6220  136.3160 O   0  0  0  0  0  0  0  0  0  0  0  0
  192.0660  173.9040  136.8680 C   0  0  0  0  0  1  0  0  0  0  0  0
  191.0720  174.2040  135.7600 C   0  0  0  0  0  2  0  0  0  0  0  0
  189.0470  176.7920  135.3860 C   0  0  0  0  0  2  0  0  0  0  0  0
  187.6870  176.3270  134.8880 C   0  0  0  0  0  2  0  0  0  0  0  0
  187.1580  178.6050  135.3610 O   0  0  0  0  0  1  0  0  0  0  0  0
  186.6040  177.3260  135.2600 C   0  0  2  0  0  3  0  0  0  0  0  0
  186.0090  176.9500  136.5310 N   0  0  0  0  0  2  0  0  0  0  0  0
  185.2530  175.7240  136.3150 C   0  0  1  0  0  3  0  0  0  0  0  0
  185.8750  174.5890  137.1150 C   0  0  0  0  0  1  0  0  0  0  0  0
  183.4140  177.4230  136.8820 C   0  0  0  0  0  2  0  0  0  0  0  0
  183.3120  174.9740  137.7490 C   0  0  0  0  0  2  0  0  0  0  0  0
  181.7930  174.7950  137.7690 C   0  0  0  0  0  2  0  0  0  0  0  0
  182.8790  177.8030  138.2760 C   0  0  1  0  0  3  0  0  0  0  0  0
  183.7720  175.9350  136.6510 C   0  0  2  0  0  3  0  0  0  0  0  0
  181.0140  176.1100  137.7110 C   0  0  0  0  0  2  0  0  0  0  0  0
  181.5480  177.1500  138.6950 C   0  0  0  0  0  2  0  0  0  0  0  0
  183.9440  177.6490  139.3540 C   0  0  0  0  0  2  0  0  0  0  0  0
  184.8130  179.7780  140.0820 O   0  0  0  0  0  1  0  0  0  0  0  0
  183.8710  178.7840  140.3700 C   0  0  2  0  0  3  0  0  0  0  0  0
  184.6980  179.2350  142.3470 O   0  0  0  0  0  1  0  0  0  0  0  0
  184.0270  178.3090  141.6850 O   0  0  0  0  0  0  0  0  0  0  0  0
  189.2350  177.9120  138.0830 C   0  0  0  0  0  2  0  0  0  0  0  0
  190.3170  176.8200  140.3510 S   0  0  0  0  0  0  0  0  0  0  0  0
  188.0130  178.3130  140.1940 C   0  0  0  0  0  2  0  0  0  0  0  0
  189.3910  178.1780  139.5690 C   0  0  2  0  0  3  0  0  0  0  0  0
  188.4310  177.9660  142.7010 C   0  0  2  0  0  3  0  0  0  0  0  0
  190.8230  177.9050  141.7170 C   0  0  0  0  0  2  0  0  0  0  0  0
  188.0710  178.9540  141.5810 C   0  0  0  0  0  2  0  0  0  0  0  0
  189.9310  177.7290  142.9420 C   0  0  1  0  0  3  0  0  0  0  0  0
  187.6730  176.6760  142.6370 C   0  0  0  0  0  3  0  0  0  0  0  0
  188.0750  175.6930  143.2350 O   0  0  0  0  0  0  0  0  0  0  0  0
  190.4040  178.6120  143.9960 N   0  0  0  0  0  2  0  0  0  0  0  0
  191.6590  178.0680  144.4950 C   0  0  0  0  0  2  0  0  0  0  0  0
  191.4340  177.4080  145.8570 C   0  0  1  0  0  3  0  0  0  0  0  0
  190.0770  177.8570  146.4420 C   0  0  0  0  0  3  0  0  0  0  0  0
  187.6140  177.4030  146.6220 C   0  0  0  0  0  2  0  0  0  0  0  0
  190.1390  178.0120  147.9670 C   0  0  0  0  0  2  0  0  0  0  0  0
  188.8130  178.5380  148.5040 C   0  0  0  0  0  2  0  0  0  0  0  0
  187.6830  177.5800  148.1370 C   0  0  0  0  0  2  0  0  0  0  0  0
  188.9470  176.8810  146.0950 C   0  0  0  0  0  2  0  0  0  0  0  0
  192.3520  175.2870  146.8410 C   0  0  0  0  0  1  0  0  0  0  0  0
  191.5110  175.8740  145.7230 C   0  0  2  0  0  3  0  0  0  0  0  0
  192.0840  175.4960  144.5050 O   0  0  0  0  0  1  0  0  0  0  0  0
  1 25  1  0  0  0  0
  2  1  2  0  0  0  0
  3  2  1  0  0  0  0
  5  3  1  0  0  0  0
  5  4  1  0  0  0  0
  6  2  1  0  0  0  0
  7  9  1  0  0  0  0
  7  6  1  0  0  0  0
  9  8  1  1  0  0  0
  9 10  1  0  0  0  0
 11 10  1  0  0  0  0
 11 12  1  1  0  0  0
 13 16  1  0  0  0  0
 14 15  1  0  0  0  0
 16 19  1  0  0  0  0
 16 20  1  1  0  0  0
 17 11  1  1  0  0  0
 17 13  1  0  0  0  0
 17 14  1  0  0  0  0
 18 15  1  0  0  0  0
 18 19  1  0  0  0  0
 20 22  1  0  0  0  0
 22 21  1  6  0  0  0
 22 24  1  0  0  0  0
 24 23  1  0  0  0  0
 26 30  1  0  0  0  0
 27 31  1  0  0  0  0
 28 25  1  6  0  0  0
 28 27  1  0  0  0  0
 28 26  1  0  0  0  0
 29 33  1  6  0  0  0
 29 32  1  0  0  0  0
 30 32  1  0  0  0  0
 31 29  1  0  0  0  0
 32 35  1  1  0  0  0
 33 34  2  0  0  0  0
 35 36  1  0  0  0  0
 37 36  1  6  0  0  0
 37 38  1  0  0  0  0
 38 40  1  0  0  0  0
 39 42  1  0  0  0  0
 40 41  1  0  0  0  0
 42 41  1  0  0  0  0
 43 38  1  0  0  0  0
 43 39  1  0  0  0  0
 45 37  1  0  0  0  0
 45 44  1  1  0  0  0
 46 45  1  0  0  0  0
M  END
>  <MODEL>
6

>  <REMARK>
 VINA RESULT:      -6.3      2.682     10.057
  Name = 
  19 active torsions:
  status: ('A' for Active; 'I' for Inactive)
    1  A    between atoms: O_4  and  C_14
    2  A    between atoms: O_4  and  C_19
    3  A    between atoms: C_6  and  C_31
    4  A    between atoms: C_6  and  C_41
    5  A    between atoms: C_9  and  C_33
    6  A    between atoms: C_13  and  C_42
    7  A    between atoms: C_16  and  O_32
    8  A    between atoms: C_16  and  C_44
    9  A    between atoms: C_17  and  C_42
   10  A    between atoms: C_18  and  C_24
   11  A    between atoms: C_19  and  C_31
   12  A    between atoms: C_20  and  C_44
   13  A    between atoms: N_21  and  C_29
   14  A    between atoms: N_21  and  C_41
   15  A    between atoms: C_22  and  C_29
   16  A    between atoms: C_23  and  C_33
   17  A    between atoms: N_27  and  C_39
   18  A    between atoms: N_27  and  C_43
   19  A    between atoms: C_33  and  C_43
                            x       y       z     vdW  Elec       q    Type
                         _______ _______ _______ _____ _____    ______ ____

>  <TORSDO>
F 19

$$$$
=
 OpenBabel10232408003D

 46 48  0  0  1  0  0  0  0  0999 V2000
  191.3130  176.5210  139.3410 C   0  0  0  0  0  3  0  0  0  0  0  0
  190.8240  175.7510  138.3610 C   0  0  0  0  0  0  0  0  0  0  0  0
  191.5370  174.6380  137.8940 O   0  0  0  0  0  0  0  0  0  0  0  0
  193.5290  175.6410  136.9760 C   0  0  0  0  0  1  0  0  0  0  0  0
  192.3840  174.6690  136.7510 C   0  0  0  0  0  2  0  0  0  0  0  0
  189.4980  176.0540  137.7350 C   0  0  0  0  0  2  0  0  0  0  0  0
  189.5590  177.3520  136.9430 C   0  0  0  0  0  2  0  0  0  0  0  0
  188.0380  179.1220  137.4370 O   0  0  0  0  0  1  0  0  0  0  0  0
  188.1660  177.9230  136.7320 C   0  0  2  0  0  3  0  0  0  0  0  0
  187.1730  176.9720  137.2020 N   0  0  0  0  0  2  0  0  0  0  0  0
  186.1090  176.9230  136.2080 C   0  0  1  0  0  3  0  0  0  0  0  0
  186.6270  177.4420  134.8750 C   0  0  0  0  0  1  0  0  0  0  0  0
  183.9920  175.4950  135.9550 C   0  0  0  0  0  2  0  0  0  0  0  0
  186.0910  174.6000  137.2000 C   0  0  0  0  0  2  0  0  0  0  0  0
  185.9530  173.1150  136.8580 C   0  0  0  0  0  2  0  0  0  0  0  0
  183.1900  174.7920  137.0680 C   0  0  1  0  0  3  0  0  0  0  0  0
  185.5320  175.5070  136.1030 C   0  0  2  0  0  3  0  0  0  0  0  0
  184.5610  172.7220  136.3590 C   0  0  0  0  0  2  0  0  0  0  0  0
  183.4450  173.2820  137.2400 C   0  0  0  0  0  2  0  0  0  0  0  0
  183.2920  175.5330  138.3940 C   0  0  0  0  0  2  0  0  0  0  0  0
  180.9650  175.1990  138.9340 O   0  0  0  0  0  1  0  0  0  0  0  0
  181.9600  176.1710  138.7760 C   0  0  2  0  0  3  0  0  0  0  0  0
  182.0040  178.3050  138.2910 O   0  0  0  0  0  1  0  0  0  0  0  0
  181.5670  177.1440  137.8390 O   0  0  0  0  0  0  0  0  0  0  0  0
  190.5950  177.7150  139.8810 C   0  0  0  0  0  2  0  0  0  0  0  0
  191.8890  178.1810  142.2490 S   0  0  0  0  0  0  0  0  0  0  0  0
  190.1490  176.1190  141.7150 C   0  0  0  0  0  2  0  0  0  0  0  0
  190.4070  177.5780  141.3800 C   0  0  2  0  0  3  0  0  0  0  0  0
  190.6420  175.9610  144.2280 C   0  0  2  0  0  3  0  0  0  0  0  0
  190.9220  178.4900  143.7560 C   0  0  0  0  0  2  0  0  0  0  0  0
  189.5750  175.9450  143.1220 C   0  0  0  0  0  2  0  0  0  0  0  0
  191.0490  177.3460  144.7570 C   0  0  1  0  0  3  0  0  0  0  0  0
  191.8370  175.1120  143.9280 C   0  0  0  0  0  3  0  0  0  0  0  0
  192.3780  174.4710  144.8130 O   0  0  0  0  0  0  0  0  0  0  0  0
  190.2670  177.6690  145.9400 N   0  0  0  0  0  2  0  0  0  0  0  0
  188.9620  177.0440  145.7890 C   0  0  0  0  0  2  0  0  0  0  0  0
  187.8960  177.8930  146.4830 C   0  0  1  0  0  3  0  0  0  0  0  0
  186.5690  177.8170  145.6970 C   0  0  0  0  0  3  0  0  0  0  0  0
  184.1710  178.5490  145.5470 C   0  0  0  0  0  2  0  0  0  0  0  0
  186.7570  178.2050  144.2240 C   0  0  0  0  0  2  0  0  0  0  0  0
  185.4500  178.0370  143.4570 C   0  0  0  0  0  2  0  0  0  0  0  0
  184.3640  178.9120  144.0770 C   0  0  0  0  0  2  0  0  0  0  0  0
  185.4850  178.7160  146.3040 C   0  0  0  0  0  2  0  0  0  0  0  0
  188.3580  178.4220  148.8950 C   0  0  0  0  0  1  0  0  0  0  0  0
  187.7150  177.4310  147.9420 C   0  0  2  0  0  3  0  0  0  0  0  0
  188.3000  176.1800  148.1580 O   0  0  0  0  0  1  0  0  0  0  0  0
  1 25  1  0  0  0  0
  2  1  2  0  0  0  0
  3  2  1  0  0  0  0
  5  4  1  0  0  0  0
  5  3  1  0  0  0  0
  6  2  1  0  0  0  0
  7  6  1  0  0  0  0
  9  7  1  0  0  0  0
  9 10  1  0  0  0  0
  9  8  1  1  0  0  0
 11 12  1  6  0  0  0
 11 10  1  0  0  0  0
 13 17  1  0  0  0  0
 13 16  1  0  0  0  0
 15 14  1  0  0  0  0
 16 19  1  0  0  0  0
 16 20  1  1  0  0  0
 17 11  1  1  0  0  0
 17 14  1  0  0  0  0
 18 15  1  0  0  0  0
 18 19  1  0  0  0  0
 20 22  1  0  0  0  0
 22 21  1  6  0  0  0
 24 23  1  0  0  0  0
 24 22  1  0  0  0  0
 26 30  1  0  0  0  0
 27 31  1  0  0  0  0
 28 25  1  6  0  0  0
 28 27  1  0  0  0  0
 28 26  1  0  0  0  0
 29 33  1  6  0  0  0
 29 32  1  0  0  0  0
 30 32  1  0  0  0  0
 31 29  1  0  0  0  0
 32 35  1  1  0  0  0
 33 34  2  0  0  0  0
 36 35  1  0  0  0  0
 37 36  1  6  0  0  0
 37 45  1  0  0  0  0
 38 43  1  0  0  0  0
 38 37  1  0  0  0  0
 39 43  1  0  0  0  0
 40 38  1  0  0  0  0
 41 42  1  0  0  0  0
 41 40  1  0  0  0  0
 42 39  1  0  0  0  0
 45 46  1  0  0  0  0
 45 44  1  1  0  0  0
M  END
>  <MODEL>
7

>  <REMARK>
 VINA RESULT:      -6.0      2.773     10.481
  Name = 
  19 active torsions:
  status: ('A' for Active; 'I' for Inactive)
    1  A    between atoms: O_4  and  C_14
    2  A    between atoms: O_4  and  C_19
    3  A    between atoms: C_6  and  C_31
    4  A    between atoms: C_6  and  C_41
    5  A    between atoms: C_9  and  C_33
    6  A    between atoms: C_13  and  C_42
    7  A    between atoms: C_16  and  O_32
    8  A    between atoms: C_16  and  C_44
    9  A    between atoms: C_17  and  C_42
   10  A    between atoms: C_18  and  C_24
   11  A    between atoms: C_19  and  C_31
   12  A    between atoms: C_20  and  C_44
   13  A    between atoms: N_21  and  C_29
   14  A    between atoms: N_21  and  C_41
   15  A    between atoms: C_22  and  C_29
   16  A    between atoms: C_23  and  C_33
   17  A    between atoms: N_27  and  C_39
   18  A    between atoms: N_27  and  C_43
   19  A    between atoms: C_33  and  C_43
                            x       y       z     vdW  Elec       q    Type
                         _______ _______ _______ _____ _____    ______ ____

>  <TORSDO>
F 19

$$$$
=
 OpenBabel10232408003D

 46 48  0  0  1  0  0  0  0  0999 V2000
  188.6850  177.8770  139.4370 C   0  0  0  0  0  3  0  0  0  0  0  0
  188.1600  177.1670  138.4310 C   0  0  0  0  0  0  0  0  0  0  0  0
  186.8620  177.4230  137.9680 O   0  0  0  0  0  0  0  0  0  0  0  0
  184.5530  178.0570  138.2550 C   0  0  0  0  0  1  0  0  0  0  0  0
  186.0030  178.4060  138.5360 C   0  0  0  0  0  2  0  0  0  0  0  0
  188.9450  176.0770  137.7690 C   0  0  0  0  0  2  0  0  0  0  0  0
  190.0020  176.6600  136.8440 C   0  0  0  0  0  2  0  0  0  0  0  0
  189.9200  174.5670  135.7020 O   0  0  0  0  0  1  0  0  0  0  0  0
  190.7940  175.5560  136.1620 C   0  0  2  0  0  3  0  0  0  0  0  0
  191.7330  174.9750  137.1080 N   0  0  0  0  0  2  0  0  0  0  0  0
  193.0470  174.9840  136.4800 C   0  0  1  0  0  3  0  0  0  0  0  0
  193.6750  176.3630  136.6230 C   0  0  0  0  0  1  0  0  0  0  0  0
  195.2870  174.3990  137.5890 C   0  0  0  0  0  2  0  0  0  0  0  0
  194.0200  172.6840  136.1020 C   0  0  0  0  0  2  0  0  0  0  0  0
  194.4500  171.3970  136.8080 C   0  0  0  0  0  2  0  0  0  0  0  0
  196.5590  173.8520  136.9120 C   0  0  1  0  0  3  0  0  0  0  0  0
  193.9310  173.8740  137.0590 C   0  0  2  0  0  3  0  0  0  0  0  0
  195.6660  171.5680  137.7200 C   0  0  0  0  0  2  0  0  0  0  0  0
  196.8010  172.3360  137.0430 C   0  0  0  0  0  2  0  0  0  0  0  0
  196.6770  174.3160  135.4670 C   0  0  0  0  0  2  0  0  0  0  0  0
  198.9370  175.0630  135.8580 O   0  0  0  0  0  1  0  0  0  0  0  0
  197.6980  175.4410  135.3280 C   0  0  2  0  0  3  0  0  0  0  0  0
  196.5300  177.2650  135.0080 O   0  0  0  0  0  1  0  0  0  0  0  0
  197.2390  176.6300  135.9240 O   0  0  0  0  0  0  0  0  0  0  0  0
  190.0630  177.6510  139.9680 C   0  0  0  0  0  2  0  0  0  0  0  0
  191.5390  178.4020  142.1500 S   0  0  0  0  0  0  0  0  0  0  0  0
  189.9480  176.1680  141.9420 C   0  0  0  0  0  2  0  0  0  0  0  0
  190.0390  177.6140  141.4850 C   0  0  2  0  0  3  0  0  0  0  0  0
  190.7000  176.2430  144.3940 C   0  0  2  0  0  3  0  0  0  0  0  0
  190.7030  178.7430  143.7260 C   0  0  0  0  0  2  0  0  0  0  0  0
  189.5350  176.0540  143.4100 C   0  0  0  0  0  2  0  0  0  0  0  0
  191.0320  177.6930  144.7830 C   0  0  1  0  0  3  0  0  0  0  0  0
  191.9320  175.4760  144.0270 C   0  0  0  0  0  3  0  0  0  0  0  0
  191.9490  174.2590  144.1060 O   0  0  0  0  0  0  0  0  0  0  0  0
  190.3460  178.0400  146.0170 N   0  0  0  0  0  2  0  0  0  0  0  0
  189.1210  177.2560  146.0750 C   0  0  0  0  0  2  0  0  0  0  0  0
  187.9910  178.1010  146.6670 C   0  0  1  0  0  3  0  0  0  0  0  0
  186.7220  177.9660  145.7970 C   0  0  0  0  0  3  0  0  0  0  0  0
  184.3540  178.7050  145.4080 C   0  0  0  0  0  2  0  0  0  0  0  0
  187.0220  178.2160  144.3120 C   0  0  0  0  0  2  0  0  0  0  0  0
  185.7700  177.9920  143.4710 C   0  0  0  0  0  2  0  0  0  0  0  0
  184.6560  178.9300  143.9290 C   0  0  0  0  0  2  0  0  0  0  0  0
  185.6130  178.9270  146.2390 C   0  0  0  0  0  2  0  0  0  0  0  0
  188.6860  178.3840  149.0630 C   0  0  0  0  0  1  0  0  0  0  0  0
  187.7230  177.6820  148.1250 C   0  0  2  0  0  3  0  0  0  0  0  0
  187.8760  176.3040  148.2970 O   0  0  0  0  0  1  0  0  0  0  0  0
  1 25  1  0  0  0  0
  2  1  2  0  0  0  0
  3  2  1  0  0  0  0
  3  5  1  0  0  0  0
  4  5  1  0  0  0  0
  6  2  1  0  0  0  0
  7  6  1  0  0  0  0
  9  8  1  1  0  0  0
  9  7  1  0  0  0  0
  9 10  1  0  0  0  0
 11 12  1  1  0  0  0
 11 10  1  0  0  0  0
 14 15  1  0  0  0  0
 14 17  1  0  0  0  0
 15 18  1  0  0  0  0
 16 20  1  6  0  0  0
 16 19  1  0  0  0  0
 16 13  1  0  0  0  0
 17 11  1  6  0  0  0
 17 13  1  0  0  0  0
 19 18  1  0  0  0  0
 22 20  1  0  0  0  0
 22 21  1  1  0  0  0
 22 24  1  0  0  0  0
 23 24  1  0  0  0  0
 26 30  1  0  0  0  0
 27 31  1  0  0  0  0
 28 25  1  6  0  0  0
 28 27  1  0  0  0  0
 28 26  1  0  0  0  0
 29 33  1  6  0  0  0
 29 32  1  0  0  0  0
 30 32  1  0  0  0  0
 31 29  1  0  0  0  0
 32 35  1  1  0  0  0
 33 34  2  0  0  0  0
 35 36  1  0  0  0  0
 37 36  1  6  0  0  0
 37 45  1  0  0  0  0
 38 43  1  0  0  0  0
 38 37  1  0  0  0  0
 39 43  1  0  0  0  0
 40 38  1  0  0  0  0
 41 42  1  0  0  0  0
 41 40  1  0  0  0  0
 42 39  1  0  0  0  0
 45 46  1  0  0  0  0
 45 44  1  1  0  0  0
M  END
>  <MODEL>
8

>  <REMARK>
 VINA RESULT:      -6.0      4.365     10.412
  Name = 
  19 active torsions:
  status: ('A' for Active; 'I' for Inactive)
    1  A    between atoms: O_4  and  C_14
    2  A    between atoms: O_4  and  C_19
    3  A    between atoms: C_6  and  C_31
    4  A    between atoms: C_6  and  C_41
    5  A    between atoms: C_9  and  C_33
    6  A    between atoms: C_13  and  C_42
    7  A    between atoms: C_16  and  O_32
    8  A    between atoms: C_16  and  C_44
    9  A    between atoms: C_17  and  C_42
   10  A    between atoms: C_18  and  C_24
   11  A    between atoms: C_19  and  C_31
   12  A    between atoms: C_20  and  C_44
   13  A    between atoms: N_21  and  C_29
   14  A    between atoms: N_21  and  C_41
   15  A    between atoms: C_22  and  C_29
   16  A    between atoms: C_23  and  C_33
   17  A    between atoms: N_27  and  C_39
   18  A    between atoms: N_27  and  C_43
   19  A    between atoms: C_33  and  C_43
                            x       y       z     vdW  Elec       q    Type
                         _______ _______ _______ _____ _____    ______ ____

>  <TORSDO>
F 19

$$$$
=
 OpenBabel10232408003D

 46 48  0  0  1  0  0  0  0  0999 V2000
  189.6610  177.6420  138.4460 C   0  0  0  0  0  3  0  0  0  0  0  0
  189.1440  176.7650  137.5770 C   0  0  0  0  0  0  0  0  0  0  0  0
  188.0120  177.0850  136.8160 O   0  0  0  0  0  0  0  0  0  0  0  0
  185.6640  176.9250  136.2850 C   0  0  0  0  0  1  0  0  0  0  0  0
  186.7010  177.1910  137.3610 C   0  0  0  0  0  2  0  0  0  0  0  0
  189.7630  175.4140  137.3880 C   0  0  0  0  0  2  0  0  0  0  0  0
  190.9000  175.4780  136.3800 C   0  0  0  0  0  2  0  0  0  0  0  0
  190.3020  173.1760  136.1910 O   0  0  0  0  0  1  0  0  0  0  0  0
  191.3440  174.0820  135.9760 C   0  0  2  0  0  3  0  0  0  0  0  0
  192.5010  173.6910  136.7640 N   0  0  0  0  0  2  0  0  0  0  0  0
  193.4670  174.7790  136.6940 C   0  0  1  0  0  3  0  0  0  0  0  0
  193.7760  175.2840  138.0950 C   0  0  0  0  0  1  0  0  0  0  0  0
  194.6290  172.8880  135.4060 C   0  0  0  0  0  2  0  0  0  0  0  0
  195.9900  174.6590  136.7370 C   0  0  0  0  0  2  0  0  0  0  0  0
  197.2400  174.7040  135.8570 C   0  0  0  0  0  2  0  0  0  0  0  0
  195.6630  171.8780  135.9430 C   0  0  1  0  0  3  0  0  0  0  0  0
  194.7250  174.3370  135.9380 C   0  0  2  0  0  3  0  0  0  0  0  0
  197.3750  173.5110  134.9100 C   0  0  0  0  0  2  0  0  0  0  0  0
  197.1380  172.1760  135.6150 C   0  0  0  0  0  2  0  0  0  0  0  0
  195.4630  171.5960  137.4260 C   0  0  0  0  0  2  0  0  0  0  0  0
  194.9970  169.8310  139.0030 O   0  0  0  0  0  1  0  0  0  0  0  0
  194.9110  170.1920  137.6530 C   0  0  2  0  0  3  0  0  0  0  0  0
  196.3250  168.5210  137.6320 O   0  0  0  0  0  1  0  0  0  0  0  0
  195.5580  169.2460  136.8380 O   0  0  0  0  0  0  0  0  0  0  0  0
  190.8680  177.3560  139.2780 C   0  0  0  0  0  2  0  0  0  0  0  0
  192.0360  177.6800  141.7350 S   0  0  0  0  0  0  0  0  0  0  0  0
  189.8010  176.1790  141.1720 C   0  0  0  0  0  2  0  0  0  0  0  0
  190.5210  177.4490  140.7530 C   0  0  2  0  0  3  0  0  0  0  0  0
  190.0050  176.1650  143.7290 C   0  0  2  0  0  3  0  0  0  0  0  0
  191.0860  178.4280  143.0900 C   0  0  0  0  0  2  0  0  0  0  0  0
  189.0830  176.3420  142.5130 C   0  0  0  0  0  2  0  0  0  0  0  0
  190.7700  177.4170  144.1890 C   0  0  1  0  0  3  0  0  0  0  0  0
  190.9040  174.9720  143.6390 C   0  0  0  0  0  3  0  0  0  0  0  0
  192.0070  174.9880  144.1590 O   0  0  0  0  0  0  0  0  0  0  0  0
  190.0270  178.0880  145.2430 N   0  0  0  0  0  2  0  0  0  0  0  0
  188.9190  177.2240  145.6190 C   0  0  0  0  0  2  0  0  0  0  0  0
  187.9010  178.0140  146.4450 C   0  0  1  0  0  3  0  0  0  0  0  0
  186.5120  177.9440  145.7750 C   0  0  0  0  0  3  0  0  0  0  0  0
  184.1470  178.7880  145.7510 C   0  0  0  0  0  2  0  0  0  0  0  0
  186.5960  178.1990  144.2640 C   0  0  0  0  0  2  0  0  0  0  0  0
  185.2240  178.0390  143.6190 C   0  0  0  0  0  2  0  0  0  0  0  0
  184.2340  179.0180  144.2440 C   0  0  0  0  0  2  0  0  0  0  0  0
  185.5250  178.9450  146.3850 C   0  0  0  0  0  2  0  0  0  0  0  0
  188.6060  178.4110  148.8230 C   0  0  0  0  0  1  0  0  0  0  0  0
  187.8590  177.4770  147.8890 C   0  0  2  0  0  3  0  0  0  0  0  0
  188.4450  176.2120  147.9820 O   0  0  0  0  0  1  0  0  0  0  0  0
  1 25  1  0  0  0  0
  2  1  2  0  0  0  0
  3  5  1  0  0  0  0
  3  2  1  0  0  0  0
  4  5  1  0  0  0  0
  6  2  1  0  0  0  0
  7  6  1  0  0  0  0
  9  8  1  1  0  0  0
  9  7  1  0  0  0  0
  9 10  1  0  0  0  0
 11 10  1  0  0  0  0
 11 12  1  1  0  0  0
 13 17  1  0  0  0  0
 13 16  1  0  0  0  0
 15 14  1  0  0  0  0
 16 20  1  1  0  0  0
 17 11  1  1  0  0  0
 17 14  1  0  0  0  0
 18 19  1  0  0  0  0
 18 15  1  0  0  0  0
 19 16  1  0  0  0  0
 20 22  1  0  0  0  0
 22 21  1  1  0  0  0
 24 23  1  0  0  0  0
 24 22  1  0  0  0  0
 26 30  1  0  0  0  0
 27 31  1  0  0  0  0
 28 25  1  6  0  0  0
 28 27  1  0  0  0  0
 28 26  1  0  0  0  0
 29 33  1  6  0  0  0
 29 32  1  0  0  0  0
 30 32  1  0  0  0  0
 31 29  1  0  0  0  0
 32 35  1  1  0  0  0
 33 34  2  0  0  0  0
 35 36  1  0  0  0  0
 37 36  1  6  0  0  0
 37 45  1  0  0  0  0
 38 43  1  0  0  0  0
 38 37  1  0  0  0  0
 39 43  1  0  0  0  0
 40 38  1  0  0  0  0
 41 42  1  0  0  0  0
 41 40  1  0  0  0  0
 42 39  1  0  0  0  0
 45 46  1  0  0  0  0
 45 44  1  1  0  0  0
M  END
>  <MODEL>
9

>  <REMARK>
 VINA RESULT:      -5.9      4.520     10.752
  Name = 
  19 active torsions:
  status: ('A' for Active; 'I' for Inactive)
    1  A    between atoms: O_4  and  C_14
    2  A    between atoms: O_4  and  C_19
    3  A    between atoms: C_6  and  C_31
    4  A    between atoms: C_6  and  C_41
    5  A    between atoms: C_9  and  C_33
    6  A    between atoms: C_13  and  C_42
    7  A    between atoms: C_16  and  O_32
    8  A    between atoms: C_16  and  C_44
    9  A    between atoms: C_17  and  C_42
   10  A    between atoms: C_18  and  C_24
   11  A    between atoms: C_19  and  C_31
   12  A    between atoms: C_20  and  C_44
   13  A    between atoms: N_21  and  C_29
   14  A    between atoms: N_21  and  C_41
   15  A    between atoms: C_22  and  C_29
   16  A    between atoms: C_23  and  C_33
   17  A    between atoms: N_27  and  C_39
   18  A    between atoms: N_27  and  C_43
   19  A    between atoms: C_33  and  C_43
                            x       y       z     vdW  Elec       q    Type
                         _______ _______ _______ _____ _____    ______ ____

>  <TORSDO>
F 19

$$$$
