=
 OpenBabel10232408413D

 40 46  0  0  1  0  0  0  0  0999 V2000
  190.2380  177.0740  144.0150 C   0  0  0  0  0  0  0  0  0  0  0  0
  185.4430  179.1070  139.9280 C   0  0  0  0  0  2  0  0  0  0  0  0
  190.0950  177.0020  145.4270 C   0  0  0  0  0  3  0  0  0  0  0  0
  186.6680  178.3050  141.9900 C   0  0  0  0  0  0  0  0  0  0  0  0
  186.5190  177.9150  145.6040 N   0  0  0  0  0  0  0  0  0  0  0  0
  187.8330  178.0660  141.2160 C   0  0  0  0  0  3  0  0  0  0  0  0
  184.5670  178.3910  144.3610 C   0  0  0  0  0  2  0  0  0  0  0  0
  191.6070  176.8930  143.4600 C   0  0  0  0  0  1  0  0  0  0  0  0
  184.1620  178.6590  141.8780 C   0  0  0  0  0  0  0  0  0  0  0  0
  187.7810  177.5860  145.2440 C   0  0  0  0  0  0  0  0  0  0  0  0
  183.1930  178.6490  140.7530 C   0  0  1  0  0  3  0  0  0  0  0  0
  189.1060  177.3980  143.2090 C   0  0  0  0  0  0  0  0  0  0  0  0
  187.9280  177.6340  143.9000 C   0  0  0  0  0  0  0  0  0  0  0  0
  189.0350  177.5680  141.7930 C   0  0  0  0  0  0  0  0  0  0  0  0
  185.8830  178.1740  144.4250 C   0  0  0  0  0  0  0  0  0  0  0  0
  183.9670  179.2110  139.5740 C   0  0  0  0  0  2  0  0  0  0  0  0
  185.5180  179.1110  141.4490 C   0  0  2  0  0  3  0  0  0  0  0  0
  188.8580  177.2560  146.0600 C   0  0  0  0  0  3  0  0  0  0  0  0
  183.7480  178.4650  143.1350 C   0  0  0  0  0  3  0  0  0  0  0  0
  186.7580  178.0290  143.3530 C   0  0  0  0  0  0  0  0  0  0  0  0
  191.5740  176.6870  138.9800 C   0  0  0  0  0  0  0  0  0  0  0  0
  192.2390  177.3740  139.9350 N   0  0  0  0  0  0  0  0  0  0  0  0
  189.9560  176.4640  139.3890 S   0  0  0  0  0  0  0  0  0  0  0  0
  190.1340  177.2350  140.8760 C   0  0  0  0  0  0  0  0  0  0  0  0
  191.4410  177.6950  140.9890 C   0  0  0  0  0  3  0  0  0  0  0  0
  192.2050  176.2680  137.6950 C   0  0  2  0  0  3  0  0  0  0  0  0
  193.5740  175.4570  135.5180 N   0  0  0  0  0  2  0  0  0  0  0  0
  191.8650  174.4970  137.3730 S   0  0  0  0  0  0  0  0  0  0  0  0
  194.1940  176.4800  136.3730 C   0  0  0  0  0  2  0  0  0  0  0  0
  193.3190  174.2500  136.2930 C   0  0  0  0  0  2  0  0  0  0  0  0
  193.6430  176.5080  137.7340 N   0  0  0  0  0  2  0  0  0  0  0  0
  182.7950  177.2790  140.4610 N   0  0  0  0  0  2  0  0  0  0  0  0
  181.1280  177.3000  139.9890 S   0  0  0  0  0  0  0  0  0  0  0  0
  180.4990  175.9680  140.2900 O   0  0  0  0  0  0  0  0  0  0  0  0
  181.0370  177.5650  138.5140 O   0  0  0  0  0  0  0  0  0  0  0  0
  180.2530  178.5770  140.8680 C   0  0  0  0  0  2  0  0  0  0  0  0
  180.0890  178.1960  142.2250 O   0  0  0  0  0  0  0  0  0  0  0  0
  179.9890  178.7610  144.4450 O   0  0  0  0  0  1  0  0  0  0  0  0
  180.1370  179.1350  143.2530 C   0  0  0  0  0  0  0  0  0  0  0  0
  180.3420  180.4830  142.9760 O   0  0  0  0  0  0  0  0  0  0  0  0
  1  3  1  0  0  0  0
  3 18  2  0  0  0  0
  4 20  2  0  0  0  0
  6 14  2  0  0  0  0
  6  4  1  0  0  0  0
  7 15  1  0  0  0  0
  8  1  1  0  0  0  0
  9 19  2  0  0  0  0
 10  5  1  0  0  0  0
 10 18  1  0  0  0  0
 11 32  1  6  0  0  0
 11  9  1  0  0  0  0
 12 13  1  0  0  0  0
 12  1  2  0  0  0  0
 13 10  2  0  0  0  0
 14 12  1  0  0  0  0
 15  5  2  0  0  0  0
 16  2  1  0  0  0  0
 16 11  1  0  0  0  0
 17  2  1  6  0  0  0
 17  9  1  0  0  0  0
 17  4  1  0  0  0  0
 19  7  1  0  0  0  0
 20 13  1  0  0  0  0
 20 15  1  0  0  0  0
 21 23  1  0  0  0  0
 21 22  2  0  0  0  0
 22 25  1  0  0  0  0
 23 24  1  0  0  0  0
 24 25  2  0  0  0  0
 24 14  1  0  0  0  0
 26 31  1  0  0  0  0
 26 21  1  1  0  0  0
 27 30  1  0  0  0  0
 27 29  1  0  0  0  0
 28 26  1  0  0  0  0
 29 31  1  0  0  0  0
 30 28  1  0  0  0  0
 33 34  2  0  0  0  0
 33 32  1  0  0  0  0
 33 36  1  0  0  0  0
 35 33  2  0  0  0  0
 36 37  1  0  0  0  0
 37 39  1  0  0  0  0
 39 38  1  0  0  0  0
 40 39  2  0  0  0  0
M  END
>  <MODEL>
1

>  <REMARK>
 VINA RESULT:      -9.8      0.000      0.000
  Name = 
  7 active torsions:
  status: ('A' for Active; 'I' for Inactive)
    1  A    between atoms: C_3  and  C_5
    2  A    between atoms: S_6  and  C_7
    3  A    between atoms: S_6  and  N_17
    4  A    between atoms: C_7  and  O_14
    5  A    between atoms: O_14  and  C_22
    6  A    between atoms: N_17  and  C_26
    7  A    between atoms: C_29  and  C_35
                            x       y       z     vdW  Elec       q    Type
                         _______ _______ _______ _____ _____    ______ ____

>  <TORSDO>
F 7

$$$$
=
 OpenBabel10232408413D

 40 46  0  0  1  0  0  0  0  0999 V2000
  190.2380  177.0440  143.9880 C   0  0  0  0  0  0  0  0  0  0  0  0
  185.4740  179.1520  139.9050 C   0  0  0  0  0  2  0  0  0  0  0  0
  190.0920  176.9650  145.4000 C   0  0  0  0  0  3  0  0  0  0  0  0
  186.6860  178.3250  141.9640 C   0  0  0  0  0  0  0  0  0  0  0  0
  186.5270  177.9180  145.5760 N   0  0  0  0  0  0  0  0  0  0  0  0
  187.8490  178.0780  141.1910 C   0  0  0  0  0  3  0  0  0  0  0  0
  184.5820  178.4220  144.3320 C   0  0  0  0  0  2  0  0  0  0  0  0
  191.6070  176.8510  143.4350 C   0  0  0  0  0  1  0  0  0  0  0  0
  184.1840  178.7080  141.8500 C   0  0  0  0  0  0  0  0  0  0  0  0
  187.7850  177.5760  145.2160 C   0  0  0  0  0  0  0  0  0  0  0  0
  183.2170  178.7150  140.7230 C   0  0  1  0  0  3  0  0  0  0  0  0
  189.1110  177.3850  143.1820 C   0  0  0  0  0  0  0  0  0  0  0  0
  187.9350  177.6300  143.8720 C   0  0  0  0  0  0  0  0  0  0  0  0
  189.0450  177.5630  141.7670 C   0  0  0  0  0  0  0  0  0  0  0  0
  185.8950  178.1900  144.3970 C   0  0  0  0  0  0  0  0  0  0  0  0
  184.0000  179.2750  139.5480 C   0  0  0  0  0  2  0  0  0  0  0  0
  185.5460  179.1470  141.4260 C   0  0  2  0  0  3  0  0  0  0  0  0
  188.8570  177.2300  146.0330 C   0  0  0  0  0  3  0  0  0  0  0  0
  183.7660  178.5120  143.1050 C   0  0  0  0  0  3  0  0  0  0  0  0
  186.7700  178.0410  143.3260 C   0  0  0  0  0  0  0  0  0  0  0  0
  191.5810  176.6800  138.9520 C   0  0  0  0  0  0  0  0  0  0  0  0
  192.2560  177.3310  139.9250 N   0  0  0  0  0  0  0  0  0  0  0  0
  189.9550  176.4870  139.3460 S   0  0  0  0  0  0  0  0  0  0  0  0
  190.1420  177.2230  140.8500 C   0  0  0  0  0  0  0  0  0  0  0  0
  191.4590  177.6490  140.9810 C   0  0  0  0  0  3  0  0  0  0  0  0
  192.2100  176.2720  137.6630 C   0  0  2  0  0  3  0  0  0  0  0  0
  193.5780  175.4880  135.4760 N   0  0  0  0  0  2  0  0  0  0  0  0
  191.9040  174.4950  137.3450 S   0  0  0  0  0  0  0  0  0  0  0  0
  194.1840  176.5240  136.3240 C   0  0  0  0  0  2  0  0  0  0  0  0
  193.3540  174.2760  136.2540 C   0  0  0  0  0  2  0  0  0  0  0  0
  193.6430  176.5420  137.6900 N   0  0  0  0  0  2  0  0  0  0  0  0
  182.8050  177.3510  140.4230 N   0  0  0  0  0  2  0  0  0  0  0  0
  181.0990  177.3690  140.1150 S   0  0  0  0  0  0  0  0  0  0  0  0
  180.4110  178.2510  141.1200 O   0  0  0  0  0  0  0  0  0  0  0  0
  180.5630  175.9720  140.2380 O   0  0  0  0  0  0  0  0  0  0  0  0
  180.7740  177.9780  138.4740 C   0  0  0  0  0  2  0  0  0  0  0  0
  179.9850  179.1550  138.5500 O   0  0  0  0  0  0  0  0  0  0  0  0
  180.7480  181.1500  139.3850 O   0  0  0  0  0  1  0  0  0  0  0  0
  180.5500  180.4180  138.3810 C   0  0  0  0  0  0  0  0  0  0  0  0
  180.8910  180.8810  137.1140 O   0  0  0  0  0  0  0  0  0  0  0  0
  1  3  1  0  0  0  0
  3 18  2  0  0  0  0
  4 20  2  0  0  0  0
  6 14  2  0  0  0  0
  6  4  1  0  0  0  0
  7 15  1  0  0  0  0
  8  1  1  0  0  0  0
  9 19  2  0  0  0  0
 10  5  1  0  0  0  0
 10 18  1  0  0  0  0
 11 32  1  6  0  0  0
 11  9  1  0  0  0  0
 12 13  1  0  0  0  0
 12  1  2  0  0  0  0
 13 10  2  0  0  0  0
 14 12  1  0  0  0  0
 15  5  2  0  0  0  0
 16  2  1  0  0  0  0
 16 11  1  0  0  0  0
 17  2  1  6  0  0  0
 17  9  1  0  0  0  0
 17  4  1  0  0  0  0
 19  7  1  0  0  0  0
 20 13  1  0  0  0  0
 20 15  1  0  0  0  0
 21 23  1  0  0  0  0
 21 22  2  0  0  0  0
 22 25  1  0  0  0  0
 23 24  1  0  0  0  0
 24 25  2  0  0  0  0
 24 14  1  0  0  0  0
 26 31  1  0  0  0  0
 26 21  1  1  0  0  0
 27 30  1  0  0  0  0
 27 29  1  0  0  0  0
 28 26  1  0  0  0  0
 29 31  1  0  0  0  0
 30 28  1  0  0  0  0
 33 35  2  0  0  0  0
 33 32  1  0  0  0  0
 33 34  2  0  0  0  0
 36 37  1  0  0  0  0
 36 33  1  0  0  0  0
 39 37  1  0  0  0  0
 39 38  1  0  0  0  0
 40 39  2  0  0  0  0
M  END
>  <MODEL>
2

>  <REMARK>
 VINA RESULT:      -9.4      1.091      1.766
  Name = 
  7 active torsions:
  status: ('A' for Active; 'I' for Inactive)
    1  A    between atoms: C_3  and  C_5
    2  A    between atoms: S_6  and  C_7
    3  A    between atoms: S_6  and  N_17
    4  A    between atoms: C_7  and  O_14
    5  A    between atoms: O_14  and  C_22
    6  A    between atoms: N_17  and  C_26
    7  A    between atoms: C_29  and  C_35
                            x       y       z     vdW  Elec       q    Type
                         _______ _______ _______ _____ _____    ______ ____

>  <TORSDO>
F 7

$$$$
=
 OpenBabel10232408413D

 40 46  0  0  1  0  0  0  0  0999 V2000
  190.2190  177.0840  144.1450 C   0  0  0  0  0  0  0  0  0  0  0  0
  185.3780  179.1450  140.1270 C   0  0  0  0  0  2  0  0  0  0  0  0
  190.0940  177.0050  145.5590 C   0  0  0  0  0  3  0  0  0  0  0  0
  186.6280  178.3310  142.1700 C   0  0  0  0  0  0  0  0  0  0  0  0
  186.5220  177.9240  145.7840 N   0  0  0  0  0  0  0  0  0  0  0  0
  187.7820  178.0940  141.3810 C   0  0  0  0  0  3  0  0  0  0  0  0
  184.5560  178.4090  144.5680 C   0  0  0  0  0  2  0  0  0  0  0  0
  191.5820  176.9030  143.5720 C   0  0  0  0  0  1  0  0  0  0  0  0
  184.1210  178.6900  142.0910 C   0  0  0  0  0  0  0  0  0  0  0  0
  187.7790  177.5940  145.4070 C   0  0  0  0  0  0  0  0  0  0  0  0
  183.1380  178.6870  140.9780 C   0  0  1  0  0  3  0  0  0  0  0  0
  189.0780  177.4140  143.3550 C   0  0  0  0  0  0  0  0  0  0  0  0
  187.9100  177.6480  144.0610 C   0  0  0  0  0  0  0  0  0  0  0  0
  188.9910  177.5910  141.9410 C   0  0  0  0  0  0  0  0  0  0  0  0
  185.8720  178.1890  144.6140 C   0  0  0  0  0  0  0  0  0  0  0  0
  183.8990  179.2540  139.7920 C   0  0  0  0  0  2  0  0  0  0  0  0
  185.4720  179.1410  141.6480 C   0  0  2  0  0  3  0  0  0  0  0  0
  188.8650  177.2580  146.2080 C   0  0  0  0  0  3  0  0  0  0  0  0
  183.7220  178.4910  143.3510 C   0  0  0  0  0  3  0  0  0  0  0  0
  186.7330  178.0480  143.5310 C   0  0  0  0  0  0  0  0  0  0  0  0
  191.4920  176.7140  139.0930 C   0  0  0  0  0  0  0  0  0  0  0  0
  192.1670  177.4070  140.0350 N   0  0  0  0  0  0  0  0  0  0  0  0
  189.8810  176.4840  139.5270 S   0  0  0  0  0  0  0  0  0  0  0  0
  190.0770  177.2600  141.0080 C   0  0  0  0  0  0  0  0  0  0  0  0
  191.3840  177.7280  141.1010 C   0  0  0  0  0  3  0  0  0  0  0  0
  192.1060  176.2930  137.8010 C   0  0  2  0  0  3  0  0  0  0  0  0
  193.4390  175.4620  135.6090 N   0  0  0  0  0  2  0  0  0  0  0  0
  191.6550  174.5590  137.4220 S   0  0  0  0  0  0  0  0  0  0  0  0
  194.1170  176.4160  136.4990 C   0  0  0  0  0  2  0  0  0  0  0  0
  193.1000  174.2510  136.3450 C   0  0  0  0  0  2  0  0  0  0  0  0
  193.5560  176.4380  137.8570 N   0  0  0  0  0  2  0  0  0  0  0  0
  182.7340  177.3190  140.6840 N   0  0  0  0  0  2  0  0  0  0  0  0
  181.2190  177.3820  139.8440 S   0  0  0  0  0  0  0  0  0  0  0  0
  180.6230  178.7570  139.9750 O   0  0  0  0  0  0  0  0  0  0  0  0
  180.2800  176.3790  140.4490 O   0  0  0  0  0  0  0  0  0  0  0  0
  181.4530  177.0010  138.1210 C   0  0  0  0  0  2  0  0  0  0  0  0
  182.7190  176.3890  137.9340 O   0  0  0  0  0  0  0  0  0  0  0  0
  183.9900  174.4810  137.8910 O   0  0  0  0  0  1  0  0  0  0  0  0
  182.8470  175.0060  137.8330 C   0  0  0  0  0  0  0  0  0  0  0  0
  181.7280  174.1980  137.6630 O   0  0  0  0  0  0  0  0  0  0  0  0
  1  3  1  0  0  0  0
  3 18  2  0  0  0  0
  4 20  2  0  0  0  0
  6 14  2  0  0  0  0
  6  4  1  0  0  0  0
  7 15  1  0  0  0  0
  8  1  1  0  0  0  0
  9 19  2  0  0  0  0
 10  5  1  0  0  0  0
 10 18  1  0  0  0  0
 11 32  1  6  0  0  0
 11  9  1  0  0  0  0
 12 13  1  0  0  0  0
 12  1  2  0  0  0  0
 13 10  2  0  0  0  0
 14 12  1  0  0  0  0
 15  5  2  0  0  0  0
 16  2  1  0  0  0  0
 16 11  1  0  0  0  0
 17  2  1  6  0  0  0
 17  9  1  0  0  0  0
 17  4  1  0  0  0  0
 19  7  1  0  0  0  0
 20 13  1  0  0  0  0
 20 15  1  0  0  0  0
 21 23  1  0  0  0  0
 21 22  2  0  0  0  0
 22 25  1  0  0  0  0
 23 24  1  0  0  0  0
 24 25  2  0  0  0  0
 24 14  1  0  0  0  0
 26 31  1  0  0  0  0
 26 21  1  1  0  0  0
 27 30  1  0  0  0  0
 27 29  1  0  0  0  0
 28 26  1  0  0  0  0
 29 31  1  0  0  0  0
 30 28  1  0  0  0  0
 33 34  2  0  0  0  0
 33 35  2  0  0  0  0
 33 32  1  0  0  0  0
 36 33  1  0  0  0  0
 37 36  1  0  0  0  0
 39 38  1  0  0  0  0
 39 37  1  0  0  0  0
 40 39  2  0  0  0  0
M  END
>  <MODEL>
3

>  <REMARK>
 VINA RESULT:      -9.4      1.352      2.527
  Name = 
  7 active torsions:
  status: ('A' for Active; 'I' for Inactive)
    1  A    between atoms: C_3  and  C_5
    2  A    between atoms: S_6  and  C_7
    3  A    between atoms: S_6  and  N_17
    4  A    between atoms: C_7  and  O_14
    5  A    between atoms: O_14  and  C_22
    6  A    between atoms: N_17  and  C_26
    7  A    between atoms: C_29  and  C_35
                            x       y       z     vdW  Elec       q    Type
                         _______ _______ _______ _____ _____    ______ ____

>  <TORSDO>
F 7

$$$$
=
 OpenBabel10232408413D

 40 46  0  0  1  0  0  0  0  0999 V2000
  186.7850  178.2670  139.6720 C   0  0  0  0  0  0  0  0  0  0  0  0
  193.1100  176.5020  138.8370 C   0  0  0  0  0  2  0  0  0  0  0  0
  185.8420  178.3560  138.6120 C   0  0  0  0  0  3  0  0  0  0  0  0
  190.6450  176.8900  138.4250 C   0  0  0  0  0  0  0  0  0  0  0  0
  188.0190  177.0770  135.9150 N   0  0  0  0  0  0  0  0  0  0  0  0
  190.4630  177.2380  139.7880 C   0  0  0  0  0  3  0  0  0  0  0  0
  190.1240  176.1440  135.3890 C   0  0  0  0  0  2  0  0  0  0  0  0
  186.3750  178.8140  140.9950 C   0  0  0  0  0  1  0  0  0  0  0  0
  192.1900  175.7260  136.7890 C   0  0  0  0  0  0  0  0  0  0  0  0
  187.4530  177.4740  137.0770 C   0  0  0  0  0  0  0  0  0  0  0  0
  193.4640  174.9820  136.9610 C   0  0  1  0  0  3  0  0  0  0  0  0
  188.0890  177.7500  139.4120 C   0  0  0  0  0  0  0  0  0  0  0  0
  188.3350  177.3800  138.1000 C   0  0  0  0  0  0  0  0  0  0  0  0
  189.1930  177.6180  140.3080 C   0  0  0  0  0  0  0  0  0  0  0  0
  189.2940  176.7310  136.2540 C   0  0  0  0  0  0  0  0  0  0  0  0
  194.1670  175.6860  138.1080 C   0  0  0  0  0  2  0  0  0  0  0  0
  192.0180  176.7940  137.8160 C   0  0  2  0  0  3  0  0  0  0  0  0
  186.1670  177.9560  137.2970 C   0  0  0  0  0  3  0  0  0  0  0  0
  191.4340  175.5370  135.7020 C   0  0  0  0  0  3  0  0  0  0  0  0
  189.5150  176.9400  137.6110 C   0  0  0  0  0  0  0  0  0  0  0  0
  188.8620  177.6480  144.1840 C   0  0  0  0  0  0  0  0  0  0  0  0
  189.6710  178.6710  143.8320 N   0  0  0  0  0  0  0  0  0  0  0  0
  188.3060  176.8040  142.8370 S   0  0  0  0  0  0  0  0  0  0  0  0
  189.0960  177.8290  141.7590 C   0  0  0  0  0  0  0  0  0  0  0  0
  189.8180  178.7710  142.4830 C   0  0  0  0  0  3  0  0  0  0  0  0
  188.5830  177.2870  145.6040 C   0  0  2  0  0  3  0  0  0  0  0  0
  188.2270  176.8550  148.2420 N   0  0  0  0  0  2  0  0  0  0  0  0
  186.9970  178.0260  146.1440 S   0  0  0  0  0  0  0  0  0  0  0  0
  189.6030  177.0510  147.7620 C   0  0  0  0  0  2  0  0  0  0  0  0
  187.4190  178.0250  147.9230 C   0  0  0  0  0  2  0  0  0  0  0  0
  189.6700  177.7380  146.4640 N   0  0  0  0  0  2  0  0  0  0  0  0
  193.1790  173.6050  137.3410 N   0  0  0  0  0  2  0  0  0  0  0  0
  194.6390  172.6910  137.1520 S   0  0  0  0  0  0  0  0  0  0  0  0
  194.3160  171.3210  136.6220 O   0  0  0  0  0  0  0  0  0  0  0  0
  195.3110  172.5550  138.4880 O   0  0  0  0  0  0  0  0  0  0  0  0
  195.7430  173.5140  136.0240 C   0  0  0  0  0  2  0  0  0  0  0  0
  196.9850  173.7590  136.6640 O   0  0  0  0  0  0  0  0  0  0  0  0
  197.1350  175.9800  136.1150 O   0  0  0  0  0  0  0  0  0  0  0  0
  197.4270  175.0560  136.9170 C   0  0  0  0  0  0  0  0  0  0  0  0
  198.1920  175.3400  138.0440 O   0  0  0  0  0  1  0  0  0  0  0  0
  1  8  1  0  0  0  0
  3  1  2  0  0  0  0
  4  6  1  0  0  0  0
  5 15  2  0  0  0  0
  5 10  1  0  0  0  0
  6 14  2  0  0  0  0
  7 19  1  0  0  0  0
  7 15  1  0  0  0  0
  9 11  1  0  0  0  0
  9 17  1  0  0  0  0
 10 18  2  0  0  0  0
 10 13  1  0  0  0  0
 11 32  1  1  0  0  0
 11 16  1  0  0  0  0
 12  1  1  0  0  0  0
 12 14  1  0  0  0  0
 13 12  2  0  0  0  0
 14 24  1  0  0  0  0
 15 20  1  0  0  0  0
 16  2  1  0  0  0  0
 17  4  1  0  0  0  0
 17  2  1  1  0  0  0
 18  3  1  0  0  0  0
 19  9  2  0  0  0  0
 20 13  1  0  0  0  0
 20  4  2  0  0  0  0
 22 21  2  0  0  0  0
 23 21  1  0  0  0  0
 24 25  2  0  0  0  0
 24 23  1  0  0  0  0
 25 22  1  0  0  0  0
 26 21  1  6  0  0  0
 26 28  1  0  0  0  0
 26 31  1  0  0  0  0
 28 30  1  0  0  0  0
 29 27  1  0  0  0  0
 30 27  1  0  0  0  0
 31 29  1  0  0  0  0
 33 32  1  0  0  0  0
 33 35  2  0  0  0  0
 34 33  2  0  0  0  0
 36 37  1  0  0  0  0
 36 33  1  0  0  0  0
 37 39  1  0  0  0  0
 38 39  2  0  0  0  0
 39 40  1  0  0  0  0
M  END
>  <MODEL>
4

>  <REMARK>
 VINA RESULT:      -8.4      6.508     10.872
  Name = 
  7 active torsions:
  status: ('A' for Active; 'I' for Inactive)
    1  A    between atoms: C_3  and  C_5
    2  A    between atoms: S_6  and  C_7
    3  A    between atoms: S_6  and  N_17
    4  A    between atoms: C_7  and  O_14
    5  A    between atoms: O_14  and  C_22
    6  A    between atoms: N_17  and  C_26
    7  A    between atoms: C_29  and  C_35
                            x       y       z     vdW  Elec       q    Type
                         _______ _______ _______ _____ _____    ______ ____

>  <TORSDO>
F 7

$$$$
=
 OpenBabel10232408413D

 40 46  0  0  1  0  0  0  0  0999 V2000
  184.4870  178.7940  144.3930 C   0  0  0  0  0  0  0  0  0  0  0  0
  186.6100  178.1240  138.1580 C   0  0  0  0  0  2  0  0  0  0  0  0
  183.1340  179.0550  144.7440 C   0  0  0  0  0  3  0  0  0  0  0  0
  185.1030  178.3030  140.1820 C   0  0  0  0  0  0  0  0  0  0  0  0
  181.7000  178.8490  141.3460 N   0  0  0  0  0  0  0  0  0  0  0  0
  186.2310  178.2360  141.0390 C   0  0  0  0  0  3  0  0  0  0  0  0
  182.1340  178.3650  139.0750 C   0  0  0  0  0  2  0  0  0  0  0  0
  185.5030  178.9000  145.4760 C   0  0  0  0  0  1  0  0  0  0  0  0
  184.2740  177.8350  137.8340 C   0  0  0  0  0  0  0  0  0  0  0  0
  182.4760  178.8370  142.4530 C   0  0  0  0  0  0  0  0  0  0  0  0
  184.9200  177.2360  136.6380 C   0  0  1  0  0  3  0  0  0  0  0  0
  184.8230  178.5340  143.0310 C   0  0  0  0  0  0  0  0  0  0  0  0
  183.7650  178.5730  142.1370 C   0  0  0  0  0  0  0  0  0  0  0  0
  186.1080  178.2970  142.4560 C   0  0  0  0  0  0  0  0  0  0  0  0
  182.5600  178.5830  140.3200 C   0  0  0  0  0  0  0  0  0  0  0  0
  186.3710  177.6770  136.7240 C   0  0  0  0  0  2  0  0  0  0  0  0
  185.2530  178.5490  138.7040 C   0  0  2  0  0  3  0  0  0  0  0  0
  182.1080  179.0770  143.7730 C   0  0  0  0  0  3  0  0  0  0  0  0
  182.9420  177.8610  137.9450 C   0  0  0  0  0  3  0  0  0  0  0  0
  183.8590  178.4350  140.7960 C   0  0  0  0  0  0  0  0  0  0  0  0
  189.1260  177.2670  144.6840 C   0  0  0  0  0  0  0  0  0  0  0  0
  189.5910  178.0800  143.7110 N   0  0  0  0  0  0  0  0  0  0  0  0
  187.4600  177.0500  144.5690 S   0  0  0  0  0  0  0  0  0  0  0  0
  187.3290  178.0860  143.2470 C   0  0  0  0  0  0  0  0  0  0  0  0
  188.5990  178.5310  142.8970 C   0  0  0  0  0  3  0  0  0  0  0  0
  190.0170  176.5930  145.6720 C   0  0  2  0  0  3  0  0  0  0  0  0
  191.8260  175.5480  147.3780 N   0  0  0  0  0  2  0  0  0  0  0  0
  189.8370  177.3710  147.3200 S   0  0  0  0  0  0  0  0  0  0  0  0
  192.2140  175.6760  145.9650 C   0  0  0  0  0  2  0  0  0  0  0  0
  191.4850  176.8570  147.9200 C   0  0  0  0  0  2  0  0  0  0  0  0
  191.4050  176.6590  145.2300 N   0  0  0  0  0  2  0  0  0  0  0  0
  184.8510  175.7840  136.7200 N   0  0  0  0  0  2  0  0  0  0  0  0
  183.9840  175.2150  135.3330 S   0  0  0  0  0  0  0  0  0  0  0  0
  184.9120  174.4450  134.4340 O   0  0  0  0  0  0  0  0  0  0  0  0
  183.4320  176.3910  134.5800 O   0  0  0  0  0  0  0  0  0  0  0  0
  182.6400  174.1590  135.8340 C   0  0  0  0  0  2  0  0  0  0  0  0
  182.9460  173.5590  137.0830 O   0  0  0  0  0  0  0  0  0  0  0  0
  183.1210  171.2730  137.0390 O   0  0  0  0  0  0  0  0  0  0  0  0
  183.6950  172.3870  137.1590 C   0  0  0  0  0  0  0  0  0  0  0  0
  185.0690  172.4320  137.3730 O   0  0  0  0  0  1  0  0  0  0  0  0
  1  3  1  0  0  0  0
  1  8  1  0  0  0  0
  4 20  2  0  0  0  0
  4  6  1  0  0  0  0
  5 10  1  0  0  0  0
  6 14  2  0  0  0  0
  7 15  1  0  0  0  0
  9 19  2  0  0  0  0
  9 17  1  0  0  0  0
 10 18  1  0  0  0  0
 11 32  1  1  0  0  0
 11 16  1  0  0  0  0
 11  9  1  0  0  0  0
 12  1  2  0  0  0  0
 13 10  2  0  0  0  0
 13 12  1  0  0  0  0
 14 12  1  0  0  0  0
 14 24  1  0  0  0  0
 15 20  1  0  0  0  0
 15  5  2  0  0  0  0
 16  2  1  0  0  0  0
 17  2  1  6  0  0  0
 17  4  1  0  0  0  0
 18  3  2  0  0  0  0
 19  7  1  0  0  0  0
 20 13  1  0  0  0  0
 22 21  2  0  0  0  0
 23 21  1  0  0  0  0
 24 23  1  0  0  0  0
 25 24  2  0  0  0  0
 25 22  1  0  0  0  0
 26 21  1  6  0  0  0
 26 28  1  0  0  0  0
 27 30  1  0  0  0  0
 28 30  1  0  0  0  0
 29 27  1  0  0  0  0
 31 26  1  0  0  0  0
 31 29  1  0  0  0  0
 33 36  1  0  0  0  0
 33 32  1  0  0  0  0
 34 33  2  0  0  0  0
 35 33  2  0  0  0  0
 36 37  1  0  0  0  0
 37 39  1  0  0  0  0
 38 39  2  0  0  0  0
 39 40  1  0  0  0  0
M  END
>  <MODEL>
5

>  <REMARK>
 VINA RESULT:      -8.4      4.558      6.751
  Name = 
  7 active torsions:
  status: ('A' for Active; 'I' for Inactive)
    1  A    between atoms: C_3  and  C_5
    2  A    between atoms: S_6  and  C_7
    3  A    between atoms: S_6  and  N_17
    4  A    between atoms: C_7  and  O_14
    5  A    between atoms: O_14  and  C_22
    6  A    between atoms: N_17  and  C_26
    7  A    between atoms: C_29  and  C_35
                            x       y       z     vdW  Elec       q    Type
                         _______ _______ _______ _____ _____    ______ ____

>  <TORSDO>
F 7

$$$$
=
 OpenBabel10232408413D

 40 46  0  0  1  0  0  0  0  0999 V2000
  190.1030  175.0190  135.2880 C   0  0  0  0  0  0  0  0  0  0  0  0
  188.3880  177.9660  140.9620 C   0  0  0  0  0  2  0  0  0  0  0  0
  191.4390  174.9410  134.8090 C   0  0  0  0  0  3  0  0  0  0  0  0
  189.7580  176.9110  139.1160 C   0  0  0  0  0  0  0  0  0  0  0  0
  193.0950  176.4710  137.7360 N   0  0  0  0  0  0  0  0  0  0  0  0
  188.5710  176.4870  138.4650 C   0  0  0  0  0  3  0  0  0  0  0  0
  192.7960  177.3150  139.9220 C   0  0  0  0  0  2  0  0  0  0  0  0
  189.0210  174.6100  134.3500 C   0  0  0  0  0  1  0  0  0  0  0  0
  190.7230  177.7080  141.3180 C   0  0  0  0  0  0  0  0  0  0  0  0
  192.2440  175.9310  136.8340 C   0  0  0  0  0  0  0  0  0  0  0  0
  190.1320  177.8970  142.6670 C   0  0  1  0  0  3  0  0  0  0  0  0
  189.8500  175.5570  136.5840 C   0  0  0  0  0  0  0  0  0  0  0  0
  190.9680  175.9830  137.2830 C   0  0  0  0  0  0  0  0  0  0  0  0
  188.5980  175.7700  137.2360 C   0  0  0  0  0  0  0  0  0  0  0  0
  192.2960  176.8660  138.7690 C   0  0  0  0  0  0  0  0  0  0  0  0
  188.7030  178.3390  142.4020 C   0  0  0  0  0  2  0  0  0  0  0  0
  189.7240  177.9210  140.2310 C   0  0  2  0  0  3  0  0  0  0  0  0
  192.5300  175.3960  135.5830 C   0  0  0  0  0  3  0  0  0  0  0  0
  192.0440  177.5620  141.1690 C   0  0  0  0  0  3  0  0  0  0  0  0
  190.9610  176.5920  138.4880 C   0  0  0  0  0  0  0  0  0  0  0  0
  185.2280  174.0820  136.2710 C   0  0  0  0  0  0  0  0  0  0  0  0
  185.1600  175.3790  135.9000 N   0  0  0  0  0  0  0  0  0  0  0  0
  186.7180  173.7110  136.9610 S   0  0  0  0  0  0  0  0  0  0  0  0
  187.3160  175.2670  136.7220 C   0  0  0  0  0  0  0  0  0  0  0  0
  186.3140  176.0510  136.1590 C   0  0  0  0  0  3  0  0  0  0  0  0
  184.0760  173.1430  136.1490 C   0  0  2  0  0  3  0  0  0  0  0  0
  182.0330  171.3830  136.1940 N   0  0  0  0  0  2  0  0  0  0  0  0
  182.5030  174.0260  136.4660 S   0  0  0  0  0  0  0  0  0  0  0  0
  183.3380  170.9260  136.6940 C   0  0  0  0  0  2  0  0  0  0  0  0
  181.5790  172.5310  136.9670 C   0  0  0  0  0  2  0  0  0  0  0  0
  184.2280  172.0310  137.0800 N   0  0  0  0  0  2  0  0  0  0  0  0
  190.1200  176.6260  143.3790 N   0  0  0  0  0  2  0  0  0  0  0  0
  191.0420  176.8240  144.8330 S   0  0  0  0  0  0  0  0  0  0  0  0
  191.8650  178.0800  144.7450 O   0  0  0  0  0  0  0  0  0  0  0  0
  191.9590  175.6460  144.9980 O   0  0  0  0  0  0  0  0  0  0  0  0
  189.9600  176.9260  146.2420 C   0  0  0  0  0  2  0  0  0  0  0  0
  188.6150  177.0370  145.8040 O   0  0  0  0  0  0  0  0  0  0  0  0
  187.8990  177.9510  147.7810 O   0  0  0  0  0  1  0  0  0  0  0  0
  187.6520  177.6820  146.5770 C   0  0  0  0  0  0  0  0  0  0  0  0
  186.4180  178.0270  146.0350 O   0  0  0  0  0  0  0  0  0  0  0  0
  1 12  1  0  0  0  0
  2 16  1  0  0  0  0
  3  1  2  0  0  0  0
  3 18  1  0  0  0  0
  4 17  1  0  0  0  0
  5 15  2  0  0  0  0
  6  4  2  0  0  0  0
  7 19  1  0  0  0  0
  8  1  1  0  0  0  0
  9 11  1  0  0  0  0
 10 13  1  0  0  0  0
 10  5  1  0  0  0  0
 11 32  1  1  0  0  0
 12 14  2  0  0  0  0
 12 13  1  0  0  0  0
 13 20  2  0  0  0  0
 14  6  1  0  0  0  0
 15  7  1  0  0  0  0
 16 11  1  0  0  0  0
 17  2  1  1  0  0  0
 17  9  1  0  0  0  0
 18 10  2  0  0  0  0
 19  9  2  0  0  0  0
 20 15  1  0  0  0  0
 20  4  1  0  0  0  0
 21 23  1  0  0  0  0
 22 25  1  0  0  0  0
 22 21  2  0  0  0  0
 24 23  1  0  0  0  0
 24 14  1  0  0  0  0
 25 24  2  0  0  0  0
 26 21  1  1  0  0  0
 26 28  1  0  0  0  0
 26 31  1  0  0  0  0
 27 29  1  0  0  0  0
 27 30  1  0  0  0  0
 28 30  1  0  0  0  0
 29 31  1  0  0  0  0
 32 33  1  0  0  0  0
 33 35  2  0  0  0  0
 33 36  1  0  0  0  0
 34 33  2  0  0  0  0
 37 36  1  0  0  0  0
 37 39  1  0  0  0  0
 39 38  1  0  0  0  0
 40 39  2  0  0  0  0
M  END
>  <MODEL>
6

>  <REMARK>
 VINA RESULT:      -8.4      5.173      8.772
  Name = 
  7 active torsions:
  status: ('A' for Active; 'I' for Inactive)
    1  A    between atoms: C_3  and  C_5
    2  A    between atoms: S_6  and  C_7
    3  A    between atoms: S_6  and  N_17
    4  A    between atoms: C_7  and  O_14
    5  A    between atoms: O_14  and  C_22
    6  A    between atoms: N_17  and  C_26
    7  A    between atoms: C_29  and  C_35
                            x       y       z     vdW  Elec       q    Type
                         _______ _______ _______ _____ _____    ______ ____

>  <TORSDO>
F 7

$$$$
=
 OpenBabel10232408413D

 40 46  0  0  1  0  0  0  0  0999 V2000
  181.9440  179.0800  142.2160 C   0  0  0  0  0  0  0  0  0  0  0  0
  187.9640  176.4090  142.8890 C   0  0  0  0  0  2  0  0  0  0  0  0
  181.1650  179.5610  143.3040 C   0  0  0  0  0  3  0  0  0  0  0  0
  185.8130  177.6490  143.3720 C   0  0  0  0  0  0  0  0  0  0  0  0
  183.6810  179.0570  145.9630 N   0  0  0  0  0  0  0  0  0  0  0  0
  185.4410  177.5540  142.0070 C   0  0  0  0  0  3  0  0  0  0  0  0
  185.9060  178.4240  146.4440 C   0  0  0  0  0  2  0  0  0  0  0  0
  181.2690  178.9740  140.8930 C   0  0  0  0  0  1  0  0  0  0  0  0
  187.7590  177.5020  144.9880 C   0  0  0  0  0  0  0  0  0  0  0  0
  182.9830  179.1570  144.8090 C   0  0  0  0  0  0  0  0  0  0  0  0
  189.2140  177.2800  144.7950 C   0  0  1  0  0  3  0  0  0  0  0  0
  183.2820  178.6430  142.4470 C   0  0  0  0  0  0  0  0  0  0  0  0
  183.7170  178.7180  143.7600 C   0  0  0  0  0  0  0  0  0  0  0  0
  184.2140  178.0870  141.5190 C   0  0  0  0  0  0  0  0  0  0  0  0
  184.8850  178.5330  145.5910 C   0  0  0  0  0  0  0  0  0  0  0  0
  189.3040  176.3400  143.6050 C   0  0  0  0  0  2  0  0  0  0  0  0
  186.9420  176.8290  143.9380 C   0  0  2  0  0  3  0  0  0  0  0  0
  181.6810  179.6080  144.6190 C   0  0  0  0  0  3  0  0  0  0  0  0
  187.3010  178.0790  146.1040 C   0  0  0  0  0  3  0  0  0  0  0  0
  184.9130  178.2900  144.2210 C   0  0  0  0  0  0  0  0  0  0  0  0
  183.2030  177.6840  137.7840 C   0  0  0  0  0  0  0  0  0  0  0  0
  183.8380  178.8690  137.9130 N   0  0  0  0  0  0  0  0  0  0  0  0
  183.1270  176.8570  139.2490 S   0  0  0  0  0  0  0  0  0  0  0  0
  183.9940  178.0480  140.0660 C   0  0  0  0  0  0  0  0  0  0  0  0
  184.2710  179.0870  139.1850 C   0  0  0  0  0  3  0  0  0  0  0  0
  182.5810  177.2330  136.5060 C   0  0  2  0  0  3  0  0  0  0  0  0
  181.3010  176.2490  134.3460 N   0  0  0  0  0  2  0  0  0  0  0  0
  181.1850  178.3310  136.0590 S   0  0  0  0  0  0  0  0  0  0  0  0
  181.8880  175.2850  135.2890 C   0  0  0  0  0  2  0  0  0  0  0  0
  180.3260  177.0860  135.0330 C   0  0  0  0  0  2  0  0  0  0  0  0
  182.1230  175.8540  136.6240 N   0  0  0  0  0  2  0  0  0  0  0  0
  189.8630  178.5410  144.4650 N   0  0  0  0  0  2  0  0  0  0  0  0
  191.5720  178.2600  144.4090 S   0  0  0  0  0  0  0  0  0  0  0  0
  191.9940  177.4620  145.6120 O   0  0  0  0  0  0  0  0  0  0  0  0
  192.2880  179.5800  144.4180 O   0  0  0  0  0  0  0  0  0  0  0  0
  192.0040  177.3690  142.9300 C   0  0  0  0  0  2  0  0  0  0  0  0
  191.4490  178.0240  141.8000 O   0  0  0  0  0  0  0  0  0  0  0  0
  192.3490  177.2300  139.8460 O   0  0  0  0  0  0  0  0  0  0  0  0
  191.3320  177.3760  140.5720 C   0  0  0  0  0  0  0  0  0  0  0  0
  190.1020  176.8930  140.1360 O   0  0  0  0  0  1  0  0  0  0  0  0
  1 12  2  0  0  0  0
  1  3  1  0  0  0  0
  2 16  1  0  0  0  0
  3 18  2  0  0  0  0
  4 17  1  0  0  0  0
  4 20  2  0  0  0  0
  6  4  1  0  0  0  0
  8  1  1  0  0  0  0
  9 19  2  0  0  0  0
 10  5  1  0  0  0  0
 11 32  1  6  0  0  0
 11  9  1  0  0  0  0
 12 13  1  0  0  0  0
 13 20  1  0  0  0  0
 13 10  2  0  0  0  0
 14  6  2  0  0  0  0
 14 12  1  0  0  0  0
 15  5  2  0  0  0  0
 15  7  1  0  0  0  0
 16 11  1  0  0  0  0
 17  2  1  6  0  0  0
 17  9  1  0  0  0  0
 18 10  1  0  0  0  0
 19  7  1  0  0  0  0
 20 15  1  0  0  0  0
 21 22  2  0  0  0  0
 21 23  1  0  0  0  0
 22 25  1  0  0  0  0
 23 24  1  0  0  0  0
 24 14  1  0  0  0  0
 25 24  2  0  0  0  0
 26 31  1  0  0  0  0
 26 21  1  1  0  0  0
 27 30  1  0  0  0  0
 27 29  1  0  0  0  0
 28 26  1  0  0  0  0
 29 31  1  0  0  0  0
 30 28  1  0  0  0  0
 33 35  2  0  0  0  0
 33 32  1  0  0  0  0
 33 34  2  0  0  0  0
 36 33  1  0  0  0  0
 37 36  1  0  0  0  0
 38 39  2  0  0  0  0
 39 37  1  0  0  0  0
 40 39  1  0  0  0  0
M  END
>  <MODEL>
7

>  <REMARK>
 VINA RESULT:      -7.9      4.858      8.706
  Name = 
  7 active torsions:
  status: ('A' for Active; 'I' for Inactive)
    1  A    between atoms: C_3  and  C_5
    2  A    between atoms: S_6  and  C_7
    3  A    between atoms: S_6  and  N_17
    4  A    between atoms: C_7  and  O_14
    5  A    between atoms: O_14  and  C_22
    6  A    between atoms: N_17  and  C_26
    7  A    between atoms: C_29  and  C_35
                            x       y       z     vdW  Elec       q    Type
                         _______ _______ _______ _____ _____    ______ ____

>  <TORSDO>
F 7

$$$$
=
 OpenBabel10232408413D

 40 46  0  0  1  0  0  0  0  0999 V2000
  181.8680  179.1310  142.2870 C   0  0  0  0  0  0  0  0  0  0  0  0
  187.9400  176.5290  142.7220 C   0  0  0  0  0  2  0  0  0  0  0  0
  181.1120  179.5680  143.4090 C   0  0  0  0  0  3  0  0  0  0  0  0
  185.7860  177.7230  143.2990 C   0  0  0  0  0  0  0  0  0  0  0  0
  183.7040  179.0210  145.9850 N   0  0  0  0  0  0  0  0  0  0  0  0
  185.3790  177.6640  141.9410 C   0  0  0  0  0  3  0  0  0  0  0  0
  185.9500  178.4070  146.3890 C   0  0  0  0  0  2  0  0  0  0  0  0
  181.1600  179.0550  140.9790 C   0  0  0  0  0  1  0  0  0  0  0  0
  187.7760  177.5560  144.8580 C   0  0  0  0  0  0  0  0  0  0  0  0
  182.9750  179.1460  144.8530 C   0  0  0  0  0  0  0  0  0  0  0  0
  189.2280  177.3610  144.6200 C   0  0  1  0  0  3  0  0  0  0  0  0
  183.2180  178.7070  142.4700 C   0  0  0  0  0  0  0  0  0  0  0  0
  183.6870  178.7490  143.7720 C   0  0  0  0  0  0  0  0  0  0  0  0
  184.1320  178.1920  141.5010 C   0  0  0  0  0  0  0  0  0  0  0  0
  184.9050  178.5260  145.5660 C   0  0  0  0  0  0  0  0  0  0  0  0
  189.3000  176.4590  143.4000 C   0  0  0  0  0  2  0  0  0  0  0  0
  186.9400  176.9030  143.8090 C   0  0  2  0  0  3  0  0  0  0  0  0
  181.6620  179.5830  144.7110 C   0  0  0  0  0  3  0  0  0  0  0  0
  187.3400  178.0930  146.0030 C   0  0  0  0  0  3  0  0  0  0  0  0
  184.9000  178.3250  144.1900 C   0  0  0  0  0  0  0  0  0  0  0  0
  183.0390  177.8730  137.7820 C   0  0  0  0  0  0  0  0  0  0  0  0
  183.6220  179.0810  137.9370 N   0  0  0  0  0  0  0  0  0  0  0  0
  183.0420  176.9920  139.2170 S   0  0  0  0  0  0  0  0  0  0  0  0
  183.8750  178.1940  140.0550 C   0  0  0  0  0  0  0  0  0  0  0  0
  184.0790  179.2750  139.2040 C   0  0  0  0  0  3  0  0  0  0  0  0
  182.4040  177.4370  136.5050 C   0  0  2  0  0  3  0  0  0  0  0  0
  181.0960  176.4850  134.3470 N   0  0  0  0  0  2  0  0  0  0  0  0
  181.0290  178.5650  136.0650 S   0  0  0  0  0  0  0  0  0  0  0  0
  181.6660  175.5070  135.2860 C   0  0  0  0  0  2  0  0  0  0  0  0
  180.1410  177.3400  135.0390 C   0  0  0  0  0  2  0  0  0  0  0  0
  181.9170  176.0670  136.6220 N   0  0  0  0  0  2  0  0  0  0  0  0
  189.8510  178.6410  144.3110 N   0  0  0  0  0  2  0  0  0  0  0  0
  191.5470  178.3650  144.0880 S   0  0  0  0  0  0  0  0  0  0  0  0
  192.3130  179.6140  144.4300 O   0  0  0  0  0  0  0  0  0  0  0  0
  191.8030  178.0080  142.6530 O   0  0  0  0  0  0  0  0  0  0  0  0
  192.0990  177.0320  145.1310 C   0  0  0  0  0  2  0  0  0  0  0  0
  191.7990  177.3290  146.4850 O   0  0  0  0  0  0  0  0  0  0  0  0
  190.3200  176.0050  147.6340 O   0  0  0  0  0  0  0  0  0  0  0  0
  191.5170  176.3210  147.4040 C   0  0  0  0  0  0  0  0  0  0  0  0
  192.5420  175.6610  148.0740 O   0  0  0  0  0  1  0  0  0  0  0  0
  1 12  2  0  0  0  0
  1  3  1  0  0  0  0
  2 16  1  0  0  0  0
  3 18  2  0  0  0  0
  4 17  1  0  0  0  0
  4 20  2  0  0  0  0
  6  4  1  0  0  0  0
  8  1  1  0  0  0  0
  9 19  2  0  0  0  0
 10  5  1  0  0  0  0
 11 32  1  6  0  0  0
 11  9  1  0  0  0  0
 12 13  1  0  0  0  0
 13 20  1  0  0  0  0
 13 10  2  0  0  0  0
 14  6  2  0  0  0  0
 14 12  1  0  0  0  0
 15  5  2  0  0  0  0
 15  7  1  0  0  0  0
 16 11  1  0  0  0  0
 17  2  1  6  0  0  0
 17  9  1  0  0  0  0
 18 10  1  0  0  0  0
 19  7  1  0  0  0  0
 20 15  1  0  0  0  0
 21 22  2  0  0  0  0
 21 23  1  0  0  0  0
 22 25  1  0  0  0  0
 23 24  1  0  0  0  0
 24 14  1  0  0  0  0
 25 24  2  0  0  0  0
 26 31  1  0  0  0  0
 26 21  1  1  0  0  0
 27 30  1  0  0  0  0
 27 29  1  0  0  0  0
 28 26  1  0  0  0  0
 29 31  1  0  0  0  0
 30 28  1  0  0  0  0
 33 32  1  0  0  0  0
 33 34  2  0  0  0  0
 33 36  1  0  0  0  0
 35 33  2  0  0  0  0
 36 37  1  0  0  0  0
 37 39  1  0  0  0  0
 39 38  2  0  0  0  0
 39 40  1  0  0  0  0
M  END
>  <MODEL>
8

>  <REMARK>
 VINA RESULT:      -7.9      5.555      8.857
  Name = 
  7 active torsions:
  status: ('A' for Active; 'I' for Inactive)
    1  A    between atoms: C_3  and  C_5
    2  A    between atoms: S_6  and  C_7
    3  A    between atoms: S_6  and  N_17
    4  A    between atoms: C_7  and  O_14
    5  A    between atoms: O_14  and  C_22
    6  A    between atoms: N_17  and  C_26
    7  A    between atoms: C_29  and  C_35
                            x       y       z     vdW  Elec       q    Type
                         _______ _______ _______ _____ _____    ______ ____

>  <TORSDO>
F 7

$$$$
=
 OpenBabel10232408413D

 40 46  0  0  1  0  0  0  0  0999 V2000
  183.0830  178.7620  144.2750 C   0  0  0  0  0  0  0  0  0  0  0  0
  186.8650  178.3020  138.8620 C   0  0  0  0  0  2  0  0  0  0  0  0
  181.6880  179.0350  144.2450 C   0  0  0  0  0  3  0  0  0  0  0  0
  184.8520  178.4290  140.3880 C   0  0  0  0  0  0  0  0  0  0  0  0
  181.2630  178.9940  140.5750 N   0  0  0  0  0  0  0  0  0  0  0  0
  185.6940  178.3060  141.5230 C   0  0  0  0  0  3  0  0  0  0  0  0
  182.3140  178.5930  138.4970 C   0  0  0  0  0  2  0  0  0  0  0  0
  183.7550  178.8040  145.6030 C   0  0  0  0  0  1  0  0  0  0  0  0
  184.7130  178.0730  137.8830 C   0  0  0  0  0  0  0  0  0  0  0  0
  181.6970  178.9220  141.8540 C   0  0  0  0  0  0  0  0  0  0  0  0
  185.6640  177.5100  136.8920 C   0  0  1  0  0  3  0  0  0  0  0  0
  183.7850  178.5510  143.0520 C   0  0  0  0  0  0  0  0  0  0  0  0
  183.0220  178.6470  141.9000 C   0  0  0  0  0  0  0  0  0  0  0  0
  185.1780  178.3120  142.8500 C   0  0  0  0  0  0  0  0  0  0  0  0
  182.3750  178.7530  139.8210 C   0  0  0  0  0  0  0  0  0  0  0  0
  187.0350  177.9190  137.4000 C   0  0  0  0  0  2  0  0  0  0  0  0
  185.4130  178.7320  139.0240 C   0  0  2  0  0  3  0  0  0  0  0  0
  180.9760  179.1160  143.0270 C   0  0  0  0  0  3  0  0  0  0  0  0
  183.4030  178.1200  137.6190 C   0  0  0  0  0  3  0  0  0  0  0  0
  183.4870  178.5610  140.6350 C   0  0  0  0  0  0  0  0  0  0  0  0
  188.0240  177.4440  145.3560 C   0  0  0  0  0  0  0  0  0  0  0  0
  187.2960  178.4480  145.8920 N   0  0  0  0  0  0  0  0  0  0  0  0
  187.4100  176.9570  143.8660 S   0  0  0  0  0  0  0  0  0  0  0  0
  186.1260  178.0460  143.9410 C   0  0  0  0  0  0  0  0  0  0  0  0
  186.2440  178.8000  145.1040 C   0  0  0  0  0  3  0  0  0  0  0  0
  189.2640  176.9130  145.9930 C   0  0  2  0  0  3  0  0  0  0  0  0
  191.6340  176.1760  147.0480 N   0  0  0  0  0  2  0  0  0  0  0  0
  189.3600  177.4550  147.7390 S   0  0  0  0  0  0  0  0  0  0  0  0
  191.6040  176.5350  145.6230 C   0  0  0  0  0  2  0  0  0  0  0  0
  191.1780  177.3020  147.8540 C   0  0  0  0  0  2  0  0  0  0  0  0
  190.4420  177.3590  145.2590 N   0  0  0  0  0  2  0  0  0  0  0  0
  185.5640  176.0570  136.8870 N   0  0  0  0  0  2  0  0  0  0  0  0
  185.1660  175.5580  135.2760 S   0  0  0  0  0  0  0  0  0  0  0  0
  186.3460  175.7790  134.3700 O   0  0  0  0  0  0  0  0  0  0  0  0
  184.0060  176.3720  134.7800 O   0  0  0  0  0  0  0  0  0  0  0  0
  184.7230  173.8340  135.2550 C   0  0  0  0  0  2  0  0  0  0  0  0
  185.5270  173.1230  136.1840 O   0  0  0  0  0  0  0  0  0  0  0  0
  187.7400  173.2400  136.7690 O   0  0  0  0  0  1  0  0  0  0  0  0
  186.8740  172.8730  135.9340 C   0  0  0  0  0  0  0  0  0  0  0  0
  187.2740  172.2280  134.7680 O   0  0  0  0  0  0  0  0  0  0  0  0
  1  8  1  0  0  0  0
  3  1  1  0  0  0  0
  4 20  2  0  0  0  0
  4  6  1  0  0  0  0
  5 10  1  0  0  0  0
  6 14  2  0  0  0  0
  7 15  1  0  0  0  0
  9 17  1  0  0  0  0
 10 13  2  0  0  0  0
 10 18  1  0  0  0  0
 11 32  1  1  0  0  0
 11 16  1  0  0  0  0
 11  9  1  0  0  0  0
 12  1  2  0  0  0  0
 13 12  1  0  0  0  0
 14 12  1  0  0  0  0
 14 24  1  0  0  0  0
 15  5  2  0  0  0  0
 15 20  1  0  0  0  0
 16  2  1  0  0  0  0
 17  2  1  1  0  0  0
 17  4  1  0  0  0  0
 18  3  2  0  0  0  0
 19  9  2  0  0  0  0
 19  7  1  0  0  0  0
 20 13  1  0  0  0  0
 21 22  2  0  0  0  0
 23 24  1  0  0  0  0
 23 21  1  0  0  0  0
 24 25  2  0  0  0  0
 25 22  1  0  0  0  0
 26 21  1  6  0  0  0
 26 28  1  0  0  0  0
 27 30  1  0  0  0  0
 28 30  1  0  0  0  0
 29 27  1  0  0  0  0
 31 29  1  0  0  0  0
 31 26  1  0  0  0  0
 33 32  1  0  0  0  0
 34 33  2  0  0  0  0
 35 33  2  0  0  0  0
 36 33  1  0  0  0  0
 36 37  1  0  0  0  0
 39 37  1  0  0  0  0
 39 38  1  0  0  0  0
 40 39  2  0  0  0  0
M  END
>  <MODEL>
9

>  <REMARK>
 VINA RESULT:      -7.8      4.697      7.590
  Name = 
  7 active torsions:
  status: ('A' for Active; 'I' for Inactive)
    1  A    between atoms: C_3  and  C_5
    2  A    between atoms: S_6  and  C_7
    3  A    between atoms: S_6  and  N_17
    4  A    between atoms: C_7  and  O_14
    5  A    between atoms: O_14  and  C_22
    6  A    between atoms: N_17  and  C_26
    7  A    between atoms: C_29  and  C_35
                            x       y       z     vdW  Elec       q    Type
                         _______ _______ _______ _____ _____    ______ ____

>  <TORSDO>
F 7

$$$$
