=
 OpenBabel10232409453D

 25 28  0  0  1  0  0  0  0  0999 V2000
  187.1190  177.8640  145.4540 C   0  0  0  0  0  0  0  0  0  0  0  0
  188.3980  177.4290  145.0410 C   0  0  0  0  0  0  0  0  0  0  0  0
  187.8050  177.8080  147.7950 C   0  0  0  0  0  3  0  0  0  0  0  0
  185.9950  178.1610  144.6580 C   0  0  0  0  0  0  0  0  0  0  0  0
  190.5470  176.9170  142.0540 C   0  0  0  0  0  0  0  0  0  0  0  0
  183.5770  178.8390  143.4250 C   0  0  0  0  0  3  0  0  0  0  0  0
  189.0750  177.3780  147.3960 C   0  0  0  0  0  3  0  0  0  0  0  0
  184.8920  178.5620  145.4110 C   0  0  0  0  0  0  0  0  0  0  0  0
  183.6770  178.9060  144.8230 C   0  0  0  0  0  3  0  0  0  0  0  0
  190.7460  176.7480  145.6490 C   0  0  0  0  0  0  0  0  0  0  0  0
  191.9530  176.3650  146.8660 Cl  0  0  0  0  0  0  0  0  0  0  0  0
  190.9390  176.8650  140.8110 C   0  0  0  0  0  3  0  0  0  0  0  0
  188.6910  177.1670  143.5840 C   0  0  0  0  0  2  0  0  0  0  0  0
  184.6800  178.4370  142.6510 C   0  0  0  0  0  3  0  0  0  0  0  0
  186.8530  178.0440  146.8120 C   0  0  0  0  0  0  0  0  0  0  0  0
  185.2660  178.5620  147.0520 S   0  0  0  0  0  0  0  0  0  0  0  0
  191.1000  176.6660  144.3680 C   0  0  0  0  0  3  0  0  0  0  0  0
  185.8950  178.0960  143.2640 C   0  0  0  0  0  3  0  0  0  0  0  0
  190.1490  176.9710  143.2930 C   0  0  0  0  0  0  0  0  0  0  0  0
  189.3830  177.1830  146.0340 C   0  0  0  0  0  0  0  0  0  0  0  0
  190.1650  177.5570  139.7390 C   0  0  2  0  0  3  0  0  0  0  0  0
  188.8270  177.6890  140.1170 O   0  0  0  0  0  1  0  0  0  0  0  0
  190.2620  176.7950  138.4610 C   0  0  0  0  0  0  0  0  0  0  0  0
  190.5290  175.4340  138.4900 O   0  0  0  0  0  1  0  0  0  0  0  0
  190.0830  177.3740  137.3560 O   0  0  0  0  0  0  0  0  0  0  0  0
  1 15  1  0  0  0  0
  2  1  2  0  0  0  0
  2 20  1  0  0  0  0
  4  8  1  0  0  0  0
  4  1  1  0  0  0  0
  5 19  2  0  0  0  0
  6  9  1  0  0  0  0
  7  3  1  0  0  0  0
  8 16  1  0  0  0  0
  9  8  2  0  0  0  0
 10 20  1  0  0  0  0
 10 11  1  0  0  0  0
 12  5  2  0  0  0  0
 13  2  1  0  0  0  0
 14 18  1  0  0  0  0
 14  6  2  0  0  0  0
 15 16  1  0  0  0  0
 15  3  2  0  0  0  0
 17 10  2  0  0  0  0
 18  4  2  0  0  0  0
 19 13  1  0  0  0  0
 19 17  1  0  0  0  0
 20  7  2  0  0  0  0
 21 22  1  1  0  0  0
 21 12  1  0  0  0  0
 23 24  1  0  0  0  0
 23 21  1  0  0  0  0
 25 23  2  0  0  0  0
M  END
>  <MODEL>
1

>  <REMARK>
 VINA RESULT:     -11.3      0.000      0.000
  Name = 
  2 active torsions:
  status: ('A' for Active; 'I' for Inactive)
    1  A    between atoms: C_2  and  C_21
    2  A    between atoms: C_15  and  C_21
                            x       y       z     vdW  Elec       q    Type
                         _______ _______ _______ _____ _____    ______ ____

>  <TORSDO>
F 2

$$$$
=
 OpenBabel10232409453D

 25 28  0  0  1  0  0  0  0  0999 V2000
  186.9020  177.8790  144.9770 C   0  0  0  0  0  0  0  0  0  0  0  0
  188.1320  177.4740  144.4140 C   0  0  0  0  0  0  0  0  0  0  0  0
  187.8200  177.7040  147.2300 C   0  0  0  0  0  3  0  0  0  0  0  0
  185.7030  178.2130  144.3150 C   0  0  0  0  0  0  0  0  0  0  0  0
  189.9700  177.1310  141.2040 C   0  0  0  0  0  0  0  0  0  0  0  0
  183.1750  178.9430  143.3680 C   0  0  0  0  0  3  0  0  0  0  0  0
  189.0430  177.3010  146.6840 C   0  0  0  0  0  3  0  0  0  0  0  0
  184.6820  178.5680  145.1950 C   0  0  0  0  0  0  0  0  0  0  0  0
  183.4140  178.9370  144.7500 C   0  0  0  0  0  3  0  0  0  0  0  0
  190.5290  176.7730  144.7470 C   0  0  0  0  0  0  0  0  0  0  0  0
  191.8530  176.3320  145.8150 Cl  0  0  0  0  0  0  0  0  0  0  0  0
  190.2350  177.1470  139.9270 C   0  0  0  0  0  3  0  0  0  0  0  0
  188.2780  177.2900  142.9240 C   0  0  0  0  0  2  0  0  0  0  0  0
  184.1940  178.5890  142.4670 C   0  0  0  0  0  3  0  0  0  0  0  0
  186.7740  177.9870  146.3620 C   0  0  0  0  0  0  0  0  0  0  0  0
  185.2190  178.4830  146.7870 S   0  0  0  0  0  0  0  0  0  0  0  0
  190.7520  176.7610  143.4340 C   0  0  0  0  0  3  0  0  0  0  0  0
  185.4640  178.2210  142.9360 C   0  0  0  0  0  3  0  0  0  0  0  0
  189.6980  177.1170  142.4780 C   0  0  0  0  0  0  0  0  0  0  0  0
  189.2120  177.1800  145.2900 C   0  0  0  0  0  0  0  0  0  0  0  0
  189.3580  177.8900  138.9760 C   0  0  2  0  0  3  0  0  0  0  0  0
  188.5350  178.7800  139.6720 O   0  0  0  0  0  1  0  0  0  0  0  0
  188.5270  176.9360  138.1880 C   0  0  0  0  0  0  0  0  0  0  0  0
  187.2040  177.2450  137.9070 O   0  0  0  0  0  1  0  0  0  0  0  0
  189.0220  175.8600  137.7580 O   0  0  0  0  0  0  0  0  0  0  0  0
  1 15  1  0  0  0  0
  2  1  2  0  0  0  0
  2 20  1  0  0  0  0
  4  1  1  0  0  0  0
  4  8  1  0  0  0  0
  5 19  2  0  0  0  0
  6  9  1  0  0  0  0
  7  3  1  0  0  0  0
  8 16  1  0  0  0  0
  9  8  2  0  0  0  0
 10 20  1  0  0  0  0
 10 11  1  0  0  0  0
 12  5  2  0  0  0  0
 13  2  1  0  0  0  0
 14 18  1  0  0  0  0
 14  6  2  0  0  0  0
 15 16  1  0  0  0  0
 15  3  2  0  0  0  0
 17 10  2  0  0  0  0
 18  4  2  0  0  0  0
 19 13  1  0  0  0  0
 19 17  1  0  0  0  0
 20  7  2  0  0  0  0
 21 22  1  1  0  0  0
 21 12  1  0  0  0  0
 23 21  1  0  0  0  0
 24 23  1  0  0  0  0
 25 23  2  0  0  0  0
M  END
>  <MODEL>
2

>  <REMARK>
 VINA RESULT:     -11.1      1.002      1.179
  Name = 
  2 active torsions:
  status: ('A' for Active; 'I' for Inactive)
    1  A    between atoms: C_2  and  C_21
    2  A    between atoms: C_15  and  C_21
                            x       y       z     vdW  Elec       q    Type
                         _______ _______ _______ _____ _____    ______ ____

>  <TORSDO>
F 2

$$$$
=
 OpenBabel10232409453D

 25 28  0  0  1  0  0  0  0  0999 V2000
  187.6990  177.7540  145.6020 C   0  0  0  0  0  0  0  0  0  0  0  0
  186.9320  178.1400  144.4810 C   0  0  0  0  0  0  0  0  0  0  0  0
  185.7750  178.0350  147.0750 C   0  0  0  0  0  3  0  0  0  0  0  0
  189.0590  177.3840  145.6480 C   0  0  0  0  0  0  0  0  0  0  0  0
  186.9740  178.3470  140.7720 C   0  0  0  0  0  0  0  0  0  0  0  0
  191.6990  176.6000  146.1350 C   0  0  0  0  0  3  0  0  0  0  0  0
  185.0070  178.4180  145.9720 C   0  0  0  0  0  3  0  0  0  0  0  0
  189.4870  177.0640  146.9360 C   0  0  0  0  0  0  0  0  0  0  0  0
  190.7960  176.6700  147.2060 C   0  0  0  0  0  3  0  0  0  0  0  0
  184.7150  178.8660  143.5320 C   0  0  0  0  0  0  0  0  0  0  0  0
  183.0450  179.3610  143.7690 Cl  0  0  0  0  0  0  0  0  0  0  0  0
  187.3890  178.2750  139.5370 C   0  0  0  0  0  3  0  0  0  0  0  0
  187.5630  178.2570  143.1150 C   0  0  0  0  0  2  0  0  0  0  0  0
  191.2840  176.9190  144.8310 C   0  0  0  0  0  3  0  0  0  0  0  0
  187.1090  177.7080  146.8650 C   0  0  0  0  0  0  0  0  0  0  0  0
  188.2230  177.2230  148.0350 S   0  0  0  0  0  0  0  0  0  0  0  0
  185.1840  178.8210  142.2870 C   0  0  0  0  0  3  0  0  0  0  0  0
  189.9600  177.3130  144.5810 C   0  0  0  0  0  3  0  0  0  0  0  0
  186.5660  178.4170  142.0070 C   0  0  0  0  0  0  0  0  0  0  0  0
  185.5670  178.4770  144.6800 C   0  0  0  0  0  0  0  0  0  0  0  0
  188.6050  177.4850  139.1880 C   0  0  2  0  0  3  0  0  0  0  0  0
  189.4600  177.4010  140.2890 O   0  0  0  0  0  1  0  0  0  0  0  0
  189.3150  178.1150  138.0380 C   0  0  0  0  0  0  0  0  0  0  0  0
  189.0380  179.4310  137.6960 O   0  0  0  0  0  1  0  0  0  0  0  0
  190.1790  177.4690  137.3870 O   0  0  0  0  0  0  0  0  0  0  0  0
  1  4  1  0  0  0  0
  1 15  2  0  0  0  0
  2 20  2  0  0  0  0
  2  1  1  0  0  0  0
  4  8  1  0  0  0  0
  5 19  2  0  0  0  0
  6  9  1  0  0  0  0
  7  3  2  0  0  0  0
  8  9  2  0  0  0  0
  8 16  1  0  0  0  0
 10 11  1  0  0  0  0
 10 20  1  0  0  0  0
 12  5  2  0  0  0  0
 13  2  1  0  0  0  0
 14  6  2  0  0  0  0
 15  3  1  0  0  0  0
 15 16  1  0  0  0  0
 17 10  2  0  0  0  0
 18 14  1  0  0  0  0
 18  4  2  0  0  0  0
 19 17  1  0  0  0  0
 19 13  1  0  0  0  0
 20  7  1  0  0  0  0
 21 12  1  0  0  0  0
 21 22  1  1  0  0  0
 23 21  1  0  0  0  0
 24 23  1  0  0  0  0
 25 23  2  0  0  0  0
M  END
>  <MODEL>
3

>  <REMARK>
 VINA RESULT:     -10.5      2.472      4.764
  Name = 
  2 active torsions:
  status: ('A' for Active; 'I' for Inactive)
    1  A    between atoms: C_2  and  C_21
    2  A    between atoms: C_15  and  C_21
                            x       y       z     vdW  Elec       q    Type
                         _______ _______ _______ _____ _____    ______ ____

>  <TORSDO>
F 2

$$$$
=
 OpenBabel10232409453D

 25 28  0  0  1  0  0  0  0  0999 V2000
  189.3210  177.4160  144.0550 C   0  0  0  0  0  0  0  0  0  0  0  0
  188.2990  177.7740  144.9610 C   0  0  0  0  0  0  0  0  0  0  0  0
  190.8360  176.8980  145.8960 C   0  0  0  0  0  3  0  0  0  0  0  0
  189.2870  177.4250  142.6460 C   0  0  0  0  0  0  0  0  0  0  0  0
  184.6950  178.6470  145.1900 C   0  0  0  0  0  0  0  0  0  0  0  0
  189.5980  177.3090  139.8690 C   0  0  0  0  0  3  0  0  0  0  0  0
  189.8300  177.2510  146.8020 C   0  0  0  0  0  3  0  0  0  0  0  0
  190.4880  177.0070  142.0740 C   0  0  0  0  0  0  0  0  0  0  0  0
  190.6700  176.9390  140.6950 C   0  0  0  0  0  3  0  0  0  0  0  0
  187.5200  178.0330  147.3430 C   0  0  0  0  0  0  0  0  0  0  0  0
  187.8580  178.0080  149.0670 Cl  0  0  0  0  0  0  0  0  0  0  0  0
  183.4660  178.9120  144.8430 C   0  0  0  0  0  3  0  0  0  0  0  0
  186.9750  178.3000  144.4630 C   0  0  0  0  0  2  0  0  0  0  0  0
  188.3800  177.7320  140.4290 C   0  0  0  0  0  3  0  0  0  0  0  0
  190.5580  176.9860  144.5390 C   0  0  0  0  0  0  0  0  0  0  0  0
  191.6070  176.6190  143.2700 S   0  0  0  0  0  0  0  0  0  0  0  0
  186.2850  178.3400  146.9500 C   0  0  0  0  0  3  0  0  0  0  0  0
  188.2190  177.7930  141.8210 C   0  0  0  0  0  3  0  0  0  0  0  0
  185.9240  178.3810  145.5290 C   0  0  0  0  0  0  0  0  0  0  0  0
  188.5680  177.6890  146.3530 C   0  0  0  0  0  0  0  0  0  0  0  0
  182.9650  178.5560  143.4840 C   0  0  2  0  0  3  0  0  0  0  0  0
  183.7520  179.1650  142.5030 O   0  0  0  0  0  1  0  0  0  0  0  0
  181.5430  178.9790  143.3320 C   0  0  0  0  0  0  0  0  0  0  0  0
  181.1540  179.6940  142.2080 O   0  0  0  0  0  0  0  0  0  0  0  0
  180.6870  178.6740  144.2060 O   0  0  0  0  0  1  0  0  0  0  0  0
  1 15  1  0  0  0  0
  1  2  2  0  0  0  0
  2 20  1  0  0  0  0
  3  7  1  0  0  0  0
  4  1  1  0  0  0  0
  5 19  2  0  0  0  0
  6 14  2  0  0  0  0
  6  9  1  0  0  0  0
  8  4  1  0  0  0  0
  8 16  1  0  0  0  0
  9  8  2  0  0  0  0
 10 11  1  0  0  0  0
 12  5  2  0  0  0  0
 13  2  1  0  0  0  0
 13 19  1  0  0  0  0
 14 18  1  0  0  0  0
 15  3  2  0  0  0  0
 16 15  1  0  0  0  0
 17 10  2  0  0  0  0
 18  4  2  0  0  0  0
 19 17  1  0  0  0  0
 20  7  2  0  0  0  0
 20 10  1  0  0  0  0
 21 22  1  6  0  0  0
 21 12  1  0  0  0  0
 23 21  1  0  0  0  0
 23 25  1  0  0  0  0
 24 23  2  0  0  0  0
M  END
>  <MODEL>
4

>  <REMARK>
 VINA RESULT:     -10.3      3.389      6.312
  Name = 
  2 active torsions:
  status: ('A' for Active; 'I' for Inactive)
    1  A    between atoms: C_2  and  C_21
    2  A    between atoms: C_15  and  C_21
                            x       y       z     vdW  Elec       q    Type
                         _______ _______ _______ _____ _____    ______ ____

>  <TORSDO>
F 2

$$$$
=
 OpenBabel10232409453D

 25 28  0  0  1  0  0  0  0  0999 V2000
  188.5750  177.6320  143.1210 C   0  0  0  0  0  0  0  0  0  0  0  0
  187.2460  177.9480  143.4770 C   0  0  0  0  0  0  0  0  0  0  0  0
  189.1740  177.2960  145.4620 C   0  0  0  0  0  3  0  0  0  0  0  0
  189.1510  177.5870  141.8350 C   0  0  0  0  0  0  0  0  0  0  0  0
  183.8550  178.5600  142.0880 C   0  0  0  0  0  0  0  0  0  0  0  0
  190.6320  177.3920  139.4700 C   0  0  0  0  0  3  0  0  0  0  0  0
  187.8600  177.6070  145.8260 C   0  0  0  0  0  3  0  0  0  0  0  0
  190.5000  177.2380  141.8590 C   0  0  0  0  0  0  0  0  0  0  0  0
  191.2610  177.1330  140.6970 C   0  0  0  0  0  3  0  0  0  0  0  0
  185.5060  178.2360  145.2760 C   0  0  0  0  0  0  0  0  0  0  0  0
  185.0700  178.3000  146.9770 Cl  0  0  0  0  0  0  0  0  0  0  0  0
  182.8830  178.7210  141.2330 C   0  0  0  0  0  3  0  0  0  0  0  0
  186.2400  178.3560  142.4290 C   0  0  0  0  0  2  0  0  0  0  0  0
  189.2720  177.7450  139.4270 C   0  0  0  0  0  3  0  0  0  0  0  0
  189.5030  177.3130  144.1130 C   0  0  0  0  0  0  0  0  0  0  0  0
  191.0130  176.9780  143.4410 S   0  0  0  0  0  0  0  0  0  0  0  0
  184.5460  178.4360  144.3750 C   0  0  0  0  0  3  0  0  0  0  0  0
  188.5240  177.8440  140.6110 C   0  0  0  0  0  3  0  0  0  0  0  0
  184.8310  178.3980  142.9370 C   0  0  0  0  0  0  0  0  0  0  0  0
  186.8940  177.9340  144.8540 C   0  0  0  0  0  0  0  0  0  0  0  0
  183.0350  178.2790  139.8170 C   0  0  2  0  0  3  0  0  0  0  0  0
  183.1340  176.8870  139.7520 O   0  0  0  0  0  1  0  0  0  0  0  0
  184.2420  178.9060  139.2080 C   0  0  0  0  0  0  0  0  0  0  0  0
  184.3140  180.2870  139.0880 O   0  0  0  0  0  1  0  0  0  0  0  0
  185.2070  178.1940  138.8190 O   0  0  0  0  0  0  0  0  0  0  0  0
  1  2  2  0  0  0  0
  1 15  1  0  0  0  0
  2 20  1  0  0  0  0
  3  7  1  0  0  0  0
  4  8  1  0  0  0  0
  4  1  1  0  0  0  0
  5 19  2  0  0  0  0
  6  9  1  0  0  0  0
  8 16  1  0  0  0  0
  9  8  2  0  0  0  0
 10 11  1  0  0  0  0
 12  5  2  0  0  0  0
 13 19  1  0  0  0  0
 13  2  1  0  0  0  0
 14  6  2  0  0  0  0
 14 18  1  0  0  0  0
 15  3  2  0  0  0  0
 16 15  1  0  0  0  0
 17 10  2  0  0  0  0
 18  4  2  0  0  0  0
 19 17  1  0  0  0  0
 20 10  1  0  0  0  0
 20  7  2  0  0  0  0
 21 22  1  1  0  0  0
 21 12  1  0  0  0  0
 23 21  1  0  0  0  0
 24 23  1  0  0  0  0
 25 23  2  0  0  0  0
M  END
>  <MODEL>
5

>  <REMARK>
 VINA RESULT:     -10.2      2.970      5.821
  Name = 
  2 active torsions:
  status: ('A' for Active; 'I' for Inactive)
    1  A    between atoms: C_2  and  C_21
    2  A    between atoms: C_15  and  C_21
                            x       y       z     vdW  Elec       q    Type
                         _______ _______ _______ _____ _____    ______ ____

>  <TORSDO>
F 2

$$$$
=
 OpenBabel10232409453D

 25 28  0  0  1  0  0  0  0  0999 V2000
  187.4140  177.9980  142.1530 C   0  0  0  0  0  0  0  0  0  0  0  0
  187.2790  177.8630  143.5520 C   0  0  0  0  0  0  0  0  0  0  0  0
  185.1150  178.7920  141.9600 C   0  0  0  0  0  3  0  0  0  0  0  0
  188.5390  177.7220  141.3500 C   0  0  0  0  0  0  0  0  0  0  0  0
  189.1770  177.2060  146.6770 C   0  0  0  0  0  0  0  0  0  0  0  0
  190.5440  177.2930  139.4470 C   0  0  0  0  0  3  0  0  0  0  0  0
  184.9710  178.6610  143.3450 C   0  0  0  0  0  3  0  0  0  0  0  0
  188.3110  177.9710  139.9970 C   0  0  0  0  0  0  0  0  0  0  0  0
  189.2920  177.7670  139.0290 C   0  0  0  0  0  3  0  0  0  0  0  0
  185.8500  178.0970  145.6130 C   0  0  0  0  0  0  0  0  0  0  0  0
  184.2950  178.4350  146.3580 Cl  0  0  0  0  0  0  0  0  0  0  0  0
  190.1620  176.9330  147.4870 C   0  0  0  0  0  3  0  0  0  0  0  0
  188.4070  177.3090  144.3870 C   0  0  0  0  0  2  0  0  0  0  0  0
  190.7910  177.0370  140.8070 C   0  0  0  0  0  3  0  0  0  0  0  0
  186.3380  178.4580  141.3920 C   0  0  0  0  0  0  0  0  0  0  0  0
  186.7420  178.5310  139.7570 S   0  0  0  0  0  0  0  0  0  0  0  0
  186.8690  177.7740  146.4080 C   0  0  0  0  0  3  0  0  0  0  0  0
  189.7890  177.2500  141.7660 C   0  0  0  0  0  3  0  0  0  0  0  0
  188.1980  177.4780  145.8620 C   0  0  0  0  0  0  0  0  0  0  0  0
  186.0340  178.2000  144.1470 C   0  0  0  0  0  0  0  0  0  0  0  0
  191.5780  177.0440  147.0300 C   0  0  2  0  0  3  0  0  0  0  0  0
  191.6230  177.3870  145.6760 O   0  0  0  0  0  1  0  0  0  0  0  0
  192.2950  175.7570  147.2560 C   0  0  0  0  0  0  0  0  0  0  0  0
  192.4080  174.8420  146.2190 O   0  0  0  0  0  0  0  0  0  0  0  0
  192.8160  175.5020  148.3740 O   0  0  0  0  0  1  0  0  0  0  0  0
  1  2  2  0  0  0  0
  2 20  1  0  0  0  0
  2 13  1  0  0  0  0
  3  7  1  0  0  0  0
  4 18  1  0  0  0  0
  4  1  1  0  0  0  0
  5 12  2  0  0  0  0
  6 14  1  0  0  0  0
  7 20  2  0  0  0  0
  8  4  2  0  0  0  0
  9  6  2  0  0  0  0
  9  8  1  0  0  0  0
 10 11  1  0  0  0  0
 10 17  2  0  0  0  0
 13 19  1  0  0  0  0
 14 18  2  0  0  0  0
 15  3  2  0  0  0  0
 15  1  1  0  0  0  0
 16  8  1  0  0  0  0
 16 15  1  0  0  0  0
 19 17  1  0  0  0  0
 19  5  2  0  0  0  0
 20 10  1  0  0  0  0
 21 22  1  6  0  0  0
 21 23  1  0  0  0  0
 21 12  1  0  0  0  0
 23 25  1  0  0  0  0
 24 23  2  0  0  0  0
M  END
>  <MODEL>
6

>  <REMARK>
 VINA RESULT:     -10.1      3.686      6.359
  Name = 
  2 active torsions:
  status: ('A' for Active; 'I' for Inactive)
    1  A    between atoms: C_2  and  C_21
    2  A    between atoms: C_15  and  C_21
                            x       y       z     vdW  Elec       q    Type
                         _______ _______ _______ _____ _____    ______ ____

>  <TORSDO>
F 2

$$$$
=
 OpenBabel10232409453D

 25 28  0  0  1  0  0  0  0  0999 V2000
  188.0240  177.7260  144.6180 C   0  0  0  0  0  0  0  0  0  0  0  0
  187.7820  177.9810  143.2500 C   0  0  0  0  0  0  0  0  0  0  0  0
  185.6910  178.1800  145.1650 C   0  0  0  0  0  3  0  0  0  0  0  0
  189.2360  177.3630  145.2400 C   0  0  0  0  0  0  0  0  0  0  0  0
  189.2960  177.7560  139.8650 C   0  0  0  0  0  0  0  0  0  0  0  0
  191.4280  176.6360  146.8180 C   0  0  0  0  0  3  0  0  0  0  0  0
  185.4390  178.4340  143.8130 C   0  0  0  0  0  3  0  0  0  0  0  0
  189.1050  177.1940  146.6180 C   0  0  0  0  0  0  0  0  0  0  0  0
  190.1790  176.8310  147.4270 C   0  0  0  0  0  3  0  0  0  0  0  0
  186.1570  178.5960  141.4260 C   0  0  0  0  0  0  0  0  0  0  0  0
  184.5560  179.1180  140.9240 Cl  0  0  0  0  0  0  0  0  0  0  0  0
  190.1610  177.5390  138.9130 C   0  0  0  0  0  3  0  0  0  0  0  0
  188.9060  177.9370  142.2440 C   0  0  0  0  0  2  0  0  0  0  0  0
  191.5770  176.8010  145.4300 C   0  0  0  0  0  3  0  0  0  0  0  0
  186.9810  177.8290  145.5390 C   0  0  0  0  0  0  0  0  0  0  0  0
  187.5180  177.4820  147.0990 S   0  0  0  0  0  0  0  0  0  0  0  0
  187.0780  178.4050  140.4830 C   0  0  0  0  0  3  0  0  0  0  0  0
  190.4810  177.1660  144.6340 C   0  0  0  0  0  3  0  0  0  0  0  0
  188.4370  177.9690  140.8210 C   0  0  0  0  0  0  0  0  0  0  0  0
  186.4670  178.3420  142.8520 C   0  0  0  0  0  0  0  0  0  0  0  0
  191.3770  176.7120  139.1620 C   0  0  2  0  0  3  0  0  0  0  0  0
  192.1940  177.3280  140.1130 O   0  0  0  0  0  1  0  0  0  0  0  0
  192.1320  176.5120  137.8920 C   0  0  0  0  0  0  0  0  0  0  0  0
  193.4900  176.7950  137.8470 O   0  0  0  0  0  1  0  0  0  0  0  0
  191.5520  176.0680  136.8650 O   0  0  0  0  0  0  0  0  0  0  0  0
  1  4  1  0  0  0  0
  1 15  2  0  0  0  0
  2  1  1  0  0  0  0
  3 15  1  0  0  0  0
  4  8  1  0  0  0  0
  5 19  2  0  0  0  0
  6  9  1  0  0  0  0
  7  3  2  0  0  0  0
  8 16  1  0  0  0  0
  8  9  2  0  0  0  0
 10 20  1  0  0  0  0
 11 10  1  0  0  0  0
 12 21  1  0  0  0  0
 12  5  2  0  0  0  0
 13  2  1  0  0  0  0
 14  6  2  0  0  0  0
 15 16  1  0  0  0  0
 17 19  1  0  0  0  0
 17 10  2  0  0  0  0
 18  4  2  0  0  0  0
 18 14  1  0  0  0  0
 19 13  1  0  0  0  0
 20  2  2  0  0  0  0
 20  7  1  0  0  0  0
 21 22  1  1  0  0  0
 23 21  1  0  0  0  0
 24 23  1  0  0  0  0
 25 23  2  0  0  0  0
M  END
>  <MODEL>
7

>  <REMARK>
 VINA RESULT:     -10.0      2.563      4.686
  Name = 
  2 active torsions:
  status: ('A' for Active; 'I' for Inactive)
    1  A    between atoms: C_2  and  C_21
    2  A    between atoms: C_15  and  C_21
                            x       y       z     vdW  Elec       q    Type
                         _______ _______ _______ _____ _____    ______ ____

>  <TORSDO>
F 2

$$$$
=
 OpenBabel10232409453D

 25 28  0  0  1  0  0  0  0  0999 V2000
  186.2520  178.3010  144.4090 C   0  0  0  0  0  0  0  0  0  0  0  0
  186.3130  178.4380  143.0050 C   0  0  0  0  0  0  0  0  0  0  0  0
  183.8630  178.7910  144.4020 C   0  0  0  0  0  3  0  0  0  0  0  0
  187.2960  177.9950  145.3060 C   0  0  0  0  0  0  0  0  0  0  0  0
  188.5150  177.9340  140.0560 C   0  0  0  0  0  0  0  0  0  0  0  0
  189.0880  177.4120  147.3730 C   0  0  0  0  0  3  0  0  0  0  0  0
  183.9120  178.9290  143.0110 C   0  0  0  0  0  3  0  0  0  0  0  0
  186.8700  177.9420  146.6320 C   0  0  0  0  0  0  0  0  0  0  0  0
  187.7400  177.6530  147.6800 C   0  0  0  0  0  3  0  0  0  0  0  0
  185.1270  178.8920  140.8290 C   0  0  0  0  0  0  0  0  0  0  0  0
  183.6790  179.3640  139.9530 Cl  0  0  0  0  0  0  0  0  0  0  0  0
  189.5610  177.6410  139.3330 C   0  0  0  0  0  3  0  0  0  0  0  0
  187.6260  178.3130  142.2720 C   0  0  0  0  0  2  0  0  0  0  0  0
  189.5340  177.4600  146.0410 C   0  0  0  0  0  3  0  0  0  0  0  0
  185.0380  178.4770  145.0720 C   0  0  0  0  0  0  0  0  0  0  0  0
  185.2210  178.2640  146.7350 S   0  0  0  0  0  0  0  0  0  0  0  0
  186.2260  178.6250  140.1250 C   0  0  0  0  0  3  0  0  0  0  0  0
  188.6400  177.7530  145.0000 C   0  0  0  0  0  3  0  0  0  0  0  0
  187.4740  178.2240  140.7830 C   0  0  0  0  0  0  0  0  0  0  0  0
  185.1200  178.7600  142.3050 C   0  0  0  0  0  0  0  0  0  0  0  0
  190.6830  176.8420  139.9060 C   0  0  2  0  0  3  0  0  0  0  0  0
  191.5250  177.6630  140.6600 O   0  0  0  0  0  1  0  0  0  0  0  0
  191.4550  176.1820  138.8140 C   0  0  0  0  0  0  0  0  0  0  0  0
  190.9760  175.0120  138.2430 O   0  0  0  0  0  0  0  0  0  0  0  0
  192.5290  176.6900  138.3920 O   0  0  0  0  0  1  0  0  0  0  0  0
  1 15  2  0  0  0  0
  1  4  1  0  0  0  0
  2  1  1  0  0  0  0
  3 15  1  0  0  0  0
  4  8  1  0  0  0  0
  5 19  2  0  0  0  0
  6  9  1  0  0  0  0
  7  3  2  0  0  0  0
  8 16  1  0  0  0  0
  8  9  2  0  0  0  0
 10 20  1  0  0  0  0
 11 10  1  0  0  0  0
 12 21  1  0  0  0  0
 12  5  2  0  0  0  0
 13  2  1  0  0  0  0
 14  6  2  0  0  0  0
 15 16  1  0  0  0  0
 17 19  1  0  0  0  0
 17 10  2  0  0  0  0
 18  4  2  0  0  0  0
 18 14  1  0  0  0  0
 19 13  1  0  0  0  0
 20  2  2  0  0  0  0
 20  7  1  0  0  0  0
 21 22  1  6  0  0  0
 23 21  1  0  0  0  0
 24 23  2  0  0  0  0
 25 23  1  0  0  0  0
M  END
>  <MODEL>
8

>  <REMARK>
 VINA RESULT:      -9.9      2.627      4.645
  Name = 
  2 active torsions:
  status: ('A' for Active; 'I' for Inactive)
    1  A    between atoms: C_2  and  C_21
    2  A    between atoms: C_15  and  C_21
                            x       y       z     vdW  Elec       q    Type
                         _______ _______ _______ _____ _____    ______ ____

>  <TORSDO>
F 2

$$$$
=
 OpenBabel10232409453D

 25 28  0  0  1  0  0  0  0  0999 V2000
  186.9470  178.0460  145.0050 C   0  0  0  0  0  0  0  0  0  0  0  0
  185.9570  178.3680  144.0510 C   0  0  0  0  0  0  0  0  0  0  0  0
  185.2950  178.0790  146.8000 C   0  0  0  0  0  3  0  0  0  0  0  0
  188.3250  177.8300  144.8000 C   0  0  0  0  0  0  0  0  0  0  0  0
  185.3210  178.6580  140.4020 C   0  0  0  0  0  0  0  0  0  0  0  0
  191.0780  177.3350  144.7900 C   0  0  0  0  0  3  0  0  0  0  0  0
  184.3070  178.3980  145.8630 C   0  0  0  0  0  3  0  0  0  0  0  0
  189.0060  177.5320  145.9800 C   0  0  0  0  0  0  0  0  0  0  0  0
  190.3750  177.2810  146.0030 C   0  0  0  0  0  3  0  0  0  0  0  0
  183.5430  178.8630  143.5310 C   0  0  0  0  0  0  0  0  0  0  0  0
  181.8990  179.1630  144.0730 Cl  0  0  0  0  0  0  0  0  0  0  0  0
  185.5170  178.6590  139.1120 C   0  0  0  0  0  3  0  0  0  0  0  0
  186.3210  178.5840  142.6020 C   0  0  0  0  0  2  0  0  0  0  0  0
  190.4070  177.6330  143.5910 C   0  0  0  0  0  3  0  0  0  0  0  0
  186.5970  177.9080  146.3490 C   0  0  0  0  0  0  0  0  0  0  0  0
  187.9460  177.5260  147.2870 S   0  0  0  0  0  0  0  0  0  0  0  0
  183.7870  178.8960  142.2220 C   0  0  0  0  0  3  0  0  0  0  0  0
  189.0260  177.8830  143.5910 C   0  0  0  0  0  3  0  0  0  0  0  0
  185.1330  178.6550  141.6910 C   0  0  0  0  0  0  0  0  0  0  0  0
  184.6210  178.5470  144.4970 C   0  0  0  0  0  0  0  0  0  0  0  0
  186.7290  178.0180  138.5250 C   0  0  2  0  0  3  0  0  0  0  0  0
  187.8670  178.3850  139.2470 O   0  0  0  0  0  1  0  0  0  0  0  0
  186.8800  178.4140  137.0960 C   0  0  0  0  0  0  0  0  0  0  0  0
  186.3330  177.6170  136.1000 O   0  0  0  0  0  0  0  0  0  0  0  0
  187.4820  179.4770  136.7860 O   0  0  0  0  0  1  0  0  0  0  0  0
  1 15  2  0  0  0  0
  2 20  2  0  0  0  0
  2  1  1  0  0  0  0
  4  1  1  0  0  0  0
  4  8  1  0  0  0  0
  5 19  2  0  0  0  0
  6  9  1  0  0  0  0
  7  3  2  0  0  0  0
  8  9  2  0  0  0  0
  8 16  1  0  0  0  0
 10 11  1  0  0  0  0
 10 20  1  0  0  0  0
 12  5  2  0  0  0  0
 13  2  1  0  0  0  0
 14 18  1  0  0  0  0
 14  6  2  0  0  0  0
 15  3  1  0  0  0  0
 15 16  1  0  0  0  0
 17 10  2  0  0  0  0
 18  4  2  0  0  0  0
 19 17  1  0  0  0  0
 19 13  1  0  0  0  0
 20  7  1  0  0  0  0
 21 12  1  0  0  0  0
 21 22  1  1  0  0  0
 23 21  1  0  0  0  0
 24 23  2  0  0  0  0
 25 23  1  0  0  0  0
M  END
>  <MODEL>
9

>  <REMARK>
 VINA RESULT:      -9.8      2.922      5.192
  Name = 
  2 active torsions:
  status: ('A' for Active; 'I' for Inactive)
    1  A    between atoms: C_2  and  C_21
    2  A    between atoms: C_15  and  C_21
                            x       y       z     vdW  Elec       q    Type
                         _______ _______ _______ _____ _____    ______ ____

>  <TORSDO>
F 2

$$$$
