=
 OpenBabel10222421323D

 34 35  0  0  1  0  0  0  0  0999 V2000
  184.5880  176.9820  135.8000 C   0  0  1  0  0  3  0  0  0  0  0  0
  186.6820  177.4730  135.1100 C   0  0  0  0  0  0  0  0  0  0  0  0
  186.6860  177.9910  136.5040 C   0  0  1  0  0  3  0  0  0  0  0  0
  190.2100  177.1260  134.5530 O   0  0  0  0  0  0  0  0  0  0  0  0
  184.0780  175.5830  136.0890 C   0  0  0  0  0  1  0  0  0  0  0  0
  185.3560  177.5030  136.9730 C   0  0  0  0  0  0  0  0  0  0  0  0
  189.0470  177.2010  136.6320 C   0  0  0  0  0  0  0  0  0  0  0  0
  190.5080  176.7760  137.5250 Cl  0  0  0  0  0  0  0  0  0  0  0  0
  185.5750  176.9270  134.7340 N   0  0  0  0  0  0  0  0  0  0  0  0
  187.8340  177.4550  138.7670 C   0  0  0  0  0  1  0  0  0  0  0  0
  187.8850  177.4640  137.2730 C   0  0  0  0  0  0  0  0  0  0  0  0
  184.7480  178.0530  137.9890 C   0  0  0  0  0  0  0  0  0  0  0  0
  187.8960  177.2910  134.3920 N   0  0  0  0  0  2  0  0  0  0  0  0
  189.1070  177.2220  135.1490 C   0  0  0  0  0  0  0  0  0  0  0  0
  184.1330  178.6090  138.9990 C   0  0  0  0  0  0  0  0  0  0  0  0
  184.1360  180.9860  138.8460 O   0  0  0  0  0  0  0  0  0  0  0  0
  183.4610  179.9220  138.8330 C   0  0  0  0  0  0  0  0  0  0  0  0
  181.9810  180.0240  138.6410 C   0  0  0  0  0  2  0  0  0  0  0  0
  181.5950  181.4180  138.4910 N   0  0  0  0  0  2  0  0  0  0  0  0
  180.9100  181.1620  136.2750 O   0  0  0  0  0  0  0  0  0  0  0  0
  181.0340  181.9190  137.2770 C   0  0  0  0  0  0  0  0  0  0  0  0
  180.6280  183.2510  137.2130 O   0  0  0  0  0  0  0  0  0  0  0  0
  180.9130  184.0680  136.0880 C   0  0  0  0  0  1  0  0  0  0  0  0
  184.1050  177.8510  140.3000 C   0  0  2  0  0  3  0  0  0  0  0  0
  181.8510  178.0360  141.2820 O   0  0  0  0  0  0  0  0  0  0  0  0
  182.7730  177.3150  140.5590 N   0  0  0  0  0  0  0  0  0  0  0  0
  182.4220  176.2540  140.0040 O   0  0  0  0  0  0  0  0  0  0  0  0
  184.6420  178.6530  141.4920 C   0  0  2  0  0  3  0  0  0  0  0  0
  186.0430  179.1700  141.2020 C   0  0  0  0  0  1  0  0  0  0  0  0
  184.6770  177.8120  142.6810 N   0  0  0  0  0  2  0  0  0  0  0  0
  184.7080  180.2310  143.7630 O   0  0  0  0  0  0  0  0  0  0  0  0
  184.3140  178.8090  144.0510 S   0  0  0  0  0  0  0  0  0  0  0  0
  182.6230  178.7380  144.4060 N   0  0  0  0  0  1  0  0  0  0  0  0
  185.0890  178.3120  145.2390 O   0  0  0  0  0  0  0  0  0  0  0  0
  1  5  1  1  0  0  0
  1  6  1  0  0  0  0
  3  2  1  6  0  0  0
  3  6  1  0  0  0  0
  3 11  1  0  0  0  0
  4 14  2  0  0  0  0
  6 12  2  0  0  0  0
  7 11  2  0  0  0  0
  7  8  1  0  0  0  0
  9  2  2  0  0  0  0
  9  1  1  0  0  0  0
 11 10  1  0  0  0  0
 12 15  2  0  0  0  0
 13  2  1  0  0  0  0
 13 14  1  0  0  0  0
 14  7  1  0  0  0  0
 17 16  2  0  0  0  0
 17 15  1  0  0  0  0
 18 17  1  0  0  0  0
 19 18  1  0  0  0  0
 20 21  2  0  0  0  0
 21 19  1  0  0  0  0
 22 21  1  0  0  0  0
 23 22  1  0  0  0  0
 24 15  1  6  0  0  0
 24 26  1  0  0  0  0
 24 28  1  0  0  0  0
 26 25  2  0  0  0  0
 27 26  2  0  0  0  0
 28 29  1  6  0  0  0
 28 30  1  0  0  0  0
 30 32  1  0  0  0  0
 31 32  2  0  0  0  0
 32 33  1  0  0  0  0
 32 34  2  0  0  0  0
M  END
>  <MODEL>
1

>  <REMARK>
 VINA RESULT:      -5.6      0.000      0.000
  Name = 
  9 active torsions:
  status: ('A' for Active; 'I' for Inactive)
    1  A    between atoms: O_1  and  C_34
    2  A    between atoms: N_3  and  C_5
    3  A    between atoms: S_4  and  N_18
    4  A    between atoms: C_5  and  C_30
    5  A    between atoms: N_10  and  C_21
    6  A    between atoms: C_13  and  N_18
    7  A    between atoms: C_13  and  C_21
    8  A    between atoms: C_21  and  C_33
    9  A    between atoms: C_30  and  C_33
                            x       y       z     vdW  Elec       q    Type
                         _______ _______ _______ _____ _____    ______ ____

>  <TORSDO>
F 9

$$$$
=
 OpenBabel10222421323D

 34 35  0  0  1  0  0  0  0  0999 V2000
  186.7150  177.4690  145.9130 C   0  0  1  0  0  3  0  0  0  0  0  0
  184.9670  178.7760  145.3320 C   0  0  0  0  0  0  0  0  0  0  0  0
  185.8110  178.8260  144.1090 C   0  0  1  0  0  3  0  0  0  0  0  0
  181.7960  179.7390  143.9540 O   0  0  0  0  0  0  0  0  0  0  0  0
  186.6530  175.9620  146.0740 C   0  0  0  0  0  1  0  0  0  0  0  0
  186.8600  177.8280  144.4690 C   0  0  0  0  0  0  0  0  0  0  0  0
  183.6780  178.8190  142.8170 C   0  0  0  0  0  0  0  0  0  0  0  0
  182.7520  178.6270  141.3280 Cl  0  0  0  0  0  0  0  0  0  0  0  0
  185.4360  178.0490  146.2890 N   0  0  0  0  0  0  0  0  0  0  0  0
  185.7010  178.0260  141.6450 C   0  0  0  0  0  1  0  0  0  0  0  0
  184.9920  178.4980  142.8730 C   0  0  0  0  0  0  0  0  0  0  0  0
  188.0290  177.8290  143.8870 C   0  0  0  0  0  0  0  0  0  0  0  0
  183.6120  179.2090  145.3060 N   0  0  0  0  0  2  0  0  0  0  0  0
  182.9720  179.3000  144.0310 C   0  0  0  0  0  0  0  0  0  0  0  0
  189.2030  177.8330  143.3130 C   0  0  0  0  0  0  0  0  0  0  0  0
  190.6870  179.6280  142.8120 O   0  0  0  0  0  0  0  0  0  0  0  0
  190.2130  178.8540  143.6870 C   0  0  0  0  0  0  0  0  0  0  0  0
  190.6900  179.0020  145.0970 C   0  0  0  0  0  2  0  0  0  0  0  0
  191.5670  177.8950  145.4430 N   0  0  0  0  0  2  0  0  0  0  0  0
  190.0050  176.8780  146.8450 O   0  0  0  0  0  0  0  0  0  0  0  0
  191.1460  176.8420  146.3100 C   0  0  0  0  0  0  0  0  0  0  0  0
  192.0120  175.7770  146.5580 O   0  0  0  0  0  0  0  0  0  0  0  0
  192.6710  175.6220  147.8060 C   0  0  0  0  0  1  0  0  0  0  0  0
  189.4900  176.7520  142.3050 C   0  0  2  0  0  3  0  0  0  0  0  0
  191.8840  176.4150  142.7870 O   0  0  0  0  0  0  0  0  0  0  0  0
  190.6020  175.9160  142.7430 N   0  0  0  0  0  0  0  0  0  0  0  0
  190.3690  174.7830  143.2120 O   0  0  0  0  0  0  0  0  0  0  0  0
  189.6950  177.2770  140.8790 C   0  0  2  0  0  3  0  0  0  0  0  0
  188.5830  178.2450  140.4990 C   0  0  0  0  0  1  0  0  0  0  0  0
  189.7060  176.1670  139.9370 N   0  0  0  0  0  2  0  0  0  0  0  0
  192.1570  177.0790  139.5100 O   0  0  0  0  0  0  0  0  0  0  0  0
  190.9940  176.4360  138.8080 S   0  0  0  0  0  0  0  0  0  0  0  0
  191.4960  174.9350  138.1120 N   0  0  0  0  0  1  0  0  0  0  0  0
  190.5080  177.3490  137.7180 O   0  0  0  0  0  0  0  0  0  0  0  0
  1  5  1  6  0  0  0
  1  9  1  0  0  0  0
  2  9  2  0  0  0  0
  3 11  1  6  0  0  0
  3  6  1  0  0  0  0
  3  2  1  0  0  0  0
  4 14  2  0  0  0  0
  6  1  1  0  0  0  0
  7 11  2  0  0  0  0
  7 14  1  0  0  0  0
  8  7  1  0  0  0  0
 10 11  1  0  0  0  0
 12  6  2  0  0  0  0
 13  2  1  0  0  0  0
 14 13  1  0  0  0  0
 15 17  1  0  0  0  0
 15 12  2  0  0  0  0
 16 17  2  0  0  0  0
 17 18  1  0  0  0  0
 18 19  1  0  0  0  0
 19 21  1  0  0  0  0
 21 22  1  0  0  0  0
 21 20  2  0  0  0  0
 22 23  1  0  0  0  0
 24 26  1  0  0  0  0
 24 15  1  1  0  0  0
 26 25  2  0  0  0  0
 26 27  2  0  0  0  0
 28 29  1  6  0  0  0
 28 24  1  0  0  0  0
 30 28  1  0  0  0  0
 32 31  2  0  0  0  0
 32 30  1  0  0  0  0
 33 32  1  0  0  0  0
 34 32  2  0  0  0  0
M  END
>  <MODEL>
2

>  <REMARK>
 VINA RESULT:      -5.4      5.384     10.121
  Name = 
  9 active torsions:
  status: ('A' for Active; 'I' for Inactive)
    1  A    between atoms: O_1  and  C_34
    2  A    between atoms: N_3  and  C_5
    3  A    between atoms: S_4  and  N_18
    4  A    between atoms: C_5  and  C_30
    5  A    between atoms: N_10  and  C_21
    6  A    between atoms: C_13  and  N_18
    7  A    between atoms: C_13  and  C_21
    8  A    between atoms: C_21  and  C_33
    9  A    between atoms: C_30  and  C_33
                            x       y       z     vdW  Elec       q    Type
                         _______ _______ _______ _____ _____    ______ ____

>  <TORSDO>
F 9

$$$$
=
 OpenBabel10222421323D

 34 35  0  0  1  0  0  0  0  0999 V2000
  187.0550  178.0840  135.6890 C   0  0  1  0  0  3  0  0  0  0  0  0
  188.4640  176.4420  136.3380 C   0  0  0  0  0  0  0  0  0  0  0  0
  187.2810  176.1950  137.2040 C   0  0  1  0  0  3  0  0  0  0  0  0
  190.0410  173.2210  136.4830 O   0  0  0  0  0  0  0  0  0  0  0  0
  186.3400  178.1310  134.3510 C   0  0  0  0  0  1  0  0  0  0  0  0
  186.3220  177.1850  136.6330 C   0  0  0  0  0  0  0  0  0  0  0  0
  187.7600  173.7660  136.9090 C   0  0  0  0  0  0  0  0  0  0  0  0
  187.3160  172.0610  137.0040 Cl  0  0  0  0  0  0  0  0  0  0  0  0
  188.3470  177.4360  135.5240 N   0  0  0  0  0  0  0  0  0  0  0  0
  185.4470  174.3870  137.5080 C   0  0  0  0  0  1  0  0  0  0  0  0
  186.8470  174.7420  137.1240 C   0  0  0  0  0  0  0  0  0  0  0  0
  185.2990  177.6160  137.3200 C   0  0  0  0  0  0  0  0  0  0  0  0
  189.4810  175.4590  136.1870 N   0  0  0  0  0  2  0  0  0  0  0  0
  189.1550  174.1120  136.5400 C   0  0  0  0  0  0  0  0  0  0  0  0
  184.2800  178.0570  138.0090 C   0  0  0  0  0  0  0  0  0  0  0  0
  184.1880  180.2650  138.8970 O   0  0  0  0  0  0  0  0  0  0  0  0
  184.4840  179.0550  139.0880 C   0  0  0  0  0  0  0  0  0  0  0  0
  185.0350  178.6630  140.4220 C   0  0  0  0  0  2  0  0  0  0  0  0
  186.4870  178.7440  140.4040 N   0  0  0  0  0  2  0  0  0  0  0  0
  186.7250  177.9400  142.5810 O   0  0  0  0  0  0  0  0  0  0  0  0
  187.2790  178.3360  141.5200 C   0  0  0  0  0  0  0  0  0  0  0  0
  188.6690  178.3810  141.4210 O   0  0  0  0  0  0  0  0  0  0  0  0
  189.3790  177.6030  140.4690 C   0  0  0  0  0  1  0  0  0  0  0  0
  182.9130  177.5460  137.6360 C   0  0  2  0  0  3  0  0  0  0  0  0
  182.9960  175.8400  139.4130 O   0  0  0  0  0  0  0  0  0  0  0  0
  182.3060  176.8290  138.7520 N   0  0  0  0  0  0  0  0  0  0  0  0
  181.2040  177.2100  139.1970 O   0  0  0  0  0  0  0  0  0  0  0  0
  182.8960  176.7190  136.3460 C   0  0  2  0  0  3  0  0  0  0  0  0
  182.6440  177.6120  135.1390 C   0  0  0  0  0  1  0  0  0  0  0  0
  181.8520  175.7060  136.4180 N   0  0  0  0  0  2  0  0  0  0  0  0
  183.6360  174.6880  134.7450 O   0  0  0  0  0  0  0  0  0  0  0  0
  182.3200  174.3810  135.4040 S   0  0  0  0  0  0  0  0  0  0  0  0
  182.4670  172.9370  136.3430 N   0  0  0  0  0  1  0  0  0  0  0  0
  181.2730  174.1780  134.3460 O   0  0  0  0  0  0  0  0  0  0  0  0
  1  5  1  6  0  0  0
  1  6  1  0  0  0  0
  3  2  1  6  0  0  0
  4 14  2  0  0  0  0
  6  3  1  0  0  0  0
  6 12  2  0  0  0  0
  7  8  1  0  0  0  0
  7 11  2  0  0  0  0
  9  1  1  0  0  0  0
  9  2  2  0  0  0  0
 11  3  1  0  0  0  0
 11 10  1  0  0  0  0
 12 15  2  0  0  0  0
 13  2  1  0  0  0  0
 13 14  1  0  0  0  0
 14  7  1  0  0  0  0
 15 17  1  0  0  0  0
 16 17  2  0  0  0  0
 17 18  1  0  0  0  0
 19 18  1  0  0  0  0
 19 21  1  0  0  0  0
 21 20  2  0  0  0  0
 22 21  1  0  0  0  0
 23 22  1  0  0  0  0
 24 15  1  1  0  0  0
 24 26  1  0  0  0  0
 26 27  2  0  0  0  0
 26 25  2  0  0  0  0
 28 29  1  6  0  0  0
 28 30  1  0  0  0  0
 28 24  1  0  0  0  0
 31 32  2  0  0  0  0
 32 33  1  0  0  0  0
 32 30  1  0  0  0  0
 34 32  2  0  0  0  0
M  END
>  <MODEL>
3

>  <REMARK>
 VINA RESULT:      -5.2      3.414      5.990
  Name = 
  9 active torsions:
  status: ('A' for Active; 'I' for Inactive)
    1  A    between atoms: O_1  and  C_34
    2  A    between atoms: N_3  and  C_5
    3  A    between atoms: S_4  and  N_18
    4  A    between atoms: C_5  and  C_30
    5  A    between atoms: N_10  and  C_21
    6  A    between atoms: C_13  and  N_18
    7  A    between atoms: C_13  and  C_21
    8  A    between atoms: C_21  and  C_33
    9  A    between atoms: C_30  and  C_33
                            x       y       z     vdW  Elec       q    Type
                         _______ _______ _______ _____ _____    ______ ____

>  <TORSDO>
F 9

$$$$
=
 OpenBabel10222421323D

 34 35  0  0  1  0  0  0  0  0999 V2000
  186.9310  178.2710  136.3680 C   0  0  1  0  0  3  0  0  0  0  0  0
  188.8050  177.6220  137.4500 C   0  0  0  0  0  0  0  0  0  0  0  0
  187.9390  176.4210  137.5830 C   0  0  1  0  0  3  0  0  0  0  0  0
  192.0280  176.1450  138.0100 O   0  0  0  0  0  0  0  0  0  0  0  0
  186.8190  178.4550  134.8660 C   0  0  0  0  0  1  0  0  0  0  0  0
  186.7890  176.8250  136.7220 C   0  0  0  0  0  0  0  0  0  0  0  0
  190.0180  175.0740  137.3050 C   0  0  0  0  0  0  0  0  0  0  0  0
  190.8730  173.5640  136.9840 Cl  0  0  0  0  0  0  0  0  0  0  0  0
  188.2810  178.6030  136.7960 N   0  0  0  0  0  0  0  0  0  0  0  0
  187.8830  173.9680  136.7430 C   0  0  0  0  0  1  0  0  0  0  0  0
  188.6780  175.1700  137.1430 C   0  0  0  0  0  0  0  0  0  0  0  0
  185.6130  176.2740  136.8540 C   0  0  0  0  0  0  0  0  0  0  0  0
  190.2000  177.5540  137.7180 N   0  0  0  0  0  2  0  0  0  0  0  0
  190.8100  176.2600  137.7150 C   0  0  0  0  0  0  0  0  0  0  0  0
  184.4320  175.7310  136.9900 C   0  0  0  0  0  0  0  0  0  0  0  0
  183.0080  175.2270  138.8310 O   0  0  0  0  0  0  0  0  0  0  0  0
  183.5610  176.1150  138.1290 C   0  0  0  0  0  0  0  0  0  0  0  0
  183.3190  177.5490  138.4800 C   0  0  0  0  0  2  0  0  0  0  0  0
  184.0450  177.8930  139.6930 N   0  0  0  0  0  2  0  0  0  0  0  0
  184.4990  180.0740  139.0010 O   0  0  0  0  0  0  0  0  0  0  0  0
  184.5900  179.1960  139.9020 C   0  0  0  0  0  0  0  0  0  0  0  0
  185.2240  179.4830  141.1100 O   0  0  0  0  0  0  0  0  0  0  0  0
  184.7350  178.9910  142.3480 C   0  0  0  0  0  1  0  0  0  0  0  0
  183.9900  174.7490  135.9370 C   0  0  2  0  0  3  0  0  0  0  0  0
  181.5500  174.8520  135.6040 O   0  0  0  0  0  0  0  0  0  0  0  0
  182.8150  175.2430  135.2280 N   0  0  0  0  0  0  0  0  0  0  0  0
  182.9510  176.1320  134.3630 O   0  0  0  0  0  0  0  0  0  0  0  0
  183.7840  173.3270  136.4700 C   0  0  2  0  0  3  0  0  0  0  0  0
  184.9130  172.9370  137.4130 C   0  0  0  0  0  1  0  0  0  0  0  0
  183.7380  172.3830  135.3620 N   0  0  0  0  0  2  0  0  0  0  0  0
  181.7250  170.8230  134.6270 O   0  0  0  0  0  0  0  0  0  0  0  0
  182.6370  171.1130  135.7860 S   0  0  0  0  0  0  0  0  0  0  0  0
  183.5140  169.6820  136.2020 N   0  0  0  0  0  1  0  0  0  0  0  0
  181.8150  171.5490  136.9650 O   0  0  0  0  0  0  0  0  0  0  0  0
  1  5  1  6  0  0  0
  1  6  1  0  0  0  0
  1  9  1  0  0  0  0
  2  3  1  0  0  0  0
  2 13  1  0  0  0  0
  3  6  1  6  0  0  0
  6 12  2  0  0  0  0
  7 14  1  0  0  0  0
  8  7  1  0  0  0  0
  9  2  2  0  0  0  0
 10 11  1  0  0  0  0
 11  7  2  0  0  0  0
 11  3  1  0  0  0  0
 12 15  2  0  0  0  0
 14 13  1  0  0  0  0
 14  4  2  0  0  0  0
 15 17  1  0  0  0  0
 17 18  1  0  0  0  0
 17 16  2  0  0  0  0
 18 19  1  0  0  0  0
 19 21  1  0  0  0  0
 20 21  2  0  0  0  0
 21 22  1  0  0  0  0
 22 23  1  0  0  0  0
 24 28  1  0  0  0  0
 24 15  1  1  0  0  0
 26 25  2  0  0  0  0
 26 24  1  0  0  0  0
 27 26  2  0  0  0  0
 28 29  1  1  0  0  0
 30 32  1  0  0  0  0
 30 28  1  0  0  0  0
 31 32  2  0  0  0  0
 32 33  1  0  0  0  0
 32 34  2  0  0  0  0
M  END
>  <MODEL>
4

>  <REMARK>
 VINA RESULT:      -5.2      3.811      6.248
  Name = 
  9 active torsions:
  status: ('A' for Active; 'I' for Inactive)
    1  A    between atoms: O_1  and  C_34
    2  A    between atoms: N_3  and  C_5
    3  A    between atoms: S_4  and  N_18
    4  A    between atoms: C_5  and  C_30
    5  A    between atoms: N_10  and  C_21
    6  A    between atoms: C_13  and  N_18
    7  A    between atoms: C_13  and  C_21
    8  A    between atoms: C_21  and  C_33
    9  A    between atoms: C_30  and  C_33
                            x       y       z     vdW  Elec       q    Type
                         _______ _______ _______ _____ _____    ______ ____

>  <TORSDO>
F 9

$$$$
=
 OpenBabel10222421323D

 34 35  0  0  1  0  0  0  0  0999 V2000
  188.3910  178.0400  138.1250 C   0  0  1  0  0  3  0  0  0  0  0  0
  188.3220  177.8090  140.3710 C   0  0  0  0  0  0  0  0  0  0  0  0
  189.4820  176.9520  140.0080 C   0  0  1  0  0  3  0  0  0  0  0  0
  189.0330  178.4000  143.8390 O   0  0  0  0  0  0  0  0  0  0  0  0
  188.8160  179.3010  137.3980 C   0  0  0  0  0  1  0  0  0  0  0  0
  189.5950  177.2610  138.5520 C   0  0  0  0  0  0  0  0  0  0  0  0
  190.5470  177.7580  142.1130 C   0  0  0  0  0  0  0  0  0  0  0  0
  191.9370  177.9880  143.1750 Cl  0  0  0  0  0  0  0  0  0  0  0  0
  187.7460  178.3970  139.3780 N   0  0  0  0  0  0  0  0  0  0  0  0
  192.0530  176.9280  140.3420 C   0  0  0  0  0  1  0  0  0  0  0  0
  190.6970  177.3030  140.8480 C   0  0  0  0  0  0  0  0  0  0  0  0
  190.2020  176.4500  137.7290 C   0  0  0  0  0  0  0  0  0  0  0  0
  188.0980  178.2080  141.7180 N   0  0  0  0  0  2  0  0  0  0  0  0
  189.2010  178.1190  142.6250 C   0  0  0  0  0  0  0  0  0  0  0  0
  190.8000  175.6350  136.9010 C   0  0  0  0  0  0  0  0  0  0  0  0
  190.1650  173.3580  137.1890 O   0  0  0  0  0  0  0  0  0  0  0  0
  190.1260  174.3870  136.4640 C   0  0  0  0  0  0  0  0  0  0  0  0
  189.3820  174.3130  135.1680 C   0  0  0  0  0  2  0  0  0  0  0  0
  188.2200  175.1860  135.2120 N   0  0  0  0  0  2  0  0  0  0  0  0
  187.0370  173.8140  136.6820 O   0  0  0  0  0  0  0  0  0  0  0  0
  187.0820  174.8870  136.0190 C   0  0  0  0  0  0  0  0  0  0  0  0
  186.0220  175.7930  136.0650 O   0  0  0  0  0  0  0  0  0  0  0  0
  186.1360  177.1060  135.5400 C   0  0  0  0  0  1  0  0  0  0  0  0
  192.1610  176.0330  136.3930 C   0  0  2  0  0  3  0  0  0  0  0  0
  190.8940  176.8900  134.4600 O   0  0  0  0  0  0  0  0  0  0  0  0
  192.0870  176.4730  135.0040 N   0  0  0  0  0  0  0  0  0  0  0  0
  193.1390  176.6020  134.3460 O   0  0  0  0  0  0  0  0  0  0  0  0
  193.2340  174.9570  136.5960 C   0  0  2  0  0  3  0  0  0  0  0  0
  192.9020  173.7090  135.7920 C   0  0  0  0  0  1  0  0  0  0  0  0
  193.3250  174.6080  138.0070 N   0  0  0  0  0  2  0  0  0  0  0  0
  195.3260  175.4070  139.5500 O   0  0  0  0  0  0  0  0  0  0  0  0
  195.0040  174.4730  138.4170 S   0  0  0  0  0  0  0  0  0  0  0  0
  195.3740  172.8500  138.8830 N   0  0  0  0  0  1  0  0  0  0  0  0
  195.8330  174.8450  137.2200 O   0  0  0  0  0  0  0  0  0  0  0  0
  1  5  1  1  0  0  0
  1  6  1  0  0  0  0
  1  9  1  0  0  0  0
  2 13  1  0  0  0  0
  3  6  1  6  0  0  0
  3  2  1  0  0  0  0
  3 11  1  0  0  0  0
  7 14  1  0  0  0  0
  7  8  1  0  0  0  0
  9  2  2  0  0  0  0
 10 11  1  0  0  0  0
 11  7  2  0  0  0  0
 12  6  2  0  0  0  0
 13 14  1  0  0  0  0
 14  4  2  0  0  0  0
 15 12  2  0  0  0  0
 17 15  1  0  0  0  0
 17 16  2  0  0  0  0
 18 19  1  0  0  0  0
 18 17  1  0  0  0  0
 19 21  1  0  0  0  0
 21 22  1  0  0  0  0
 21 20  2  0  0  0  0
 23 22  1  0  0  0  0
 24 28  1  0  0  0  0
 24 15  1  6  0  0  0
 25 26  2  0  0  0  0
 26 24  1  0  0  0  0
 27 26  2  0  0  0  0
 28 29  1  6  0  0  0
 28 30  1  0  0  0  0
 30 32  1  0  0  0  0
 32 33  1  0  0  0  0
 32 31  2  0  0  0  0
 34 32  2  0  0  0  0
M  END
>  <MODEL>
5

>  <REMARK>
 VINA RESULT:      -5.0      5.216      9.095
  Name = 
  9 active torsions:
  status: ('A' for Active; 'I' for Inactive)
    1  A    between atoms: O_1  and  C_34
    2  A    between atoms: N_3  and  C_5
    3  A    between atoms: S_4  and  N_18
    4  A    between atoms: C_5  and  C_30
    5  A    between atoms: N_10  and  C_21
    6  A    between atoms: C_13  and  N_18
    7  A    between atoms: C_13  and  C_21
    8  A    between atoms: C_21  and  C_33
    9  A    between atoms: C_30  and  C_33
                            x       y       z     vdW  Elec       q    Type
                         _______ _______ _______ _____ _____    ______ ____

>  <TORSDO>
F 9

$$$$
=
 OpenBabel10222421323D

 34 35  0  0  1  0  0  0  0  0999 V2000
  184.1330  178.9870  144.0780 C   0  0  1  0  0  3  0  0  0  0  0  0
  185.8190  177.7620  144.9480 C   0  0  0  0  0  0  0  0  0  0  0  0
  186.0070  177.5540  143.4880 C   0  0  1  0  0  3  0  0  0  0  0  0
  189.0980  176.9140  146.1370 O   0  0  0  0  0  0  0  0  0  0  0  0
  184.0760  180.5030  144.0760 C   0  0  0  0  0  1  0  0  0  0  0  0
  184.9880  178.5030  142.9510 C   0  0  0  0  0  0  0  0  0  0  0  0
  188.4570  177.6050  143.9470 C   0  0  0  0  0  0  0  0  0  0  0  0
  190.1410  177.7400  143.4400 Cl  0  0  0  0  0  0  0  0  0  0  0  0
  184.8330  178.5300  145.2680 N   0  0  0  0  0  0  0  0  0  0  0  0
  187.7360  178.1570  141.6510 C   0  0  0  0  0  1  0  0  0  0  0  0
  187.4430  177.8370  143.0820 C   0  0  0  0  0  0  0  0  0  0  0  0
  184.5070  178.3730  141.7440 C   0  0  0  0  0  0  0  0  0  0  0  0
  186.8440  177.4250  145.8750 N   0  0  0  0  0  2  0  0  0  0  0  0
  188.1720  177.2750  145.3660 C   0  0  0  0  0  0  0  0  0  0  0  0
  184.0160  178.2400  140.5410 C   0  0  0  0  0  0  0  0  0  0  0  0
  183.2890  176.2410  139.4700 O   0  0  0  0  0  0  0  0  0  0  0  0
  183.0110  177.1850  140.2570 C   0  0  0  0  0  0  0  0  0  0  0  0
  181.6570  177.2030  140.8910 C   0  0  0  0  0  2  0  0  0  0  0  0
  181.0010  178.4730  140.6270 N   0  0  0  0  0  2  0  0  0  0  0  0
  180.7940  179.0250  142.8850 O   0  0  0  0  0  0  0  0  0  0  0  0
  180.6180  179.3580  141.6810 C   0  0  0  0  0  0  0  0  0  0  0  0
  180.0460  180.5890  141.3620 O   0  0  0  0  0  0  0  0  0  0  0  0
  180.0110  181.0760  140.0300 C   0  0  0  0  0  1  0  0  0  0  0  0
  184.4780  179.2130  139.4880 C   0  0  2  0  0  3  0  0  0  0  0  0
  183.1600  181.2190  138.9240 O   0  0  0  0  0  0  0  0  0  0  0  0
  183.3400  179.8570  138.8420 N   0  0  0  0  0  0  0  0  0  0  0  0
  182.6000  179.1850  138.0940 O   0  0  0  0  0  0  0  0  0  0  0  0
  185.4460  178.6030  138.4680 C   0  0  2  0  0  3  0  0  0  0  0  0
  184.8140  177.4030  137.7780 C   0  0  0  0  0  1  0  0  0  0  0  0
  186.6700  178.1810  139.1360 N   0  0  0  0  0  2  0  0  0  0  0  0
  188.5110  176.9950  137.6450 O   0  0  0  0  0  0  0  0  0  0  0  0
  187.9780  178.3510  138.0120 S   0  0  0  0  0  0  0  0  0  0  0  0
  187.4340  179.1630  136.5850 N   0  0  0  0  0  1  0  0  0  0  0  0
  189.0740  179.1570  138.6510 O   0  0  0  0  0  0  0  0  0  0  0  0
  1  5  1  1  0  0  0
  1  9  1  0  0  0  0
  2  9  2  0  0  0  0
  2 13  1  0  0  0  0
  3  6  1  6  0  0  0
  3  2  1  0  0  0  0
  6  1  1  0  0  0  0
  7 14  1  0  0  0  0
  8  7  1  0  0  0  0
 10 11  1  0  0  0  0
 11  3  1  0  0  0  0
 11  7  2  0  0  0  0
 12  6  2  0  0  0  0
 14 13  1  0  0  0  0
 14  4  2  0  0  0  0
 15 12  2  0  0  0  0
 16 17  2  0  0  0  0
 17 15  1  0  0  0  0
 17 18  1  0  0  0  0
 19 18  1  0  0  0  0
 19 21  1  0  0  0  0
 21 20  2  0  0  0  0
 22 21  1  0  0  0  0
 23 22  1  0  0  0  0
 24 15  1  1  0  0  0
 26 25  2  0  0  0  0
 26 24  1  0  0  0  0
 27 26  2  0  0  0  0
 28 29  1  1  0  0  0
 28 30  1  0  0  0  0
 28 24  1  0  0  0  0
 31 32  2  0  0  0  0
 32 34  2  0  0  0  0
 32 30  1  0  0  0  0
 33 32  1  0  0  0  0
M  END
>  <MODEL>
6

>  <REMARK>
 VINA RESULT:      -5.0      3.183      6.661
  Name = 
  9 active torsions:
  status: ('A' for Active; 'I' for Inactive)
    1  A    between atoms: O_1  and  C_34
    2  A    between atoms: N_3  and  C_5
    3  A    between atoms: S_4  and  N_18
    4  A    between atoms: C_5  and  C_30
    5  A    between atoms: N_10  and  C_21
    6  A    between atoms: C_13  and  N_18
    7  A    between atoms: C_13  and  C_21
    8  A    between atoms: C_21  and  C_33
    9  A    between atoms: C_30  and  C_33
                            x       y       z     vdW  Elec       q    Type
                         _______ _______ _______ _____ _____    ______ ____

>  <TORSDO>
F 9

$$$$
=
 OpenBabel10222421323D

 34 35  0  0  1  0  0  0  0  0999 V2000
  194.3340  176.2730  136.1480 C   0  0  1  0  0  3  0  0  0  0  0  0
  195.4100  174.4080  136.8290 C   0  0  0  0  0  0  0  0  0  0  0  0
  193.9840  174.0070  136.9570 C   0  0  1  0  0  3  0  0  0  0  0  0
  196.9670  171.1770  136.6840 O   0  0  0  0  0  0  0  0  0  0  0  0
  194.2930  176.7740  134.7160 C   0  0  0  0  0  1  0  0  0  0  0  0
  193.3180  175.1940  136.3460 C   0  0  0  0  0  0  0  0  0  0  0  0
  194.7060  171.7470  136.1890 C   0  0  0  0  0  0  0  0  0  0  0  0
  194.3820  170.1320  135.5580 Cl  0  0  0  0  0  0  0  0  0  0  0  0
  195.6030  175.6050  136.3900 N   0  0  0  0  0  0  0  0  0  0  0  0
  192.3330  172.3400  135.8500 C   0  0  0  0  0  1  0  0  0  0  0  0
  193.7310  172.6820  136.2580 C   0  0  0  0  0  0  0  0  0  0  0  0
  192.0700  175.4790  136.5990 C   0  0  0  0  0  0  0  0  0  0  0  0
  196.4510  173.4380  136.8590 N   0  0  0  0  0  2  0  0  0  0  0  0
  196.0920  172.0770  136.6050 C   0  0  0  0  0  0  0  0  0  0  0  0
  190.8230  175.7730  136.8580 C   0  0  0  0  0  0  0  0  0  0  0  0
  190.5850  175.7270  139.2270 O   0  0  0  0  0  0  0  0  0  0  0  0
  190.4550  176.3840  138.1600 C   0  0  0  0  0  0  0  0  0  0  0  0
  189.9300  177.7820  138.2470 C   0  0  0  0  0  2  0  0  0  0  0  0
  189.6220  178.1110  139.6300 N   0  0  0  0  0  2  0  0  0  0  0  0
  187.3480  178.4310  139.2200 O   0  0  0  0  0  0  0  0  0  0  0  0
  188.2910  178.4020  140.0570 C   0  0  0  0  0  0  0  0  0  0  0  0
  188.0490  178.6530  141.4070 O   0  0  0  0  0  0  0  0  0  0  0  0
  188.8210  178.0470  142.4320 C   0  0  0  0  0  1  0  0  0  0  0  0
  189.8050  175.5050  135.7810 C   0  0  2  0  0  3  0  0  0  0  0  0
  188.2230  177.3620  135.4310 O   0  0  0  0  0  0  0  0  0  0  0  0
  189.4120  176.7440  135.1190 N   0  0  0  0  0  0  0  0  0  0  0  0
  190.2230  177.3200  134.3650 O   0  0  0  0  0  0  0  0  0  0  0  0
  188.5920  174.7030  136.2650 C   0  0  2  0  0  3  0  0  0  0  0  0
  189.0360  173.4250  136.9620 C   0  0  0  0  0  1  0  0  0  0  0  0
  187.7390  174.3610  135.1350 N   0  0  0  0  0  2  0  0  0  0  0  0
  185.1860  174.8320  134.6020 O   0  0  0  0  0  0  0  0  0  0  0  0
  186.0970  174.3400  135.6910 S   0  0  0  0  0  0  0  0  0  0  0  0
  185.6430  172.7340  136.1420 N   0  0  0  0  0  1  0  0  0  0  0  0
  185.9720  175.2430  136.8850 O   0  0  0  0  0  0  0  0  0  0  0  0
  1  5  1  6  0  0  0
  1  6  1  0  0  0  0
  1  9  1  0  0  0  0
  2 13  1  0  0  0  0
  2  3  1  0  0  0  0
  3 11  1  6  0  0  0
  6 12  2  0  0  0  0
  6  3  1  0  0  0  0
  7 11  2  0  0  0  0
  7 14  1  0  0  0  0
  8  7  1  0  0  0  0
  9  2  2  0  0  0  0
 10 11  1  0  0  0  0
 12 15  2  0  0  0  0
 14  4  2  0  0  0  0
 14 13  1  0  0  0  0
 15 17  1  0  0  0  0
 17 18  1  0  0  0  0
 17 16  2  0  0  0  0
 18 19  1  0  0  0  0
 19 21  1  0  0  0  0
 20 21  2  0  0  0  0
 21 22  1  0  0  0  0
 22 23  1  0  0  0  0
 24 28  1  0  0  0  0
 24 15  1  1  0  0  0
 26 25  2  0  0  0  0
 26 24  1  0  0  0  0
 27 26  2  0  0  0  0
 28 29  1  6  0  0  0
 30 32  1  0  0  0  0
 30 28  1  0  0  0  0
 31 32  2  0  0  0  0
 32 33  1  0  0  0  0
 32 34  2  0  0  0  0
M  END
>  <MODEL>
7

>  <REMARK>
 VINA RESULT:      -5.0      5.623      8.890
  Name = 
  9 active torsions:
  status: ('A' for Active; 'I' for Inactive)
    1  A    between atoms: O_1  and  C_34
    2  A    between atoms: N_3  and  C_5
    3  A    between atoms: S_4  and  N_18
    4  A    between atoms: C_5  and  C_30
    5  A    between atoms: N_10  and  C_21
    6  A    between atoms: C_13  and  N_18
    7  A    between atoms: C_13  and  C_21
    8  A    between atoms: C_21  and  C_33
    9  A    between atoms: C_30  and  C_33
                            x       y       z     vdW  Elec       q    Type
                         _______ _______ _______ _____ _____    ______ ____

>  <TORSDO>
F 9

$$$$
=
 OpenBabel10222421323D

 34 35  0  0  1  0  0  0  0  0999 V2000
  185.0530  177.7100  137.5860 C   0  0  1  0  0  3  0  0  0  0  0  0
  186.5670  178.4710  139.0800 C   0  0  0  0  0  0  0  0  0  0  0  0
  185.2830  178.8930  139.6980 C   0  0  1  0  0  3  0  0  0  0  0  0
  188.7120  178.5470  141.9560 O   0  0  0  0  0  0  0  0  0  0  0  0
  184.7170  176.2470  137.3640 C   0  0  0  0  0  1  0  0  0  0  0  0
  184.3130  178.2330  138.7760 C   0  0  0  0  0  0  0  0  0  0  0  0
  186.3360  178.3600  141.8940 C   0  0  0  0  0  0  0  0  0  0  0  0
  186.2640  178.0380  143.6270 Cl  0  0  0  0  0  0  0  0  0  0  0  0
  186.4520  177.8330  137.9640 N   0  0  0  0  0  0  0  0  0  0  0  0
  183.8690  178.3390  141.8010 C   0  0  0  0  0  1  0  0  0  0  0  0
  185.2100  178.4510  141.1490 C   0  0  0  0  0  0  0  0  0  0  0  0
  183.0790  178.6460  138.6760 C   0  0  0  0  0  0  0  0  0  0  0  0
  187.7770  178.4690  139.8290 N   0  0  0  0  0  2  0  0  0  0  0  0
  187.6700  178.4840  141.2550 C   0  0  0  0  0  0  0  0  0  0  0  0
  181.8450  179.0650  138.5670 C   0  0  0  0  0  0  0  0  0  0  0  0
  181.1720  180.2370  136.6070 O   0  0  0  0  0  0  0  0  0  0  0  0
  181.5410  180.3040  137.8090 C   0  0  0  0  0  0  0  0  0  0  0  0
  181.6550  181.6550  138.4410 C   0  0  0  0  0  2  0  0  0  0  0  0
  180.8770  182.6240  137.6870 N   0  0  0  0  0  2  0  0  0  0  0  0
  182.5470  184.2520  137.7370 O   0  0  0  0  0  0  0  0  0  0  0  0
  181.4000  183.9070  137.3410 C   0  0  0  0  0  0  0  0  0  0  0  0
  180.6280  184.7710  136.5650 O   0  0  0  0  0  0  0  0  0  0  0  0
  180.7180  184.7880  135.1490 C   0  0  0  0  0  1  0  0  0  0  0  0
  180.7670  178.2250  139.1990 C   0  0  2  0  0  3  0  0  0  0  0  0
  180.8140  179.7630  141.1240 O   0  0  0  0  0  0  0  0  0  0  0  0
  180.6780  178.4860  140.6310 N   0  0  0  0  0  0  0  0  0  0  0  0
  180.3380  177.5650  141.4010 O   0  0  0  0  0  0  0  0  0  0  0  0
  180.8950  176.7270  138.8960 C   0  0  2  0  0  3  0  0  0  0  0  0
  182.1030  176.1370  139.6100 C   0  0  0  0  0  1  0  0  0  0  0  0
  181.0400  176.5210  137.4610 N   0  0  0  0  0  2  0  0  0  0  0  0
  179.9840  174.6900  135.8620 O   0  0  0  0  0  0  0  0  0  0  0  0
  180.7720  174.8400  137.1340 S   0  0  0  0  0  0  0  0  0  0  0  0
  182.2850  174.0180  136.9760 N   0  0  0  0  0  1  0  0  0  0  0  0
  179.9970  174.2350  138.2700 O   0  0  0  0  0  0  0  0  0  0  0  0
  1  5  1  1  0  0  0
  1  9  1  0  0  0  0
  1  6  1  0  0  0  0
  2  3  1  0  0  0  0
  2 13  1  0  0  0  0
  3  6  1  6  0  0  0
  3 11  1  0  0  0  0
  7  8  1  0  0  0  0
  9  2  2  0  0  0  0
 11 10  1  0  0  0  0
 11  7  2  0  0  0  0
 12  6  2  0  0  0  0
 13 14  1  0  0  0  0
 14  7  1  0  0  0  0
 14  4  2  0  0  0  0
 15 12  2  0  0  0  0
 16 17  2  0  0  0  0
 17 18  1  0  0  0  0
 17 15  1  0  0  0  0
 19 18  1  0  0  0  0
 21 19  1  0  0  0  0
 21 20  2  0  0  0  0
 22 21  1  0  0  0  0
 23 22  1  0  0  0  0
 24 15  1  1  0  0  0
 24 26  1  0  0  0  0
 26 25  2  0  0  0  0
 26 27  2  0  0  0  0
 28 24  1  0  0  0  0
 28 29  1  1  0  0  0
 30 28  1  0  0  0  0
 31 32  2  0  0  0  0
 32 30  1  0  0  0  0
 32 34  2  0  0  0  0
 33 32  1  0  0  0  0
M  END
>  <MODEL>
8

>  <REMARK>
 VINA RESULT:      -4.9      3.486      5.050
  Name = 
  9 active torsions:
  status: ('A' for Active; 'I' for Inactive)
    1  A    between atoms: O_1  and  C_34
    2  A    between atoms: N_3  and  C_5
    3  A    between atoms: S_4  and  N_18
    4  A    between atoms: C_5  and  C_30
    5  A    between atoms: N_10  and  C_21
    6  A    between atoms: C_13  and  N_18
    7  A    between atoms: C_13  and  C_21
    8  A    between atoms: C_21  and  C_33
    9  A    between atoms: C_30  and  C_33
                            x       y       z     vdW  Elec       q    Type
                         _______ _______ _______ _____ _____    ______ ____

>  <TORSDO>
F 9

$$$$
=
 OpenBabel10222421323D

 34 35  0  0  1  0  0  0  0  0999 V2000
  184.2140  178.9030  144.0170 C   0  0  1  0  0  3  0  0  0  0  0  0
  186.0390  177.7010  144.5920 C   0  0  0  0  0  0  0  0  0  0  0  0
  186.0320  177.5640  143.1120 C   0  0  1  0  0  3  0  0  0  0  0  0
  189.4720  176.9180  145.2850 O   0  0  0  0  0  0  0  0  0  0  0  0
  184.1140  180.4150  144.0960 C   0  0  0  0  0  1  0  0  0  0  0  0
  184.9220  178.4990  142.7630 C   0  0  0  0  0  0  0  0  0  0  0  0
  188.5190  177.6810  143.2380 C   0  0  0  0  0  0  0  0  0  0  0  0
  190.1140  177.8970  142.5150 Cl  0  0  0  0  0  0  0  0  0  0  0  0
  185.0840  178.4190  145.0780 N   0  0  0  0  0  0  0  0  0  0  0  0
  187.4760  178.3070  141.0900 C   0  0  0  0  0  1  0  0  0  0  0  0
  187.3900  177.9150  142.5300 C   0  0  0  0  0  0  0  0  0  0  0  0
  184.2850  178.4050  141.6280 C   0  0  0  0  0  0  0  0  0  0  0  0
  187.1900  177.3600  145.3550 N   0  0  0  0  0  2  0  0  0  0  0  0
  188.4390  177.2790  144.6640 C   0  0  0  0  0  0  0  0  0  0  0  0
  183.6380  178.3080  140.4960 C   0  0  0  0  0  0  0  0  0  0  0  0
  181.4590  177.3760  140.7260 O   0  0  0  0  0  0  0  0  0  0  0  0
  182.6350  177.2310  140.2990 C   0  0  0  0  0  0  0  0  0  0  0  0
  182.9810  175.9600  139.5930 C   0  0  0  0  0  2  0  0  0  0  0  0
  181.7980  175.4090  138.9520 N   0  0  0  0  0  2  0  0  0  0  0  0
  182.9780  174.5580  137.1280 O   0  0  0  0  0  0  0  0  0  0  0  0
  181.8720  174.6880  137.7220 C   0  0  0  0  0  0  0  0  0  0  0  0
  180.7100  174.1330  137.1860 O   0  0  0  0  0  0  0  0  0  0  0  0
  180.0930  172.9910  137.7580 C   0  0  0  0  0  1  0  0  0  0  0  0
  183.9240  179.3420  139.4390 C   0  0  2  0  0  3  0  0  0  0  0  0
  181.5260  179.8580  139.6850 O   0  0  0  0  0  0  0  0  0  0  0  0
  182.7810  180.2300  139.2600 N   0  0  0  0  0  0  0  0  0  0  0  0
  182.9680  181.3920  138.8440 O   0  0  0  0  0  0  0  0  0  0  0  0
  184.4010  178.7470  138.1090 C   0  0  2  0  0  3  0  0  0  0  0  0
  183.2180  178.2700  137.2790 C   0  0  0  0  0  1  0  0  0  0  0  0
  185.2950  177.6250  138.3590 N   0  0  0  0  0  2  0  0  0  0  0  0
  187.7170  176.7920  137.6780 O   0  0  0  0  0  0  0  0  0  0  0  0
  186.6420  177.7630  137.2770 S   0  0  0  0  0  0  0  0  0  0  0  0
  186.1390  177.4300  135.6570 N   0  0  0  0  0  1  0  0  0  0  0  0
  187.1870  179.1610  137.3470 O   0  0  0  0  0  0  0  0  0  0  0  0
  1  5  1  6  0  0  0
  1  9  1  0  0  0  0
  2  9  2  0  0  0  0
  2 13  1  0  0  0  0
  3 11  1  6  0  0  0
  3  2  1  0  0  0  0
  6  3  1  0  0  0  0
  6  1  1  0  0  0  0
  7 14  1  0  0  0  0
  8  7  1  0  0  0  0
 10 11  1  0  0  0  0
 11  7  2  0  0  0  0
 12  6  2  0  0  0  0
 14  4  2  0  0  0  0
 14 13  1  0  0  0  0
 15 12  2  0  0  0  0
 17 15  1  0  0  0  0
 17 16  2  0  0  0  0
 18 17  1  0  0  0  0
 19 18  1  0  0  0  0
 20 21  2  0  0  0  0
 21 19  1  0  0  0  0
 22 21  1  0  0  0  0
 22 23  1  0  0  0  0
 24 15  1  1  0  0  0
 26 24  1  0  0  0  0
 26 25  2  0  0  0  0
 27 26  2  0  0  0  0
 28 29  1  6  0  0  0
 28 30  1  0  0  0  0
 28 24  1  0  0  0  0
 32 34  2  0  0  0  0
 32 31  2  0  0  0  0
 32 30  1  0  0  0  0
 33 32  1  0  0  0  0
M  END
>  <MODEL>
9

>  <REMARK>
 VINA RESULT:      -4.8      3.381      6.979
  Name = 
  9 active torsions:
  status: ('A' for Active; 'I' for Inactive)
    1  A    between atoms: O_1  and  C_34
    2  A    between atoms: N_3  and  C_5
    3  A    between atoms: S_4  and  N_18
    4  A    between atoms: C_5  and  C_30
    5  A    between atoms: N_10  and  C_21
    6  A    between atoms: C_13  and  N_18
    7  A    between atoms: C_13  and  C_21
    8  A    between atoms: C_21  and  C_33
    9  A    between atoms: C_30  and  C_33
                            x       y       z     vdW  Elec       q    Type
                         _______ _______ _______ _____ _____    ______ ____

>  <TORSDO>
F 9

$$$$
