=
 OpenBabel10232409513D

 59 62  0  0  1  0  0  0  0  0999 V2000
  186.9960  178.1830  146.4590 C   0  0  0  0  0  2  0  0  0  0  0  0
  189.4590  177.5710  146.3860 C   0  0  0  0  0  0  0  0  0  0  0  0
  188.3140  178.2670  144.3570 C   0  0  0  0  0  3  0  0  0  0  0  0
  188.2890  178.0090  145.7290 C   0  0  0  0  0  0  0  0  0  0  0  0
  190.6440  177.3840  145.6510 C   0  0  0  0  0  0  0  0  0  0  0  0
  189.4510  177.2930  147.8570 C   0  0  0  0  0  1  0  0  0  0  0  0
  189.4860  178.0710  143.6200 C   0  0  0  0  0  0  0  0  0  0  0  0
  190.6450  177.6320  144.2680 C   0  0  0  0  0  3  0  0  0  0  0  0
  189.5160  178.3180  142.1480 C   0  0  0  0  0  2  0  0  0  0  0  0
  189.0140  177.0940  141.3970 C   0  0  0  0  0  2  0  0  0  0  0  0
  190.3220  176.3760  139.3750 C   0  0  0  0  0  0  0  0  0  0  0  0
  189.5170  176.9890  138.6210 O   0  0  0  0  0  0  0  0  0  0  0  0
  190.1280  176.3830  140.7960 N   0  0  0  0  0  2  0  0  0  0  0  0
  191.4160  175.7190  138.8080 O   0  0  0  0  0  0  0  0  0  0  0  0
  192.8470  175.2650  135.3680 C   0  0  2  0  0  0  0  0  0  0  0  0
  192.7620  176.3450  134.3720 C   0  0  0  0  0  2  0  0  0  0  0  0
  191.7820  173.1380  136.1740 C   0  0  0  0  0  2  0  0  0  0  0  0
  190.9590  173.9640  137.1800 C   0  0  1  0  0  3  0  0  0  0  0  0
  193.9660  175.6450  134.6100 O   0  0  0  0  0  0  0  0  0  0  0  0
  192.2100  173.9460  134.9450 C   0  0  0  0  0  2  0  0  0  0  0  0
  192.8540  175.7090  136.8270 C   0  0  1  0  0  3  0  0  0  0  0  0
  191.4730  175.4010  137.4220 C   0  0  2  0  0  3  0  0  0  0  0  0
  195.2000  175.5690  137.2620 O   0  0  0  0  0  1  0  0  0  0  0  0
  193.9670  175.0120  137.6010 C   0  0  0  0  0  2  0  0  0  0  0  0
  189.4770  173.9660  136.8250 C   0  0  0  0  0  2  0  0  0  0  0  0
  189.1810  175.0050  135.9380 O   0  0  0  0  0  1  0  0  0  0  0  0
  191.8050  176.9510  146.3070 O   0  0  0  0  0  0  0  0  0  0  0  0
  192.1970  175.5840  146.3810 C   0  0  0  0  0  2  0  0  0  0  0  0
  192.6190  173.5330  145.0590 C   0  0  0  0  0  1  0  0  0  0  0  0
  191.9690  174.9020  145.0440 C   0  0  0  0  0  2  0  0  0  0  0  0
  185.9180  177.2970  145.8650 C   0  0  0  0  0  2  0  0  0  0  0  0
  185.4660  177.8670  144.6090 N   0  0  0  0  0  2  0  0  0  0  0  0
  184.1840  178.3830  144.8320 N   0  0  0  0  0  2  0  0  0  0  0  0
  183.9690  179.4190  143.8340 C   0  0  0  0  0  2  0  0  0  0  0  0
  182.7370  179.1550  143.1000 N   0  0  0  0  0  0  0  0  0  0  0  0
  182.6830  178.8280  141.8430 C   0  0  0  0  0  0  0  0  0  0  0  0
  184.9270  178.0780  141.4840 N   0  0  0  0  0  2  0  0  0  0  0  0
  183.8320  179.0720  139.6380 N   0  0  0  0  0  2  0  0  0  0  0  0
  183.9020  178.7140  141.0200 C   0  0  0  0  0  0  0  0  0  0  0  0
  184.8970  178.7780  138.6910 C   0  0  0  0  0  2  0  0  0  0  0  0
  184.5210  177.5420  137.8910 C   0  0  0  0  0  2  0  0  0  0  0  0
  185.6830  177.0570  137.0320 C   0  0  2  0  0  3  0  0  0  0  0  0
  186.7410  177.9680  137.0880 O   0  0  0  0  0  1  0  0  0  0  0  0
  185.2780  176.8630  135.7070 O   0  0  0  0  0  0  0  0  0  0  0  0
  185.9190  175.6870  135.3060 C   0  0  0  0  0  2  0  0  0  0  0  0
  185.2240  174.4930  135.9310 C   0  0  0  0  0  2  0  0  0  0  0  0
  183.8130  174.3810  135.3820 C   0  0  0  0  0  2  0  0  0  0  0  0
  182.9640  173.4810  136.2710 C   0  0  1  0  0  3  0  0  0  0  0  0
  183.7180  173.0410  137.3590 O   0  0  0  0  0  1  0  0  0  0  0  0
  181.7520  174.2420  136.7780 C   0  0  0  0  0  2  0  0  0  0  0  0
  182.1270  175.1260  137.7900 O   0  0  0  0  0  0  0  0  0  0  0  0
  181.0900  175.9940  137.8860 N   0  0  0  0  0  1  0  0  0  0  0  0
  181.3670  178.6490  141.2090 C   0  0  0  0  0  0  0  0  0  0  0  0
  180.7030  177.5980  141.4240 O   0  0  0  0  0  0  0  0  0  0  0  0
  180.8640  179.6420  140.3640 O   0  0  0  0  0  0  0  0  0  0  0  0
  180.6510  179.4020  138.9810 C   0  0  0  0  0  2  0  0  0  0  0  0
  180.8810  181.1670  137.2700 C   0  0  0  0  0  2  0  0  0  0  0  0
  180.8410  181.8320  138.6300 C   0  0  0  0  0  2  0  0  0  0  0  0
  179.9860  180.6130  138.3580 C   0  0  0  0  0  3  0  0  0  0  0  0
  2  6  1  0  0  0  0
  3  4  2  0  0  0  0
  4  2  1  0  0  0  0
  4  1  1  0  0  0  0
  5 27  1  0  0  0  0
  5  2  2  0  0  0  0
  7  8  2  0  0  0  0
  7  3  1  0  0  0  0
  8  5  1  0  0  0  0
  9  7  1  0  0  0  0
 10  9  1  0  0  0  0
 11 13  1  0  0  0  0
 12 11  2  0  0  0  0
 13 10  1  0  0  0  0
 14 11  1  0  0  0  0
 15 16  1  6  0  0  0
 15 21  1  0  0  0  0
 16 19  1  0  0  0  0
 17 18  1  0  0  0  0
 18 25  1  6  0  0  0
 18 22  1  0  0  0  0
 19 15  1  0  0  0  0
 20 15  1  0  0  0  0
 20 17  1  0  0  0  0
 21 22  1  0  0  0  0
 21 24  1  1  0  0  0
 22 14  1  1  0  0  0
 23 24  1  0  0  0  0
 26 25  1  0  0  0  0
 27 28  1  0  0  0  0
 30 29  1  0  0  0  0
 30 28  1  0  0  0  0
 31  1  1  0  0  0  0
 32 33  1  0  0  0  0
 32 31  1  0  0  0  0
 34 33  1  0  0  0  0
 35 34  1  0  0  0  0
 36 35  2  0  0  0  0
 38 39  1  0  0  0  0
 39 37  2  0  0  0  0
 39 36  1  0  0  0  0
 40 38  1  0  0  0  0
 41 40  1  0  0  0  0
 42 43  1  6  0  0  0
 42 41  1  0  0  0  0
 44 42  1  0  0  0  0
 45 44  1  0  0  0  0
 45 46  1  0  0  0  0
 47 46  1  0  0  0  0
 47 48  1  0  0  0  0
 48 50  1  0  0  0  0
 48 49  1  1  0  0  0
 50 51  1  0  0  0  0
 51 52  1  0  0  0  0
 53 54  2  0  0  0  0
 53 36  1  0  0  0  0
 55 53  1  0  0  0  0
 56 55  1  0  0  0  0
 57 59  1  0  0  0  0
 57 58  1  0  0  0  0
 59 58  1  0  0  0  0
 59 56  1  0  0  0  0
M  END
>  <MODEL>
1

>  <REMARK>
 VINA RESULT:      -5.1      0.000      0.000
  Name = 
  31 active torsions:
  status: ('A' for Active; 'I' for Inactive)
    1  A    between atoms: O_2  and  C_19
    2  A    between atoms: O_2  and  C_21
    3  A    between atoms: C_3  and  C_10
    4  A    between atoms: C_3  and  C_41
    5  A    between atoms: C_5  and  C_30
    6  A    between atoms: C_5  and  O_37
    7  A    between atoms: C_9  and  C_12
    8  A    between atoms: C_9  and  C_52
    9  A    between atoms: C_10  and  N_27
   10  A    between atoms: C_13  and  C_53
   11  A    between atoms: C_13  and  O_55
   12  A    between atoms: C_14  and  C_16
   13  A    between atoms: C_14  and  N_59
   14  A    between atoms: C_15  and  C_18
   15  A    between atoms: C_16  and  C_29
   16  A    between atoms: C_17  and  N_32
   17  A    between atoms: C_17  and  N_49
   18  A    between atoms: C_19  and  C_54
   19  A    between atoms: C_20  and  C_30
   20  A    between atoms: C_20  and  C_53
   21  A    between atoms: C_24  and  O_34
   22  A    between atoms: C_26  and  C_48
   23  A    between atoms: C_28  and  O_50
   24  A    between atoms: C_28  and  C_56
   25  A    between atoms: C_31  and  C_33
   26  A    between atoms: C_31  and  O_50
   27  A    between atoms: C_33  and  C_51
   28  A    between atoms: O_34  and  C_58
   29  A    between atoms: C_41  and  O_55
   30  A    between atoms: N_46  and  N_49
   31  A    between atoms: N_46  and  C_52
                            x       y       z     vdW  Elec       q    Type
                         _______ _______ _______ _____ _____    ______ ____

>  <TORSDO>
F 31

$$$$
=
 OpenBabel10232409513D

 59 62  0  0  1  0  0  0  0  0999 V2000
  187.6250  177.9100  142.2330 C   0  0  0  0  0  2  0  0  0  0  0  0
  185.6740  178.7180  140.8240 C   0  0  0  0  0  0  0  0  0  0  0  0
  187.8000  178.1830  139.7710 C   0  0  0  0  0  3  0  0  0  0  0  0
  187.0100  178.2710  140.9190 C   0  0  0  0  0  0  0  0  0  0  0  0
  185.1490  179.0850  139.5710 C   0  0  0  0  0  0  0  0  0  0  0  0
  184.8120  178.8170  142.0440 C   0  0  0  0  0  1  0  0  0  0  0  0
  187.2850  178.5580  138.5260 C   0  0  0  0  0  0  0  0  0  0  0  0
  185.9640  179.0060  138.4300 C   0  0  0  0  0  3  0  0  0  0  0  0
  188.1310  178.4920  137.2970 C   0  0  0  0  0  2  0  0  0  0  0  0
  188.7580  177.1130  137.1610 C   0  0  0  0  0  2  0  0  0  0  0  0
  188.2170  174.9090  136.0850 C   0  0  0  0  0  0  0  0  0  0  0  0
  189.0200  174.3190  136.8580 O   0  0  0  0  0  0  0  0  0  0  0  0
  188.0350  176.3280  136.1780 N   0  0  0  0  0  2  0  0  0  0  0  0
  187.4900  174.1560  135.1590 O   0  0  0  0  0  0  0  0  0  0  0  0
  184.8630  171.5310  135.7020 C   0  0  2  0  0  0  0  0  0  0  0  0
  183.9440  171.1540  134.6160 C   0  0  0  0  0  2  0  0  0  0  0  0
  185.1300  172.9560  137.7520 C   0  0  0  0  0  2  0  0  0  0  0  0
  185.7620  174.0520  136.8740 C   0  0  1  0  0  3  0  0  0  0  0  0
  184.6100  170.1840  135.3980 O   0  0  0  0  0  0  0  0  0  0  0  0
  184.1880  172.0340  136.9720 C   0  0  0  0  0  2  0  0  0  0  0  0
  186.2230  172.0640  135.2620 C   0  0  1  0  0  3  0  0  0  0  0  0
  186.2260  173.5840  135.4760 C   0  0  2  0  0  3  0  0  0  0  0  0
  188.4690  171.2480  135.2200 O   0  0  0  0  0  1  0  0  0  0  0  0
  187.3470  171.3860  136.0370 C   0  0  0  0  0  2  0  0  0  0  0  0
  184.8590  175.2760  136.7690 C   0  0  0  0  0  2  0  0  0  0  0  0
  184.6150  175.5980  135.4310 O   0  0  0  0  0  1  0  0  0  0  0  0
  183.8210  179.5260  139.4790 O   0  0  0  0  0  0  0  0  0  0  0  0
  182.7440  178.6850  139.0760 C   0  0  0  0  0  2  0  0  0  0  0  0
  180.9920  178.3250  140.7880 C   0  0  0  0  0  1  0  0  0  0  0  0
  181.4340  179.2070  139.6380 C   0  0  0  0  0  2  0  0  0  0  0  0
  188.6240  178.9650  142.6690 C   0  0  0  0  0  2  0  0  0  0  0  0
  189.3310  178.5000  143.8480 N   0  0  0  0  0  2  0  0  0  0  0  0
  190.3530  179.4220  144.1020 N   0  0  0  0  0  2  0  0  0  0  0  0
  191.6070  178.7580  143.7780 C   0  0  0  0  0  2  0  0  0  0  0  0
  191.5810  178.2930  142.3970 N   0  0  0  0  0  0  0  0  0  0  0  0
  191.3680  177.0620  142.0370 C   0  0  0  0  0  0  0  0  0  0  0  0
  190.1490  175.1870  142.8900 N   0  0  0  0  0  2  0  0  0  0  0  0
  192.1910  175.7020  143.9660 N   0  0  0  0  0  2  0  0  0  0  0  0
  191.1500  175.9920  143.0300 C   0  0  0  0  0  0  0  0  0  0  0  0
  192.1780  174.5270  144.8240 C   0  0  0  0  0  2  0  0  0  0  0  0
  191.5300  174.8900  146.1500 C   0  0  0  0  0  2  0  0  0  0  0  0
  192.3310  175.9560  146.8890 C   0  0  2  0  0  3  0  0  0  0  0  0
  192.7200  175.4850  148.1460 O   0  0  0  0  0  1  0  0  0  0  0  0
  191.5900  177.1350  147.0200 O   0  0  0  0  0  0  0  0  0  0  0  0
  190.2710  176.7100  147.2020 C   0  0  0  0  0  2  0  0  0  0  0  0
  189.3710  177.9170  147.3890 C   0  0  0  0  0  2  0  0  0  0  0  0
  187.9540  177.4540  147.6810 C   0  0  0  0  0  2  0  0  0  0  0  0
  187.0110  177.8880  146.5660 C   0  0  1  0  0  3  0  0  0  0  0  0
  187.0530  176.9640  145.5210 O   0  0  0  0  0  1  0  0  0  0  0  0
  185.5900  177.9830  147.0920 C   0  0  0  0  0  2  0  0  0  0  0  0
  185.0960  179.2750  146.9160 O   0  0  0  0  0  0  0  0  0  0  0  0
  184.7730  179.3410  145.6020 N   0  0  0  0  0  1  0  0  0  0  0  0
  191.4310  176.7150  140.6090 C   0  0  0  0  0  0  0  0  0  0  0  0
  190.4450  176.1560  140.0540 O   0  0  0  0  0  0  0  0  0  0  0  0
  192.5870  176.9990  139.8760 O   0  0  0  0  0  0  0  0  0  0  0  0
  192.6290  176.8430  138.4660 C   0  0  0  0  0  2  0  0  0  0  0  0
  194.0120  175.7040  136.7680 C   0  0  0  0  0  2  0  0  0  0  0  0
  192.7100  174.9420  136.9020 C   0  0  0  0  0  2  0  0  0  0  0  0
  193.3560  175.5570  138.1250 C   0  0  0  0  0  3  0  0  0  0  0  0
  1 31  1  0  0  0  0
  2  4  1  0  0  0  0
  2  6  1  0  0  0  0
  3  4  2  0  0  0  0
  4  1  1  0  0  0  0
  5  2  2  0  0  0  0
  7  3  1  0  0  0  0
  8  7  2  0  0  0  0
  8  5  1  0  0  0  0
  9  7  1  0  0  0  0
 10  9  1  0  0  0  0
 11 13  1  0  0  0  0
 11 12  2  0  0  0  0
 13 10  1  0  0  0  0
 14 11  1  0  0  0  0
 15 16  1  6  0  0  0
 15 20  1  0  0  0  0
 16 19  1  0  0  0  0
 18 25  1  6  0  0  0
 18 17  1  0  0  0  0
 19 15  1  0  0  0  0
 20 17  1  0  0  0  0
 21 22  1  0  0  0  0
 21 15  1  0  0  0  0
 21 24  1  1  0  0  0
 22 14  1  1  0  0  0
 22 18  1  0  0  0  0
 23 24  1  0  0  0  0
 26 25  1  0  0  0  0
 27  5  1  0  0  0  0
 28 27  1  0  0  0  0
 28 30  1  0  0  0  0
 30 29  1  0  0  0  0
 31 32  1  0  0  0  0
 32 33  1  0  0  0  0
 34 33  1  0  0  0  0
 35 34  1  0  0  0  0
 36 35  2  0  0  0  0
 36 39  1  0  0  0  0
 37 39  2  0  0  0  0
 38 40  1  0  0  0  0
 39 38  1  0  0  0  0
 40 41  1  0  0  0  0
 41 42  1  0  0  0  0
 42 44  1  0  0  0  0
 42 43  1  1  0  0  0
 44 45  1  0  0  0  0
 45 46  1  0  0  0  0
 46 47  1  0  0  0  0
 48 49  1  6  0  0  0
 48 50  1  0  0  0  0
 48 47  1  0  0  0  0
 51 50  1  0  0  0  0
 52 51  1  0  0  0  0
 53 36  1  0  0  0  0
 54 53  2  0  0  0  0
 55 53  1  0  0  0  0
 56 55  1  0  0  0  0
 57 58  1  0  0  0  0
 57 59  1  0  0  0  0
 58 59  1  0  0  0  0
 59 56  1  0  0  0  0
M  END
>  <MODEL>
2

>  <REMARK>
 VINA RESULT:      -5.1      2.518      9.330
  Name = 
  31 active torsions:
  status: ('A' for Active; 'I' for Inactive)
    1  A    between atoms: O_2  and  C_19
    2  A    between atoms: O_2  and  C_21
    3  A    between atoms: C_3  and  C_10
    4  A    between atoms: C_3  and  C_41
    5  A    between atoms: C_5  and  C_30
    6  A    between atoms: C_5  and  O_37
    7  A    between atoms: C_9  and  C_12
    8  A    between atoms: C_9  and  C_52
    9  A    between atoms: C_10  and  N_27
   10  A    between atoms: C_13  and  C_53
   11  A    between atoms: C_13  and  O_55
   12  A    between atoms: C_14  and  C_16
   13  A    between atoms: C_14  and  N_59
   14  A    between atoms: C_15  and  C_18
   15  A    between atoms: C_16  and  C_29
   16  A    between atoms: C_17  and  N_32
   17  A    between atoms: C_17  and  N_49
   18  A    between atoms: C_19  and  C_54
   19  A    between atoms: C_20  and  C_30
   20  A    between atoms: C_20  and  C_53
   21  A    between atoms: C_24  and  O_34
   22  A    between atoms: C_26  and  C_48
   23  A    between atoms: C_28  and  O_50
   24  A    between atoms: C_28  and  C_56
   25  A    between atoms: C_31  and  C_33
   26  A    between atoms: C_31  and  O_50
   27  A    between atoms: C_33  and  C_51
   28  A    between atoms: O_34  and  C_58
   29  A    between atoms: C_41  and  O_55
   30  A    between atoms: N_46  and  N_49
   31  A    between atoms: N_46  and  C_52
                            x       y       z     vdW  Elec       q    Type
                         _______ _______ _______ _____ _____    ______ ____

>  <TORSDO>
F 31

$$$$
=
 OpenBabel10232409513D

 59 62  0  0  1  0  0  0  0  0999 V2000
  189.2970  176.8190  139.8530 C   0  0  0  0  0  2  0  0  0  0  0  0
  189.1170  176.1560  137.4090 C   0  0  0  0  0  0  0  0  0  0  0  0
  191.2810  176.1510  138.5180 C   0  0  0  0  0  3  0  0  0  0  0  0
  189.9010  176.3570  138.5660 C   0  0  0  0  0  0  0  0  0  0  0  0
  189.7340  175.7590  136.2080 C   0  0  0  0  0  0  0  0  0  0  0  0
  187.6360  176.3700  137.4420 C   0  0  0  0  0  1  0  0  0  0  0  0
  191.9000  175.7680  137.3240 C   0  0  0  0  0  0  0  0  0  0  0  0
  191.1260  175.5720  136.1760 C   0  0  0  0  0  3  0  0  0  0  0  0
  193.3790  175.5700  137.2560 C   0  0  0  0  0  2  0  0  0  0  0  0
  193.9970  175.7370  138.6360 C   0  0  0  0  0  2  0  0  0  0  0  0
  195.4130  173.6920  138.2830 C   0  0  0  0  0  0  0  0  0  0  0  0
  194.4090  173.0530  137.8630 O   0  0  0  0  0  0  0  0  0  0  0  0
  195.2790  175.0580  138.6960 N   0  0  0  0  0  2  0  0  0  0  0  0
  196.6570  173.0570  138.3110 O   0  0  0  0  0  0  0  0  0  0  0  0
  198.7550  171.5250  135.6010 C   0  0  2  0  0  0  0  0  0  0  0  0
  200.2110  171.3910  135.7650 C   0  0  0  0  0  2  0  0  0  0  0  0
  196.9300  172.9430  134.6170 C   0  0  0  0  0  2  0  0  0  0  0  0
  196.8190  173.6850  135.9610 C   0  0  1  0  0  3  0  0  0  0  0  0
  199.4120  170.3220  135.3010 O   0  0  0  0  0  0  0  0  0  0  0  0
  198.3140  172.3310  134.3840 C   0  0  0  0  0  2  0  0  0  0  0  0
  197.9410  171.5310  136.8910 C   0  0  1  0  0  3  0  0  0  0  0  0
  197.4890  172.9740  137.1590 C   0  0  2  0  0  3  0  0  0  0  0  0
  196.9620  169.4720  137.6070 O   0  0  0  0  0  1  0  0  0  0  0  0
  196.7540  170.5810  136.7870 C   0  0  0  0  0  2  0  0  0  0  0  0
  197.2960  175.1280  135.8460 C   0  0  0  0  0  2  0  0  0  0  0  0
  198.2810  175.4020  136.7990 O   0  0  0  0  0  1  0  0  0  0  0  0
  188.9520  175.5570  135.0620 O   0  0  0  0  0  0  0  0  0  0  0  0
  188.8820  174.3120  134.3730 C   0  0  0  0  0  2  0  0  0  0  0  0
  186.6780  173.6520  135.2870 C   0  0  0  0  0  1  0  0  0  0  0  0
  188.1460  173.2880  135.2180 C   0  0  0  0  0  2  0  0  0  0  0  0
  189.2220  178.3330  139.9010 C   0  0  0  0  0  2  0  0  0  0  0  0
  187.8300  178.7430  139.9570 N   0  0  0  0  0  2  0  0  0  0  0  0
  187.3410  178.3570  141.2100 N   0  0  0  0  0  2  0  0  0  0  0  0
  186.1410  179.1440  141.4530 C   0  0  0  0  0  2  0  0  0  0  0  0
  185.0100  178.5570  140.7440 N   0  0  0  0  0  0  0  0  0  0  0  0
  183.8400  178.3470  141.2690 C   0  0  0  0  0  0  0  0  0  0  0  0
  182.3910  179.1410  143.0010 N   0  0  0  0  0  2  0  0  0  0  0  0
  184.4620  178.2260  143.6860 N   0  0  0  0  0  2  0  0  0  0  0  0
  183.5530  178.6760  142.6790 C   0  0  0  0  0  0  0  0  0  0  0  0
  184.1590  178.2880  145.1080 C   0  0  0  0  0  2  0  0  0  0  0  0
  185.3050  177.6620  145.8850 C   0  0  0  0  0  2  0  0  0  0  0  0
  185.8180  178.5970  146.9750 C   0  0  2  0  0  3  0  0  0  0  0  0
  186.2650  179.7960  146.4130 O   0  0  0  0  0  1  0  0  0  0  0  0
  186.8440  177.9920  147.7090 O   0  0  0  0  0  0  0  0  0  0  0  0
  188.0100  178.2710  146.9910 C   0  0  0  0  0  2  0  0  0  0  0  0
  189.2060  177.6920  147.7220 C   0  0  0  0  0  2  0  0  0  0  0  0
  189.8140  176.5720  146.8950 C   0  0  0  0  0  2  0  0  0  0  0  0
  191.2920  176.8410  146.6400 C   0  0  1  0  0  3  0  0  0  0  0  0
  192.0610  175.7970  147.1570 O   0  0  0  0  0  1  0  0  0  0  0  0
  191.5500  176.9590  145.1480 C   0  0  0  0  0  2  0  0  0  0  0  0
  190.4720  176.4440  144.4300 O   0  0  0  0  0  0  0  0  0  0  0  0
  190.9510  176.2690  143.1750 N   0  0  0  0  0  1  0  0  0  0  0  0
  182.8020  177.6890  140.4590 C   0  0  0  0  0  0  0  0  0  0  0  0
  181.6030  178.0720  140.5420 O   0  0  0  0  0  0  0  0  0  0  0  0
  183.1510  176.6350  139.6090 O   0  0  0  0  0  0  0  0  0  0  0  0
  183.5990  176.8680  138.2830 C   0  0  0  0  0  2  0  0  0  0  0  0
  182.9940  174.8570  136.9850 C   0  0  0  0  0  2  0  0  0  0  0  0
  183.3130  175.9690  136.0080 C   0  0  0  0  0  2  0  0  0  0  0  0
  182.5990  176.2830  137.3050 C   0  0  0  0  0  3  0  0  0  0  0  0
  1 31  1  0  0  0  0
  2  6  1  0  0  0  0
  2  4  1  0  0  0  0
  3  4  2  0  0  0  0
  4  1  1  0  0  0  0
  5  2  2  0  0  0  0
  7  3  1  0  0  0  0
  8  5  1  0  0  0  0
  8  7  2  0  0  0  0
  9  7  1  0  0  0  0
  9 10  1  0  0  0  0
 10 13  1  0  0  0  0
 11 14  1  0  0  0  0
 11 13  1  0  0  0  0
 12 11  2  0  0  0  0
 15 20  1  6  0  0  0
 15 16  1  0  0  0  0
 15 21  1  0  0  0  0
 17 18  1  0  0  0  0
 18 25  1  6  0  0  0
 18 22  1  0  0  0  0
 19 15  1  0  0  0  0
 19 16  1  0  0  0  0
 20 17  1  0  0  0  0
 21 24  1  6  0  0  0
 21 22  1  0  0  0  0
 22 14  1  1  0  0  0
 24 23  1  0  0  0  0
 25 26  1  0  0  0  0
 27  5  1  0  0  0  0
 28 27  1  0  0  0  0
 28 30  1  0  0  0  0
 30 29  1  0  0  0  0
 31 32  1  0  0  0  0
 32 33  1  0  0  0  0
 33 34  1  0  0  0  0
 35 36  2  0  0  0  0
 35 34  1  0  0  0  0
 36 39  1  0  0  0  0
 38 40  1  0  0  0  0
 39 37  2  0  0  0  0
 39 38  1  0  0  0  0
 40 41  1  0  0  0  0
 41 42  1  0  0  0  0
 42 43  1  6  0  0  0
 42 44  1  0  0  0  0
 45 44  1  0  0  0  0
 45 46  1  0  0  0  0
 47 46  1  0  0  0  0
 48 47  1  0  0  0  0
 48 49  1  6  0  0  0
 50 48  1  0  0  0  0
 51 50  1  0  0  0  0
 52 51  1  0  0  0  0
 53 54  2  0  0  0  0
 53 36  1  0  0  0  0
 55 53  1  0  0  0  0
 56 55  1  0  0  0  0
 57 59  1  0  0  0  0
 58 57  1  0  0  0  0
 58 59  1  0  0  0  0
 59 56  1  0  0  0  0
M  END
>  <MODEL>
3

>  <REMARK>
 VINA RESULT:      -5.1      3.157      8.165
  Name = 
  31 active torsions:
  status: ('A' for Active; 'I' for Inactive)
    1  A    between atoms: O_2  and  C_19
    2  A    between atoms: O_2  and  C_21
    3  A    between atoms: C_3  and  C_10
    4  A    between atoms: C_3  and  C_41
    5  A    between atoms: C_5  and  C_30
    6  A    between atoms: C_5  and  O_37
    7  A    between atoms: C_9  and  C_12
    8  A    between atoms: C_9  and  C_52
    9  A    between atoms: C_10  and  N_27
   10  A    between atoms: C_13  and  C_53
   11  A    between atoms: C_13  and  O_55
   12  A    between atoms: C_14  and  C_16
   13  A    between atoms: C_14  and  N_59
   14  A    between atoms: C_15  and  C_18
   15  A    between atoms: C_16  and  C_29
   16  A    between atoms: C_17  and  N_32
   17  A    between atoms: C_17  and  N_49
   18  A    between atoms: C_19  and  C_54
   19  A    between atoms: C_20  and  C_30
   20  A    between atoms: C_20  and  C_53
   21  A    between atoms: C_24  and  O_34
   22  A    between atoms: C_26  and  C_48
   23  A    between atoms: C_28  and  O_50
   24  A    between atoms: C_28  and  C_56
   25  A    between atoms: C_31  and  C_33
   26  A    between atoms: C_31  and  O_50
   27  A    between atoms: C_33  and  C_51
   28  A    between atoms: O_34  and  C_58
   29  A    between atoms: C_41  and  O_55
   30  A    between atoms: N_46  and  N_49
   31  A    between atoms: N_46  and  C_52
                            x       y       z     vdW  Elec       q    Type
                         _______ _______ _______ _____ _____    ______ ____

>  <TORSDO>
F 31

$$$$
=
 OpenBabel10232409513D

 59 62  0  0  1  0  0  0  0  0999 V2000
  188.6780  178.6850  140.6620 C   0  0  0  0  0  2  0  0  0  0  0  0
  189.4590  177.6110  142.8270 C   0  0  0  0  0  0  0  0  0  0  0  0
  187.2120  178.5260  142.6600 C   0  0  0  0  0  3  0  0  0  0  0  0
  188.4510  178.2540  142.0760 C   0  0  0  0  0  0  0  0  0  0  0  0
  189.2130  177.2590  144.1670 C   0  0  0  0  0  0  0  0  0  0  0  0
  190.7920  177.3090  142.2160 C   0  0  0  0  0  1  0  0  0  0  0  0
  186.9680  178.1890  143.9950 C   0  0  0  0  0  0  0  0  0  0  0  0
  187.9670  177.5560  144.7420 C   0  0  0  0  0  3  0  0  0  0  0  0
  185.6560  178.4990  144.6360 C   0  0  0  0  0  2  0  0  0  0  0  0
  184.5110  178.0130  143.7600 C   0  0  0  0  0  2  0  0  0  0  0  0
  184.1040  178.5750  141.3460 C   0  0  0  0  0  0  0  0  0  0  0  0
  184.2360  177.3610  141.0270 O   0  0  0  0  0  0  0  0  0  0  0  0
  184.2330  178.9810  142.7150 N   0  0  0  0  0  2  0  0  0  0  0  0
  183.8010  179.5080  140.3520 O   0  0  0  0  0  0  0  0  0  0  0  0
  181.2510  179.3300  137.6030 C   0  0  2  0  0  0  0  0  0  0  0  0
  180.8340  180.5470  136.8870 C   0  0  0  0  0  2  0  0  0  0  0  0
  180.6620  177.7490  139.4630 C   0  0  0  0  0  2  0  0  0  0  0  0
  181.5490  178.5780  140.4110 C   0  0  1  0  0  3  0  0  0  0  0  0
  181.1770  179.3600  136.2020 O   0  0  0  0  0  0  0  0  0  0  0  0
  180.1230  178.5640  138.2840 C   0  0  0  0  0  2  0  0  0  0  0  0
  182.6570  179.3590  138.1920 C   0  0  1  0  0  3  0  0  0  0  0  0
  182.5310  179.5440  139.7110 C   0  0  2  0  0  3  0  0  0  0  0  0
  182.5160  177.0470  137.6010 O   0  0  0  0  0  1  0  0  0  0  0  0
  183.4170  178.0830  137.8440 C   0  0  0  0  0  2  0  0  0  0  0  0
  180.7190  179.3070  141.4610 C   0  0  0  0  0  2  0  0  0  0  0  0
  180.0090  178.3980  142.2510 O   0  0  0  0  0  1  0  0  0  0  0  0
  190.2160  176.6180  144.9090 O   0  0  0  0  0  0  0  0  0  0  0  0
  190.7920  177.1740  146.0870 C   0  0  0  0  0  2  0  0  0  0  0  0
  192.1980  175.6950  147.4900 C   0  0  0  0  0  1  0  0  0  0  0  0
  190.7800  176.1490  147.2080 C   0  0  0  0  0  2  0  0  0  0  0  0
  187.7270  177.9700  139.7210 C   0  0  0  0  0  2  0  0  0  0  0  0
  188.3090  177.9230  138.3930 N   0  0  0  0  0  2  0  0  0  0  0  0
  188.4500  176.5720  138.0560 N   0  0  0  0  0  2  0  0  0  0  0  0
  187.4900  176.3020  136.9960 C   0  0  0  0  0  2  0  0  0  0  0  0
  186.8940  174.9850  137.1910 N   0  0  0  0  0  0  0  0  0  0  0  0
  187.3200  173.8930  136.6280 C   0  0  0  0  0  0  0  0  0  0  0  0
  188.2880  174.2540  134.4690 N   0  0  0  0  0  2  0  0  0  0  0  0
  189.7850  173.7680  136.2350 N   0  0  0  0  0  2  0  0  0  0  0  0
  188.4660  173.8970  135.6990 C   0  0  0  0  0  0  0  0  0  0  0  0
  190.9850  173.9930  135.4450 C   0  0  0  0  0  2  0  0  0  0  0  0
  192.1980  173.5690  136.2560 C   0  0  0  0  0  2  0  0  0  0  0  0
  193.1900  172.7810  135.4070 C   0  0  2  0  0  3  0  0  0  0  0  0
  193.0160  171.4090  135.6070 O   0  0  0  0  0  1  0  0  0  0  0  0
  194.5050  173.1530  135.7030 O   0  0  0  0  0  0  0  0  0  0  0  0
  194.6250  174.4590  135.2220 C   0  0  0  0  0  2  0  0  0  0  0  0
  195.7220  175.1800  135.9820 C   0  0  0  0  0  2  0  0  0  0  0  0
  196.0600  174.4050  137.2430 C   0  0  0  0  0  2  0  0  0  0  0  0
  197.5630  174.4160  137.4900 C   0  0  1  0  0  3  0  0  0  0  0  0
  198.1910  175.2490  136.5630 O   0  0  0  0  0  1  0  0  0  0  0  0
  197.8570  174.9200  138.8920 C   0  0  0  0  0  2  0  0  0  0  0  0
  196.6850  174.9590  139.6460 O   0  0  0  0  0  0  0  0  0  0  0  0
  196.9730  175.7850  140.6810 N   0  0  0  0  0  1  0  0  0  0  0  0
  186.5870  172.6390  136.8610 C   0  0  0  0  0  0  0  0  0  0  0  0
  187.0300  171.5550  136.3900 O   0  0  0  0  0  0  0  0  0  0  0  0
  185.3980  172.6560  137.5950 O   0  0  0  0  0  0  0  0  0  0  0  0
  184.1850  173.1300  137.0310 C   0  0  0  0  0  2  0  0  0  0  0  0
  182.1120  172.4720  135.8620 C   0  0  0  0  0  2  0  0  0  0  0  0
  182.1090  171.8190  137.2280 C   0  0  0  0  0  2  0  0  0  0  0  0
  183.4060  171.9620  136.4610 C   0  0  0  0  0  3  0  0  0  0  0  0
  1  4  1  0  0  0  0
  2  5  1  0  0  0  0
  3  7  2  0  0  0  0
  4  3  1  0  0  0  0
  4  2  2  0  0  0  0
  5  8  2  0  0  0  0
  5 27  1  0  0  0  0
  6  2  1  0  0  0  0
  7  9  1  0  0  0  0
  7  8  1  0  0  0  0
 10  9  1  0  0  0  0
 11 13  1  0  0  0  0
 12 11  2  0  0  0  0
 13 10  1  0  0  0  0
 14 11  1  0  0  0  0
 15 16  1  1  0  0  0
 15 21  1  0  0  0  0
 15 20  1  0  0  0  0
 17 18  1  0  0  0  0
 18 25  1  1  0  0  0
 19 16  1  0  0  0  0
 19 15  1  0  0  0  0
 20 17  1  0  0  0  0
 21 24  1  1  0  0  0
 21 22  1  0  0  0  0
 22 14  1  1  0  0  0
 22 18  1  0  0  0  0
 23 24  1  0  0  0  0
 25 26  1  0  0  0  0
 27 28  1  0  0  0  0
 28 30  1  0  0  0  0
 30 29  1  0  0  0  0
 31  1  1  0  0  0  0
 32 31  1  0  0  0  0
 33 32  1  0  0  0  0
 34 35  1  0  0  0  0
 34 33  1  0  0  0  0
 36 53  1  0  0  0  0
 36 35  2  0  0  0  0
 37 39  2  0  0  0  0
 39 38  1  0  0  0  0
 39 36  1  0  0  0  0
 40 38  1  0  0  0  0
 40 41  1  0  0  0  0
 42 43  1  1  0  0  0
 42 44  1  0  0  0  0
 42 41  1  0  0  0  0
 45 44  1  0  0  0  0
 45 46  1  0  0  0  0
 46 47  1  0  0  0  0
 47 48  1  0  0  0  0
 48 49  1  6  0  0  0
 48 50  1  0  0  0  0
 50 51  1  0  0  0  0
 51 52  1  0  0  0  0
 53 55  1  0  0  0  0
 54 53  2  0  0  0  0
 56 55  1  0  0  0  0
 57 59  1  0  0  0  0
 57 58  1  0  0  0  0
 59 56  1  0  0  0  0
 59 58  1  0  0  0  0
M  END
>  <MODEL>
4

>  <REMARK>
 VINA RESULT:      -4.9      2.640      9.406
  Name = 
  31 active torsions:
  status: ('A' for Active; 'I' for Inactive)
    1  A    between atoms: O_2  and  C_19
    2  A    between atoms: O_2  and  C_21
    3  A    between atoms: C_3  and  C_10
    4  A    between atoms: C_3  and  C_41
    5  A    between atoms: C_5  and  C_30
    6  A    between atoms: C_5  and  O_37
    7  A    between atoms: C_9  and  C_12
    8  A    between atoms: C_9  and  C_52
    9  A    between atoms: C_10  and  N_27
   10  A    between atoms: C_13  and  C_53
   11  A    between atoms: C_13  and  O_55
   12  A    between atoms: C_14  and  C_16
   13  A    between atoms: C_14  and  N_59
   14  A    between atoms: C_15  and  C_18
   15  A    between atoms: C_16  and  C_29
   16  A    between atoms: C_17  and  N_32
   17  A    between atoms: C_17  and  N_49
   18  A    between atoms: C_19  and  C_54
   19  A    between atoms: C_20  and  C_30
   20  A    between atoms: C_20  and  C_53
   21  A    between atoms: C_24  and  O_34
   22  A    between atoms: C_26  and  C_48
   23  A    between atoms: C_28  and  O_50
   24  A    between atoms: C_28  and  C_56
   25  A    between atoms: C_31  and  C_33
   26  A    between atoms: C_31  and  O_50
   27  A    between atoms: C_33  and  C_51
   28  A    between atoms: O_34  and  C_58
   29  A    between atoms: C_41  and  O_55
   30  A    between atoms: N_46  and  N_49
   31  A    between atoms: N_46  and  C_52
                            x       y       z     vdW  Elec       q    Type
                         _______ _______ _______ _____ _____    ______ ____

>  <TORSDO>
F 31

$$$$
=
 OpenBabel10232409513D

 59 62  0  0  1  0  0  0  0  0999 V2000
  188.9860  176.2620  142.6550 C   0  0  0  0  0  2  0  0  0  0  0  0
  188.2520  177.4120  144.7960 C   0  0  0  0  0  0  0  0  0  0  0  0
  186.7970  177.4170  142.8480 C   0  0  0  0  0  3  0  0  0  0  0  0
  187.9930  177.0390  143.4590 C   0  0  0  0  0  0  0  0  0  0  0  0
  187.3050  178.1770  145.5020 C   0  0  0  0  0  0  0  0  0  0  0  0
  189.5280  177.0130  145.4690 C   0  0  0  0  0  1  0  0  0  0  0  0
  185.8580  178.1870  143.5420 C   0  0  0  0  0  0  0  0  0  0  0  0
  186.1140  178.5630  144.8650 C   0  0  0  0  0  3  0  0  0  0  0  0
  184.5870  178.6190  142.8880 C   0  0  0  0  0  2  0  0  0  0  0  0
  184.6750  178.4240  141.3820 C   0  0  0  0  0  2  0  0  0  0  0  0
  183.2300  177.3570  139.6270 C   0  0  0  0  0  0  0  0  0  0  0  0
  183.5490  178.2540  138.8000 O   0  0  0  0  0  0  0  0  0  0  0  0
  183.7610  177.3790  140.9580 N   0  0  0  0  0  2  0  0  0  0  0  0
  182.3780  176.3280  139.2170 O   0  0  0  0  0  0  0  0  0  0  0  0
  181.9960  173.6360  136.6280 C   0  0  2  0  0  0  0  0  0  0  0  0
  182.8390  172.4300  136.6700 C   0  0  0  0  0  2  0  0  0  0  0  0
  181.7290  175.9080  135.5920 C   0  0  0  0  0  2  0  0  0  0  0  0
  182.4860  176.5130  136.7890 C   0  0  1  0  0  3  0  0  0  0  0  0
  181.4400  172.3560  136.4830 O   0  0  0  0  0  0  0  0  0  0  0  0
  182.0860  174.4410  135.3370 C   0  0  0  0  0  2  0  0  0  0  0  0
  181.7480  174.3170  137.9700 C   0  0  1  0  0  3  0  0  0  0  0  0
  182.6060  175.5890  138.0220 C   0  0  2  0  0  3  0  0  0  0  0  0
  179.9860  174.8140  139.5060 O   0  0  0  0  0  1  0  0  0  0  0  0
  180.2670  174.6320  138.1530 C   0  0  0  0  0  2  0  0  0  0  0  0
  183.8500  177.0510  136.3740 C   0  0  0  0  0  2  0  0  0  0  0  0
  183.8470  177.4250  135.0280 O   0  0  0  0  0  1  0  0  0  0  0  0
  187.5640  178.5440  146.8310 O   0  0  0  0  0  0  0  0  0  0  0  0
  186.8930  177.9660  147.9460 C   0  0  0  0  0  2  0  0  0  0  0  0
  189.2540  178.1830  148.6600 C   0  0  0  0  0  1  0  0  0  0  0  0
  187.8610  177.7840  149.1020 C   0  0  0  0  0  2  0  0  0  0  0  0
  189.8280  177.1890  141.7990 C   0  0  0  0  0  2  0  0  0  0  0  0
  189.9140  176.6540  140.4520 N   0  0  0  0  0  2  0  0  0  0  0  0
  190.2310  177.7240  139.6070 N   0  0  0  0  0  2  0  0  0  0  0  0
  188.9970  178.1100  138.9400 C   0  0  0  0  0  2  0  0  0  0  0  0
  188.3020  176.9240  138.4540 N   0  0  0  0  0  0  0  0  0  0  0  0
  188.6790  176.2170  137.4300 C   0  0  0  0  0  0  0  0  0  0  0  0
  189.8630  177.6720  135.9440 N   0  0  0  0  0  2  0  0  0  0  0  0
  191.0840  175.8610  136.8520 N   0  0  0  0  0  2  0  0  0  0  0  0
  189.8670  176.5790  136.6340 C   0  0  0  0  0  0  0  0  0  0  0  0
  192.3620  176.2860  136.3000 C   0  0  0  0  0  2  0  0  0  0  0  0
  192.7820  175.3060  135.2170 C   0  0  0  0  0  2  0  0  0  0  0  0
  194.1850  174.7660  135.4660 C   0  0  2  0  0  3  0  0  0  0  0  0
  194.9950  174.9870  134.3490 O   0  0  0  0  0  1  0  0  0  0  0  0
  194.1470  173.4020  135.7760 O   0  0  0  0  0  0  0  0  0  0  0  0
  195.3500  173.1540  136.4430 C   0  0  0  0  0  2  0  0  0  0  0  0
  195.1230  172.1200  137.5290 C   0  0  0  0  0  2  0  0  0  0  0  0
  195.7280  170.7930  137.1020 C   0  0  0  0  0  2  0  0  0  0  0  0
  195.5000  169.7340  138.1730 C   0  0  1  0  0  3  0  0  0  0  0  0
  194.2600  169.1240  137.9830 O   0  0  0  0  0  1  0  0  0  0  0  0
  196.5900  168.6790  138.1040 C   0  0  0  0  0  2  0  0  0  0  0  0
  197.7650  169.2340  137.5970 O   0  0  0  0  0  0  0  0  0  0  0  0
  198.7430  168.7570  138.4050 N   0  0  0  0  0  1  0  0  0  0  0  0
  187.8500  175.0760  137.0080 C   0  0  0  0  0  0  0  0  0  0  0  0
  186.6190  175.0590  137.2820 O   0  0  0  0  0  0  0  0  0  0  0  0
  188.4340  174.0140  136.3130 O   0  0  0  0  0  0  0  0  0  0  0  0
  187.9530  173.6040  135.0420 C   0  0  0  0  0  2  0  0  0  0  0  0
  186.3370  171.9700  135.9450 C   0  0  0  0  0  2  0  0  0  0  0  0
  187.7000  171.6550  136.5260 C   0  0  0  0  0  2  0  0  0  0  0  0
  187.5800  172.1360  135.0960 C   0  0  0  0  0  3  0  0  0  0  0  0
  1  4  1  0  0  0  0
  2  6  1  0  0  0  0
  2  5  1  0  0  0  0
  3  4  1  0  0  0  0
  3  7  2  0  0  0  0
  4  2  2  0  0  0  0
  5 27  1  0  0  0  0
  7  8  1  0  0  0  0
  8  5  2  0  0  0  0
  9  7  1  0  0  0  0
 10  9  1  0  0  0  0
 11 13  1  0  0  0  0
 12 11  2  0  0  0  0
 13 10  1  0  0  0  0
 14 11  1  0  0  0  0
 15 20  1  6  0  0  0
 15 16  1  0  0  0  0
 15 21  1  0  0  0  0
 17 18  1  0  0  0  0
 18 25  1  6  0  0  0
 18 22  1  0  0  0  0
 19 15  1  0  0  0  0
 19 16  1  0  0  0  0
 20 17  1  0  0  0  0
 21 22  1  0  0  0  0
 21 24  1  6  0  0  0
 22 14  1  1  0  0  0
 24 23  1  0  0  0  0
 26 25  1  0  0  0  0
 27 28  1  0  0  0  0
 28 30  1  0  0  0  0
 29 30  1  0  0  0  0
 31  1  1  0  0  0  0
 32 31  1  0  0  0  0
 33 32  1  0  0  0  0
 34 33  1  0  0  0  0
 35 34  1  0  0  0  0
 36 35  2  0  0  0  0
 37 39  2  0  0  0  0
 39 38  1  0  0  0  0
 39 36  1  0  0  0  0
 40 38  1  0  0  0  0
 41 42  1  0  0  0  0
 41 40  1  0  0  0  0
 42 43  1  6  0  0  0
 42 44  1  0  0  0  0
 44 45  1  0  0  0  0
 45 46  1  0  0  0  0
 47 46  1  0  0  0  0
 47 48  1  0  0  0  0
 48 49  1  6  0  0  0
 50 48  1  0  0  0  0
 51 50  1  0  0  0  0
 51 52  1  0  0  0  0
 53 54  2  0  0  0  0
 53 36  1  0  0  0  0
 55 53  1  0  0  0  0
 56 59  1  0  0  0  0
 56 55  1  0  0  0  0
 57 58  1  0  0  0  0
 59 57  1  0  0  0  0
 59 58  1  0  0  0  0
M  END
>  <MODEL>
5

>  <REMARK>
 VINA RESULT:      -4.6      3.151      9.302
  Name = 
  31 active torsions:
  status: ('A' for Active; 'I' for Inactive)
    1  A    between atoms: O_2  and  C_19
    2  A    between atoms: O_2  and  C_21
    3  A    between atoms: C_3  and  C_10
    4  A    between atoms: C_3  and  C_41
    5  A    between atoms: C_5  and  C_30
    6  A    between atoms: C_5  and  O_37
    7  A    between atoms: C_9  and  C_12
    8  A    between atoms: C_9  and  C_52
    9  A    between atoms: C_10  and  N_27
   10  A    between atoms: C_13  and  C_53
   11  A    between atoms: C_13  and  O_55
   12  A    between atoms: C_14  and  C_16
   13  A    between atoms: C_14  and  N_59
   14  A    between atoms: C_15  and  C_18
   15  A    between atoms: C_16  and  C_29
   16  A    between atoms: C_17  and  N_32
   17  A    between atoms: C_17  and  N_49
   18  A    between atoms: C_19  and  C_54
   19  A    between atoms: C_20  and  C_30
   20  A    between atoms: C_20  and  C_53
   21  A    between atoms: C_24  and  O_34
   22  A    between atoms: C_26  and  C_48
   23  A    between atoms: C_28  and  O_50
   24  A    between atoms: C_28  and  C_56
   25  A    between atoms: C_31  and  C_33
   26  A    between atoms: C_31  and  O_50
   27  A    between atoms: C_33  and  C_51
   28  A    between atoms: O_34  and  C_58
   29  A    between atoms: C_41  and  O_55
   30  A    between atoms: N_46  and  N_49
   31  A    between atoms: N_46  and  C_52
                            x       y       z     vdW  Elec       q    Type
                         _______ _______ _______ _____ _____    ______ ____

>  <TORSDO>
F 31

$$$$
=
 OpenBabel10232409513D

 59 62  0  0  1  0  0  0  0  0999 V2000
  188.1190  176.6870  138.1840 C   0  0  0  0  0  2  0  0  0  0  0  0
  188.3010  174.9110  136.3790 C   0  0  0  0  0  0  0  0  0  0  0  0
  190.2660  175.5560  137.6580 C   0  0  0  0  0  3  0  0  0  0  0  0
  188.9020  175.6890  137.3920 C   0  0  0  0  0  0  0  0  0  0  0  0
  189.0850  174.0120  135.6320 C   0  0  0  0  0  0  0  0  0  0  0  0
  186.8390  175.0390  136.0810 C   0  0  0  0  0  1  0  0  0  0  0  0
  191.0510  174.6730  136.9100 C   0  0  0  0  0  0  0  0  0  0  0  0
  190.4590  173.9050  135.9020 C   0  0  0  0  0  3  0  0  0  0  0  0
  192.5160  174.5430  137.1690 C   0  0  0  0  0  2  0  0  0  0  0  0
  193.2940  175.5210  136.3020 C   0  0  0  0  0  2  0  0  0  0  0  0
  195.7130  175.9840  135.8070 C   0  0  0  0  0  0  0  0  0  0  0  0
  195.4590  177.2100  135.6470 O   0  0  0  0  0  0  0  0  0  0  0  0
  194.6630  175.0660  136.1380 N   0  0  0  0  0  2  0  0  0  0  0  0
  197.0330  175.5440  135.6870 O   0  0  0  0  0  0  0  0  0  0  0  0
  198.6670  172.1880  136.0880 C   0  0  2  0  0  0  0  0  0  0  0  0
  197.8770  170.9510  135.9750 C   0  0  0  0  0  2  0  0  0  0  0  0
  199.6440  173.8490  137.6980 C   0  0  0  0  0  2  0  0  0  0  0  0
  198.3740  174.7070  137.5420 C   0  0  1  0  0  3  0  0  0  0  0  0
  199.1130  171.1100  135.3090 O   0  0  0  0  0  0  0  0  0  0  0  0
  199.4020  172.3650  137.4120 C   0  0  0  0  0  2  0  0  0  0  0  0
  198.1320  173.3880  135.3130 C   0  0  1  0  0  3  0  0  0  0  0  0
  197.4950  174.3560  136.3200 C   0  0  2  0  0  3  0  0  0  0  0  0
  198.9810  175.4220  134.3900 O   0  0  0  0  0  1  0  0  0  0  0  0
  199.2460  174.0590  134.5170 C   0  0  0  0  0  2  0  0  0  0  0  0
  197.5490  174.7260  138.8220 C   0  0  0  0  0  2  0  0  0  0  0  0
  198.3610  174.5080  139.9390 O   0  0  0  0  0  1  0  0  0  0  0  0
  188.4850  173.2390  134.6280 O   0  0  0  0  0  0  0  0  0  0  0  0
  188.5760  171.8180  134.5750 C   0  0  0  0  0  2  0  0  0  0  0  0
  186.2580  170.9510  134.6550 C   0  0  0  0  0  1  0  0  0  0  0  0
  187.5160  171.1930  135.4640 C   0  0  0  0  0  2  0  0  0  0  0  0
  187.9000  177.9570  137.3840 C   0  0  0  0  0  2  0  0  0  0  0  0
  186.7030  178.6250  137.8620 N   0  0  0  0  0  2  0  0  0  0  0  0
  186.3630  178.0310  139.0830 N   0  0  0  0  0  2  0  0  0  0  0  0
  185.4940  178.9690  139.7780 C   0  0  0  0  0  2  0  0  0  0  0  0
  184.2120  179.0630  139.0900 N   0  0  0  0  0  0  0  0  0  0  0  0
  183.0620  178.7990  139.6340 C   0  0  0  0  0  0  0  0  0  0  0  0
  182.9200  177.0810  141.2950 N   0  0  0  0  0  2  0  0  0  0  0  0
  183.1580  179.2990  142.0810 N   0  0  0  0  0  2  0  0  0  0  0  0
  182.9540  178.3470  141.0350 C   0  0  0  0  0  0  0  0  0  0  0  0
  183.3080  178.9180  143.4770 C   0  0  0  0  0  2  0  0  0  0  0  0
  184.7800  178.9680  143.8490 C   0  0  0  0  0  2  0  0  0  0  0  0
  185.0260  178.3950  145.2400 C   0  0  2  0  0  3  0  0  0  0  0  0
  183.9370  178.6660  146.0740 O   0  0  0  0  0  1  0  0  0  0  0  0
  186.2020  178.9140  145.7930 O   0  0  0  0  0  0  0  0  0  0  0  0
  186.8930  177.7980  146.2730 C   0  0  0  0  0  2  0  0  0  0  0  0
  188.2290  177.6860  145.5650 C   0  0  0  0  0  2  0  0  0  0  0  0
  188.0370  176.9980  144.2250 C   0  0  0  0  0  2  0  0  0  0  0  0
  189.2200  177.2800  143.3060 C   0  0  1  0  0  3  0  0  0  0  0  0
  188.7610  177.6680  142.0470 O   0  0  0  0  0  1  0  0  0  0  0  0
  190.0800  178.3870  143.8880 C   0  0  0  0  0  2  0  0  0  0  0  0
  191.4240  178.1550  143.6000 O   0  0  0  0  0  0  0  0  0  0  0  0
  191.4300  176.9810  142.9240 N   0  0  0  0  0  1  0  0  0  0  0  0
  181.8470  178.8740  138.8070 C   0  0  0  0  0  0  0  0  0  0  0  0
  181.1390  177.8440  138.6360 O   0  0  0  0  0  0  0  0  0  0  0  0
  181.4910  180.0850  138.2060 O   0  0  0  0  0  0  0  0  0  0  0  0
  181.3160  180.1930  136.8020 C   0  0  0  0  0  2  0  0  0  0  0  0
  180.9570  182.5950  136.3580 C   0  0  0  0  0  2  0  0  0  0  0  0
  180.2480  182.2450  137.6500 C   0  0  0  0  0  2  0  0  0  0  0  0
  180.2730  181.2530  136.5070 C   0  0  0  0  0  3  0  0  0  0  0  0
  2  4  1  0  0  0  0
  4  3  2  0  0  0  0
  4  1  1  0  0  0  0
  5  8  1  0  0  0  0
  5  2  2  0  0  0  0
  6  2  1  0  0  0  0
  7  9  1  0  0  0  0
  7  3  1  0  0  0  0
  8  7  2  0  0  0  0
 10  9  1  0  0  0  0
 11 13  1  0  0  0  0
 12 11  2  0  0  0  0
 13 10  1  0  0  0  0
 14 11  1  0  0  0  0
 15 16  1  1  0  0  0
 15 20  1  0  0  0  0
 18 17  1  0  0  0  0
 18 25  1  1  0  0  0
 19 16  1  0  0  0  0
 19 15  1  0  0  0  0
 20 17  1  0  0  0  0
 21 24  1  1  0  0  0
 21 15  1  0  0  0  0
 21 22  1  0  0  0  0
 22 14  1  6  0  0  0
 22 18  1  0  0  0  0
 23 24  1  0  0  0  0
 25 26  1  0  0  0  0
 27  5  1  0  0  0  0
 28 27  1  0  0  0  0
 28 30  1  0  0  0  0
 29 30  1  0  0  0  0
 31 32  1  0  0  0  0
 31  1  1  0  0  0  0
 32 33  1  0  0  0  0
 33 34  1  0  0  0  0
 35 36  2  0  0  0  0
 35 34  1  0  0  0  0
 36 39  1  0  0  0  0
 38 40  1  0  0  0  0
 39 37  2  0  0  0  0
 39 38  1  0  0  0  0
 40 41  1  0  0  0  0
 41 42  1  0  0  0  0
 42 44  1  0  0  0  0
 42 43  1  1  0  0  0
 44 45  1  0  0  0  0
 46 45  1  0  0  0  0
 47 46  1  0  0  0  0
 48 49  1  6  0  0  0
 48 50  1  0  0  0  0
 48 47  1  0  0  0  0
 51 50  1  0  0  0  0
 52 51  1  0  0  0  0
 53 36  1  0  0  0  0
 54 53  2  0  0  0  0
 55 53  1  0  0  0  0
 56 55  1  0  0  0  0
 57 59  1  0  0  0  0
 57 58  1  0  0  0  0
 59 56  1  0  0  0  0
 59 58  1  0  0  0  0
M  END
>  <MODEL>
6

>  <REMARK>
 VINA RESULT:      -4.5      3.239      7.941
  Name = 
  31 active torsions:
  status: ('A' for Active; 'I' for Inactive)
    1  A    between atoms: O_2  and  C_19
    2  A    between atoms: O_2  and  C_21
    3  A    between atoms: C_3  and  C_10
    4  A    between atoms: C_3  and  C_41
    5  A    between atoms: C_5  and  C_30
    6  A    between atoms: C_5  and  O_37
    7  A    between atoms: C_9  and  C_12
    8  A    between atoms: C_9  and  C_52
    9  A    between atoms: C_10  and  N_27
   10  A    between atoms: C_13  and  C_53
   11  A    between atoms: C_13  and  O_55
   12  A    between atoms: C_14  and  C_16
   13  A    between atoms: C_14  and  N_59
   14  A    between atoms: C_15  and  C_18
   15  A    between atoms: C_16  and  C_29
   16  A    between atoms: C_17  and  N_32
   17  A    between atoms: C_17  and  N_49
   18  A    between atoms: C_19  and  C_54
   19  A    between atoms: C_20  and  C_30
   20  A    between atoms: C_20  and  C_53
   21  A    between atoms: C_24  and  O_34
   22  A    between atoms: C_26  and  C_48
   23  A    between atoms: C_28  and  O_50
   24  A    between atoms: C_28  and  C_56
   25  A    between atoms: C_31  and  C_33
   26  A    between atoms: C_31  and  O_50
   27  A    between atoms: C_33  and  C_51
   28  A    between atoms: O_34  and  C_58
   29  A    between atoms: C_41  and  O_55
   30  A    between atoms: N_46  and  N_49
   31  A    between atoms: N_46  and  C_52
                            x       y       z     vdW  Elec       q    Type
                         _______ _______ _______ _____ _____    ______ ____

>  <TORSDO>
F 31

$$$$
=
 OpenBabel10232409513D

 59 62  0  0  1  0  0  0  0  0999 V2000
  188.9570  177.9590  140.1610 C   0  0  0  0  0  2  0  0  0  0  0  0
  190.7740  176.5610  139.0710 C   0  0  0  0  0  0  0  0  0  0  0  0
  188.7540  177.1130  137.8350 C   0  0  0  0  0  3  0  0  0  0  0  0
  189.5180  177.2010  139.0000 C   0  0  0  0  0  0  0  0  0  0  0  0
  191.2450  175.8260  137.9670 C   0  0  0  0  0  0  0  0  0  0  0  0
  191.6080  176.6460  140.3120 C   0  0  0  0  0  1  0  0  0  0  0  0
  189.2140  176.3740  136.7410 C   0  0  0  0  0  0  0  0  0  0  0  0
  190.4550  175.7350  136.8100 C   0  0  0  0  0  3  0  0  0  0  0  0
  188.3930  176.2530  135.4990 C   0  0  0  0  0  2  0  0  0  0  0  0
  186.9850  176.7740  135.7440 C   0  0  0  0  0  2  0  0  0  0  0  0
  184.6040  175.9990  135.5380 C   0  0  0  0  0  0  0  0  0  0  0  0
  184.2010  177.0370  136.1290 O   0  0  0  0  0  0  0  0  0  0  0  0
  186.0050  175.7950  135.3090 N   0  0  0  0  0  2  0  0  0  0  0  0
  183.6660  175.0680  135.0840 O   0  0  0  0  0  0  0  0  0  0  0  0
  182.1130  171.8500  136.2350 C   0  0  2  0  0  0  0  0  0  0  0  0
  181.6800  171.6840  137.6320 C   0  0  0  0  0  2  0  0  0  0  0  0
  183.9700  171.4060  134.6030 C   0  0  0  0  0  2  0  0  0  0  0  0
  184.5430  172.8000  134.9180 C   0  0  1  0  0  3  0  0  0  0  0  0
  180.8530  171.3160  136.5460 O   0  0  0  0  0  0  0  0  0  0  0  0
  183.1360  170.8290  135.7500 C   0  0  0  0  0  2  0  0  0  0  0  0
  182.1120  173.2820  135.7080 C   0  0  1  0  0  3  0  0  0  0  0  0
  183.5690  173.7610  135.6380 C   0  0  2  0  0  3  0  0  0  0  0  0
  180.0460  173.3180  134.5080 O   0  0  0  0  0  1  0  0  0  0  0  0
  181.4300  173.3580  134.3460 C   0  0  0  0  0  2  0  0  0  0  0  0
  185.8690  172.7060  135.6630 C   0  0  0  0  0  2  0  0  0  0  0  0
  185.6850  172.9240  137.0320 O   0  0  0  0  0  1  0  0  0  0  0  0
  192.4950  175.1930  138.0400 O   0  0  0  0  0  0  0  0  0  0  0  0
  193.2530  174.8260  136.8910 C   0  0  0  0  0  2  0  0  0  0  0  0
  194.5430  175.9820  135.1210 C   0  0  0  0  0  1  0  0  0  0  0  0
  194.3220  175.8700  136.6150 C   0  0  0  0  0  2  0  0  0  0  0  0
  187.7630  178.7920  139.7330 C   0  0  0  0  0  2  0  0  0  0  0  0
  186.7860  178.8190  140.8070 N   0  0  0  0  0  2  0  0  0  0  0  0
  185.6770  179.5280  140.3320 N   0  0  0  0  0  2  0  0  0  0  0  0
  185.3250  178.9430  139.0470 C   0  0  0  0  0  2  0  0  0  0  0  0
  184.0000  179.3980  138.6400 N   0  0  0  0  0  0  0  0  0  0  0  0
  182.9120  179.2020  139.3230 C   0  0  0  0  0  0  0  0  0  0  0  0
  183.2010  177.1960  140.5980 N   0  0  0  0  0  2  0  0  0  0  0  0
  182.8870  179.1960  141.8220 N   0  0  0  0  0  2  0  0  0  0  0  0
  182.9210  178.4580  140.5980 C   0  0  0  0  0  0  0  0  0  0  0  0
  183.1280  178.5840  143.1200 C   0  0  0  0  0  2  0  0  0  0  0  0
  184.1960  179.3800  143.8520 C   0  0  0  0  0  2  0  0  0  0  0  0
  184.6770  178.6530  145.1020 C   0  0  2  0  0  3  0  0  0  0  0  0
  183.7300  178.7680  146.1230 O   0  0  0  0  0  1  0  0  0  0  0  0
  185.9120  179.1530  145.5260 O   0  0  0  0  0  0  0  0  0  0  0  0
  186.8510  178.5460  144.6870 C   0  0  0  0  0  2  0  0  0  0  0  0
  186.8370  177.0460  144.9130 C   0  0  0  0  0  2  0  0  0  0  0  0
  188.0360  176.6490  145.7560 C   0  0  0  0  0  2  0  0  0  0  0  0
  189.1010  177.7380  145.7150 C   0  0  1  0  0  3  0  0  0  0  0  0
  189.0770  178.4710  146.9020 O   0  0  0  0  0  1  0  0  0  0  0  0
  190.4760  177.1160  145.5400 C   0  0  0  0  0  2  0  0  0  0  0  0
  190.9310  177.3140  144.2370 O   0  0  0  0  0  0  0  0  0  0  0  0
  190.3710  178.4870  143.8540 N   0  0  0  0  0  1  0  0  0  0  0  0
  181.6290  179.6600  138.7670 C   0  0  0  0  0  0  0  0  0  0  0  0
  181.1950  180.8100  139.0540 O   0  0  0  0  0  0  0  0  0  0  0  0
  180.8930  178.8140  137.9330 O   0  0  0  0  0  0  0  0  0  0  0  0
  181.5230  178.0160  136.9430 C   0  0  0  0  0  2  0  0  0  0  0  0
  180.0670  179.5180  135.6310 C   0  0  0  0  0  2  0  0  0  0  0  0
  179.9840  178.1330  135.0230 C   0  0  0  0  0  2  0  0  0  0  0  0
  181.2980  178.6380  135.5790 C   0  0  0  0  0  3  0  0  0  0  0  0
  2  6  1  0  0  0  0
  3  4  2  0  0  0  0
  4  2  1  0  0  0  0
  4  1  1  0  0  0  0
  5 27  1  0  0  0  0
  5  2  2  0  0  0  0
  7  8  2  0  0  0  0
  7  3  1  0  0  0  0
  8  5  1  0  0  0  0
  9 10  1  0  0  0  0
  9  7  1  0  0  0  0
 11 12  2  0  0  0  0
 13 11  1  0  0  0  0
 13 10  1  0  0  0  0
 14 11  1  0  0  0  0
 15 20  1  6  0  0  0
 15 19  1  0  0  0  0
 15 16  1  0  0  0  0
 17 18  1  0  0  0  0
 17 20  1  0  0  0  0
 18 22  1  0  0  0  0
 18 25  1  1  0  0  0
 19 16  1  0  0  0  0
 21 24  1  6  0  0  0
 21 15  1  0  0  0  0
 22 14  1  6  0  0  0
 22 21  1  0  0  0  0
 24 23  1  0  0  0  0
 25 26  1  0  0  0  0
 28 27  1  0  0  0  0
 29 30  1  0  0  0  0
 30 28  1  0  0  0  0
 31  1  1  0  0  0  0
 31 32  1  0  0  0  0
 33 32  1  0  0  0  0
 34 33  1  0  0  0  0
 35 34  1  0  0  0  0
 35 36  2  0  0  0  0
 36 39  1  0  0  0  0
 38 40  1  0  0  0  0
 39 37  2  0  0  0  0
 39 38  1  0  0  0  0
 40 41  1  0  0  0  0
 41 42  1  0  0  0  0
 42 44  1  0  0  0  0
 42 43  1  1  0  0  0
 45 46  1  0  0  0  0
 45 44  1  0  0  0  0
 46 47  1  0  0  0  0
 48 47  1  0  0  0  0
 48 49  1  1  0  0  0
 50 48  1  0  0  0  0
 51 50  1  0  0  0  0
 52 51  1  0  0  0  0
 53 54  2  0  0  0  0
 53 36  1  0  0  0  0
 55 53  1  0  0  0  0
 56 55  1  0  0  0  0
 58 59  1  0  0  0  0
 58 57  1  0  0  0  0
 59 57  1  0  0  0  0
 59 56  1  0  0  0  0
M  END
>  <MODEL>
7

>  <REMARK>
 VINA RESULT:      -4.2      2.408      8.199
  Name = 
  31 active torsions:
  status: ('A' for Active; 'I' for Inactive)
    1  A    between atoms: O_2  and  C_19
    2  A    between atoms: O_2  and  C_21
    3  A    between atoms: C_3  and  C_10
    4  A    between atoms: C_3  and  C_41
    5  A    between atoms: C_5  and  C_30
    6  A    between atoms: C_5  and  O_37
    7  A    between atoms: C_9  and  C_12
    8  A    between atoms: C_9  and  C_52
    9  A    between atoms: C_10  and  N_27
   10  A    between atoms: C_13  and  C_53
   11  A    between atoms: C_13  and  O_55
   12  A    between atoms: C_14  and  C_16
   13  A    between atoms: C_14  and  N_59
   14  A    between atoms: C_15  and  C_18
   15  A    between atoms: C_16  and  C_29
   16  A    between atoms: C_17  and  N_32
   17  A    between atoms: C_17  and  N_49
   18  A    between atoms: C_19  and  C_54
   19  A    between atoms: C_20  and  C_30
   20  A    between atoms: C_20  and  C_53
   21  A    between atoms: C_24  and  O_34
   22  A    between atoms: C_26  and  C_48
   23  A    between atoms: C_28  and  O_50
   24  A    between atoms: C_28  and  C_56
   25  A    between atoms: C_31  and  C_33
   26  A    between atoms: C_31  and  O_50
   27  A    between atoms: C_33  and  C_51
   28  A    between atoms: O_34  and  C_58
   29  A    between atoms: C_41  and  O_55
   30  A    between atoms: N_46  and  N_49
   31  A    between atoms: N_46  and  C_52
                            x       y       z     vdW  Elec       q    Type
                         _______ _______ _______ _____ _____    ______ ____

>  <TORSDO>
F 31

$$$$
=
 OpenBabel10232409513D

 59 62  0  0  1  0  0  0  0  0999 V2000
  186.4570  179.0500  141.4790 C   0  0  0  0  0  2  0  0  0  0  0  0
  188.2510  177.5090  142.4020 C   0  0  0  0  0  0  0  0  0  0  0  0
  188.3740  178.2840  140.1000 C   0  0  0  0  0  3  0  0  0  0  0  0
  187.7240  178.2690  141.3360 C   0  0  0  0  0  0  0  0  0  0  0  0
  189.4260  176.7580  142.2090 C   0  0  0  0  0  0  0  0  0  0  0  0
  187.5680  177.4830  143.7340 C   0  0  0  0  0  1  0  0  0  0  0  0
  189.5350  177.5300  139.9020 C   0  0  0  0  0  0  0  0  0  0  0  0
  190.0560  176.7720  140.9550 C   0  0  0  0  0  3  0  0  0  0  0  0
  190.2240  177.5180  138.5760 C   0  0  0  0  0  2  0  0  0  0  0  0
  189.6230  176.4470  137.6790 C   0  0  0  0  0  2  0  0  0  0  0  0
  191.3880  175.5010  136.1620 C   0  0  0  0  0  0  0  0  0  0  0  0
  191.2060  176.4430  135.3420 O   0  0  0  0  0  0  0  0  0  0  0  0
  190.6180  175.4360  137.3700 N   0  0  0  0  0  2  0  0  0  0  0  0
  192.3680  174.5440  135.8890 O   0  0  0  0  0  0  0  0  0  0  0  0
  195.7120  173.5660  137.2880 C   0  0  2  0  0  0  0  0  0  0  0  0
  195.9720  173.6460  138.7340 C   0  0  0  0  0  2  0  0  0  0  0  0
  195.9810  174.7570  135.0930 C   0  0  0  0  0  2  0  0  0  0  0  0
  194.5810  175.3680  135.2840 C   0  0  1  0  0  3  0  0  0  0  0  0
  196.3200  172.5050  137.9760 O   0  0  0  0  0  0  0  0  0  0  0  0
  196.6570  174.3850  136.4160 C   0  0  0  0  0  2  0  0  0  0  0  0
  194.2560  173.3470  136.8880 C   0  0  1  0  0  3  0  0  0  0  0  0
  193.7060  174.6780  136.3550 C   0  0  2  0  0  3  0  0  0  0  0  0
  193.1470  171.3340  136.2330 O   0  0  0  0  0  1  0  0  0  0  0  0
  194.1390  172.2360  135.8510 C   0  0  0  0  0  2  0  0  0  0  0  0
  194.6520  176.8710  135.5220 C   0  0  0  0  0  2  0  0  0  0  0  0
  195.9750  177.3190  135.4690 O   0  0  0  0  0  1  0  0  0  0  0  0
  189.9480  176.0060  143.2720 O   0  0  0  0  0  0  0  0  0  0  0  0
  191.3250  176.0190  143.6360 C   0  0  0  0  0  2  0  0  0  0  0  0
  190.6140  176.9300  145.8260 C   0  0  0  0  0  1  0  0  0  0  0  0
  191.5810  177.0990  144.6720 C   0  0  0  0  0  2  0  0  0  0  0  0
  185.7480  179.1770  140.1440 C   0  0  0  0  0  2  0  0  0  0  0  0
  186.0610  178.0210  139.3220 N   0  0  0  0  0  2  0  0  0  0  0  0
  184.9730  177.8250  138.4630 N   0  0  0  0  0  2  0  0  0  0  0  0
  184.1700  179.0380  138.5190 C   0  0  0  0  0  2  0  0  0  0  0  0
  183.0780  178.8670  139.4700 N   0  0  0  0  0  0  0  0  0  0  0  0
  181.8210  179.0370  139.1860 C   0  0  0  0  0  0  0  0  0  0  0  0
  180.7980  180.5960  137.6850 N   0  0  0  0  0  2  0  0  0  0  0  0
  181.8400  178.7100  136.7090 N   0  0  0  0  0  2  0  0  0  0  0  0
  181.3800  179.4520  137.8400 C   0  0  0  0  0  0  0  0  0  0  0  0
  181.6620  179.1670  135.3390 C   0  0  0  0  0  2  0  0  0  0  0  0
  182.1450  178.0830  134.3890 C   0  0  0  0  0  2  0  0  0  0  0  0
  182.8520  176.9590  135.1370 C   0  0  2  0  0  3  0  0  0  0  0  0
  184.1840  177.3030  135.3810 O   0  0  0  0  0  1  0  0  0  0  0  0
  182.7830  175.7610  134.4190 O   0  0  0  0  0  0  0  0  0  0  0  0
  182.8330  174.7580  135.3910 C   0  0  0  0  0  2  0  0  0  0  0  0
  181.7660  173.7200  135.1030 C   0  0  0  0  0  2  0  0  0  0  0  0
  182.4050  172.3450  135.0140 C   0  0  0  0  0  2  0  0  0  0  0  0
  183.6030  172.2520  135.9520 C   0  0  1  0  0  3  0  0  0  0  0  0
  183.1710  171.9780  137.2490 O   0  0  0  0  0  1  0  0  0  0  0  0
  184.5400  171.1480  135.4940 C   0  0  0  0  0  2  0  0  0  0  0  0
  183.8490  170.2260  134.7090 O   0  0  0  0  0  0  0  0  0  0  0  0
  183.8560  169.0840  135.4390 N   0  0  0  0  0  1  0  0  0  0  0  0
  180.8230  178.8920  140.2580 C   0  0  0  0  0  0  0  0  0  0  0  0
  180.2980  179.9190  140.7700 O   0  0  0  0  0  0  0  0  0  0  0  0
  180.4690  177.6180  140.7090 O   0  0  0  0  0  0  0  0  0  0  0  0
  181.0960  176.4500  140.2030 C   0  0  0  0  0  2  0  0  0  0  0  0
  180.4310  174.1050  139.8140 C   0  0  0  0  0  2  0  0  0  0  0  0
  180.7000  174.7470  138.4690 C   0  0  0  0  0  2  0  0  0  0  0  0
  180.0510  175.5500  139.5750 C   0  0  0  0  0  3  0  0  0  0  0  0
  2  6  1  0  0  0  0
  3  4  1  0  0  0  0
  4  1  1  0  0  0  0
  4  2  2  0  0  0  0
  5  2  1  0  0  0  0
  5 27  1  0  0  0  0
  7  3  2  0  0  0  0
  7  8  1  0  0  0  0
  8  5  2  0  0  0  0
  9  7  1  0  0  0  0
 10  9  1  0  0  0  0
 11 13  1  0  0  0  0
 12 11  2  0  0  0  0
 13 10  1  0  0  0  0
 14 11  1  0  0  0  0
 15 20  1  6  0  0  0
 15 19  1  0  0  0  0
 15 16  1  0  0  0  0
 17 18  1  0  0  0  0
 17 20  1  0  0  0  0
 18 25  1  1  0  0  0
 18 22  1  0  0  0  0
 19 16  1  0  0  0  0
 21 24  1  6  0  0  0
 21 15  1  0  0  0  0
 22 14  1  6  0  0  0
 22 21  1  0  0  0  0
 24 23  1  0  0  0  0
 26 25  1  0  0  0  0
 27 28  1  0  0  0  0
 28 30  1  0  0  0  0
 30 29  1  0  0  0  0
 31  1  1  0  0  0  0
 32 31  1  0  0  0  0
 33 34  1  0  0  0  0
 33 32  1  0  0  0  0
 34 35  1  0  0  0  0
 36 35  2  0  0  0  0
 36 53  1  0  0  0  0
 37 39  2  0  0  0  0
 38 39  1  0  0  0  0
 39 36  1  0  0  0  0
 40 38  1  0  0  0  0
 41 42  1  0  0  0  0
 41 40  1  0  0  0  0
 42 43  1  6  0  0  0
 44 42  1  0  0  0  0
 44 45  1  0  0  0  0
 46 45  1  0  0  0  0
 47 46  1  0  0  0  0
 47 48  1  0  0  0  0
 48 49  1  1  0  0  0
 50 48  1  0  0  0  0
 51 52  1  0  0  0  0
 51 50  1  0  0  0  0
 53 55  1  0  0  0  0
 53 54  2  0  0  0  0
 56 55  1  0  0  0  0
 58 59  1  0  0  0  0
 58 57  1  0  0  0  0
 59 57  1  0  0  0  0
 59 56  1  0  0  0  0
M  END
>  <MODEL>
8

>  <REMARK>
 VINA RESULT:      -3.8      2.541      4.396
  Name = 
  31 active torsions:
  status: ('A' for Active; 'I' for Inactive)
    1  A    between atoms: O_2  and  C_19
    2  A    between atoms: O_2  and  C_21
    3  A    between atoms: C_3  and  C_10
    4  A    between atoms: C_3  and  C_41
    5  A    between atoms: C_5  and  C_30
    6  A    between atoms: C_5  and  O_37
    7  A    between atoms: C_9  and  C_12
    8  A    between atoms: C_9  and  C_52
    9  A    between atoms: C_10  and  N_27
   10  A    between atoms: C_13  and  C_53
   11  A    between atoms: C_13  and  O_55
   12  A    between atoms: C_14  and  C_16
   13  A    between atoms: C_14  and  N_59
   14  A    between atoms: C_15  and  C_18
   15  A    between atoms: C_16  and  C_29
   16  A    between atoms: C_17  and  N_32
   17  A    between atoms: C_17  and  N_49
   18  A    between atoms: C_19  and  C_54
   19  A    between atoms: C_20  and  C_30
   20  A    between atoms: C_20  and  C_53
   21  A    between atoms: C_24  and  O_34
   22  A    between atoms: C_26  and  C_48
   23  A    between atoms: C_28  and  O_50
   24  A    between atoms: C_28  and  C_56
   25  A    between atoms: C_31  and  C_33
   26  A    between atoms: C_31  and  O_50
   27  A    between atoms: C_33  and  C_51
   28  A    between atoms: O_34  and  C_58
   29  A    between atoms: C_41  and  O_55
   30  A    between atoms: N_46  and  N_49
   31  A    between atoms: N_46  and  C_52
                            x       y       z     vdW  Elec       q    Type
                         _______ _______ _______ _____ _____    ______ ____

>  <TORSDO>
F 31

$$$$
=
 OpenBabel10232409513D

 59 62  0  0  1  0  0  0  0  0999 V2000
  188.6630  177.2260  137.9490 C   0  0  0  0  0  2  0  0  0  0  0  0
  190.6250  175.6470  137.6290 C   0  0  0  0  0  0  0  0  0  0  0  0
  188.3740  174.9270  137.0560 C   0  0  0  0  0  3  0  0  0  0  0  0
  189.2420  175.9120  137.5300 C   0  0  0  0  0  0  0  0  0  0  0  0
  191.1200  174.3820  137.2590 C   0  0  0  0  0  0  0  0  0  0  0  0
  191.5710  176.6920  138.1320 C   0  0  0  0  0  1  0  0  0  0  0  0
  188.8610  173.6660  136.6990 C   0  0  0  0  0  0  0  0  0  0  0  0
  190.2290  173.3980  136.8010 C   0  0  0  0  0  3  0  0  0  0  0  0
  187.9370  172.5970  136.2160 C   0  0  0  0  0  2  0  0  0  0  0  0
  187.7850  172.6730  134.7050 C   0  0  0  0  0  2  0  0  0  0  0  0
  185.3030  172.9740  134.9420 C   0  0  0  0  0  0  0  0  0  0  0  0
  185.2530  172.0220  135.7690 O   0  0  0  0  0  0  0  0  0  0  0  0
  186.5540  173.3590  134.3580 N   0  0  0  0  0  2  0  0  0  0  0  0
  184.1280  173.6630  134.6300 O   0  0  0  0  0  0  0  0  0  0  0  0
  184.2420  176.8630  136.5880 C   0  0  2  0  0  0  0  0  0  0  0  0
  184.4050  176.8420  138.0510 C   0  0  0  0  0  2  0  0  0  0  0  0
  182.5730  177.0260  134.7180 C   0  0  0  0  0  2  0  0  0  0  0  0
  182.5130  175.4880  134.6750 C   0  0  1  0  0  3  0  0  0  0  0  0
  185.1700  177.6990  137.2290 O   0  0  0  0  0  0  0  0  0  0  0  0
  182.9870  177.5700  136.0890 C   0  0  0  0  0  2  0  0  0  0  0  0
  184.8310  175.6720  135.8400 C   0  0  1  0  0  3  0  0  0  0  0  0
  183.6710  174.7670  135.4030 C   0  0  2  0  0  3  0  0  0  0  0  0
  186.0920  177.4470  134.8530 O   0  0  0  0  0  1  0  0  0  0  0  0
  185.6600  176.1370  134.6470 C   0  0  0  0  0  2  0  0  0  0  0  0
  181.1610  174.9660  135.1480 C   0  0  0  0  0  2  0  0  0  0  0  0
  181.1850  174.6990  136.5190 O   0  0  0  0  0  1  0  0  0  0  0  0
  192.4950  174.1220  137.3560 O   0  0  0  0  0  0  0  0  0  0  0  0
  193.2580  173.5480  136.2990 C   0  0  0  0  0  2  0  0  0  0  0  0
  194.8400  173.4520  138.2020 C   0  0  0  0  0  1  0  0  0  0  0  0
  194.7230  173.4750  136.6920 C   0  0  0  0  0  2  0  0  0  0  0  0
  189.6610  178.0160  138.7740 C   0  0  0  0  0  2  0  0  0  0  0  0
  188.9570  178.7350  139.8210 N   0  0  0  0  0  2  0  0  0  0  0  0
  188.4870  177.7780  140.7280 N   0  0  0  0  0  2  0  0  0  0  0  0
  187.5380  178.4560  141.5980 C   0  0  0  0  0  2  0  0  0  0  0  0
  186.3430  178.8160  140.8440 N   0  0  0  0  0  0  0  0  0  0  0  0
  185.2700  179.3320  141.3660 C   0  0  0  0  0  0  0  0  0  0  0  0
  185.1820  180.8010  143.2530 N   0  0  0  0  0  2  0  0  0  0  0  0
  184.7620  178.5110  143.6710 N   0  0  0  0  0  2  0  0  0  0  0  0
  185.1590  179.5850  142.8150 C   0  0  0  0  0  0  0  0  0  0  0  0
  184.3950  178.7060  145.0650 C   0  0  0  0  0  2  0  0  0  0  0  0
  184.7900  177.4700  145.8570 C   0  0  0  0  0  2  0  0  0  0  0  0
  185.7840  177.8080  146.9620 C   0  0  2  0  0  3  0  0  0  0  0  0
  185.8800  179.1930  147.1210 O   0  0  0  0  0  1  0  0  0  0  0  0
  187.0420  177.2620  146.6860 O   0  0  0  0  0  0  0  0  0  0  0  0
  187.1400  177.2770  145.2920 C   0  0  0  0  0  2  0  0  0  0  0  0
  188.4280  177.9650  144.8830 C   0  0  0  0  0  2  0  0  0  0  0  0
  189.6080  177.2570  145.5260 C   0  0  0  0  0  2  0  0  0  0  0  0
  190.8250  177.3080  144.6110 C   0  0  1  0  0  3  0  0  0  0  0  0
  191.8890  177.9270  145.2680 O   0  0  0  0  0  1  0  0  0  0  0  0
  191.2350  175.9030  144.2100 C   0  0  0  0  0  2  0  0  0  0  0  0
  190.9370  175.6780  142.8670 O   0  0  0  0  0  0  0  0  0  0  0  0
  189.7700  174.9880  142.8870 N   0  0  0  0  0  1  0  0  0  0  0  0
  184.1090  179.5910  140.4990 C   0  0  0  0  0  0  0  0  0  0  0  0
  184.2870  179.9420  139.3000 O   0  0  0  0  0  0  0  0  0  0  0  0
  182.8170  179.4550  141.0120 O   0  0  0  0  0  0  0  0  0  0  0  0
  182.2400  178.1790  141.2430 C   0  0  0  0  0  2  0  0  0  0  0  0
  180.3040  176.9110  140.3840 C   0  0  0  0  0  2  0  0  0  0  0  0
  181.5660  176.2060  139.9330 C   0  0  0  0  0  2  0  0  0  0  0  0
  181.5230  177.7170  139.9900 C   0  0  0  0  0  3  0  0  0  0  0  0
  1 31  1  0  0  0  0
  2  6  1  0  0  0  0
  3  4  2  0  0  0  0
  4  2  1  0  0  0  0
  4  1  1  0  0  0  0
  5 27  1  0  0  0  0
  5  2  2  0  0  0  0
  7  8  2  0  0  0  0
  7  3  1  0  0  0  0
  8  5  1  0  0  0  0
  9  7  1  0  0  0  0
 10  9  1  0  0  0  0
 11 12  2  0  0  0  0
 13 10  1  0  0  0  0
 13 11  1  0  0  0  0
 14 11  1  0  0  0  0
 15 20  1  6  0  0  0
 15 19  1  0  0  0  0
 15 16  1  0  0  0  0
 17 20  1  0  0  0  0
 18 17  1  0  0  0  0
 18 25  1  1  0  0  0
 18 22  1  0  0  0  0
 19 16  1  0  0  0  0
 21 24  1  6  0  0  0
 21 15  1  0  0  0  0
 22 14  1  6  0  0  0
 22 21  1  0  0  0  0
 24 23  1  0  0  0  0
 25 26  1  0  0  0  0
 28 30  1  0  0  0  0
 28 27  1  0  0  0  0
 30 29  1  0  0  0  0
 31 32  1  0  0  0  0
 32 33  1  0  0  0  0
 33 34  1  0  0  0  0
 35 36  2  0  0  0  0
 35 34  1  0  0  0  0
 36 39  1  0  0  0  0
 38 40  1  0  0  0  0
 39 37  2  0  0  0  0
 39 38  1  0  0  0  0
 40 41  1  0  0  0  0
 41 42  1  0  0  0  0
 42 43  1  6  0  0  0
 44 42  1  0  0  0  0
 45 44  1  0  0  0  0
 46 45  1  0  0  0  0
 46 47  1  0  0  0  0
 48 49  1  1  0  0  0
 48 47  1  0  0  0  0
 50 48  1  0  0  0  0
 51 52  1  0  0  0  0
 51 50  1  0  0  0  0
 53 55  1  0  0  0  0
 53 36  1  0  0  0  0
 54 53  2  0  0  0  0
 55 56  1  0  0  0  0
 58 59  1  0  0  0  0
 58 57  1  0  0  0  0
 59 57  1  0  0  0  0
 59 56  1  0  0  0  0
M  END
>  <MODEL>
9

>  <REMARK>
 VINA RESULT:      -3.6      2.311      8.299
  Name = 
  31 active torsions:
  status: ('A' for Active; 'I' for Inactive)
    1  A    between atoms: O_2  and  C_19
    2  A    between atoms: O_2  and  C_21
    3  A    between atoms: C_3  and  C_10
    4  A    between atoms: C_3  and  C_41
    5  A    between atoms: C_5  and  C_30
    6  A    between atoms: C_5  and  O_37
    7  A    between atoms: C_9  and  C_12
    8  A    between atoms: C_9  and  C_52
    9  A    between atoms: C_10  and  N_27
   10  A    between atoms: C_13  and  C_53
   11  A    between atoms: C_13  and  O_55
   12  A    between atoms: C_14  and  C_16
   13  A    between atoms: C_14  and  N_59
   14  A    between atoms: C_15  and  C_18
   15  A    between atoms: C_16  and  C_29
   16  A    between atoms: C_17  and  N_32
   17  A    between atoms: C_17  and  N_49
   18  A    between atoms: C_19  and  C_54
   19  A    between atoms: C_20  and  C_30
   20  A    between atoms: C_20  and  C_53
   21  A    between atoms: C_24  and  O_34
   22  A    between atoms: C_26  and  C_48
   23  A    between atoms: C_28  and  O_50
   24  A    between atoms: C_28  and  C_56
   25  A    between atoms: C_31  and  C_33
   26  A    between atoms: C_31  and  O_50
   27  A    between atoms: C_33  and  C_51
   28  A    between atoms: O_34  and  C_58
   29  A    between atoms: C_41  and  O_55
   30  A    between atoms: N_46  and  N_49
   31  A    between atoms: N_46  and  C_52
                            x       y       z     vdW  Elec       q    Type
                         _______ _______ _______ _____ _____    ______ ____

>  <TORSDO>
F 31

$$$$
