=
 OpenBabel10222421273D

 69 77  0  0  1  0  0  0  0  0999 V2000
  184.4880  179.0010  140.2790 C   0  0  2  0  0  3  0  0  0  0  0  0
  190.2130  176.9350  138.4400 C   0  0  0  0  0  2  0  0  0  0  0  0
  188.2540  178.0160  141.0460 S   0  0  0  0  0  0  0  0  0  0  0  0
  185.9450  178.6680  140.2000 C   0  0  0  0  0  0  0  0  0  0  0  0
  186.6700  178.2790  139.0730 C   0  0  0  0  0  0  0  0  0  0  0  0
  186.6920  178.5790  141.3600 C   0  0  0  0  0  0  0  0  0  0  0  0
  187.0890  177.8160  136.7240 C   0  0  0  0  0  3  0  0  0  0  0  0
  186.2120  178.2550  137.7410 C   0  0  0  0  0  3  0  0  0  0  0  0
  188.8220  177.4430  138.3840 C   0  0  0  0  0  0  0  0  0  0  0  0
  187.9700  177.8790  139.3870 C   0  0  0  0  0  0  0  0  0  0  0  0
  191.6300  176.1150  136.4500 N   0  0  0  0  0  2  0  0  0  0  0  0
  188.3860  177.4190  137.0820 C   0  0  0  0  0  0  0  0  0  0  0  0
  184.1910  179.6390  141.5350 O   0  0  0  0  0  0  0  0  0  0  0  0
  184.9800  179.4990  142.6930 C   0  0  0  0  0  0  0  0  0  0  0  0
  190.4160  176.6610  136.9700 C   0  0  0  0  0  0  0  0  0  0  0  0
  189.3940  176.9370  136.2150 N   0  0  0  0  0  0  0  0  0  0  0  0
  186.1780  178.9880  142.6250 N   0  0  0  0  0  0  0  0  0  0  0  0
  191.8650  175.9370  135.0220 C   0  0  2  0  0  3  0  0  0  0  0  0
  191.0770  174.7300  134.5250 C   0  0  0  0  0  1  0  0  0  0  0  0
  195.0890  174.2870  135.5140 C   0  0  0  0  0  2  0  0  0  0  0  0
  194.2260  176.5170  135.7940 C   0  0  0  0  0  2  0  0  0  0  0  0
  194.9950  175.4240  136.5110 C   0  0  0  0  0  2  0  0  0  0  0  0
  193.8120  174.3560  134.7040 C   0  0  0  0  0  2  0  0  0  0  0  0
  193.3700  175.8130  134.7440 C   0  0  0  0  0  3  0  0  0  0  0  0
  184.4570  179.9740  144.0050 C   0  0  0  0  0  2  0  0  0  0  0  0
  184.1060  178.7830  144.8800 C   0  0  0  0  0  2  0  0  0  0  0  0
  184.5900  179.0440  146.3000 C   0  0  0  0  0  2  0  0  0  0  0  0
  185.2990  177.8140  146.8550 C   0  0  0  0  0  2  0  0  0  0  0  0
  186.8060  177.8880  146.6470 C   0  0  0  0  0  2  0  0  0  0  0  0
  187.4620  178.2400  147.8960 N   0  0  0  0  0  2  0  0  0  0  0  0
  188.8760  178.4190  147.6000 C   0  0  0  0  0  2  0  0  0  0  0  0
  188.9620  176.4170  146.3020 O   0  0  0  0  0  1  0  0  0  0  0  0
  189.5570  177.0720  147.3850 C   0  0  1  0  0  3  0  0  0  0  0  0
  191.0620  177.2400  147.1530 C   0  0  2  0  0  3  0  0  0  0  0  0
  192.5910  175.3960  146.9360 O   0  0  0  0  0  1  0  0  0  0  0  0
  191.6130  176.1290  146.2550 C   0  0  2  0  0  3  0  0  0  0  0  0
  191.6570  175.9360  143.7630 C   0  0  0  0  0  2  0  0  0  0  0  0
  190.8530  176.8430  142.9660 N   0  0  0  0  0  0  0  0  0  0  0  0
  191.7570  178.0850  144.7920 N   0  0  0  0  0  2  0  0  0  0  0  0
  191.6320  177.1590  141.7770 C   0  0  0  0  0  1  0  0  0  0  0  0
  192.1800  176.7040  144.9580 C   0  0  1  0  0  3  0  0  0  0  0  0
  190.7380  178.0700  143.7460 C   0  0  0  0  0  2  0  0  0  0  0  0
  191.6470  178.4920  148.8050 O   0  0  0  0  0  1  0  0  0  0  0  0
  191.7410  177.2490  148.3760 O   0  0  0  0  0  0  0  0  0  0  0  0
  183.6950  177.7040  140.1570 C   0  0  0  0  0  2  0  0  0  0  0  0
  181.2250  180.5180  137.6400 C   0  0  1  0  0  3  0  0  0  0  0  0
  180.6310  179.6780  138.7570 C   0  0  0  0  0  2  0  0  0  0  0  0
  181.4870  175.9130  137.5900 C   0  0  0  0  0  2  0  0  0  0  0  0
  182.9780  177.5250  138.8230 C   0  0  1  0  0  3  0  0  0  0  0  0
  181.5050  179.0160  137.7100 C   0  0  1  0  0  0  0  0  0  0  0  0
  181.7580  176.6040  138.9290 C   0  0  0  0  0  2  0  0  0  0  0  0
  181.4230  176.8090  136.4230 N   0  0  0  0  0  0  0  0  0  0  0  0
  180.7890  178.1130  136.6720 C   0  0  0  0  0  2  0  0  0  0  0  0
  182.8370  178.7520  138.1090 O   0  0  0  0  0  0  0  0  0  0  0  0
  182.7360  176.9670  135.8150 C   0  0  0  0  0  2  0  0  0  0  0  0
  182.8630  174.7220  135.0580 O   0  0  0  0  0  0  0  0  0  0  0  0
  184.6730  175.4540  136.3680 N   0  0  0  0  0  2  0  0  0  0  0  0
  183.4020  175.6410  135.7310 C   0  0  0  0  0  0  0  0  0  0  0  0
  186.2760  174.1600  135.0690 C   0  0  0  0  0  3  0  0  0  0  0  0
  186.4520  172.2250  137.0760 C   0  0  0  0  0  3  0  0  0  0  0  0
  187.1030  173.0480  134.8970 C   0  0  0  0  0  3  0  0  0  0  0  0
  185.6200  173.3350  137.2440 C   0  0  0  0  0  3  0  0  0  0  0  0
  185.5280  174.3110  136.2390 C   0  0  0  0  0  0  0  0  0  0  0  0
  187.1920  172.0830  135.9020 C   0  0  0  0  0  3  0  0  0  0  0  0
  180.1220  180.8900  136.6580 C   0  0  0  0  0  2  0  0  0  0  0  0
  180.5510  182.0150  135.8440 N   0  0  0  0  0  2  0  0  0  0  0  0
  180.2460  183.5820  137.6970 O   0  0  0  0  0  1  0  0  0  0  0  0
  181.0820  184.2720  135.6720 O   0  0  0  0  0  0  0  0  0  0  0  0
  180.6410  183.3310  136.3860 C   0  0  0  0  0  0  0  0  0  0  0  0
  1 45  1  1  0  0  0
  1 13  1  0  0  0  0
  3  6  1  0  0  0  0
  4  1  1  0  0  0  0
  4  6  2  0  0  0  0
  5 10  1  0  0  0  0
  5  4  1  0  0  0  0
  6 17  1  0  0  0  0
  7 12  2  0  0  0  0
  7  8  1  0  0  0  0
  8  5  2  0  0  0  0
  9  2  1  0  0  0  0
  9 10  2  0  0  0  0
 10  3  1  0  0  0  0
 11 15  1  0  0  0  0
 12  9  1  0  0  0  0
 13 14  1  0  0  0  0
 14 25  1  0  0  0  0
 15  2  1  0  0  0  0
 16 15  2  0  0  0  0
 16 12  1  0  0  0  0
 17 14  2  0  0  0  0
 18 19  1  1  0  0  0
 18 11  1  0  0  0  0
 20 22  1  0  0  0  0
 21 22  1  0  0  0  0
 23 24  1  0  0  0  0
 23 20  1  0  0  0  0
 24 18  1  0  0  0  0
 24 21  1  0  0  0  0
 25 26  1  0  0  0  0
 26 27  1  0  0  0  0
 27 28  1  0  0  0  0
 29 28  1  0  0  0  0
 29 30  1  0  0  0  0
 31 30  1  0  0  0  0
 33 32  1  6  0  0  0
 33 31  1  0  0  0  0
 34 33  1  0  0  0  0
 34 44  1  1  0  0  0
 36 35  1  1  0  0  0
 36 34  1  0  0  0  0
 37 41  1  0  0  0  0
 38 42  1  0  0  0  0
 38 37  1  0  0  0  0
 39 41  1  0  0  0  0
 40 38  1  0  0  0  0
 41 36  1  1  0  0  0
 42 39  1  0  0  0  0
 44 43  1  0  0  0  0
 46 65  1  6  0  0  0
 46 50  1  0  0  0  0
 46 47  1  0  0  0  0
 48 51  1  0  0  0  0
 49 51  1  0  0  0  0
 49 45  1  1  0  0  0
 50 53  1  6  0  0  0
 50 54  1  0  0  0  0
 50 47  1  0  0  0  0
 52 53  1  0  0  0  0
 52 48  1  0  0  0  0
 54 49  1  0  0  0  0
 55 52  1  0  0  0  0
 56 58  2  0  0  0  0
 58 55  1  0  0  0  0
 58 57  1  0  0  0  0
 59 63  1  0  0  0  0
 60 62  1  0  0  0  0
 61 59  2  0  0  0  0
 61 64  1  0  0  0  0
 63 57  1  0  0  0  0
 63 62  2  0  0  0  0
 64 60  2  0  0  0  0
 66 69  1  0  0  0  0
 66 65  1  0  0  0  0
 68 69  2  0  0  0  0
 69 67  1  0  0  0  0
M  END
>  <MODEL>
1

>  <REMARK>
 VINA RESULT:      -6.6      0.000      0.000
  Name = 
  21 active torsions:
  status: ('A' for Active; 'I' for Inactive)
    1  A    between atoms: C_1  and  C_32
    2  A    between atoms: C_2  and  C_8
    3  A    between atoms: C_8  and  N_16
    4  A    between atoms: C_12  and  C_35
    5  A    between atoms: C_12  and  O_58
    6  A    between atoms: C_12  and  C_61
    7  A    between atoms: C_15  and  C_32
    8  A    between atoms: N_25  and  C_49
    9  A    between atoms: C_28  and  N_50
   10  A    between atoms: C_28  and  C_52
   11  A    between atoms: C_29  and  N_46
   12  A    between atoms: C_29  and  C_61
   13  A    between atoms: C_33  and  N_44
   14  A    between atoms: C_33  and  C_67
   15  A    between atoms: C_34  and  C_40
   16  A    between atoms: C_34  and  N_46
   17  A    between atoms: C_35  and  C_59
   18  A    between atoms: C_40  and  C_56
   19  A    between atoms: C_55  and  C_62
   20  A    between atoms: C_56  and  C_69
   21  A    between atoms: C_62  and  C_69
                            x       y       z     vdW  Elec       q    Type
                         _______ _______ _______ _____ _____    ______ ____

>  <TORSDO>
F 21

$$$$
=
 OpenBabel10222421273D

 69 77  0  0  1  0  0  0  0  0999 V2000
  189.7790  177.5430  139.5120 C   0  0  2  0  0  3  0  0  0  0  0  0
  184.5550  177.0710  135.9180 C   0  0  0  0  0  2  0  0  0  0  0  0
  187.9520  176.6070  136.1160 S   0  0  0  0  0  0  0  0  0  0  0  0
  188.8190  177.4040  138.3710 C   0  0  0  0  0  0  0  0  0  0  0  0
  187.4480  177.6630  138.3750 C   0  0  0  0  0  0  0  0  0  0  0  0
  189.2400  176.8260  137.1880 C   0  0  0  0  0  0  0  0  0  0  0  0
  185.3100  178.4220  139.2470 C   0  0  0  0  0  3  0  0  0  0  0  0
  186.7020  178.2470  139.4170 C   0  0  0  0  0  3  0  0  0  0  0  0
  185.4600  177.4320  137.0340 C   0  0  0  0  0  0  0  0  0  0  0  0
  186.8270  177.2640  137.1900 C   0  0  0  0  0  0  0  0  0  0  0  0
  182.0030  177.4220  135.8320 N   0  0  0  0  0  2  0  0  0  0  0  0
  184.7240  178.0030  138.0430 C   0  0  0  0  0  0  0  0  0  0  0  0
  191.1340  177.4720  139.0330 O   0  0  0  0  0  0  0  0  0  0  0  0
  191.5090  176.8540  137.8240 C   0  0  0  0  0  0  0  0  0  0  0  0
  183.2540  177.5540  136.5100 C   0  0  0  0  0  0  0  0  0  0  0  0
  183.3550  178.0790  137.6960 N   0  0  0  0  0  0  0  0  0  0  0  0
  190.6120  176.5340  136.9340 N   0  0  0  0  0  0  0  0  0  0  0  0
  180.7600  177.9730  136.3600 C   0  0  2  0  0  3  0  0  0  0  0  0
  181.0620  179.2460  137.1420 C   0  0  0  0  0  1  0  0  0  0  0  0
  180.3500  176.0800  139.4600 C   0  0  0  0  0  2  0  0  0  0  0  0
  180.6910  175.5450  137.1370 C   0  0  0  0  0  2  0  0  0  0  0  0
  181.2220  175.2600  138.5300 C   0  0  0  0  0  2  0  0  0  0  0  0
  179.9830  177.3220  138.6760 C   0  0  0  0  0  2  0  0  0  0  0  0
  180.0320  176.9200  137.2080 C   0  0  0  0  0  3  0  0  0  0  0  0
  192.9490  176.5960  137.5430 C   0  0  0  0  0  2  0  0  0  0  0  0
  193.0820  175.6570  136.3570 C   0  0  0  0  0  2  0  0  0  0  0  0
  193.5930  174.3070  136.8400 C   0  0  0  0  0  2  0  0  0  0  0  0
  192.6360  173.1960  136.4280 C   0  0  0  0  0  2  0  0  0  0  0  0
  193.1420  172.4360  135.2090 C   0  0  0  0  0  2  0  0  0  0  0  0
  194.3410  173.0740  134.6900 N   0  0  0  0  0  2  0  0  0  0  0  0
  195.4750  172.2670  135.1180 C   0  0  0  0  0  2  0  0  0  0  0  0
  196.5180  174.2830  134.3780 O   0  0  0  0  0  1  0  0  0  0  0  0
  196.7880  172.9910  134.8400 C   0  0  1  0  0  3  0  0  0  0  0  0
  197.6710  173.0380  136.0900 C   0  0  2  0  0  3  0  0  0  0  0  0
  198.1860  175.3440  136.5440 O   0  0  0  0  0  1  0  0  0  0  0  0
  197.3700  174.2780  136.9370 C   0  0  2  0  0  3  0  0  0  0  0  0
  198.2330  175.1430  139.1180 C   0  0  0  0  0  2  0  0  0  0  0  0
  197.3000  175.6970  140.0810 N   0  0  0  0  0  0  0  0  0  0  0  0
  196.2590  173.8070  139.0650 N   0  0  0  0  0  2  0  0  0  0  0  0
  197.7720  175.2970  141.3990 C   0  0  0  0  0  1  0  0  0  0  0  0
  197.5520  173.9830  138.4250 C   0  0  1  0  0  3  0  0  0  0  0  0
  196.0310  175.0160  139.8510 C   0  0  0  0  0  2  0  0  0  0  0  0
  199.1300  172.0290  134.8700 O   0  0  0  0  0  1  0  0  0  0  0  0
  199.0230  173.0230  135.7290 O   0  0  0  0  0  0  0  0  0  0  0  0
  189.5170  176.4070  140.4960 C   0  0  0  0  0  2  0  0  0  0  0  0
  191.3790  178.1660  144.2110 C   0  0  1  0  0  3  0  0  0  0  0  0
  191.2710  176.6690  143.9750 C   0  0  0  0  0  2  0  0  0  0  0  0
  187.2930  176.1130  143.6010 C   0  0  0  0  0  2  0  0  0  0  0  0
  188.9230  176.8510  141.8290 C   0  0  1  0  0  3  0  0  0  0  0  0
  190.0430  177.5420  143.8040 C   0  0  1  0  0  0  0  0  0  0  0  0
  188.4300  175.6720  142.6750 C   0  0  0  0  0  2  0  0  0  0  0  0
  187.5690  177.3150  144.4050 N   0  0  0  0  0  0  0  0  0  0  0  0
  188.9500  177.4320  144.8990 C   0  0  0  0  0  2  0  0  0  0  0  0
  189.7040  177.8600  142.4660 O   0  0  0  0  0  0  0  0  0  0  0  0
  187.1550  178.5200  143.7010 C   0  0  0  0  0  2  0  0  0  0  0  0
  185.2880  179.3390  144.9150 O   0  0  0  0  0  0  0  0  0  0  0  0
  184.7860  178.2690  142.8820 N   0  0  0  0  0  2  0  0  0  0  0  0
  185.6950  178.7240  143.8940 C   0  0  0  0  0  0  0  0  0  0  0  0
  182.6600  178.6290  144.0150 C   0  0  0  0  0  3  0  0  0  0  0  0
  181.3310  178.9480  141.5790 C   0  0  0  0  0  3  0  0  0  0  0  0
  181.2850  178.8690  143.9960 C   0  0  0  0  0  3  0  0  0  0  0  0
  182.7060  178.7000  141.6000 C   0  0  0  0  0  3  0  0  0  0  0  0
  183.3800  178.5400  142.8210 C   0  0  0  0  0  0  0  0  0  0  0  0
  180.6220  179.0300  142.7770 C   0  0  0  0  0  3  0  0  0  0  0  0
  191.5030  178.4250  145.7060 C   0  0  0  0  0  2  0  0  0  0  0  0
  192.0620  177.2530  146.3600 N   0  0  0  0  0  2  0  0  0  0  0  0
  190.2620  177.2120  148.0160 O   0  0  0  0  0  1  0  0  0  0  0  0
  191.8880  175.5920  147.9770 O   0  0  0  0  0  0  0  0  0  0  0  0
  191.4130  176.6470  147.4760 C   0  0  0  0  0  0  0  0  0  0  0  0
  1 45  1  1  0  0  0
  2 15  1  0  0  0  0
  2  9  1  0  0  0  0
  3  6  1  0  0  0  0
  3 10  1  0  0  0  0
  4  5  1  0  0  0  0
  4  1  1  0  0  0  0
  5  8  1  0  0  0  0
  6  4  2  0  0  0  0
  7  8  2  0  0  0  0
  9 10  1  0  0  0  0
  9 12  2  0  0  0  0
 10  5  2  0  0  0  0
 11 18  1  0  0  0  0
 11 15  1  0  0  0  0
 12  7  1  0  0  0  0
 13  1  1  0  0  0  0
 14 13  1  0  0  0  0
 15 16  2  0  0  0  0
 16 12  1  0  0  0  0
 17  6  1  0  0  0  0
 17 14  2  0  0  0  0
 18 19  1  1  0  0  0
 18 24  1  0  0  0  0
 21 24  1  0  0  0  0
 21 22  1  0  0  0  0
 22 20  1  0  0  0  0
 23 20  1  0  0  0  0
 24 23  1  0  0  0  0
 25 14  1  0  0  0  0
 26 27  1  0  0  0  0
 26 25  1  0  0  0  0
 28 27  1  0  0  0  0
 29 28  1  0  0  0  0
 30 31  1  0  0  0  0
 30 29  1  0  0  0  0
 33 32  1  1  0  0  0
 33 31  1  0  0  0  0
 33 34  1  0  0  0  0
 34 44  1  6  0  0  0
 34 36  1  0  0  0  0
 36 35  1  6  0  0  0
 37 38  1  0  0  0  0
 38 40  1  0  0  0  0
 39 42  1  0  0  0  0
 41 36  1  6  0  0  0
 41 39  1  0  0  0  0
 41 37  1  0  0  0  0
 42 38  1  0  0  0  0
 43 44  1  0  0  0  0
 46 65  1  1  0  0  0
 47 46  1  0  0  0  0
 48 52  1  0  0  0  0
 49 45  1  6  0  0  0
 49 54  1  0  0  0  0
 49 51  1  0  0  0  0
 50 47  1  6  0  0  0
 50 46  1  0  0  0  0
 50 53  1  0  0  0  0
 51 48  1  0  0  0  0
 52 53  1  0  0  0  0
 54 50  1  0  0  0  0
 55 58  1  0  0  0  0
 55 52  1  0  0  0  0
 57 58  1  0  0  0  0
 58 56  2  0  0  0  0
 60 62  2  0  0  0  0
 60 64  1  0  0  0  0
 61 59  1  0  0  0  0
 62 63  1  0  0  0  0
 63 57  1  0  0  0  0
 63 59  2  0  0  0  0
 64 61  2  0  0  0  0
 65 66  1  0  0  0  0
 66 69  1  0  0  0  0
 69 68  2  0  0  0  0
 69 67  1  0  0  0  0
M  END
>  <MODEL>
2

>  <REMARK>
 VINA RESULT:      -6.1      4.126     10.893
  Name = 
  21 active torsions:
  status: ('A' for Active; 'I' for Inactive)
    1  A    between atoms: C_1  and  C_32
    2  A    between atoms: C_2  and  C_8
    3  A    between atoms: C_8  and  N_16
    4  A    between atoms: C_12  and  C_35
    5  A    between atoms: C_12  and  O_58
    6  A    between atoms: C_12  and  C_61
    7  A    between atoms: C_15  and  C_32
    8  A    between atoms: N_25  and  C_49
    9  A    between atoms: C_28  and  N_50
   10  A    between atoms: C_28  and  C_52
   11  A    between atoms: C_29  and  N_46
   12  A    between atoms: C_29  and  C_61
   13  A    between atoms: C_33  and  N_44
   14  A    between atoms: C_33  and  C_67
   15  A    between atoms: C_34  and  C_40
   16  A    between atoms: C_34  and  N_46
   17  A    between atoms: C_35  and  C_59
   18  A    between atoms: C_40  and  C_56
   19  A    between atoms: C_55  and  C_62
   20  A    between atoms: C_56  and  C_69
   21  A    between atoms: C_62  and  C_69
                            x       y       z     vdW  Elec       q    Type
                         _______ _______ _______ _____ _____    ______ ____

>  <TORSDO>
F 21

$$$$
=
 OpenBabel10222421273D

 69 77  0  0  1  0  0  0  0  0999 V2000
  184.7530  178.8570  140.0010 C   0  0  2  0  0  3  0  0  0  0  0  0
  190.5530  176.7140  138.5160 C   0  0  0  0  0  2  0  0  0  0  0  0
  188.4570  177.8400  140.9940 S   0  0  0  0  0  0  0  0  0  0  0  0
  186.2090  178.5080  140.0100 C   0  0  0  0  0  0  0  0  0  0  0  0
  186.9940  178.1010  138.9300 C   0  0  0  0  0  0  0  0  0  0  0  0
  186.8860  178.4220  141.2120 C   0  0  0  0  0  0  0  0  0  0  0  0
  187.5430  177.6120  136.6140 C   0  0  0  0  0  3  0  0  0  0  0  0
  186.6140  178.0690  137.5740 C   0  0  0  0  0  3  0  0  0  0  0  0
  189.1730  177.2360  138.3750 C   0  0  0  0  0  0  0  0  0  0  0  0
  188.2690  177.6910  139.3230 C   0  0  0  0  0  0  0  0  0  0  0  0
  192.0740  175.8600  136.6190 N   0  0  0  0  0  2  0  0  0  0  0  0
  188.8130  177.2040  137.0500 C   0  0  0  0  0  0  0  0  0  0  0  0
  184.3910  179.5090  141.2310 O   0  0  0  0  0  0  0  0  0  0  0  0
  185.1100  179.3720  142.4350 C   0  0  0  0  0  0  0  0  0  0  0  0
  190.8380  176.4240  137.0630 C   0  0  0  0  0  0  0  0  0  0  0  0
  189.8650  176.7040  136.2480 N   0  0  0  0  0  0  0  0  0  0  0  0
  186.3040  178.8480  142.4410 N   0  0  0  0  0  0  0  0  0  0  0  0
  192.3890  175.6670  135.2090 C   0  0  2  0  0  3  0  0  0  0  0  0
  191.4160  174.6610  134.6050 C   0  0  0  0  0  1  0  0  0  0  0  0
  195.2320  173.5630  136.1330 C   0  0  0  0  0  2  0  0  0  0  0  0
  194.7860  175.9280  136.0410 C   0  0  0  0  0  2  0  0  0  0  0  0
  195.3130  174.8350  136.9520 C   0  0  0  0  0  2  0  0  0  0  0  0
  194.0210  173.7360  135.2410 C   0  0  0  0  0  2  0  0  0  0  0  0
  193.8550  175.2370  135.0480 C   0  0  0  0  0  3  0  0  0  0  0  0
  184.5170  179.8650  143.7100 C   0  0  0  0  0  2  0  0  0  0  0  0
  183.6450  178.7830  144.3230 C   0  0  0  0  0  2  0  0  0  0  0  0
  183.9310  178.6940  145.8160 C   0  0  0  0  0  2  0  0  0  0  0  0
  185.3570  178.2140  146.0570 C   0  0  0  0  0  2  0  0  0  0  0  0
  186.2740  179.3530  146.4820 C   0  0  0  0  0  2  0  0  0  0  0  0
  186.5600  179.2560  147.9040 N   0  0  0  0  0  2  0  0  0  0  0  0
  187.3900  178.0750  148.0930 C   0  0  0  0  0  2  0  0  0  0  0  0
  189.4230  178.3170  149.3230 O   0  0  0  0  0  1  0  0  0  0  0  0
  188.8700  178.4430  148.0450 C   0  0  1  0  0  3  0  0  0  0  0  0
  189.6270  177.5700  147.0400 C   0  0  2  0  0  3  0  0  0  0  0  0
  188.7280  178.0960  144.8710 O   0  0  0  0  0  1  0  0  0  0  0  0
  189.8290  178.3020  145.7100 C   0  0  2  0  0  3  0  0  0  0  0  0
  190.8340  176.7370  144.0390 C   0  0  0  0  0  2  0  0  0  0  0  0
  191.1550  177.2260  142.7120 N   0  0  0  0  0  0  0  0  0  0  0  0
  191.7010  178.9460  144.2720 N   0  0  0  0  0  2  0  0  0  0  0  0
  192.3920  176.5720  142.3110 C   0  0  0  0  0  1  0  0  0  0  0  0
  191.1180  177.8480  145.0260 C   0  0  1  0  0  3  0  0  0  0  0  0
  191.4470  178.6470  142.8650 C   0  0  0  0  0  2  0  0  0  0  0  0
  189.2960  175.5940  147.8300 O   0  0  0  0  0  1  0  0  0  0  0  0
  188.9390  176.3700  146.8270 O   0  0  0  0  0  0  0  0  0  0  0  0
  183.9550  177.5670  139.8440 C   0  0  0  0  0  2  0  0  0  0  0  0
  181.5210  180.8610  137.9500 C   0  0  1  0  0  3  0  0  0  0  0  0
  181.0340  180.0640  139.1490 C   0  0  0  0  0  2  0  0  0  0  0  0
  181.0170  176.2800  137.7510 C   0  0  0  0  0  2  0  0  0  0  0  0
  182.9660  177.5740  138.6830 C   0  0  1  0  0  3  0  0  0  0  0  0
  181.5610  179.3320  137.9300 C   0  0  1  0  0  0  0  0  0  0  0  0
  181.6590  176.8480  139.0200 C   0  0  0  0  0  2  0  0  0  0  0  0
  180.8670  177.2360  136.6420 N   0  0  0  0  0  0  0  0  0  0  0  0
  180.5160  178.6080  137.0430 C   0  0  0  0  0  2  0  0  0  0  0  0
  182.8860  178.8440  138.0400 O   0  0  0  0  0  0  0  0  0  0  0  0
  182.0390  177.2220  135.7790 C   0  0  0  0  0  2  0  0  0  0  0  0
  183.7810  175.6120  135.8280 O   0  0  0  0  0  0  0  0  0  0  0  0
  181.6240  174.7600  135.4420 N   0  0  0  0  0  2  0  0  0  0  0  0
  182.5510  175.8310  135.6690 C   0  0  0  0  0  0  0  0  0  0  0  0
  182.4450  172.7450  134.3480 C   0  0  0  0  0  3  0  0  0  0  0  0
  181.9640  171.2170  136.6360 C   0  0  0  0  0  3  0  0  0  0  0  0
  182.7250  171.3770  134.3460 C   0  0  0  0  0  3  0  0  0  0  0  0
  181.6780  172.5850  136.6340 C   0  0  0  0  0  3  0  0  0  0  0  0
  181.9190  173.3580  135.4880 C   0  0  0  0  0  0  0  0  0  0  0  0
  182.4850  170.6150  135.4910 C   0  0  0  0  0  3  0  0  0  0  0  0
  180.3190  181.4510  137.2260 C   0  0  0  0  0  2  0  0  0  0  0  0
  180.0110  182.7600  137.7750 N   0  0  0  0  0  2  0  0  0  0  0  0
  181.1990  183.8950  135.9630 O   0  0  0  0  0  0  0  0  0  0  0  0
  180.0810  185.0760  137.5840 O   0  0  0  0  0  1  0  0  0  0  0  0
  180.4230  183.9560  137.1160 C   0  0  0  0  0  0  0  0  0  0  0  0
  1 45  1  1  0  0  0
  1  4  1  0  0  0  0
  1 13  1  0  0  0  0
  3  6  1  0  0  0  0
  4  6  2  0  0  0  0
  5 10  1  0  0  0  0
  5  4  1  0  0  0  0
  6 17  1  0  0  0  0
  7 12  2  0  0  0  0
  7  8  1  0  0  0  0
  8  5  2  0  0  0  0
  9  2  1  0  0  0  0
  9 10  2  0  0  0  0
 10  3  1  0  0  0  0
 11 15  1  0  0  0  0
 12  9  1  0  0  0  0
 13 14  1  0  0  0  0
 14 17  2  0  0  0  0
 14 25  1  0  0  0  0
 15  2  1  0  0  0  0
 16 12  1  0  0  0  0
 16 15  2  0  0  0  0
 18 19  1  1  0  0  0
 18 11  1  0  0  0  0
 20 22  1  0  0  0  0
 21 22  1  0  0  0  0
 23 20  1  0  0  0  0
 24 18  1  0  0  0  0
 24 23  1  0  0  0  0
 24 21  1  0  0  0  0
 25 26  1  0  0  0  0
 26 27  1  0  0  0  0
 27 28  1  0  0  0  0
 28 29  1  0  0  0  0
 29 30  1  0  0  0  0
 30 31  1  0  0  0  0
 33 31  1  0  0  0  0
 33 32  1  1  0  0  0
 34 44  1  6  0  0  0
 34 33  1  0  0  0  0
 36 35  1  6  0  0  0
 36 34  1  0  0  0  0
 37 41  1  0  0  0  0
 38 42  1  0  0  0  0
 38 37  1  0  0  0  0
 39 41  1  0  0  0  0
 40 38  1  0  0  0  0
 41 36  1  6  0  0  0
 42 39  1  0  0  0  0
 44 43  1  0  0  0  0
 46 65  1  6  0  0  0
 46 47  1  0  0  0  0
 48 51  1  0  0  0  0
 49 51  1  0  0  0  0
 49 45  1  1  0  0  0
 50 53  1  6  0  0  0
 50 46  1  0  0  0  0
 50 54  1  0  0  0  0
 50 47  1  0  0  0  0
 52 53  1  0  0  0  0
 52 48  1  0  0  0  0
 54 49  1  0  0  0  0
 55 52  1  0  0  0  0
 57 63  1  0  0  0  0
 57 58  1  0  0  0  0
 58 55  1  0  0  0  0
 58 56  2  0  0  0  0
 59 63  1  0  0  0  0
 61 59  2  0  0  0  0
 61 64  1  0  0  0  0
 62 60  1  0  0  0  0
 63 62  2  0  0  0  0
 64 60  2  0  0  0  0
 65 66  1  0  0  0  0
 67 69  2  0  0  0  0
 69 68  1  0  0  0  0
 69 66  1  0  0  0  0
M  END
>  <MODEL>
3

>  <REMARK>
 VINA RESULT:      -6.1      1.650      1.908
  Name = 
  21 active torsions:
  status: ('A' for Active; 'I' for Inactive)
    1  A    between atoms: C_1  and  C_32
    2  A    between atoms: C_2  and  C_8
    3  A    between atoms: C_8  and  N_16
    4  A    between atoms: C_12  and  C_35
    5  A    between atoms: C_12  and  O_58
    6  A    between atoms: C_12  and  C_61
    7  A    between atoms: C_15  and  C_32
    8  A    between atoms: N_25  and  C_49
    9  A    between atoms: C_28  and  N_50
   10  A    between atoms: C_28  and  C_52
   11  A    between atoms: C_29  and  N_46
   12  A    between atoms: C_29  and  C_61
   13  A    between atoms: C_33  and  N_44
   14  A    between atoms: C_33  and  C_67
   15  A    between atoms: C_34  and  C_40
   16  A    between atoms: C_34  and  N_46
   17  A    between atoms: C_35  and  C_59
   18  A    between atoms: C_40  and  C_56
   19  A    between atoms: C_55  and  C_62
   20  A    between atoms: C_56  and  C_69
   21  A    between atoms: C_62  and  C_69
                            x       y       z     vdW  Elec       q    Type
                         _______ _______ _______ _____ _____    ______ ____

>  <TORSDO>
F 21

$$$$
=
 OpenBabel10222421273D

 69 77  0  0  1  0  0  0  0  0999 V2000
  188.9930  175.6010  135.3110 C   0  0  2  0  0  3  0  0  0  0  0  0
  194.4720  173.4850  137.7460 C   0  0  0  0  0  2  0  0  0  0  0  0
  191.8320  175.6560  138.0820 S   0  0  0  0  0  0  0  0  0  0  0  0
  190.2590  175.4440  136.0950 C   0  0  0  0  0  0  0  0  0  0  0  0
  191.3060  174.5540  135.8500 C   0  0  0  0  0  0  0  0  0  0  0  0
  190.4170  176.1240  137.2870 C   0  0  0  0  0  0  0  0  0  0  0  0
  192.5840  172.8640  134.6590 C   0  0  0  0  0  3  0  0  0  0  0  0
  191.4570  173.7130  134.7310 C   0  0  0  0  0  3  0  0  0  0  0  0
  193.3540  173.7130  136.8010 C   0  0  0  0  0  0  0  0  0  0  0  0
  192.2550  174.5540  136.8750 C   0  0  0  0  0  0  0  0  0  0  0  0
  196.4190  171.8230  137.4520 N   0  0  0  0  0  2  0  0  0  0  0  0
  193.5110  172.8910  135.7120 C   0  0  0  0  0  0  0  0  0  0  0  0
  188.3170  176.8110  135.6970 O   0  0  0  0  0  0  0  0  0  0  0  0
  188.5030  177.4550  136.9360 C   0  0  0  0  0  0  0  0  0  0  0  0
  195.2220  172.4340  136.9660 C   0  0  0  0  0  0  0  0  0  0  0  0
  194.6840  172.1090  135.8280 N   0  0  0  0  0  0  0  0  0  0  0  0
  189.5010  177.1320  137.7110 N   0  0  0  0  0  0  0  0  0  0  0  0
  197.1970  170.8770  136.6600 C   0  0  2  0  0  3  0  0  0  0  0  0
  197.4410  169.6120  137.4760 C   0  0  0  0  0  1  0  0  0  0  0  0
  199.2610  173.8300  136.0410 C   0  0  0  0  0  2  0  0  0  0  0  0
  198.4430  171.9830  134.7290 C   0  0  0  0  0  2  0  0  0  0  0  0
  198.5320  173.4980  134.7550 C   0  0  0  0  0  2  0  0  0  0  0  0
  198.8510  172.7550  137.0240 C   0  0  0  0  0  2  0  0  0  0  0  0
  198.5030  171.5320  136.1860 C   0  0  0  0  0  3  0  0  0  0  0  0
  187.5730  178.5420  137.3510 C   0  0  0  0  0  2  0  0  0  0  0  0
  186.5160  177.9850  138.2890 C   0  0  0  0  0  2  0  0  0  0  0  0
  186.6970  178.5990  139.6700 C   0  0  0  0  0  2  0  0  0  0  0  0
  188.1780  178.7490  139.9970 C   0  0  0  0  0  2  0  0  0  0  0  0
  188.6090  177.8050  141.1110 C   0  0  0  0  0  2  0  0  0  0  0  0
  189.9880  177.3930  140.9070 N   0  0  0  0  0  2  0  0  0  0  0  0
  190.2210  176.2380  141.7620 C   0  0  0  0  0  2  0  0  0  0  0  0
  188.4570  175.3070  143.0740 O   0  0  0  0  0  1  0  0  0  0  0  0
  189.3980  176.3400  143.0420 C   0  0  1  0  0  3  0  0  0  0  0  0
  190.2940  176.2940  144.2830 C   0  0  2  0  0  3  0  0  0  0  0  0
  191.1540  177.9980  145.7480 O   0  0  0  0  0  1  0  0  0  0  0  0
  189.9730  177.4430  145.2430 C   0  0  2  0  0  3  0  0  0  0  0  0
  189.5030  177.5880  147.6940 C   0  0  0  0  0  2  0  0  0  0  0  0
  188.4250  178.4400  148.1610 N   0  0  0  0  0  0  0  0  0  0  0  0
  187.7000  177.3870  146.1470 N   0  0  0  0  0  2  0  0  0  0  0  0
  187.8000  177.7490  149.2800 C   0  0  0  0  0  1  0  0  0  0  0  0
  189.0720  176.9690  146.3830 C   0  0  1  0  0  3  0  0  0  0  0  0
  187.4470  178.4820  147.0790 C   0  0  0  0  0  2  0  0  0  0  0  0
  192.1710  175.2460  144.4090 O   0  0  0  0  0  1  0  0  0  0  0  0
  191.6410  176.3450  143.9100 O   0  0  0  0  0  0  0  0  0  0  0  0
  188.1020  174.3960  135.5990 C   0  0  0  0  0  2  0  0  0  0  0  0
  184.4490  171.7670  135.9170 C   0  0  1  0  0  3  0  0  0  0  0  0
  185.0800  172.1400  134.5870 C   0  0  0  0  0  2  0  0  0  0  0  0
  184.8570  176.1680  134.5990 C   0  0  0  0  0  2  0  0  0  0  0  0
  186.6130  174.7150  135.6700 C   0  0  1  0  0  3  0  0  0  0  0  0
  184.7640  173.2280  135.5950 C   0  0  1  0  0  0  0  0  0  0  0  0
  186.0630  175.2590  134.3470 C   0  0  0  0  0  2  0  0  0  0  0  0
  183.8080  175.5950  135.4570 N   0  0  0  0  0  0  0  0  0  0  0  0
  183.5650  174.1560  135.2690 C   0  0  0  0  0  2  0  0  0  0  0  0
  185.8690  173.7020  136.3440 O   0  0  0  0  0  0  0  0  0  0  0  0
  184.0490  175.9120  136.8570 C   0  0  0  0  0  2  0  0  0  0  0  0
  182.5440  177.6850  136.3850 O   0  0  0  0  0  0  0  0  0  0  0  0
  182.9780  177.3020  138.6640 N   0  0  0  0  0  2  0  0  0  0  0  0
  183.1600  177.0300  137.2680 C   0  0  0  0  0  0  0  0  0  0  0  0
  181.1490  177.7450  140.2110 C   0  0  0  0  0  3  0  0  0  0  0  0
  181.0080  180.4130  139.3960 C   0  0  0  0  0  3  0  0  0  0  0  0
  180.1980  178.5990  140.7750 C   0  0  0  0  0  3  0  0  0  0  0  0
  181.9540  179.5560  138.8280 C   0  0  0  0  0  3  0  0  0  0  0  0
  182.0310  178.2150  139.2350 C   0  0  0  0  0  0  0  0  0  0  0  0
  180.1300  179.9320  140.3670 C   0  0  0  0  0  3  0  0  0  0  0  0
  182.9920  171.3900  135.6870 C   0  0  0  0  0  2  0  0  0  0  0  0
  182.2840  171.3810  136.9560 N   0  0  0  0  0  2  0  0  0  0  0  0
  180.3380  172.4930  135.9750 O   0  0  0  0  0  0  0  0  0  0  0  0
  180.3470  171.8130  138.1680 O   0  0  0  0  0  1  0  0  0  0  0  0
  180.9590  171.8970  137.0690 C   0  0  0  0  0  0  0  0  0  0  0  0
  1 45  1  1  0  0  0
  1 13  1  0  0  0  0
  1  4  1  0  0  0  0
  4  6  2  0  0  0  0
  5  4  1  0  0  0  0
  5 10  1  0  0  0  0
  6 17  1  0  0  0  0
  6  3  1  0  0  0  0
  7  8  1  0  0  0  0
  7 12  2  0  0  0  0
  8  5  2  0  0  0  0
  9 10  2  0  0  0  0
  9  2  1  0  0  0  0
 10  3  1  0  0  0  0
 12 16  1  0  0  0  0
 12  9  1  0  0  0  0
 13 14  1  0  0  0  0
 14 25  1  0  0  0  0
 14 17  2  0  0  0  0
 15 11  1  0  0  0  0
 15  2  1  0  0  0  0
 16 15  2  0  0  0  0
 18 11  1  0  0  0  0
 18 19  1  1  0  0  0
 20 23  1  0  0  0  0
 21 22  1  0  0  0  0
 21 24  1  0  0  0  0
 22 20  1  0  0  0  0
 24 18  1  0  0  0  0
 24 23  1  0  0  0  0
 25 26  1  0  0  0  0
 26 27  1  0  0  0  0
 27 28  1  0  0  0  0
 28 29  1  0  0  0  0
 30 29  1  0  0  0  0
 30 31  1  0  0  0  0
 31 33  1  0  0  0  0
 33 32  1  1  0  0  0
 33 34  1  0  0  0  0
 34 44  1  6  0  0  0
 34 36  1  0  0  0  0
 36 35  1  1  0  0  0
 37 38  1  0  0  0  0
 38 40  1  0  0  0  0
 39 41  1  0  0  0  0
 39 42  1  0  0  0  0
 41 36  1  6  0  0  0
 41 37  1  0  0  0  0
 42 38  1  0  0  0  0
 44 43  1  0  0  0  0
 46 65  1  6  0  0  0
 47 46  1  0  0  0  0
 48 52  1  0  0  0  0
 49 45  1  6  0  0  0
 49 54  1  0  0  0  0
 50 47  1  6  0  0  0
 50 46  1  0  0  0  0
 50 54  1  0  0  0  0
 51 48  1  0  0  0  0
 51 49  1  0  0  0  0
 52 55  1  0  0  0  0
 53 52  1  0  0  0  0
 53 50  1  0  0  0  0
 55 58  1  0  0  0  0
 56 58  2  0  0  0  0
 57 63  1  0  0  0  0
 58 57  1  0  0  0  0
 59 61  1  0  0  0  0
 60 64  1  0  0  0  0
 62 63  1  0  0  0  0
 62 60  2  0  0  0  0
 63 59  2  0  0  0  0
 64 61  2  0  0  0  0
 65 66  1  0  0  0  0
 66 69  1  0  0  0  0
 67 69  2  0  0  0  0
 69 68  1  0  0  0  0
M  END
>  <MODEL>
4

>  <REMARK>
 VINA RESULT:      -5.9      2.800      6.915
  Name = 
  21 active torsions:
  status: ('A' for Active; 'I' for Inactive)
    1  A    between atoms: C_1  and  C_32
    2  A    between atoms: C_2  and  C_8
    3  A    between atoms: C_8  and  N_16
    4  A    between atoms: C_12  and  C_35
    5  A    between atoms: C_12  and  O_58
    6  A    between atoms: C_12  and  C_61
    7  A    between atoms: C_15  and  C_32
    8  A    between atoms: N_25  and  C_49
    9  A    between atoms: C_28  and  N_50
   10  A    between atoms: C_28  and  C_52
   11  A    between atoms: C_29  and  N_46
   12  A    between atoms: C_29  and  C_61
   13  A    between atoms: C_33  and  N_44
   14  A    between atoms: C_33  and  C_67
   15  A    between atoms: C_34  and  C_40
   16  A    between atoms: C_34  and  N_46
   17  A    between atoms: C_35  and  C_59
   18  A    between atoms: C_40  and  C_56
   19  A    between atoms: C_55  and  C_62
   20  A    between atoms: C_56  and  C_69
   21  A    between atoms: C_62  and  C_69
                            x       y       z     vdW  Elec       q    Type
                         _______ _______ _______ _____ _____    ______ ____

>  <TORSDO>
F 21

$$$$
=
 OpenBabel10222421273D

 69 77  0  0  1  0  0  0  0  0999 V2000
  190.2670  177.6480  140.4340 C   0  0  2  0  0  3  0  0  0  0  0  0
  185.1490  177.2150  136.6850 C   0  0  0  0  0  2  0  0  0  0  0  0
  188.5280  176.6810  137.0010 S   0  0  0  0  0  0  0  0  0  0  0  0
  189.3410  177.5060  139.2650 C   0  0  0  0  0  0  0  0  0  0  0  0
  187.9760  177.7950  139.2210 C   0  0  0  0  0  0  0  0  0  0  0  0
  189.7860  176.8950  138.1090 C   0  0  0  0  0  0  0  0  0  0  0  0
  185.8290  178.6190  140.0080 C   0  0  0  0  0  3  0  0  0  0  0  0
  187.2110  178.4170  140.2260 C   0  0  0  0  0  3  0  0  0  0  0  0
  186.0270  177.5800  137.8220 C   0  0  0  0  0  0  0  0  0  0  0  0
  187.3840  177.3850  138.0240 C   0  0  0  0  0  0  0  0  0  0  0  0
  182.6100  177.6200  136.5110 N   0  0  0  0  0  2  0  0  0  0  0  0
  185.2720  178.1880  138.7950 C   0  0  0  0  0  0  0  0  0  0  0  0
  191.6340  177.5380  140.0000 O   0  0  0  0  0  0  0  0  0  0  0  0
  192.0330  176.8860  138.8170 C   0  0  0  0  0  0  0  0  0  0  0  0
  183.8420  177.7390  137.2260 C   0  0  0  0  0  0  0  0  0  0  0  0
  183.9170  178.2860  138.4030 N   0  0  0  0  0  0  0  0  0  0  0  0
  191.1580  176.5670  137.9050 N   0  0  0  0  0  0  0  0  0  0  0  0
  181.3640  178.2090  136.9870 C   0  0  2  0  0  3  0  0  0  0  0  0
  181.6770  179.3250  137.9770 C   0  0  0  0  0  1  0  0  0  0  0  0
  180.8930  174.9420  138.5570 C   0  0  0  0  0  2  0  0  0  0  0  0
  180.0750  176.0460  136.5800 C   0  0  0  0  0  2  0  0  0  0  0  0
  180.7280  174.7640  137.0610 C   0  0  0  0  0  2  0  0  0  0  0  0
  181.1380  176.4220  138.7610 C   0  0  0  0  0  2  0  0  0  0  0  0
  180.4620  177.1220  137.5910 C   0  0  0  0  0  3  0  0  0  0  0  0
  193.4760  176.5920  138.5860 C   0  0  0  0  0  2  0  0  0  0  0  0
  193.6390  175.1560  138.1190 C   0  0  0  0  0  2  0  0  0  0  0  0
  193.7040  175.1270  136.5990 C   0  0  0  0  0  2  0  0  0  0  0  0
  194.6590  176.1980  136.0850 C   0  0  0  0  0  2  0  0  0  0  0  0
  195.7920  175.5980  135.2630 C   0  0  0  0  0  2  0  0  0  0  0  0
  196.2380  174.3530  135.8670 N   0  0  0  0  0  2  0  0  0  0  0  0
  197.1970  173.7530  134.9510 C   0  0  0  0  0  2  0  0  0  0  0  0
  198.2410  173.4110  137.0710 O   0  0  0  0  0  1  0  0  0  0  0  0
  198.3150  173.0570  135.7200 C   0  0  1  0  0  3  0  0  0  0  0  0
  198.2380  171.5350  135.5560 C   0  0  2  0  0  3  0  0  0  0  0  0
  198.3380  170.2050  137.5580 O   0  0  0  0  0  1  0  0  0  0  0  0
  197.4630  170.8910  136.7090 C   0  0  2  0  0  3  0  0  0  0  0  0
  195.8020  169.1220  137.3090 C   0  0  0  0  0  2  0  0  0  0  0  0
  194.4040  169.4810  137.4570 N   0  0  0  0  0  0  0  0  0  0  0  0
  195.2810  170.7170  135.6150 N   0  0  0  0  0  2  0  0  0  0  0  0
  193.6270  168.3710  136.9250 C   0  0  0  0  0  1  0  0  0  0  0  0
  196.3780  169.9520  136.1830 C   0  0  1  0  0  3  0  0  0  0  0  0
  194.1860  170.6230  136.5760 C   0  0  0  0  0  2  0  0  0  0  0  0
  199.5220  170.2720  134.3760 O   0  0  0  0  0  1  0  0  0  0  0  0
  199.5240  170.9910  135.4810 O   0  0  0  0  0  0  0  0  0  0  0  0
  189.9480  176.5390  141.4320 C   0  0  0  0  0  2  0  0  0  0  0  0
  190.7740  177.4420  145.7750 C   0  0  1  0  0  3  0  0  0  0  0  0
  190.4820  176.0410  145.2680 C   0  0  0  0  0  2  0  0  0  0  0  0
  186.8150  176.4350  143.6330 C   0  0  0  0  0  2  0  0  0  0  0  0
  189.0410  176.9660  142.5810 C   0  0  1  0  0  3  0  0  0  0  0  0
  189.5560  177.1800  144.8880 C   0  0  1  0  0  0  0  0  0  0  0  0
  188.0940  175.8470  143.0290 C   0  0  0  0  0  2  0  0  0  0  0  0
  187.0230  177.4540  144.6730 N   0  0  0  0  0  0  0  0  0  0  0  0
  188.1640  177.2070  145.5700 C   0  0  0  0  0  2  0  0  0  0  0  0
  189.7380  177.7020  143.5840 O   0  0  0  0  0  0  0  0  0  0  0  0
  187.0880  178.7880  144.0920 C   0  0  0  0  0  2  0  0  0  0  0  0
  185.6480  180.0600  142.7010 O   0  0  0  0  0  0  0  0  0  0  0  0
  184.5900  178.4670  144.0680 N   0  0  0  0  0  2  0  0  0  0  0  0
  185.7440  179.1670  143.5840 C   0  0  0  0  0  0  0  0  0  0  0  0
  183.0580  178.5690  142.1770 C   0  0  0  0  0  3  0  0  0  0  0  0
  180.8590  178.8390  143.8780 C   0  0  0  0  0  3  0  0  0  0  0  0
  181.7730  178.6990  141.6440 C   0  0  0  0  0  3  0  0  0  0  0  0
  182.1460  178.7170  144.4100 C   0  0  0  0  0  3  0  0  0  0  0  0
  183.2540  178.5790  143.5600 C   0  0  0  0  0  0  0  0  0  0  0  0
  180.6750  178.8320  142.4960 C   0  0  0  0  0  3  0  0  0  0  0  0
  190.4460  177.5110  147.2600 C   0  0  0  0  0  2  0  0  0  0  0  0
  191.6740  177.4650  148.0350 N   0  0  0  0  0  2  0  0  0  0  0  0
  191.9080  175.0560  147.6810 O   0  0  0  0  0  0  0  0  0  0  0  0
  193.4990  176.2570  148.8200 O   0  0  0  0  0  1  0  0  0  0  0  0
  192.4010  176.2490  148.1990 C   0  0  0  0  0  0  0  0  0  0  0  0
  1 45  1  1  0  0  0
  2 15  1  0  0  0  0
  2  9  1  0  0  0  0
  3 10  1  0  0  0  0
  3  6  1  0  0  0  0
  4  1  1  0  0  0  0
  5  4  1  0  0  0  0
  5  8  1  0  0  0  0
  6  4  2  0  0  0  0
  7  8  2  0  0  0  0
  9 10  1  0  0  0  0
  9 12  2  0  0  0  0
 10  5  2  0  0  0  0
 11 18  1  0  0  0  0
 11 15  1  0  0  0  0
 12  7  1  0  0  0  0
 13  1  1  0  0  0  0
 14 13  1  0  0  0  0
 15 16  2  0  0  0  0
 16 12  1  0  0  0  0
 17  6  1  0  0  0  0
 17 14  2  0  0  0  0
 18 24  1  0  0  0  0
 18 19  1  1  0  0  0
 20 23  1  0  0  0  0
 21 22  1  0  0  0  0
 21 24  1  0  0  0  0
 22 20  1  0  0  0  0
 24 23  1  0  0  0  0
 25 14  1  0  0  0  0
 26 25  1  0  0  0  0
 27 26  1  0  0  0  0
 28 27  1  0  0  0  0
 29 30  1  0  0  0  0
 29 28  1  0  0  0  0
 31 33  1  0  0  0  0
 31 30  1  0  0  0  0
 33 32  1  1  0  0  0
 34 44  1  1  0  0  0
 34 33  1  0  0  0  0
 34 36  1  0  0  0  0
 36 35  1  1  0  0  0
 37 38  1  0  0  0  0
 39 41  1  0  0  0  0
 39 42  1  0  0  0  0
 40 38  1  0  0  0  0
 41 36  1  1  0  0  0
 41 37  1  0  0  0  0
 42 38  1  0  0  0  0
 43 44  1  0  0  0  0
 46 65  1  1  0  0  0
 47 46  1  0  0  0  0
 48 52  1  0  0  0  0
 49 45  1  6  0  0  0
 49 51  1  0  0  0  0
 49 54  1  0  0  0  0
 50 47  1  6  0  0  0
 50 53  1  0  0  0  0
 50 46  1  0  0  0  0
 51 48  1  0  0  0  0
 52 53  1  0  0  0  0
 54 50  1  0  0  0  0
 55 52  1  0  0  0  0
 56 58  2  0  0  0  0
 58 57  1  0  0  0  0
 58 55  1  0  0  0  0
 59 63  1  0  0  0  0
 60 62  1  0  0  0  0
 61 59  2  0  0  0  0
 61 64  1  0  0  0  0
 63 57  1  0  0  0  0
 63 62  2  0  0  0  0
 64 60  2  0  0  0  0
 65 66  1  0  0  0  0
 66 69  1  0  0  0  0
 67 69  2  0  0  0  0
 69 68  1  0  0  0  0
M  END
>  <MODEL>
5

>  <REMARK>
 VINA RESULT:      -5.2      4.281     11.303
  Name = 
  21 active torsions:
  status: ('A' for Active; 'I' for Inactive)
    1  A    between atoms: C_1  and  C_32
    2  A    between atoms: C_2  and  C_8
    3  A    between atoms: C_8  and  N_16
    4  A    between atoms: C_12  and  C_35
    5  A    between atoms: C_12  and  O_58
    6  A    between atoms: C_12  and  C_61
    7  A    between atoms: C_15  and  C_32
    8  A    between atoms: N_25  and  C_49
    9  A    between atoms: C_28  and  N_50
   10  A    between atoms: C_28  and  C_52
   11  A    between atoms: C_29  and  N_46
   12  A    between atoms: C_29  and  C_61
   13  A    between atoms: C_33  and  N_44
   14  A    between atoms: C_33  and  C_67
   15  A    between atoms: C_34  and  C_40
   16  A    between atoms: C_34  and  N_46
   17  A    between atoms: C_35  and  C_59
   18  A    between atoms: C_40  and  C_56
   19  A    between atoms: C_55  and  C_62
   20  A    between atoms: C_56  and  C_69
   21  A    between atoms: C_62  and  C_69
                            x       y       z     vdW  Elec       q    Type
                         _______ _______ _______ _____ _____    ______ ____

>  <TORSDO>
F 21

$$$$
=
 OpenBabel10222421273D

 69 77  0  0  1  0  0  0  0  0999 V2000
  189.5730  177.6500  139.6890 C   0  0  2  0  0  3  0  0  0  0  0  0
  184.5280  177.1730  135.8480 C   0  0  0  0  0  2  0  0  0  0  0  0
  187.9160  176.7320  136.2030 S   0  0  0  0  0  0  0  0  0  0  0  0
  188.6700  177.5140  138.5030 C   0  0  0  0  0  0  0  0  0  0  0  0
  187.2980  177.7640  138.4450 C   0  0  0  0  0  0  0  0  0  0  0  0
  189.1500  176.9500  137.3360 C   0  0  0  0  0  0  0  0  0  0  0  0
  185.1150  178.4990  139.2210 C   0  0  0  0  0  3  0  0  0  0  0  0
  186.4990  178.3320  139.4550 C   0  0  0  0  0  3  0  0  0  0  0  0
  185.3770  177.5310  137.0090 C   0  0  0  0  0  0  0  0  0  0  0  0
  186.7360  177.3710  137.2280 C   0  0  0  0  0  0  0  0  0  0  0  0
  181.9810  177.5070  135.6460 N   0  0  0  0  0  2  0  0  0  0  0  0
  184.5900  178.0870  137.9870 C   0  0  0  0  0  0  0  0  0  0  0  0
  190.9500  177.5930  139.2740 O   0  0  0  0  0  0  0  0  0  0  0  0
  191.3860  176.9890  138.0790 C   0  0  0  0  0  0  0  0  0  0  0  0
  183.1970  177.6420  136.3830 C   0  0  0  0  0  0  0  0  0  0  0  0
  183.2380  178.1570  137.5770 N   0  0  0  0  0  0  0  0  0  0  0  0
  190.5350  176.6700  137.1440 N   0  0  0  0  0  0  0  0  0  0  0  0
  180.7100  178.0440  136.1190 C   0  0  2  0  0  3  0  0  0  0  0  0
  180.9580  179.3510  136.8640 C   0  0  0  0  0  1  0  0  0  0  0  0
  180.5330  175.8850  139.0640 C   0  0  0  0  0  2  0  0  0  0  0  0
  180.4220  175.5720  136.6790 C   0  0  0  0  0  2  0  0  0  0  0  0
  181.1210  175.0720  137.9290 C   0  0  0  0  0  2  0  0  0  0  0  0
  180.2260  177.2430  138.4680 C   0  0  0  0  0  2  0  0  0  0  0  0
  179.9840  177.0030  136.9840 C   0  0  0  0  0  3  0  0  0  0  0  0
  192.8400  176.7440  137.8630 C   0  0  0  0  0  2  0  0  0  0  0  0
  193.0330  175.4880  137.0310 C   0  0  0  0  0  2  0  0  0  0  0  0
  193.7470  175.8480  135.7370 C   0  0  0  0  0  2  0  0  0  0  0  0
  192.9160  175.4200  134.5330 C   0  0  0  0  0  2  0  0  0  0  0  0
  192.7640  173.9070  134.4590 C   0  0  0  0  0  2  0  0  0  0  0  0
  193.6660  173.2710  135.4060 N   0  0  0  0  0  2  0  0  0  0  0  0
  193.0130  172.0540  135.8670 C   0  0  0  0  0  2  0  0  0  0  0  0
  194.6520  171.1750  134.3690 O   0  0  0  0  0  1  0  0  0  0  0  0
  193.7850  170.8220  135.4080 C   0  0  1  0  0  3  0  0  0  0  0  0
  194.5620  170.1900  136.5680 C   0  0  2  0  0  3  0  0  0  0  0  0
  196.6840  169.0870  136.3040 O   0  0  0  0  0  1  0  0  0  0  0  0
  196.0740  170.3440  136.3730 C   0  0  2  0  0  3  0  0  0  0  0  0
  197.3870  172.3970  136.9300 C   0  0  0  0  0  2  0  0  0  0  0  0
  196.6920  173.5750  137.4150 N   0  0  0  0  0  0  0  0  0  0  0  0
  195.6500  171.6630  138.3900 N   0  0  0  0  0  2  0  0  0  0  0  0
  197.5500  174.1830  138.4220 C   0  0  0  0  0  1  0  0  0  0  0  0
  196.6880  171.1800  137.4950 C   0  0  1  0  0  3  0  0  0  0  0  0
  195.5000  173.0870  138.0990 C   0  0  0  0  0  2  0  0  0  0  0  0
  193.9690  168.6690  137.9720 O   0  0  0  0  0  1  0  0  0  0  0  0
  194.2310  168.8360  136.6920 O   0  0  0  0  0  0  0  0  0  0  0  0
  189.2740  176.5030  140.6490 C   0  0  0  0  0  2  0  0  0  0  0  0
  191.3960  177.9980  144.3400 C   0  0  1  0  0  3  0  0  0  0  0  0
  191.1720  176.5220  144.0620 C   0  0  0  0  0  2  0  0  0  0  0  0
  187.1530  176.2620  143.8300 C   0  0  0  0  0  2  0  0  0  0  0  0
  188.7650  176.9420  142.0180 C   0  0  1  0  0  3  0  0  0  0  0  0
  190.0040  177.4840  143.9680 C   0  0  1  0  0  0  0  0  0  0  0  0
  188.2200  175.7730  142.8460 C   0  0  0  0  0  2  0  0  0  0  0  0
  187.5450  177.4130  144.6590 N   0  0  0  0  0  0  0  0  0  0  0  0
  188.9490  177.4160  145.1010 C   0  0  0  0  0  2  0  0  0  0  0  0
  189.6400  177.8710  142.6550 O   0  0  0  0  0  0  0  0  0  0  0  0
  187.1930  178.6680  144.0110 C   0  0  0  0  0  2  0  0  0  0  0  0
  185.3130  179.6800  145.0450 O   0  0  0  0  0  0  0  0  0  0  0  0
  184.8330  178.2760  143.2210 N   0  0  0  0  0  2  0  0  0  0  0  0
  185.7310  178.9000  144.1490 C   0  0  0  0  0  0  0  0  0  0  0  0
  182.9000  178.7930  141.8330 C   0  0  0  0  0  3  0  0  0  0  0  0
  181.2120  178.8040  144.0590 C   0  0  0  0  0  3  0  0  0  0  0  0
  181.5390  179.0660  141.6770 C   0  0  0  0  0  3  0  0  0  0  0  0
  182.5750  178.5370  144.2140 C   0  0  0  0  0  3  0  0  0  0  0  0
  183.4270  178.5290  143.0990 C   0  0  0  0  0  0  0  0  0  0  0  0
  180.6960  179.0690  142.7900 C   0  0  0  0  0  3  0  0  0  0  0  0
  191.5950  178.1960  145.8360 C   0  0  0  0  0  2  0  0  0  0  0  0
  192.1350  176.9810  146.4230 N   0  0  0  0  0  2  0  0  0  0  0  0
  191.0970  177.4600  148.5850 O   0  0  0  0  0  1  0  0  0  0  0  0
  192.2750  175.5220  148.2270 O   0  0  0  0  0  0  0  0  0  0  0  0
  191.8470  176.6170  147.7710 C   0  0  0  0  0  0  0  0  0  0  0  0
  1 45  1  1  0  0  0
  2 15  1  0  0  0  0
  2  9  1  0  0  0  0
  3 10  1  0  0  0  0
  3  6  1  0  0  0  0
  4  1  1  0  0  0  0
  5  4  1  0  0  0  0
  5  8  1  0  0  0  0
  6  4  2  0  0  0  0
  7  8  2  0  0  0  0
  9 10  1  0  0  0  0
  9 12  2  0  0  0  0
 10  5  2  0  0  0  0
 11 18  1  0  0  0  0
 11 15  1  0  0  0  0
 12  7  1  0  0  0  0
 13  1  1  0  0  0  0
 14 13  1  0  0  0  0
 15 16  2  0  0  0  0
 16 12  1  0  0  0  0
 17  6  1  0  0  0  0
 17 14  2  0  0  0  0
 18 19  1  1  0  0  0
 18 24  1  0  0  0  0
 21 24  1  0  0  0  0
 21 22  1  0  0  0  0
 22 20  1  0  0  0  0
 23 20  1  0  0  0  0
 24 23  1  0  0  0  0
 25 14  1  0  0  0  0
 26 25  1  0  0  0  0
 27 26  1  0  0  0  0
 28 27  1  0  0  0  0
 29 28  1  0  0  0  0
 29 30  1  0  0  0  0
 30 31  1  0  0  0  0
 33 32  1  6  0  0  0
 33 31  1  0  0  0  0
 33 34  1  0  0  0  0
 34 44  1  6  0  0  0
 36 35  1  1  0  0  0
 36 34  1  0  0  0  0
 37 38  1  0  0  0  0
 37 41  1  0  0  0  0
 38 42  1  0  0  0  0
 38 40  1  0  0  0  0
 41 36  1  6  0  0  0
 41 39  1  0  0  0  0
 42 39  1  0  0  0  0
 44 43  1  0  0  0  0
 46 65  1  1  0  0  0
 47 46  1  0  0  0  0
 48 52  1  0  0  0  0
 49 45  1  6  0  0  0
 49 54  1  0  0  0  0
 49 51  1  0  0  0  0
 50 47  1  6  0  0  0
 50 46  1  0  0  0  0
 50 53  1  0  0  0  0
 51 48  1  0  0  0  0
 52 53  1  0  0  0  0
 54 50  1  0  0  0  0
 55 58  1  0  0  0  0
 55 52  1  0  0  0  0
 57 58  1  0  0  0  0
 58 56  2  0  0  0  0
 59 63  1  0  0  0  0
 60 62  1  0  0  0  0
 61 59  2  0  0  0  0
 61 64  1  0  0  0  0
 63 57  1  0  0  0  0
 63 62  2  0  0  0  0
 64 60  2  0  0  0  0
 65 66  1  0  0  0  0
 66 69  1  0  0  0  0
 69 68  2  0  0  0  0
 69 67  1  0  0  0  0
M  END
>  <MODEL>
6

>  <REMARK>
 VINA RESULT:      -5.1      3.936     10.958
  Name = 
  21 active torsions:
  status: ('A' for Active; 'I' for Inactive)
    1  A    between atoms: C_1  and  C_32
    2  A    between atoms: C_2  and  C_8
    3  A    between atoms: C_8  and  N_16
    4  A    between atoms: C_12  and  C_35
    5  A    between atoms: C_12  and  O_58
    6  A    between atoms: C_12  and  C_61
    7  A    between atoms: C_15  and  C_32
    8  A    between atoms: N_25  and  C_49
    9  A    between atoms: C_28  and  N_50
   10  A    between atoms: C_28  and  C_52
   11  A    between atoms: C_29  and  N_46
   12  A    between atoms: C_29  and  C_61
   13  A    between atoms: C_33  and  N_44
   14  A    between atoms: C_33  and  C_67
   15  A    between atoms: C_34  and  C_40
   16  A    between atoms: C_34  and  N_46
   17  A    between atoms: C_35  and  C_59
   18  A    between atoms: C_40  and  C_56
   19  A    between atoms: C_55  and  C_62
   20  A    between atoms: C_56  and  C_69
   21  A    between atoms: C_62  and  C_69
                            x       y       z     vdW  Elec       q    Type
                         _______ _______ _______ _____ _____    ______ ____

>  <TORSDO>
F 21

$$$$
=
 OpenBabel10222421273D

 69 77  0  0  1  0  0  0  0  0999 V2000
  190.0320  174.9470  135.1370 C   0  0  2  0  0  3  0  0  0  0  0  0
  195.6890  173.0110  137.2970 C   0  0  0  0  0  2  0  0  0  0  0  0
  193.0330  175.1460  137.7240 S   0  0  0  0  0  0  0  0  0  0  0  0
  191.3460  174.8390  135.8450 C   0  0  0  0  0  0  0  0  0  0  0  0
  192.3930  173.9600  135.5660 C   0  0  0  0  0  0  0  0  0  0  0  0
  191.5630  175.5620  137.0030 C   0  0  0  0  0  0  0  0  0  0  0  0
  193.6290  172.2530  134.3550 C   0  0  0  0  0  3  0  0  0  0  0  0
  192.4920  173.0840  134.4680 C   0  0  0  0  0  3  0  0  0  0  0  0
  194.5110  173.1870  136.4160 C   0  0  0  0  0  0  0  0  0  0  0  0
  193.4030  174.0110  136.5300 C   0  0  0  0  0  0  0  0  0  0  0  0
  197.6470  171.3730  136.9390 N   0  0  0  0  0  2  0  0  0  0  0  0
  194.6180  172.3320  135.3470 C   0  0  0  0  0  0  0  0  0  0  0  0
  189.3570  176.1580  135.5230 O   0  0  0  0  0  0  0  0  0  0  0  0
  189.6060  176.8460  136.7270 C   0  0  0  0  0  0  0  0  0  0  0  0
  196.4110  171.9470  136.5070 C   0  0  0  0  0  0  0  0  0  0  0  0
  195.8100  171.5740  135.4160 N   0  0  0  0  0  0  0  0  0  0  0  0
  190.6560  176.5680  137.4480 N   0  0  0  0  0  0  0  0  0  0  0  0
  198.3930  170.4150  136.1320 C   0  0  2  0  0  3  0  0  0  0  0  0
  198.1540  170.7020  134.6540 C   0  0  0  0  0  1  0  0  0  0  0  0
  196.0770  168.0110  137.6210 C   0  0  0  0  0  2  0  0  0  0  0  0
  198.3750  168.6410  137.9650 C   0  0  0  0  0  2  0  0  0  0  0  0
  197.0610  168.4290  138.6940 C   0  0  0  0  0  2  0  0  0  0  0  0
  196.5120  168.7430  136.3690 C   0  0  0  0  0  2  0  0  0  0  0  0
  198.0080  168.9800  136.5230 C   0  0  0  0  0  3  0  0  0  0  0  0
  188.6820  177.9310  137.1620 C   0  0  0  0  0  2  0  0  0  0  0  0
  187.9260  177.4950  138.4050 C   0  0  0  0  0  2  0  0  0  0  0  0
  188.4590  178.2570  139.6100 C   0  0  0  0  0  2  0  0  0  0  0  0
  189.9020  177.8590  139.8970 C   0  0  0  0  0  2  0  0  0  0  0  0
  190.0670  177.3130  141.3090 C   0  0  0  0  0  2  0  0  0  0  0  0
  191.3810  177.6620  141.8250 N   0  0  0  0  0  2  0  0  0  0  0  0
  191.7740  176.6040  142.7450 C   0  0  0  0  0  2  0  0  0  0  0  0
  190.6690  174.5930  143.4090 O   0  0  0  0  0  1  0  0  0  0  0  0
  190.5480  175.9860  143.4110 C   0  0  1  0  0  3  0  0  0  0  0  0
  190.3700  176.5110  144.8390 C   0  0  2  0  0  3  0  0  0  0  0  0
  189.8420  178.7240  145.6200 O   0  0  0  0  0  1  0  0  0  0  0  0
  189.3380  177.6420  144.8900 C   0  0  2  0  0  3  0  0  0  0  0  0
  187.5410  178.1080  146.5650 C   0  0  0  0  0  2  0  0  0  0  0  0
  186.2890  178.6880  146.1180 N   0  0  0  0  0  0  0  0  0  0  0  0
  186.9870  177.1110  144.4710 N   0  0  0  0  0  2  0  0  0  0  0  0
  185.2350  178.0720  146.9130 C   0  0  0  0  0  1  0  0  0  0  0  0
  188.0210  177.1550  145.4920 C   0  0  1  0  0  3  0  0  0  0  0  0
  186.1070  178.2440  144.7410 C   0  0  0  0  0  2  0  0  0  0  0  0
  192.0000  175.9890  146.1450 O   0  0  0  0  0  1  0  0  0  0  0  0
  191.5940  176.9570  145.3480 O   0  0  0  0  0  0  0  0  0  0  0  0
  189.1840  173.7380  135.5180 C   0  0  0  0  0  2  0  0  0  0  0  0
  185.6010  171.0420  136.0230 C   0  0  1  0  0  3  0  0  0  0  0  0
  186.1650  171.4130  134.6620 C   0  0  0  0  0  2  0  0  0  0  0  0
  185.8640  175.4350  134.6430 C   0  0  0  0  0  2  0  0  0  0  0  0
  187.6930  174.0280  135.6510 C   0  0  1  0  0  3  0  0  0  0  0  0
  185.8720  172.5060  135.6710 C   0  0  1  0  0  0  0  0  0  0  0  0
  187.0760  174.5470  134.3470 C   0  0  0  0  0  2  0  0  0  0  0  0
  184.8650  174.8520  135.5520 N   0  0  0  0  0  0  0  0  0  0  0  0
  184.6420  173.4060  135.3890 C   0  0  0  0  0  2  0  0  0  0  0  0
  186.9990  173.0090  136.3670 O   0  0  0  0  0  0  0  0  0  0  0  0
  185.1600  175.1890  136.9370 C   0  0  0  0  0  2  0  0  0  0  0  0
  184.1060  177.2970  136.6670 O   0  0  0  0  0  0  0  0  0  0  0  0
  183.4970  176.0990  138.5960 N   0  0  0  0  0  2  0  0  0  0  0  0
  184.2460  176.2720  137.3850 C   0  0  0  0  0  0  0  0  0  0  0  0
  182.7930  178.0830  139.8200 C   0  0  0  0  0  3  0  0  0  0  0  0
  180.1010  177.5200  139.3310 C   0  0  0  0  0  3  0  0  0  0  0  0
  181.8010  178.9270  140.3230 C   0  0  0  0  0  3  0  0  0  0  0  0
  181.0960  176.6730  138.8340 C   0  0  0  0  0  3  0  0  0  0  0  0
  182.4500  176.9520  139.0760 C   0  0  0  0  0  0  0  0  0  0  0  0
  180.4550  178.6450  140.0770 C   0  0  0  0  0  3  0  0  0  0  0  0
  184.1420  170.6340  135.8600 C   0  0  0  0  0  2  0  0  0  0  0  0
  183.3040  171.4730  136.7010 N   0  0  0  0  0  2  0  0  0  0  0  0
  181.2580  170.5670  135.7140 O   0  0  0  0  0  0  0  0  0  0  0  0
  181.1850  172.0890  137.4310 O   0  0  0  0  0  1  0  0  0  0  0  0
  181.8820  171.3970  136.6400 C   0  0  0  0  0  0  0  0  0  0  0  0
  1 45  1  1  0  0  0
  1 13  1  0  0  0  0
  1  4  1  0  0  0  0
  4  6  2  0  0  0  0
  5  4  1  0  0  0  0
  5 10  1  0  0  0  0
  6 17  1  0  0  0  0
  6  3  1  0  0  0  0
  7  8  1  0  0  0  0
  7 12  2  0  0  0  0
  8  5  2  0  0  0  0
  9 10  2  0  0  0  0
  9  2  1  0  0  0  0
 10  3  1  0  0  0  0
 12 16  1  0  0  0  0
 12  9  1  0  0  0  0
 13 14  1  0  0  0  0
 14 25  1  0  0  0  0
 14 17  2  0  0  0  0
 15 11  1  0  0  0  0
 15  2  1  0  0  0  0
 16 15  2  0  0  0  0
 18 19  1  6  0  0  0
 18 24  1  0  0  0  0
 18 11  1  0  0  0  0
 20 22  1  0  0  0  0
 21 22  1  0  0  0  0
 23 24  1  0  0  0  0
 23 20  1  0  0  0  0
 24 21  1  0  0  0  0
 25 26  1  0  0  0  0
 26 27  1  0  0  0  0
 27 28  1  0  0  0  0
 28 29  1  0  0  0  0
 29 30  1  0  0  0  0
 30 31  1  0  0  0  0
 31 33  1  0  0  0  0
 33 32  1  1  0  0  0
 33 34  1  0  0  0  0
 34 36  1  0  0  0  0
 34 44  1  6  0  0  0
 36 35  1  1  0  0  0
 38 37  1  0  0  0  0
 38 40  1  0  0  0  0
 39 42  1  0  0  0  0
 39 41  1  0  0  0  0
 41 36  1  6  0  0  0
 41 37  1  0  0  0  0
 42 38  1  0  0  0  0
 44 43  1  0  0  0  0
 46 65  1  6  0  0  0
 47 46  1  0  0  0  0
 48 52  1  0  0  0  0
 49 45  1  6  0  0  0
 49 54  1  0  0  0  0
 50 47  1  6  0  0  0
 50 46  1  0  0  0  0
 50 54  1  0  0  0  0
 51 48  1  0  0  0  0
 51 49  1  0  0  0  0
 52 55  1  0  0  0  0
 53 52  1  0  0  0  0
 53 50  1  0  0  0  0
 55 58  1  0  0  0  0
 56 58  2  0  0  0  0
 57 63  1  0  0  0  0
 58 57  1  0  0  0  0
 59 61  1  0  0  0  0
 60 64  1  0  0  0  0
 62 63  1  0  0  0  0
 62 60  2  0  0  0  0
 63 59  2  0  0  0  0
 64 61  2  0  0  0  0
 65 66  1  0  0  0  0
 67 69  2  0  0  0  0
 69 66  1  0  0  0  0
 69 68  1  0  0  0  0
M  END
>  <MODEL>
7

>  <REMARK>
 VINA RESULT:      -4.7      3.216      7.500
  Name = 
  21 active torsions:
  status: ('A' for Active; 'I' for Inactive)
    1  A    between atoms: C_1  and  C_32
    2  A    between atoms: C_2  and  C_8
    3  A    between atoms: C_8  and  N_16
    4  A    between atoms: C_12  and  C_35
    5  A    between atoms: C_12  and  O_58
    6  A    between atoms: C_12  and  C_61
    7  A    between atoms: C_15  and  C_32
    8  A    between atoms: N_25  and  C_49
    9  A    between atoms: C_28  and  N_50
   10  A    between atoms: C_28  and  C_52
   11  A    between atoms: C_29  and  N_46
   12  A    between atoms: C_29  and  C_61
   13  A    between atoms: C_33  and  N_44
   14  A    between atoms: C_33  and  C_67
   15  A    between atoms: C_34  and  C_40
   16  A    between atoms: C_34  and  N_46
   17  A    between atoms: C_35  and  C_59
   18  A    between atoms: C_40  and  C_56
   19  A    between atoms: C_55  and  C_62
   20  A    between atoms: C_56  and  C_69
   21  A    between atoms: C_62  and  C_69
                            x       y       z     vdW  Elec       q    Type
                         _______ _______ _______ _____ _____    ______ ____

>  <TORSDO>
F 21

$$$$
=
 OpenBabel10222421273D

 69 77  0  0  1  0  0  0  0  0999 V2000
  189.6750  177.2610  138.2070 C   0  0  2  0  0  3  0  0  0  0  0  0
  187.6920  177.9440  144.2100 C   0  0  0  0  0  2  0  0  0  0  0  0
  186.8940  178.1940  140.8780 S   0  0  0  0  0  0  0  0  0  0  0  0
  188.9180  177.6360  139.4440 C   0  0  0  0  0  0  0  0  0  0  0  0
  189.3500  177.5390  140.7670 C   0  0  0  0  0  0  0  0  0  0  0  0
  187.5870  177.9930  139.3510 C   0  0  0  0  0  0  0  0  0  0  0  0
  190.8940  177.1410  142.6010 C   0  0  0  0  0  3  0  0  0  0  0  0
  190.6420  177.2020  141.2120 C   0  0  0  0  0  3  0  0  0  0  0  0
  188.5820  177.7440  143.0420 C   0  0  0  0  0  0  0  0  0  0  0  0
  188.3300  177.8130  141.6810 C   0  0  0  0  0  0  0  0  0  0  0  0
  188.3410  177.7200  146.6930 N   0  0  0  0  0  2  0  0  0  0  0  0
  189.8400  177.4190  143.4860 C   0  0  0  0  0  0  0  0  0  0  0  0
  189.0130  177.7850  137.0420 O   0  0  0  0  0  0  0  0  0  0  0  0
  187.6450  178.1170  136.9980 C   0  0  0  0  0  0  0  0  0  0  0  0
  188.6920  177.6810  145.3090 C   0  0  0  0  0  0  0  0  0  0  0  0
  189.8920  177.3930  144.8990 N   0  0  0  0  0  0  0  0  0  0  0  0
  186.9480  178.2150  138.0950 N   0  0  0  0  0  0  0  0  0  0  0  0
  189.3240  177.5600  147.7590 C   0  0  2  0  0  3  0  0  0  0  0  0
  189.3590  178.8240  148.6110 C   0  0  0  0  0  1  0  0  0  0  0  0
  192.1420  175.2730  147.3170 C   0  0  0  0  0  2  0  0  0  0  0  0
  191.8500  177.5260  148.1160 C   0  0  0  0  0  2  0  0  0  0  0  0
  192.4680  176.1890  148.4800 C   0  0  0  0  0  2  0  0  0  0  0  0
  190.7950  175.7380  146.8060 C   0  0  0  0  0  2  0  0  0  0  0  0
  190.6980  177.2140  147.1640 C   0  0  0  0  0  3  0  0  0  0  0  0
  186.9940  178.3970  135.6870 C   0  0  0  0  0  2  0  0  0  0  0  0
  186.2880  177.1490  135.1860 C   0  0  0  0  0  2  0  0  0  0  0  0
  185.0810  177.5550  134.3530 C   0  0  0  0  0  2  0  0  0  0  0  0
  183.8420  177.6770  135.2330 C   0  0  0  0  0  2  0  0  0  0  0  0
  182.8410  176.5640  134.9580 C   0  0  0  0  0  2  0  0  0  0  0  0
  181.7010  176.6890  135.8510 N   0  0  0  0  0  2  0  0  0  0  0  0
  181.9630  175.8350  137.0000 C   0  0  0  0  0  2  0  0  0  0  0  0
  184.1570  175.5840  137.9080 O   0  0  0  0  0  1  0  0  0  0  0  0
  183.3230  175.1580  136.8700 C   0  0  1  0  0  3  0  0  0  0  0  0
  183.1870  173.6320  136.8780 C   0  0  2  0  0  3  0  0  0  0  0  0
  182.7750  172.3710  134.8710 O   0  0  0  0  0  1  0  0  0  0  0  0
  183.7760  173.0150  135.6060 C   0  0  2  0  0  3  0  0  0  0  0  0
  186.1820  172.4460  135.2360 C   0  0  0  0  0  2  0  0  0  0  0  0
  187.1590  172.7990  136.2490 N   0  0  0  0  0  0  0  0  0  0  0  0
  185.1840  172.0660  137.3680 N   0  0  0  0  0  2  0  0  0  0  0  0
  188.1290  171.7140  136.2910 C   0  0  0  0  0  1  0  0  0  0  0  0
  184.9060  172.0420  135.9410 C   0  0  1  0  0  3  0  0  0  0  0  0
  186.4430  172.7890  137.5200 C   0  0  0  0  0  2  0  0  0  0  0  0
  181.8360  172.3360  137.9420 O   0  0  0  0  0  1  0  0  0  0  0  0
  181.8430  173.2670  137.0090 O   0  0  0  0  0  0  0  0  0  0  0  0
  189.7360  175.7390  138.1290 C   0  0  0  0  0  2  0  0  0  0  0  0
  194.1530  174.9070  138.5230 C   0  0  1  0  0  3  0  0  0  0  0  0
  193.6050  176.2680  138.1280 C   0  0  0  0  0  2  0  0  0  0  0  0
  191.5390  175.4500  134.7620 C   0  0  0  0  0  2  0  0  0  0  0  0
  190.7690  175.1980  137.1460 C   0  0  1  0  0  3  0  0  0  0  0  0
  193.1230  175.0290  137.3990 C   0  0  1  0  0  0  0  0  0  0  0  0
  191.0910  176.1920  136.0240 C   0  0  0  0  0  2  0  0  0  0  0  0
  192.6040  174.4550  134.9630 N   0  0  0  0  0  0  0  0  0  0  0  0
  193.6310  174.8300  135.9480 C   0  0  0  0  0  2  0  0  0  0  0  0
  191.8540  174.5430  137.7990 O   0  0  0  0  0  0  0  0  0  0  0  0
  192.0440  173.1440  135.2560 C   0  0  0  0  0  2  0  0  0  0  0  0
  194.0240  172.2030  134.3480 O   0  0  0  0  0  0  0  0  0  0  0  0
  193.1690  171.1230  136.2540 N   0  0  0  0  0  2  0  0  0  0  0  0
  193.1300  172.1290  135.2320 C   0  0  0  0  0  0  0  0  0  0  0  0
  195.5170  170.6780  136.7270 C   0  0  0  0  0  3  0  0  0  0  0  0
  195.0830  167.9200  136.6680 C   0  0  0  0  0  3  0  0  0  0  0  0
  196.5820  169.7990  136.9330 C   0  0  0  0  0  3  0  0  0  0  0  0
  194.0190  168.8010  136.4540 C   0  0  0  0  0  3  0  0  0  0  0  0
  194.2320  170.1880  136.4840 C   0  0  0  0  0  0  0  0  0  0  0  0
  196.3630  168.4200  136.9060 C   0  0  0  0  0  3  0  0  0  0  0  0
  195.5880  174.7880  138.0270 C   0  0  0  0  0  2  0  0  0  0  0  0
  196.5030  174.8920  139.1510 N   0  0  0  0  0  2  0  0  0  0  0  0
  198.4010  174.1770  137.7830 O   0  0  0  0  0  0  0  0  0  0  0  0
  198.6730  174.7880  139.9800 O   0  0  0  0  0  1  0  0  0  0  0  0
  197.8960  174.6220  139.0010 C   0  0  0  0  0  0  0  0  0  0  0  0
  1 45  1  6  0  0  0
  1  4  1  0  0  0  0
  2 15  1  0  0  0  0
  3 10  1  0  0  0  0
  4  5  1  0  0  0  0
  5  8  2  0  0  0  0
  5 10  1  0  0  0  0
  6  4  2  0  0  0  0
  6  3  1  0  0  0  0
  7 12  2  0  0  0  0
  8  7  1  0  0  0  0
  9 12  1  0  0  0  0
  9  2  1  0  0  0  0
 10  9  2  0  0  0  0
 11 18  1  0  0  0  0
 12 16  1  0  0  0  0
 13  1  1  0  0  0  0
 14 13  1  0  0  0  0
 14 17  2  0  0  0  0
 15 11  1  0  0  0  0
 16 15  2  0  0  0  0
 17  6  1  0  0  0  0
 18 19  1  6  0  0  0
 20 22  1  0  0  0  0
 21 22  1  0  0  0  0
 23 24  1  0  0  0  0
 23 20  1  0  0  0  0
 24 18  1  0  0  0  0
 24 21  1  0  0  0  0
 25 14  1  0  0  0  0
 26 25  1  0  0  0  0
 27 26  1  0  0  0  0
 27 28  1  0  0  0  0
 29 28  1  0  0  0  0
 29 30  1  0  0  0  0
 30 31  1  0  0  0  0
 33 34  1  0  0  0  0
 33 31  1  0  0  0  0
 33 32  1  1  0  0  0
 34 44  1  6  0  0  0
 36 35  1  1  0  0  0
 36 34  1  0  0  0  0
 37 41  1  0  0  0  0
 37 38  1  0  0  0  0
 38 40  1  0  0  0  0
 38 42  1  0  0  0  0
 39 42  1  0  0  0  0
 41 36  1  1  0  0  0
 41 39  1  0  0  0  0
 44 43  1  0  0  0  0
 46 65  1  6  0  0  0
 47 46  1  0  0  0  0
 48 52  1  0  0  0  0
 48 51  1  0  0  0  0
 49 54  1  0  0  0  0
 49 45  1  1  0  0  0
 50 53  1  6  0  0  0
 50 54  1  0  0  0  0
 50 47  1  0  0  0  0
 50 46  1  0  0  0  0
 51 49  1  0  0  0  0
 52 55  1  0  0  0  0
 52 53  1  0  0  0  0
 56 58  2  0  0  0  0
 57 63  1  0  0  0  0
 58 55  1  0  0  0  0
 58 57  1  0  0  0  0
 59 61  1  0  0  0  0
 60 64  1  0  0  0  0
 62 63  1  0  0  0  0
 62 60  2  0  0  0  0
 63 59  2  0  0  0  0
 64 61  2  0  0  0  0
 65 66  1  0  0  0  0
 67 69  2  0  0  0  0
 69 66  1  0  0  0  0
 69 68  1  0  0  0  0
M  END
>  <MODEL>
8

>  <REMARK>
 VINA RESULT:      -4.6      3.870     11.320
  Name = 
  21 active torsions:
  status: ('A' for Active; 'I' for Inactive)
    1  A    between atoms: C_1  and  C_32
    2  A    between atoms: C_2  and  C_8
    3  A    between atoms: C_8  and  N_16
    4  A    between atoms: C_12  and  C_35
    5  A    between atoms: C_12  and  O_58
    6  A    between atoms: C_12  and  C_61
    7  A    between atoms: C_15  and  C_32
    8  A    between atoms: N_25  and  C_49
    9  A    between atoms: C_28  and  N_50
   10  A    between atoms: C_28  and  C_52
   11  A    between atoms: C_29  and  N_46
   12  A    between atoms: C_29  and  C_61
   13  A    between atoms: C_33  and  N_44
   14  A    between atoms: C_33  and  C_67
   15  A    between atoms: C_34  and  C_40
   16  A    between atoms: C_34  and  N_46
   17  A    between atoms: C_35  and  C_59
   18  A    between atoms: C_40  and  C_56
   19  A    between atoms: C_55  and  C_62
   20  A    between atoms: C_56  and  C_69
   21  A    between atoms: C_62  and  C_69
                            x       y       z     vdW  Elec       q    Type
                         _______ _______ _______ _____ _____    ______ ____

>  <TORSDO>
F 21

$$$$
=
 OpenBabel10222421273D

 69 77  0  0  1  0  0  0  0  0999 V2000
  190.0600  176.7700  137.7180 C   0  0  2  0  0  3  0  0  0  0  0  0
  187.4360  177.9880  143.3800 C   0  0  0  0  0  2  0  0  0  0  0  0
  187.1220  178.2030  139.9660 S   0  0  0  0  0  0  0  0  0  0  0  0
  189.2120  177.3020  138.8320 C   0  0  0  0  0  0  0  0  0  0  0  0
  189.4490  177.2030  140.2030 C   0  0  0  0  0  0  0  0  0  0  0  0
  187.9700  177.8400  138.5510 C   0  0  0  0  0  0  0  0  0  0  0  0
  190.6670  176.6710  142.2380 C   0  0  0  0  0  3  0  0  0  0  0  0
  190.6100  176.7060  140.8270 C   0  0  0  0  0  3  0  0  0  0  0  0
  188.4310  177.6130  142.3480 C   0  0  0  0  0  0  0  0  0  0  0  0
  188.3700  177.6580  140.9640 C   0  0  0  0  0  0  0  0  0  0  0  0
  187.7180  177.7840  145.9330 N   0  0  0  0  0  2  0  0  0  0  0  0
  189.5600  177.1330  142.9650 C   0  0  0  0  0  0  0  0  0  0  0  0
  189.6380  177.3300  136.4610 O   0  0  0  0  0  0  0  0  0  0  0  0
  188.3500  177.8510  136.2250 C   0  0  0  0  0  0  0  0  0  0  0  0
  188.2350  177.6350  144.6100 C   0  0  0  0  0  0  0  0  0  0  0  0
  189.4230  177.1620  144.3730 N   0  0  0  0  0  0  0  0  0  0  0  0
  187.5390  178.0940  137.2160 N   0  0  0  0  0  0  0  0  0  0  0  0
  188.5200  177.5330  147.1250 C   0  0  2  0  0  3  0  0  0  0  0  0
  188.5060  178.7720  148.0140 C   0  0  0  0  0  1  0  0  0  0  0  0
  191.7390  175.9840  147.9000 C   0  0  0  0  0  2  0  0  0  0  0  0
  190.9980  178.1400  147.1230 C   0  0  0  0  0  2  0  0  0  0  0  0
  191.8630  177.4690  148.1740 C   0  0  0  0  0  2  0  0  0  0  0  0
  190.3330  175.7890  147.3730 C   0  0  0  0  0  2  0  0  0  0  0  0
  189.9420  177.1110  146.7270 C   0  0  0  0  0  3  0  0  0  0  0  0
  187.9240  178.1620  134.8320 C   0  0  0  0  0  2  0  0  0  0  0  0
  186.9320  177.1170  134.3520 C   0  0  0  0  0  2  0  0  0  0  0  0
  185.5290  177.7070  134.3780 C   0  0  0  0  0  2  0  0  0  0  0  0
  184.5050  176.6310  134.7200 C   0  0  0  0  0  2  0  0  0  0  0  0
  184.5710  176.2330  136.1880 C   0  0  0  0  0  2  0  0  0  0  0  0
  183.3990  175.4500  136.5440 N   0  0  0  0  0  2  0  0  0  0  0  0
  182.3560  176.3910  136.9260 C   0  0  0  0  0  2  0  0  0  0  0  0
  183.3750  178.5510  136.9070 O   0  0  0  0  0  1  0  0  0  0  0  0
  182.9370  177.5300  137.7570 C   0  0  1  0  0  3  0  0  0  0  0  0
  181.9100  178.0660  138.7600 C   0  0  2  0  0  3  0  0  0  0  0  0
  182.7160  179.2090  140.7180 O   0  0  0  0  0  1  0  0  0  0  0  0
  182.3720  179.3910  139.3730 C   0  0  2  0  0  3  0  0  0  0  0  0
  181.8260  181.6590  138.4750 C   0  0  0  0  0  2  0  0  0  0  0  0
  181.0760  181.7710  137.2380 N   0  0  0  0  0  0  0  0  0  0  0  0
  180.1640  179.9490  138.4790 N   0  0  0  0  0  2  0  0  0  0  0  0
  180.1830  182.9110  137.3910 C   0  0  0  0  0  1  0  0  0  0  0  0
  181.2930  180.4640  139.2350 C   0  0  1  0  0  3  0  0  0  0  0  0
  180.2420  180.5760  137.1630 C   0  0  0  0  0  2  0  0  0  0  0  0
  180.7900  176.2970  139.2630 O   0  0  0  0  0  1  0  0  0  0  0  0
  181.6820  177.1250  139.7690 O   0  0  0  0  0  0  0  0  0  0  0  0
  189.9070  175.2530  137.6860 C   0  0  0  0  0  2  0  0  0  0  0  0
  194.3990  174.9060  137.9430 C   0  0  1  0  0  3  0  0  0  0  0  0
  193.7020  176.0510  137.2280 C   0  0  0  0  0  2  0  0  0  0  0  0
  191.5420  174.1500  134.4020 C   0  0  0  0  0  2  0  0  0  0  0  0
  190.9320  174.5340  136.8150 C   0  0  1  0  0  3  0  0  0  0  0  0
  193.3010  174.6220  136.9160 C   0  0  1  0  0  0  0  0  0  0  0  0
  191.0950  175.1860  135.4370 C   0  0  0  0  0  2  0  0  0  0  0  0
  192.7060  173.3380  134.7880 N   0  0  0  0  0  0  0  0  0  0  0  0
  193.7460  174.0560  135.5430 C   0  0  0  0  0  2  0  0  0  0  0  0
  192.1090  174.1770  137.5370 O   0  0  0  0  0  0  0  0  0  0  0  0
  192.2910  172.1270  135.4810 C   0  0  0  0  0  2  0  0  0  0  0  0
  193.7640  170.4710  134.6340 O   0  0  0  0  0  0  0  0  0  0  0  0
  194.2330  171.2290  136.8100 N   0  0  0  0  0  2  0  0  0  0  0  0
  193.4530  171.2100  135.6060 C   0  0  0  0  0  0  0  0  0  0  0  0
  196.6650  171.1920  136.6710 C   0  0  0  0  0  3  0  0  0  0  0  0
  196.7600  168.6170  137.7500 C   0  0  0  0  0  3  0  0  0  0  0  0
  197.8940  170.5530  136.8470 C   0  0  0  0  0  3  0  0  0  0  0  0
  195.5300  169.2550  137.5670 C   0  0  0  0  0  3  0  0  0  0  0  0
  195.4760  170.5490  137.0270 C   0  0  0  0  0  0  0  0  0  0  0  0
  197.9400  169.2660  137.3880 C   0  0  0  0  0  3  0  0  0  0  0  0
  195.8090  174.7590  137.3880 C   0  0  0  0  0  2  0  0  0  0  0  0
  196.7600  174.6840  138.4840 N   0  0  0  0  0  2  0  0  0  0  0  0
  198.6390  174.3880  136.9460 O   0  0  0  0  0  0  0  0  0  0  0  0
  198.9630  174.5440  139.2140 O   0  0  0  0  0  1  0  0  0  0  0  0
  198.1580  174.5380  138.2430 C   0  0  0  0  0  0  0  0  0  0  0  0
  1 45  1  6  0  0  0
  1  4  1  0  0  0  0
  2 15  1  0  0  0  0
  3 10  1  0  0  0  0
  4  5  1  0  0  0  0
  5  8  2  0  0  0  0
  5 10  1  0  0  0  0
  6  4  2  0  0  0  0
  6  3  1  0  0  0  0
  7 12  2  0  0  0  0
  8  7  1  0  0  0  0
  9 12  1  0  0  0  0
  9  2  1  0  0  0  0
 10  9  2  0  0  0  0
 11 18  1  0  0  0  0
 12 16  1  0  0  0  0
 13  1  1  0  0  0  0
 14 13  1  0  0  0  0
 14 17  2  0  0  0  0
 15 11  1  0  0  0  0
 16 15  2  0  0  0  0
 17  6  1  0  0  0  0
 18 19  1  1  0  0  0
 20 22  1  0  0  0  0
 21 22  1  0  0  0  0
 23 20  1  0  0  0  0
 24 21  1  0  0  0  0
 24 18  1  0  0  0  0
 24 23  1  0  0  0  0
 25 14  1  0  0  0  0
 26 27  1  0  0  0  0
 26 25  1  0  0  0  0
 27 28  1  0  0  0  0
 28 29  1  0  0  0  0
 29 30  1  0  0  0  0
 30 31  1  0  0  0  0
 31 33  1  0  0  0  0
 33 32  1  6  0  0  0
 33 34  1  0  0  0  0
 34 36  1  0  0  0  0
 34 44  1  1  0  0  0
 36 35  1  1  0  0  0
 37 41  1  0  0  0  0
 38 40  1  0  0  0  0
 38 37  1  0  0  0  0
 39 41  1  0  0  0  0
 41 36  1  6  0  0  0
 42 38  1  0  0  0  0
 42 39  1  0  0  0  0
 43 44  1  0  0  0  0
 46 65  1  6  0  0  0
 47 46  1  0  0  0  0
 48 52  1  0  0  0  0
 48 51  1  0  0  0  0
 49 54  1  0  0  0  0
 49 45  1  1  0  0  0
 50 53  1  6  0  0  0
 50 47  1  0  0  0  0
 50 54  1  0  0  0  0
 50 46  1  0  0  0  0
 51 49  1  0  0  0  0
 52 55  1  0  0  0  0
 52 53  1  0  0  0  0
 55 58  1  0  0  0  0
 56 58  2  0  0  0  0
 57 63  1  0  0  0  0
 58 57  1  0  0  0  0
 59 61  2  0  0  0  0
 59 63  1  0  0  0  0
 61 64  1  0  0  0  0
 62 60  1  0  0  0  0
 63 62  2  0  0  0  0
 64 60  2  0  0  0  0
 65 66  1  0  0  0  0
 67 69  2  0  0  0  0
 69 66  1  0  0  0  0
 69 68  1  0  0  0  0
M  END
>  <MODEL>
9

>  <REMARK>
 VINA RESULT:      -4.4      3.685     11.549
  Name = 
  21 active torsions:
  status: ('A' for Active; 'I' for Inactive)
    1  A    between atoms: C_1  and  C_32
    2  A    between atoms: C_2  and  C_8
    3  A    between atoms: C_8  and  N_16
    4  A    between atoms: C_12  and  C_35
    5  A    between atoms: C_12  and  O_58
    6  A    between atoms: C_12  and  C_61
    7  A    between atoms: C_15  and  C_32
    8  A    between atoms: N_25  and  C_49
    9  A    between atoms: C_28  and  N_50
   10  A    between atoms: C_28  and  C_52
   11  A    between atoms: C_29  and  N_46
   12  A    between atoms: C_29  and  C_61
   13  A    between atoms: C_33  and  N_44
   14  A    between atoms: C_33  and  C_67
   15  A    between atoms: C_34  and  C_40
   16  A    between atoms: C_34  and  N_46
   17  A    between atoms: C_35  and  C_59
   18  A    between atoms: C_40  and  C_56
   19  A    between atoms: C_55  and  C_62
   20  A    between atoms: C_56  and  C_69
   21  A    between atoms: C_62  and  C_69
                            x       y       z     vdW  Elec       q    Type
                         _______ _______ _______ _____ _____    ______ ____

>  <TORSDO>
F 21

$$$$
