=
 OpenBabel10232409573D

 34 37  0  0  0  0  0  0  0  0999 V2000
  186.6080  178.2870  145.4460 C   0  0  0  0  0  3  0  0  0  0  0  0
  184.1380  178.4120  142.7950 C   0  0  0  0  0  0  0  0  0  0  0  0
  187.7540  177.6190  143.3830 C   0  0  0  0  0  0  0  0  0  0  0  0
  183.2090  178.7970  143.7480 C   0  0  0  0  0  0  0  0  0  0  0  0
  181.5080  178.9470  142.1340 C   0  0  0  0  0  3  0  0  0  0  0  0
  185.4030  178.1940  143.3420 C   0  0  0  0  0  0  0  0  0  0  0  0
  183.7520  178.2930  141.4590 C   0  0  0  0  0  3  0  0  0  0  0  0
  183.9110  178.8780  145.2800 S   0  0  0  0  0  0  0  0  0  0  0  0
  181.9160  179.0570  143.4330 N   0  0  0  0  0  0  0  0  0  0  0  0
  185.4350  178.4170  144.7120 C   0  0  0  0  0  0  0  0  0  0  0  0
  187.7900  177.9020  144.7840 C   0  0  0  0  0  0  0  0  0  0  0  0
  182.4160  178.5660  141.1280 C   0  0  0  0  0  3  0  0  0  0  0  0
  186.5520  177.7890  142.6670 C   0  0  0  0  0  3  0  0  0  0  0  0
  189.1200  177.0570  146.7470 N   0  0  0  0  0  2  0  0  0  0  0  0
  190.0210  178.6050  145.2450 O   0  0  0  0  0  0  0  0  0  0  0  0
  189.0400  177.8770  145.5750 C   0  0  0  0  0  0  0  0  0  0  0  0
  190.3250  176.9910  147.5550 C   0  0  0  0  0  2  0  0  0  0  0  0
  191.3310  176.0760  146.8940 C   0  0  0  0  0  2  0  0  0  0  0  0
  192.4480  175.7740  147.8670 C   0  0  0  0  0  2  0  0  0  0  0  0
  192.7370  176.9150  148.6110 O   0  0  0  0  0  0  0  0  0  0  0  0
  193.5370  176.4550  149.6580 C   0  0  0  0  0  1  0  0  0  0  0  0
  189.3200  175.7370  142.8410 C   0  0  0  0  0  1  0  0  0  0  0  0
  188.9090  177.1260  142.6800 N   0  0  0  0  0  0  0  0  0  0  0  0
  189.4860  177.8680  141.5690 C   0  0  0  0  0  2  0  0  0  0  0  0
  188.8610  177.4150  140.2580 C   0  0  0  0  0  2  0  0  0  0  0  0
  189.8460  177.3990  139.1820 N   0  0  0  0  0  0  0  0  0  0  0  0
  192.1400  175.2080  136.2570 C   0  0  0  0  0  1  0  0  0  0  0  0
  191.8520  176.1540  138.4810 C   0  0  0  0  0  3  0  0  0  0  0  0
  189.9440  176.9550  135.5610 O   0  0  0  0  0  0  0  0  0  0  0  0
  191.4380  176.1100  137.2120 C   0  0  0  0  0  0  0  0  0  0  0  0
  191.2440  177.0900  139.4890 C   0  0  0  0  0  2  0  0  0  0  0  0
  189.4380  177.5440  137.8080 C   0  0  0  0  0  0  0  0  0  0  0  0
  188.0240  178.2870  137.4070 S   0  0  0  0  0  0  0  0  0  0  0  0
  190.2610  176.8900  136.7810 C   0  0  0  0  0  0  0  0  0  0  0  0
  2  6  1  0  0  0  0
  2  4  1  0  0  0  0
  3 11  2  0  0  0  0
  4  8  1  0  0  0  0
  5  9  1  0  0  0  0
  6 10  1  0  0  0  0
  7  2  2  0  0  0  0
  9  4  2  0  0  0  0
 10  8  1  0  0  0  0
 10  1  2  0  0  0  0
 11  1  1  0  0  0  0
 11 16  1  0  0  0  0
 12  7  1  0  0  0  0
 12  5  2  0  0  0  0
 13  6  2  0  0  0  0
 13  3  1  0  0  0  0
 14 17  1  0  0  0  0
 15 16  2  0  0  0  0
 16 14  1  0  0  0  0
 18 17  1  0  0  0  0
 18 19  1  0  0  0  0
 19 20  1  0  0  0  0
 20 21  1  0  0  0  0
 23 22  1  0  0  0  0
 23  3  1  0  0  0  0
 24 23  1  0  0  0  0
 25 24  1  0  0  0  0
 26 31  1  0  0  0  0
 26 25  1  0  0  0  0
 27 30  1  0  0  0  0
 28 31  1  0  0  0  0
 29 34  2  0  0  0  0
 30 28  2  0  0  0  0
 32 26  1  0  0  0  0
 33 32  2  0  0  0  0
 34 30  1  0  0  0  0
 34 32  1  0  0  0  0
M  END
>  <MODEL>
1

>  <REMARK>
 VINA RESULT:      -8.2      0.000      0.000
  Name = 
  9 active torsions:
  status: ('A' for Active; 'I' for Inactive)
    1  A    between atoms: N_1  and  C_26
    2  A    between atoms: C_2  and  C_9
    3  A    between atoms: C_2  and  C_28
    4  A    between atoms: N_8  and  C_28
    5  A    between atoms: C_9  and  O_24
    6  A    between atoms: C_12  and  C_26
    7  A    between atoms: C_12  and  N_29
    8  A    between atoms: C_16  and  N_29
    9  A    between atoms: C_22  and  C_31
                            x       y       z     vdW  Elec       q    Type
                         _______ _______ _______ _____ _____    ______ ____

>  <TORSDO>
F 9

$$$$
=
 OpenBabel10232409573D

 34 37  0  0  0  0  0  0  0  0999 V2000
  187.2320  178.1520  144.8320 C   0  0  0  0  0  3  0  0  0  0  0  0
  184.3090  178.4730  142.7110 C   0  0  0  0  0  0  0  0  0  0  0  0
  188.0020  177.8640  142.5210 C   0  0  0  0  0  0  0  0  0  0  0  0
  183.5570  178.6530  143.8610 C   0  0  0  0  0  0  0  0  0  0  0  0
  181.5800  178.9070  142.6160 C   0  0  0  0  0  3  0  0  0  0  0  0
  185.6620  178.2710  142.9860 C   0  0  0  0  0  0  0  0  0  0  0  0
  183.6870  178.5160  141.4620 C   0  0  0  0  0  3  0  0  0  0  0  0
  184.5270  178.5680  145.2380 S   0  0  0  0  0  0  0  0  0  0  0  0
  182.2180  178.8620  143.8230 N   0  0  0  0  0  0  0  0  0  0  0  0
  185.9380  178.3000  144.3460 C   0  0  0  0  0  0  0  0  0  0  0  0
  188.2850  177.9490  143.9200 C   0  0  0  0  0  0  0  0  0  0  0  0
  182.3020  178.7380  141.4190 C   0  0  0  0  0  3  0  0  0  0  0  0
  186.6810  178.0470  142.0640 C   0  0  0  0  0  3  0  0  0  0  0  0
  190.0840  176.7610  145.2190 N   0  0  0  0  0  2  0  0  0  0  0  0
  190.4480  178.8790  144.2990 O   0  0  0  0  0  0  0  0  0  0  0  0
  189.6610  177.9020  144.4630 C   0  0  0  0  0  0  0  0  0  0  0  0
  191.4260  176.6610  145.7690 C   0  0  0  0  0  2  0  0  0  0  0  0
  191.3640  176.7420  147.2760 C   0  0  0  0  0  2  0  0  0  0  0  0
  189.9180  176.7970  147.7160 C   0  0  0  0  0  2  0  0  0  0  0  0
  189.6850  177.9900  148.3950 O   0  0  0  0  0  0  0  0  0  0  0  0
  188.2940  178.1040  148.4290 C   0  0  0  0  0  1  0  0  0  0  0  0
  189.8270  176.3490  141.7080 C   0  0  0  0  0  1  0  0  0  0  0  0
  189.0270  177.5580  141.5580 N   0  0  0  0  0  0  0  0  0  0  0  0
  189.0750  178.2350  140.2710 C   0  0  0  0  0  2  0  0  0  0  0  0
  189.5480  177.2720  139.1920 C   0  0  0  0  0  2  0  0  0  0  0  0
  188.5240  177.0800  138.1720 N   0  0  0  0  0  0  0  0  0  0  0  0
  186.8160  178.1440  134.3550 C   0  0  0  0  0  1  0  0  0  0  0  0
  186.9900  178.4010  136.7690 C   0  0  0  0  0  3  0  0  0  0  0  0
  188.2210  175.6610  134.8230 O   0  0  0  0  0  0  0  0  0  0  0  0
  187.2670  177.6630  135.6900 C   0  0  0  0  0  0  0  0  0  0  0  0
  187.3470  177.9520  138.1580 C   0  0  0  0  0  2  0  0  0  0  0  0
  188.7210  176.1410  137.0980 C   0  0  0  0  0  0  0  0  0  0  0  0
  189.7580  174.8710  137.2480 S   0  0  0  0  0  0  0  0  0  0  0  0
  188.0670  176.4290  135.8130 C   0  0  0  0  0  0  0  0  0  0  0  0
  2  6  1  0  0  0  0
  2  4  1  0  0  0  0
  3 11  1  0  0  0  0
  4  8  1  0  0  0  0
  5  9  1  0  0  0  0
  6 10  2  0  0  0  0
  7  2  2  0  0  0  0
  9  4  2  0  0  0  0
 10  1  1  0  0  0  0
 10  8  1  0  0  0  0
 11 16  1  0  0  0  0
 11  1  2  0  0  0  0
 12  7  1  0  0  0  0
 12  5  2  0  0  0  0
 13  3  2  0  0  0  0
 13  6  1  0  0  0  0
 14 17  1  0  0  0  0
 15 16  2  0  0  0  0
 16 14  1  0  0  0  0
 17 18  1  0  0  0  0
 18 19  1  0  0  0  0
 19 20  1  0  0  0  0
 20 21  1  0  0  0  0
 23 22  1  0  0  0  0
 23  3  1  0  0  0  0
 24 23  1  0  0  0  0
 25 24  1  0  0  0  0
 26 25  1  0  0  0  0
 27 30  1  0  0  0  0
 28 31  1  0  0  0  0
 29 34  2  0  0  0  0
 30 34  1  0  0  0  0
 30 28  2  0  0  0  0
 31 26  1  0  0  0  0
 32 33  2  0  0  0  0
 32 26  1  0  0  0  0
 34 32  1  0  0  0  0
M  END
>  <MODEL>
2

>  <REMARK>
 VINA RESULT:      -8.1      1.780      2.525
  Name = 
  9 active torsions:
  status: ('A' for Active; 'I' for Inactive)
    1  A    between atoms: N_1  and  C_26
    2  A    between atoms: C_2  and  C_9
    3  A    between atoms: C_2  and  C_28
    4  A    between atoms: N_8  and  C_28
    5  A    between atoms: C_9  and  O_24
    6  A    between atoms: C_12  and  C_26
    7  A    between atoms: C_12  and  N_29
    8  A    between atoms: C_16  and  N_29
    9  A    between atoms: C_22  and  C_31
                            x       y       z     vdW  Elec       q    Type
                         _______ _______ _______ _____ _____    ______ ____

>  <TORSDO>
F 9

$$$$
=
 OpenBabel10232409573D

 34 37  0  0  0  0  0  0  0  0999 V2000
  187.2620  178.2330  139.6400 C   0  0  0  0  0  3  0  0  0  0  0  0
  185.8130  178.3960  142.9600 C   0  0  0  0  0  0  0  0  0  0  0  0
  188.9750  177.4220  141.1980 C   0  0  0  0  0  0  0  0  0  0  0  0
  184.6650  178.9100  142.3780 C   0  0  0  0  0  0  0  0  0  0  0  0
  183.5850  179.0510  144.4600 C   0  0  0  0  0  3  0  0  0  0  0  0
  186.8130  178.1340  142.0230 C   0  0  0  0  0  0  0  0  0  0  0  0
  185.8580  178.1900  144.3390 C   0  0  0  0  0  3  0  0  0  0  0  0
  184.8470  179.0590  140.7080 S   0  0  0  0  0  0  0  0  0  0  0  0
  183.5700  179.2390  143.1080 N   0  0  0  0  0  0  0  0  0  0  0  0
  186.4240  178.4480  140.7270 C   0  0  0  0  0  0  0  0  0  0  0  0
  188.5460  177.6980  139.8620 C   0  0  0  0  0  0  0  0  0  0  0  0
  184.7250  178.5240  145.0970 C   0  0  0  0  0  3  0  0  0  0  0  0
  188.0860  177.6280  142.2730 C   0  0  0  0  0  3  0  0  0  0  0  0
  189.7520  176.0260  138.4190 N   0  0  0  0  0  2  0  0  0  0  0  0
  189.7710  178.3070  137.9100 O   0  0  0  0  0  0  0  0  0  0  0  0
  189.3700  177.3830  138.6750 C   0  0  0  0  0  0  0  0  0  0  0  0
  190.5550  175.6610  137.2650 C   0  0  0  0  0  2  0  0  0  0  0  0
  191.9350  175.2420  137.7170 C   0  0  0  0  0  2  0  0  0  0  0  0
  192.8610  176.4380  137.6690 C   0  0  0  0  0  2  0  0  0  0  0  0
  194.1300  176.0260  137.2700 O   0  0  0  0  0  0  0  0  0  0  0  0
  194.2930  174.7750  137.8660 C   0  0  0  0  0  1  0  0  0  0  0  0
  191.4540  177.6850  140.9320 C   0  0  0  0  0  1  0  0  0  0  0  0
  190.3110  176.9710  141.4870 N   0  0  0  0  0  0  0  0  0  0  0  0
  190.5700  176.0330  142.5690 C   0  0  0  0  0  2  0  0  0  0  0  0
  191.7000  176.5500  143.4480 C   0  0  0  0  0  2  0  0  0  0  0  0
  191.1810  177.1680  144.6620 N   0  0  0  0  0  0  0  0  0  0  0  0
  187.9030  177.8890  147.3730 C   0  0  0  0  0  1  0  0  0  0  0  0
  189.2420  178.4800  145.4290 C   0  0  0  0  0  3  0  0  0  0  0  0
  190.1410  176.1760  148.0160 O   0  0  0  0  0  0  0  0  0  0  0  0
  189.1300  177.7500  146.5420 C   0  0  0  0  0  0  0  0  0  0  0  0
  190.4790  178.4510  144.5740 C   0  0  0  0  0  2  0  0  0  0  0  0
  191.2250  176.4710  145.9210 C   0  0  0  0  0  0  0  0  0  0  0  0
  192.3200  175.2720  146.1990 S   0  0  0  0  0  0  0  0  0  0  0  0
  190.1750  176.7720  146.9050 C   0  0  0  0  0  0  0  0  0  0  0  0
  1 11  2  0  0  0  0
  1 10  1  0  0  0  0
  2  7  1  0  0  0  0
  3 23  1  0  0  0  0
  3 13  2  0  0  0  0
  4  2  2  0  0  0  0
  4  9  1  0  0  0  0
  5 12  1  0  0  0  0
  6 13  1  0  0  0  0
  6  2  1  0  0  0  0
  7 12  2  0  0  0  0
  8 10  1  0  0  0  0
  8  4  1  0  0  0  0
  9  5  2  0  0  0  0
 10  6  2  0  0  0  0
 11  3  1  0  0  0  0
 14 16  1  0  0  0  0
 15 16  2  0  0  0  0
 16 11  1  0  0  0  0
 17 18  1  0  0  0  0
 17 14  1  0  0  0  0
 19 18  1  0  0  0  0
 20 19  1  0  0  0  0
 20 21  1  0  0  0  0
 22 23  1  0  0  0  0
 23 24  1  0  0  0  0
 24 25  1  0  0  0  0
 25 26  1  0  0  0  0
 26 32  1  0  0  0  0
 28 30  2  0  0  0  0
 30 34  1  0  0  0  0
 30 27  1  0  0  0  0
 31 26  1  0  0  0  0
 31 28  1  0  0  0  0
 32 33  2  0  0  0  0
 32 34  1  0  0  0  0
 34 29  2  0  0  0  0
M  END
>  <MODEL>
3

>  <REMARK>
 VINA RESULT:      -8.0      2.470      7.165
  Name = 
  9 active torsions:
  status: ('A' for Active; 'I' for Inactive)
    1  A    between atoms: N_1  and  C_26
    2  A    between atoms: C_2  and  C_9
    3  A    between atoms: C_2  and  C_28
    4  A    between atoms: N_8  and  C_28
    5  A    between atoms: C_9  and  O_24
    6  A    between atoms: C_12  and  C_26
    7  A    between atoms: C_12  and  N_29
    8  A    between atoms: C_16  and  N_29
    9  A    between atoms: C_22  and  C_31
                            x       y       z     vdW  Elec       q    Type
                         _______ _______ _______ _____ _____    ______ ____

>  <TORSDO>
F 9

$$$$
=
 OpenBabel10232409573D

 34 37  0  0  0  0  0  0  0  0999 V2000
  183.3250  178.9110  144.6040 C   0  0  0  0  0  3  0  0  0  0  0  0
  186.7750  177.8730  145.0120 C   0  0  0  0  0  0  0  0  0  0  0  0
  184.1290  178.2460  142.3840 C   0  0  0  0  0  0  0  0  0  0  0  0
  186.6550  178.1810  146.3580 C   0  0  0  0  0  0  0  0  0  0  0  0
  188.8690  177.5190  146.7810 C   0  0  0  0  0  3  0  0  0  0  0  0
  185.6010  178.1260  144.3010 C   0  0  0  0  0  0  0  0  0  0  0  0
  187.9780  177.3630  144.5220 C   0  0  0  0  0  3  0  0  0  0  0  0
  185.1140  178.7700  146.7090 S   0  0  0  0  0  0  0  0  0  0  0  0
  187.6790  178.0150  147.2310 N   0  0  0  0  0  0  0  0  0  0  0  0
  184.5870  178.6230  145.1090 C   0  0  0  0  0  0  0  0  0  0  0  0
  183.0750  178.7080  143.2330 C   0  0  0  0  0  0  0  0  0  0  0  0
  189.0390  177.1840  145.4240 C   0  0  0  0  0  3  0  0  0  0  0  0
  185.3880  177.9390  142.9380 C   0  0  0  0  0  3  0  0  0  0  0  0
  181.4280  179.9650  141.8040 N   0  0  0  0  0  2  0  0  0  0  0  0
  180.7420  178.2190  143.1980 O   0  0  0  0  0  0  0  0  0  0  0  0
  181.6930  178.9230  142.7500 C   0  0  0  0  0  0  0  0  0  0  0  0
  180.0910  180.2140  141.2930 C   0  0  0  0  0  2  0  0  0  0  0  0
  180.1780  180.9830  139.9950 C   0  0  0  0  0  2  0  0  0  0  0  0
  181.2210  180.3460  139.1040 C   0  0  0  0  0  2  0  0  0  0  0  0
  182.0730  181.3300  138.6090 O   0  0  0  0  0  0  0  0  0  0  0  0
  181.2230  182.2390  137.9770 C   0  0  0  0  0  1  0  0  0  0  0  0
  182.8850  177.2810  140.4320 C   0  0  0  0  0  1  0  0  0  0  0  0
  183.9550  178.1190  140.9610 N   0  0  0  0  0  0  0  0  0  0  0  0
  184.5950  179.0460  140.0390 C   0  0  0  0  0  2  0  0  0  0  0  0
  185.3420  178.2750  138.9600 C   0  0  0  0  0  2  0  0  0  0  0  0
  186.7850  178.4110  139.1200 N   0  0  0  0  0  0  0  0  0  0  0  0
  190.6150  176.6520  140.0490 C   0  0  0  0  0  1  0  0  0  0  0  0
  188.5710  177.8000  140.7040 C   0  0  0  0  0  3  0  0  0  0  0  0
  189.8400  177.4390  137.3770 O   0  0  0  0  0  0  0  0  0  0  0  0
  189.3810  177.4150  139.7130 C   0  0  0  0  0  0  0  0  0  0  0  0
  187.3450  178.6340  140.4560 C   0  0  0  0  0  2  0  0  0  0  0  0
  187.6740  178.1860  138.0100 C   0  0  0  0  0  0  0  0  0  0  0  0
  187.1580  178.3450  136.4530 S   0  0  0  0  0  0  0  0  0  0  0  0
  189.0220  177.6810  138.3070 C   0  0  0  0  0  0  0  0  0  0  0  0
  1 10  1  0  0  0  0
  2  4  1  0  0  0  0
  3 13  2  0  0  0  0
  3 11  1  0  0  0  0
  4  8  1  0  0  0  0
  4  9  2  0  0  0  0
  5  9  1  0  0  0  0
  6  2  1  0  0  0  0
  6 10  2  0  0  0  0
  7  2  2  0  0  0  0
  7 12  1  0  0  0  0
 10  8  1  0  0  0  0
 11  1  2  0  0  0  0
 12  5  2  0  0  0  0
 13  6  1  0  0  0  0
 14 16  1  0  0  0  0
 16 15  2  0  0  0  0
 16 11  1  0  0  0  0
 17 14  1  0  0  0  0
 18 17  1  0  0  0  0
 19 18  1  0  0  0  0
 20 19  1  0  0  0  0
 21 20  1  0  0  0  0
 22 23  1  0  0  0  0
 23  3  1  0  0  0  0
 24 23  1  0  0  0  0
 25 26  1  0  0  0  0
 25 24  1  0  0  0  0
 26 31  1  0  0  0  0
 29 34  2  0  0  0  0
 30 27  1  0  0  0  0
 30 28  2  0  0  0  0
 31 28  1  0  0  0  0
 32 34  1  0  0  0  0
 32 26  1  0  0  0  0
 33 32  2  0  0  0  0
 34 30  1  0  0  0  0
M  END
>  <MODEL>
4

>  <REMARK>
 VINA RESULT:      -8.0      3.247      7.466
  Name = 
  9 active torsions:
  status: ('A' for Active; 'I' for Inactive)
    1  A    between atoms: N_1  and  C_26
    2  A    between atoms: C_2  and  C_9
    3  A    between atoms: C_2  and  C_28
    4  A    between atoms: N_8  and  C_28
    5  A    between atoms: C_9  and  O_24
    6  A    between atoms: C_12  and  C_26
    7  A    between atoms: C_12  and  N_29
    8  A    between atoms: C_16  and  N_29
    9  A    between atoms: C_22  and  C_31
                            x       y       z     vdW  Elec       q    Type
                         _______ _______ _______ _____ _____    ______ ____

>  <TORSDO>
F 9

$$$$
=
 OpenBabel10232409573D

 34 37  0  0  0  0  0  0  0  0999 V2000
  184.8520  178.5830  138.8060 C   0  0  0  0  0  3  0  0  0  0  0  0
  183.6710  178.7230  142.2320 C   0  0  0  0  0  0  0  0  0  0  0  0
  186.8190  178.2950  140.2430 C   0  0  0  0  0  0  0  0  0  0  0  0
  182.3960  178.9290  141.7300 C   0  0  0  0  0  0  0  0  0  0  0  0
  181.4810  179.0170  143.8920 C   0  0  0  0  0  3  0  0  0  0  0  0
  184.6270  178.6000  141.2220 C   0  0  0  0  0  0  0  0  0  0  0  0
  183.8700  178.6530  143.6110 C   0  0  0  0  0  3  0  0  0  0  0  0
  182.4070  178.9660  140.0440 S   0  0  0  0  0  0  0  0  0  0  0  0
  181.3170  179.0780  142.5380 N   0  0  0  0  0  0  0  0  0  0  0  0
  184.0760  178.7090  139.9520 C   0  0  0  0  0  0  0  0  0  0  0  0
  186.2350  178.3560  138.9390 C   0  0  0  0  0  0  0  0  0  0  0  0
  182.7560  178.8020  144.4510 C   0  0  0  0  0  3  0  0  0  0  0  0
  185.9950  178.4000  141.3820 C   0  0  0  0  0  3  0  0  0  0  0  0
  187.3830  176.7840  137.3430 N   0  0  0  0  0  2  0  0  0  0  0  0
  187.3810  179.0940  136.9830 O   0  0  0  0  0  0  0  0  0  0  0  0
  187.0110  178.1210  137.7010 C   0  0  0  0  0  0  0  0  0  0  0  0
  188.1390  176.4980  136.1360 C   0  0  0  0  0  2  0  0  0  0  0  0
  189.5750  176.1930  136.4950 C   0  0  0  0  0  2  0  0  0  0  0  0
  189.6180  174.9840  137.4040 C   0  0  0  0  0  2  0  0  0  0  0  0
  190.8300  174.9610  138.0890 O   0  0  0  0  0  0  0  0  0  0  0  0
  191.0730  176.2980  138.4110 C   0  0  0  0  0  1  0  0  0  0  0  0
  189.1420  179.1510  139.8490 C   0  0  0  0  0  1  0  0  0  0  0  0
  188.2400  178.1660  140.4310 N   0  0  0  0  0  0  0  0  0  0  0  0
  188.7860  177.2780  141.4460 C   0  0  0  0  0  2  0  0  0  0  0  0
  189.3390  178.0910  142.6080 C   0  0  0  0  0  2  0  0  0  0  0  0
  189.6610  177.2360  143.7430 N   0  0  0  0  0  0  0  0  0  0  0  0
  191.6380  176.6590  147.5350 C   0  0  0  0  0  1  0  0  0  0  0  0
  191.6000  176.5590  145.1040 C   0  0  0  0  0  3  0  0  0  0  0  0
  188.7710  176.9070  147.2680 O   0  0  0  0  0  0  0  0  0  0  0  0
  190.9070  176.6860  146.2390 C   0  0  0  0  0  0  0  0  0  0  0  0
  190.9300  176.5050  143.7590 C   0  0  0  0  0  2  0  0  0  0  0  0
  188.8170  177.2110  144.9100 C   0  0  0  0  0  0  0  0  0  0  0  0
  187.2280  177.6400  144.8280 S   0  0  0  0  0  0  0  0  0  0  0  0
  189.4500  176.9170  146.2040 C   0  0  0  0  0  0  0  0  0  0  0  0
  1 11  2  0  0  0  0
  1 10  1  0  0  0  0
  2  7  1  0  0  0  0
  3 23  1  0  0  0  0
  3 13  2  0  0  0  0
  4  2  2  0  0  0  0
  4  9  1  0  0  0  0
  5 12  1  0  0  0  0
  6 13  1  0  0  0  0
  6  2  1  0  0  0  0
  7 12  2  0  0  0  0
  8  4  1  0  0  0  0
  9  5  2  0  0  0  0
 10  8  1  0  0  0  0
 10  6  2  0  0  0  0
 11  3  1  0  0  0  0
 14 16  1  0  0  0  0
 15 16  2  0  0  0  0
 16 11  1  0  0  0  0
 17 18  1  0  0  0  0
 17 14  1  0  0  0  0
 18 19  1  0  0  0  0
 19 20  1  0  0  0  0
 20 21  1  0  0  0  0
 22 23  1  0  0  0  0
 23 24  1  0  0  0  0
 24 25  1  0  0  0  0
 25 26  1  0  0  0  0
 26 31  1  0  0  0  0
 26 32  1  0  0  0  0
 28 30  2  0  0  0  0
 30 27  1  0  0  0  0
 31 28  1  0  0  0  0
 32 34  1  0  0  0  0
 33 32  2  0  0  0  0
 34 30  1  0  0  0  0
 34 29  2  0  0  0  0
M  END
>  <MODEL>
5

>  <REMARK>
 VINA RESULT:      -7.5      2.199      7.063
  Name = 
  9 active torsions:
  status: ('A' for Active; 'I' for Inactive)
    1  A    between atoms: N_1  and  C_26
    2  A    between atoms: C_2  and  C_9
    3  A    between atoms: C_2  and  C_28
    4  A    between atoms: N_8  and  C_28
    5  A    between atoms: C_9  and  O_24
    6  A    between atoms: C_12  and  C_26
    7  A    between atoms: C_12  and  N_29
    8  A    between atoms: C_16  and  N_29
    9  A    between atoms: C_22  and  C_31
                            x       y       z     vdW  Elec       q    Type
                         _______ _______ _______ _____ _____    ______ ____

>  <TORSDO>
F 9

$$$$
=
 OpenBabel10232409573D

 34 37  0  0  0  0  0  0  0  0999 V2000
  183.4620  178.9940  144.6080 C   0  0  0  0  0  3  0  0  0  0  0  0
  186.8810  177.7940  144.7430 C   0  0  0  0  0  0  0  0  0  0  0  0
  184.0820  178.3720  142.3180 C   0  0  0  0  0  0  0  0  0  0  0  0
  186.8670  178.0600  146.1030 C   0  0  0  0  0  0  0  0  0  0  0  0
  189.0720  177.2880  146.3500 C   0  0  0  0  0  3  0  0  0  0  0  0
  185.6740  178.1220  144.1240 C   0  0  0  0  0  0  0  0  0  0  0  0
  188.0230  177.2490  144.1550 C   0  0  0  0  0  3  0  0  0  0  0  0
  185.3820  178.7030  146.5790 S   0  0  0  0  0  0  0  0  0  0  0  0
  187.9390  177.8190  146.8970 N   0  0  0  0  0  0  0  0  0  0  0  0
  184.7410  178.6350  145.0160 C   0  0  0  0  0  0  0  0  0  0  0  0
  183.1110  178.8500  143.2530 C   0  0  0  0  0  0  0  0  0  0  0  0
  189.1340  176.9930  144.9750 C   0  0  0  0  0  3  0  0  0  0  0  0
  185.3610  177.9920  142.7730 C   0  0  0  0  0  3  0  0  0  0  0  0
  181.4370  179.8260  141.6460 N   0  0  0  0  0  2  0  0  0  0  0  0
  180.7600  178.8250  143.6460 O   0  0  0  0  0  0  0  0  0  0  0  0
  181.7110  179.1410  142.8740 C   0  0  0  0  0  0  0  0  0  0  0  0
  180.0810  180.1300  141.2230 C   0  0  0  0  0  2  0  0  0  0  0  0
  179.9820  180.0270  139.7190 C   0  0  0  0  0  2  0  0  0  0  0  0
  181.0150  180.9330  139.0860 C   0  0  0  0  0  2  0  0  0  0  0  0
  180.4560  182.1880  138.8590 O   0  0  0  0  0  0  0  0  0  0  0  0
  181.0980  182.6530  137.7110 C   0  0  0  0  0  1  0  0  0  0  0  0
  184.4820  179.2090  139.9880 C   0  0  0  0  0  1  0  0  0  0  0  0
  183.8060  178.3020  140.9070 N   0  0  0  0  0  0  0  0  0  0  0  0
  183.1280  177.1510  140.3300 C   0  0  0  0  0  2  0  0  0  0  0  0
  182.5970  177.4980  138.9470 C   0  0  0  0  0  2  0  0  0  0  0  0
  182.8550  176.4210  137.9980 N   0  0  0  0  0  0  0  0  0  0  0  0
  184.3700  172.4670  137.1670 C   0  0  0  0  0  1  0  0  0  0  0  0
  184.6610  174.8770  137.3470 C   0  0  0  0  0  3  0  0  0  0  0  0
  181.5520  173.1110  137.1850 O   0  0  0  0  0  0  0  0  0  0  0  0
  183.8160  173.8440  137.2780 C   0  0  0  0  0  0  0  0  0  0  0  0
  184.1820  176.3010  137.3880 C   0  0  0  0  0  2  0  0  0  0  0  0
  181.8730  175.3950  137.7630 C   0  0  0  0  0  0  0  0  0  0  0  0
  180.2730  175.6560  138.0550 S   0  0  0  0  0  0  0  0  0  0  0  0
  182.3590  174.0610  137.3800 C   0  0  0  0  0  0  0  0  0  0  0  0
  1 10  1  0  0  0  0
  2  4  1  0  0  0  0
  3 13  2  0  0  0  0
  3 11  1  0  0  0  0
  4  8  1  0  0  0  0
  4  9  2  0  0  0  0
  5  9  1  0  0  0  0
  6  2  1  0  0  0  0
  6 10  2  0  0  0  0
  7  2  2  0  0  0  0
  7 12  1  0  0  0  0
 10  8  1  0  0  0  0
 11  1  2  0  0  0  0
 12  5  2  0  0  0  0
 13  6  1  0  0  0  0
 14 16  1  0  0  0  0
 16 11  1  0  0  0  0
 16 15  2  0  0  0  0
 17 14  1  0  0  0  0
 18 17  1  0  0  0  0
 19 18  1  0  0  0  0
 20 19  1  0  0  0  0
 21 20  1  0  0  0  0
 22 23  1  0  0  0  0
 23  3  1  0  0  0  0
 24 23  1  0  0  0  0
 25 24  1  0  0  0  0
 26 25  1  0  0  0  0
 27 30  1  0  0  0  0
 28 31  1  0  0  0  0
 29 34  2  0  0  0  0
 30 28  2  0  0  0  0
 30 34  1  0  0  0  0
 31 26  1  0  0  0  0
 32 26  1  0  0  0  0
 32 33  2  0  0  0  0
 34 32  1  0  0  0  0
M  END
>  <MODEL>
6

>  <REMARK>
 VINA RESULT:      -7.4      4.952      8.545
  Name = 
  9 active torsions:
  status: ('A' for Active; 'I' for Inactive)
    1  A    between atoms: N_1  and  C_26
    2  A    between atoms: C_2  and  C_9
    3  A    between atoms: C_2  and  C_28
    4  A    between atoms: N_8  and  C_28
    5  A    between atoms: C_9  and  O_24
    6  A    between atoms: C_12  and  C_26
    7  A    between atoms: C_12  and  N_29
    8  A    between atoms: C_16  and  N_29
    9  A    between atoms: C_22  and  C_31
                            x       y       z     vdW  Elec       q    Type
                         _______ _______ _______ _____ _____    ______ ____

>  <TORSDO>
F 9

$$$$
=
 OpenBabel10232409573D

 34 37  0  0  0  0  0  0  0  0999 V2000
  185.9320  178.5490  139.3060 C   0  0  0  0  0  3  0  0  0  0  0  0
  183.8300  178.6990  142.2560 C   0  0  0  0  0  0  0  0  0  0  0  0
  187.4100  178.2500  141.2400 C   0  0  0  0  0  0  0  0  0  0  0  0
  182.7500  178.9120  141.4140 C   0  0  0  0  0  0  0  0  0  0  0  0
  181.2610  179.0070  143.2290 C   0  0  0  0  0  3  0  0  0  0  0  0
  185.0320  178.5690  141.5590 C   0  0  0  0  0  0  0  0  0  0  0  0
  183.6300  178.6290  143.6360 C   0  0  0  0  0  3  0  0  0  0  0  0
  183.2390  178.9480  139.8000 S   0  0  0  0  0  0  0  0  0  0  0  0
  181.4880  179.0690  141.8830 N   0  0  0  0  0  0  0  0  0  0  0  0
  184.8640  178.6810  140.1850 C   0  0  0  0  0  0  0  0  0  0  0  0
  187.2190  178.3130  139.8240 C   0  0  0  0  0  0  0  0  0  0  0  0
  182.3240  178.7850  144.1250 C   0  0  0  0  0  3  0  0  0  0  0  0
  186.2980  178.3610  142.0990 C   0  0  0  0  0  3  0  0  0  0  0  0
  188.6770  176.7280  138.5210 N   0  0  0  0  0  2  0  0  0  0  0  0
  188.9530  179.0440  138.3590 O   0  0  0  0  0  0  0  0  0  0  0  0
  188.3130  178.0730  138.8570 C   0  0  0  0  0  0  0  0  0  0  0  0
  189.7380  176.4370  137.5720 C   0  0  0  0  0  2  0  0  0  0  0  0
  189.1690  175.6950  136.3850 C   0  0  0  0  0  2  0  0  0  0  0  0
  188.7150  176.6930  135.3430 C   0  0  0  0  0  2  0  0  0  0  0  0
  187.3240  176.7370  135.3170 O   0  0  0  0  0  0  0  0  0  0  0  0
  187.0170  178.0970  135.3870 C   0  0  0  0  0  1  0  0  0  0  0  0
  189.4030  179.2830  142.3570 C   0  0  0  0  0  1  0  0  0  0  0  0
  188.7180  178.1120  141.8230 N   0  0  0  0  0  0  0  0  0  0  0  0
  189.2430  176.8060  142.1930 C   0  0  0  0  0  2  0  0  0  0  0  0
  188.4460  176.2340  143.3560 C   0  0  0  0  0  2  0  0  0  0  0  0
  188.5780  177.0660  144.5460 N   0  0  0  0  0  0  0  0  0  0  0  0
  188.0840  177.5950  148.7990 C   0  0  0  0  0  1  0  0  0  0  0  0
  187.2690  177.7640  146.5120 C   0  0  0  0  0  3  0  0  0  0  0  0
  190.6620  177.2640  147.5350 O   0  0  0  0  0  0  0  0  0  0  0  0
  188.3110  177.5820  147.3280 C   0  0  0  0  0  0  0  0  0  0  0  0
  187.4250  177.8360  145.0190 C   0  0  0  0  0  2  0  0  0  0  0  0
  189.7790  177.0300  145.3400 C   0  0  0  0  0  0  0  0  0  0  0  0
  191.2180  176.5520  144.6970 S   0  0  0  0  0  0  0  0  0  0  0  0
  189.6530  177.3060  146.7790 C   0  0  0  0  0  0  0  0  0  0  0  0
  1 11  2  0  0  0  0
  1 10  1  0  0  0  0
  2  7  1  0  0  0  0
  3 23  1  0  0  0  0
  3 13  2  0  0  0  0
  4  9  1  0  0  0  0
  4  2  2  0  0  0  0
  5 12  1  0  0  0  0
  6 13  1  0  0  0  0
  6  2  1  0  0  0  0
  7 12  2  0  0  0  0
  8 10  1  0  0  0  0
  8  4  1  0  0  0  0
  9  5  2  0  0  0  0
 10  6  2  0  0  0  0
 11  3  1  0  0  0  0
 14 16  1  0  0  0  0
 15 16  2  0  0  0  0
 16 11  1  0  0  0  0
 17 14  1  0  0  0  0
 18 17  1  0  0  0  0
 19 18  1  0  0  0  0
 20 19  1  0  0  0  0
 20 21  1  0  0  0  0
 23 24  1  0  0  0  0
 23 22  1  0  0  0  0
 24 25  1  0  0  0  0
 25 26  1  0  0  0  0
 26 31  1  0  0  0  0
 26 32  1  0  0  0  0
 28 30  2  0  0  0  0
 30 27  1  0  0  0  0
 31 28  1  0  0  0  0
 32 34  1  0  0  0  0
 33 32  2  0  0  0  0
 34 30  1  0  0  0  0
 34 29  2  0  0  0  0
M  END
>  <MODEL>
7

>  <REMARK>
 VINA RESULT:      -7.4      2.380      7.681
  Name = 
  9 active torsions:
  status: ('A' for Active; 'I' for Inactive)
    1  A    between atoms: N_1  and  C_26
    2  A    between atoms: C_2  and  C_9
    3  A    between atoms: C_2  and  C_28
    4  A    between atoms: N_8  and  C_28
    5  A    between atoms: C_9  and  O_24
    6  A    between atoms: C_12  and  C_26
    7  A    between atoms: C_12  and  N_29
    8  A    between atoms: C_16  and  N_29
    9  A    between atoms: C_22  and  C_31
                            x       y       z     vdW  Elec       q    Type
                         _______ _______ _______ _____ _____    ______ ____

>  <TORSDO>
F 9

$$$$
=
 OpenBabel10232409573D

 34 37  0  0  0  0  0  0  0  0999 V2000
  189.8830  176.8300  142.1830 C   0  0  0  0  0  3  0  0  0  0  0  0
  186.8470  178.0520  143.7440 C   0  0  0  0  0  0  0  0  0  0  0  0
  188.5010  177.7780  140.3920 C   0  0  0  0  0  0  0  0  0  0  0  0
  187.3470  177.5970  144.9540 C   0  0  0  0  0  0  0  0  0  0  0  0
  185.4480  178.3600  146.1080 C   0  0  0  0  0  3  0  0  0  0  0  0
  187.7140  177.7960  142.6800 C   0  0  0  0  0  0  0  0  0  0  0  0
  185.6080  178.6920  143.7020 C   0  0  0  0  0  3  0  0  0  0  0  0
  188.8560  176.8710  144.7510 S   0  0  0  0  0  0  0  0  0  0  0  0
  186.6640  177.7400  146.1170 N   0  0  0  0  0  0  0  0  0  0  0  0
  188.8740  177.1480  143.0830 C   0  0  0  0  0  0  0  0  0  0  0  0
  189.7160  177.1590  140.8240 C   0  0  0  0  0  0  0  0  0  0  0  0
  184.9010  178.8470  144.9050 C   0  0  0  0  0  3  0  0  0  0  0  0
  187.5120  178.1100  141.3390 C   0  0  0  0  0  3  0  0  0  0  0  0
  190.7660  175.8420  138.9540 N   0  0  0  0  0  2  0  0  0  0  0  0
  191.9130  177.5870  140.0040 O   0  0  0  0  0  0  0  0  0  0  0  0
  190.8530  176.9020  139.9130 C   0  0  0  0  0  0  0  0  0  0  0  0
  191.8500  175.5520  138.0320 C   0  0  0  0  0  2  0  0  0  0  0  0
  191.3610  174.6170  136.9490 C   0  0  0  0  0  2  0  0  0  0  0  0
  190.1430  175.2180  136.2830 C   0  0  0  0  0  2  0  0  0  0  0  0
  190.5450  176.0430  135.2370 O   0  0  0  0  0  0  0  0  0  0  0  0
  189.5780  177.0490  135.1950 C   0  0  0  0  0  1  0  0  0  0  0  0
  189.0590  179.0060  138.2780 C   0  0  0  0  0  1  0  0  0  0  0  0
  188.2390  178.0420  139.0010 N   0  0  0  0  0  0  0  0  0  0  0  0
  187.4020  177.1510  138.2120 C   0  0  0  0  0  2  0  0  0  0  0  0
  186.4460  177.9610  137.3490 C   0  0  0  0  0  2  0  0  0  0  0  0
  185.1070  177.9850  137.9260 N   0  0  0  0  0  0  0  0  0  0  0  0
  181.2370  179.8580  138.2930 C   0  0  0  0  0  1  0  0  0  0  0  0
  183.5460  179.5580  139.0020 C   0  0  0  0  0  3  0  0  0  0  0  0
  181.6630  177.3670  136.8890 O   0  0  0  0  0  0  0  0  0  0  0  0
  182.5150  179.0940  138.2890 C   0  0  0  0  0  0  0  0  0  0  0  0
  184.8460  178.8100  139.1080 C   0  0  0  0  0  2  0  0  0  0  0  0
  184.0100  177.3230  137.2690 C   0  0  0  0  0  0  0  0  0  0  0  0
  184.2630  176.0760  136.2230 S   0  0  0  0  0  0  0  0  0  0  0  0
  182.6640  177.8830  137.4590 C   0  0  0  0  0  0  0  0  0  0  0  0
  1 10  1  0  0  0  0
  2  4  1  0  0  0  0
  3 11  1  0  0  0  0
  3 13  2  0  0  0  0
  4  9  2  0  0  0  0
  5  9  1  0  0  0  0
  6 10  2  0  0  0  0
  6  2  1  0  0  0  0
  7  2  2  0  0  0  0
  7 12  1  0  0  0  0
  8  4  1  0  0  0  0
 10  8  1  0  0  0  0
 11  1  2  0  0  0  0
 12  5  2  0  0  0  0
 13  6  1  0  0  0  0
 14 16  1  0  0  0  0
 16 15  2  0  0  0  0
 16 11  1  0  0  0  0
 17 14  1  0  0  0  0
 18 17  1  0  0  0  0
 19 18  1  0  0  0  0
 20 19  1  0  0  0  0
 21 20  1  0  0  0  0
 22 23  1  0  0  0  0
 23  3  1  0  0  0  0
 24 23  1  0  0  0  0
 25 26  1  0  0  0  0
 25 24  1  0  0  0  0
 26 31  1  0  0  0  0
 28 31  1  0  0  0  0
 29 34  2  0  0  0  0
 30 27  1  0  0  0  0
 30 28  2  0  0  0  0
 32 34  1  0  0  0  0
 32 26  1  0  0  0  0
 33 32  2  0  0  0  0
 34 30  1  0  0  0  0
M  END
>  <MODEL>
8

>  <REMARK>
 VINA RESULT:      -7.3      3.458      7.168
  Name = 
  9 active torsions:
  status: ('A' for Active; 'I' for Inactive)
    1  A    between atoms: N_1  and  C_26
    2  A    between atoms: C_2  and  C_9
    3  A    between atoms: C_2  and  C_28
    4  A    between atoms: N_8  and  C_28
    5  A    between atoms: C_9  and  O_24
    6  A    between atoms: C_12  and  C_26
    7  A    between atoms: C_12  and  N_29
    8  A    between atoms: C_16  and  N_29
    9  A    between atoms: C_22  and  C_31
                            x       y       z     vdW  Elec       q    Type
                         _______ _______ _______ _____ _____    ______ ____

>  <TORSDO>
F 9

$$$$
=
 OpenBabel10232409573D

 34 37  0  0  0  0  0  0  0  0999 V2000
  183.7590  178.7930  144.7790 C   0  0  0  0  0  3  0  0  0  0  0  0
  182.3950  178.5970  141.4250 C   0  0  0  0  0  0  0  0  0  0  0  0
  185.6250  178.2270  143.2910 C   0  0  0  0  0  0  0  0  0  0  0  0
  181.1540  178.8900  141.9670 C   0  0  0  0  0  0  0  0  0  0  0  0
  180.1330  178.8220  139.8520 C   0  0  0  0  0  3  0  0  0  0  0  0
  183.3980  178.5320  142.3940 C   0  0  0  0  0  0  0  0  0  0  0  0
  182.5250  178.4150  140.0470 C   0  0  0  0  0  3  0  0  0  0  0  0
  181.2530  179.0740  143.6410 S   0  0  0  0  0  0  0  0  0  0  0  0
  180.0390  178.9970  141.2030 N   0  0  0  0  0  0  0  0  0  0  0  0
  182.9170  178.7780  143.6730 C   0  0  0  0  0  0  0  0  0  0  0  0
  185.1300  178.5340  144.5980 C   0  0  0  0  0  0  0  0  0  0  0  0
  181.3740  178.5300  139.2520 C   0  0  0  0  0  3  0  0  0  0  0  0
  184.7460  178.2490  142.1900 C   0  0  0  0  0  3  0  0  0  0  0  0
  186.8940  177.5870  146.1240 N   0  0  0  0  0  2  0  0  0  0  0  0
  185.9640  179.6970  146.5050 O   0  0  0  0  0  0  0  0  0  0  0  0
  186.0130  178.6630  145.7780 C   0  0  0  0  0  0  0  0  0  0  0  0
  187.7850  177.6640  147.2680 C   0  0  0  0  0  2  0  0  0  0  0  0
  189.1840  177.9950  146.8010 C   0  0  0  0  0  2  0  0  0  0  0  0
  190.0090  176.7270  146.7560 C   0  0  0  0  0  2  0  0  0  0  0  0
  191.0630  176.8270  147.6600 O   0  0  0  0  0  0  0  0  0  0  0  0
  191.9850  175.8730  147.2270 C   0  0  0  0  0  1  0  0  0  0  0  0
  187.4720  176.5430  143.4850 C   0  0  0  0  0  1  0  0  0  0  0  0
  186.9980  177.8570  143.0680 N   0  0  0  0  0  0  0  0  0  0  0  0
  187.8420  178.6130  142.1550 C   0  0  0  0  0  2  0  0  0  0  0  0
  187.4590  178.3060  140.7150 C   0  0  0  0  0  2  0  0  0  0  0  0
  188.6420  178.0970  139.8890 N   0  0  0  0  0  0  0  0  0  0  0  0
  191.5170  175.4220  138.1010 C   0  0  0  0  0  1  0  0  0  0  0  0
  190.7680  176.8530  139.9210 C   0  0  0  0  0  3  0  0  0  0  0  0
  189.4830  176.8040  136.5810 O   0  0  0  0  0  0  0  0  0  0  0  0
  190.6210  176.4780  138.6470 C   0  0  0  0  0  0  0  0  0  0  0  0
  189.9530  177.9610  140.5280 C   0  0  0  0  0  2  0  0  0  0  0  0
  188.5210  177.8810  138.4700 C   0  0  0  0  0  0  0  0  0  0  0  0
  187.2070  178.4130  137.6310 S   0  0  0  0  0  0  0  0  0  0  0  0
  189.5450  177.0540  137.8160 C   0  0  0  0  0  0  0  0  0  0  0  0
  2  4  1  0  0  0  0
  2  6  1  0  0  0  0
  3 11  2  0  0  0  0
  4  8  1  0  0  0  0
  5  9  1  0  0  0  0
  6 10  1  0  0  0  0
  7  2  2  0  0  0  0
  8 10  1  0  0  0  0
  9  4  2  0  0  0  0
 10  1  2  0  0  0  0
 11  1  1  0  0  0  0
 11 16  1  0  0  0  0
 12  5  2  0  0  0  0
 12  7  1  0  0  0  0
 13  6  2  0  0  0  0
 13  3  1  0  0  0  0
 14 17  1  0  0  0  0
 16 14  1  0  0  0  0
 16 15  2  0  0  0  0
 18 17  1  0  0  0  0
 19 18  1  0  0  0  0
 19 20  1  0  0  0  0
 21 20  1  0  0  0  0
 23  3  1  0  0  0  0
 23 22  1  0  0  0  0
 24 23  1  0  0  0  0
 25 24  1  0  0  0  0
 26 31  1  0  0  0  0
 26 25  1  0  0  0  0
 27 30  1  0  0  0  0
 28 31  1  0  0  0  0
 29 34  2  0  0  0  0
 30 28  2  0  0  0  0
 32 26  1  0  0  0  0
 33 32  2  0  0  0  0
 34 32  1  0  0  0  0
 34 30  1  0  0  0  0
M  END
>  <MODEL>
9

>  <REMARK>
 VINA RESULT:      -7.3      1.646      2.368
  Name = 
  9 active torsions:
  status: ('A' for Active; 'I' for Inactive)
    1  A    between atoms: N_1  and  C_26
    2  A    between atoms: C_2  and  C_9
    3  A    between atoms: C_2  and  C_28
    4  A    between atoms: N_8  and  C_28
    5  A    between atoms: C_9  and  O_24
    6  A    between atoms: C_12  and  C_26
    7  A    between atoms: C_12  and  N_29
    8  A    between atoms: C_16  and  N_29
    9  A    between atoms: C_22  and  C_31
                            x       y       z     vdW  Elec       q    Type
                         _______ _______ _______ _____ _____    ______ ____

>  <TORSDO>
F 9

$$$$
