=
 OpenBabel10232409243D

 52 55  0  0  1  0  0  0  0  0999 V2000
  187.3430  175.3510  135.1080 C   0  0  0  0  0  0  0  0  0  0  0  0
  191.2870  176.3660  136.8930 C   0  0  1  0  0  3  0  0  0  0  0  0
  186.5820  177.4200  136.0280 N   0  0  0  0  0  0  0  0  0  0  0  0
  185.2520  176.2980  134.4430 N   0  0  0  0  0  0  0  0  0  0  0  0
  190.3160  174.3480  137.8440 O   0  0  0  0  0  1  0  0  0  0  0  0
  190.0160  176.5770  136.1230 C   0  0  0  0  0  0  0  0  0  0  0  0
  189.3370  176.9570  139.1680 C   0  0  0  0  0  3  0  0  0  0  0  0
  190.6420  176.2140  139.3220 C   0  0  1  0  0  3  0  0  0  0  0  0
  191.1370  175.4480  138.1040 C   0  0  2  0  0  3  0  0  0  0  0  0
  186.1700  175.3020  134.3500 C   0  0  0  0  0  3  0  0  0  0  0  0
  190.0890  176.8180  134.8850 O   0  0  0  0  0  0  0  0  0  0  0  0
  188.5290  177.0900  138.1070 C   0  0  0  0  0  3  0  0  0  0  0  0
  187.5390  176.4510  135.9670 C   0  0  0  0  0  0  0  0  0  0  0  0
  188.7260  176.5790  136.7740 N   0  0  0  0  0  0  0  0  0  0  0  0
  185.4520  177.3500  135.2770 C   0  0  0  0  0  3  0  0  0  0  0  0
  192.3920  175.9860  136.0660 O   0  0  0  0  0  0  0  0  0  0  0  0
  194.3260  174.7310  137.0060 C   0  0  0  0  0  1  0  0  0  0  0  0
  194.4380  177.0230  136.4000 O   0  0  0  0  0  0  0  0  0  0  0  0
  193.7310  175.9840  136.4720 C   0  0  0  0  0  0  0  0  0  0  0  0
  188.3150  174.2190  135.0290 C   0  0  0  0  0  2  0  0  0  0  0  0
  187.6020  172.9270  134.6720 C   0  0  0  0  0  2  0  0  0  0  0  0
  187.1970  172.2080  135.9440 C   0  0  0  0  0  2  0  0  0  0  0  0
  185.7500  172.0700  135.9980 N   0  0  0  0  0  2  0  0  0  0  0  0
  184.9810  172.4440  137.1420 C   0  0  0  0  0  0  0  0  0  0  0  0
  185.5350  173.0250  138.1150 O   0  0  0  0  0  0  0  0  0  0  0  0
  183.6150  172.1640  137.1600 O   0  0  0  0  0  0  0  0  0  0  0  0
  180.9190  172.5660  136.6210 O   0  0  0  0  0  1  0  0  0  0  0  0
  182.7980  173.8860  135.3530 O   0  0  0  0  0  0  0  0  0  0  0  0
  182.4320  173.3270  136.7110 P   0  0  2  0  0  0  0  0  0  0  0  0
  182.4230  174.5700  137.8780 O   0  0  0  0  0  0  0  0  0  0  0  0
  180.7630  176.5380  138.9580 O   0  0  0  0  0  1  0  0  0  0  0  0
  180.8140  175.0930  138.0740 P   0  0  0  0  0  0  0  0  0  0  0  0
  180.1490  175.3740  136.5440 O   0  0  0  0  0  0  0  0  0  0  0  0
  179.9880  174.0370  138.7760 O   0  0  0  0  0  1  0  0  0  0  0  0
  191.7330  177.1430  139.8360 C   0  0  0  0  0  2  0  0  0  0  0  0
  191.5920  177.3400  142.2280 N   0  0  0  0  0  0  0  0  0  0  0  0
  191.2980  177.8440  141.0750 C   0  0  0  0  0  3  0  0  0  0  0  0
  192.0700  178.2540  144.3320 O   0  0  0  0  0  0  0  0  0  0  0  0
  191.2090  177.9550  143.4610 C   0  0  0  0  0  0  0  0  0  0  0  0
  189.7690  178.2760  143.6970 C   0  0  0  0  0  2  0  0  0  0  0  0
  189.6870  175.8940  143.5180 O   0  0  0  0  0  1  0  0  0  0  0  0
  188.2020  176.9050  144.9630 O   0  0  0  0  0  0  0  0  0  0  0  0
  188.8890  177.0230  143.7110 C   0  0  1  0  0  0  0  0  0  0  0  0
  184.5410  178.7360  146.5820 N   0  0  0  0  0  0  0  0  0  0  0  0
  187.8810  177.1200  142.5620 C   0  0  0  0  0  2  0  0  0  0  0  0
  184.1290  178.5600  145.3650 C   0  0  0  0  0  3  0  0  0  0  0  0
  186.8650  178.0870  142.8420 O   0  0  0  0  0  0  0  0  0  0  0  0
  185.9040  179.0860  146.9470 C   0  0  0  0  0  2  0  0  0  0  0  0
  186.2770  178.1700  144.1060 C   0  0  0  0  0  0  0  0  0  0  0  0
  186.8820  178.0440  146.5240 C   0  0  0  0  0  3  0  0  0  0  0  0
  184.9960  178.5510  144.1710 C   0  0  0  0  0  3  0  0  0  0  0  0
  187.0880  177.6950  145.2540 C   0  0  0  0  0  0  0  0  0  0  0  0
  1 13  1  0  0  0  0
  2 16  1  6  0  0  0
  2  9  1  0  0  0  0
  4 15  2  0  0  0  0
  6 14  1  0  0  0  0
  6  2  1  0  0  0  0
  7  8  1  0  0  0  0
  8 35  1  6  0  0  0
  9  5  1  6  0  0  0
  9  8  1  0  0  0  0
 10  4  1  0  0  0  0
 10  1  2  0  0  0  0
 11  6  2  0  0  0  0
 12  7  2  0  0  0  0
 13  3  2  0  0  0  0
 13 14  1  0  0  0  0
 14 12  1  0  0  0  0
 15  3  1  0  0  0  0
 16 19  1  0  0  0  0
 18 19  2  0  0  0  0
 19 17  1  0  0  0  0
 20  1  1  0  0  0  0
 21 20  1  0  0  0  0
 21 22  1  0  0  0  0
 22 23  1  0  0  0  0
 23 24  1  0  0  0  0
 24 26  1  0  0  0  0
 24 25  2  0  0  0  0
 27 29  1  0  0  0  0
 29 28  2  6  0  0  0
 29 26  1  0  0  0  0
 29 30  1  0  0  0  0
 30 32  1  0  0  0  0
 32 34  1  0  0  0  0
 32 31  1  0  0  0  0
 33 32  2  0  0  0  0
 35 37  1  0  0  0  0
 36 39  1  0  0  0  0
 37 36  2  0  0  0  0
 39 40  1  0  0  0  0
 39 38  2  0  0  0  0
 40 43  1  0  0  0  0
 42 52  1  0  0  0  0
 43 41  1  6  0  0  0
 43 42  1  0  0  0  0
 44 48  1  0  0  0  0
 45 47  1  0  0  0  0
 45 43  1  0  0  0  0
 46 44  2  0  0  0  0
 47 49  1  0  0  0  0
 49 51  2  0  0  0  0
 49 52  1  0  0  0  0
 50 48  1  0  0  0  0
 51 46  1  0  0  0  0
 52 50  2  0  0  0  0
M  END
>  <MODEL>
1

>  <REMARK>
 VINA RESULT:      -7.7      0.000      0.000
  Name = 
  15 active torsions:
  status: ('A' for Active; 'I' for Inactive)
    1  A    between atoms: C_1  and  C_22
    2  A    between atoms: C_2  and  O_13
    3  A    between atoms: C_6  and  C_45
    4  A    between atoms: N_11  and  C_21
    5  A    between atoms: O_12  and  P_18
    6  A    between atoms: O_12  and  P_31
    7  A    between atoms: O_13  and  C_49
    8  A    between atoms: C_16  and  O_34
    9  A    between atoms: C_21  and  C_25
   10  A    between atoms: C_22  and  C_25
   11  A    between atoms: N_29  and  C_41
   12  A    between atoms: C_30  and  C_44
   13  A    between atoms: P_31  and  O_34
   14  A    between atoms: C_41  and  C_45
   15  A    between atoms: C_44  and  C_52
                            x       y       z     vdW  Elec       q    Type
                         _______ _______ _______ _____ _____    ______ ____

>  <TORSDO>
F 15

$$$$
=
 OpenBabel10232409243D

 52 55  0  0  1  0  0  0  0  0999 V2000
  191.8410  176.4970  137.6030 C   0  0  0  0  0  0  0  0  0  0  0  0
  187.7930  175.1330  136.3660 C   0  0  1  0  0  3  0  0  0  0  0  0
  190.8070  177.1630  139.6520 N   0  0  0  0  0  0  0  0  0  0  0  0
  193.1550  177.0750  139.5140 N   0  0  0  0  0  0  0  0  0  0  0  0
  188.6500  176.9270  134.9650 O   0  0  0  0  0  1  0  0  0  0  0  0
  188.9910  175.2990  137.2560 C   0  0  0  0  0  0  0  0  0  0  0  0
  187.2510  177.9010  137.5360 C   0  0  0  0  0  3  0  0  0  0  0  0
  186.6680  177.3810  136.2440 C   0  0  1  0  0  3  0  0  0  0  0  0
  187.4930  176.3480  135.4920 C   0  0  2  0  0  3  0  0  0  0  0  0
  193.0820  176.6730  138.2190 C   0  0  0  0  0  3  0  0  0  0  0  0
  189.6510  174.2730  137.5840 O   0  0  0  0  0  0  0  0  0  0  0  0
  188.3870  177.5810  138.1710 C   0  0  0  0  0  3  0  0  0  0  0  0
  190.6770  176.7530  138.3580 C   0  0  0  0  0  0  0  0  0  0  0  0
  189.3610  176.5860  137.7980 N   0  0  0  0  0  0  0  0  0  0  0  0
  192.0270  177.3220  140.2270 C   0  0  0  0  0  3  0  0  0  0  0  0
  187.8180  173.9190  135.6080 O   0  0  0  0  0  0  0  0  0  0  0  0
  187.0430  171.5530  135.5850 C   0  0  0  0  0  1  0  0  0  0  0  0
  185.5700  173.4010  135.3780 O   0  0  0  0  0  0  0  0  0  0  0  0
  186.7580  173.0090  135.5190 C   0  0  0  0  0  0  0  0  0  0  0  0
  191.7850  176.1030  136.1630 C   0  0  0  0  0  2  0  0  0  0  0  0
  193.1770  175.7990  135.6390 C   0  0  0  0  0  2  0  0  0  0  0  0
  193.1060  174.6380  134.6660 C   0  0  0  0  0  2  0  0  0  0  0  0
  194.2150  173.7260  134.8970 N   0  0  0  0  0  2  0  0  0  0  0  0
  194.1400  172.6350  135.8140 C   0  0  0  0  0  0  0  0  0  0  0  0
  193.0470  172.3560  136.3780 O   0  0  0  0  0  0  0  0  0  0  0  0
  195.2880  171.8830  136.0680 O   0  0  0  0  0  0  0  0  0  0  0  0
  197.8350  171.3370  137.0340 O   0  0  0  0  0  0  0  0  0  0  0  0
  196.0730  172.6680  138.4490 O   0  0  0  0  0  1  0  0  0  0  0  0
  196.5790  172.4760  137.0350 P   0  0  2  0  0  0  0  0  0  0  0  0
  197.1020  173.9650  136.3880 O   0  0  0  0  0  0  0  0  0  0  0  0
  199.2620  173.0540  137.9020 O   0  0  0  0  0  1  0  0  0  0  0  0
  198.5380  174.4080  137.1890 P   0  0  0  0  0  0  0  0  0  0  0  0
  199.6110  175.0560  136.0520 O   0  0  0  0  0  0  0  0  0  0  0  0
  198.2630  175.4560  138.2460 O   0  0  0  0  0  1  0  0  0  0  0  0
  185.2530  176.8650  136.4630 C   0  0  0  0  0  2  0  0  0  0  0  0
  183.6810  177.8020  138.0220 N   0  0  0  0  0  0  0  0  0  0  0  0
  184.7850  177.1530  137.8460 C   0  0  0  0  0  3  0  0  0  0  0  0
  182.0110  178.5940  139.4610 O   0  0  0  0  0  0  0  0  0  0  0  0
  183.1690  178.1160  139.3190 C   0  0  0  0  0  0  0  0  0  0  0  0
  184.0130  177.8410  140.5220 C   0  0  0  0  0  2  0  0  0  0  0  0
  184.9530  179.9220  139.8170 O   0  0  0  0  0  1  0  0  0  0  0  0
  184.3990  179.7030  142.0440 O   0  0  0  0  0  0  0  0  0  0  0  0
  184.9080  179.0280  140.8880 C   0  0  1  0  0  0  0  0  0  0  0  0
  184.7070  178.9370  146.3680 N   0  0  0  0  0  0  0  0  0  0  0  0
  186.3230  178.5090  141.1590 C   0  0  0  0  0  2  0  0  0  0  0  0
  185.9170  178.6030  146.0410 C   0  0  0  0  0  3  0  0  0  0  0  0
  186.3900  177.8090  142.4050 O   0  0  0  0  0  0  0  0  0  0  0  0
  183.5360  178.7000  145.5410 C   0  0  0  0  0  2  0  0  0  0  0  0
  185.7510  178.3030  143.5440 C   0  0  0  0  0  0  0  0  0  0  0  0
  183.6220  179.4090  144.2320 C   0  0  0  0  0  3  0  0  0  0  0  0
  186.3190  178.0560  144.7310 C   0  0  0  0  0  3  0  0  0  0  0  0
  184.5700  179.1740  143.3260 C   0  0  0  0  0  0  0  0  0  0  0  0
  1 10  2  0  0  0  0
  1 13  1  0  0  0  0
  2 16  1  6  0  0  0
  2  6  1  0  0  0  0
  3 15  1  0  0  0  0
  4 15  2  0  0  0  0
  6 11  2  0  0  0  0
  6 14  1  0  0  0  0
  7 12  2  0  0  0  0
  8 35  1  1  0  0  0
  8  7  1  0  0  0  0
  9  5  1  1  0  0  0
  9  8  1  0  0  0  0
  9  2  1  0  0  0  0
 10  4  1  0  0  0  0
 13  3  2  0  0  0  0
 14 12  1  0  0  0  0
 14 13  1  0  0  0  0
 18 19  2  0  0  0  0
 19 17  1  0  0  0  0
 19 16  1  0  0  0  0
 20  1  1  0  0  0  0
 21 20  1  0  0  0  0
 22 23  1  0  0  0  0
 22 21  1  0  0  0  0
 23 24  1  0  0  0  0
 24 26  1  0  0  0  0
 24 25  2  0  0  0  0
 26 29  1  0  0  0  0
 29 27  2  6  0  0  0
 29 28  1  0  0  0  0
 30 29  1  0  0  0  0
 30 32  1  0  0  0  0
 32 31  1  0  0  0  0
 32 34  1  0  0  0  0
 33 32  2  0  0  0  0
 35 37  1  0  0  0  0
 36 39  1  0  0  0  0
 37 36  2  0  0  0  0
 39 38  2  0  0  0  0
 39 40  1  0  0  0  0
 40 43  1  0  0  0  0
 42 52  1  0  0  0  0
 43 41  1  6  0  0  0
 43 45  1  0  0  0  0
 43 42  1  0  0  0  0
 45 47  1  0  0  0  0
 46 44  2  0  0  0  0
 47 49  1  0  0  0  0
 48 44  1  0  0  0  0
 49 51  2  0  0  0  0
 50 48  1  0  0  0  0
 51 46  1  0  0  0  0
 52 49  1  0  0  0  0
 52 50  2  0  0  0  0
M  END
>  <MODEL>
2

>  <REMARK>
 VINA RESULT:      -7.3      4.177      8.751
  Name = 
  15 active torsions:
  status: ('A' for Active; 'I' for Inactive)
    1  A    between atoms: C_1  and  C_22
    2  A    between atoms: C_2  and  O_13
    3  A    between atoms: C_6  and  C_45
    4  A    between atoms: N_11  and  C_21
    5  A    between atoms: O_12  and  P_18
    6  A    between atoms: O_12  and  P_31
    7  A    between atoms: O_13  and  C_49
    8  A    between atoms: C_16  and  O_34
    9  A    between atoms: C_21  and  C_25
   10  A    between atoms: C_22  and  C_25
   11  A    between atoms: N_29  and  C_41
   12  A    between atoms: C_30  and  C_44
   13  A    between atoms: P_31  and  O_34
   14  A    between atoms: C_41  and  C_45
   15  A    between atoms: C_44  and  C_52
                            x       y       z     vdW  Elec       q    Type
                         _______ _______ _______ _____ _____    ______ ____

>  <TORSDO>
F 15

$$$$
=
 OpenBabel10232409243D

 52 55  0  0  1  0  0  0  0  0999 V2000
  182.3400  178.1290  136.7470 C   0  0  0  0  0  0  0  0  0  0  0  0
  183.7430  179.4340  140.7590 C   0  0  1  0  0  3  0  0  0  0  0  0
  180.3860  179.4300  137.1920 N   0  0  0  0  0  0  0  0  0  0  0  0
  180.7900  178.6570  135.0050 N   0  0  0  0  0  0  0  0  0  0  0  0
  183.4180  177.0280  140.6130 O   0  0  0  0  0  1  0  0  0  0  0  0
  183.1600  179.5640  139.3820 C   0  0  0  0  0  0  0  0  0  0  0  0
  180.8520  178.6020  141.2850 C   0  0  0  0  0  3  0  0  0  0  0  0
  182.0290  178.2330  142.1580 C   0  0  1  0  0  3  0  0  0  0  0  0
  183.3810  178.1320  141.4690 C   0  0  2  0  0  3  0  0  0  0  0  0
  181.9350  178.0500  135.4120 C   0  0  0  0  0  3  0  0  0  0  0  0
  183.7790  180.2540  138.5240 O   0  0  0  0  0  0  0  0  0  0  0  0
  180.7930  178.8930  139.9790 C   0  0  0  0  0  3  0  0  0  0  0  0
  181.5300  178.8460  137.6500 C   0  0  0  0  0  0  0  0  0  0  0  0
  181.8830  178.9810  139.0400 N   0  0  0  0  0  0  0  0  0  0  0  0
  180.0180  179.3400  135.8870 C   0  0  0  0  0  3  0  0  0  0  0  0
  185.1490  179.6960  140.8040 O   0  0  0  0  0  0  0  0  0  0  0  0
  187.1980  178.3900  141.3490 C   0  0  0  0  0  1  0  0  0  0  0  0
  186.1630  178.3470  139.2140 O   0  0  0  0  0  0  0  0  0  0  0  0
  186.1430  178.8020  140.3880 C   0  0  0  0  0  0  0  0  0  0  0  0
  183.5760  177.4110  137.1820 C   0  0  0  0  0  2  0  0  0  0  0  0
  184.4610  177.1000  135.9880 C   0  0  0  0  0  2  0  0  0  0  0  0
  184.3060  175.6390  135.6140 C   0  0  0  0  0  2  0  0  0  0  0  0
  185.6120  175.0450  135.3740 N   0  0  0  0  0  2  0  0  0  0  0  0
  186.3520  174.3700  136.3920 C   0  0  0  0  0  0  0  0  0  0  0  0
  185.8330  174.1660  137.5230 O   0  0  0  0  0  0  0  0  0  0  0  0
  187.6490  173.9380  136.1130 O   0  0  0  0  0  0  0  0  0  0  0  0
  189.8890  175.3880  135.3400 O   0  0  0  0  0  0  0  0  0  0  0  0
  189.9170  173.8050  137.4300 O   0  0  0  0  0  1  0  0  0  0  0  0
  189.0390  174.7790  136.6740 P   0  0  2  0  0  0  0  0  0  0  0  0
  188.5310  176.0390  137.7050 O   0  0  0  0  0  0  0  0  0  0  0  0
  189.1930  178.1960  136.0610 O   0  0  0  0  0  0  0  0  0  0  0  0
  189.5860  177.3570  137.4790 P   0  0  0  0  0  0  0  0  0  0  0  0
  189.4200  178.4110  138.7920 O   0  0  0  0  0  1  0  0  0  0  0  0
  191.0240  176.8890  137.4130 O   0  0  0  0  0  1  0  0  0  0  0  0
  182.1200  179.1640  143.3590 C   0  0  0  0  0  2  0  0  0  0  0  0
  184.1460  179.6540  144.5560 N   0  0  0  0  0  0  0  0  0  0  0  0
  183.2460  178.7780  144.2510 C   0  0  0  0  0  3  0  0  0  0  0  0
  185.2210  179.6260  146.6370 O   0  0  0  0  0  0  0  0  0  0  0  0
  185.2560  179.3570  145.4060 C   0  0  0  0  0  0  0  0  0  0  0  0
  186.4600  178.6890  144.8250 C   0  0  0  0  0  2  0  0  0  0  0  0
  185.5850  176.7930  145.9870 O   0  0  0  0  0  1  0  0  0  0  0  0
  187.3790  176.4460  144.5820 O   0  0  0  0  0  0  0  0  0  0  0  0
  186.7690  177.3540  145.5080 C   0  0  1  0  0  0  0  0  0  0  0  0
  191.5000  175.9410  143.1180 N   0  0  0  0  0  0  0  0  0  0  0  0
  187.7080  177.6140  146.6900 C   0  0  0  0  0  2  0  0  0  0  0  0
  191.7820  176.2130  144.3550 C   0  0  0  0  0  3  0  0  0  0  0  0
  189.0300  177.9270  146.2440 O   0  0  0  0  0  0  0  0  0  0  0  0
  190.3970  176.5300  142.3770 C   0  0  0  0  0  2  0  0  0  0  0  0
  189.6290  177.2120  145.2050 C   0  0  0  0  0  0  0  0  0  0  0  0
  189.0760  176.2070  142.9880 C   0  0  0  0  0  3  0  0  0  0  0  0
  190.9580  177.0530  145.2460 C   0  0  0  0  0  3  0  0  0  0  0  0
  188.7220  176.5760  144.2190 C   0  0  0  0  0  0  0  0  0  0  0  0
  1 20  1  0  0  0  0
  1 13  1  0  0  0  0
  2 16  1  6  0  0  0
  2  9  1  0  0  0  0
  3 13  2  0  0  0  0
  4 10  1  0  0  0  0
  4 15  2  0  0  0  0
  6  2  1  0  0  0  0
  7  8  1  0  0  0  0
  8 35  1  1  0  0  0
  9  5  1  6  0  0  0
  9  8  1  0  0  0  0
 10  1  2  0  0  0  0
 11  6  2  0  0  0  0
 12  7  2  0  0  0  0
 13 14  1  0  0  0  0
 14  6  1  0  0  0  0
 14 12  1  0  0  0  0
 15  3  1  0  0  0  0
 18 19  2  0  0  0  0
 19 16  1  0  0  0  0
 19 17  1  0  0  0  0
 21 20  1  0  0  0  0
 22 21  1  0  0  0  0
 23 22  1  0  0  0  0
 23 24  1  0  0  0  0
 24 25  2  0  0  0  0
 26 24  1  0  0  0  0
 26 29  1  0  0  0  0
 29 27  2  6  0  0  0
 29 28  1  0  0  0  0
 29 30  1  0  0  0  0
 31 32  2  0  0  0  0
 32 30  1  0  0  0  0
 32 33  1  0  0  0  0
 34 32  1  0  0  0  0
 35 37  1  0  0  0  0
 36 39  1  0  0  0  0
 37 36  2  0  0  0  0
 39 38  2  0  0  0  0
 40 39  1  0  0  0  0
 40 43  1  0  0  0  0
 42 43  1  0  0  0  0
 43 41  1  1  0  0  0
 43 45  1  0  0  0  0
 44 46  2  0  0  0  0
 46 51  1  0  0  0  0
 47 45  1  0  0  0  0
 48 50  1  0  0  0  0
 48 44  1  0  0  0  0
 49 51  2  0  0  0  0
 49 47  1  0  0  0  0
 50 52  2  0  0  0  0
 52 42  1  0  0  0  0
 52 49  1  0  0  0  0
M  END
>  <MODEL>
3

>  <REMARK>
 VINA RESULT:      -7.1      3.477      7.097
  Name = 
  15 active torsions:
  status: ('A' for Active; 'I' for Inactive)
    1  A    between atoms: C_1  and  C_22
    2  A    between atoms: C_2  and  O_13
    3  A    between atoms: C_6  and  C_45
    4  A    between atoms: N_11  and  C_21
    5  A    between atoms: O_12  and  P_18
    6  A    between atoms: O_12  and  P_31
    7  A    between atoms: O_13  and  C_49
    8  A    between atoms: C_16  and  O_34
    9  A    between atoms: C_21  and  C_25
   10  A    between atoms: C_22  and  C_25
   11  A    between atoms: N_29  and  C_41
   12  A    between atoms: C_30  and  C_44
   13  A    between atoms: P_31  and  O_34
   14  A    between atoms: C_41  and  C_45
   15  A    between atoms: C_44  and  C_52
                            x       y       z     vdW  Elec       q    Type
                         _______ _______ _______ _____ _____    ______ ____

>  <TORSDO>
F 15

$$$$
=
 OpenBabel10232409243D

 52 55  0  0  1  0  0  0  0  0999 V2000
  189.0900  177.6440  141.3760 C   0  0  0  0  0  0  0  0  0  0  0  0
  189.2750  177.4770  136.9370 C   0  0  1  0  0  3  0  0  0  0  0  0
  191.4740  177.5070  141.3140 N   0  0  0  0  0  0  0  0  0  0  0  0
  190.4000  178.1020  143.3220 N   0  0  0  0  0  0  0  0  0  0  0  0
  188.1170  175.5680  137.9020 O   0  0  0  0  0  1  0  0  0  0  0  0
  189.6290  177.9250  138.3250 C   0  0  0  0  0  0  0  0  0  0  0  0
  191.1820  175.2480  137.7820 C   0  0  0  0  0  3  0  0  0  0  0  0
  190.1440  175.1280  136.6920 C   0  0  1  0  0  3  0  0  0  0  0  0
  188.9060  176.0000  136.8330 C   0  0  2  0  0  3  0  0  0  0  0  0
  189.1850  177.9970  142.7250 C   0  0  0  0  0  3  0  0  0  0  0  0
  189.4150  179.1270  138.6490 O   0  0  0  0  0  0  0  0  0  0  0  0
  191.2190  176.0310  138.8680 C   0  0  0  0  0  3  0  0  0  0  0  0
  190.2810  177.3960  140.6630 C   0  0  0  0  0  0  0  0  0  0  0  0
  190.2670  177.0360  139.2690 N   0  0  0  0  0  0  0  0  0  0  0  0
  191.5390  177.8560  142.6250 C   0  0  0  0  0  3  0  0  0  0  0  0
  188.3050  178.3180  136.3030 O   0  0  0  0  0  0  0  0  0  0  0  0
  186.0660  178.2020  137.3860 C   0  0  0  0  0  1  0  0  0  0  0  0
  186.4420  177.6100  135.1190 O   0  0  0  0  0  0  0  0  0  0  0  0
  186.9400  178.0260  136.1970 C   0  0  0  0  0  0  0  0  0  0  0  0
  187.7410  177.4850  140.7530 C   0  0  0  0  0  2  0  0  0  0  0  0
  186.9290  178.7590  140.9060 C   0  0  0  0  0  2  0  0  0  0  0  0
  185.6880  178.4680  141.7270 C   0  0  0  0  0  2  0  0  0  0  0  0
  185.9440  178.7450  143.1320 N   0  0  0  0  0  2  0  0  0  0  0  0
  184.9340  179.2250  144.0200 C   0  0  0  0  0  0  0  0  0  0  0  0
  183.7380  179.3150  143.6300 O   0  0  0  0  0  0  0  0  0  0  0  0
  185.2910  179.5830  145.3210 O   0  0  0  0  0  0  0  0  0  0  0  0
  186.2760  177.0120  145.6930 O   0  0  0  0  0  0  0  0  0  0  0  0
  184.6030  178.1130  147.3860 O   0  0  0  0  0  1  0  0  0  0  0  0
  185.7830  178.4240  146.4910 P   0  0  2  0  0  0  0  0  0  0  0  0
  187.0590  179.0880  147.4070 O   0  0  0  0  0  0  0  0  0  0  0  0
  188.8840  177.3260  146.2420 O   0  0  0  0  0  0  0  0  0  0  0  0
  188.1940  177.8500  147.6970 P   0  0  0  0  0  0  0  0  0  0  0  0
  189.4220  178.4660  148.6850 O   0  0  0  0  0  1  0  0  0  0  0  0
  187.5440  176.6810  148.4040 O   0  0  0  0  0  1  0  0  0  0  0  0
  190.7770  175.3320  135.3230 C   0  0  0  0  0  2  0  0  0  0  0  0
  192.9930  176.2260  135.5900 N   0  0  0  0  0  0  0  0  0  0  0  0
  192.2570  175.1830  135.3890 C   0  0  0  0  0  3  0  0  0  0  0  0
  195.1210  177.2080  135.6030 O   0  0  0  0  0  0  0  0  0  0  0  0
  194.4190  176.1610  135.6650 C   0  0  0  0  0  0  0  0  0  0  0  0
  195.0790  174.8340  135.8510 C   0  0  0  0  0  2  0  0  0  0  0  0
  194.6540  175.4570  138.1190 O   0  0  0  0  0  1  0  0  0  0  0  0
  194.6360  173.2080  137.6110 O   0  0  0  0  0  0  0  0  0  0  0  0
  195.2490  174.4720  137.3290 C   0  0  1  0  0  0  0  0  0  0  0  0
  195.9330  169.0360  137.0820 N   0  0  0  0  0  0  0  0  0  0  0  0
  196.7460  174.4160  137.6510 C   0  0  0  0  0  2  0  0  0  0  0  0
  197.0730  169.5310  137.4560 C   0  0  0  0  0  3  0  0  0  0  0  0
  197.3560  173.2540  137.0840 O   0  0  0  0  0  0  0  0  0  0  0  0
  194.9620  169.7370  136.2610 C   0  0  0  0  0  2  0  0  0  0  0  0
  196.7270  172.0080  137.1420 C   0  0  0  0  0  0  0  0  0  0  0  0
  194.4640  170.9790  136.9190 C   0  0  0  0  0  3  0  0  0  0  0  0
  197.5070  170.9230  137.2280 C   0  0  0  0  0  3  0  0  0  0  0  0
  195.2470  172.0080  137.2420 C   0  0  0  0  0  0  0  0  0  0  0  0
  1 10  1  0  0  0  0
  2 16  1  1  0  0  0
  2  6  1  0  0  0  0
  3 15  2  0  0  0  0
  6 11  2  0  0  0  0
  6 14  1  0  0  0  0
  7 12  2  0  0  0  0
  8 35  1  6  0  0  0
  8  9  1  0  0  0  0
  8  7  1  0  0  0  0
  9  2  1  0  0  0  0
  9  5  1  1  0  0  0
 10  4  2  0  0  0  0
 12 14  1  0  0  0  0
 13  3  1  0  0  0  0
 13  1  2  0  0  0  0
 14 13  1  0  0  0  0
 15  4  1  0  0  0  0
 18 19  2  0  0  0  0
 19 16  1  0  0  0  0
 19 17  1  0  0  0  0
 20 21  1  0  0  0  0
 20  1  1  0  0  0  0
 21 22  1  0  0  0  0
 22 23  1  0  0  0  0
 23 24  1  0  0  0  0
 24 26  1  0  0  0  0
 25 24  2  0  0  0  0
 26 29  1  0  0  0  0
 29 27  2  6  0  0  0
 29 28  1  0  0  0  0
 29 30  1  0  0  0  0
 30 32  1  0  0  0  0
 31 32  2  0  0  0  0
 32 34  1  0  0  0  0
 32 33  1  0  0  0  0
 35 37  1  0  0  0  0
 36 39  1  0  0  0  0
 37 36  2  0  0  0  0
 38 39  2  0  0  0  0
 39 40  1  0  0  0  0
 40 43  1  0  0  0  0
 43 42  1  0  0  0  0
 43 45  1  0  0  0  0
 43 41  1  1  0  0  0
 44 46  2  0  0  0  0
 47 49  1  0  0  0  0
 47 45  1  0  0  0  0
 48 50  1  0  0  0  0
 48 44  1  0  0  0  0
 49 51  2  0  0  0  0
 49 52  1  0  0  0  0
 50 52  2  0  0  0  0
 51 46  1  0  0  0  0
 52 42  1  0  0  0  0
M  END
>  <MODEL>
4

>  <REMARK>
 VINA RESULT:      -6.8      4.197      9.964
  Name = 
  15 active torsions:
  status: ('A' for Active; 'I' for Inactive)
    1  A    between atoms: C_1  and  C_22
    2  A    between atoms: C_2  and  O_13
    3  A    between atoms: C_6  and  C_45
    4  A    between atoms: N_11  and  C_21
    5  A    between atoms: O_12  and  P_18
    6  A    between atoms: O_12  and  P_31
    7  A    between atoms: O_13  and  C_49
    8  A    between atoms: C_16  and  O_34
    9  A    between atoms: C_21  and  C_25
   10  A    between atoms: C_22  and  C_25
   11  A    between atoms: N_29  and  C_41
   12  A    between atoms: C_30  and  C_44
   13  A    between atoms: P_31  and  O_34
   14  A    between atoms: C_41  and  C_45
   15  A    between atoms: C_44  and  C_52
                            x       y       z     vdW  Elec       q    Type
                         _______ _______ _______ _____ _____    ______ ____

>  <TORSDO>
F 15

$$$$
=
 OpenBabel10232409243D

 52 55  0  0  1  0  0  0  0  0999 V2000
  190.9560  176.8760  138.8040 C   0  0  0  0  0  0  0  0  0  0  0  0
  187.7600  175.4290  136.0710 C   0  0  1  0  0  3  0  0  0  0  0  0
  189.2040  177.2410  140.3870 N   0  0  0  0  0  0  0  0  0  0  0  0
  191.4450  177.3070  141.1030 N   0  0  0  0  0  0  0  0  0  0  0  0
  188.8810  177.4190  135.2350 O   0  0  0  0  0  1  0  0  0  0  0  0
  188.5430  175.5610  137.3450 C   0  0  0  0  0  0  0  0  0  0  0  0
  186.5760  178.0080  137.1980 C   0  0  0  0  0  3  0  0  0  0  0  0
  186.5410  177.6070  135.7430 C   0  0  1  0  0  3  0  0  0  0  0  0
  187.6740  176.7170  135.2560 C   0  0  2  0  0  3  0  0  0  0  0  0
  191.8750  177.0530  139.8410 C   0  0  0  0  0  3  0  0  0  0  0  0
  189.1390  174.5450  137.8000 O   0  0  0  0  0  0  0  0  0  0  0  0
  187.4380  177.6840  138.1720 C   0  0  0  0  0  3  0  0  0  0  0  0
  189.5810  176.9750  139.1040 C   0  0  0  0  0  0  0  0  0  0  0  0
  188.5710  176.7970  138.0930 N   0  0  0  0  0  0  0  0  0  0  0  0
  190.1200  177.4040  141.3770 C   0  0  0  0  0  3  0  0  0  0  0  0
  188.1690  174.3140  135.2710 O   0  0  0  0  0  0  0  0  0  0  0  0
  188.0300  171.9490  134.5040 C   0  0  0  0  0  1  0  0  0  0  0  0
  186.1350  173.2040  135.1860 O   0  0  0  0  0  0  0  0  0  0  0  0
  187.3810  173.1860  135.0090 C   0  0  0  0  0  0  0  0  0  0  0  0
  191.4520  176.6480  137.4130 C   0  0  0  0  0  2  0  0  0  0  0  0
  192.8270  176.0040  137.4370 C   0  0  0  0  0  2  0  0  0  0  0  0
  193.6340  176.4990  136.2530 C   0  0  0  0  0  2  0  0  0  0  0  0
  195.0220  176.0870  136.3890 N   0  0  0  0  0  2  0  0  0  0  0  0
  195.5180  174.8570  135.8590 C   0  0  0  0  0  0  0  0  0  0  0  0
  194.7760  174.1310  135.1420 O   0  0  0  0  0  0  0  0  0  0  0  0
  196.8320  174.4790  136.1400 O   0  0  0  0  0  0  0  0  0  0  0  0
  196.0620  173.7490  138.7070 O   0  0  0  0  0  1  0  0  0  0  0  0
  197.9900  175.4730  138.2770 O   0  0  0  0  0  0  0  0  0  0  0  0
  197.3830  174.1940  137.7420 P   0  0  2  0  0  0  0  0  0  0  0  0
  198.5560  172.9570  137.7000 O   0  0  0  0  0  0  0  0  0  0  0  0
  198.2320  171.6180  135.2720 O   0  0  0  0  0  0  0  0  0  0  0  0
  197.8640  171.6060  136.9260 P   0  0  0  0  0  0  0  0  0  0  0  0
  198.5130  170.2020  137.6110 O   0  0  0  0  0  1  0  0  0  0  0  0
  196.3630  171.5890  137.1150 O   0  0  0  0  0  1  0  0  0  0  0  0
  185.1970  176.9870  135.3880 C   0  0  0  0  0  2  0  0  0  0  0  0
  183.0150  177.6470  136.1510 N   0  0  0  0  0  0  0  0  0  0  0  0
  184.1960  177.2270  136.4630 C   0  0  0  0  0  3  0  0  0  0  0  0
  180.7800  177.7680  136.8440 O   0  0  0  0  0  0  0  0  0  0  0  0
  182.0020  177.9010  137.1270 C   0  0  0  0  0  0  0  0  0  0  0  0
  182.4060  178.2970  138.5100 C   0  0  0  0  0  2  0  0  0  0  0  0
  182.0660  175.9540  138.8350 O   0  0  0  0  0  1  0  0  0  0  0  0
  183.3450  177.0710  140.3940 O   0  0  0  0  0  0  0  0  0  0  0  0
  182.2150  177.1610  139.5190 C   0  0  1  0  0  0  0  0  0  0  0  0
  184.5380  179.2590  144.0230 N   0  0  0  0  0  0  0  0  0  0  0  0
  180.9420  177.4320  140.3260 C   0  0  0  0  0  2  0  0  0  0  0  0
  183.2660  179.1900  144.2660 C   0  0  0  0  0  3  0  0  0  0  0  0
  181.1340  178.5020  141.2560 O   0  0  0  0  0  0  0  0  0  0  0  0
  185.1140  179.4230  142.6990 C   0  0  0  0  0  2  0  0  0  0  0  0
  182.3040  178.5990  142.0130 C   0  0  0  0  0  0  0  0  0  0  0  0
  184.7710  178.2900  141.7940 C   0  0  0  0  0  3  0  0  0  0  0  0
  182.2090  179.1300  143.2370 C   0  0  0  0  0  3  0  0  0  0  0  0
  183.5240  177.9770  141.4420 C   0  0  0  0  0  0  0  0  0  0  0  0
  1 13  2  0  0  0  0
  1 10  1  0  0  0  0
  2 16  1  6  0  0  0
  2  6  1  0  0  0  0
  3 15  2  0  0  0  0
  4 15  1  0  0  0  0
  6 11  2  0  0  0  0
  6 14  1  0  0  0  0
  7 12  2  0  0  0  0
  8 35  1  1  0  0  0
  8  7  1  0  0  0  0
  9  5  1  1  0  0  0
  9  8  1  0  0  0  0
  9  2  1  0  0  0  0
 10  4  2  0  0  0  0
 13  3  1  0  0  0  0
 14 12  1  0  0  0  0
 14 13  1  0  0  0  0
 17 19  1  0  0  0  0
 19 18  2  0  0  0  0
 19 16  1  0  0  0  0
 20 21  1  0  0  0  0
 20  1  1  0  0  0  0
 22 23  1  0  0  0  0
 22 21  1  0  0  0  0
 24 26  1  0  0  0  0
 24 23  1  0  0  0  0
 25 24  2  0  0  0  0
 26 29  1  0  0  0  0
 29 28  2  1  0  0  0
 29 27  1  0  0  0  0
 30 29  1  0  0  0  0
 31 32  2  0  0  0  0
 32 34  1  0  0  0  0
 32 33  1  0  0  0  0
 32 30  1  0  0  0  0
 35 37  1  0  0  0  0
 36 37  2  0  0  0  0
 36 39  1  0  0  0  0
 38 39  2  0  0  0  0
 39 40  1  0  0  0  0
 40 43  1  0  0  0  0
 42 52  1  0  0  0  0
 43 41  1  6  0  0  0
 43 45  1  0  0  0  0
 43 42  1  0  0  0  0
 44 46  2  0  0  0  0
 45 47  1  0  0  0  0
 47 49  1  0  0  0  0
 48 44  1  0  0  0  0
 49 51  2  0  0  0  0
 50 48  1  0  0  0  0
 51 46  1  0  0  0  0
 52 50  2  0  0  0  0
 52 49  1  0  0  0  0
M  END
>  <MODEL>
5

>  <REMARK>
 VINA RESULT:      -6.7      4.353      9.311
  Name = 
  15 active torsions:
  status: ('A' for Active; 'I' for Inactive)
    1  A    between atoms: C_1  and  C_22
    2  A    between atoms: C_2  and  O_13
    3  A    between atoms: C_6  and  C_45
    4  A    between atoms: N_11  and  C_21
    5  A    between atoms: O_12  and  P_18
    6  A    between atoms: O_12  and  P_31
    7  A    between atoms: O_13  and  C_49
    8  A    between atoms: C_16  and  O_34
    9  A    between atoms: C_21  and  C_25
   10  A    between atoms: C_22  and  C_25
   11  A    between atoms: N_29  and  C_41
   12  A    between atoms: C_30  and  C_44
   13  A    between atoms: P_31  and  O_34
   14  A    between atoms: C_41  and  C_45
   15  A    between atoms: C_44  and  C_52
                            x       y       z     vdW  Elec       q    Type
                         _______ _______ _______ _____ _____    ______ ____

>  <TORSDO>
F 15

$$$$
=
 OpenBabel10232409243D

 52 55  0  0  1  0  0  0  0  0999 V2000
  188.9760  177.7930  141.6360 C   0  0  0  0  0  0  0  0  0  0  0  0
  189.3550  177.6850  137.2070 C   0  0  1  0  0  3  0  0  0  0  0  0
  191.3590  177.6200  141.6770 N   0  0  0  0  0  0  0  0  0  0  0  0
  190.2060  178.2030  143.6440 N   0  0  0  0  0  0  0  0  0  0  0  0
  188.1260  175.7810  138.0920 O   0  0  0  0  0  1  0  0  0  0  0  0
  189.6540  178.1080  138.6160 C   0  0  0  0  0  0  0  0  0  0  0  0
  191.1890  175.4140  138.1030 C   0  0  0  0  0  3  0  0  0  0  0  0
  190.1990  175.3260  136.9670 C   0  0  1  0  0  3  0  0  0  0  0  0
  188.9690  176.2150  137.0660 C   0  0  2  0  0  3  0  0  0  0  0  0
  189.0170  178.1260  142.9930 C   0  0  0  0  0  3  0  0  0  0  0  0
  189.4440  179.3090  138.9480 O   0  0  0  0  0  0  0  0  0  0  0  0
  191.1900  176.1820  139.2010 C   0  0  0  0  0  3  0  0  0  0  0  0
  190.1940  177.5370  140.9730 C   0  0  0  0  0  0  0  0  0  0  0  0
  190.2360  177.1960  139.5740 N   0  0  0  0  0  0  0  0  0  0  0  0
  191.3700  177.9490  142.9950 C   0  0  0  0  0  3  0  0  0  0  0  0
  188.4270  178.5500  136.5440 O   0  0  0  0  0  0  0  0  0  0  0  0
  186.3570  177.8250  135.3640 C   0  0  0  0  0  1  0  0  0  0  0  0
  186.3500  178.7270  137.5590 O   0  0  0  0  0  0  0  0  0  0  0  0
  187.0360  178.3920  136.5580 C   0  0  0  0  0  0  0  0  0  0  0  0
  187.6540  177.6640  140.9520 C   0  0  0  0  0  2  0  0  0  0  0  0
  186.5260  178.0390  141.8970 C   0  0  0  0  0  2  0  0  0  0  0  0
  185.6780  179.1230  141.2610 C   0  0  0  0  0  2  0  0  0  0  0  0
  184.4550  178.5490  140.7240 N   0  0  0  0  0  2  0  0  0  0  0  0
  183.6580  179.2100  139.7410 C   0  0  0  0  0  0  0  0  0  0  0  0
  184.0610  180.2830  139.2160 O   0  0  0  0  0  0  0  0  0  0  0  0
  182.4350  178.6480  139.3700 O   0  0  0  0  0  0  0  0  0  0  0  0
  183.0970  178.0360  136.7430 O   0  0  0  0  0  0  0  0  0  0  0  0
  180.8400  177.2500  137.8220 O   0  0  0  0  0  1  0  0  0  0  0  0
  182.3060  177.4660  138.1300 P   0  0  2  0  0  0  0  0  0  0  0  0
  183.0130  176.0170  138.6850 O   0  0  0  0  0  0  0  0  0  0  0  0
  181.2700  174.0610  137.7220 O   0  0  0  0  0  1  0  0  0  0  0  0
  182.7650  174.8240  137.4950 P   0  0  0  0  0  0  0  0  0  0  0  0
  182.7640  175.5700  135.9770 O   0  0  0  0  0  0  0  0  0  0  0  0
  183.8740  173.7940  137.5280 O   0  0  0  0  0  1  0  0  0  0  0  0
  190.8950  175.5400  135.6300 C   0  0  0  0  0  2  0  0  0  0  0  0
  193.2210  176.1300  135.7640 N   0  0  0  0  0  0  0  0  0  0  0  0
  192.3380  175.1880  135.7150 C   0  0  0  0  0  3  0  0  0  0  0  0
  195.4650  176.8050  135.7440 O   0  0  0  0  0  0  0  0  0  0  0  0
  194.6240  175.8700  135.8460 C   0  0  0  0  0  0  0  0  0  0  0  0
  195.0930  174.4730  136.0900 C   0  0  0  0  0  2  0  0  0  0  0  0
  194.9610  175.2430  138.3480 O   0  0  0  0  0  1  0  0  0  0  0  0
  195.0660  172.9660  138.0040 O   0  0  0  0  0  0  0  0  0  0  0  0
  195.5150  174.2470  137.5440 C   0  0  1  0  0  0  0  0  0  0  0  0
  196.6360  168.8780  137.5650 N   0  0  0  0  0  0  0  0  0  0  0  0
  197.0420  174.3330  137.6300 C   0  0  0  0  0  2  0  0  0  0  0  0
  197.7700  169.4880  137.7210 C   0  0  0  0  0  3  0  0  0  0  0  0
  197.6610  173.1790  137.0550 O   0  0  0  0  0  0  0  0  0  0  0  0
  195.4930  169.4330  136.8610 C   0  0  0  0  0  2  0  0  0  0  0  0
  197.1620  171.8970  137.2970 C   0  0  0  0  0  0  0  0  0  0  0  0
  194.9920  170.6820  137.5020 C   0  0  0  0  0  3  0  0  0  0  0  0
  198.0390  170.8860  137.3320 C   0  0  0  0  0  3  0  0  0  0  0  0
  195.7200  171.7910  137.6270 C   0  0  0  0  0  0  0  0  0  0  0  0
  1 10  1  0  0  0  0
  2 16  1  1  0  0  0
  2  6  1  0  0  0  0
  3 15  2  0  0  0  0
  6 11  2  0  0  0  0
  6 14  1  0  0  0  0
  7 12  2  0  0  0  0
  8 35  1  6  0  0  0
  8  9  1  0  0  0  0
  8  7  1  0  0  0  0
  9  2  1  0  0  0  0
  9  5  1  1  0  0  0
 10  4  2  0  0  0  0
 12 14  1  0  0  0  0
 13  1  2  0  0  0  0
 13  3  1  0  0  0  0
 14 13  1  0  0  0  0
 15  4  1  0  0  0  0
 16 19  1  0  0  0  0
 17 19  1  0  0  0  0
 19 18  2  0  0  0  0
 20  1  1  0  0  0  0
 20 21  1  0  0  0  0
 22 21  1  0  0  0  0
 23 22  1  0  0  0  0
 24 23  1  0  0  0  0
 25 24  2  0  0  0  0
 26 24  1  0  0  0  0
 28 29  1  0  0  0  0
 29 27  2  6  0  0  0
 29 30  1  0  0  0  0
 29 26  1  0  0  0  0
 32 34  1  0  0  0  0
 32 31  1  0  0  0  0
 32 30  1  0  0  0  0
 33 32  2  0  0  0  0
 35 37  1  0  0  0  0
 36 39  1  0  0  0  0
 37 36  2  0  0  0  0
 38 39  2  0  0  0  0
 39 40  1  0  0  0  0
 40 43  1  0  0  0  0
 43 45  1  0  0  0  0
 43 42  1  0  0  0  0
 43 41  1  1  0  0  0
 44 46  2  0  0  0  0
 47 49  1  0  0  0  0
 47 45  1  0  0  0  0
 48 50  1  0  0  0  0
 48 44  1  0  0  0  0
 49 51  2  0  0  0  0
 49 52  1  0  0  0  0
 50 52  2  0  0  0  0
 51 46  1  0  0  0  0
 52 42  1  0  0  0  0
M  END
>  <MODEL>
6

>  <REMARK>
 VINA RESULT:      -6.5      3.350      8.752
  Name = 
  15 active torsions:
  status: ('A' for Active; 'I' for Inactive)
    1  A    between atoms: C_1  and  C_22
    2  A    between atoms: C_2  and  O_13
    3  A    between atoms: C_6  and  C_45
    4  A    between atoms: N_11  and  C_21
    5  A    between atoms: O_12  and  P_18
    6  A    between atoms: O_12  and  P_31
    7  A    between atoms: O_13  and  C_49
    8  A    between atoms: C_16  and  O_34
    9  A    between atoms: C_21  and  C_25
   10  A    between atoms: C_22  and  C_25
   11  A    between atoms: N_29  and  C_41
   12  A    between atoms: C_30  and  C_44
   13  A    between atoms: P_31  and  O_34
   14  A    between atoms: C_41  and  C_45
   15  A    between atoms: C_44  and  C_52
                            x       y       z     vdW  Elec       q    Type
                         _______ _______ _______ _____ _____    ______ ____

>  <TORSDO>
F 15

$$$$
=
 OpenBabel10232409243D

 52 55  0  0  1  0  0  0  0  0999 V2000
  191.4430  176.4620  137.9540 C   0  0  0  0  0  0  0  0  0  0  0  0
  188.2030  175.4290  135.0890 C   0  0  1  0  0  3  0  0  0  0  0  0
  192.5690  174.5270  137.1190 N   0  0  0  0  0  0  0  0  0  0  0  0
  193.7510  176.0750  138.4400 N   0  0  0  0  0  0  0  0  0  0  0  0
  187.4750  175.3280  137.4090 O   0  0  0  0  0  1  0  0  0  0  0  0
  189.6030  175.6750  135.5720 C   0  0  0  0  0  0  0  0  0  0  0  0
  188.8300  172.7460  136.4050 C   0  0  0  0  0  3  0  0  0  0  0  0
  187.4400  173.2800  136.1550 C   0  0  1  0  0  3  0  0  0  0  0  0
  187.2870  174.7930  136.1320 C   0  0  2  0  0  3  0  0  0  0  0  0
  192.6390  176.8430  138.5680 C   0  0  0  0  0  3  0  0  0  0  0  0
  190.2580  176.6320  135.0710 O   0  0  0  0  0  0  0  0  0  0  0  0
  189.9920  173.3880  136.5860 C   0  0  0  0  0  3  0  0  0  0  0  0
  191.4260  175.2650  137.2090 C   0  0  0  0  0  0  0  0  0  0  0  0
  190.2360  174.8080  136.5390 N   0  0  0  0  0  0  0  0  0  0  0  0
  193.7190  174.9230  137.7230 C   0  0  0  0  0  3  0  0  0  0  0  0
  187.6050  176.5780  134.4800 O   0  0  0  0  0  0  0  0  0  0  0  0
  187.1560  178.4280  136.0860 C   0  0  0  0  0  1  0  0  0  0  0  0
  185.4470  177.3400  134.8510 O   0  0  0  0  0  0  0  0  0  0  0  0
  186.6780  177.4220  135.1030 C   0  0  0  0  0  0  0  0  0  0  0  0
  190.2190  177.2950  138.1510 C   0  0  0  0  0  2  0  0  0  0  0  0
  190.1810  177.8640  139.5580 C   0  0  0  0  0  2  0  0  0  0  0  0
  188.9480  177.3510  140.2750 C   0  0  0  0  0  2  0  0  0  0  0  0
  189.3290  176.7000  141.5180 N   0  0  0  0  0  2  0  0  0  0  0  0
  188.6250  176.9030  142.7440 C   0  0  0  0  0  0  0  0  0  0  0  0
  187.5600  177.5780  142.7580 O   0  0  0  0  0  0  0  0  0  0  0  0
  189.1300  176.3390  143.9160 O   0  0  0  0  0  0  0  0  0  0  0  0
  190.1080  178.7890  144.7870 O   0  0  0  0  0  1  0  0  0  0  0  0
  191.6960  176.7640  144.2840 O   0  0  0  0  0  0  0  0  0  0  0  0
  190.3400  177.1120  144.8610 P   0  0  2  0  0  0  0  0  0  0  0  0
  190.2190  176.5460  146.4650 O   0  0  0  0  0  0  0  0  0  0  0  0
  188.1420  176.2460  148.3060 O   0  0  0  0  0  1  0  0  0  0  0  0
  188.8610  177.2870  147.1800 P   0  0  0  0  0  0  0  0  0  0  0  0
  189.3720  178.6840  147.9860 O   0  0  0  0  0  1  0  0  0  0  0  0
  187.8470  177.6780  146.1270 O   0  0  0  0  0  0  0  0  0  0  0  0
  186.8500  172.6730  134.8900 C   0  0  0  0  0  2  0  0  0  0  0  0
  184.5210  172.7480  135.4780 N   0  0  0  0  0  0  0  0  0  0  0  0
  185.5420  172.0200  135.1680 C   0  0  0  0  0  3  0  0  0  0  0  0
  182.7360  171.3000  135.0210 O   0  0  0  0  0  0  0  0  0  0  0  0
  183.2330  172.1930  135.7600 C   0  0  0  0  0  0  0  0  0  0  0  0
  182.4870  172.6600  136.9670 C   0  0  0  0  0  2  0  0  0  0  0  0
  180.2200  172.7410  136.2160 O   0  0  0  0  0  1  0  0  0  0  0  0
  180.8990  174.3430  137.7280 O   0  0  0  0  0  0  0  0  0  0  0  0
  181.2920  173.5450  136.6050 C   0  0  1  0  0  0  0  0  0  0  0  0
  182.3910  178.1230  139.4190 N   0  0  0  0  0  0  0  0  0  0  0  0
  181.6860  174.4460  135.4300 C   0  0  0  0  0  2  0  0  0  0  0  0
  182.5210  178.4250  138.1650 C   0  0  0  0  0  3  0  0  0  0  0  0
  182.5870  175.4760  135.8450 O   0  0  0  0  0  0  0  0  0  0  0  0
  182.6080  176.7970  139.9720 C   0  0  0  0  0  2  0  0  0  0  0  0
  182.3830  176.1750  137.0380 C   0  0  0  0  0  0  0  0  0  0  0  0
  181.6690  175.7900  139.3980 C   0  0  0  0  0  3  0  0  0  0  0  0
  182.7730  177.4550  137.0820 C   0  0  0  0  0  3  0  0  0  0  0  0
  181.6270  175.4740  138.1040 C   0  0  0  0  0  0  0  0  0  0  0  0
  1 20  1  0  0  0  0
  1 10  1  0  0  0  0
  2 16  1  1  0  0  0
  2  6  1  0  0  0  0
  2  9  1  0  0  0  0
  3 13  1  0  0  0  0
  3 15  2  0  0  0  0
  4 10  2  0  0  0  0
  6 14  1  0  0  0  0
  7 12  2  0  0  0  0
  8 35  1  6  0  0  0
  8  7  1  0  0  0  0
  9  8  1  0  0  0  0
  9  5  1  1  0  0  0
 11  6  2  0  0  0  0
 13  1  2  0  0  0  0
 14 12  1  0  0  0  0
 14 13  1  0  0  0  0
 15  4  1  0  0  0  0
 16 19  1  0  0  0  0
 18 19  2  0  0  0  0
 19 17  1  0  0  0  0
 20 21  1  0  0  0  0
 21 22  1  0  0  0  0
 22 23  1  0  0  0  0
 23 24  1  0  0  0  0
 24 25  2  0  0  0  0
 24 26  1  0  0  0  0
 26 29  1  0  0  0  0
 27 29  1  0  0  0  0
 29 28  2  6  0  0  0
 29 30  1  0  0  0  0
 30 32  1  0  0  0  0
 32 33  1  0  0  0  0
 32 31  1  0  0  0  0
 34 32  2  0  0  0  0
 35 37  1  0  0  0  0
 36 39  1  0  0  0  0
 37 36  2  0  0  0  0
 38 39  2  0  0  0  0
 39 40  1  0  0  0  0
 42 52  1  0  0  0  0
 43 41  1  6  0  0  0
 43 40  1  0  0  0  0
 43 42  1  0  0  0  0
 44 48  1  0  0  0  0
 45 47  1  0  0  0  0
 45 43  1  0  0  0  0
 46 44  2  0  0  0  0
 47 49  1  0  0  0  0
 49 51  2  0  0  0  0
 49 52  1  0  0  0  0
 50 48  1  0  0  0  0
 51 46  1  0  0  0  0
 52 50  2  0  0  0  0
M  END
>  <MODEL>
7

>  <REMARK>
 VINA RESULT:      -6.4      3.566      8.961
  Name = 
  15 active torsions:
  status: ('A' for Active; 'I' for Inactive)
    1  A    between atoms: C_1  and  C_22
    2  A    between atoms: C_2  and  O_13
    3  A    between atoms: C_6  and  C_45
    4  A    between atoms: N_11  and  C_21
    5  A    between atoms: O_12  and  P_18
    6  A    between atoms: O_12  and  P_31
    7  A    between atoms: O_13  and  C_49
    8  A    between atoms: C_16  and  O_34
    9  A    between atoms: C_21  and  C_25
   10  A    between atoms: C_22  and  C_25
   11  A    between atoms: N_29  and  C_41
   12  A    between atoms: C_30  and  C_44
   13  A    between atoms: P_31  and  O_34
   14  A    between atoms: C_41  and  C_45
   15  A    between atoms: C_44  and  C_52
                            x       y       z     vdW  Elec       q    Type
                         _______ _______ _______ _____ _____    ______ ____

>  <TORSDO>
F 15

$$$$
=
 OpenBabel10232409243D

 52 55  0  0  1  0  0  0  0  0999 V2000
  186.8830  172.6980  134.9910 C   0  0  0  0  0  0  0  0  0  0  0  0
  188.4070  175.9410  137.6240 C   0  0  1  0  0  3  0  0  0  0  0  0
  188.3270  171.2470  136.2230 N   0  0  0  0  0  0  0  0  0  0  0  0
  186.6840  170.3230  134.8140 N   0  0  0  0  0  0  0  0  0  0  0  0
  188.9760  176.2840  135.2840 O   0  0  0  0  0  1  0  0  0  0  0  0
  187.8500  174.5960  137.2590 C   0  0  0  0  0  0  0  0  0  0  0  0
  190.9570  174.4740  136.8040 C   0  0  0  0  0  3  0  0  0  0  0  0
  190.7930  175.9750  136.8230 C   0  0  1  0  0  3  0  0  0  0  0  0
  189.3870  176.5090  136.6000 C   0  0  2  0  0  3  0  0  0  0  0  0
  186.2670  171.5640  134.4550 C   0  0  0  0  0  3  0  0  0  0  0  0
  186.6990  174.2820  137.6750 O   0  0  0  0  0  0  0  0  0  0  0  0
  190.0500  173.5000  136.6510 C   0  0  0  0  0  3  0  0  0  0  0  0
  187.9420  172.5160  135.9030 C   0  0  0  0  0  0  0  0  0  0  0  0
  188.6220  173.6330  136.5070 N   0  0  0  0  0  0  0  0  0  0  0  0
  187.7080  170.1620  135.6900 C   0  0  0  0  0  3  0  0  0  0  0  0
  187.3990  176.8900  137.9860 O   0  0  0  0  0  0  0  0  0  0  0  0
  186.0980  177.9810  136.1640 C   0  0  0  0  0  1  0  0  0  0  0  0
  187.6580  179.1470  137.5200 O   0  0  0  0  0  0  0  0  0  0  0  0
  187.0960  178.0500  137.2630 C   0  0  0  0  0  0  0  0  0  0  0  0
  186.4420  174.0530  134.5430 C   0  0  0  0  0  2  0  0  0  0  0  0
  184.9360  174.0870  134.3460 C   0  0  0  0  0  2  0  0  0  0  0  0
  184.2490  173.8310  135.6730 C   0  0  0  0  0  2  0  0  0  0  0  0
  183.3300  174.9160  135.9760 N   0  0  0  0  0  2  0  0  0  0  0  0
  182.9830  175.2840  137.3110 C   0  0  0  0  0  0  0  0  0  0  0  0
  183.5650  174.7410  138.2890 O   0  0  0  0  0  0  0  0  0  0  0  0
  182.0000  176.2540  137.5130 O   0  0  0  0  0  0  0  0  0  0  0  0
  180.9960  177.6090  139.7200 O   0  0  0  0  0  1  0  0  0  0  0  0
  182.1700  178.8650  137.7400 O   0  0  0  0  0  0  0  0  0  0  0  0
  182.2330  177.5950  138.5610 P   0  0  2  0  0  0  0  0  0  0  0  0
  183.7630  177.4460  139.3000 O   0  0  0  0  0  0  0  0  0  0  0  0
  184.8110  180.0100  138.9550 O   0  0  0  0  0  0  0  0  0  0  0  0
  184.1230  178.9270  140.0600 P   0  0  0  0  0  0  0  0  0  0  0  0
  182.6840  179.5970  140.6450 O   0  0  0  0  0  1  0  0  0  0  0  0
  185.0680  178.7180  141.2240 O   0  0  0  0  0  1  0  0  0  0  0  0
  191.3820  176.5630  138.0980 C   0  0  0  0  0  2  0  0  0  0  0  0
  190.7540  176.9180  140.3910 N   0  0  0  0  0  0  0  0  0  0  0  0
  190.4080  176.4930  139.2200 C   0  0  0  0  0  3  0  0  0  0  0  0
  188.6480  177.1500  141.3910 O   0  0  0  0  0  0  0  0  0  0  0  0
  189.8730  176.8820  141.5170 C   0  0  0  0  0  0  0  0  0  0  0  0
  190.4150  176.4870  142.8520 C   0  0  0  0  0  2  0  0  0  0  0  0
  191.6320  178.5420  142.9380 O   0  0  0  0  0  1  0  0  0  0  0  0
  189.6590  178.4230  144.1240 O   0  0  0  0  0  0  0  0  0  0  0  0
  190.8190  177.6990  143.6960 C   0  0  1  0  0  0  0  0  0  0  0  0
  186.7940  177.8650  147.4190 N   0  0  0  0  0  0  0  0  0  0  0  0
  191.6120  177.2080  144.9110 C   0  0  0  0  0  2  0  0  0  0  0  0
  187.8700  177.5280  148.0590 C   0  0  0  0  0  3  0  0  0  0  0  0
  190.7580  176.5680  145.8650 O   0  0  0  0  0  0  0  0  0  0  0  0
  186.5470  177.5770  146.0160 C   0  0  0  0  0  2  0  0  0  0  0  0
  189.5130  177.1090  146.1950 C   0  0  0  0  0  0  0  0  0  0  0  0
  187.5530  178.2240  145.1260 C   0  0  0  0  0  3  0  0  0  0  0  0
  189.0680  176.9240  147.4430 C   0  0  0  0  0  3  0  0  0  0  0  0
  188.8580  177.9570  145.1690 C   0  0  0  0  0  0  0  0  0  0  0  0
  1 13  1  0  0  0  0
  2 16  1  6  0  0  0
  4 15  2  0  0  0  0
  6  2  1  0  0  0  0
  6 11  2  0  0  0  0
  7  8  1  0  0  0  0
  8 35  1  1  0  0  0
  9  5  1  6  0  0  0
  9  8  1  0  0  0  0
  9  2  1  0  0  0  0
 10  4  1  0  0  0  0
 10  1  2  0  0  0  0
 12  7  2  0  0  0  0
 13  3  2  0  0  0  0
 13 14  1  0  0  0  0
 14 12  1  0  0  0  0
 14  6  1  0  0  0  0
 15  3  1  0  0  0  0
 17 19  1  0  0  0  0
 19 18  2  0  0  0  0
 19 16  1  0  0  0  0
 20  1  1  0  0  0  0
 21 20  1  0  0  0  0
 21 22  1  0  0  0  0
 22 23  1  0  0  0  0
 23 24  1  0  0  0  0
 24 26  1  0  0  0  0
 24 25  2  0  0  0  0
 26 29  1  0  0  0  0
 29 28  2  6  0  0  0
 29 30  1  0  0  0  0
 29 27  1  0  0  0  0
 30 32  1  0  0  0  0
 31 32  2  0  0  0  0
 32 33  1  0  0  0  0
 32 34  1  0  0  0  0
 35 37  1  0  0  0  0
 36 39  1  0  0  0  0
 37 36  2  0  0  0  0
 38 39  2  0  0  0  0
 39 40  1  0  0  0  0
 40 43  1  0  0  0  0
 42 52  1  0  0  0  0
 43 41  1  6  0  0  0
 43 42  1  0  0  0  0
 43 45  1  0  0  0  0
 44 46  2  0  0  0  0
 45 47  1  0  0  0  0
 47 49  1  0  0  0  0
 48 44  1  0  0  0  0
 49 51  2  0  0  0  0
 50 52  2  0  0  0  0
 50 48  1  0  0  0  0
 51 46  1  0  0  0  0
 52 49  1  0  0  0  0
M  END
>  <MODEL>
8

>  <REMARK>
 VINA RESULT:      -6.3      2.379      4.423
  Name = 
  15 active torsions:
  status: ('A' for Active; 'I' for Inactive)
    1  A    between atoms: C_1  and  C_22
    2  A    between atoms: C_2  and  O_13
    3  A    between atoms: C_6  and  C_45
    4  A    between atoms: N_11  and  C_21
    5  A    between atoms: O_12  and  P_18
    6  A    between atoms: O_12  and  P_31
    7  A    between atoms: O_13  and  C_49
    8  A    between atoms: C_16  and  O_34
    9  A    between atoms: C_21  and  C_25
   10  A    between atoms: C_22  and  C_25
   11  A    between atoms: N_29  and  C_41
   12  A    between atoms: C_30  and  C_44
   13  A    between atoms: P_31  and  O_34
   14  A    between atoms: C_41  and  C_45
   15  A    between atoms: C_44  and  C_52
                            x       y       z     vdW  Elec       q    Type
                         _______ _______ _______ _____ _____    ______ ____

>  <TORSDO>
F 15

$$$$
=
 OpenBabel10232409243D

 52 55  0  0  1  0  0  0  0  0999 V2000
  190.9200  176.8500  138.8630 C   0  0  0  0  0  0  0  0  0  0  0  0
  188.2770  175.2230  135.6780 C   0  0  1  0  0  3  0  0  0  0  0  0
  188.9180  177.1690  140.1280 N   0  0  0  0  0  0  0  0  0  0  0  0
  191.0070  177.3410  141.2000 N   0  0  0  0  0  0  0  0  0  0  0  0
  189.4430  177.2440  134.9900 O   0  0  0  0  0  1  0  0  0  0  0  0
  188.8330  175.4100  137.0600 C   0  0  0  0  0  0  0  0  0  0  0  0
  186.8250  177.7690  136.5340 C   0  0  0  0  0  3  0  0  0  0  0  0
  187.0460  177.3420  135.1020 C   0  0  1  0  0  3  0  0  0  0  0  0
  188.2770  176.4920  134.8290 C   0  0  2  0  0  3  0  0  0  0  0  0
  191.6490  177.0830  140.0320 C   0  0  0  0  0  3  0  0  0  0  0  0
  189.3840  174.4270  137.6310 O   0  0  0  0  0  0  0  0  0  0  0  0
  187.5260  177.4990  137.6430 C   0  0  0  0  0  3  0  0  0  0  0  0
  189.5120  176.8970  138.9310 C   0  0  0  0  0  0  0  0  0  0  0  0
  188.6900  176.6590  137.7720 N   0  0  0  0  0  0  0  0  0  0  0  0
  189.6510  177.3880  141.2510 C   0  0  0  0  0  3  0  0  0  0  0  0
  188.8540  174.1120  134.9840 O   0  0  0  0  0  0  0  0  0  0  0  0
  186.7830  172.7310  135.0510 C   0  0  0  0  0  1  0  0  0  0  0  0
  188.9210  171.8390  134.5330 O   0  0  0  0  0  0  0  0  0  0  0  0
  188.2480  172.8590  134.8360 C   0  0  0  0  0  0  0  0  0  0  0  0
  191.6470  176.6180  137.5790 C   0  0  0  0  0  2  0  0  0  0  0  0
  193.1330  176.4360  137.8320 C   0  0  0  0  0  2  0  0  0  0  0  0
  193.8660  176.3700  136.5070 C   0  0  0  0  0  2  0  0  0  0  0  0
  194.9480  175.4020  136.5840 N   0  0  0  0  0  2  0  0  0  0  0  0
  194.8830  174.1190  135.9600 C   0  0  0  0  0  0  0  0  0  0  0  0
  193.9100  173.8270  135.2130 O   0  0  0  0  0  0  0  0  0  0  0  0
  195.9110  173.2030  136.1860 O   0  0  0  0  0  0  0  0  0  0  0  0
  197.2750  171.3330  137.7220 O   0  0  0  0  0  0  0  0  0  0  0  0
  195.2880  172.7410  138.6950 O   0  0  0  0  0  1  0  0  0  0  0  0
  196.4790  172.8290  137.7640 P   0  0  2  0  0  0  0  0  0  0  0  0
  197.5330  174.0700  138.2700 O   0  0  0  0  0  0  0  0  0  0  0  0
  198.3150  175.4110  135.9500 O   0  0  0  0  0  0  0  0  0  0  0  0
  198.7500  174.2360  137.0900 P   0  0  0  0  0  0  0  0  0  0  0  0
  200.1770  174.7300  137.8540 O   0  0  0  0  0  1  0  0  0  0  0  0
  199.0050  172.9180  136.3920 O   0  0  0  0  0  1  0  0  0  0  0  0
  185.8040  176.6600  134.5470 C   0  0  0  0  0  2  0  0  0  0  0  0
  184.3410  175.1760  135.7470 N   0  0  0  0  0  0  0  0  0  0  0  0
  184.8240  176.3690  135.6290 C   0  0  0  0  0  3  0  0  0  0  0  0
  183.7710  174.2870  137.8380 O   0  0  0  0  0  0  0  0  0  0  0  0
  183.3970  174.8220  136.7590 C   0  0  0  0  0  0  0  0  0  0  0  0
  181.9490  175.1230  136.5420 C   0  0  0  0  0  2  0  0  0  0  0  0
  180.7400  174.2940  138.4300 O   0  0  0  0  0  1  0  0  0  0  0  0
  182.1180  176.1130  138.7620 O   0  0  0  0  0  0  0  0  0  0  0  0
  181.2250  175.4660  137.8470 C   0  0  1  0  0  0  0  0  0  0  0  0
  183.5280  180.2610  139.1810 N   0  0  0  0  0  0  0  0  0  0  0  0
  180.0420  176.3840  137.5240 C   0  0  0  0  0  2  0  0  0  0  0  0
  182.2980  180.5230  138.8640 C   0  0  0  0  0  3  0  0  0  0  0  0
  180.4850  177.7010  137.1820 O   0  0  0  0  0  0  0  0  0  0  0  0
  184.2960  179.1490  138.6490 C   0  0  0  0  0  2  0  0  0  0  0  0
  181.4970  178.3320  137.9080 C   0  0  0  0  0  0  0  0  0  0  0  0
  183.6880  177.8320  138.9940 C   0  0  0  0  0  3  0  0  0  0  0  0
  181.4390  179.6640  138.0250 C   0  0  0  0  0  3  0  0  0  0  0  0
  182.4720  177.4540  138.6010 C   0  0  0  0  0  0  0  0  0  0  0  0
  1 13  2  0  0  0  0
  1 10  1  0  0  0  0
  2 16  1  6  0  0  0
  2  6  1  0  0  0  0
  3 15  2  0  0  0  0
  4 15  1  0  0  0  0
  6 11  2  0  0  0  0
  6 14  1  0  0  0  0
  7 12  2  0  0  0  0
  8 35  1  1  0  0  0
  8  7  1  0  0  0  0
  9  5  1  1  0  0  0
  9  8  1  0  0  0  0
  9  2  1  0  0  0  0
 10  4  2  0  0  0  0
 12 14  1  0  0  0  0
 13  3  1  0  0  0  0
 14 13  1  0  0  0  0
 18 19  2  0  0  0  0
 19 16  1  0  0  0  0
 19 17  1  0  0  0  0
 20 21  1  0  0  0  0
 20  1  1  0  0  0  0
 22 23  1  0  0  0  0
 22 21  1  0  0  0  0
 24 26  1  0  0  0  0
 24 23  1  0  0  0  0
 25 24  2  0  0  0  0
 26 29  1  0  0  0  0
 29 27  2  6  0  0  0
 29 30  1  0  0  0  0
 29 28  1  0  0  0  0
 31 32  2  0  0  0  0
 32 33  1  0  0  0  0
 32 30  1  0  0  0  0
 34 32  1  0  0  0  0
 35 37  1  0  0  0  0
 36 39  1  0  0  0  0
 37 36  2  0  0  0  0
 39 38  2  0  0  0  0
 40 39  1  0  0  0  0
 40 43  1  0  0  0  0
 43 41  1  1  0  0  0
 43 42  1  0  0  0  0
 45 43  1  0  0  0  0
 46 44  2  0  0  0  0
 47 45  1  0  0  0  0
 47 49  1  0  0  0  0
 48 50  1  0  0  0  0
 48 44  1  0  0  0  0
 49 51  2  0  0  0  0
 49 52  1  0  0  0  0
 51 46  1  0  0  0  0
 52 42  1  0  0  0  0
 52 50  2  0  0  0  0
M  END
>  <MODEL>
9

>  <REMARK>
 VINA RESULT:      -6.1      4.492      9.685
  Name = 
  15 active torsions:
  status: ('A' for Active; 'I' for Inactive)
    1  A    between atoms: C_1  and  C_22
    2  A    between atoms: C_2  and  O_13
    3  A    between atoms: C_6  and  C_45
    4  A    between atoms: N_11  and  C_21
    5  A    between atoms: O_12  and  P_18
    6  A    between atoms: O_12  and  P_31
    7  A    between atoms: O_13  and  C_49
    8  A    between atoms: C_16  and  O_34
    9  A    between atoms: C_21  and  C_25
   10  A    between atoms: C_22  and  C_25
   11  A    between atoms: N_29  and  C_41
   12  A    between atoms: C_30  and  C_44
   13  A    between atoms: P_31  and  O_34
   14  A    between atoms: C_41  and  C_45
   15  A    between atoms: C_44  and  C_52
                            x       y       z     vdW  Elec       q    Type
                         _______ _______ _______ _____ _____    ______ ____

>  <TORSDO>
F 15

$$$$
