=
 OpenBabel10232408133D

 32 36  0  0  1  0  0  0  0  0999 V2000
  183.2720  174.0210  136.7930 C   0  0  0  0  0  2  0  0  0  0  0  0
  186.9780  174.0220  136.4480 C   0  0  0  0  0  2  0  0  0  0  0  0
  188.5120  176.0210  136.7080 C   0  0  2  0  0  3  0  0  0  0  0  0
  189.8680  174.0780  135.0820 C   0  0  0  0  0  2  0  0  0  0  0  0
  183.5290  177.4550  137.3270 C   0  0  0  0  0  2  0  0  0  0  0  0
  182.5380  176.4050  136.8100 C   0  0  1  0  0  3  0  0  0  0  0  0
  182.5750  175.0950  137.6200 C   0  0  1  0  0  3  0  0  0  0  0  0
  184.8040  172.6860  137.9610 O   0  0  0  0  0  0  0  0  0  0  0  0
  187.9770  176.9050  137.8480 C   0  0  2  0  0  3  0  0  0  0  0  0
  181.2960  174.6460  137.9590 O   0  0  0  0  0  1  0  0  0  0  0  0
  187.2040  178.0020  137.2710 N   0  0  0  0  0  2  0  0  0  0  0  0
  188.3090  174.5230  137.0130 C   0  0  2  0  0  3  0  0  0  0  0  0
  189.4560  173.6530  136.4910 C   0  0  0  0  0  2  0  0  0  0  0  0
  189.9300  176.3740  136.2400 C   0  0  0  0  0  2  0  0  0  0  0  0
  185.8040  174.6680  137.1700 C   0  0  2  0  0  3  0  0  0  0  0  0
  181.1570  177.0360  136.7230 C   0  0  0  0  0  1  0  0  0  0  0  0
  184.6410  173.7190  137.3310 C   0  0  0  0  0  0  0  0  0  0  0  0
  190.3350  175.5400  135.0200 C   0  0  0  0  0  2  0  0  0  0  0  0
  184.9380  176.9260  137.5910 C   0  0  2  0  0  3  0  0  0  0  0  0
  185.9010  178.0770  137.9380 C   0  0  0  0  0  2  0  0  0  0  0  0
  185.4250  175.9820  136.4990 C   0  0  0  0  0  2  0  0  0  0  0  0
  189.0590  177.4070  138.8270 C   0  0  1  0  0  3  0  0  0  0  0  0
  189.2560  178.9180  138.7720 C   0  0  0  0  0  1  0  0  0  0  0  0
  188.8050  176.9560  140.1990 N   0  0  0  0  0  2  0  0  0  0  0  0
  188.9530  178.0670  141.1410 C   0  0  1  0  0  3  0  0  0  0  0  0
  189.9870  178.5310  143.4610 C   0  0  0  0  0  2  0  0  0  0  0  0
  189.4020  176.0670  142.8080 C   0  0  0  0  0  2  0  0  0  0  0  0
  187.8500  177.9960  142.1930 C   0  0  0  0  0  2  0  0  0  0  0  0
  189.2510  177.5640  142.5450 C   0  0  0  0  0  0  0  0  0  0  0  0
  191.3970  177.9990  143.7150 C   0  0  0  0  0  2  0  0  0  0  0  0
  190.8650  175.7630  143.1210 C   0  0  0  0  0  2  0  0  0  0  0  0
  191.3400  176.6210  144.2060 N   0  0  0  0  0  2  0  0  0  0  0  0
  1 17  1  0  0  0  0
  1  7  1  0  0  0  0
  3 14  1  1  0  0  0
  3 12  1  0  0  0  0
  3  9  1  0  0  0  0
  4 13  1  0  0  0  0
  5 19  1  0  0  0  0
  6 16  1  1  0  0  0
  6  5  1  0  0  0  0
  6  7  1  0  0  0  0
  7 10  1  6  0  0  0
  9 22  1  6  0  0  0
 11  9  1  0  0  0  0
 11 20  1  0  0  0  0
 12  2  1  6  0  0  0
 13 12  1  0  0  0  0
 15  2  1  6  0  0  0
 15 17  1  0  0  0  0
 17  8  2  0  0  0  0
 18  4  1  0  0  0  0
 18 14  1  0  0  0  0
 19 21  1  6  0  0  0
 19 20  1  0  0  0  0
 21 15  1  0  0  0  0
 22 23  1  1  0  0  0
 22 24  1  0  0  0  0
 25 24  1  6  0  0  0
 25 28  1  0  0  0  0
 25 29  1  0  0  0  0
 26 30  1  0  0  0  0
 27 31  1  0  0  0  0
 28 29  1  0  0  0  0
 29 27  1  0  0  0  0
 29 26  1  0  0  0  0
 30 32  1  0  0  0  0
 31 32  1  0  0  0  0
M  END
>  <MODEL>
1

>  <REMARK>
 VINA RESULT:      -6.9      0.000      0.000
  Name = 
  3 active torsions:
  status: ('A' for Active; 'I' for Inactive)
    1  A    between atoms: N_2  and  C_3
    2  A    between atoms: N_2  and  C_15
    3  A    between atoms: C_14  and  C_15
                            x       y       z     vdW  Elec       q    Type
                         _______ _______ _______ _____ _____    ______ ____

>  <TORSDO>
F 3

$$$$
=
 OpenBabel10232408133D

 32 36  0  0  1  0  0  0  0  0999 V2000
  183.2470  174.5290  136.2600 C   0  0  0  0  0  2  0  0  0  0  0  0
  186.7010  175.7430  136.9300 C   0  0  0  0  0  2  0  0  0  0  0  0
  187.3370  177.9090  138.0810 C   0  0  2  0  0  3  0  0  0  0  0  0
  189.5570  177.0970  136.4460 C   0  0  0  0  0  2  0  0  0  0  0  0
  182.1450  177.5140  137.6820 C   0  0  0  0  0  2  0  0  0  0  0  0
  181.7050  176.4460  136.6740 C   0  0  1  0  0  3  0  0  0  0  0  0
  182.0810  175.0170  137.1110 C   0  0  1  0  0  3  0  0  0  0  0  0
  184.9440  173.4050  137.4230 O   0  0  0  0  0  0  0  0  0  0  0  0
  186.3360  178.1720  139.2190 C   0  0  2  0  0  3  0  0  0  0  0  0
  181.0150  174.1230  136.9720 O   0  0  0  0  0  1  0  0  0  0  0  0
  185.3250  179.1150  138.7500 N   0  0  0  0  0  2  0  0  0  0  0  0
  187.6450  176.4050  137.9370 C   0  0  2  0  0  3  0  0  0  0  0  0
  189.0990  176.1340  137.5400 C   0  0  0  0  0  2  0  0  0  0  0  0
  188.5860  178.7990  138.1130 C   0  0  0  0  0  2  0  0  0  0  0  0
  185.2710  175.7400  137.4500 C   0  0  2  0  0  3  0  0  0  0  0  0
  180.2240  176.6300  136.3810 C   0  0  0  0  0  1  0  0  0  0  0  0
  184.5230  174.4900  137.0510 C   0  0  0  0  0  0  0  0  0  0  0  0
  189.4630  178.5690  136.8780 C   0  0  0  0  0  2  0  0  0  0  0  0
  183.5860  177.3710  138.1730 C   0  0  2  0  0  3  0  0  0  0  0  0
  183.9920  178.5770  139.0410 C   0  0  0  0  0  2  0  0  0  0  0  0
  184.5570  177.0250  137.0520 C   0  0  0  0  0  2  0  0  0  0  0  0
  186.9830  178.6240  140.5450 C   0  0  1  0  0  3  0  0  0  0  0  0
  185.9710  179.1800  141.5420 C   0  0  0  0  0  1  0  0  0  0  0  0
  187.7920  177.5600  141.1490 N   0  0  0  0  0  2  0  0  0  0  0  0
  187.8760  177.7390  142.6000 C   0  0  1  0  0  3  0  0  0  0  0  0
  189.6640  177.7420  144.4630 C   0  0  0  0  0  2  0  0  0  0  0  0
  190.1840  176.5140  142.2140 C   0  0  0  0  0  2  0  0  0  0  0  0
  187.8730  176.3750  143.2850 C   0  0  0  0  0  2  0  0  0  0  0  0
  189.1620  177.1480  143.1560 C   0  0  0  0  0  0  0  0  0  0  0  0
  190.9500  178.5210  144.1940 C   0  0  0  0  0  2  0  0  0  0  0  0
  191.4220  177.4070  142.1520 C   0  0  0  0  0  2  0  0  0  0  0  0
  191.9210  177.6740  143.5000 N   0  0  0  0  0  2  0  0  0  0  0  0
  1 17  1  0  0  0  0
  1  7  1  0  0  0  0
  3 14  1  1  0  0  0
  3  9  1  0  0  0  0
  4 18  1  0  0  0  0
  4 13  1  0  0  0  0
  5 19  1  0  0  0  0
  6 16  1  1  0  0  0
  6  7  1  0  0  0  0
  6  5  1  0  0  0  0
  7 10  1  6  0  0  0
  9 22  1  1  0  0  0
 11 20  1  0  0  0  0
 11  9  1  0  0  0  0
 12  2  1  6  0  0  0
 12  3  1  0  0  0  0
 13 12  1  0  0  0  0
 15  2  1  6  0  0  0
 17  8  2  0  0  0  0
 17 15  1  0  0  0  0
 18 14  1  0  0  0  0
 19 21  1  6  0  0  0
 19 20  1  0  0  0  0
 21 15  1  0  0  0  0
 22 24  1  0  0  0  0
 22 23  1  1  0  0  0
 25 24  1  6  0  0  0
 25 29  1  0  0  0  0
 25 28  1  0  0  0  0
 27 29  1  0  0  0  0
 29 28  1  0  0  0  0
 29 26  1  0  0  0  0
 30 26  1  0  0  0  0
 31 27  1  0  0  0  0
 31 32  1  0  0  0  0
 32 30  1  0  0  0  0
M  END
>  <MODEL>
2

>  <REMARK>
 VINA RESULT:      -6.7      1.448      2.068
  Name = 
  3 active torsions:
  status: ('A' for Active; 'I' for Inactive)
    1  A    between atoms: N_2  and  C_3
    2  A    between atoms: N_2  and  C_15
    3  A    between atoms: C_14  and  C_15
                            x       y       z     vdW  Elec       q    Type
                         _______ _______ _______ _____ _____    ______ ____

>  <TORSDO>
F 3

$$$$
=
 OpenBabel10232408133D

 32 36  0  0  1  0  0  0  0  0999 V2000
  190.1640  176.8490  137.0150 C   0  0  0  0  0  2  0  0  0  0  0  0
  190.9450  177.1490  140.6410 C   0  0  0  0  0  2  0  0  0  0  0  0
  189.4320  178.1110  142.4310 C   0  0  2  0  0  3  0  0  0  0  0  0
  192.1400  178.3060  143.3720 C   0  0  0  0  0  2  0  0  0  0  0  0
  187.1400  178.4190  137.7490 C   0  0  0  0  0  2  0  0  0  0  0  0
  188.1250  178.2220  136.5900 C   0  0  1  0  0  3  0  0  0  0  0  0
  188.7160  176.8000  136.5410 C   0  0  1  0  0  3  0  0  0  0  0  0
  190.8060  175.1300  138.4730 O   0  0  0  0  0  0  0  0  0  0  0  0
  187.9830  177.6980  142.1230 C   0  0  2  0  0  3  0  0  0  0  0  0
  188.6810  176.2560  135.2530 O   0  0  0  0  0  1  0  0  0  0  0  0
  187.3120  178.8020  141.4410 N   0  0  0  0  0  2  0  0  0  0  0  0
  190.4270  176.9890  142.0720 C   0  0  2  0  0  3  0  0  0  0  0  0
  191.6070  176.9120  143.0460 C   0  0  0  0  0  2  0  0  0  0  0  0
  189.6410  178.7040  143.8300 C   0  0  0  0  0  2  0  0  0  0  0  0
  189.8260  176.9330  139.6330 C   0  0  2  0  0  3  0  0  0  0  0  0
  187.4510  178.6530  135.2960 C   0  0  0  0  0  1  0  0  0  0  0  0
  190.3130  176.2430  138.3810 C   0  0  0  0  0  0  0  0  0  0  0  0
  191.0760  179.2120  144.0090 C   0  0  0  0  0  2  0  0  0  0  0  0
  187.6350  177.9030  139.0990 C   0  0  2  0  0  3  0  0  0  0  0  0
  186.6630  178.2960  140.2280 C   0  0  0  0  0  2  0  0  0  0  0  0
  189.0980  178.2420  139.3580 C   0  0  0  0  0  2  0  0  0  0  0  0
  187.1870  177.2000  143.3470 C   0  0  1  0  0  3  0  0  0  0  0  0
  187.5750  175.7880  143.7760 C   0  0  0  0  0  1  0  0  0  0  0  0
  187.2750  178.1370  144.4730 N   0  0  0  0  0  2  0  0  0  0  0  0
  186.1550  177.9400  145.3940 C   0  0  1  0  0  3  0  0  0  0  0  0
  183.6620  178.5830  145.5970 C   0  0  0  0  0  2  0  0  0  0  0  0
  185.2170  180.0210  144.0630 C   0  0  0  0  0  2  0  0  0  0  0  0
  186.0330  179.1490  146.3170 C   0  0  0  0  0  2  0  0  0  0  0  0
  185.0670  178.9800  145.1710 C   0  0  0  0  0  0  0  0  0  0  0  0
  182.7940  178.4130  144.3510 C   0  0  0  0  0  2  0  0  0  0  0  0
  184.2070  179.7180  142.9590 C   0  0  0  0  0  2  0  0  0  0  0  0
  182.8590  179.6150  143.5190 N   0  0  0  0  0  2  0  0  0  0  0  0
  1 17  1  0  0  0  0
  3 14  1  1  0  0  0
  4 18  1  0  0  0  0
  6 16  1  6  0  0  0
  6  5  1  0  0  0  0
  7 10  1  6  0  0  0
  7  6  1  0  0  0  0
  7  1  1  0  0  0  0
  9  3  1  0  0  0  0
  9 22  1  1  0  0  0
 11  9  1  0  0  0  0
 12  2  1  6  0  0  0
 12  3  1  0  0  0  0
 12 13  1  0  0  0  0
 13  4  1  0  0  0  0
 14 18  1  0  0  0  0
 15 21  1  6  0  0  0
 15  2  1  0  0  0  0
 17  8  2  0  0  0  0
 17 15  1  0  0  0  0
 19  5  1  6  0  0  0
 19 21  1  0  0  0  0
 19 20  1  0  0  0  0
 20 11  1  0  0  0  0
 22 23  1  1  0  0  0
 22 24  1  0  0  0  0
 25 24  1  6  0  0  0
 25 28  1  0  0  0  0
 27 29  1  0  0  0  0
 29 25  1  0  0  0  0
 29 26  1  0  0  0  0
 29 28  1  0  0  0  0
 30 26  1  0  0  0  0
 31 32  1  0  0  0  0
 31 27  1  0  0  0  0
 32 30  1  0  0  0  0
M  END
>  <MODEL>
3

>  <REMARK>
 VINA RESULT:      -6.5      3.562      6.428
  Name = 
  3 active torsions:
  status: ('A' for Active; 'I' for Inactive)
    1  A    between atoms: N_2  and  C_3
    2  A    between atoms: N_2  and  C_15
    3  A    between atoms: C_14  and  C_15
                            x       y       z     vdW  Elec       q    Type
                         _______ _______ _______ _____ _____    ______ ____

>  <TORSDO>
F 3

$$$$
=
 OpenBabel10232408133D

 32 36  0  0  1  0  0  0  0  0999 V2000
  186.6700  174.2120  134.6440 C   0  0  0  0  0  2  0  0  0  0  0  0
  190.2230  174.0110  135.7330 C   0  0  0  0  0  2  0  0  0  0  0  0
  191.4700  175.7250  137.1220 C   0  0  2  0  0  3  0  0  0  0  0  0
  193.4120  174.2180  135.6340 C   0  0  0  0  0  2  0  0  0  0  0  0
  186.5820  177.3230  136.2120 C   0  0  0  0  0  2  0  0  0  0  0  0
  185.9020  176.5450  135.0790 C   0  0  1  0  0  3  0  0  0  0  0  0
  185.6730  175.0610  135.4240 C   0  0  1  0  0  3  0  0  0  0  0  0
  187.6850  172.4820  135.8580 O   0  0  0  0  0  0  0  0  0  0  0  0
  190.5090  176.2910  138.1810 C   0  0  2  0  0  3  0  0  0  0  0  0
  184.3770  174.6390  135.1100 O   0  0  0  0  0  1  0  0  0  0  0  0
  189.9770  177.5650  137.7040 N   0  0  0  0  0  2  0  0  0  0  0  0
  191.2180  174.2240  136.8770 C   0  0  2  0  0  3  0  0  0  0  0  0
  192.5080  173.4470  136.5940 C   0  0  0  0  0  2  0  0  0  0  0  0
  192.9450  176.0810  137.3460 C   0  0  0  0  0  2  0  0  0  0  0  0
  188.8410  174.5200  136.1160 C   0  0  2  0  0  3  0  0  0  0  0  0
  184.6380  177.2840  134.6670 C   0  0  0  0  0  1  0  0  0  0  0  0
  187.7390  173.6610  135.5440 C   0  0  0  0  0  0  0  0  0  0  0  0
  193.8150  175.5950  136.1810 C   0  0  0  0  0  2  0  0  0  0  0  0
  187.8000  176.6280  136.8200 C   0  0  2  0  0  3  0  0  0  0  0  0
  188.5160  177.5530  137.8230 C   0  0  0  0  0  2  0  0  0  0  0  0
  188.7010  175.9960  135.7670 C   0  0  0  0  0  2  0  0  0  0  0  0
  191.1150  176.4070  139.5950 C   0  0  1  0  0  3  0  0  0  0  0  0
  191.8920  177.7030  139.8050 C   0  0  0  0  0  1  0  0  0  0  0  0
  190.1040  176.2210  140.6400 N   0  0  0  0  0  2  0  0  0  0  0  0
  189.8340  177.4860  141.3260 C   0  0  1  0  0  3  0  0  0  0  0  0
  190.1930  178.5590  143.6470 C   0  0  0  0  0  2  0  0  0  0  0  0
  190.2010  175.9520  143.4460 C   0  0  0  0  0  2  0  0  0  0  0  0
  188.5400  177.3690  142.1260 C   0  0  0  0  0  2  0  0  0  0  0  0
  189.8690  177.3130  142.8370 C   0  0  0  0  0  0  0  0  0  0  0  0
  191.5690  178.3910  144.2880 C   0  0  0  0  0  2  0  0  0  0  0  0
  191.5770  176.0250  144.1040 C   0  0  0  0  0  2  0  0  0  0  0  0
  191.6280  177.1410  145.0470 N   0  0  0  0  0  2  0  0  0  0  0  0
  1  7  1  0  0  0  0
  1 17  1  0  0  0  0
  3 14  1  1  0  0  0
  3  9  1  0  0  0  0
  4 18  1  0  0  0  0
  4 13  1  0  0  0  0
  5 19  1  0  0  0  0
  6 16  1  1  0  0  0
  6  7  1  0  0  0  0
  6  5  1  0  0  0  0
  7 10  1  6  0  0  0
  9 22  1  1  0  0  0
 11 20  1  0  0  0  0
 11  9  1  0  0  0  0
 12  2  1  6  0  0  0
 12  3  1  0  0  0  0
 13 12  1  0  0  0  0
 15  2  1  6  0  0  0
 17  8  2  0  0  0  0
 17 15  1  0  0  0  0
 18 14  1  0  0  0  0
 19 21  1  6  0  0  0
 19 20  1  0  0  0  0
 21 15  1  0  0  0  0
 22 23  1  6  0  0  0
 22 24  1  0  0  0  0
 25 24  1  6  0  0  0
 25 28  1  0  0  0  0
 25 29  1  0  0  0  0
 26 30  1  0  0  0  0
 27 31  1  0  0  0  0
 28 29  1  0  0  0  0
 29 27  1  0  0  0  0
 29 26  1  0  0  0  0
 30 32  1  0  0  0  0
 31 32  1  0  0  0  0
M  END
>  <MODEL>
4

>  <REMARK>
 VINA RESULT:      -6.3      2.089      2.888
  Name = 
  3 active torsions:
  status: ('A' for Active; 'I' for Inactive)
    1  A    between atoms: N_2  and  C_3
    2  A    between atoms: N_2  and  C_15
    3  A    between atoms: C_14  and  C_15
                            x       y       z     vdW  Elec       q    Type
                         _______ _______ _______ _____ _____    ______ ____

>  <TORSDO>
F 3

$$$$
=
 OpenBabel10232408133D

 32 36  0  0  1  0  0  0  0  0999 V2000
  190.1610  176.5470  141.5440 C   0  0  0  0  0  2  0  0  0  0  0  0
  187.9990  177.3010  144.4780 C   0  0  0  0  0  2  0  0  0  0  0  0
  185.9020  178.7230  144.4760 C   0  0  2  0  0  3  0  0  0  0  0  0
  186.9450  178.6990  147.1540 C   0  0  0  0  0  2  0  0  0  0  0  0
  188.0270  178.6020  139.7070 C   0  0  0  0  0  2  0  0  0  0  0  0
  189.4760  178.0970  139.7130 C   0  0  1  0  0  3  0  0  0  0  0  0
  189.5930  176.6190  140.1310 C   0  0  1  0  0  3  0  0  0  0  0  0
  189.1210  175.0060  142.9710 O   0  0  0  0  0  0  0  0  0  0  0  0
  185.1350  178.4640  143.1680 C   0  0  2  0  0  3  0  0  0  0  0  0
  190.4230  175.8910  139.2740 O   0  0  0  0  0  1  0  0  0  0  0  0
  185.4490  179.5280  142.2180 N   0  0  0  0  0  2  0  0  0  0  0  0
  186.5680  177.4360  145.0040 C   0  0  2  0  0  3  0  0  0  0  0  0
  186.5660  177.3550  146.5330 C   0  0  0  0  0  2  0  0  0  0  0  0
  185.1080  179.4940  145.5380 C   0  0  0  0  0  2  0  0  0  0  0  0
  188.0050  177.0820  142.9720 C   0  0  2  0  0  3  0  0  0  0  0  0
  190.1080  178.4080  138.3650 C   0  0  0  0  0  1  0  0  0  0  0  0
  189.1070  176.1470  142.5360 C   0  0  0  0  0  0  0  0  0  0  0  0
  185.9820  179.8260  146.7520 C   0  0  0  0  0  2  0  0  0  0  0  0
  187.2220  178.2400  140.9550 C   0  0  2  0  0  3  0  0  0  0  0  0
  185.8450  178.9310  140.9390 C   0  0  0  0  0  2  0  0  0  0  0  0
  188.0190  178.4180  142.2410 C   0  0  0  0  0  2  0  0  0  0  0  0
  183.6150  178.2740  143.3480 C   0  0  1  0  0  3  0  0  0  0  0  0
  183.1600  178.4420  144.7940 C   0  0  0  0  0  1  0  0  0  0  0  0
  182.8460  179.1400  142.4480 N   0  0  0  0  0  2  0  0  0  0  0  0
  181.5010  178.6010  142.2400 C   0  0  1  0  0  3  0  0  0  0  0  0
  180.2140  177.1910  140.5010 C   0  0  0  0  0  2  0  0  0  0  0  0
  182.3820  178.4470  139.7540 C   0  0  0  0  0  2  0  0  0  0  0  0
  180.7070  179.5400  141.3360 C   0  0  0  0  0  2  0  0  0  0  0  0
  181.2650  178.2560  140.7780 C   0  0  0  0  0  0  0  0  0  0  0  0
  180.9050  175.9360  139.9710 C   0  0  0  0  0  2  0  0  0  0  0  0
  182.8740  177.0760  139.2940 C   0  0  0  0  0  2  0  0  0  0  0  0
  181.7500  176.2670  138.8230 N   0  0  0  0  0  2  0  0  0  0  0  0
  1 17  1  0  0  0  0
  3 12  1  0  0  0  0
  3 14  1  1  0  0  0
  5  6  1  0  0  0  0
  6 16  1  6  0  0  0
  6  7  1  0  0  0  0
  7 10  1  6  0  0  0
  7  1  1  0  0  0  0
  9 22  1  1  0  0  0
  9  3  1  0  0  0  0
 11  9  1  0  0  0  0
 12  2  1  1  0  0  0
 12 13  1  0  0  0  0
 13  4  1  0  0  0  0
 14 18  1  0  0  0  0
 15 21  1  6  0  0  0
 15  2  1  0  0  0  0
 17  8  2  0  0  0  0
 17 15  1  0  0  0  0
 18  4  1  0  0  0  0
 19  5  1  6  0  0  0
 19 21  1  0  0  0  0
 20 19  1  0  0  0  0
 20 11  1  0  0  0  0
 22 23  1  1  0  0  0
 24 22  1  0  0  0  0
 25 24  1  6  0  0  0
 26 29  1  0  0  0  0
 27 29  1  0  0  0  0
 28 25  1  0  0  0  0
 29 28  1  0  0  0  0
 29 25  1  0  0  0  0
 30 26  1  0  0  0  0
 31 27  1  0  0  0  0
 32 31  1  0  0  0  0
 32 30  1  0  0  0  0
M  END
>  <MODEL>
5

>  <REMARK>
 VINA RESULT:      -6.1      3.971      8.566
  Name = 
  3 active torsions:
  status: ('A' for Active; 'I' for Inactive)
    1  A    between atoms: N_2  and  C_3
    2  A    between atoms: N_2  and  C_15
    3  A    between atoms: C_14  and  C_15
                            x       y       z     vdW  Elec       q    Type
                         _______ _______ _______ _____ _____    ______ ____

>  <TORSDO>
F 3

$$$$
=
 OpenBabel10232408133D

 32 36  0  0  1  0  0  0  0  0999 V2000
  181.4020  176.3660  138.4510 C   0  0  0  0  0  2  0  0  0  0  0  0
  184.6340  176.2060  136.6140 C   0  0  0  0  0  2  0  0  0  0  0  0
  186.7030  177.5920  137.0850 C   0  0  2  0  0  3  0  0  0  0  0  0
  186.8320  176.7210  134.3500 C   0  0  0  0  0  2  0  0  0  0  0  0
  182.8380  178.9230  140.3350 C   0  0  0  0  0  2  0  0  0  0  0  0
  181.4660  178.4180  139.8680 C   0  0  1  0  0  3  0  0  0  0  0  0
  181.3560  176.8820  139.8850 C   0  0  1  0  0  3  0  0  0  0  0  0
  182.7420  174.4750  138.1030 O   0  0  0  0  0  0  0  0  0  0  0  0
  186.8410  177.7640  138.6070 C   0  0  2  0  0  3  0  0  0  0  0  0
  180.1720  176.4430  140.4850 O   0  0  0  0  0  1  0  0  0  0  0  0
  186.2980  179.0650  138.9870 N   0  0  0  0  0  2  0  0  0  0  0  0
  186.1610  176.1940  136.7220 C   0  0  2  0  0  3  0  0  0  0  0  0
  186.7690  175.6430  135.4290 C   0  0  0  0  0  2  0  0  0  0  0  0
  187.9420  178.0070  136.2820 C   0  0  0  0  0  2  0  0  0  0  0  0
  183.9970  176.4660  137.9710 C   0  0  2  0  0  3  0  0  0  0  0  0
  180.3860  179.1220  140.6740 C   0  0  0  0  0  1  0  0  0  0  0  0
  182.7120  175.6940  138.1540 C   0  0  0  0  0  0  0  0  0  0  0  0
  187.6760  177.9330  134.7740 C   0  0  0  0  0  2  0  0  0  0  0  0
  184.0290  178.2050  139.7020 C   0  0  2  0  0  3  0  0  0  0  0  0
  185.3530  178.8880  140.0940 C   0  0  0  0  0  2  0  0  0  0  0  0
  183.8440  177.9620  138.2100 C   0  0  0  0  0  2  0  0  0  0  0  0
  188.2720  177.5510  139.1450 C   0  0  1  0  0  3  0  0  0  0  0  0
  189.1550  178.7860  138.9900 C   0  0  0  0  0  1  0  0  0  0  0  0
  188.2690  177.0730  140.5310 N   0  0  0  0  0  2  0  0  0  0  0  0
  188.6200  178.1580  141.4500 C   0  0  1  0  0  3  0  0  0  0  0  0
  190.0900  178.5440  143.5380 C   0  0  0  0  0  2  0  0  0  0  0  0
  189.3330  176.1090  142.9590 C   0  0  0  0  0  2  0  0  0  0  0  0
  187.7380  178.0820  142.6930 C   0  0  0  0  0  2  0  0  0  0  0  0
  189.1700  177.6150  142.7600 C   0  0  0  0  0  0  0  0  0  0  0  0
  191.5090  177.9800  143.5060 C   0  0  0  0  0  2  0  0  0  0  0  0
  190.8220  175.7700  142.9790 C   0  0  0  0  0  2  0  0  0  0  0  0
  191.5150  176.5920  143.9700 N   0  0  0  0  0  2  0  0  0  0  0  0
  1  7  1  0  0  0  0
  2 12  1  0  0  0  0
  3 14  1  6  0  0  0
  3  9  1  0  0  0  0
  4 18  1  0  0  0  0
  4 13  1  0  0  0  0
  6  7  1  0  0  0  0
  6  5  1  0  0  0  0
  6 16  1  1  0  0  0
  7 10  1  6  0  0  0
  8 17  2  0  0  0  0
  9 11  1  0  0  0  0
  9 22  1  6  0  0  0
 11 20  1  0  0  0  0
 12 13  1  6  0  0  0
 12  3  1  0  0  0  0
 15  2  1  6  0  0  0
 15 17  1  0  0  0  0
 15 21  1  0  0  0  0
 17  1  1  0  0  0  0
 18 14  1  0  0  0  0
 19 21  1  6  0  0  0
 19 20  1  0  0  0  0
 19  5  1  0  0  0  0
 22 23  1  1  0  0  0
 22 24  1  0  0  0  0
 25 24  1  6  0  0  0
 25 28  1  0  0  0  0
 25 29  1  0  0  0  0
 27 31  1  0  0  0  0
 28 29  1  0  0  0  0
 29 27  1  0  0  0  0
 29 26  1  0  0  0  0
 30 26  1  0  0  0  0
 30 32  1  0  0  0  0
 31 32  1  0  0  0  0
M  END
>  <MODEL>
6

>  <REMARK>
 VINA RESULT:      -6.0      1.924      2.535
  Name = 
  3 active torsions:
  status: ('A' for Active; 'I' for Inactive)
    1  A    between atoms: N_2  and  C_3
    2  A    between atoms: N_2  and  C_15
    3  A    between atoms: C_14  and  C_15
                            x       y       z     vdW  Elec       q    Type
                         _______ _______ _______ _____ _____    ______ ____

>  <TORSDO>
F 3

$$$$
=
 OpenBabel10232408133D

 32 36  0  0  1  0  0  0  0  0999 V2000
  181.6320  176.4110  138.4710 C   0  0  0  0  0  2  0  0  0  0  0  0
  185.1440  176.6920  137.2690 C   0  0  0  0  0  2  0  0  0  0  0  0
  186.9820  178.0920  138.3090 C   0  0  2  0  0  3  0  0  0  0  0  0
  187.6640  177.6530  135.5520 C   0  0  0  0  0  2  0  0  0  0  0  0
  182.5080  178.7220  140.9280 C   0  0  0  0  0  2  0  0  0  0  0  0
  181.2850  178.2250  140.1470 C   0  0  1  0  0  3  0  0  0  0  0  0
  181.2920  176.7000  139.9280 C   0  0  1  0  0  3  0  0  0  0  0  0
  183.1550  174.6630  138.1200 O   0  0  0  0  0  0  0  0  0  0  0  0
  186.8330  178.0390  139.8390 C   0  0  2  0  0  3  0  0  0  0  0  0
  180.0570  176.1170  140.2280 O   0  0  0  0  0  1  0  0  0  0  0  0
  186.1320  179.2390  140.2880 N   0  0  0  0  0  2  0  0  0  0  0  0
  186.6230  176.7400  137.6600 C   0  0  2  0  0  3  0  0  0  0  0  0
  187.4930  176.4210  136.4400 C   0  0  0  0  0  2  0  0  0  0  0  0
  188.3080  178.6860  137.8180 C   0  0  0  0  0  2  0  0  0  0  0  0
  184.2560  176.7110  138.5050 C   0  0  2  0  0  3  0  0  0  0  0  0
  180.0270  178.7440  140.8250 C   0  0  0  0  0  1  0  0  0  0  0  0
  183.0220  175.8580  138.3340 C   0  0  0  0  0  0  0  0  0  0  0  0
  188.3220  178.8270  136.2920 C   0  0  0  0  0  2  0  0  0  0  0  0
  183.8450  178.1680  140.4370 C   0  0  2  0  0  3  0  0  0  0  0  0
  185.0210  178.8500  141.1620 C   0  0  0  0  0  2  0  0  0  0  0  0
  183.9490  178.1450  138.9170 C   0  0  0  0  0  2  0  0  0  0  0  0
  188.1570  177.8190  140.6010 C   0  0  1  0  0  3  0  0  0  0  0  0
  188.7860  179.1210  141.0880 C   0  0  0  0  0  1  0  0  0  0  0  0
  188.0010  176.8630  141.7010 N   0  0  0  0  0  2  0  0  0  0  0  0
  188.0080  177.5570  142.9900 C   0  0  1  0  0  3  0  0  0  0  0  0
  189.6770  178.1850  144.8580 C   0  0  0  0  0  2  0  0  0  0  0  0
  190.2620  176.2050  143.2540 C   0  0  0  0  0  2  0  0  0  0  0  0
  187.8870  176.5380  144.1210 C   0  0  0  0  0  2  0  0  0  0  0  0
  189.2220  177.1700  143.8200 C   0  0  0  0  0  0  0  0  0  0  0  0
  191.0200  178.7720  144.4240 C   0  0  0  0  0  2  0  0  0  0  0  0
  191.5500  176.9750  142.9680 C   0  0  0  0  0  2  0  0  0  0  0  0
  191.9810  177.7010  144.1620 N   0  0  0  0  0  2  0  0  0  0  0  0
  1  7  1  0  0  0  0
  2 12  1  0  0  0  0
  3 14  1  1  0  0  0
  3  9  1  0  0  0  0
  4 18  1  0  0  0  0
  4 13  1  0  0  0  0
  6 16  1  1  0  0  0
  6  5  1  0  0  0  0
  7  6  1  0  0  0  0
  7 10  1  6  0  0  0
  8 17  2  0  0  0  0
  9 11  1  0  0  0  0
  9 22  1  1  0  0  0
 11 20  1  0  0  0  0
 12 13  1  6  0  0  0
 12  3  1  0  0  0  0
 15  2  1  6  0  0  0
 15 21  1  0  0  0  0
 17  1  1  0  0  0  0
 17 15  1  0  0  0  0
 18 14  1  0  0  0  0
 19 21  1  6  0  0  0
 19  5  1  0  0  0  0
 19 20  1  0  0  0  0
 22 23  1  1  0  0  0
 22 24  1  0  0  0  0
 25 24  1  6  0  0  0
 25 29  1  0  0  0  0
 25 28  1  0  0  0  0
 27 29  1  0  0  0  0
 29 28  1  0  0  0  0
 29 26  1  0  0  0  0
 30 26  1  0  0  0  0
 31 27  1  0  0  0  0
 31 32  1  0  0  0  0
 32 30  1  0  0  0  0
M  END
>  <MODEL>
7

>  <REMARK>
 VINA RESULT:      -5.9      2.192      2.941
  Name = 
  3 active torsions:
  status: ('A' for Active; 'I' for Inactive)
    1  A    between atoms: N_2  and  C_3
    2  A    between atoms: N_2  and  C_15
    3  A    between atoms: C_14  and  C_15
                            x       y       z     vdW  Elec       q    Type
                         _______ _______ _______ _____ _____    ______ ____

>  <TORSDO>
F 3

$$$$
=
 OpenBabel10232408133D

 32 36  0  0  1  0  0  0  0  0999 V2000
  185.8510  177.4940  137.0430 C   0  0  0  0  0  2  0  0  0  0  0  0
  189.3640  176.6700  137.9550 C   0  0  0  0  0  2  0  0  0  0  0  0
  190.5130  177.2030  140.1490 C   0  0  2  0  0  3  0  0  0  0  0  0
  192.5490  176.8860  138.1450 C   0  0  0  0  0  2  0  0  0  0  0  0
  185.6250  179.0390  140.1580 C   0  0  0  0  0  2  0  0  0  0  0  0
  185.0080  179.1000  138.7550 C   0  0  1  0  0  3  0  0  0  0  0  0
  184.8040  177.7070  138.1290 C   0  0  1  0  0  3  0  0  0  0  0  0
  186.8630  175.3790  137.0200 O   0  0  0  0  0  0  0  0  0  0  0  0
  189.4980  177.0210  141.2900 C   0  0  2  0  0  3  0  0  0  0  0  0
  183.5320  177.5620  137.5660 O   0  0  0  0  0  1  0  0  0  0  0  0
  188.9530  178.3280  141.6500 N   0  0  0  0  0  2  0  0  0  0  0  0
  190.3090  176.1500  139.0410 C   0  0  2  0  0  3  0  0  0  0  0  0
  191.6280  175.6960  138.4080 C   0  0  0  0  0  2  0  0  0  0  0  0
  191.9700  177.3490  140.6090 C   0  0  0  0  0  2  0  0  0  0  0  0
  187.9560  176.8500  138.5020 C   0  0  2  0  0  3  0  0  0  0  0  0
  183.7430  179.9410  138.8120 C   0  0  0  0  0  1  0  0  0  0  0  0
  186.8990  176.5100  137.4790 C   0  0  0  0  0  0  0  0  0  0  0  0
  192.8950  177.6580  139.4270 C   0  0  0  0  0  2  0  0  0  0  0  0
  186.8360  178.1160  140.2820 C   0  0  2  0  0  3  0  0  0  0  0  0
  187.4900  178.2500  141.6710 C   0  0  0  0  0  2  0  0  0  0  0  0
  187.7920  178.2400  139.1030 C   0  0  0  0  0  2  0  0  0  0  0  0
  190.0470  176.2630  142.5170 C   0  0  1  0  0  3  0  0  0  0  0  0
  191.4690  176.6770  142.8850 C   0  0  0  0  0  1  0  0  0  0  0  0
  189.1500  176.3700  143.6720 N   0  0  0  0  0  2  0  0  0  0  0  0
  189.8830  176.8280  144.8530 C   0  0  1  0  0  3  0  0  0  0  0  0
  189.3960  177.8340  147.1810 C   0  0  0  0  0  2  0  0  0  0  0  0
  187.5910  178.0610  145.3030 C   0  0  0  0  0  2  0  0  0  0  0  0
  190.0720  178.3410  144.7830 C   0  0  0  0  0  2  0  0  0  0  0  0
  189.0320  177.7560  145.7050 C   0  0  0  0  0  0  0  0  0  0  0  0
  188.2840  177.1850  148.0020 C   0  0  0  0  0  2  0  0  0  0  0  0
  186.6450  177.3900  146.2970 C   0  0  0  0  0  2  0  0  0  0  0  0
  186.9900  177.7780  147.6650 N   0  0  0  0  0  2  0  0  0  0  0  0
  1 17  1  0  0  0  0
  1  7  1  0  0  0  0
  3 14  1  1  0  0  0
  3  9  1  0  0  0  0
  4 13  1  0  0  0  0
  4 18  1  0  0  0  0
  5 19  1  0  0  0  0
  6 16  1  1  0  0  0
  6  5  1  0  0  0  0
  7 10  1  6  0  0  0
  7  6  1  0  0  0  0
  8 17  2  0  0  0  0
  9 11  1  0  0  0  0
  9 22  1  1  0  0  0
 11 20  1  0  0  0  0
 12  2  1  6  0  0  0
 12  3  1  0  0  0  0
 13 12  1  0  0  0  0
 15  2  1  6  0  0  0
 15 21  1  0  0  0  0
 17 15  1  0  0  0  0
 18 14  1  0  0  0  0
 19 21  1  6  0  0  0
 19 20  1  0  0  0  0
 22 23  1  1  0  0  0
 22 24  1  0  0  0  0
 25 24  1  6  0  0  0
 25 29  1  0  0  0  0
 26 30  1  0  0  0  0
 27 29  1  0  0  0  0
 27 31  1  0  0  0  0
 28 25  1  0  0  0  0
 28 29  1  0  0  0  0
 29 26  1  0  0  0  0
 31 32  1  0  0  0  0
 32 30  1  0  0  0  0
M  END
>  <MODEL>
8

>  <REMARK>
 VINA RESULT:      -5.9      2.696      4.194
  Name = 
  3 active torsions:
  status: ('A' for Active; 'I' for Inactive)
    1  A    between atoms: N_2  and  C_3
    2  A    between atoms: N_2  and  C_15
    3  A    between atoms: C_14  and  C_15
                            x       y       z     vdW  Elec       q    Type
                         _______ _______ _______ _____ _____    ______ ____

>  <TORSDO>
F 3

$$$$
=
 OpenBabel10232408133D

 32 36  0  0  1  0  0  0  0  0999 V2000
  184.4410  174.5280  136.7710 C   0  0  0  0  0  2  0  0  0  0  0  0
  188.0540  173.8300  136.2190 C   0  0  0  0  0  2  0  0  0  0  0  0
  189.9740  175.4360  136.6140 C   0  0  2  0  0  3  0  0  0  0  0  0
  190.8490  173.4730  134.7070 C   0  0  0  0  0  2  0  0  0  0  0  0
  185.4140  177.7520  137.6710 C   0  0  0  0  0  2  0  0  0  0  0  0
  184.2120  176.9910  137.0960 C   0  0  1  0  0  3  0  0  0  0  0  0
  184.0070  175.6120  137.7510 C   0  0  1  0  0  3  0  0  0  0  0  0
  185.7040  172.7820  137.6930 O   0  0  0  0  0  0  0  0  0  0  0  0
  189.6690  176.2640  137.8740 C   0  0  2  0  0  3  0  0  0  0  0  0
  182.6740  175.3900  138.1100 O   0  0  0  0  0  1  0  0  0  0  0  0
  189.1190  177.5560  137.4690 N   0  0  0  0  0  2  0  0  0  0  0  0
  189.4780  173.9840  136.7610 C   0  0  2  0  0  3  0  0  0  0  0  0
  190.4040  172.9710  136.0800 C   0  0  0  0  0  2  0  0  0  0  0  0
  191.4180  175.5530  136.1090 C   0  0  0  0  0  2  0  0  0  0  0  0
  187.0630  174.6060  137.0740 C   0  0  2  0  0  3  0  0  0  0  0  0
  182.9880  177.8910  137.1580 C   0  0  0  0  0  1  0  0  0  0  0  0
  185.7360  173.8960  137.1940 C   0  0  0  0  0  0  0  0  0  0  0  0
  191.6030  174.8090  134.7820 C   0  0  0  0  0  2  0  0  0  0  0  0
  186.6920  176.9230  137.7940 C   0  0  2  0  0  3  0  0  0  0  0  0
  187.8820  177.8070  138.2130 C   0  0  0  0  0  2  0  0  0  0  0  0
  186.9400  176.0410  136.5770 C   0  0  0  0  0  2  0  0  0  0  0  0
  190.8620  176.4170  138.8400 C   0  0  1  0  0  3  0  0  0  0  0  0
  192.1540  176.8170  138.1330 C   0  0  0  0  0  1  0  0  0  0  0  0
  190.5570  177.3350  139.9430 N   0  0  0  0  0  2  0  0  0  0  0  0
  190.6800  176.6490  141.2310 C   0  0  1  0  0  3  0  0  0  0  0  0
  189.3990  176.4550  143.4650 C   0  0  0  0  0  2  0  0  0  0  0  0
  188.9790  178.5410  141.9450 C   0  0  0  0  0  2  0  0  0  0  0  0
  191.3250  177.5850  142.2500 C   0  0  0  0  0  2  0  0  0  0  0  0
  189.8390  177.3300  142.3000 C   0  0  0  0  0  0  0  0  0  0  0  0
  187.8870  176.2470  143.3860 C   0  0  0  0  0  2  0  0  0  0  0  0
  187.5070  178.1400  142.0060 C   0  0  0  0  0  2  0  0  0  0  0  0
  187.2000  177.5360  143.3020 N   0  0  0  0  0  2  0  0  0  0  0  0
  1 17  1  0  0  0  0
  1  7  1  0  0  0  0
  2 12  1  0  0  0  0
  3 14  1  1  0  0  0
  3 12  1  0  0  0  0
  3  9  1  0  0  0  0
  4 18  1  0  0  0  0
  4 13  1  0  0  0  0
  5 19  1  0  0  0  0
  6 16  1  1  0  0  0
  6  5  1  0  0  0  0
  6  7  1  0  0  0  0
  7 10  1  6  0  0  0
  9 22  1  6  0  0  0
 11  9  1  0  0  0  0
 11 20  1  0  0  0  0
 12 13  1  6  0  0  0
 15  2  1  6  0  0  0
 15 17  1  0  0  0  0
 17  8  2  0  0  0  0
 18 14  1  0  0  0  0
 19 21  1  6  0  0  0
 19 20  1  0  0  0  0
 21 15  1  0  0  0  0
 22 23  1  6  0  0  0
 22 24  1  0  0  0  0
 25 24  1  6  0  0  0
 25 28  1  0  0  0  0
 25 29  1  0  0  0  0
 27 31  1  0  0  0  0
 27 29  1  0  0  0  0
 28 29  1  0  0  0  0
 29 26  1  0  0  0  0
 30 26  1  0  0  0  0
 31 32  1  0  0  0  0
 32 30  1  0  0  0  0
M  END
>  <MODEL>
9

>  <REMARK>
 VINA RESULT:      -5.5      1.493      2.196
  Name = 
  3 active torsions:
  status: ('A' for Active; 'I' for Inactive)
    1  A    between atoms: N_2  and  C_3
    2  A    between atoms: N_2  and  C_15
    3  A    between atoms: C_14  and  C_15
                            x       y       z     vdW  Elec       q    Type
                         _______ _______ _______ _____ _____    ______ ____

>  <TORSDO>
F 3

$$$$
