=
 OpenBabel10232408283D

 45 49  0  0  1  0  0  0  0  0999 V2000
  185.5940  178.5330  139.2650 C   0  0  0  0  0  3  0  0  0  0  0  0
  184.0700  177.1010  138.0260 C   0  0  0  0  0  0  0  0  0  0  0  0
  183.5070  177.8690  140.2660 C   0  0  0  0  0  3  0  0  0  0  0  0
  185.2880  177.8170  138.1020 C   0  0  0  0  0  0  0  0  0  0  0  0
  184.7200  178.5490  140.3560 C   0  0  0  0  0  0  0  0  0  0  0  0
  183.1840  177.1530  139.1140 C   0  0  0  0  0  3  0  0  0  0  0  0
  186.9810  179.1310  136.9910 O   0  0  0  0  0  1  0  0  0  0  0  0
  186.2650  177.9300  136.9590 C   0  0  1  0  0  3  0  0  0  0  0  0
  187.2530  175.9450  137.8610 O   0  0  0  0  0  0  0  0  0  0  0  0
  187.1890  176.7500  136.8940 C   0  0  0  0  0  0  0  0  0  0  0  0
  187.9920  176.5140  135.7380 N   0  0  0  0  0  2  0  0  0  0  0  0
  189.3910  177.7470  134.3480 O   0  0  0  0  0  1  0  0  0  0  0  0
  188.0570  177.4470  134.6270 C   0  0  0  0  0  2  0  0  0  0  0  0
  185.0280  179.2900  141.5400 N   0  0  0  0  0  2  0  0  0  0  0  0
  184.2310  179.2340  142.7620 C   0  0  0  0  0  2  0  0  0  0  0  0
  187.4100  177.8190  145.6920 C   0  0  0  0  0  0  0  0  0  0  0  0
  189.5120  176.6390  144.1470 C   0  0  0  0  0  3  0  0  0  0  0  0
  188.6500  177.6860  146.1730 C   0  0  0  0  0  2  0  0  0  0  0  0
  185.2560  178.7220  146.3820 N   0  0  0  0  0  0  0  0  0  0  0  0
  185.0520  178.7270  143.9020 C   0  0  0  0  0  0  0  0  0  0  0  0
  187.1440  177.3850  144.3040 C   0  0  0  0  0  0  0  0  0  0  0  0
  186.3950  178.2000  146.6210 N   0  0  0  0  0  2  0  0  0  0  0  0
  184.6820  179.1000  145.1260 C   0  0  0  0  0  3  0  0  0  0  0  0
  186.1260  177.7930  143.5620 C   0  0  0  0  0  3  0  0  0  0  0  0
  188.1080  176.4340  143.6540 C   0  0  0  0  0  2  0  0  0  0  0  0
  189.7570  177.1810  145.3420 C   0  0  0  0  0  0  0  0  0  0  0  0
  191.1610  177.3020  145.8200 C   0  0  0  0  0  2  0  0  0  0  0  0
  191.4430  176.3130  146.9400 C   0  0  0  0  0  3  0  0  0  0  0  0
  192.2870  175.3040  146.4760 O   0  0  0  0  0  1  0  0  0  0  0  0
  192.0600  176.9800  147.9940 O   0  0  0  0  0  1  0  0  0  0  0  0
  183.7210  176.3140  136.7910 C   0  0  0  0  0  2  0  0  0  0  0  0
  182.1170  175.4400  136.8690 S   0  0  0  0  0  0  0  0  0  0  0  0
  183.3850  174.4100  134.7860 O   0  0  0  0  0  0  0  0  0  0  0  0
  182.4910  174.2230  135.5960 C   0  0  0  0  0  0  0  0  0  0  0  0
  181.5140  170.6440  134.3480 C   0  0  0  0  0  2  0  0  0  0  0  0
  182.9150  169.2280  135.7610 O   0  0  0  0  0  0  0  0  0  0  0  0
  183.7210  171.3830  136.5960 C   0  0  1  0  0  3  0  0  0  0  0  0
  181.6440  172.9900  135.5090 C   0  0  2  0  0  3  0  0  0  0  0  0
  182.2740  171.8130  136.2640 C   0  0  1  0  0  3  0  0  0  0  0  0
  182.3010  171.8770  134.7390 C   0  0  1  0  0  3  0  0  0  0  0  0
  184.0720  170.0180  135.9410 C   0  0  0  0  0  2  0  0  0  0  0  0
  182.4720  169.4410  134.4360 C   0  0  0  0  0  2  0  0  0  0  0  0
  186.1130  171.8990  135.8850 C   0  0  0  0  0  1  0  0  0  0  0  0
  185.1260  173.0180  137.8610 C   0  0  0  0  0  1  0  0  0  0  0  0
  184.8290  172.4440  136.4920 C   0  0  0  0  0  3  0  0  0  0  0  0
  1  5  1  0  0  0  0
  2  4  1  0  0  0  0
  2  6  2  0  0  0  0
  3  5  2  0  0  0  0
  4  1  2  0  0  0  0
  5 14  1  0  0  0  0
  6  3  1  0  0  0  0
  8  7  1  1  0  0  0
  8  4  1  0  0  0  0
 10  8  1  0  0  0  0
 10  9  2  0  0  0  0
 11 10  1  0  0  0  0
 12 13  1  0  0  0  0
 13 11  1  0  0  0  0
 14 15  1  0  0  0  0
 15 20  1  0  0  0  0
 16 18  1  0  0  0  0
 16 22  1  0  0  0  0
 17 26  2  0  0  0  0
 19 22  1  0  0  0  0
 20 23  1  0  0  0  0
 21 16  2  0  0  0  0
 23 19  2  0  0  0  0
 24 20  2  0  0  0  0
 24 21  1  0  0  0  0
 25 17  1  0  0  0  0
 25 21  1  0  0  0  0
 26 27  1  0  0  0  0
 26 18  1  0  0  0  0
 27 28  1  0  0  0  0
 28 30  1  0  0  0  0
 29 28  1  0  0  0  0
 31 32  1  0  0  0  0
 31  2  1  0  0  0  0
 33 34  2  0  0  0  0
 34 32  1  0  0  0  0
 35 42  1  0  0  0  0
 35 40  1  0  0  0  0
 36 41  1  0  0  0  0
 37 45  1  6  0  0  0
 38 34  1  1  0  0  0
 38 39  1  0  0  0  0
 39 37  1  0  0  0  0
 40 38  1  0  0  0  0
 40 39  1  0  0  0  0
 41 37  1  0  0  0  0
 42 36  1  0  0  0  0
 43 45  1  0  0  0  0
 45 44  1  0  0  0  0
M  END
>  <MODEL>
1

>  <REMARK>
 VINA RESULT:      -8.4      0.000      0.000
  Name = 
  13 active torsions:
  status: ('A' for Active; 'I' for Inactive)
    1  A    between atoms: C_1  and  N_15
    2  A    between atoms: C_1  and  C_26
    3  A    between atoms: C_4  and  C_10
    4  A    between atoms: C_9  and  C_28
    5  A    between atoms: C_10  and  C_44
    6  A    between atoms: C_12  and  C_37
    7  A    between atoms: N_15  and  C_29
    8  A    between atoms: C_16  and  C_33
    9  A    between atoms: N_18  and  C_42
   10  A    between atoms: C_21  and  C_35
   11  A    between atoms: C_24  and  C_33
   12  A    between atoms: C_28  and  S_39
   13  A    between atoms: C_35  and  S_39
                            x       y       z     vdW  Elec       q    Type
                         _______ _______ _______ _____ _____    ______ ____

>  <TORSDO>
F 13

$$$$
=
 OpenBabel10232408283D

 45 49  0  0  1  0  0  0  0  0999 V2000
  186.6400  178.6040  139.4680 C   0  0  0  0  0  3  0  0  0  0  0  0
  186.3130  177.3690  137.4000 C   0  0  0  0  0  0  0  0  0  0  0  0
  184.4050  178.1530  138.6920 C   0  0  0  0  0  3  0  0  0  0  0  0
  187.1810  177.9460  138.3570 C   0  0  0  0  0  0  0  0  0  0  0  0
  185.2580  178.6950  139.6520 C   0  0  0  0  0  0  0  0  0  0  0  0
  184.9260  177.4980  137.5770 C   0  0  0  0  0  3  0  0  0  0  0  0
  189.1770  179.2710  138.0600 O   0  0  0  0  0  1  0  0  0  0  0  0
  188.6820  177.9730  138.2170 C   0  0  1  0  0  3  0  0  0  0  0  0
  189.2580  177.7140  140.5260 O   0  0  0  0  0  0  0  0  0  0  0  0
  189.3610  177.2680  139.3530 C   0  0  0  0  0  0  0  0  0  0  0  0
  190.1180  176.0780  139.1270 N   0  0  0  0  0  2  0  0  0  0  0  0
  191.0230  174.3250  137.8950 O   0  0  0  0  0  1  0  0  0  0  0  0
  190.3750  175.5570  137.7960 C   0  0  0  0  0  2  0  0  0  0  0  0
  184.7050  179.3780  140.7820 N   0  0  0  0  0  2  0  0  0  0  0  0
  183.7560  178.7720  141.7100 C   0  0  0  0  0  2  0  0  0  0  0  0
  186.4870  178.0610  145.2790 C   0  0  0  0  0  0  0  0  0  0  0  0
  188.8800  176.8480  144.2770 C   0  0  0  0  0  3  0  0  0  0  0  0
  187.6370  178.1020  145.9580 C   0  0  0  0  0  2  0  0  0  0  0  0
  184.2000  178.8730  145.4810 N   0  0  0  0  0  0  0  0  0  0  0  0
  184.4070  178.5040  143.0280 C   0  0  0  0  0  0  0  0  0  0  0  0
  186.4790  177.4110  143.9500 C   0  0  0  0  0  0  0  0  0  0  0  0
  185.3130  178.4870  145.9690 N   0  0  0  0  0  2  0  0  0  0  0  0
  183.8200  179.0170  144.1080 C   0  0  0  0  0  3  0  0  0  0  0  0
  185.5740  177.6220  143.0070 C   0  0  0  0  0  3  0  0  0  0  0  0
  187.5900  176.4600  143.6120 C   0  0  0  0  0  2  0  0  0  0  0  0
  188.8930  177.5740  145.3960 C   0  0  0  0  0  0  0  0  0  0  0  0
  190.1900  177.8790  146.0600 C   0  0  0  0  0  2  0  0  0  0  0  0
  190.3310  177.1050  147.3610 C   0  0  0  0  0  3  0  0  0  0  0  0
  191.6800  176.8800  147.6320 O   0  0  0  0  0  1  0  0  0  0  0  0
  189.7720  177.8490  148.3970 O   0  0  0  0  0  1  0  0  0  0  0  0
  186.8680  176.6460  136.2010 C   0  0  0  0  0  2  0  0  0  0  0  0
  185.6100  175.8650  135.1290 S   0  0  0  0  0  0  0  0  0  0  0  0
  185.8250  174.2370  137.2050 O   0  0  0  0  0  0  0  0  0  0  0  0
  185.5260  174.3050  136.0230 C   0  0  0  0  0  0  0  0  0  0  0  0
  183.7810  170.8370  135.5260 C   0  0  0  0  0  2  0  0  0  0  0  0
  181.4810  171.5050  135.0440 O   0  0  0  0  0  0  0  0  0  0  0  0
  182.3790  173.7510  135.4190 C   0  0  1  0  0  3  0  0  0  0  0  0
  185.1340  173.0680  135.2750 C   0  0  2  0  0  3  0  0  0  0  0  0
  183.6610  173.1050  134.8480 C   0  0  1  0  0  3  0  0  0  0  0  0
  184.1230  172.2300  136.0100 C   0  0  1  0  0  3  0  0  0  0  0  0
  181.3300  172.6760  135.8190 C   0  0  0  0  0  2  0  0  0  0  0  0
  182.2800  170.6140  135.7950 C   0  0  0  0  0  2  0  0  0  0  0  0
  182.0120  174.5360  137.8150 C   0  0  0  0  0  1  0  0  0  0  0  0
  181.8320  176.1360  135.9340 C   0  0  0  0  0  1  0  0  0  0  0  0
  182.5400  174.8940  136.4350 C   0  0  0  0  0  3  0  0  0  0  0  0
  1  5  1  0  0  0  0
  2  6  2  0  0  0  0
  2  4  1  0  0  0  0
  3  5  2  0  0  0  0
  4  1  2  0  0  0  0
  5 14  1  0  0  0  0
  6  3  1  0  0  0  0
  8  7  1  1  0  0  0
  8  4  1  0  0  0  0
  8 10  1  0  0  0  0
 10  9  2  0  0  0  0
 11 10  1  0  0  0  0
 13 12  1  0  0  0  0
 13 11  1  0  0  0  0
 14 15  1  0  0  0  0
 15 20  1  0  0  0  0
 16 18  1  0  0  0  0
 16 22  1  0  0  0  0
 17 26  2  0  0  0  0
 19 22  1  0  0  0  0
 20 23  1  0  0  0  0
 21 16  2  0  0  0  0
 23 19  2  0  0  0  0
 24 20  2  0  0  0  0
 24 21  1  0  0  0  0
 25 21  1  0  0  0  0
 25 17  1  0  0  0  0
 26 18  1  0  0  0  0
 26 27  1  0  0  0  0
 27 28  1  0  0  0  0
 28 29  1  0  0  0  0
 28 30  1  0  0  0  0
 31  2  1  0  0  0  0
 32 34  1  0  0  0  0
 32 31  1  0  0  0  0
 34 33  2  0  0  0  0
 35 42  1  0  0  0  0
 35 40  1  0  0  0  0
 36 42  1  0  0  0  0
 36 41  1  0  0  0  0
 37 41  1  0  0  0  0
 37 45  1  1  0  0  0
 38 40  1  0  0  0  0
 38 34  1  1  0  0  0
 39 38  1  0  0  0  0
 39 37  1  0  0  0  0
 39 40  1  0  0  0  0
 44 45  1  0  0  0  0
 45 43  1  0  0  0  0
M  END
>  <MODEL>
2

>  <REMARK>
 VINA RESULT:      -8.3      1.896      2.677
  Name = 
  13 active torsions:
  status: ('A' for Active; 'I' for Inactive)
    1  A    between atoms: C_1  and  N_15
    2  A    between atoms: C_1  and  C_26
    3  A    between atoms: C_4  and  C_10
    4  A    between atoms: C_9  and  C_28
    5  A    between atoms: C_10  and  C_44
    6  A    between atoms: C_12  and  C_37
    7  A    between atoms: N_15  and  C_29
    8  A    between atoms: C_16  and  C_33
    9  A    between atoms: N_18  and  C_42
   10  A    between atoms: C_21  and  C_35
   11  A    between atoms: C_24  and  C_33
   12  A    between atoms: C_28  and  S_39
   13  A    between atoms: C_35  and  S_39
                            x       y       z     vdW  Elec       q    Type
                         _______ _______ _______ _____ _____    ______ ____

>  <TORSDO>
F 13

$$$$
=
 OpenBabel10232408283D

 45 49  0  0  1  0  0  0  0  0999 V2000
  183.6070  178.2870  140.3490 C   0  0  0  0  0  3  0  0  0  0  0  0
  184.6670  177.6260  138.2630 C   0  0  0  0  0  0  0  0  0  0  0  0
  185.9100  178.8670  139.9490 C   0  0  0  0  0  3  0  0  0  0  0  0
  183.5310  177.6460  139.1060 C   0  0  0  0  0  0  0  0  0  0  0  0
  184.7830  178.9150  140.7680 C   0  0  0  0  0  0  0  0  0  0  0  0
  185.8540  178.2290  138.7100 C   0  0  0  0  0  3  0  0  0  0  0  0
  181.5670  176.5160  139.9390 O   0  0  0  0  0  1  0  0  0  0  0  0
  182.2390  176.9360  138.7880 C   0  0  1  0  0  3  0  0  0  0  0  0
  181.3760  179.0220  137.9900 O   0  0  0  0  0  0  0  0  0  0  0  0
  181.3480  177.7650  137.9110 C   0  0  0  0  0  0  0  0  0  0  0  0
  180.4710  177.1480  136.9680 N   0  0  0  0  0  2  0  0  0  0  0  0
  180.8560  175.2400  135.6960 O   0  0  0  0  0  1  0  0  0  0  0  0
  180.3000  175.7080  136.8860 C   0  0  0  0  0  2  0  0  0  0  0  0
  184.8640  179.5600  142.0420 N   0  0  0  0  0  2  0  0  0  0  0  0
  184.0880  179.1500  143.2090 C   0  0  0  0  0  2  0  0  0  0  0  0
  187.4540  177.6010  145.8480 C   0  0  0  0  0  0  0  0  0  0  0  0
  189.4970  176.6070  144.1060 C   0  0  0  0  0  3  0  0  0  0  0  0
  188.7210  177.4670  146.2510 C   0  0  0  0  0  2  0  0  0  0  0  0
  185.3190  178.3860  146.7190 N   0  0  0  0  0  0  0  0  0  0  0  0
  184.9820  178.5800  144.2610 C   0  0  0  0  0  0  0  0  0  0  0  0
  187.1240  177.2700  144.4450 C   0  0  0  0  0  0  0  0  0  0  0  0
  186.4820  177.8800  146.8550 N   0  0  0  0  0  2  0  0  0  0  0  0
  184.6690  178.8440  145.5280 C   0  0  0  0  0  3  0  0  0  0  0  0
  186.0580  177.7060  143.7920 C   0  0  0  0  0  3  0  0  0  0  0  0
  188.0740  176.4010  143.6720 C   0  0  0  0  0  2  0  0  0  0  0  0
  189.7940  177.0590  145.3260 C   0  0  0  0  0  0  0  0  0  0  0  0
  191.2180  177.1830  145.7390 C   0  0  0  0  0  2  0  0  0  0  0  0
  191.4840  176.4060  147.0180 C   0  0  0  0  0  3  0  0  0  0  0  0
  192.4500  175.4280  146.7840 O   0  0  0  0  0  1  0  0  0  0  0  0
  191.9440  177.2820  147.9980 O   0  0  0  0  0  1  0  0  0  0  0  0
  184.6100  176.9530  136.9180 C   0  0  0  0  0  2  0  0  0  0  0  0
  185.7520  175.5390  136.7200 S   0  0  0  0  0  0  0  0  0  0  0  0
  186.8000  176.1770  134.3750 O   0  0  0  0  0  0  0  0  0  0  0  0
  186.8830  176.3530  135.5800 C   0  0  0  0  0  0  0  0  0  0  0  0
  189.5920  177.4360  138.1890 C   0  0  0  0  0  2  0  0  0  0  0  0
  191.4530  175.9650  137.6080 O   0  0  0  0  0  0  0  0  0  0  0  0
  189.8540  175.0910  135.9740 C   0  0  1  0  0  3  0  0  0  0  0  0
  187.9720  177.2150  136.1400 C   0  0  2  0  0  3  0  0  0  0  0  0
  189.3490  176.5510  136.0030 C   0  0  1  0  0  3  0  0  0  0  0  0
  188.6340  176.6150  137.3510 C   0  0  1  0  0  3  0  0  0  0  0  0
  190.7980  174.7930  137.1720 C   0  0  0  0  0  2  0  0  0  0  0  0
  190.6990  176.4850  138.6830 C   0  0  0  0  0  2  0  0  0  0  0  0
  188.7110  172.9710  136.8050 C   0  0  0  0  0  1  0  0  0  0  0  0
  189.2100  173.2620  134.3960 C   0  0  0  0  0  1  0  0  0  0  0  0
  188.8330  173.9820  135.6750 C   0  0  0  0  0  3  0  0  0  0  0  0
  1  5  1  0  0  0  0
  2  6  2  0  0  0  0
  2  4  1  0  0  0  0
  3  5  2  0  0  0  0
  4  1  2  0  0  0  0
  5 14  1  0  0  0  0
  6  3  1  0  0  0  0
  8  4  1  0  0  0  0
  8  7  1  1  0  0  0
 10  9  2  0  0  0  0
 10  8  1  0  0  0  0
 11 10  1  0  0  0  0
 12 13  1  0  0  0  0
 13 11  1  0  0  0  0
 14 15  1  0  0  0  0
 15 20  1  0  0  0  0
 16 18  1  0  0  0  0
 16 22  1  0  0  0  0
 17 26  2  0  0  0  0
 19 22  1  0  0  0  0
 20 23  1  0  0  0  0
 21 16  2  0  0  0  0
 23 19  2  0  0  0  0
 24 20  2  0  0  0  0
 24 21  1  0  0  0  0
 25 17  1  0  0  0  0
 25 21  1  0  0  0  0
 26 27  1  0  0  0  0
 26 18  1  0  0  0  0
 27 28  1  0  0  0  0
 28 30  1  0  0  0  0
 29 28  1  0  0  0  0
 31  2  1  0  0  0  0
 32 31  1  0  0  0  0
 33 34  2  0  0  0  0
 34 32  1  0  0  0  0
 35 42  1  0  0  0  0
 36 42  1  0  0  0  0
 37 45  1  1  0  0  0
 37 39  1  0  0  0  0
 37 41  1  0  0  0  0
 38 34  1  6  0  0  0
 38 40  1  0  0  0  0
 39 38  1  0  0  0  0
 39 40  1  0  0  0  0
 40 35  1  0  0  0  0
 41 36  1  0  0  0  0
 44 45  1  0  0  0  0
 45 43  1  0  0  0  0
M  END
>  <MODEL>
3

>  <REMARK>
 VINA RESULT:      -8.3      3.028      5.154
  Name = 
  13 active torsions:
  status: ('A' for Active; 'I' for Inactive)
    1  A    between atoms: C_1  and  N_15
    2  A    between atoms: C_1  and  C_26
    3  A    between atoms: C_4  and  C_10
    4  A    between atoms: C_9  and  C_28
    5  A    between atoms: C_10  and  C_44
    6  A    between atoms: C_12  and  C_37
    7  A    between atoms: N_15  and  C_29
    8  A    between atoms: C_16  and  C_33
    9  A    between atoms: N_18  and  C_42
   10  A    between atoms: C_21  and  C_35
   11  A    between atoms: C_24  and  C_33
   12  A    between atoms: C_28  and  S_39
   13  A    between atoms: C_35  and  S_39
                            x       y       z     vdW  Elec       q    Type
                         _______ _______ _______ _____ _____    ______ ____

>  <TORSDO>
F 13

$$$$
=
 OpenBabel10232408283D

 45 49  0  0  1  0  0  0  0  0999 V2000
  187.4970  175.7980  137.0590 C   0  0  0  0  0  3  0  0  0  0  0  0
  185.1270  176.3440  137.0560 C   0  0  0  0  0  0  0  0  0  0  0  0
  186.7650  177.9260  137.9190 C   0  0  0  0  0  3  0  0  0  0  0  0
  186.1760  175.4430  136.7580 C   0  0  0  0  0  0  0  0  0  0  0  0
  187.7970  177.0260  137.6550 C   0  0  0  0  0  0  0  0  0  0  0  0
  185.4450  177.5900  137.6220 C   0  0  0  0  0  3  0  0  0  0  0  0
  187.0820  173.7640  135.2780 O   0  0  0  0  0  1  0  0  0  0  0  0
  185.9730  174.1280  136.0480 C   0  0  1  0  0  3  0  0  0  0  0  0
  186.3290  172.7610  137.9800 O   0  0  0  0  0  0  0  0  0  0  0  0
  185.5890  173.0330  136.9980 C   0  0  0  0  0  0  0  0  0  0  0  0
  184.3800  172.2970  136.8150 N   0  0  0  0  0  2  0  0  0  0  0  0
  182.3440  171.7540  135.8290 O   0  0  0  0  0  1  0  0  0  0  0  0
  183.5250  172.4750  135.6530 C   0  0  0  0  0  2  0  0  0  0  0  0
  189.1470  177.3940  137.9520 N   0  0  0  0  0  2  0  0  0  0  0  0
  190.0270  176.6170  138.8190 C   0  0  0  0  0  2  0  0  0  0  0  0
  189.1810  177.8130  143.1260 C   0  0  0  0  0  0  0  0  0  0  0  0
  186.3360  177.9540  143.4160 C   0  0  0  0  0  3  0  0  0  0  0  0
  188.5880  177.7230  144.3200 C   0  0  0  0  0  2  0  0  0  0  0  0
  191.4200  177.7280  142.1730 N   0  0  0  0  0  0  0  0  0  0  0  0
  189.9980  177.1530  140.2130 C   0  0  0  0  0  0  0  0  0  0  0  0
  188.3270  177.9390  141.9250 C   0  0  0  0  0  0  0  0  0  0  0  0
  190.6000  177.9660  143.1200 N   0  0  0  0  0  2  0  0  0  0  0  0
  191.1590  177.2150  140.8620 C   0  0  0  0  0  3  0  0  0  0  0  0
  188.7060  177.6470  140.6900 C   0  0  0  0  0  3  0  0  0  0  0  0
  186.9090  178.3990  142.1000 C   0  0  0  0  0  2  0  0  0  0  0  0
  187.1210  177.6860  144.4600 C   0  0  0  0  0  0  0  0  0  0  0  0
  186.5080  177.3150  145.7650 C   0  0  0  0  0  2  0  0  0  0  0  0
  186.1870  178.5530  146.5880 C   0  0  0  0  0  3  0  0  0  0  0  0
  184.8230  178.5850  146.8790 O   0  0  0  0  0  1  0  0  0  0  0  0
  186.9100  178.5110  147.7760 O   0  0  0  0  0  1  0  0  0  0  0  0
  183.6980  175.9830  136.7530 C   0  0  0  0  0  2  0  0  0  0  0  0
  182.7250  175.4300  138.1990 S   0  0  0  0  0  0  0  0  0  0  0  0
  180.2550  176.3330  138.4970 O   0  0  0  0  0  0  0  0  0  0  0  0
  181.3150  176.5130  137.9180 C   0  0  0  0  0  0  0  0  0  0  0  0
  180.3780  179.8990  136.1930 C   0  0  0  0  0  2  0  0  0  0  0  0
  181.4480  181.5200  137.6740 O   0  0  0  0  0  0  0  0  0  0  0  0
  182.0430  179.5130  138.9410 C   0  0  1  0  0  3  0  0  0  0  0  0
  181.4440  177.6150  136.9120 C   0  0  2  0  0  3  0  0  0  0  0  0
  182.0500  178.8810  137.5310 C   0  0  1  0  0  3  0  0  0  0  0  0
  180.5590  178.7940  137.2130 C   0  0  1  0  0  3  0  0  0  0  0  0
  181.3440  180.9010  138.9380 C   0  0  0  0  0  2  0  0  0  0  0  0
  180.2600  181.2240  136.9700 C   0  0  0  0  0  2  0  0  0  0  0  0
  180.7300  179.2940  141.1140 C   0  0  0  0  0  1  0  0  0  0  0  0
  182.9220  178.1720  140.8590 C   0  0  0  0  0  1  0  0  0  0  0  0
  181.6700  178.6130  140.1310 C   0  0  0  0  0  3  0  0  0  0  0  0
  1  5  1  0  0  0  0
  2  6  2  0  0  0  0
  4  2  1  0  0  0  0
  4  1  2  0  0  0  0
  5  3  2  0  0  0  0
  5 14  1  0  0  0  0
  6  3  1  0  0  0  0
  8  7  1  1  0  0  0
  8  4  1  0  0  0  0
  8 10  1  0  0  0  0
 10  9  2  0  0  0  0
 11 10  1  0  0  0  0
 13 12  1  0  0  0  0
 13 11  1  0  0  0  0
 14 15  1  0  0  0  0
 15 20  1  0  0  0  0
 16 18  1  0  0  0  0
 17 26  2  0  0  0  0
 18 26  1  0  0  0  0
 19 22  1  0  0  0  0
 20 24  2  0  0  0  0
 20 23  1  0  0  0  0
 21 25  1  0  0  0  0
 21 16  2  0  0  0  0
 22 16  1  0  0  0  0
 23 19  2  0  0  0  0
 24 21  1  0  0  0  0
 25 17  1  0  0  0  0
 26 27  1  0  0  0  0
 27 28  1  0  0  0  0
 28 29  1  0  0  0  0
 28 30  1  0  0  0  0
 31  2  1  0  0  0  0
 31 32  1  0  0  0  0
 34 32  1  0  0  0  0
 34 33  2  0  0  0  0
 35 42  1  0  0  0  0
 35 40  1  0  0  0  0
 36 41  1  0  0  0  0
 37 45  1  1  0  0  0
 38 40  1  0  0  0  0
 38 39  1  0  0  0  0
 38 34  1  1  0  0  0
 39 37  1  0  0  0  0
 40 39  1  0  0  0  0
 41 37  1  0  0  0  0
 42 36  1  0  0  0  0
 45 44  1  0  0  0  0
 45 43  1  0  0  0  0
M  END
>  <MODEL>
4

>  <REMARK>
 VINA RESULT:      -8.1      3.339      6.319
  Name = 
  13 active torsions:
  status: ('A' for Active; 'I' for Inactive)
    1  A    between atoms: C_1  and  N_15
    2  A    between atoms: C_1  and  C_26
    3  A    between atoms: C_4  and  C_10
    4  A    between atoms: C_9  and  C_28
    5  A    between atoms: C_10  and  C_44
    6  A    between atoms: C_12  and  C_37
    7  A    between atoms: N_15  and  C_29
    8  A    between atoms: C_16  and  C_33
    9  A    between atoms: N_18  and  C_42
   10  A    between atoms: C_21  and  C_35
   11  A    between atoms: C_24  and  C_33
   12  A    between atoms: C_28  and  S_39
   13  A    between atoms: C_35  and  S_39
                            x       y       z     vdW  Elec       q    Type
                         _______ _______ _______ _____ _____    ______ ____

>  <TORSDO>
F 13

$$$$
=
 OpenBabel10232408283D

 45 49  0  0  1  0  0  0  0  0999 V2000
  182.5850  179.1030  143.3370 C   0  0  0  0  0  3  0  0  0  0  0  0
  183.2850  178.3890  141.1210 C   0  0  0  0  0  0  0  0  0  0  0  0
  184.9150  178.6720  142.9070 C   0  0  0  0  0  3  0  0  0  0  0  0
  182.2580  178.7680  142.0170 C   0  0  0  0  0  0  0  0  0  0  0  0
  183.9090  179.0760  143.7830 C   0  0  0  0  0  0  0  0  0  0  0  0
  184.6080  178.3310  141.5900 C   0  0  0  0  0  3  0  0  0  0  0  0
  180.0410  177.9690  142.5410 O   0  0  0  0  0  1  0  0  0  0  0  0
  180.7930  178.7570  141.6640 C   0  0  1  0  0  3  0  0  0  0  0  0
  179.9830  180.8020  142.6100 O   0  0  0  0  0  0  0  0  0  0  0  0
  180.2310  180.1450  141.5650 C   0  0  0  0  0  0  0  0  0  0  0  0
  179.9850  180.7450  140.2930 N   0  0  0  0  0  2  0  0  0  0  0  0
  180.8700  180.7990  138.1430 O   0  0  0  0  0  1  0  0  0  0  0  0
  180.1430  180.0210  139.0440 C   0  0  0  0  0  2  0  0  0  0  0  0
  184.2410  179.4070  145.1350 N   0  0  0  0  0  2  0  0  0  0  0  0
  184.4790  178.4140  146.1780 C   0  0  0  0  0  2  0  0  0  0  0  0
  188.8680  177.4740  145.4350 C   0  0  0  0  0  0  0  0  0  0  0  0
  189.1160  176.7480  142.6770 C   0  0  0  0  0  3  0  0  0  0  0  0
  190.0350  177.5450  144.7900 C   0  0  0  0  0  2  0  0  0  0  0  0
  187.9520  177.9520  147.6410 N   0  0  0  0  0  0  0  0  0  0  0  0
  185.9180  178.0180  146.2080 C   0  0  0  0  0  0  0  0  0  0  0  0
  187.6690  177.0540  144.6770 C   0  0  0  0  0  0  0  0  0  0  0  0
  188.9030  177.6320  146.8540 N   0  0  0  0  0  2  0  0  0  0  0  0
  186.5910  178.2700  147.3290 C   0  0  0  0  0  3  0  0  0  0  0  0
  186.4190  177.3030  145.0330 C   0  0  0  0  0  3  0  0  0  0  0  0
  187.8630  176.3160  143.3830 C   0  0  0  0  0  2  0  0  0  0  0  0
  190.1430  177.2770  143.3440 C   0  0  0  0  0  0  0  0  0  0  0  0
  191.3920  177.6280  142.6150 C   0  0  0  0  0  2  0  0  0  0  0  0
  191.2750  177.2860  141.1370 C   0  0  0  0  0  3  0  0  0  0  0  0
  190.3340  178.1200  140.5340 O   0  0  0  0  0  1  0  0  0  0  0  0
  192.5120  177.4700  140.5260 O   0  0  0  0  0  1  0  0  0  0  0  0
  182.9630  178.0350  139.6940 C   0  0  0  0  0  2  0  0  0  0  0  0
  184.3980  178.0460  138.5600 S   0  0  0  0  0  0  0  0  0  0  0  0
  183.7930  177.2290  136.1160 O   0  0  0  0  0  0  0  0  0  0  0  0
  183.6690  176.9810  137.3050 C   0  0  0  0  0  0  0  0  0  0  0  0
  181.8640  173.5320  136.8920 C   0  0  0  0  0  2  0  0  0  0  0  0
  183.7220  171.9680  137.1480 O   0  0  0  0  0  0  0  0  0  0  0  0
  185.0310  174.0280  137.3310 C   0  0  1  0  0  3  0  0  0  0  0  0
  182.8520  175.8050  137.7450 C   0  0  2  0  0  3  0  0  0  0  0  0
  183.7200  174.5570  137.9530 C   0  0  1  0  0  3  0  0  0  0  0  0
  182.8190  174.6970  136.7290 C   0  0  1  0  0  3  0  0  0  0  0  0
  184.8060  172.6810  136.5900 C   0  0  0  0  0  2  0  0  0  0  0  0
  182.5830  172.2730  136.3710 C   0  0  0  0  0  2  0  0  0  0  0  0
  186.0430  174.7130  135.0950 C   0  0  0  0  0  1  0  0  0  0  0  0
  187.3070  175.0540  137.1970 C   0  0  0  0  0  1  0  0  0  0  0  0
  185.9250  175.0280  136.5780 C   0  0  0  0  0  3  0  0  0  0  0  0
  1  5  1  0  0  0  0
  2  6  2  0  0  0  0
  2  4  1  0  0  0  0
  3  5  2  0  0  0  0
  4  1  2  0  0  0  0
  5 14  1  0  0  0  0
  6  3  1  0  0  0  0
  8  4  1  0  0  0  0
  8  7  1  1  0  0  0
 10  8  1  0  0  0  0
 10  9  2  0  0  0  0
 11 10  1  0  0  0  0
 12 13  1  0  0  0  0
 13 11  1  0  0  0  0
 14 15  1  0  0  0  0
 15 20  1  0  0  0  0
 16 22  1  0  0  0  0
 17 26  2  0  0  0  0
 17 25  1  0  0  0  0
 18 16  1  0  0  0  0
 20 23  1  0  0  0  0
 21 24  1  0  0  0  0
 21 16  2  0  0  0  0
 22 19  1  0  0  0  0
 23 19  2  0  0  0  0
 24 20  2  0  0  0  0
 25 21  1  0  0  0  0
 26 18  1  0  0  0  0
 27 26  1  0  0  0  0
 28 27  1  0  0  0  0
 29 28  1  0  0  0  0
 30 28  1  0  0  0  0
 31  2  1  0  0  0  0
 32 31  1  0  0  0  0
 33 34  2  0  0  0  0
 34 32  1  0  0  0  0
 37 45  1  6  0  0  0
 37 39  1  0  0  0  0
 38 34  1  6  0  0  0
 38 39  1  0  0  0  0
 40 35  1  0  0  0  0
 40 38  1  0  0  0  0
 40 39  1  0  0  0  0
 41 36  1  0  0  0  0
 41 37  1  0  0  0  0
 42 35  1  0  0  0  0
 42 36  1  0  0  0  0
 43 45  1  0  0  0  0
 45 44  1  0  0  0  0
M  END
>  <MODEL>
5

>  <REMARK>
 VINA RESULT:      -8.0      3.193      4.913
  Name = 
  13 active torsions:
  status: ('A' for Active; 'I' for Inactive)
    1  A    between atoms: C_1  and  N_15
    2  A    between atoms: C_1  and  C_26
    3  A    between atoms: C_4  and  C_10
    4  A    between atoms: C_9  and  C_28
    5  A    between atoms: C_10  and  C_44
    6  A    between atoms: C_12  and  C_37
    7  A    between atoms: N_15  and  C_29
    8  A    between atoms: C_16  and  C_33
    9  A    between atoms: N_18  and  C_42
   10  A    between atoms: C_21  and  C_35
   11  A    between atoms: C_24  and  C_33
   12  A    between atoms: C_28  and  S_39
   13  A    between atoms: C_35  and  S_39
                            x       y       z     vdW  Elec       q    Type
                         _______ _______ _______ _____ _____    ______ ____

>  <TORSDO>
F 13

$$$$
=
 OpenBabel10232408283D

 45 49  0  0  1  0  0  0  0  0999 V2000
  183.4780  178.7650  140.9840 C   0  0  0  0  0  3  0  0  0  0  0  0
  183.7960  178.1440  138.6550 C   0  0  0  0  0  0  0  0  0  0  0  0
  185.6780  178.8840  140.0110 C   0  0  0  0  0  3  0  0  0  0  0  0
  182.9450  178.3050  139.7740 C   0  0  0  0  0  0  0  0  0  0  0  0
  184.8360  179.0740  141.1050 C   0  0  0  0  0  0  0  0  0  0  0  0
  185.1650  178.4230  138.7990 C   0  0  0  0  0  3  0  0  0  0  0  0
  181.2870  176.5700  140.0310 O   0  0  0  0  0  1  0  0  0  0  0  0
  181.4850  177.9300  139.7750 C   0  0  1  0  0  3  0  0  0  0  0  0
  180.3980  178.3470  141.8670 O   0  0  0  0  0  0  0  0  0  0  0  0
  180.6900  178.7810  140.7220 C   0  0  0  0  0  0  0  0  0  0  0  0
  180.2690  180.0920  140.3470 N   0  0  0  0  0  2  0  0  0  0  0  0
  180.3970  182.0190  139.0500 O   0  0  0  0  0  1  0  0  0  0  0  0
  180.4710  180.6270  139.0110 C   0  0  0  0  0  2  0  0  0  0  0  0
  185.3820  179.5330  142.3450 N   0  0  0  0  0  2  0  0  0  0  0  0
  184.6380  179.5540  143.6010 C   0  0  0  0  0  2  0  0  0  0  0  0
  187.6900  177.6910  146.4140 C   0  0  0  0  0  0  0  0  0  0  0  0
  189.8900  176.8130  144.8050 C   0  0  0  0  0  3  0  0  0  0  0  0
  188.9050  177.4900  146.9310 C   0  0  0  0  0  2  0  0  0  0  0  0
  185.4870  178.4410  147.1310 N   0  0  0  0  0  0  0  0  0  0  0  0
  185.4100  178.8680  144.6800 C   0  0  0  0  0  0  0  0  0  0  0  0
  187.5030  177.4980  144.9600 C   0  0  0  0  0  0  0  0  0  0  0  0
  186.6210  177.8980  147.3380 N   0  0  0  0  0  2  0  0  0  0  0  0
  184.9710  179.0220  145.9280 C   0  0  0  0  0  3  0  0  0  0  0  0
  186.5170  178.0160  144.2450 C   0  0  0  0  0  3  0  0  0  0  0  0
  188.5170  176.6820  144.2100 C   0  0  0  0  0  2  0  0  0  0  0  0
  190.0630  177.1450  146.0860 C   0  0  0  0  0  0  0  0  0  0  0  0
  191.4390  177.1970  146.6520 C   0  0  0  0  0  2  0  0  0  0  0  0
  191.8420  175.8490  147.2290 C   0  0  0  0  0  3  0  0  0  0  0  0
  192.3460  175.0340  146.2160 O   0  0  0  0  0  1  0  0  0  0  0  0
  192.8250  176.0410  148.1960 O   0  0  0  0  0  1  0  0  0  0  0  0
  183.2480  177.6610  137.3390 C   0  0  0  0  0  2  0  0  0  0  0  0
  184.4930  176.9520  136.2040 S   0  0  0  0  0  0  0  0  0  0  0  0
  183.7510  175.0830  134.4830 O   0  0  0  0  0  0  0  0  0  0  0  0
  183.4160  175.7060  135.4770 C   0  0  0  0  0  0  0  0  0  0  0  0
  180.0430  173.8140  136.0820 C   0  0  0  0  0  2  0  0  0  0  0  0
  180.7210  172.0930  137.6770 O   0  0  0  0  0  0  0  0  0  0  0  0
  182.9320  173.0890  137.3470 C   0  0  1  0  0  3  0  0  0  0  0  0
  182.0640  175.4830  136.0830 C   0  0  2  0  0  3  0  0  0  0  0  0
  182.0920  174.3690  137.1380 C   0  0  1  0  0  3  0  0  0  0  0  0
  181.4880  174.1320  135.7560 C   0  0  1  0  0  3  0  0  0  0  0  0
  182.0480  171.8130  137.2850 C   0  0  0  0  0  2  0  0  0  0  0  0
  179.9830  172.3310  136.4960 C   0  0  0  0  0  2  0  0  0  0  0  0
  184.5150  171.5850  136.0350 C   0  0  0  0  0  1  0  0  0  0  0  0
  185.4120  173.3560  137.5160 C   0  0  0  0  0  1  0  0  0  0  0  0
  184.2690  172.9760  136.5970 C   0  0  0  0  0  3  0  0  0  0  0  0
  1  5  1  0  0  0  0
  2  6  2  0  0  0  0
  2  4  1  0  0  0  0
  3  5  2  0  0  0  0
  4  8  1  0  0  0  0
  4  1  2  0  0  0  0
  5 14  1  0  0  0  0
  6  3  1  0  0  0  0
  8  7  1  1  0  0  0
  8 10  1  0  0  0  0
 10  9  2  0  0  0  0
 11 10  1  0  0  0  0
 13 12  1  0  0  0  0
 13 11  1  0  0  0  0
 14 15  1  0  0  0  0
 15 20  1  0  0  0  0
 16 18  1  0  0  0  0
 16 22  1  0  0  0  0
 17 26  2  0  0  0  0
 19 22  1  0  0  0  0
 20 23  1  0  0  0  0
 21 16  2  0  0  0  0
 23 19  2  0  0  0  0
 24 20  2  0  0  0  0
 24 21  1  0  0  0  0
 25 17  1  0  0  0  0
 25 21  1  0  0  0  0
 26 27  1  0  0  0  0
 26 18  1  0  0  0  0
 27 28  1  0  0  0  0
 28 30  1  0  0  0  0
 29 28  1  0  0  0  0
 31  2  1  0  0  0  0
 32 31  1  0  0  0  0
 33 34  2  0  0  0  0
 34 32  1  0  0  0  0
 35 42  1  0  0  0  0
 37 45  1  6  0  0  0
 38 34  1  6  0  0  0
 38 39  1  0  0  0  0
 39 37  1  0  0  0  0
 40 35  1  0  0  0  0
 40 38  1  0  0  0  0
 40 39  1  0  0  0  0
 41 37  1  0  0  0  0
 41 36  1  0  0  0  0
 42 36  1  0  0  0  0
 43 45  1  0  0  0  0
 45 44  1  0  0  0  0
M  END
>  <MODEL>
6

>  <REMARK>
 VINA RESULT:      -8.0      2.505      3.816
  Name = 
  13 active torsions:
  status: ('A' for Active; 'I' for Inactive)
    1  A    between atoms: C_1  and  N_15
    2  A    between atoms: C_1  and  C_26
    3  A    between atoms: C_4  and  C_10
    4  A    between atoms: C_9  and  C_28
    5  A    between atoms: C_10  and  C_44
    6  A    between atoms: C_12  and  C_37
    7  A    between atoms: N_15  and  C_29
    8  A    between atoms: C_16  and  C_33
    9  A    between atoms: N_18  and  C_42
   10  A    between atoms: C_21  and  C_35
   11  A    between atoms: C_24  and  C_33
   12  A    between atoms: C_28  and  S_39
   13  A    between atoms: C_35  and  S_39
                            x       y       z     vdW  Elec       q    Type
                         _______ _______ _______ _____ _____    ______ ____

>  <TORSDO>
F 13

$$$$
=
 OpenBabel10232408283D

 45 49  0  0  1  0  0  0  0  0999 V2000
  186.4270  178.7940  140.2290 C   0  0  0  0  0  3  0  0  0  0  0  0
  185.9240  178.0060  137.9840 C   0  0  0  0  0  0  0  0  0  0  0  0
  184.1380  178.7020  139.4850 C   0  0  0  0  0  3  0  0  0  0  0  0
  186.8700  178.3120  138.9910 C   0  0  0  0  0  0  0  0  0  0  0  0
  185.0650  178.9730  140.4890 C   0  0  0  0  0  0  0  0  0  0  0  0
  184.5620  178.2250  138.2450 C   0  0  0  0  0  3  0  0  0  0  0  0
  188.9740  179.4850  138.8330 O   0  0  0  0  0  1  0  0  0  0  0  0
  188.3620  178.2280  138.7910 C   0  0  1  0  0  3  0  0  0  0  0  0
  188.7610  177.3770  140.9930 O   0  0  0  0  0  0  0  0  0  0  0  0
  189.0040  177.2810  139.7610 C   0  0  0  0  0  0  0  0  0  0  0  0
  189.8820  176.2520  139.3050 N   0  0  0  0  0  2  0  0  0  0  0  0
  191.6460  176.4810  137.8050 O   0  0  0  0  0  1  0  0  0  0  0  0
  190.2980  176.1380  137.9170 C   0  0  0  0  0  2  0  0  0  0  0  0
  184.6130  179.4770  141.7500 N   0  0  0  0  0  2  0  0  0  0  0  0
  184.0250  178.6430  142.7930 C   0  0  0  0  0  2  0  0  0  0  0  0
  187.6110  177.9460  145.5040 C   0  0  0  0  0  0  0  0  0  0  0  0
  189.5550  176.5060  143.9730 C   0  0  0  0  0  3  0  0  0  0  0  0
  188.9060  177.9430  145.8320 C   0  0  0  0  0  2  0  0  0  0  0  0
  185.5210  178.9330  146.2710 N   0  0  0  0  0  0  0  0  0  0  0  0
  185.0060  178.4070  143.8930 C   0  0  0  0  0  0  0  0  0  0  0  0
  187.1930  177.2210  144.2840 C   0  0  0  0  0  0  0  0  0  0  0  0
  186.7040  178.4970  146.4590 N   0  0  0  0  0  2  0  0  0  0  0  0
  184.7760  179.0240  145.0510 C   0  0  0  0  0  3  0  0  0  0  0  0
  186.0710  177.4420  143.6160 C   0  0  0  0  0  3  0  0  0  0  0  0
  188.1110  176.1730  143.7250 C   0  0  0  0  0  2  0  0  0  0  0  0
  189.9220  177.2930  144.9850 C   0  0  0  0  0  0  0  0  0  0  0  0
  191.3680  177.5410  145.2360 C   0  0  0  0  0  2  0  0  0  0  0  0
  191.9840  178.3580  144.1110 C   0  0  0  0  0  3  0  0  0  0  0  0
  191.7340  177.7400  142.8870 O   0  0  0  0  0  1  0  0  0  0  0  0
  191.4190  179.6300  144.1080 O   0  0  0  0  0  1  0  0  0  0  0  0
  186.3730  177.4760  136.6490 C   0  0  0  0  0  2  0  0  0  0  0  0
  186.6650  175.6720  136.6010 S   0  0  0  0  0  0  0  0  0  0  0  0
  184.9080  175.2560  134.6650 O   0  0  0  0  0  0  0  0  0  0  0  0
  185.0780  175.2310  135.8740 C   0  0  0  0  0  0  0  0  0  0  0  0
  181.6990  173.5300  136.8770 C   0  0  0  0  0  2  0  0  0  0  0  0
  182.4250  171.2550  137.3920 O   0  0  0  0  0  0  0  0  0  0  0  0
  184.6070  172.1210  136.7020 C   0  0  1  0  0  3  0  0  0  0  0  0
  183.9420  174.8830  136.7850 C   0  0  2  0  0  3  0  0  0  0  0  0
  184.0330  173.4340  137.2800 C   0  0  1  0  0  3  0  0  0  0  0  0
  183.0230  173.8400  136.2100 C   0  0  1  0  0  3  0  0  0  0  0  0
  183.4930  171.0590  136.4890 C   0  0  0  0  0  2  0  0  0  0  0  0
  181.4480  172.0180  136.7150 C   0  0  0  0  0  2  0  0  0  0  0  0
  185.2310  171.3760  134.3460 C   0  0  0  0  0  1  0  0  0  0  0  0
  186.9950  171.8170  136.0270 C   0  0  0  0  0  1  0  0  0  0  0  0
  185.6180  172.2250  135.5480 C   0  0  0  0  0  3  0  0  0  0  0  0
  1  5  1  0  0  0  0
  2  6  2  0  0  0  0
  2  4  1  0  0  0  0
  3  5  2  0  0  0  0
  4  1  2  0  0  0  0
  5 14  1  0  0  0  0
  6  3  1  0  0  0  0
  8  7  1  1  0  0  0
  8  4  1  0  0  0  0
  8 10  1  0  0  0  0
 10  9  2  0  0  0  0
 11 10  1  0  0  0  0
 12 13  1  0  0  0  0
 13 11  1  0  0  0  0
 14 15  1  0  0  0  0
 15 20  1  0  0  0  0
 16 18  1  0  0  0  0
 16 22  1  0  0  0  0
 17 26  2  0  0  0  0
 19 22  1  0  0  0  0
 20 23  1  0  0  0  0
 21 16  2  0  0  0  0
 23 19  2  0  0  0  0
 24 20  2  0  0  0  0
 24 21  1  0  0  0  0
 25 17  1  0  0  0  0
 25 21  1  0  0  0  0
 26 27  1  0  0  0  0
 26 18  1  0  0  0  0
 28 27  1  0  0  0  0
 29 28  1  0  0  0  0
 30 28  1  0  0  0  0
 31  2  1  0  0  0  0
 32 31  1  0  0  0  0
 33 34  2  0  0  0  0
 34 32  1  0  0  0  0
 37 45  1  6  0  0  0
 37 39  1  0  0  0  0
 38 34  1  6  0  0  0
 38 39  1  0  0  0  0
 40 38  1  0  0  0  0
 40 35  1  0  0  0  0
 40 39  1  0  0  0  0
 41 37  1  0  0  0  0
 41 36  1  0  0  0  0
 42 35  1  0  0  0  0
 42 36  1  0  0  0  0
 43 45  1  0  0  0  0
 45 44  1  0  0  0  0
M  END
>  <MODEL>
7

>  <REMARK>
 VINA RESULT:      -8.0      2.051      2.496
  Name = 
  13 active torsions:
  status: ('A' for Active; 'I' for Inactive)
    1  A    between atoms: C_1  and  N_15
    2  A    between atoms: C_1  and  C_26
    3  A    between atoms: C_4  and  C_10
    4  A    between atoms: C_9  and  C_28
    5  A    between atoms: C_10  and  C_44
    6  A    between atoms: C_12  and  C_37
    7  A    between atoms: N_15  and  C_29
    8  A    between atoms: C_16  and  C_33
    9  A    between atoms: N_18  and  C_42
   10  A    between atoms: C_21  and  C_35
   11  A    between atoms: C_24  and  C_33
   12  A    between atoms: C_28  and  S_39
   13  A    between atoms: C_35  and  S_39
                            x       y       z     vdW  Elec       q    Type
                         _______ _______ _______ _____ _____    ______ ____

>  <TORSDO>
F 13

$$$$
=
 OpenBabel10232408283D

 45 49  0  0  1  0  0  0  0  0999 V2000
  183.5940  177.9440  139.4400 C   0  0  0  0  0  3  0  0  0  0  0  0
  185.1370  177.2650  137.6880 C   0  0  0  0  0  0  0  0  0  0  0  0
  185.8550  178.7750  139.4580 C   0  0  0  0  0  3  0  0  0  0  0  0
  183.8530  177.2070  138.2780 C   0  0  0  0  0  0  0  0  0  0  0  0
  184.5820  178.7430  140.0230 C   0  0  0  0  0  0  0  0  0  0  0  0
  186.1310  178.0440  138.3030 C   0  0  0  0  0  3  0  0  0  0  0  0
  183.1030  174.9690  137.7680 O   0  0  0  0  0  1  0  0  0  0  0  0
  182.7410  176.3200  137.7780 C   0  0  1  0  0  3  0  0  0  0  0  0
  181.2510  175.8910  139.6010 O   0  0  0  0  0  0  0  0  0  0  0  0
  181.4680  176.5350  138.5410 C   0  0  0  0  0  0  0  0  0  0  0  0
  180.4950  177.4770  138.0900 N   0  0  0  0  0  2  0  0  0  0  0  0
  181.3670  179.3440  137.0100 O   0  0  0  0  0  1  0  0  0  0  0  0
  180.6170  178.1820  136.8250 C   0  0  0  0  0  2  0  0  0  0  0  0
  184.3210  179.4880  141.2170 N   0  0  0  0  0  2  0  0  0  0  0  0
  183.4210  179.0370  142.2740 C   0  0  0  0  0  2  0  0  0  0  0  0
  186.4730  178.0450  145.4980 C   0  0  0  0  0  0  0  0  0  0  0  0
  188.7690  176.9610  144.1770 C   0  0  0  0  0  3  0  0  0  0  0  0
  187.6790  178.0400  146.0720 C   0  0  0  0  0  2  0  0  0  0  0  0
  184.2090  178.8040  145.9810 N   0  0  0  0  0  0  0  0  0  0  0  0
  184.1920  178.6610  143.4960 C   0  0  0  0  0  0  0  0  0  0  0  0
  186.3450  177.5170  144.1230 C   0  0  0  0  0  0  0  0  0  0  0  0
  185.3640  178.3910  146.3290 N   0  0  0  0  0  2  0  0  0  0  0  0
  183.7030  179.0660  144.6670 C   0  0  0  0  0  3  0  0  0  0  0  0
  185.3570  177.8000  143.2890 C   0  0  0  0  0  3  0  0  0  0  0  0
  187.4260  176.6160  143.6000 C   0  0  0  0  0  2  0  0  0  0  0  0
  188.8820  177.5830  145.3510 C   0  0  0  0  0  0  0  0  0  0  0  0
  190.2330  177.8450  145.9190 C   0  0  0  0  0  2  0  0  0  0  0  0
  190.5550  176.8610  147.0330 C   0  0  0  0  0  3  0  0  0  0  0  0
  191.9110  176.9340  147.3490 O   0  0  0  0  0  1  0  0  0  0  0  0
  189.8030  177.1840  148.1590 O   0  0  0  0  0  1  0  0  0  0  0  0
  185.4380  176.4910  136.4330 C   0  0  0  0  0  2  0  0  0  0  0  0
  186.6290  175.1200  136.6470 S   0  0  0  0  0  0  0  0  0  0  0  0
  187.9470  177.1010  135.4840 O   0  0  0  0  0  0  0  0  0  0  0  0
  188.0200  175.9370  135.8460 C   0  0  0  0  0  0  0  0  0  0  0  0
  191.8560  175.3910  135.2910 C   0  0  0  0  0  2  0  0  0  0  0  0
  192.6900  175.3740  137.5870 O   0  0  0  0  0  0  0  0  0  0  0  0
  190.3430  175.8180  138.1200 C   0  0  1  0  0  3  0  0  0  0  0  0
  189.2620  175.1440  135.5790 C   0  0  2  0  0  3  0  0  0  0  0  0
  190.1140  174.9770  136.8440 C   0  0  1  0  0  3  0  0  0  0  0  0
  190.5220  175.9500  135.7410 C   0  0  1  0  0  3  0  0  0  0  0  0
  191.8230  176.2780  138.2380 C   0  0  0  0  0  2  0  0  0  0  0  0
  192.9200  175.8850  136.2900 C   0  0  0  0  0  2  0  0  0  0  0  0
  189.7340  178.2890  138.0020 C   0  0  0  0  0  1  0  0  0  0  0  0
  189.0570  176.9260  139.9550 C   0  0  0  0  0  1  0  0  0  0  0  0
  189.3090  176.9030  138.4620 C   0  0  0  0  0  3  0  0  0  0  0  0
  1  5  1  0  0  0  0
  2  4  1  0  0  0  0
  2  6  2  0  0  0  0
  3  5  2  0  0  0  0
  4  1  2  0  0  0  0
  5 14  1  0  0  0  0
  6  3  1  0  0  0  0
  8  7  1  1  0  0  0
  8  4  1  0  0  0  0
  8 10  1  0  0  0  0
 10  9  2  0  0  0  0
 11 10  1  0  0  0  0
 13 12  1  0  0  0  0
 13 11  1  0  0  0  0
 14 15  1  0  0  0  0
 15 20  1  0  0  0  0
 16 18  1  0  0  0  0
 16 22  1  0  0  0  0
 17 26  2  0  0  0  0
 19 22  1  0  0  0  0
 20 23  1  0  0  0  0
 21 16  2  0  0  0  0
 23 19  2  0  0  0  0
 24 20  2  0  0  0  0
 24 21  1  0  0  0  0
 25 21  1  0  0  0  0
 25 17  1  0  0  0  0
 26 27  1  0  0  0  0
 26 18  1  0  0  0  0
 27 28  1  0  0  0  0
 28 29  1  0  0  0  0
 28 30  1  0  0  0  0
 31 32  1  0  0  0  0
 31  2  1  0  0  0  0
 33 34  2  0  0  0  0
 34 32  1  0  0  0  0
 35 40  1  0  0  0  0
 35 42  1  0  0  0  0
 36 41  1  0  0  0  0
 37 41  1  0  0  0  0
 37 45  1  6  0  0  0
 38 40  1  0  0  0  0
 38 34  1  1  0  0  0
 38 39  1  0  0  0  0
 39 37  1  0  0  0  0
 40 39  1  0  0  0  0
 42 36  1  0  0  0  0
 43 45  1  0  0  0  0
 45 44  1  0  0  0  0
M  END
>  <MODEL>
8

>  <REMARK>
 VINA RESULT:      -7.8      3.232      5.584
  Name = 
  13 active torsions:
  status: ('A' for Active; 'I' for Inactive)
    1  A    between atoms: C_1  and  N_15
    2  A    between atoms: C_1  and  C_26
    3  A    between atoms: C_4  and  C_10
    4  A    between atoms: C_9  and  C_28
    5  A    between atoms: C_10  and  C_44
    6  A    between atoms: C_12  and  C_37
    7  A    between atoms: N_15  and  C_29
    8  A    between atoms: C_16  and  C_33
    9  A    between atoms: N_18  and  C_42
   10  A    between atoms: C_21  and  C_35
   11  A    between atoms: C_24  and  C_33
   12  A    between atoms: C_28  and  S_39
   13  A    between atoms: C_35  and  S_39
                            x       y       z     vdW  Elec       q    Type
                         _______ _______ _______ _____ _____    ______ ____

>  <TORSDO>
F 13

$$$$
=
 OpenBabel10232408283D

 45 49  0  0  1  0  0  0  0  0999 V2000
  189.2800  176.4350  137.9120 C   0  0  0  0  0  3  0  0  0  0  0  0
  187.3140  177.8110  137.5190 C   0  0  0  0  0  0  0  0  0  0  0  0
  189.0510  178.5390  139.0610 C   0  0  0  0  0  3  0  0  0  0  0  0
  188.0600  176.6370  137.2560 C   0  0  0  0  0  0  0  0  0  0  0  0
  189.7720  177.3690  138.8270 C   0  0  0  0  0  0  0  0  0  0  0  0
  187.8360  178.7590  138.4150 C   0  0  0  0  0  3  0  0  0  0  0  0
  188.3410  175.7660  135.0220 O   0  0  0  0  0  1  0  0  0  0  0  0
  187.6600  175.6040  136.2330 C   0  0  1  0  0  3  0  0  0  0  0  0
  188.9630  173.7210  136.9320 O   0  0  0  0  0  0  0  0  0  0  0  0
  187.8140  174.2080  136.7590 C   0  0  0  0  0  0  0  0  0  0  0  0
  186.6690  173.4200  137.0850 N   0  0  0  0  0  2  0  0  0  0  0  0
  184.5350  173.7040  137.9650 O   0  0  0  0  0  1  0  0  0  0  0  0
  185.3120  173.8640  136.8180 C   0  0  0  0  0  2  0  0  0  0  0  0
  191.0250  177.1680  139.4880 N   0  0  0  0  0  2  0  0  0  0  0  0
  191.1910  176.3330  140.6740 C   0  0  0  0  0  2  0  0  0  0  0  0
  189.2360  178.0080  144.4250 C   0  0  0  0  0  0  0  0  0  0  0  0
  186.4180  177.5750  144.1680 C   0  0  0  0  0  3  0  0  0  0  0  0
  188.4260  177.9890  145.4870 C   0  0  0  0  0  2  0  0  0  0  0  0
  191.6070  178.2540  143.9230 N   0  0  0  0  0  0  0  0  0  0  0  0
  190.7670  177.0710  141.9010 C   0  0  0  0  0  0  0  0  0  0  0  0
  188.6530  177.7470  143.0910 C   0  0  0  0  0  0  0  0  0  0  0  0
  190.5730  178.4610  144.6400 N   0  0  0  0  0  2  0  0  0  0  0  0
  191.7310  177.4890  142.7190 C   0  0  0  0  0  3  0  0  0  0  0  0
  189.3350  177.3450  142.0290 C   0  0  0  0  0  3  0  0  0  0  0  0
  187.1710  177.9110  142.9130 C   0  0  0  0  0  2  0  0  0  0  0  0
  186.9940  177.6580  145.3690 C   0  0  0  0  0  0  0  0  0  0  0  0
  186.1920  177.3830  146.5910 C   0  0  0  0  0  2  0  0  0  0  0  0
  185.3560  178.5930  146.9780 C   0  0  0  0  0  3  0  0  0  0  0  0
  185.9790  179.7580  146.5330 O   0  0  0  0  0  1  0  0  0  0  0  0
  184.1000  178.4880  146.3870 O   0  0  0  0  0  1  0  0  0  0  0  0
  185.9940  178.0480  136.8370 C   0  0  0  0  0  2  0  0  0  0  0  0
  184.5470  177.3360  137.6990 S   0  0  0  0  0  0  0  0  0  0  0  0
  184.7130  179.7110  138.8560 O   0  0  0  0  0  0  0  0  0  0  0  0
  184.5170  178.5230  139.0530 C   0  0  0  0  0  0  0  0  0  0  0  0
  183.4250  178.7560  142.8040 C   0  0  0  0  0  2  0  0  0  0  0  0
  181.0070  178.4610  142.6340 O   0  0  0  0  0  0  0  0  0  0  0  0
  181.4910  178.3900  140.2360 C   0  0  1  0  0  3  0  0  0  0  0  0
  184.3010  178.0180  140.4460 C   0  0  2  0  0  3  0  0  0  0  0  0
  182.8150  177.7700  140.7370 C   0  0  1  0  0  3  0  0  0  0  0  0
  183.5390  178.9850  141.3110 C   0  0  1  0  0  3  0  0  0  0  0  0
  180.7070  179.0670  141.3950 C   0  0  0  0  0  2  0  0  0  0  0  0
  182.0250  179.2330  143.2360 C   0  0  0  0  0  2  0  0  0  0  0  0
  180.9840  180.6110  139.0960 C   0  0  0  0  0  1  0  0  0  0  0  0
  180.7310  178.4820  137.8560 C   0  0  0  0  0  1  0  0  0  0  0  0
  181.5240  179.1990  138.9290 C   0  0  0  0  0  3  0  0  0  0  0  0
  1  5  1  0  0  0  0
  2  6  2  0  0  0  0
  4  2  1  0  0  0  0
  4  1  2  0  0  0  0
  5  3  2  0  0  0  0
  5 14  1  0  0  0  0
  6  3  1  0  0  0  0
  8  7  1  6  0  0  0
  8 10  1  0  0  0  0
  8  4  1  0  0  0  0
 10  9  2  0  0  0  0
 10 11  1  0  0  0  0
 13 11  1  0  0  0  0
 13 12  1  0  0  0  0
 14 15  1  0  0  0  0
 15 20  1  0  0  0  0
 16 22  1  0  0  0  0
 16 18  1  0  0  0  0
 17 26  2  0  0  0  0
 19 22  1  0  0  0  0
 20 24  2  0  0  0  0
 20 23  1  0  0  0  0
 21 16  2  0  0  0  0
 23 19  2  0  0  0  0
 24 21  1  0  0  0  0
 25 21  1  0  0  0  0
 25 17  1  0  0  0  0
 26 18  1  0  0  0  0
 26 27  1  0  0  0  0
 27 28  1  0  0  0  0
 29 28  1  0  0  0  0
 30 28  1  0  0  0  0
 31  2  1  0  0  0  0
 31 32  1  0  0  0  0
 32 34  1  0  0  0  0
 33 34  2  0  0  0  0
 35 42  1  0  0  0  0
 36 42  1  0  0  0  0
 37 45  1  6  0  0  0
 37 39  1  0  0  0  0
 37 41  1  0  0  0  0
 38 34  1  6  0  0  0
 38 39  1  0  0  0  0
 38 40  1  0  0  0  0
 39 40  1  0  0  0  0
 40 35  1  0  0  0  0
 41 36  1  0  0  0  0
 44 45  1  0  0  0  0
 45 43  1  0  0  0  0
M  END
>  <MODEL>
9

>  <REMARK>
 VINA RESULT:      -7.8      3.351      6.570
  Name = 
  13 active torsions:
  status: ('A' for Active; 'I' for Inactive)
    1  A    between atoms: C_1  and  N_15
    2  A    between atoms: C_1  and  C_26
    3  A    between atoms: C_4  and  C_10
    4  A    between atoms: C_9  and  C_28
    5  A    between atoms: C_10  and  C_44
    6  A    between atoms: C_12  and  C_37
    7  A    between atoms: N_15  and  C_29
    8  A    between atoms: C_16  and  C_33
    9  A    between atoms: N_18  and  C_42
   10  A    between atoms: C_21  and  C_35
   11  A    between atoms: C_24  and  C_33
   12  A    between atoms: C_28  and  S_39
   13  A    between atoms: C_35  and  S_39
                            x       y       z     vdW  Elec       q    Type
                         _______ _______ _______ _____ _____    ______ ____

>  <TORSDO>
F 13

$$$$
