=
 OpenBabel10232409183D

 30 34  0  0  1  0  0  0  0  0999 V2000
  182.2060  179.1990  142.2050 C   0  0  0  0  0  2  0  0  0  0  0  0
  185.6020  178.2170  141.9380 C   0  0  1  0  0  3  0  0  0  0  0  0
  180.9920  178.3900  144.0760 O   0  0  0  0  0  0  0  0  0  0  0  0
  183.2520  178.3920  141.4390 C   0  0  0  0  0  2  0  0  0  0  0  0
  184.9470  179.0090  143.0180 N   0  0  0  0  0  0  0  0  0  0  0  0
  183.2000  178.9620  144.6450 C   0  0  0  0  0  3  0  0  0  0  0  0
  184.5940  179.0810  141.5780 C   0  0  1  0  0  3  0  0  0  0  0  0
  182.1030  178.8110  143.6590 C   0  0  0  0  0  0  0  0  0  0  0  0
  184.5010  179.1040  144.3640 C   0  0  0  0  0  0  0  0  0  0  0  0
  185.9510  177.7270  145.8190 C   0  0  2  0  0  3  0  0  0  0  0  0
  185.5000  179.1410  145.4750 C   0  0  2  0  0  3  0  0  0  0  0  0
  184.9520  178.4450  146.7040 C   0  0  0  0  0  2  0  0  0  0  0  0
  189.6950  177.3120  146.3820 C   0  0  0  0  0  0  0  0  0  0  0  0
  188.4480  177.3420  145.7540 C   0  0  0  0  0  3  0  0  0  0  0  0
  187.4160  178.0550  147.8250 C   0  0  0  0  0  3  0  0  0  0  0  0
  189.8040  177.6520  147.7380 C   0  0  0  0  0  0  0  0  0  0  0  0
  191.1230  177.6290  148.4240 C   0  0  0  0  0  1  0  0  0  0  0  0
  187.3030  177.7300  146.4670 C   0  0  0  0  0  0  0  0  0  0  0  0
  190.7920  176.9530  145.6680 F   0  0  0  0  0  0  0  0  0  0  0  0
  188.6620  178.0200  148.4580 C   0  0  0  0  0  3  0  0  0  0  0  0
  186.8930  178.8130  141.6280 N   0  0  0  0  0  2  0  0  0  0  0  0
  189.6790  177.3200  139.5780 C   0  0  0  0  0  0  0  0  0  0  0  0
  190.1970  177.2840  138.1830 C   0  0  0  0  0  1  0  0  0  0  0  0
  187.9210  178.7870  138.9250 F   0  0  0  0  0  0  0  0  0  0  0  0
  189.8670  176.6010  141.8800 C   0  0  0  0  0  0  0  0  0  0  0  0
  188.5410  178.0740  139.9010 C   0  0  0  0  0  0  0  0  0  0  0  0
  188.7350  177.3460  142.2080 C   0  0  0  0  0  3  0  0  0  0  0  0
  190.5720  175.8210  142.9300 C   0  0  0  0  0  1  0  0  0  0  0  0
  190.3370  176.5850  140.5670 C   0  0  0  0  0  3  0  0  0  0  0  0
  188.0590  178.0810  141.2300 C   0  0  0  0  0  0  0  0  0  0  0  0
  1  8  1  0  0  0  0
  2 21  1  6  0  0  0
  2  5  1  0  0  0  0
  4  1  1  0  0  0  0
  5  9  1  0  0  0  0
  7  4  1  1  0  0  0
  7  2  1  0  0  0  0
  7  5  1  0  0  0  0
  8  3  2  0  0  0  0
  8  6  1  0  0  0  0
  9  6  2  0  0  0  0
 10 18  1  1  0  0  0
 10 12  1  0  0  0  0
 11  9  1  6  0  0  0
 11 10  1  0  0  0  0
 11 12  1  0  0  0  0
 13 16  1  0  0  0  0
 14 13  2  0  0  0  0
 14 18  1  0  0  0  0
 15 20  1  0  0  0  0
 16 17  1  0  0  0  0
 16 20  2  0  0  0  0
 18 15  2  0  0  0  0
 19 13  1  0  0  0  0
 22 26  2  0  0  0  0
 22 29  1  0  0  0  0
 23 22  1  0  0  0  0
 24 26  1  0  0  0  0
 25 27  1  0  0  0  0
 25 28  1  0  0  0  0
 26 30  1  0  0  0  0
 29 25  2  0  0  0  0
 30 21  1  0  0  0  0
 30 27  2  0  0  0  0
M  END
>  <MODEL>
1

>  <REMARK>
 VINA RESULT:     -10.5      0.000      0.000
  Name = 
  4 active torsions:
  status: ('A' for Active; 'I' for Inactive)
    1  A    between atoms: C_3  and  N_23
    2  A    between atoms: C_13  and  C_16
    3  A    between atoms: C_22  and  C_24
    4  A    between atoms: N_23  and  C_30
                            x       y       z     vdW  Elec       q    Type
                         _______ _______ _______ _____ _____    ______ ____

>  <TORSDO>
F 4

$$$$
=
 OpenBabel10232409183D

 30 34  0  0  1  0  0  0  0  0999 V2000
  190.4840  176.9890  146.5920 C   0  0  0  0  0  2  0  0  0  0  0  0
  189.1340  177.7280  143.3970 C   0  0  1  0  0  3  0  0  0  0  0  0
  189.5970  178.1820  148.4410 O   0  0  0  0  0  0  0  0  0  0  0  0
  190.7180  177.5900  145.2070 C   0  0  0  0  0  2  0  0  0  0  0  0
  188.4370  177.1770  144.5950 N   0  0  0  0  0  0  0  0  0  0  0  0
  187.9280  177.6040  146.8890 C   0  0  0  0  0  3  0  0  0  0  0  0
  189.8370  176.8670  144.2090 C   0  0  1  0  0  3  0  0  0  0  0  0
  189.3420  177.6350  147.3360 C   0  0  0  0  0  0  0  0  0  0  0  0
  187.4980  177.3460  145.6480 C   0  0  0  0  0  0  0  0  0  0  0  0
  185.7510  178.7900  144.6560 C   0  0  2  0  0  3  0  0  0  0  0  0
  186.0410  177.4550  145.3310 C   0  0  2  0  0  3  0  0  0  0  0  0
  185.4110  178.5850  146.1190 C   0  0  0  0  0  2  0  0  0  0  0  0
  183.3960  178.3430  141.6980 C   0  0  0  0  0  0  0  0  0  0  0  0
  184.5600  178.3650  142.4700 C   0  0  0  0  0  3  0  0  0  0  0  0
  183.2780  179.0870  144.3930 C   0  0  0  0  0  3  0  0  0  0  0  0
  182.1670  178.6970  142.2750 C   0  0  0  0  0  0  0  0  0  0  0  0
  180.9160  178.6770  141.4710 C   0  0  0  0  0  1  0  0  0  0  0  0
  184.5060  178.7210  143.8260 C   0  0  0  0  0  0  0  0  0  0  0  0
  183.4680  177.9770  140.3930 F   0  0  0  0  0  0  0  0  0  0  0  0
  182.1120  179.0720  143.6210 C   0  0  0  0  0  3  0  0  0  0  0  0
  188.6740  177.0190  142.2130 N   0  0  0  0  0  2  0  0  0  0  0  0
  188.8890  178.0770  138.6030 C   0  0  0  0  0  0  0  0  0  0  0  0
  188.0810  178.7360  137.5410 C   0  0  0  0  0  1  0  0  0  0  0  0
  187.1150  178.3430  140.1680 F   0  0  0  0  0  0  0  0  0  0  0  0
  190.9520  177.0080  139.2780 C   0  0  0  0  0  0  0  0  0  0  0  0
  188.3670  177.8950  139.8930 C   0  0  0  0  0  0  0  0  0  0  0  0
  190.4390  176.8220  140.5610 C   0  0  0  0  0  3  0  0  0  0  0  0
  192.3230  176.5390  138.9520 C   0  0  0  0  0  1  0  0  0  0  0  0
  190.1780  177.6310  138.3000 C   0  0  0  0  0  3  0  0  0  0  0  0
  189.1480  177.2540  140.8820 C   0  0  0  0  0  0  0  0  0  0  0  0
  1  8  1  0  0  0  0
  2 21  1  6  0  0  0
  2  7  1  0  0  0  0
  2  5  1  0  0  0  0
  4  1  1  0  0  0  0
  5  9  1  0  0  0  0
  6  8  1  0  0  0  0
  7  5  1  0  0  0  0
  7  4  1  1  0  0  0
  8  3  2  0  0  0  0
  9  6  2  0  0  0  0
 10 18  1  6  0  0  0
 10 11  1  0  0  0  0
 10 12  1  0  0  0  0
 11  9  1  1  0  0  0
 11 12  1  0  0  0  0
 13 16  2  0  0  0  0
 13 14  1  0  0  0  0
 14 18  2  0  0  0  0
 16 20  1  0  0  0  0
 17 16  1  0  0  0  0
 18 15  1  0  0  0  0
 19 13  1  0  0  0  0
 20 15  2  0  0  0  0
 22 26  1  0  0  0  0
 23 22  1  0  0  0  0
 25 27  2  0  0  0  0
 26 24  1  0  0  0  0
 26 30  2  0  0  0  0
 27 30  1  0  0  0  0
 28 25  1  0  0  0  0
 29 22  2  0  0  0  0
 29 25  1  0  0  0  0
 30 21  1  0  0  0  0
M  END
>  <MODEL>
2

>  <REMARK>
 VINA RESULT:     -10.4      2.531      5.869
  Name = 
  4 active torsions:
  status: ('A' for Active; 'I' for Inactive)
    1  A    between atoms: C_3  and  N_23
    2  A    between atoms: C_13  and  C_16
    3  A    between atoms: C_22  and  C_24
    4  A    between atoms: N_23  and  C_30
                            x       y       z     vdW  Elec       q    Type
                         _______ _______ _______ _____ _____    ______ ____

>  <TORSDO>
F 4

$$$$
=
 OpenBabel10232409183D

 30 34  0  0  1  0  0  0  0  0999 V2000
  182.2990  179.1740  142.1860 C   0  0  0  0  0  2  0  0  0  0  0  0
  185.7260  178.3180  141.8770 C   0  0  1  0  0  3  0  0  0  0  0  0
  181.1270  178.2830  144.0470 O   0  0  0  0  0  0  0  0  0  0  0  0
  183.3670  178.4200  141.3960 C   0  0  0  0  0  2  0  0  0  0  0  0
  185.0500  179.0630  142.9780 N   0  0  0  0  0  0  0  0  0  0  0  0
  183.3170  178.9210  144.6140 C   0  0  0  0  0  3  0  0  0  0  0  0
  184.6850  179.1530  141.5410 C   0  0  1  0  0  3  0  0  0  0  0  0
  182.2190  178.7510  143.6320 C   0  0  0  0  0  0  0  0  0  0  0  0
  184.6100  179.1140  144.3280 C   0  0  0  0  0  0  0  0  0  0  0  0
  186.0110  177.7490  145.8430 C   0  0  2  0  0  3  0  0  0  0  0  0
  185.6150  179.1630  145.4340 C   0  0  2  0  0  3  0  0  0  0  0  0
  185.0450  178.5480  146.6950 C   0  0  0  0  0  2  0  0  0  0  0  0
  189.7440  177.2400  146.4030 C   0  0  0  0  0  0  0  0  0  0  0  0
  188.4950  177.2910  145.7790 C   0  0  0  0  0  3  0  0  0  0  0  0
  187.4920  178.0820  147.8360 C   0  0  0  0  0  3  0  0  0  0  0  0
  189.8670  177.6090  147.7510 C   0  0  0  0  0  0  0  0  0  0  0  0
  191.1880  177.5640  148.4330 C   0  0  0  0  0  1  0  0  0  0  0  0
  187.3640  177.7290  146.4860 C   0  0  0  0  0  0  0  0  0  0  0  0
  190.8270  176.8320  145.6950 F   0  0  0  0  0  0  0  0  0  0  0  0
  188.7390  178.0260  148.4650 C   0  0  0  0  0  3  0  0  0  0  0  0
  186.9920  178.9650  141.5720 N   0  0  0  0  0  2  0  0  0  0  0  0
  190.4180  177.4000  141.4520 C   0  0  0  0  0  0  0  0  0  0  0  0
  191.6090  177.1570  142.3120 C   0  0  0  0  0  1  0  0  0  0  0  0
  189.2840  178.4540  143.2620 F   0  0  0  0  0  0  0  0  0  0  0  0
  189.3360  177.1940  139.2980 C   0  0  0  0  0  0  0  0  0  0  0  0
  189.2870  178.0550  141.9630 C   0  0  0  0  0  0  0  0  0  0  0  0
  188.2100  177.8460  139.7990 C   0  0  0  0  0  3  0  0  0  0  0  0
  189.3620  176.7350  137.8860 C   0  0  0  0  0  1  0  0  0  0  0  0
  190.4390  176.9730  140.1230 C   0  0  0  0  0  3  0  0  0  0  0  0
  188.1720  178.2870  141.1240 C   0  0  0  0  0  0  0  0  0  0  0  0
  1  8  1  0  0  0  0
  2 21  1  6  0  0  0
  2  5  1  0  0  0  0
  4  1  1  0  0  0  0
  5  9  1  0  0  0  0
  7  4  1  1  0  0  0
  7  2  1  0  0  0  0
  7  5  1  0  0  0  0
  8  3  2  0  0  0  0
  8  6  1  0  0  0  0
  9  6  2  0  0  0  0
 10 18  1  1  0  0  0
 10 12  1  0  0  0  0
 11  9  1  6  0  0  0
 11 10  1  0  0  0  0
 11 12  1  0  0  0  0
 13 16  1  0  0  0  0
 14 13  2  0  0  0  0
 14 18  1  0  0  0  0
 15 20  1  0  0  0  0
 16 17  1  0  0  0  0
 16 20  2  0  0  0  0
 18 15  2  0  0  0  0
 19 13  1  0  0  0  0
 22 26  1  0  0  0  0
 22 23  1  0  0  0  0
 25 27  2  0  0  0  0
 25 29  1  0  0  0  0
 26 24  1  0  0  0  0
 27 30  1  0  0  0  0
 28 25  1  0  0  0  0
 29 22  2  0  0  0  0
 30 21  1  0  0  0  0
 30 26  2  0  0  0  0
M  END
>  <MODEL>
3

>  <REMARK>
 VINA RESULT:     -10.3      0.970      1.740
  Name = 
  4 active torsions:
  status: ('A' for Active; 'I' for Inactive)
    1  A    between atoms: C_3  and  N_23
    2  A    between atoms: C_13  and  C_16
    3  A    between atoms: C_22  and  C_24
    4  A    between atoms: N_23  and  C_30
                            x       y       z     vdW  Elec       q    Type
                         _______ _______ _______ _____ _____    ______ ____

>  <TORSDO>
F 4

$$$$
=
 OpenBabel10232409183D

 30 34  0  0  1  0  0  0  0  0999 V2000
  190.3350  177.0150  147.1580 C   0  0  0  0  0  2  0  0  0  0  0  0
  189.1820  177.7640  143.8890 C   0  0  1  0  0  3  0  0  0  0  0  0
  189.3400  178.2060  148.9530 O   0  0  0  0  0  0  0  0  0  0  0  0
  190.6530  177.6190  145.7910 C   0  0  0  0  0  2  0  0  0  0  0  0
  188.4130  177.2120  145.0410 N   0  0  0  0  0  0  0  0  0  0  0  0
  187.7670  177.6360  147.3010 C   0  0  0  0  0  3  0  0  0  0  0  0
  189.8330  176.9000  144.7400 C   0  0  1  0  0  3  0  0  0  0  0  0
  189.1510  177.6630  147.8320 C   0  0  0  0  0  0  0  0  0  0  0  0
  187.4120  177.3820  146.0350 C   0  0  0  0  0  0  0  0  0  0  0  0
  185.7410  178.8140  144.9060 C   0  0  2  0  0  3  0  0  0  0  0  0
  185.9770  177.4950  145.6310 C   0  0  2  0  0  3  0  0  0  0  0  0
  185.3130  178.6510  146.3510 C   0  0  0  0  0  2  0  0  0  0  0  0
  183.5630  178.3600  141.8160 C   0  0  0  0  0  0  0  0  0  0  0  0
  184.6810  178.3930  142.6520 C   0  0  0  0  0  3  0  0  0  0  0  0
  183.2820  179.0760  144.5060 C   0  0  0  0  0  3  0  0  0  0  0  0
  182.2980  178.6900  142.3260 C   0  0  0  0  0  0  0  0  0  0  0  0
  181.0950  178.6580  141.4520 C   0  0  0  0  0  1  0  0  0  0  0  0
  184.5450  178.7340  144.0070 C   0  0  0  0  0  0  0  0  0  0  0  0
  183.7140  178.0080  140.5140 F   0  0  0  0  0  0  0  0  0  0  0  0
  182.1620  179.0500  143.6700 C   0  0  0  0  0  3  0  0  0  0  0  0
  188.7930  177.0590  142.6770 N   0  0  0  0  0  2  0  0  0  0  0  0
  191.3180  177.3020  139.8900 C   0  0  0  0  0  0  0  0  0  0  0  0
  192.7770  177.1600  139.6370 C   0  0  0  0  0  1  0  0  0  0  0  0
  191.6250  176.7360  142.1820 F   0  0  0  0  0  0  0  0  0  0  0  0
  189.1040  177.8000  139.0500 C   0  0  0  0  0  0  0  0  0  0  0  0
  190.7880  177.0890  141.1720 C   0  0  0  0  0  0  0  0  0  0  0  0
  188.5720  177.5910  140.3210 C   0  0  0  0  0  3  0  0  0  0  0  0
  188.2110  178.1740  137.9230 C   0  0  0  0  0  1  0  0  0  0  0  0
  190.4750  177.6580  138.8350 C   0  0  0  0  0  3  0  0  0  0  0  0
  189.4000  177.2420  141.3920 C   0  0  0  0  0  0  0  0  0  0  0  0
  1  8  1  0  0  0  0
  2 21  1  6  0  0  0
  2  7  1  0  0  0  0
  2  5  1  0  0  0  0
  4  1  1  0  0  0  0
  5  9  1  0  0  0  0
  6  8  1  0  0  0  0
  7  5  1  0  0  0  0
  7  4  1  1  0  0  0
  8  3  2  0  0  0  0
  9  6  2  0  0  0  0
 10 18  1  6  0  0  0
 10 11  1  0  0  0  0
 10 12  1  0  0  0  0
 11  9  1  1  0  0  0
 11 12  1  0  0  0  0
 13 16  2  0  0  0  0
 13 14  1  0  0  0  0
 14 18  2  0  0  0  0
 16 20  1  0  0  0  0
 17 16  1  0  0  0  0
 18 15  1  0  0  0  0
 19 13  1  0  0  0  0
 20 15  2  0  0  0  0
 22 26  1  0  0  0  0
 23 22  1  0  0  0  0
 25 27  2  0  0  0  0
 26 30  2  0  0  0  0
 26 24  1  0  0  0  0
 27 30  1  0  0  0  0
 28 25  1  0  0  0  0
 29 25  1  0  0  0  0
 29 22  2  0  0  0  0
 30 21  1  0  0  0  0
M  END
>  <MODEL>
4

>  <REMARK>
 VINA RESULT:     -10.2      2.472      6.001
  Name = 
  4 active torsions:
  status: ('A' for Active; 'I' for Inactive)
    1  A    between atoms: C_3  and  N_23
    2  A    between atoms: C_13  and  C_16
    3  A    between atoms: C_22  and  C_24
    4  A    between atoms: N_23  and  C_30
                            x       y       z     vdW  Elec       q    Type
                         _______ _______ _______ _____ _____    ______ ____

>  <TORSDO>
F 4

$$$$
=
 OpenBabel10232409183D

 30 34  0  0  1  0  0  0  0  0999 V2000
  189.5110  177.0860  148.0770 C   0  0  0  0  0  2  0  0  0  0  0  0
  187.0650  177.7650  145.6010 C   0  0  1  0  0  3  0  0  0  0  0  0
  191.2860  175.6320  147.4710 O   0  0  0  0  0  0  0  0  0  0  0  0
  188.0620  176.9170  147.6240 C   0  0  0  0  0  2  0  0  0  0  0  0
  188.5250  178.0640  145.5700 N   0  0  0  0  0  0  0  0  0  0  0  0
  190.6940  177.0730  145.7100 C   0  0  0  0  0  3  0  0  0  0  0  0
  187.6730  178.1170  146.7840 C   0  0  1  0  0  3  0  0  0  0  0  0
  190.5110  176.5470  147.0850 C   0  0  0  0  0  0  0  0  0  0  0  0
  189.8120  177.8100  145.0240 C   0  0  0  0  0  0  0  0  0  0  0  0
  190.0650  176.9350  142.7240 C   0  0  2  0  0  3  0  0  0  0  0  0
  190.1000  178.1790  143.6040 C   0  0  2  0  0  3  0  0  0  0  0  0
  191.3920  177.5360  143.1420 C   0  0  0  0  0  2  0  0  0  0  0  0
  190.3900  177.3020  138.9480 C   0  0  0  0  0  0  0  0  0  0  0  0
  190.6580  176.9350  140.2680 C   0  0  0  0  0  3  0  0  0  0  0  0
  188.6290  178.0380  140.9930 C   0  0  0  0  0  3  0  0  0  0  0  0
  189.2380  178.0440  138.6480 C   0  0  0  0  0  0  0  0  0  0  0  0
  188.9330  178.4440  137.2480 C   0  0  0  0  0  1  0  0  0  0  0  0
  189.7700  177.2860  141.2970 C   0  0  0  0  0  0  0  0  0  0  0  0
  191.2520  176.9360  137.9660 F   0  0  0  0  0  0  0  0  0  0  0  0
  188.3610  178.4130  139.6740 C   0  0  0  0  0  3  0  0  0  0  0  0
  186.3350  178.9050  145.0670 N   0  0  0  0  0  2  0  0  0  0  0  0
  182.8420  178.7540  143.6620 C   0  0  0  0  0  0  0  0  0  0  0  0
  181.4190  178.7870  144.0960 C   0  0  0  0  0  1  0  0  0  0  0  0
  183.5710  179.0160  145.9130 F   0  0  0  0  0  0  0  0  0  0  0  0
  184.4630  178.5690  141.8750 C   0  0  0  0  0  0  0  0  0  0  0  0
  183.8810  178.8640  144.5990 C   0  0  0  0  0  0  0  0  0  0  0  0
  185.5000  178.6760  142.8010 C   0  0  0  0  0  3  0  0  0  0  0  0
  184.7710  178.4150  140.4300 C   0  0  0  0  0  1  0  0  0  0  0  0
  183.1370  178.6060  142.3040 C   0  0  0  0  0  3  0  0  0  0  0  0
  185.2250  178.8170  144.1650 C   0  0  0  0  0  0  0  0  0  0  0  0
  2 21  1  6  0  0  0
  2  7  1  0  0  0  0
  4  1  1  0  0  0  0
  5  2  1  0  0  0  0
  5  7  1  0  0  0  0
  6  8  1  0  0  0  0
  7  4  1  1  0  0  0
  8  3  2  0  0  0  0
  8  1  1  0  0  0  0
  9  5  1  0  0  0  0
  9  6  2  0  0  0  0
 10 18  1  6  0  0  0
 10 12  1  0  0  0  0
 10 11  1  0  0  0  0
 11  9  1  1  0  0  0
 12 11  1  0  0  0  0
 13 14  1  0  0  0  0
 14 18  2  0  0  0  0
 15 18  1  0  0  0  0
 16 13  2  0  0  0  0
 16 20  1  0  0  0  0
 17 16  1  0  0  0  0
 19 13  1  0  0  0  0
 20 15  2  0  0  0  0
 22 23  1  0  0  0  0
 22 26  1  0  0  0  0
 25 29  1  0  0  0  0
 25 27  2  0  0  0  0
 26 24  1  0  0  0  0
 27 30  1  0  0  0  0
 28 25  1  0  0  0  0
 29 22  2  0  0  0  0
 30 26  2  0  0  0  0
 30 21  1  0  0  0  0
M  END
>  <MODEL>
5

>  <REMARK>
 VINA RESULT:      -9.7      2.908      7.385
  Name = 
  4 active torsions:
  status: ('A' for Active; 'I' for Inactive)
    1  A    between atoms: C_3  and  N_23
    2  A    between atoms: C_13  and  C_16
    3  A    between atoms: C_22  and  C_24
    4  A    between atoms: N_23  and  C_30
                            x       y       z     vdW  Elec       q    Type
                         _______ _______ _______ _____ _____    ______ ____

>  <TORSDO>
F 4

$$$$
=
 OpenBabel10232409183D

 30 34  0  0  1  0  0  0  0  0999 V2000
  182.7610  178.5980  138.9790 C   0  0  0  0  0  2  0  0  0  0  0  0
  186.1310  178.0870  139.9550 C   0  0  1  0  0  3  0  0  0  0  0  0
  181.0780  177.8210  140.4600 O   0  0  0  0  0  0  0  0  0  0  0  0
  184.0790  177.8740  138.7110 C   0  0  0  0  0  2  0  0  0  0  0  0
  185.0760  178.8840  140.6430 N   0  0  0  0  0  0  0  0  0  0  0  0
  182.8980  178.7570  141.6160 C   0  0  0  0  0  3  0  0  0  0  0  0
  185.2200  178.7570  139.1710 C   0  0  1  0  0  3  0  0  0  0  0  0
  182.2170  178.3500  140.3630 C   0  0  0  0  0  0  0  0  0  0  0  0
  184.1970  179.0520  141.7480 C   0  0  0  0  0  0  0  0  0  0  0  0
  184.6280  178.1180  143.9970 C   0  0  2  0  0  3  0  0  0  0  0  0
  184.7580  179.3450  143.1020 C   0  0  2  0  0  3  0  0  0  0  0  0
  183.6670  179.2800  144.1510 C   0  0  0  0  0  2  0  0  0  0  0  0
  187.7610  177.4260  146.0490 C   0  0  0  0  0  0  0  0  0  0  0  0
  186.8440  177.4260  144.9960 C   0  0  0  0  0  3  0  0  0  0  0  0
  185.3520  178.8290  146.2880 C   0  0  0  0  0  3  0  0  0  0  0  0
  187.4720  178.1280  147.2290 C   0  0  0  0  0  0  0  0  0  0  0  0
  188.4370  178.1410  148.3610 C   0  0  0  0  0  1  0  0  0  0  0  0
  185.6410  178.1420  145.1020 C   0  0  0  0  0  0  0  0  0  0  0  0
  188.9270  176.7430  145.9180 F   0  0  0  0  0  0  0  0  0  0  0  0
  186.2650  178.8250  147.3460 C   0  0  0  0  0  3  0  0  0  0  0  0
  187.3840  178.8250  139.9920 N   0  0  0  0  0  2  0  0  0  0  0  0
  190.7650  177.1780  139.7490 C   0  0  0  0  0  0  0  0  0  0  0  0
  191.7010  176.6040  138.7450 C   0  0  0  0  0  1  0  0  0  0  0  0
  189.2200  177.7530  138.0300 F   0  0  0  0  0  0  0  0  0  0  0  0
  190.2530  177.6840  142.0590 C   0  0  0  0  0  0  0  0  0  0  0  0
  189.5390  177.7330  139.3510 C   0  0  0  0  0  0  0  0  0  0  0  0
  189.0320  178.2350  141.6700 C   0  0  0  0  0  3  0  0  0  0  0  0
  190.6330  177.6590  143.4940 C   0  0  0  0  0  1  0  0  0  0  0  0
  191.1160  177.1550  141.1000 C   0  0  0  0  0  3  0  0  0  0  0  0
  188.6590  178.2610  140.3230 C   0  0  0  0  0  0  0  0  0  0  0  0
  1  8  1  0  0  0  0
  2 21  1  6  0  0  0
  2  5  1  0  0  0  0
  4  1  1  0  0  0  0
  5  9  1  0  0  0  0
  6  9  2  0  0  0  0
  7  4  1  1  0  0  0
  7  2  1  0  0  0  0
  7  5  1  0  0  0  0
  8  3  2  0  0  0  0
  8  6  1  0  0  0  0
 10 12  1  0  0  0  0
 10 18  1  1  0  0  0
 11  9  1  6  0  0  0
 11 10  1  0  0  0  0
 11 12  1  0  0  0  0
 13 16  1  0  0  0  0
 14 18  1  0  0  0  0
 14 13  2  0  0  0  0
 15 20  1  0  0  0  0
 16 20  2  0  0  0  0
 16 17  1  0  0  0  0
 18 15  2  0  0  0  0
 19 13  1  0  0  0  0
 21 30  1  0  0  0  0
 22 29  1  0  0  0  0
 23 22  1  0  0  0  0
 24 26  1  0  0  0  0
 25 28  1  0  0  0  0
 26 22  2  0  0  0  0
 26 30  1  0  0  0  0
 27 25  1  0  0  0  0
 29 25  2  0  0  0  0
 30 27  2  0  0  0  0
M  END
>  <MODEL>
6

>  <REMARK>
 VINA RESULT:      -9.5      1.604      2.318
  Name = 
  4 active torsions:
  status: ('A' for Active; 'I' for Inactive)
    1  A    between atoms: C_3  and  N_23
    2  A    between atoms: C_13  and  C_16
    3  A    between atoms: C_22  and  C_24
    4  A    between atoms: N_23  and  C_30
                            x       y       z     vdW  Elec       q    Type
                         _______ _______ _______ _____ _____    ______ ____

>  <TORSDO>
F 4

$$$$
=
 OpenBabel10232409183D

 30 34  0  0  1  0  0  0  0  0999 V2000
  191.7810  176.6280  144.3340 C   0  0  0  0  0  2  0  0  0  0  0  0
  189.4530  177.7970  141.9280 C   0  0  1  0  0  3  0  0  0  0  0  0
  191.5270  177.4210  146.5560 O   0  0  0  0  0  0  0  0  0  0  0  0
  191.5420  177.4720  143.0830 C   0  0  0  0  0  2  0  0  0  0  0  0
  189.1930  177.0010  143.1610 N   0  0  0  0  0  0  0  0  0  0  0  0
  189.4530  176.9940  145.5350 C   0  0  0  0  0  3  0  0  0  0  0  0
  190.3950  176.8650  142.3000 C   0  0  1  0  0  3  0  0  0  0  0  0
  190.9340  177.0530  145.5070 C   0  0  0  0  0  0  0  0  0  0  0  0
  188.6450  176.9190  144.4700 C   0  0  0  0  0  0  0  0  0  0  0  0
  186.6910  178.4210  144.6820 C   0  0  2  0  0  3  0  0  0  0  0  0
  187.1630  176.9720  144.6570 C   0  0  2  0  0  3  0  0  0  0  0  0
  186.8200  177.6390  145.9740 C   0  0  0  0  0  2  0  0  0  0  0  0
  183.5220  178.7220  142.5920 C   0  0  0  0  0  0  0  0  0  0  0  0
  184.8680  178.5820  142.9410 C   0  0  0  0  0  3  0  0  0  0  0  0
  184.2710  178.6550  145.2870 C   0  0  0  0  0  3  0  0  0  0  0  0
  182.5470  178.8330  143.5940 C   0  0  0  0  0  0  0  0  0  0  0  0
  181.1090  178.9820  143.2420 C   0  0  0  0  0  1  0  0  0  0  0  0
  185.2490  178.5300  144.2910 C   0  0  0  0  0  0  0  0  0  0  0  0
  183.1740  178.7500  141.2800 F   0  0  0  0  0  0  0  0  0  0  0  0
  182.9250  178.8030  144.9400 C   0  0  0  0  0  3  0  0  0  0  0  0
  188.6440  177.2680  140.8410 N   0  0  0  0  0  2  0  0  0  0  0  0
  190.4640  176.9000  137.5620 C   0  0  0  0  0  0  0  0  0  0  0  0
  191.7170  176.3330  136.9920 C   0  0  0  0  0  1  0  0  0  0  0  0
  191.0580  176.1220  139.7330 F   0  0  0  0  0  0  0  0  0  0  0  0
  188.3930  178.1060  137.2300 C   0  0  0  0  0  0  0  0  0  0  0  0
  190.1790  176.7790  138.9310 C   0  0  0  0  0  0  0  0  0  0  0  0
  188.1050  177.9910  138.5900 C   0  0  0  0  0  3  0  0  0  0  0  0
  187.4450  178.8070  136.3270 C   0  0  0  0  0  1  0  0  0  0  0  0
  189.5710  177.5640  136.7170 C   0  0  0  0  0  3  0  0  0  0  0  0
  188.9900  177.3370  139.4520 C   0  0  0  0  0  0  0  0  0  0  0  0
  1  8  1  0  0  0  0
  2 21  1  6  0  0  0
  2  7  1  0  0  0  0
  2  5  1  0  0  0  0
  4  1  1  0  0  0  0
  5  9  1  0  0  0  0
  7  4  1  1  0  0  0
  7  5  1  0  0  0  0
  8  6  1  0  0  0  0
  8  3  2  0  0  0  0
  9  6  2  0  0  0  0
 10 18  1  6  0  0  0
 10 12  1  0  0  0  0
 11  9  1  1  0  0  0
 11 10  1  0  0  0  0
 11 12  1  0  0  0  0
 13 14  2  0  0  0  0
 13 16  1  0  0  0  0
 14 18  1  0  0  0  0
 16 20  2  0  0  0  0
 17 16  1  0  0  0  0
 18 15  2  0  0  0  0
 19 13  1  0  0  0  0
 20 15  1  0  0  0  0
 22 26  1  0  0  0  0
 23 22  1  0  0  0  0
 25 27  2  0  0  0  0
 26 30  2  0  0  0  0
 26 24  1  0  0  0  0
 27 30  1  0  0  0  0
 28 25  1  0  0  0  0
 29 25  1  0  0  0  0
 29 22  2  0  0  0  0
 30 21  1  0  0  0  0
M  END
>  <MODEL>
7

>  <REMARK>
 VINA RESULT:      -9.4      2.908      6.126
  Name = 
  4 active torsions:
  status: ('A' for Active; 'I' for Inactive)
    1  A    between atoms: C_3  and  N_23
    2  A    between atoms: C_13  and  C_16
    3  A    between atoms: C_22  and  C_24
    4  A    between atoms: N_23  and  C_30
                            x       y       z     vdW  Elec       q    Type
                         _______ _______ _______ _____ _____    ______ ____

>  <TORSDO>
F 4

$$$$
=
 OpenBabel10232409183D

 30 34  0  0  1  0  0  0  0  0999 V2000
  189.6660  177.4830  139.1750 C   0  0  0  0  0  2  0  0  0  0  0  0
  188.3400  177.3920  142.4620 C   0  0  1  0  0  3  0  0  0  0  0  0
  188.2100  176.8660  137.4060 O   0  0  0  0  0  0  0  0  0  0  0  0
  189.6870  176.8170  140.5490 C   0  0  0  0  0  2  0  0  0  0  0  0
  187.8990  178.2230  141.3060 N   0  0  0  0  0  0  0  0  0  0  0  0
  187.1010  178.1190  139.0570 C   0  0  0  0  0  3  0  0  0  0  0  0
  189.3060  177.8460  141.5930 C   0  0  1  0  0  3  0  0  0  0  0  0
  188.3090  177.4480  138.5180 C   0  0  0  0  0  0  0  0  0  0  0  0
  186.9200  178.5240  140.3200 C   0  0  0  0  0  0  0  0  0  0  0  0
  184.5360  178.0030  140.7230 C   0  0  2  0  0  3  0  0  0  0  0  0
  185.6010  179.0930  140.7350 C   0  0  2  0  0  3  0  0  0  0  0  0
  184.6080  179.0120  139.5940 C   0  0  0  0  0  2  0  0  0  0  0  0
  182.5440  178.8280  143.8620 C   0  0  0  0  0  0  0  0  0  0  0  0
  183.6170  178.5510  143.0120 C   0  0  0  0  0  3  0  0  0  0  0  0
  182.0940  178.3820  141.1370 C   0  0  0  0  0  3  0  0  0  0  0  0
  181.2400  178.8790  143.3490 C   0  0  0  0  0  0  0  0  0  0  0  0
  180.0840  179.1760  144.2380 C   0  0  0  0  0  1  0  0  0  0  0  0
  183.4010  178.3430  141.6400 C   0  0  0  0  0  0  0  0  0  0  0  0
  182.7780  179.0450  145.1810 F   0  0  0  0  0  0  0  0  0  0  0  0
  181.0180  178.6530  141.9870 C   0  0  0  0  0  3  0  0  0  0  0  0
  188.3370  178.2110  143.6640 N   0  0  0  0  0  2  0  0  0  0  0  0
  188.6060  177.5200  147.3590 C   0  0  0  0  0  0  0  0  0  0  0  0
  187.8400  177.6850  148.6250 C   0  0  0  0  0  1  0  0  0  0  0  0
  186.8240  178.4920  146.1140 F   0  0  0  0  0  0  0  0  0  0  0  0
  190.6140  176.7820  146.2290 C   0  0  0  0  0  0  0  0  0  0  0  0
  188.0660  177.9420  146.1340 C   0  0  0  0  0  0  0  0  0  0  0  0
  190.0850  177.2010  145.0090 C   0  0  0  0  0  3  0  0  0  0  0  0
  191.9640  176.1650  146.2800 C   0  0  0  0  0  1  0  0  0  0  0  0
  189.8770  176.9430  147.4020 C   0  0  0  0  0  3  0  0  0  0  0  0
  188.8170  177.7870  144.9460 C   0  0  0  0  0  0  0  0  0  0  0  0
  1  4  1  0  0  0  0
  2 21  1  1  0  0  0
  3  8  2  0  0  0  0
  5  7  1  0  0  0  0
  5  2  1  0  0  0  0
  6  9  2  0  0  0  0
  7  4  1  6  0  0  0
  7  2  1  0  0  0  0
  8  6  1  0  0  0  0
  8  1  1  0  0  0  0
  9  5  1  0  0  0  0
 10 11  1  0  0  0  0
 10 18  1  1  0  0  0
 11  9  1  6  0  0  0
 12 10  1  0  0  0  0
 12 11  1  0  0  0  0
 13 19  1  0  0  0  0
 14 13  2  0  0  0  0
 15 18  2  0  0  0  0
 15 20  1  0  0  0  0
 16 13  1  0  0  0  0
 16 17  1  0  0  0  0
 18 14  1  0  0  0  0
 20 16  2  0  0  0  0
 21 30  1  0  0  0  0
 22 29  1  0  0  0  0
 22 23  1  0  0  0  0
 24 26  1  0  0  0  0
 25 28  1  0  0  0  0
 25 29  2  0  0  0  0
 26 22  2  0  0  0  0
 27 25  1  0  0  0  0
 30 27  2  0  0  0  0
 30 26  1  0  0  0  0
M  END
>  <MODEL>
8

>  <REMARK>
 VINA RESULT:      -9.2      2.826      7.030
  Name = 
  4 active torsions:
  status: ('A' for Active; 'I' for Inactive)
    1  A    between atoms: C_3  and  N_23
    2  A    between atoms: C_13  and  C_16
    3  A    between atoms: C_22  and  C_24
    4  A    between atoms: N_23  and  C_30
                            x       y       z     vdW  Elec       q    Type
                         _______ _______ _______ _____ _____    ______ ____

>  <TORSDO>
F 4

$$$$
=
 OpenBabel10232409183D

 30 34  0  0  1  0  0  0  0  0999 V2000
  187.5840  178.3090  147.2180 C   0  0  0  0  0  2  0  0  0  0  0  0
  185.3630  178.0530  144.4650 C   0  0  1  0  0  3  0  0  0  0  0  0
  189.1190  176.5290  147.5360 O   0  0  0  0  0  0  0  0  0  0  0  0
  186.1420  178.1340  146.7430 C   0  0  0  0  0  2  0  0  0  0  0  0
  186.8530  178.1140  144.4540 N   0  0  0  0  0  0  0  0  0  0  0  0
  188.8270  177.0380  145.2590 C   0  0  0  0  0  3  0  0  0  0  0  0
  185.9800  178.8390  145.4120 C   0  0  1  0  0  3  0  0  0  0  0  0
  188.5160  177.2460  146.6940 C   0  0  0  0  0  0  0  0  0  0  0  0
  188.1000  177.4730  144.2230 C   0  0  0  0  0  0  0  0  0  0  0  0
  189.3260  178.2010  142.2010 C   0  0  2  0  0  3  0  0  0  0  0  0
  188.4910  177.0920  142.8310 C   0  0  2  0  0  3  0  0  0  0  0  0
  187.8660  178.0400  141.8280 C   0  0  0  0  0  2  0  0  0  0  0  0
  192.3950  177.1860  140.1890 C   0  0  0  0  0  0  0  0  0  0  0  0
  191.5940  177.6480  141.2350 C   0  0  0  0  0  3  0  0  0  0  0  0
  189.6130  177.2540  139.8990 C   0  0  0  0  0  3  0  0  0  0  0  0
  191.8030  176.7590  138.9910 C   0  0  0  0  0  0  0  0  0  0  0  0
  192.6390  176.2610  137.8650 C   0  0  0  0  0  1  0  0  0  0  0  0
  190.1960  177.6690  141.1040 C   0  0  0  0  0  0  0  0  0  0  0  0
  193.7430  177.1550  140.3440 F   0  0  0  0  0  0  0  0  0  0  0  0
  190.4130  176.7970  138.8480 C   0  0  0  0  0  3  0  0  0  0  0  0
  184.8460  178.8920  143.3950 N   0  0  0  0  0  2  0  0  0  0  0  0
  182.0150  178.5260  140.9350 C   0  0  0  0  0  0  0  0  0  0  0  0
  181.7630  178.3770  139.4750 C   0  0  0  0  0  1  0  0  0  0  0  0
  184.3660  178.5540  140.5620 F   0  0  0  0  0  0  0  0  0  0  0  0
  181.1400  178.7250  143.1820 C   0  0  0  0  0  0  0  0  0  0  0  0
  183.3240  178.6180  141.4310 C   0  0  0  0  0  0  0  0  0  0  0  0
  182.4390  178.8190  143.6810 C   0  0  0  0  0  3  0  0  0  0  0  0
  179.9820  178.7800  144.1100 C   0  0  0  0  0  1  0  0  0  0  0  0
  180.9280  178.5810  141.8110 C   0  0  0  0  0  3  0  0  0  0  0  0
  183.5390  178.7730  142.8200 C   0  0  0  0  0  0  0  0  0  0  0  0
  2 21  1  6  0  0  0
  2  7  1  0  0  0  0
  4  1  1  0  0  0  0
  5  2  1  0  0  0  0
  5  7  1  0  0  0  0
  6  8  1  0  0  0  0
  7  4  1  1  0  0  0
  8  1  1  0  0  0  0
  8  3  2  0  0  0  0
  9  5  1  0  0  0  0
  9  6  2  0  0  0  0
 10 18  1  6  0  0  0
 10 11  1  0  0  0  0
 11  9  1  1  0  0  0
 12 10  1  0  0  0  0
 12 11  1  0  0  0  0
 13 19  1  0  0  0  0
 13 14  1  0  0  0  0
 15 18  1  0  0  0  0
 16 13  2  0  0  0  0
 17 16  1  0  0  0  0
 18 14  2  0  0  0  0
 20 16  1  0  0  0  0
 20 15  2  0  0  0  0
 22 26  2  0  0  0  0
 22 29  1  0  0  0  0
 23 22  1  0  0  0  0
 24 26  1  0  0  0  0
 25 27  1  0  0  0  0
 25 28  1  0  0  0  0
 26 30  1  0  0  0  0
 29 25  2  0  0  0  0
 30 21  1  0  0  0  0
 30 27  2  0  0  0  0
M  END
>  <MODEL>
9

>  <REMARK>
 VINA RESULT:      -9.0      2.511      6.955
  Name = 
  4 active torsions:
  status: ('A' for Active; 'I' for Inactive)
    1  A    between atoms: C_3  and  N_23
    2  A    between atoms: C_13  and  C_16
    3  A    between atoms: C_22  and  C_24
    4  A    between atoms: N_23  and  C_30
                            x       y       z     vdW  Elec       q    Type
                         _______ _______ _______ _____ _____    ______ ____

>  <TORSDO>
F 4

$$$$
