=
 OpenBabel10232410033D

 28 30  0  0  0  0  0  0  0  0999 V2000
  189.0390  177.3320  140.5880 C   0  0  0  0  0  0  0  0  0  0  0  0
  187.4490  178.5160  141.3760 C   0  0  0  0  0  0  0  0  0  0  0  0
  189.7140  175.9560  142.6680 C   0  0  0  0  0  1  0  0  0  0  0  0
  188.9160  176.9750  141.9250 C   0  0  0  0  0  0  0  0  0  0  0  0
  188.1490  178.2560  140.2950 O   0  0  0  0  0  0  0  0  0  0  0  0
  187.8740  177.7320  142.4330 C   0  0  0  0  0  0  0  0  0  0  0  0
  185.9900  177.8050  144.0340 C   0  0  0  0  0  3  0  0  0  0  0  0
  187.6680  177.6890  146.2460 C   0  0  0  0  0  0  0  0  0  0  0  0
  187.3730  177.7430  143.8260 C   0  0  0  0  0  0  0  0  0  0  0  0
  189.8950  177.6260  147.2090 C   0  0  0  0  0  3  0  0  0  0  0  0
  188.5070  177.6460  147.3740 C   0  0  0  0  0  0  0  0  0  0  0  0
  186.3160  177.7390  146.3970 N   0  0  0  0  0  0  0  0  0  0  0  0
  185.4780  177.8000  145.3300 C   0  0  0  0  0  3  0  0  0  0  0  0
  190.4540  177.6510  145.9300 C   0  0  0  0  0  3  0  0  0  0  0  0
  187.9490  177.6300  148.7560 C   0  0  0  0  0  1  0  0  0  0  0  0
  188.2320  177.6960  144.9460 C   0  0  0  0  0  0  0  0  0  0  0  0
  189.6290  177.6890  144.8060 C   0  0  0  0  0  3  0  0  0  0  0  0
  189.9940  176.7990  139.6040 C   0  0  0  0  0  0  0  0  0  0  0  0
  191.2300  176.9400  139.8050 O   0  0  0  0  0  0  0  0  0  0  0  0
  189.5320  176.1250  138.4310 N   0  0  0  0  0  2  0  0  0  0  0  0
  189.6680  174.9010  135.8540 C   0  0  0  0  0  1  0  0  0  0  0  0
  191.5610  176.5490  136.7840 O   0  0  0  0  0  0  0  0  0  0  0  0
  191.3830  174.3290  137.8280 O   0  0  0  0  0  0  0  0  0  0  0  0
  190.6120  175.4790  137.2430 S   0  0  0  0  0  0  0  0  0  0  0  0
  186.4210  179.5020  141.4400 N   0  0  0  0  0  2  0  0  0  0  0  0
  185.0250  179.1520  141.2490 C   0  0  0  0  0  2  0  0  0  0  0  0
  184.7740  178.8710  139.7840 C   0  0  0  0  0  2  0  0  0  0  0  0
  184.4210  180.1060  139.1090 N   0  0  0  0  0  1  0  0  0  0  0  0
  1  4  2  0  0  0  0
  2 25  1  0  0  0  0
  2  6  2  0  0  0  0
  4  6  1  0  0  0  0
  4  3  1  0  0  0  0
  5  1  1  0  0  0  0
  5  2  1  0  0  0  0
  6  9  1  0  0  0  0
  7 13  1  0  0  0  0
  8 12  1  0  0  0  0
  8 11  1  0  0  0  0
  9  7  2  0  0  0  0
  9 16  1  0  0  0  0
 10 11  2  0  0  0  0
 11 15  1  0  0  0  0
 13 12  2  0  0  0  0
 14 10  1  0  0  0  0
 16  8  2  0  0  0  0
 17 16  1  0  0  0  0
 17 14  2  0  0  0  0
 18 19  2  0  0  0  0
 18  1  1  0  0  0  0
 20 18  1  0  0  0  0
 21 24  1  0  0  0  0
 22 24  2  0  0  0  0
 24 23  2  0  0  0  0
 24 20  1  0  0  0  0
 26 25  1  0  0  0  0
 27 26  1  0  0  0  0
 28 27  1  0  0  0  0
M  END
>  <MODEL>
1

>  <REMARK>
 VINA RESULT:      -8.8      0.000      0.000
  Name = 
  6 active torsions:
  status: ('A' for Active; 'I' for Inactive)
    1  A    between atoms: C_1  and  C_5
    2  A    between atoms: C_4  and  C_11
    3  A    between atoms: C_9  and  C_27
    4  A    between atoms: C_11  and  N_28
    5  A    between atoms: C_13  and  N_28
    6  A    between atoms: S_20  and  N_25
                            x       y       z     vdW  Elec       q    Type
                         _______ _______ _______ _____ _____    ______ ____

>  <TORSDO>
F 6

$$$$
=
 OpenBabel10232410033D

 28 30  0  0  0  0  0  0  0  0999 V2000
  185.1170  178.6980  143.0440 C   0  0  0  0  0  0  0  0  0  0  0  0
  186.9530  178.6950  141.9590 C   0  0  0  0  0  0  0  0  0  0  0  0
  185.7630  177.3030  145.1210 C   0  0  0  0  0  1  0  0  0  0  0  0
  186.0130  177.9550  143.8030 C   0  0  0  0  0  0  0  0  0  0  0  0
  185.7110  179.1220  141.9500 O   0  0  0  0  0  0  0  0  0  0  0  0
  187.2100  177.9670  143.1070 C   0  0  0  0  0  0  0  0  0  0  0  0
  189.1580  176.5710  142.4950 C   0  0  0  0  0  3  0  0  0  0  0  0
  190.2250  176.6690  145.0590 C   0  0  0  0  0  0  0  0  0  0  0  0
  188.4700  177.2860  143.4820 C   0  0  0  0  0  0  0  0  0  0  0  0
  190.0890  177.3670  147.3800 C   0  0  0  0  0  3  0  0  0  0  0  0
  190.7670  176.6990  146.3560 C   0  0  0  0  0  0  0  0  0  0  0  0
  190.8620  175.9950  144.0630 N   0  0  0  0  0  0  0  0  0  0  0  0
  190.3570  175.9310  142.8040 C   0  0  0  0  0  3  0  0  0  0  0  0
  188.8740  178.0050  147.1220 C   0  0  0  0  0  3  0  0  0  0  0  0
  192.0560  176.0200  146.6740 C   0  0  0  0  0  1  0  0  0  0  0  0
  189.0010  177.3300  144.7910 C   0  0  0  0  0  0  0  0  0  0  0  0
  188.3320  177.9840  145.8370 C   0  0  0  0  0  3  0  0  0  0  0  0
  183.7100  178.9960  143.3600 C   0  0  0  0  0  0  0  0  0  0  0  0
  183.4350  179.6060  144.4280 O   0  0  0  0  0  0  0  0  0  0  0  0
  182.6650  178.6020  142.4690 N   0  0  0  0  0  2  0  0  0  0  0  0
  180.0020  178.1770  141.5250 C   0  0  0  0  0  1  0  0  0  0  0  0
  180.6150  178.3500  144.1250 O   0  0  0  0  0  0  0  0  0  0  0  0
  180.7580  180.4110  142.7910 O   0  0  0  0  0  0  0  0  0  0  0  0
  180.9960  178.9270  142.7920 S   0  0  0  0  0  0  0  0  0  0  0  0
  187.8840  178.9310  140.9040 N   0  0  0  0  0  2  0  0  0  0  0  0
  187.7730  178.2420  139.6310 C   0  0  0  0  0  2  0  0  0  0  0  0
  189.0700  178.3910  138.8650 C   0  0  0  0  0  2  0  0  0  0  0  0
  188.8980  179.3740  137.8120 N   0  0  0  0  0  1  0  0  0  0  0  0
  1 18  1  0  0  0  0
  1  4  2  0  0  0  0
  2  6  2  0  0  0  0
  4  3  1  0  0  0  0
  5  2  1  0  0  0  0
  5  1  1  0  0  0  0
  6  9  1  0  0  0  0
  6  4  1  0  0  0  0
  7 13  2  0  0  0  0
  7  9  1  0  0  0  0
  8 11  1  0  0  0  0
  9 16  2  0  0  0  0
 11 15  1  0  0  0  0
 11 10  2  0  0  0  0
 12  8  2  0  0  0  0
 13 12  1  0  0  0  0
 14 10  1  0  0  0  0
 16  8  1  0  0  0  0
 16 17  1  0  0  0  0
 17 14  2  0  0  0  0
 18 19  2  0  0  0  0
 20 24  1  0  0  0  0
 20 18  1  0  0  0  0
 21 24  1  0  0  0  0
 23 24  2  0  0  0  0
 24 22  2  0  0  0  0
 25  2  1  0  0  0  0
 26 25  1  0  0  0  0
 27 26  1  0  0  0  0
 28 27  1  0  0  0  0
M  END
>  <MODEL>
2

>  <REMARK>
 VINA RESULT:      -8.8      3.957      6.246
  Name = 
  6 active torsions:
  status: ('A' for Active; 'I' for Inactive)
    1  A    between atoms: C_1  and  C_5
    2  A    between atoms: C_4  and  C_11
    3  A    between atoms: C_9  and  C_27
    4  A    between atoms: C_11  and  N_28
    5  A    between atoms: C_13  and  N_28
    6  A    between atoms: S_20  and  N_25
                            x       y       z     vdW  Elec       q    Type
                         _______ _______ _______ _____ _____    ______ ____

>  <TORSDO>
F 6

$$$$
=
 OpenBabel10232410033D

 28 30  0  0  0  0  0  0  0  0999 V2000
  190.5080  176.8220  139.9400 C   0  0  0  0  0  0  0  0  0  0  0  0
  190.1320  177.7840  141.8060 C   0  0  0  0  0  0  0  0  0  0  0  0
  188.1380  176.7860  138.9120 C   0  0  0  0  0  1  0  0  0  0  0  0
  189.1450  177.0880  139.9710 C   0  0  0  0  0  0  0  0  0  0  0  0
  191.0650  177.2490  141.0520 O   0  0  0  0  0  0  0  0  0  0  0  0
  188.9030  177.7270  141.1750 C   0  0  0  0  0  0  0  0  0  0  0  0
  186.7370  178.8700  140.8310 C   0  0  0  0  0  3  0  0  0  0  0  0
  185.9090  178.4150  143.4440 C   0  0  0  0  0  0  0  0  0  0  0  0
  187.5960  178.1860  141.6980 C   0  0  0  0  0  0  0  0  0  0  0  0
  186.3310  177.5610  145.6770 C   0  0  0  0  0  3  0  0  0  0  0  0
  185.4850  178.2040  144.7680 C   0  0  0  0  0  0  0  0  0  0  0  0
  185.1040  179.0660  142.5600 N   0  0  0  0  0  0  0  0  0  0  0  0
  185.4900  179.3020  141.2790 C   0  0  0  0  0  3  0  0  0  0  0  0
  187.5970  177.1290  145.2780 C   0  0  0  0  0  3  0  0  0  0  0  0
  184.1450  178.6610  145.2350 C   0  0  0  0  0  1  0  0  0  0  0  0
  187.1860  177.9610  143.0310 C   0  0  0  0  0  0  0  0  0  0  0  0
  188.0240  177.3310  143.9650 C   0  0  0  0  0  3  0  0  0  0  0  0
  191.2670  176.1670  138.8630 C   0  0  0  0  0  0  0  0  0  0  0  0
  190.8750  175.0530  138.4220 O   0  0  0  0  0  0  0  0  0  0  0  0
  192.4360  176.7820  138.3170 N   0  0  0  0  0  2  0  0  0  0  0  0
  194.1230  174.5720  137.6640 C   0  0  0  0  0  1  0  0  0  0  0  0
  192.4670  175.7110  135.8960 O   0  0  0  0  0  0  0  0  0  0  0  0
  194.4380  177.0060  136.5970 O   0  0  0  0  0  0  0  0  0  0  0  0
  193.3650  176.0560  137.0500 S   0  0  0  0  0  0  0  0  0  0  0  0
  190.3690  178.3140  143.1100 N   0  0  0  0  0  2  0  0  0  0  0  0
  191.6310  178.1030  143.7940 C   0  0  0  0  0  2  0  0  0  0  0  0
  191.5730  176.8020  144.5650 C   0  0  0  0  0  2  0  0  0  0  0  0
  191.7040  177.0750  145.9840 N   0  0  0  0  0  1  0  0  0  0  0  0
  1  4  2  0  0  0  0
  1  5  1  0  0  0  0
  2 25  1  0  0  0  0
  3  4  1  0  0  0  0
  4  6  1  0  0  0  0
  5  2  1  0  0  0  0
  6  9  1  0  0  0  0
  6  2  2  0  0  0  0
  7 13  2  0  0  0  0
  7  9  1  0  0  0  0
  8 11  1  0  0  0  0
  9 16  2  0  0  0  0
 11 15  1  0  0  0  0
 11 10  2  0  0  0  0
 12  8  2  0  0  0  0
 13 12  1  0  0  0  0
 14 10  1  0  0  0  0
 16  8  1  0  0  0  0
 16 17  1  0  0  0  0
 17 14  2  0  0  0  0
 18  1  1  0  0  0  0
 19 18  2  0  0  0  0
 20 18  1  0  0  0  0
 22 24  2  0  0  0  0
 23 24  2  0  0  0  0
 24 21  1  0  0  0  0
 24 20  1  0  0  0  0
 25 26  1  0  0  0  0
 26 27  1  0  0  0  0
 27 28  1  0  0  0  0
M  END
>  <MODEL>
3

>  <REMARK>
 VINA RESULT:      -8.2      2.184      4.260
  Name = 
  6 active torsions:
  status: ('A' for Active; 'I' for Inactive)
    1  A    between atoms: C_1  and  C_5
    2  A    between atoms: C_4  and  C_11
    3  A    between atoms: C_9  and  C_27
    4  A    between atoms: C_11  and  N_28
    5  A    between atoms: C_13  and  N_28
    6  A    between atoms: S_20  and  N_25
                            x       y       z     vdW  Elec       q    Type
                         _______ _______ _______ _____ _____    ______ ____

>  <TORSDO>
F 6

$$$$
=
 OpenBabel10232410033D

 28 30  0  0  0  0  0  0  0  0999 V2000
  188.5090  177.5770  139.2150 C   0  0  0  0  0  0  0  0  0  0  0  0
  187.6280  178.4830  140.9330 C   0  0  0  0  0  0  0  0  0  0  0  0
  190.7270  176.6910  140.2030 C   0  0  0  0  0  1  0  0  0  0  0  0
  189.4120  177.3950  140.2560 C   0  0  0  0  0  0  0  0  0  0  0  0
  187.4570  178.2320  139.6550 O   0  0  0  0  0  0  0  0  0  0  0  0
  188.8330  177.9690  141.3750 C   0  0  0  0  0  0  0  0  0  0  0  0
  190.7520  178.4650  142.8540 C   0  0  0  0  0  3  0  0  0  0  0  0
  189.3070  177.9200  145.1640 C   0  0  0  0  0  0  0  0  0  0  0  0
  189.4150  178.0680  142.7330 C   0  0  0  0  0  0  0  0  0  0  0  0
  187.2660  177.1920  146.2580 C   0  0  0  0  0  3  0  0  0  0  0  0
  188.5900  177.6320  146.3390 C   0  0  0  0  0  0  0  0  0  0  0  0
  190.6060  178.3200  145.2310 N   0  0  0  0  0  0  0  0  0  0  0  0
  191.3320  178.5880  144.1150 C   0  0  0  0  0  3  0  0  0  0  0  0
  186.6500  177.0340  145.0150 C   0  0  0  0  0  3  0  0  0  0  0  0
  189.2170  177.7770  147.6850 C   0  0  0  0  0  1  0  0  0  0  0  0
  188.6790  177.7780  143.9020 C   0  0  0  0  0  0  0  0  0  0  0  0
  187.3520  177.3220  143.8440 C   0  0  0  0  0  3  0  0  0  0  0  0
  188.6510  177.1320  137.8200 C   0  0  0  0  0  0  0  0  0  0  0  0
  189.3290  177.8280  137.0170 O   0  0  0  0  0  0  0  0  0  0  0  0
  188.0320  175.9230  137.3740 N   0  0  0  0  0  2  0  0  0  0  0  0
  187.3720  176.5120  134.6580 C   0  0  0  0  0  1  0  0  0  0  0  0
  189.6160  175.2370  135.3670 O   0  0  0  0  0  0  0  0  0  0  0  0
  187.4960  174.0160  135.6160 O   0  0  0  0  0  0  0  0  0  0  0  0
  188.1670  175.3540  135.7450 S   0  0  0  0  0  0  0  0  0  0  0  0
  186.7010  179.2190  141.7310 N   0  0  0  0  0  2  0  0  0  0  0  0
  185.2970  179.3040  141.3730 C   0  0  0  0  0  2  0  0  0  0  0  0
  184.4590  178.6970  142.4770 C   0  0  0  0  0  2  0  0  0  0  0  0
  184.4640  179.5810  143.6280 N   0  0  0  0  0  1  0  0  0  0  0  0
  1  5  1  0  0  0  0
  1  4  2  0  0  0  0
  2  6  2  0  0  0  0
  2 25  1  0  0  0  0
  3  4  1  0  0  0  0
  4  6  1  0  0  0  0
  5  2  1  0  0  0  0
  6  9  1  0  0  0  0
  7 13  1  0  0  0  0
  8 12  1  0  0  0  0
  8 11  1  0  0  0  0
  9  7  2  0  0  0  0
  9 16  1  0  0  0  0
 10 11  2  0  0  0  0
 11 15  1  0  0  0  0
 13 12  2  0  0  0  0
 14 10  1  0  0  0  0
 16  8  2  0  0  0  0
 17 16  1  0  0  0  0
 17 14  2  0  0  0  0
 18  1  1  0  0  0  0
 19 18  2  0  0  0  0
 20 18  1  0  0  0  0
 21 24  1  0  0  0  0
 22 24  2  0  0  0  0
 23 24  2  0  0  0  0
 24 20  1  0  0  0  0
 26 25  1  0  0  0  0
 26 27  1  0  0  0  0
 27 28  1  0  0  0  0
M  END
>  <MODEL>
4

>  <REMARK>
 VINA RESULT:      -8.2      2.023      2.903
  Name = 
  6 active torsions:
  status: ('A' for Active; 'I' for Inactive)
    1  A    between atoms: C_1  and  C_5
    2  A    between atoms: C_4  and  C_11
    3  A    between atoms: C_9  and  C_27
    4  A    between atoms: C_11  and  N_28
    5  A    between atoms: C_13  and  N_28
    6  A    between atoms: S_20  and  N_25
                            x       y       z     vdW  Elec       q    Type
                         _______ _______ _______ _____ _____    ______ ____

>  <TORSDO>
F 6

$$$$
=
 OpenBabel10232410033D

 28 30  0  0  0  0  0  0  0  0999 V2000
  187.7800  178.0900  140.7310 C   0  0  0  0  0  0  0  0  0  0  0  0
  189.3440  176.9220  141.5910 C   0  0  0  0  0  0  0  0  0  0  0  0
  188.8310  178.7340  138.4600 C   0  0  0  0  0  1  0  0  0  0  0  0
  188.8130  178.0810  139.8010 C   0  0  0  0  0  0  0  0  0  0  0  0
  188.1330  177.3900  141.7880 O   0  0  0  0  0  0  0  0  0  0  0  0
  189.8220  177.3100  140.3530 C   0  0  0  0  0  0  0  0  0  0  0  0
  192.2730  177.6420  140.3300 C   0  0  0  0  0  3  0  0  0  0  0  0
  192.6390  175.9200  138.1800 C   0  0  0  0  0  0  0  0  0  0  0  0
  191.1510  177.0240  139.7660 C   0  0  0  0  0  0  0  0  0  0  0  0
  191.7370  174.4570  136.4660 C   0  0  0  0  0  3  0  0  0  0  0  0
  192.8350  175.0620  137.0840 C   0  0  0  0  0  0  0  0  0  0  0  0
  193.7000  176.5370  138.7700 N   0  0  0  0  0  0  0  0  0  0  0  0
  193.5440  177.3860  139.8190 C   0  0  0  0  0  3  0  0  0  0  0  0
  190.4430  174.7020  136.9310 C   0  0  0  0  0  3  0  0  0  0  0  0
  194.2000  174.7850  136.5510 C   0  0  0  0  0  1  0  0  0  0  0  0
  191.3290  176.1560  138.6660 C   0  0  0  0  0  0  0  0  0  0  0  0
  190.2400  175.5490  138.0220 C   0  0  0  0  0  3  0  0  0  0  0  0
  186.4750  178.7590  140.6110 C   0  0  0  0  0  0  0  0  0  0  0  0
  186.1280  179.5950  141.4880 O   0  0  0  0  0  0  0  0  0  0  0  0
  185.6060  178.4700  139.5140 N   0  0  0  0  0  2  0  0  0  0  0  0
  183.1420  178.3670  138.0740 C   0  0  0  0  0  1  0  0  0  0  0  0
  183.3070  179.1720  140.6220 O   0  0  0  0  0  0  0  0  0  0  0  0
  184.2460  180.6590  138.9030 O   0  0  0  0  0  0  0  0  0  0  0  0
  184.0620  179.2280  139.3250 S   0  0  0  0  0  0  0  0  0  0  0  0
  190.0650  176.1520  142.5510 N   0  0  0  0  0  2  0  0  0  0  0  0
  190.1410  176.5570  143.9420 C   0  0  0  0  0  2  0  0  0  0  0  0
  191.5550  176.9920  144.2640 C   0  0  0  0  0  2  0  0  0  0  0  0
  191.6830  177.1990  145.6940 N   0  0  0  0  0  1  0  0  0  0  0  0
  1  5  1  0  0  0  0
  2  5  1  0  0  0  0
  2 25  1  0  0  0  0
  3  4  1  0  0  0  0
  4  6  1  0  0  0  0
  4  1  2  0  0  0  0
  6  2  2  0  0  0  0
  8 16  1  0  0  0  0
  8 12  1  0  0  0  0
  9  7  2  0  0  0  0
  9  6  1  0  0  0  0
 10 14  2  0  0  0  0
 10 11  1  0  0  0  0
 11  8  2  0  0  0  0
 12 13  2  0  0  0  0
 13  7  1  0  0  0  0
 14 17  1  0  0  0  0
 15 11  1  0  0  0  0
 16  9  1  0  0  0  0
 17 16  2  0  0  0  0
 18  1  1  0  0  0  0
 18 19  2  0  0  0  0
 20 18  1  0  0  0  0
 21 24  1  0  0  0  0
 23 24  2  0  0  0  0
 24 20  1  0  0  0  0
 24 22  2  0  0  0  0
 25 26  1  0  0  0  0
 26 27  1  0  0  0  0
 27 28  1  0  0  0  0
M  END
>  <MODEL>
5

>  <REMARK>
 VINA RESULT:      -8.1      3.543      7.804
  Name = 
  6 active torsions:
  status: ('A' for Active; 'I' for Inactive)
    1  A    between atoms: C_1  and  C_5
    2  A    between atoms: C_4  and  C_11
    3  A    between atoms: C_9  and  C_27
    4  A    between atoms: C_11  and  N_28
    5  A    between atoms: C_13  and  N_28
    6  A    between atoms: S_20  and  N_25
                            x       y       z     vdW  Elec       q    Type
                         _______ _______ _______ _____ _____    ______ ____

>  <TORSDO>
F 6

$$$$
=
 OpenBabel10232410033D

 28 30  0  0  0  0  0  0  0  0999 V2000
  184.6980  178.8630  140.4160 C   0  0  0  0  0  0  0  0  0  0  0  0
  186.8150  178.6910  140.6100 C   0  0  0  0  0  0  0  0  0  0  0  0
  183.9170  178.0370  142.7360 C   0  0  0  0  0  1  0  0  0  0  0  0
  184.9310  178.3670  141.6930 C   0  0  0  0  0  0  0  0  0  0  0  0
  185.8450  179.0420  139.7970 O   0  0  0  0  0  0  0  0  0  0  0  0
  186.3060  178.2710  141.8250 C   0  0  0  0  0  0  0  0  0  0  0  0
  188.1260  176.8850  142.7650 C   0  0  0  0  0  3  0  0  0  0  0  0
  187.5280  177.6040  145.3810 C   0  0  0  0  0  0  0  0  0  0  0  0
  187.0590  177.7610  142.9940 C   0  0  0  0  0  0  0  0  0  0  0  0
  186.1410  178.7870  146.9840 C   0  0  0  0  0  3  0  0  0  0  0  0
  187.2260  177.9490  146.7100 C   0  0  0  0  0  0  0  0  0  0  0  0
  188.5640  176.7640  145.1070 N   0  0  0  0  0  0  0  0  0  0  0  0
  188.8720  176.3970  143.8360 C   0  0  0  0  0  3  0  0  0  0  0  0
  185.3540  179.2840  145.9430 C   0  0  0  0  0  3  0  0  0  0  0  0
  188.0360  177.4300  147.8500 C   0  0  0  0  0  1  0  0  0  0  0  0
  186.7410  178.1210  144.3220 C   0  0  0  0  0  0  0  0  0  0  0  0
  185.6490  178.9500  144.6210 C   0  0  0  0  0  3  0  0  0  0  0  0
  183.3970  179.1600  139.7950 C   0  0  0  0  0  0  0  0  0  0  0  0
  182.5060  178.2690  139.7760 O   0  0  0  0  0  0  0  0  0  0  0  0
  183.1400  180.4430  139.2210 N   0  0  0  0  0  2  0  0  0  0  0  0
  180.3250  180.6300  139.6660 C   0  0  0  0  0  1  0  0  0  0  0  0
  181.6510  182.2750  138.0220 O   0  0  0  0  0  0  0  0  0  0  0  0
  181.3800  179.9370  137.3070 O   0  0  0  0  0  0  0  0  0  0  0  0
  181.6280  180.8440  138.4790 S   0  0  0  0  0  0  0  0  0  0  0  0
  188.1970  178.7130  140.2560 N   0  0  0  0  0  2  0  0  0  0  0  0
  188.7750  177.6900  139.4050 C   0  0  0  0  0  2  0  0  0  0  0  0
  188.6170  178.0940  137.9550 C   0  0  0  0  0  2  0  0  0  0  0  0
  188.9190  179.5060  137.8110 N   0  0  0  0  0  1  0  0  0  0  0  0
  1  4  2  0  0  0  0
  2  6  2  0  0  0  0
  4  6  1  0  0  0  0
  4  3  1  0  0  0  0
  5  1  1  0  0  0  0
  5  2  1  0  0  0  0
  6  9  1  0  0  0  0
  7  9  2  0  0  0  0
  7 13  1  0  0  0  0
  8 11  1  0  0  0  0
  9 16  1  0  0  0  0
 11 10  2  0  0  0  0
 11 15  1  0  0  0  0
 12  8  1  0  0  0  0
 13 12  2  0  0  0  0
 14 10  1  0  0  0  0
 16 17  1  0  0  0  0
 16  8  2  0  0  0  0
 17 14  2  0  0  0  0
 18  1  1  0  0  0  0
 19 18  2  0  0  0  0
 20 18  1  0  0  0  0
 22 24  2  0  0  0  0
 23 24  2  0  0  0  0
 24 20  1  0  0  0  0
 24 21  1  0  0  0  0
 25  2  1  0  0  0  0
 26 25  1  0  0  0  0
 27 26  1  0  0  0  0
 28 27  1  0  0  0  0
M  END
>  <MODEL>
6

>  <REMARK>
 VINA RESULT:      -8.1      3.552      5.824
  Name = 
  6 active torsions:
  status: ('A' for Active; 'I' for Inactive)
    1  A    between atoms: C_1  and  C_5
    2  A    between atoms: C_4  and  C_11
    3  A    between atoms: C_9  and  C_27
    4  A    between atoms: C_11  and  N_28
    5  A    between atoms: C_13  and  N_28
    6  A    between atoms: S_20  and  N_25
                            x       y       z     vdW  Elec       q    Type
                         _______ _______ _______ _____ _____    ______ ____

>  <TORSDO>
F 6

$$$$
=
 OpenBabel10232410033D

 28 30  0  0  0  0  0  0  0  0999 V2000
  188.1520  177.8590  140.7460 C   0  0  0  0  0  0  0  0  0  0  0  0
  188.6710  176.7680  142.5040 C   0  0  0  0  0  0  0  0  0  0  0  0
  186.3720  179.4850  141.6760 C   0  0  0  0  0  1  0  0  0  0  0  0
  187.3660  178.3760  141.7690 C   0  0  0  0  0  0  0  0  0  0  0  0
  188.9160  176.9000  141.2200 O   0  0  0  0  0  0  0  0  0  0  0  0
  187.7140  177.6800  142.9130 C   0  0  0  0  0  0  0  0  0  0  0  0
  185.7520  178.0230  144.3790 C   0  0  0  0  0  3  0  0  0  0  0  0
  187.2780  177.9350  146.6990 C   0  0  0  0  0  0  0  0  0  0  0  0
  187.1340  177.8350  144.2670 C   0  0  0  0  0  0  0  0  0  0  0  0
  189.4300  177.7630  147.8080 C   0  0  0  0  0  3  0  0  0  0  0  0
  188.0420  177.9080  147.8790 C   0  0  0  0  0  0  0  0  0  0  0  0
  185.9290  178.1060  146.7560 N   0  0  0  0  0  0  0  0  0  0  0  0
  185.1640  178.1550  145.6350 C   0  0  0  0  0  3  0  0  0  0  0  0
  190.0650  177.6480  146.5690 C   0  0  0  0  0  3  0  0  0  0  0  0
  187.4020  178.0390  149.2200 C   0  0  0  0  0  1  0  0  0  0  0  0
  187.9170  177.8010  145.4410 C   0  0  0  0  0  0  0  0  0  0  0  0
  189.3140  177.6700  145.3930 C   0  0  0  0  0  3  0  0  0  0  0  0
  188.1700  178.2750  139.3340 C   0  0  0  0  0  0  0  0  0  0  0  0
  188.9820  179.1640  138.9640 O   0  0  0  0  0  0  0  0  0  0  0  0
  187.2780  177.6800  138.3890 N   0  0  0  0  0  2  0  0  0  0  0  0
  185.8850  177.3370  135.9190 C   0  0  0  0  0  1  0  0  0  0  0  0
  187.1050  179.6210  136.5970 O   0  0  0  0  0  0  0  0  0  0  0  0
  188.5340  177.6930  136.0570 O   0  0  0  0  0  0  0  0  0  0  0  0
  187.2580  178.1320  136.7180 S   0  0  0  0  0  0  0  0  0  0  0  0
  189.2900  175.7890  143.3370 N   0  0  0  0  0  2  0  0  0  0  0  0
  190.6190  175.2840  143.0490 C   0  0  0  0  0  2  0  0  0  0  0  0
  191.6500  176.1770  143.7050 C   0  0  0  0  0  2  0  0  0  0  0  0
  191.9810  177.2700  142.8100 N   0  0  0  0  0  1  0  0  0  0  0  0
  1  5  1  0  0  0  0
  1  4  2  0  0  0  0
  2  6  2  0  0  0  0
  2 25  1  0  0  0  0
  3  4  1  0  0  0  0
  4  6  1  0  0  0  0
  5  2  1  0  0  0  0
  6  9  1  0  0  0  0
  7 13  1  0  0  0  0
  8 12  1  0  0  0  0
  8 11  1  0  0  0  0
  9  7  2  0  0  0  0
  9 16  1  0  0  0  0
 10 11  2  0  0  0  0
 11 15  1  0  0  0  0
 13 12  2  0  0  0  0
 14 10  1  0  0  0  0
 16  8  2  0  0  0  0
 17 16  1  0  0  0  0
 17 14  2  0  0  0  0
 18  1  1  0  0  0  0
 19 18  2  0  0  0  0
 20 18  1  0  0  0  0
 21 24  1  0  0  0  0
 22 24  2  0  0  0  0
 23 24  2  0  0  0  0
 24 20  1  0  0  0  0
 26 25  1  0  0  0  0
 26 27  1  0  0  0  0
 28 27  1  0  0  0  0
M  END
>  <MODEL>
7

>  <REMARK>
 VINA RESULT:      -8.0      2.280      3.697
  Name = 
  6 active torsions:
  status: ('A' for Active; 'I' for Inactive)
    1  A    between atoms: C_1  and  C_5
    2  A    between atoms: C_4  and  C_11
    3  A    between atoms: C_9  and  C_27
    4  A    between atoms: C_11  and  N_28
    5  A    between atoms: C_13  and  N_28
    6  A    between atoms: S_20  and  N_25
                            x       y       z     vdW  Elec       q    Type
                         _______ _______ _______ _____ _____    ______ ____

>  <TORSDO>
F 6

$$$$
=
 OpenBabel10232410033D

 28 30  0  0  0  0  0  0  0  0999 V2000
  187.7560  178.2450  139.8090 C   0  0  0  0  0  0  0  0  0  0  0  0
  186.5570  178.7890  141.4880 C   0  0  0  0  0  0  0  0  0  0  0  0
  189.5740  176.8010  140.9430 C   0  0  0  0  0  1  0  0  0  0  0  0
  188.3530  177.6580  140.9180 C   0  0  0  0  0  0  0  0  0  0  0  0
  186.6880  178.9140  140.1870 O   0  0  0  0  0  0  0  0  0  0  0  0
  187.5660  177.9980  142.0060 C   0  0  0  0  0  0  0  0  0  0  0  0
  186.7000  177.2720  144.2060 C   0  0  0  0  0  3  0  0  0  0  0  0
  189.2210  177.2930  145.3750 C   0  0  0  0  0  0  0  0  0  0  0  0
  187.8000  177.6440  143.4240 C   0  0  0  0  0  0  0  0  0  0  0  0
  191.6070  177.7190  145.2470 C   0  0  0  0  0  3  0  0  0  0  0  0
  190.4890  177.3140  145.9820 C   0  0  0  0  0  0  0  0  0  0  0  0
  188.1220  176.9280  146.0910 N   0  0  0  0  0  0  0  0  0  0  0  0
  186.8800  176.9150  145.5400 C   0  0  0  0  0  3  0  0  0  0  0  0
  191.4710  178.1070  143.9120 C   0  0  0  0  0  3  0  0  0  0  0  0
  190.6730  176.9190  147.4080 C   0  0  0  0  0  1  0  0  0  0  0  0
  189.0830  177.6680  144.0150 C   0  0  0  0  0  0  0  0  0  0  0  0
  190.2170  178.0840  143.3010 C   0  0  0  0  0  3  0  0  0  0  0  0
  188.2010  178.1690  138.4080 C   0  0  0  0  0  0  0  0  0  0  0  0
  188.7640  179.1670  137.8860 O   0  0  0  0  0  0  0  0  0  0  0  0
  188.0000  176.9780  137.6450 N   0  0  0  0  0  2  0  0  0  0  0  0
  188.0250  175.2390  135.3780 C   0  0  0  0  0  1  0  0  0  0  0  0
  187.8450  177.9010  135.1680 O   0  0  0  0  0  0  0  0  0  0  0  0
  189.9980  176.9690  135.9060 O   0  0  0  0  0  0  0  0  0  0  0  0
  188.5040  176.8350  135.9950 S   0  0  0  0  0  0  0  0  0  0  0  0
  185.5290  179.4210  142.2490 N   0  0  0  0  0  2  0  0  0  0  0  0
  184.1630  178.9320  142.2250 C   0  0  0  0  0  2  0  0  0  0  0  0
  183.5640  179.0480  143.6100 C   0  0  0  0  0  2  0  0  0  0  0  0
  184.3910  179.9200  144.4230 N   0  0  0  0  0  1  0  0  0  0  0  0
  1  5  1  0  0  0  0
  1  4  2  0  0  0  0
  2  6  2  0  0  0  0
  2 25  1  0  0  0  0
  4  3  1  0  0  0  0
  4  6  1  0  0  0  0
  5  2  1  0  0  0  0
  6  9  1  0  0  0  0
  7 13  1  0  0  0  0
  8 11  1  0  0  0  0
  8 12  1  0  0  0  0
  9 16  1  0  0  0  0
  9  7  2  0  0  0  0
 10 11  2  0  0  0  0
 11 15  1  0  0  0  0
 13 12  2  0  0  0  0
 14 10  1  0  0  0  0
 16  8  2  0  0  0  0
 17 14  2  0  0  0  0
 17 16  1  0  0  0  0
 18  1  1  0  0  0  0
 19 18  2  0  0  0  0
 20 18  1  0  0  0  0
 21 24  1  0  0  0  0
 22 24  2  0  0  0  0
 23 24  2  0  0  0  0
 24 20  1  0  0  0  0
 26 25  1  0  0  0  0
 26 27  1  0  0  0  0
 27 28  1  0  0  0  0
M  END
>  <MODEL>
8

>  <REMARK>
 VINA RESULT:      -8.0      1.935      2.465
  Name = 
  6 active torsions:
  status: ('A' for Active; 'I' for Inactive)
    1  A    between atoms: C_1  and  C_5
    2  A    between atoms: C_4  and  C_11
    3  A    between atoms: C_9  and  C_27
    4  A    between atoms: C_11  and  N_28
    5  A    between atoms: C_13  and  N_28
    6  A    between atoms: S_20  and  N_25
                            x       y       z     vdW  Elec       q    Type
                         _______ _______ _______ _____ _____    ______ ____

>  <TORSDO>
F 6

$$$$
=
 OpenBabel10232410033D

 28 30  0  0  0  0  0  0  0  0999 V2000
  188.2030  177.9160  141.7200 C   0  0  0  0  0  0  0  0  0  0  0  0
  188.9360  178.4860  139.8000 C   0  0  0  0  0  0  0  0  0  0  0  0
  190.0520  176.2850  142.4950 C   0  0  0  0  0  1  0  0  0  0  0  0
  189.3950  177.2240  141.5400 C   0  0  0  0  0  0  0  0  0  0  0  0
  187.9590  178.6570  140.6620 O   0  0  0  0  0  0  0  0  0  0  0  0
  189.8790  177.6060  140.3000 C   0  0  0  0  0  0  0  0  0  0  0  0
  192.3370  177.6630  140.0260 C   0  0  0  0  0  3  0  0  0  0  0  0
  192.3120  175.7160  138.0440 C   0  0  0  0  0  0  0  0  0  0  0  0
  191.1080  177.1210  139.6310 C   0  0  0  0  0  0  0  0  0  0  0  0
  191.1010  174.2070  136.5780 C   0  0  0  0  0  3  0  0  0  0  0  0
  192.3110  174.7420  137.0290 C   0  0  0  0  0  0  0  0  0  0  0  0
  193.4830  176.2650  138.4690 N   0  0  0  0  0  0  0  0  0  0  0  0
  193.5180  177.2200  139.4340 C   0  0  0  0  0  3  0  0  0  0  0  0
  189.8910  174.6350  137.1280 C   0  0  0  0  0  3  0  0  0  0  0  0
  193.5810  174.2670  136.4090 C   0  0  0  0  0  1  0  0  0  0  0  0
  191.0870  176.1400  138.6160 C   0  0  0  0  0  0  0  0  0  0  0  0
  189.8830  175.5980  138.1380 C   0  0  0  0  0  3  0  0  0  0  0  0
  187.3080  177.8660  142.8880 C   0  0  0  0  0  0  0  0  0  0  0  0
  186.0720  177.7020  142.7110 O   0  0  0  0  0  0  0  0  0  0  0  0
  187.8310  178.0020  144.2110 N   0  0  0  0  0  2  0  0  0  0  0  0
  187.8530  177.9330  147.0670 C   0  0  0  0  0  1  0  0  0  0  0  0
  185.9420  179.1650  145.6550 O   0  0  0  0  0  0  0  0  0  0  0  0
  185.9820  176.7070  145.5970 O   0  0  0  0  0  0  0  0  0  0  0  0
  186.8250  177.9510  145.6190 S   0  0  0  0  0  0  0  0  0  0  0  0
  188.9820  179.1040  138.5150 N   0  0  0  0  0  2  0  0  0  0  0  0
  188.4150  178.4580  137.3460 C   0  0  0  0  0  2  0  0  0  0  0  0
  186.9210  178.3030  137.5320 C   0  0  0  0  0  2  0  0  0  0  0  0
  186.5510  176.9140  137.3320 N   0  0  0  0  0  1  0  0  0  0  0  0
  1 18  1  0  0  0  0
  2  6  2  0  0  0  0
  2  5  1  0  0  0  0
  4  1  2  0  0  0  0
  4  3  1  0  0  0  0
  5  1  1  0  0  0  0
  6  4  1  0  0  0  0
  8 12  2  0  0  0  0
  8 16  1  0  0  0  0
  9  7  1  0  0  0  0
  9  6  1  0  0  0  0
 10 11  2  0  0  0  0
 10 14  1  0  0  0  0
 11  8  1  0  0  0  0
 12 13  1  0  0  0  0
 13  7  2  0  0  0  0
 14 17  2  0  0  0  0
 15 11  1  0  0  0  0
 16  9  2  0  0  0  0
 17 16  1  0  0  0  0
 18 20  1  0  0  0  0
 19 18  2  0  0  0  0
 20 24  1  0  0  0  0
 23 24  2  0  0  0  0
 24 22  2  0  0  0  0
 24 21  1  0  0  0  0
 25  2  1  0  0  0  0
 26 27  1  0  0  0  0
 26 25  1  0  0  0  0
 28 27  1  0  0  0  0
M  END
>  <MODEL>
9

>  <REMARK>
 VINA RESULT:      -7.6      3.296      7.695
  Name = 
  6 active torsions:
  status: ('A' for Active; 'I' for Inactive)
    1  A    between atoms: C_1  and  C_5
    2  A    between atoms: C_4  and  C_11
    3  A    between atoms: C_9  and  C_27
    4  A    between atoms: C_11  and  N_28
    5  A    between atoms: C_13  and  N_28
    6  A    between atoms: S_20  and  N_25
                            x       y       z     vdW  Elec       q    Type
                         _______ _______ _______ _____ _____    ______ ____

>  <TORSDO>
F 6

$$$$
