=
 OpenBabel10232409353D

 33 38  0  0  1  0  0  0  0  0999 V2000
  184.8540  178.3690  142.4870 C   0  0  0  0  0  0  0  0  0  0  0  0
  183.8880  178.5450  144.7170 C   0  0  0  0  0  3  0  0  0  0  0  0
  187.2180  177.8680  142.2190 C   0  0  0  0  0  0  0  0  0  0  0  0
  186.4590  177.9750  145.9340 C   0  0  0  0  0  3  0  0  0  0  0  0
  189.9640  177.2240  146.0750 O   0  0  0  0  0  0  0  0  0  0  0  0
  188.2910  177.6510  141.4160 N   0  0  0  0  0  0  0  0  0  0  0  0
  185.9690  178.1430  141.6650 C   0  0  0  0  0  3  0  0  0  0  0  0
  186.2660  178.0370  144.4640 C   0  0  0  0  0  0  0  0  0  0  0  0
  189.5150  177.3820  141.9430 C   0  0  0  0  0  3  0  0  0  0  0  0
  188.8240  177.4740  145.5990 C   0  0  0  0  0  0  0  0  0  0  0  0
  185.0030  178.3160  143.9000 C   0  0  0  0  0  0  0  0  0  0  0  0
  187.3670  177.8150  143.6160 C   0  0  0  0  0  0  0  0  0  0  0  0
  182.4950  178.8760  142.7700 C   0  0  0  0  0  3  0  0  0  0  0  0
  183.5900  178.6460  141.9240 C   0  0  0  0  0  0  0  0  0  0  0  0
  182.6420  178.8250  144.1560 C   0  0  0  0  0  3  0  0  0  0  0  0
  187.6500  177.7120  146.4850 C   0  0  0  0  0  0  0  0  0  0  0  0
  189.6830  177.3260  143.2920 N   0  0  0  0  0  0  0  0  0  0  0  0
  188.6380  177.5350  144.1370 C   0  0  0  0  0  0  0  0  0  0  0  0
  188.5530  178.4120  148.6780 C   0  0  0  0  0  2  0  0  0  0  0  0
  187.7170  177.6760  147.9570 C   0  0  0  0  0  3  0  0  0  0  0  0
  183.1640  177.3630  139.7950 C   0  0  0  0  0  1  0  0  0  0  0  0
  183.4110  178.7280  140.4290 C   0  0  1  0  0  3  0  0  0  0  0  0
  181.4060  180.6460  138.2830 N   0  0  0  0  0  0  0  0  0  0  0  0
  182.6240  180.2230  138.7070 O   0  0  0  0  0  0  0  0  0  0  0  0
  180.9440  179.2750  140.0810 C   0  0  0  0  0  2  0  0  0  0  0  0
  180.2890  180.0160  138.9540 C   0  0  0  0  0  2  0  0  0  0  0  0
  182.3810  179.7840  140.0190 C   0  0  1  0  0  3  0  0  0  0  0  0
  181.6140  184.2720  137.3590 C   0  0  0  0  0  3  0  0  0  0  0  0
  180.9610  184.2700  136.1240 C   0  0  0  0  0  3  0  0  0  0  0  0
  180.6070  181.8830  136.3160 C   0  0  0  0  0  3  0  0  0  0  0  0
  180.4570  183.0760  135.6020 C   0  0  0  0  0  3  0  0  0  0  0  0
  181.2640  181.8740  137.5550 C   0  0  0  0  0  0  0  0  0  0  0  0
  181.7640  183.0790  138.0720 C   0  0  0  0  0  3  0  0  0  0  0  0
  1 11  1  0  0  0  0
  3 12  1  0  0  0  0
  4 16  2  0  0  0  0
  6  9  2  0  0  0  0
  6  3  1  0  0  0  0
  7  3  2  0  0  0  0
  7  1  1  0  0  0  0
  8  4  1  0  0  0  0
  9 17  1  0  0  0  0
 10  5  2  0  0  0  0
 10 16  1  0  0  0  0
 11  8  1  0  0  0  0
 11  2  2  0  0  0  0
 12 18  1  0  0  0  0
 12  8  2  0  0  0  0
 13 15  2  0  0  0  0
 14  1  2  0  0  0  0
 14 13  1  0  0  0  0
 15  2  1  0  0  0  0
 16 20  1  0  0  0  0
 17 18  2  0  0  0  0
 18 10  1  0  0  0  0
 20 19  2  0  0  0  0
 22 21  1  1  0  0  0
 22 14  1  0  0  0  0
 23 24  1  0  0  0  0
 23 26  1  0  0  0  0
 24 27  1  0  0  0  0
 26 25  1  0  0  0  0
 27 25  1  0  0  0  0
 27 22  1  6  0  0  0
 28 33  1  0  0  0  0
 29 28  2  0  0  0  0
 30 32  1  0  0  0  0
 31 29  1  0  0  0  0
 31 30  2  0  0  0  0
 32 33  2  0  0  0  0
 32 23  1  0  0  0  0
M  END
>  <MODEL>
1

>  <REMARK>
 VINA RESULT:     -10.6      0.000      0.000
  Name = 
  4 active torsions:
  status: ('A' for Active; 'I' for Inactive)
    1  A    between atoms: N_2  and  C_19
    2  A    between atoms: C_23  and  C_33
    3  A    between atoms: C_25  and  C_33
    4  A    between atoms: C_27  and  C_28
                            x       y       z     vdW  Elec       q    Type
                         _______ _______ _______ _____ _____    ______ ____

>  <TORSDO>
F 4

$$$$
=
 OpenBabel10232409353D

 33 38  0  0  1  0  0  0  0  0999 V2000
  188.0640  177.7800  141.6370 C   0  0  0  0  0  0  0  0  0  0  0  0
  189.8290  177.1590  143.1990 C   0  0  0  0  0  3  0  0  0  0  0  0
  185.8700  178.4170  142.4690 C   0  0  0  0  0  0  0  0  0  0  0  0
  188.0610  177.6010  145.4560 C   0  0  0  0  0  3  0  0  0  0  0  0
  185.0280  178.4540  147.1710 O   0  0  0  0  0  0  0  0  0  0  0  0
  184.5950  178.8200  142.2340 N   0  0  0  0  0  0  0  0  0  0  0  0
  186.7440  178.1980  141.4050 C   0  0  0  0  0  3  0  0  0  0  0  0
  187.6280  177.8000  144.0500 C   0  0  0  0  0  0  0  0  0  0  0  0
  183.7320  179.0380  143.2620 C   0  0  0  0  0  3  0  0  0  0  0  0
  185.8370  178.2490  146.2270 C   0  0  0  0  0  0  0  0  0  0  0  0
  188.5110  177.5790  142.9720 C   0  0  0  0  0  0  0  0  0  0  0  0
  186.3100  178.2190  143.7890 C   0  0  0  0  0  0  0  0  0  0  0  0
  190.2600  177.1340  140.8210 C   0  0  0  0  0  3  0  0  0  0  0  0
  188.9490  177.5600  140.5590 C   0  0  0  0  0  0  0  0  0  0  0  0
  190.6970  176.9370  142.1300 C   0  0  0  0  0  3  0  0  0  0  0  0
  187.2360  177.8060  146.4890 C   0  0  0  0  0  0  0  0  0  0  0  0
  184.1360  178.8520  144.5480 N   0  0  0  0  0  0  0  0  0  0  0  0
  185.4030  178.4490  144.8330 C   0  0  0  0  0  0  0  0  0  0  0  0
  188.9130  178.1060  148.2810 C   0  0  0  0  0  2  0  0  0  0  0  0
  187.7800  177.5740  147.8400 C   0  0  0  0  0  3  0  0  0  0  0  0
  189.1920  178.9110  138.4450 C   0  0  0  0  0  1  0  0  0  0  0  0
  188.4920  177.7460  139.1350 C   0  0  1  0  0  3  0  0  0  0  0  0
  187.5320  175.3790  136.7290 N   0  0  0  0  0  0  0  0  0  0  0  0
  187.2650  176.1310  137.8280 O   0  0  0  0  0  0  0  0  0  0  0  0
  189.5030  176.5070  137.1480 C   0  0  0  0  0  2  0  0  0  0  0  0
  188.8260  175.6360  136.1320 C   0  0  0  0  0  2  0  0  0  0  0  0
  188.5400  176.4450  138.3290 C   0  0  1  0  0  3  0  0  0  0  0  0
  185.0750  172.5700  137.0630 C   0  0  0  0  0  3  0  0  0  0  0  0
  185.3580  171.8310  135.9110 C   0  0  0  0  0  3  0  0  0  0  0  0
  187.0670  173.4330  135.3030 C   0  0  0  0  0  3  0  0  0  0  0  0
  186.3540  172.2620  135.0320 C   0  0  0  0  0  3  0  0  0  0  0  0
  186.7890  174.1830  136.4550 C   0  0  0  0  0  0  0  0  0  0  0  0
  185.7880  173.7410  137.3350 C   0  0  0  0  0  3  0  0  0  0  0  0
  1 11  1  0  0  0  0
  3 12  1  0  0  0  0
  4 16  2  0  0  0  0
  6  3  2  0  0  0  0
  6  9  1  0  0  0  0
  7  1  2  0  0  0  0
  7  3  1  0  0  0  0
  8  4  1  0  0  0  0
  9 17  2  0  0  0  0
 10 16  1  0  0  0  0
 10  5  2  0  0  0  0
 11  2  1  0  0  0  0
 11  8  2  0  0  0  0
 12  8  1  0  0  0  0
 12 18  2  0  0  0  0
 13 15  1  0  0  0  0
 14 13  2  0  0  0  0
 14  1  1  0  0  0  0
 15  2  2  0  0  0  0
 16 20  1  0  0  0  0
 17 18  1  0  0  0  0
 18 10  1  0  0  0  0
 20 19  2  0  0  0  0
 22 21  1  6  0  0  0
 22 14  1  0  0  0  0
 23 24  1  0  0  0  0
 24 27  1  0  0  0  0
 25 27  1  0  0  0  0
 26 23  1  0  0  0  0
 26 25  1  0  0  0  0
 27 22  1  6  0  0  0
 28 33  1  0  0  0  0
 29 28  2  0  0  0  0
 30 32  1  0  0  0  0
 31 30  2  0  0  0  0
 31 29  1  0  0  0  0
 32 23  1  0  0  0  0
 32 33  2  0  0  0  0
M  END
>  <MODEL>
2

>  <REMARK>
 VINA RESULT:     -10.5      4.408      6.929
  Name = 
  4 active torsions:
  status: ('A' for Active; 'I' for Inactive)
    1  A    between atoms: N_2  and  C_19
    2  A    between atoms: C_23  and  C_33
    3  A    between atoms: C_25  and  C_33
    4  A    between atoms: C_27  and  C_28
                            x       y       z     vdW  Elec       q    Type
                         _______ _______ _______ _____ _____    ______ ____

>  <TORSDO>
F 4

$$$$
=
 OpenBabel10232409353D

 33 38  0  0  1  0  0  0  0  0999 V2000
  186.5190  178.3340  143.9020 C   0  0  0  0  0  0  0  0  0  0  0  0
  184.8150  178.2850  145.6440 C   0  0  0  0  0  3  0  0  0  0  0  0
  185.8760  178.6300  141.5760 C   0  0  0  0  0  0  0  0  0  0  0  0
  182.7170  178.6650  143.6760 C   0  0  0  0  0  3  0  0  0  0  0  0
  181.2650  179.1230  140.4280 O   0  0  0  0  0  0  0  0  0  0  0  0
  186.2170  178.7400  140.2670 N   0  0  0  0  0  0  0  0  0  0  0  0
  186.8610  178.4490  142.5450 C   0  0  0  0  0  3  0  0  0  0  0  0
  184.1530  178.5870  143.3090 C   0  0  0  0  0  0  0  0  0  0  0  0
  185.2660  178.9170  139.3100 C   0  0  0  0  0  3  0  0  0  0  0  0
  182.1360  178.9590  141.3230 C   0  0  0  0  0  0  0  0  0  0  0  0
  185.1520  178.4040  144.2880 C   0  0  0  0  0  0  0  0  0  0  0  0
  184.5250  178.6990  141.9560 C   0  0  0  0  0  0  0  0  0  0  0  0
  187.1460  178.0310  146.2300 C   0  0  0  0  0  3  0  0  0  0  0  0
  187.5180  178.1520  144.8830 C   0  0  0  0  0  0  0  0  0  0  0  0
  185.8060  178.0990  146.6080 C   0  0  0  0  0  3  0  0  0  0  0  0
  181.7580  178.8380  142.7590 C   0  0  0  0  0  0  0  0  0  0  0  0
  183.9520  178.9870  139.6550 N   0  0  0  0  0  0  0  0  0  0  0  0
  183.5620  178.8830  140.9540 C   0  0  0  0  0  0  0  0  0  0  0  0
  179.9820  178.4680  144.4400 C   0  0  0  0  0  2  0  0  0  0  0  0
  180.3670  178.8990  143.2460 C   0  0  0  0  0  3  0  0  0  0  0  0
  189.8570  177.6140  145.6560 C   0  0  0  0  0  1  0  0  0  0  0  0
  188.9720  178.0540  144.4960 C   0  0  1  0  0  3  0  0  0  0  0  0
  190.3990  177.1310  141.4260 N   0  0  0  0  0  0  0  0  0  0  0  0
  189.7470  178.0280  142.2110 O   0  0  0  0  0  0  0  0  0  0  0  0
  190.1010  176.0290  143.4320 C   0  0  0  0  0  2  0  0  0  0  0  0
  190.8030  175.9230  142.1120 C   0  0  0  0  0  2  0  0  0  0  0  0
  189.1850  177.2310  143.2230 C   0  0  1  0  0  3  0  0  0  0  0  0
  189.2720  178.0700  137.9780 C   0  0  0  0  0  3  0  0  0  0  0  0
  190.1600  177.3260  137.1960 C   0  0  0  0  0  3  0  0  0  0  0  0
  191.2010  176.4610  139.2030 C   0  0  0  0  0  3  0  0  0  0  0  0
  191.1240  176.5220  137.8080 C   0  0  0  0  0  3  0  0  0  0  0  0
  190.3170  177.2060  139.9960 C   0  0  0  0  0  0  0  0  0  0  0  0
  189.3490  178.0100  139.3720 C   0  0  0  0  0  3  0  0  0  0  0  0
  1 11  1  0  0  0  0
  1 14  2  0  0  0  0
  2 15  1  0  0  0  0
  3 12  1  0  0  0  0
  3  7  2  0  0  0  0
  5 10  2  0  0  0  0
  6  3  1  0  0  0  0
  7  1  1  0  0  0  0
  8  4  1  0  0  0  0
  8 11  1  0  0  0  0
  9 17  1  0  0  0  0
  9  6  2  0  0  0  0
 10 16  1  0  0  0  0
 11  2  2  0  0  0  0
 12  8  2  0  0  0  0
 13 15  2  0  0  0  0
 14 13  1  0  0  0  0
 16 20  1  0  0  0  0
 16  4  2  0  0  0  0
 17 18  2  0  0  0  0
 18 10  1  0  0  0  0
 18 12  1  0  0  0  0
 20 19  2  0  0  0  0
 22 14  1  0  0  0  0
 22 21  1  1  0  0  0
 23 26  1  0  0  0  0
 23 24  1  0  0  0  0
 24 27  1  0  0  0  0
 26 25  1  0  0  0  0
 27 25  1  0  0  0  0
 27 22  1  1  0  0  0
 28 33  1  0  0  0  0
 29 31  1  0  0  0  0
 29 28  2  0  0  0  0
 30 32  1  0  0  0  0
 31 30  2  0  0  0  0
 32 23  1  0  0  0  0
 33 32  2  0  0  0  0
M  END
>  <MODEL>
3

>  <REMARK>
 VINA RESULT:      -9.9      3.134      7.749
  Name = 
  4 active torsions:
  status: ('A' for Active; 'I' for Inactive)
    1  A    between atoms: N_2  and  C_19
    2  A    between atoms: C_23  and  C_33
    3  A    between atoms: C_25  and  C_33
    4  A    between atoms: C_27  and  C_28
                            x       y       z     vdW  Elec       q    Type
                         _______ _______ _______ _____ _____    ______ ____

>  <TORSDO>
F 4

$$$$
=
 OpenBabel10232409353D

 33 38  0  0  1  0  0  0  0  0999 V2000
  188.5150  177.8910  141.0230 C   0  0  0  0  0  0  0  0  0  0  0  0
  190.6530  177.2530  142.0050 C   0  0  0  0  0  3  0  0  0  0  0  0
  186.5740  178.2350  142.4470 C   0  0  0  0  0  0  0  0  0  0  0  0
  189.4980  177.2800  144.6670 C   0  0  0  0  0  3  0  0  0  0  0  0
  186.9620  177.6640  147.1750 O   0  0  0  0  0  0  0  0  0  0  0  0
  185.2610  178.5490  142.5900 N   0  0  0  0  0  0  0  0  0  0  0  0
  187.1580  178.2150  141.1820 C   0  0  0  0  0  3  0  0  0  0  0  0
  188.7100  177.5990  143.4510 C   0  0  0  0  0  0  0  0  0  0  0  0
  184.6790  178.5720  143.8190 C   0  0  0  0  0  3  0  0  0  0  0  0
  187.5140  177.6400  146.0420 C   0  0  0  0  0  0  0  0  0  0  0  0
  189.2990  177.5800  142.1680 C   0  0  0  0  0  0  0  0  0  0  0  0
  187.3480  177.9270  143.5800 C   0  0  0  0  0  0  0  0  0  0  0  0
  190.4610  177.5360  139.6130 C   0  0  0  0  0  3  0  0  0  0  0  0
  189.1050  177.8730  139.7410 C   0  0  0  0  0  0  0  0  0  0  0  0
  191.2290  177.2310  140.7350 C   0  0  0  0  0  3  0  0  0  0  0  0
  188.9550  177.2930  145.8900 C   0  0  0  0  0  0  0  0  0  0  0  0
  185.4080  178.2780  144.9290 N   0  0  0  0  0  0  0  0  0  0  0  0
  186.7260  177.9580  144.8360 C   0  0  0  0  0  0  0  0  0  0  0  0
  191.1280  176.6710  146.8930 C   0  0  0  0  0  2  0  0  0  0  0  0
  189.8390  176.9590  147.0220 C   0  0  0  0  0  3  0  0  0  0  0  0
  189.0990  178.8980  137.4380 C   0  0  0  0  0  1  0  0  0  0  0  0
  188.2890  178.1780  138.5110 C   0  0  1  0  0  3  0  0  0  0  0  0
  186.0240  176.3510  136.5530 N   0  0  0  0  0  0  0  0  0  0  0  0
  186.2930  177.3290  137.4550 O   0  0  0  0  0  0  0  0  0  0  0  0
  188.3010  176.2030  136.8980 C   0  0  0  0  0  2  0  0  0  0  0  0
  187.1960  175.6890  136.0230 C   0  0  0  0  0  2  0  0  0  0  0  0
  187.5390  176.9520  137.9860 C   0  0  1  0  0  3  0  0  0  0  0  0
  183.1450  173.9910  136.9910 C   0  0  0  0  0  3  0  0  0  0  0  0
  182.1520  174.6450  136.2580 C   0  0  0  0  0  3  0  0  0  0  0  0
  183.7110  176.4180  135.7270 C   0  0  0  0  0  3  0  0  0  0  0  0
  182.4340  175.8580  135.6260 C   0  0  0  0  0  3  0  0  0  0  0  0
  184.7140  175.7710  136.4620 C   0  0  0  0  0  0  0  0  0  0  0  0
  184.4220  174.5510  137.0910 C   0  0  0  0  0  3  0  0  0  0  0  0
  1  7  2  0  0  0  0
  1 11  1  0  0  0  0
  2 11  1  0  0  0  0
  3  6  2  0  0  0  0
  3 12  1  0  0  0  0
  4 16  2  0  0  0  0
  6  9  1  0  0  0  0
  7  3  1  0  0  0  0
  8 12  1  0  0  0  0
  8  4  1  0  0  0  0
  9 17  2  0  0  0  0
 10  5  2  0  0  0  0
 11  8  2  0  0  0  0
 12 18  2  0  0  0  0
 13 14  2  0  0  0  0
 13 15  1  0  0  0  0
 14  1  1  0  0  0  0
 15  2  2  0  0  0  0
 16 10  1  0  0  0  0
 16 20  1  0  0  0  0
 18 17  1  0  0  0  0
 18 10  1  0  0  0  0
 19 20  2  0  0  0  0
 22 21  1  6  0  0  0
 22 14  1  0  0  0  0
 23 24  1  0  0  0  0
 24 27  1  0  0  0  0
 25 27  1  0  0  0  0
 26 23  1  0  0  0  0
 26 25  1  0  0  0  0
 27 22  1  6  0  0  0
 28 33  1  0  0  0  0
 29 28  2  0  0  0  0
 30 32  1  0  0  0  0
 31 30  2  0  0  0  0
 31 29  1  0  0  0  0
 32 23  1  0  0  0  0
 32 33  2  0  0  0  0
M  END
>  <MODEL>
4

>  <REMARK>
 VINA RESULT:      -9.9      4.173      5.942
  Name = 
  4 active torsions:
  status: ('A' for Active; 'I' for Inactive)
    1  A    between atoms: N_2  and  C_19
    2  A    between atoms: C_23  and  C_33
    3  A    between atoms: C_25  and  C_33
    4  A    between atoms: C_27  and  C_28
                            x       y       z     vdW  Elec       q    Type
                         _______ _______ _______ _____ _____    ______ ____

>  <TORSDO>
F 4

$$$$
=
 OpenBabel10232409353D

 33 38  0  0  1  0  0  0  0  0999 V2000
  185.4250  178.0530  143.3760 C   0  0  0  0  0  0  0  0  0  0  0  0
  184.8860  178.7870  145.6370 C   0  0  0  0  0  3  0  0  0  0  0  0
  187.6480  177.2110  142.8670 C   0  0  0  0  0  0  0  0  0  0  0  0
  187.5660  178.1430  146.5420 C   0  0  0  0  0  3  0  0  0  0  0  0
  190.9550  176.9930  146.3070 O   0  0  0  0  0  0  0  0  0  0  0  0
  188.5380  176.7050  141.9750 N   0  0  0  0  0  0  0  0  0  0  0  0
  186.3520  177.5280  142.4620 C   0  0  0  0  0  3  0  0  0  0  0  0
  187.1250  177.9390  145.1400 C   0  0  0  0  0  0  0  0  0  0  0  0
  189.8050  176.3900  142.3550 C   0  0  0  0  0  3  0  0  0  0  0  0
  189.7790  177.2880  145.9670 C   0  0  0  0  0  0  0  0  0  0  0  0
  185.8140  178.2600  144.7280 C   0  0  0  0  0  0  0  0  0  0  0  0
  188.0340  177.4160  144.2020 C   0  0  0  0  0  0  0  0  0  0  0  0
  183.2100  178.9040  143.9000 C   0  0  0  0  0  3  0  0  0  0  0  0
  184.1130  178.3730  142.9660 C   0  0  0  0  0  0  0  0  0  0  0  0
  183.5920  179.1080  145.2250 C   0  0  0  0  0  3  0  0  0  0  0  0
  188.8050  177.8440  146.9490 C   0  0  0  0  0  0  0  0  0  0  0  0
  190.2010  176.5800  143.6430 N   0  0  0  0  0  0  0  0  0  0  0  0
  189.3450  177.0840  144.5720 C   0  0  0  0  0  0  0  0  0  0  0  0
  188.2320  178.0380  149.3460 C   0  0  0  0  0  2  0  0  0  0  0  0
  189.1260  178.0900  148.3670 C   0  0  0  0  0  3  0  0  0  0  0  0
  182.2390  178.6090  141.2960 C   0  0  0  0  0  1  0  0  0  0  0  0
  183.6830  178.1810  141.5340 C   0  0  1  0  0  3  0  0  0  0  0  0
  185.6650  178.4100  138.6490 N   0  0  0  0  0  0  0  0  0  0  0  0
  185.3180  177.7870  139.8040 O   0  0  0  0  0  0  0  0  0  0  0  0
  184.0080  179.7430  139.5440 C   0  0  0  0  0  2  0  0  0  0  0  0
  184.8290  179.5400  138.3060 C   0  0  0  0  0  2  0  0  0  0  0  0
  184.6700  178.7950  140.5390 C   0  0  1  0  0  3  0  0  0  0  0  0
  189.3570  177.8620  138.3050 C   0  0  0  0  0  3  0  0  0  0  0  0
  189.4970  177.8610  136.9150 C   0  0  0  0  0  3  0  0  0  0  0  0
  187.1150  178.2170  136.6740 C   0  0  0  0  0  3  0  0  0  0  0  0
  188.3770  178.0380  136.1000 C   0  0  0  0  0  3  0  0  0  0  0  0
  186.9630  178.2180  138.0680 C   0  0  0  0  0  0  0  0  0  0  0  0
  188.0950  178.0410  138.8800 C   0  0  0  0  0  3  0  0  0  0  0  0
  1 11  1  0  0  0  0
  3 12  1  0  0  0  0
  4 16  2  0  0  0  0
  6  9  2  0  0  0  0
  6  3  1  0  0  0  0
  7  3  2  0  0  0  0
  7  1  1  0  0  0  0
  8  4  1  0  0  0  0
  9 17  1  0  0  0  0
 10  5  2  0  0  0  0
 10 16  1  0  0  0  0
 11  8  1  0  0  0  0
 11  2  2  0  0  0  0
 12 18  1  0  0  0  0
 12  8  2  0  0  0  0
 13 15  2  0  0  0  0
 14  1  2  0  0  0  0
 14 13  1  0  0  0  0
 15  2  1  0  0  0  0
 16 20  1  0  0  0  0
 17 18  2  0  0  0  0
 18 10  1  0  0  0  0
 20 19  2  0  0  0  0
 22 21  1  1  0  0  0
 22 14  1  0  0  0  0
 23 24  1  0  0  0  0
 24 27  1  0  0  0  0
 25 27  1  0  0  0  0
 26 23  1  0  0  0  0
 26 25  1  0  0  0  0
 27 22  1  1  0  0  0
 28 33  1  0  0  0  0
 29 28  2  0  0  0  0
 30 32  1  0  0  0  0
 31 30  2  0  0  0  0
 31 29  1  0  0  0  0
 32 23  1  0  0  0  0
 32 33  2  0  0  0  0
M  END
>  <MODEL>
5

>  <REMARK>
 VINA RESULT:      -9.8      2.759      4.198
  Name = 
  4 active torsions:
  status: ('A' for Active; 'I' for Inactive)
    1  A    between atoms: N_2  and  C_19
    2  A    between atoms: C_23  and  C_33
    3  A    between atoms: C_25  and  C_33
    4  A    between atoms: C_27  and  C_28
                            x       y       z     vdW  Elec       q    Type
                         _______ _______ _______ _____ _____    ______ ____

>  <TORSDO>
F 4

$$$$
=
 OpenBabel10232409353D

 33 38  0  0  1  0  0  0  0  0999 V2000
  189.4750  177.6340  141.5850 C   0  0  0  0  0  0  0  0  0  0  0  0
  189.9820  177.1650  143.9230 C   0  0  0  0  0  3  0  0  0  0  0  0
  187.2560  178.3960  140.9490 C   0  0  0  0  0  0  0  0  0  0  0  0
  187.2840  177.8860  144.7080 C   0  0  0  0  0  3  0  0  0  0  0  0
  183.8910  178.9750  144.2910 O   0  0  0  0  0  0  0  0  0  0  0  0
  186.3770  178.7900  139.9920 N   0  0  0  0  0  0  0  0  0  0  0  0
  188.5600  178.0450  140.6030 C   0  0  0  0  0  3  0  0  0  0  0  0
  187.7460  177.9330  143.2980 C   0  0  0  0  0  0  0  0  0  0  0  0
  185.1020  179.1360  140.3150 C   0  0  0  0  0  3  0  0  0  0  0  0
  185.0750  178.6520  144.0040 C   0  0  0  0  0  0  0  0  0  0  0  0
  189.0650  177.5780  142.9460 C   0  0  0  0  0  0  0  0  0  0  0  0
  186.8490  178.3400  142.2930 C   0  0  0  0  0  0  0  0  0  0  0  0
  191.6870  176.8660  142.2360 C   0  0  0  0  0  3  0  0  0  0  0  0
  190.7960  177.2800  141.2340 C   0  0  0  0  0  0  0  0  0  0  0  0
  191.2840  176.8100  143.5690 C   0  0  0  0  0  3  0  0  0  0  0  0
  186.0360  178.2190  145.0580 C   0  0  0  0  0  0  0  0  0  0  0  0
  184.6860  179.0900  141.6090 N   0  0  0  0  0  0  0  0  0  0  0  0
  185.5300  178.7010  142.6020 C   0  0  0  0  0  0  0  0  0  0  0  0
  186.5930  178.1330  147.4660 C   0  0  0  0  0  2  0  0  0  0  0  0
  185.6940  178.1320  146.4900 C   0  0  0  0  0  3  0  0  0  0  0  0
  192.7660  177.2950  139.6610 C   0  0  0  0  0  1  0  0  0  0  0  0
  191.2480  177.3120  139.7970 C   0  0  1  0  0  3  0  0  0  0  0  0
  189.5750  175.9680  137.0210 N   0  0  0  0  0  0  0  0  0  0  0  0
  189.6550  176.8610  138.0410 O   0  0  0  0  0  0  0  0  0  0  0  0
  191.5210  175.4040  138.1260 C   0  0  0  0  0  2  0  0  0  0  0  0
  190.7370  175.1180  136.8800 C   0  0  0  0  0  2  0  0  0  0  0  0
  190.5500  176.2530  138.9390 C   0  0  1  0  0  3  0  0  0  0  0  0
  187.0090  174.7000  134.6020 C   0  0  0  0  0  3  0  0  0  0  0  0
  185.8270  175.0120  135.2800 C   0  0  0  0  0  3  0  0  0  0  0  0
  187.1190  175.9480  137.1000 C   0  0  0  0  0  3  0  0  0  0  0  0
  185.8820  175.6360  136.5280 C   0  0  0  0  0  3  0  0  0  0  0  0
  188.3110  175.6370  136.4290 C   0  0  0  0  0  0  0  0  0  0  0  0
  188.2450  175.0120  135.1740 C   0  0  0  0  0  3  0  0  0  0  0  0
  1 11  1  0  0  0  0
  3 12  1  0  0  0  0
  4 16  2  0  0  0  0
  6  9  2  0  0  0  0
  6  3  1  0  0  0  0
  7  3  2  0  0  0  0
  7  1  1  0  0  0  0
  8  4  1  0  0  0  0
  9 17  1  0  0  0  0
 10  5  2  0  0  0  0
 10 16  1  0  0  0  0
 11  8  1  0  0  0  0
 11  2  2  0  0  0  0
 12 18  1  0  0  0  0
 12  8  2  0  0  0  0
 13 15  2  0  0  0  0
 14  1  2  0  0  0  0
 14 13  1  0  0  0  0
 15  2  1  0  0  0  0
 16 20  1  0  0  0  0
 17 18  2  0  0  0  0
 18 10  1  0  0  0  0
 20 19  2  0  0  0  0
 22 21  1  1  0  0  0
 22 14  1  0  0  0  0
 23 24  1  0  0  0  0
 24 27  1  0  0  0  0
 25 27  1  0  0  0  0
 26 23  1  0  0  0  0
 26 25  1  0  0  0  0
 27 22  1  6  0  0  0
 28 33  2  0  0  0  0
 28 29  1  0  0  0  0
 29 31  2  0  0  0  0
 31 30  1  0  0  0  0
 32 23  1  0  0  0  0
 32 30  2  0  0  0  0
 33 32  1  0  0  0  0
M  END
>  <MODEL>
6

>  <REMARK>
 VINA RESULT:      -9.4      3.915      7.258
  Name = 
  4 active torsions:
  status: ('A' for Active; 'I' for Inactive)
    1  A    between atoms: N_2  and  C_19
    2  A    between atoms: C_23  and  C_33
    3  A    between atoms: C_25  and  C_33
    4  A    between atoms: C_27  and  C_28
                            x       y       z     vdW  Elec       q    Type
                         _______ _______ _______ _____ _____    ______ ____

>  <TORSDO>
F 4

$$$$
=
 OpenBabel10232409353D

 33 38  0  0  1  0  0  0  0  0999 V2000
  189.0620  177.7070  141.2420 C   0  0  0  0  0  0  0  0  0  0  0  0
  190.9930  177.3160  142.6780 C   0  0  0  0  0  3  0  0  0  0  0  0
  186.8660  178.0640  142.2250 C   0  0  0  0  0  0  0  0  0  0  0  0
  189.3400  177.5360  145.0520 C   0  0  0  0  0  3  0  0  0  0  0  0
  186.3470  178.0050  146.9730 O   0  0  0  0  0  0  0  0  0  0  0  0
  185.5380  178.3040  142.0790 N   0  0  0  0  0  0  0  0  0  0  0  0
  187.6870  177.9550  141.1030 C   0  0  0  0  0  3  0  0  0  0  0  0
  188.7910  177.6770  143.6800 C   0  0  0  0  0  0  0  0  0  0  0  0
  184.7260  178.4130  143.1640 C   0  0  0  0  0  3  0  0  0  0  0  0
  187.1100  177.9020  145.9760 C   0  0  0  0  0  0  0  0  0  0  0  0
  189.6200  177.5670  142.5430 C   0  0  0  0  0  0  0  0  0  0  0  0
  187.4160  177.9260  143.5110 C   0  0  0  0  0  0  0  0  0  0  0  0
  191.2600  177.3410  140.2760 C   0  0  0  0  0  3  0  0  0  0  0  0
  189.8920  177.5980  140.1060 C   0  0  0  0  0  0  0  0  0  0  0  0
  191.8070  177.2030  141.5510 C   0  0  0  0  0  3  0  0  0  0  0  0
  188.5670  177.6380  146.1400 C   0  0  0  0  0  0  0  0  0  0  0  0
  185.2360  178.2830  144.4190 N   0  0  0  0  0  0  0  0  0  0  0  0
  186.5600  178.0430  144.6150 C   0  0  0  0  0  0  0  0  0  0  0  0
  190.4400  176.9660  147.6080 C   0  0  0  0  0  2  0  0  0  0  0  0
  189.2270  177.4800  147.4490 C   0  0  0  0  0  3  0  0  0  0  0  0
  188.9820  179.1630  138.3520 C   0  0  0  0  0  1  0  0  0  0  0  0
  189.3200  177.7220  138.7170 C   0  0  1  0  0  3  0  0  0  0  0  0
  190.6860  175.0440  136.9090 N   0  0  0  0  0  0  0  0  0  0  0  0
  190.4770  175.7040  138.0770 O   0  0  0  0  0  0  0  0  0  0  0  0
  189.5010  176.9280  136.3000 C   0  0  0  0  0  2  0  0  0  0  0  0
  190.0070  175.6200  135.7690 C   0  0  0  0  0  2  0  0  0  0  0  0
  190.1770  177.0130  137.6650 C   0  0  1  0  0  3  0  0  0  0  0  0
  194.0610  173.4590  137.2940 C   0  0  0  0  0  3  0  0  0  0  0  0
  193.9330  172.3540  136.4490 C   0  0  0  0  0  3  0  0  0  0  0  0
  191.6700  173.0240  135.9140 C   0  0  0  0  0  3  0  0  0  0  0  0
  192.7390  172.1360  135.7590 C   0  0  0  0  0  3  0  0  0  0  0  0
  191.7860  174.1340  136.7630 C   0  0  0  0  0  0  0  0  0  0  0  0
  192.9920  174.3470  137.4490 C   0  0  0  0  0  3  0  0  0  0  0  0
  1 11  1  0  0  0  0
  3 12  1  0  0  0  0
  4 16  2  0  0  0  0
  6  3  2  0  0  0  0
  6  9  1  0  0  0  0
  7  1  2  0  0  0  0
  7  3  1  0  0  0  0
  8  4  1  0  0  0  0
  9 17  2  0  0  0  0
 10 16  1  0  0  0  0
 10  5  2  0  0  0  0
 11  2  1  0  0  0  0
 11  8  2  0  0  0  0
 12  8  1  0  0  0  0
 12 18  2  0  0  0  0
 13 15  1  0  0  0  0
 14 13  2  0  0  0  0
 14  1  1  0  0  0  0
 15  2  2  0  0  0  0
 16 20  1  0  0  0  0
 17 18  1  0  0  0  0
 18 10  1  0  0  0  0
 20 19  2  0  0  0  0
 22 21  1  6  0  0  0
 22 14  1  0  0  0  0
 23 24  1  0  0  0  0
 25 27  1  0  0  0  0
 26 25  1  0  0  0  0
 26 23  1  0  0  0  0
 27 24  1  0  0  0  0
 27 22  1  1  0  0  0
 28 33  1  0  0  0  0
 29 28  2  0  0  0  0
 30 32  1  0  0  0  0
 31 30  2  0  0  0  0
 31 29  1  0  0  0  0
 32 23  1  0  0  0  0
 32 33  2  0  0  0  0
M  END
>  <MODEL>
7

>  <REMARK>
 VINA RESULT:      -9.4      4.771      8.581
  Name = 
  4 active torsions:
  status: ('A' for Active; 'I' for Inactive)
    1  A    between atoms: N_2  and  C_19
    2  A    between atoms: C_23  and  C_33
    3  A    between atoms: C_25  and  C_33
    4  A    between atoms: C_27  and  C_28
                            x       y       z     vdW  Elec       q    Type
                         _______ _______ _______ _____ _____    ______ ____

>  <TORSDO>
F 4

$$$$
=
 OpenBabel10232409353D

 33 38  0  0  1  0  0  0  0  0999 V2000
  189.3890  177.5820  142.1000 C   0  0  0  0  0  0  0  0  0  0  0  0
  187.0580  178.2940  142.1160 C   0  0  0  0  0  3  0  0  0  0  0  0
  190.5050  177.0150  144.1840 C   0  0  0  0  0  0  0  0  0  0  0  0
  186.9370  178.0130  145.0010 C   0  0  0  0  0  3  0  0  0  0  0  0
  188.1160  177.2930  148.3120 O   0  0  0  0  0  0  0  0  0  0  0  0
  191.6140  176.6060  144.8510 N   0  0  0  0  0  0  0  0  0  0  0  0
  190.5310  177.1580  142.7980 C   0  0  0  0  0  3  0  0  0  0  0  0
  188.1660  177.7240  144.2210 C   0  0  0  0  0  0  0  0  0  0  0  0
  191.6030  176.4620  146.2030 C   0  0  0  0  0  3  0  0  0  0  0  0
  188.1140  177.4300  147.0600 C   0  0  0  0  0  0  0  0  0  0  0  0
  188.1950  177.8680  142.8180 C   0  0  0  0  0  0  0  0  0  0  0  0
  189.3250  177.2970  144.8950 C   0  0  0  0  0  0  0  0  0  0  0  0
  188.2630  178.1590  140.0260 C   0  0  0  0  0  3  0  0  0  0  0  0
  189.4160  177.7250  140.6960 C   0  0  0  0  0  0  0  0  0  0  0  0
  187.0920  178.4400  140.7300 C   0  0  0  0  0  3  0  0  0  0  0  0
  186.8940  177.8810  146.3330 C   0  0  0  0  0  0  0  0  0  0  0  0
  190.4730  176.7290  146.9110 N   0  0  0  0  0  0  0  0  0  0  0  0
  189.3370  177.1420  146.2890 C   0  0  0  0  0  0  0  0  0  0  0  0
  184.4800  178.4160  146.3490 C   0  0  0  0  0  2  0  0  0  0  0  0
  185.6160  178.1980  146.9980 C   0  0  0  0  0  3  0  0  0  0  0  0
  191.9280  177.5240  140.7830 C   0  0  0  0  0  1  0  0  0  0  0  0
  190.6760  177.4490  139.9160 C   0  0  1  0  0  3  0  0  0  0  0  0
  189.6910  175.3340  137.2960 N   0  0  0  0  0  0  0  0  0  0  0  0
  189.3930  176.1390  138.3480 O   0  0  0  0  0  0  0  0  0  0  0  0
  191.7450  175.9910  138.1170 C   0  0  0  0  0  2  0  0  0  0  0  0
  191.0980  175.2840  136.9630 C   0  0  0  0  0  2  0  0  0  0  0  0
  190.5850  176.1620  139.0920 C   0  0  1  0  0  3  0  0  0  0  0  0
  186.4850  173.5690  136.4860 C   0  0  0  0  0  3  0  0  0  0  0  0
  186.9690  172.3600  135.9790 C   0  0  0  0  0  3  0  0  0  0  0  0
  189.2390  173.1160  136.3390 C   0  0  0  0  0  3  0  0  0  0  0  0
  188.3450  172.1330  135.9060 C   0  0  0  0  0  3  0  0  0  0  0  0
  188.7650  174.3350  136.8470 C   0  0  0  0  0  0  0  0  0  0  0  0
  187.3800  174.5520  136.9190 C   0  0  0  0  0  3  0  0  0  0  0  0
  1  7  2  0  0  0  0
  1 11  1  0  0  0  0
  2 11  1  0  0  0  0
  3  6  2  0  0  0  0
  3 12  1  0  0  0  0
  4 16  2  0  0  0  0
  6  9  1  0  0  0  0
  7  3  1  0  0  0  0
  8 12  1  0  0  0  0
  8  4  1  0  0  0  0
  9 17  2  0  0  0  0
 10  5  2  0  0  0  0
 11  8  2  0  0  0  0
 12 18  2  0  0  0  0
 13 14  2  0  0  0  0
 13 15  1  0  0  0  0
 14  1  1  0  0  0  0
 15  2  2  0  0  0  0
 16 20  1  0  0  0  0
 16 10  1  0  0  0  0
 18 17  1  0  0  0  0
 18 10  1  0  0  0  0
 19 20  2  0  0  0  0
 22 14  1  0  0  0  0
 22 21  1  1  0  0  0
 23 24  1  0  0  0  0
 24 27  1  0  0  0  0
 25 27  1  0  0  0  0
 26 23  1  0  0  0  0
 26 25  1  0  0  0  0
 27 22  1  6  0  0  0
 28 33  1  0  0  0  0
 29 28  2  0  0  0  0
 30 32  1  0  0  0  0
 31 29  1  0  0  0  0
 31 30  2  0  0  0  0
 32 33  2  0  0  0  0
 32 23  1  0  0  0  0
M  END
>  <MODEL>
8

>  <REMARK>
 VINA RESULT:      -9.3      5.084      7.452
  Name = 
  4 active torsions:
  status: ('A' for Active; 'I' for Inactive)
    1  A    between atoms: N_2  and  C_19
    2  A    between atoms: C_23  and  C_33
    3  A    between atoms: C_25  and  C_33
    4  A    between atoms: C_27  and  C_28
                            x       y       z     vdW  Elec       q    Type
                         _______ _______ _______ _____ _____    ______ ____

>  <TORSDO>
F 4

$$$$
=
 OpenBabel10232409353D

 33 38  0  0  1  0  0  0  0  0999 V2000
  185.5370  178.4820  141.3740 C   0  0  0  0  0  0  0  0  0  0  0  0
  187.9180  178.0220  141.1320 C   0  0  0  0  0  3  0  0  0  0  0  0
  184.5390  178.6070  143.5870 C   0  0  0  0  0  0  0  0  0  0  0  0
  188.2360  177.8710  144.0120 C   0  0  0  0  0  3  0  0  0  0  0  0
  187.2560  177.9520  147.4620 O   0  0  0  0  0  0  0  0  0  0  0  0
  183.4510  178.7940  144.3780 N   0  0  0  0  0  0  0  0  0  0  0  0
  184.4190  178.6750  142.2000 C   0  0  0  0  0  3  0  0  0  0  0  0
  186.9290  178.1470  143.3650 C   0  0  0  0  0  0  0  0  0  0  0  0
  183.5540  178.7300  145.7330 C   0  0  0  0  0  3  0  0  0  0  0  0
  187.1740  178.0090  146.2060 C   0  0  0  0  0  0  0  0  0  0  0  0
  186.8050  178.2160  141.9620 C   0  0  0  0  0  0  0  0  0  0  0  0
  185.7910  178.3440  144.1700 C   0  0  0  0  0  0  0  0  0  0  0  0
  186.5480  178.3480  139.1690 C   0  0  0  0  0  3  0  0  0  0  0  0
  185.4140  178.5530  139.9700 C   0  0  0  0  0  0  0  0  0  0  0  0
  187.7900  178.0860  139.7450 C   0  0  0  0  0  3  0  0  0  0  0  0
  188.3700  177.8020  145.3420 C   0  0  0  0  0  0  0  0  0  0  0  0
  184.7550  178.4770  146.3180 N   0  0  0  0  0  0  0  0  0  0  0  0
  185.8730  178.2830  145.5680 C   0  0  0  0  0  0  0  0  0  0  0  0
  190.8190  177.5410  145.1260 C   0  0  0  0  0  2  0  0  0  0  0  0
  189.7190  177.5220  145.8670 C   0  0  0  0  0  3  0  0  0  0  0  0
  183.9330  180.2520  138.8410 C   0  0  0  0  0  1  0  0  0  0  0  0
  184.0780  178.8130  139.3230 C   0  0  1  0  0  3  0  0  0  0  0  0
  182.7460  175.8630  137.9690 N   0  0  0  0  0  0  0  0  0  0  0  0
  183.5760  176.5050  138.8310 O   0  0  0  0  0  0  0  0  0  0  0  0
  182.4520  178.1020  137.4910 C   0  0  0  0  0  2  0  0  0  0  0  0
  181.8940  176.7420  137.1970 C   0  0  0  0  0  2  0  0  0  0  0  0
  183.7330  177.7760  138.2520 C   0  0  1  0  0  3  0  0  0  0  0  0
  182.2080  172.3710  136.7180 C   0  0  0  0  0  3  0  0  0  0  0  0
  183.4970  171.8450  136.8370 C   0  0  0  0  0  3  0  0  0  0  0  0
  184.2840  173.9660  137.6970 C   0  0  0  0  0  3  0  0  0  0  0  0
  184.5350  172.6420  137.3260 C   0  0  0  0  0  3  0  0  0  0  0  0
  182.9950  174.5050  137.5790 C   0  0  0  0  0  0  0  0  0  0  0  0
  181.9580  173.6960  137.0890 C   0  0  0  0  0  3  0  0  0  0  0  0
  1 11  2  0  0  0  0
  1  7  1  0  0  0  0
  2 11  1  0  0  0  0
  3 12  1  0  0  0  0
  3  6  1  0  0  0  0
  4 16  2  0  0  0  0
  6  9  2  0  0  0  0
  7  3  2  0  0  0  0
  8  4  1  0  0  0  0
  8 12  2  0  0  0  0
  9 17  1  0  0  0  0
 10  5  2  0  0  0  0
 11  8  1  0  0  0  0
 12 18  1  0  0  0  0
 13 15  1  0  0  0  0
 13 14  2  0  0  0  0
 14  1  1  0  0  0  0
 15  2  2  0  0  0  0
 16 20  1  0  0  0  0
 16 10  1  0  0  0  0
 18 10  1  0  0  0  0
 18 17  2  0  0  0  0
 19 20  2  0  0  0  0
 22 21  1  6  0  0  0
 22 14  1  0  0  0  0
 23 24  1  0  0  0  0
 25 27  1  0  0  0  0
 26 25  1  0  0  0  0
 26 23  1  0  0  0  0
 27 24  1  0  0  0  0
 27 22  1  1  0  0  0
 28 29  2  0  0  0  0
 28 33  1  0  0  0  0
 29 31  1  0  0  0  0
 31 30  2  0  0  0  0
 32 30  1  0  0  0  0
 32 23  1  0  0  0  0
 33 32  2  0  0  0  0
M  END
>  <MODEL>
9

>  <REMARK>
 VINA RESULT:      -9.3      3.148      5.671
  Name = 
  4 active torsions:
  status: ('A' for Active; 'I' for Inactive)
    1  A    between atoms: N_2  and  C_19
    2  A    between atoms: C_23  and  C_33
    3  A    between atoms: C_25  and  C_33
    4  A    between atoms: C_27  and  C_28
                            x       y       z     vdW  Elec       q    Type
                         _______ _______ _______ _____ _____    ______ ____

>  <TORSDO>
F 4

$$$$
