=
 OpenBabel10232410323D

 38 44  0  0  1  0  0  0  0  0999 V2000
  184.6090  178.2010  138.0580 S   0  0  0  0  0  0  0  0  0  0  0  0
  186.0940  179.0460  141.5980 C   0  0  2  0  0  3  0  0  0  0  0  0
  185.8460  178.5690  140.1980 C   0  0  0  0  0  0  0  0  0  0  0  0
  183.6830  178.6580  141.9600 N   0  0  0  0  0  0  0  0  0  0  0  0
  186.8200  178.2970  139.2920 N   0  0  0  0  0  0  0  0  0  0  0  0
  184.5530  178.5620  139.7000 C   0  0  0  0  0  0  0  0  0  0  0  0
  187.0990  178.2730  142.2990 N   0  0  0  0  0  0  0  0  0  0  0  0
  186.2920  178.0470  138.0690 C   0  0  0  0  0  0  0  0  0  0  0  0
  185.2710  178.0640  143.6350 N   0  0  0  0  0  0  0  0  0  0  0  0
  183.3840  178.9730  140.5560 C   0  0  1  0  0  3  0  0  0  0  0  0
  184.8920  178.7490  142.4460 C   0  0  0  0  0  0  0  0  0  0  0  0
  186.5340  177.8030  143.5280 C   0  0  0  0  0  3  0  0  0  0  0  0
  182.1180  178.2490  140.1390 C   0  0  0  0  0  1  0  0  0  0  0  0
  191.9950  176.9390  143.2250 C   0  0  0  0  0  2  0  0  0  0  0  0
  191.6460  178.1880  143.9230 N   0  0  0  0  0  0  0  0  0  0  0  0
  188.4580  178.2240  141.9400 N   0  0  2  0  0  0  0  0  0  0  0  0
  189.9750  176.2650  142.2860 C   0  0  2  0  0  3  0  0  0  0  0  0
  190.7790  178.5640  142.7780 C   0  0  1  0  0  3  0  0  0  0  0  0
  188.7720  176.8300  141.5400 C   0  0  2  0  0  3  0  0  0  0  0  0
  191.1170  177.2790  142.0560 C   0  0  1  0  0  0  0  0  0  0  0  0
  189.2610  178.7220  143.0760 C   0  0  0  0  0  2  0  0  0  0  0  0
  190.1760  176.7890  140.9410 C   0  0  1  0  0  3  0  0  0  0  0  0
  190.9000  177.8100  145.1230 C   0  0  0  0  0  2  0  0  0  0  0  0
  191.7420  176.4320  145.9600 S   0  0  0  0  0  0  0  0  0  0  0  0
  190.8350  176.6990  147.5130 C   0  0  0  0  0  2  0  0  0  0  0  0
  189.4270  176.3880  147.3230 N   0  0  0  0  0  2  0  0  0  0  0  0
  187.4830  177.1700  149.1970 O   0  0  0  0  0  1  0  0  0  0  0  0
  189.4480  178.7580  148.5490 O   0  0  0  0  0  0  0  0  0  0  0  0
  188.5030  177.7310  147.9690 P   0  0  1  0  0  0  0  0  0  0  0  0
  186.2610  178.4000  147.1860 C   0  0  0  0  0  1  0  0  0  0  0  0
  187.5820  178.4540  146.7420 O   0  0  0  0  0  0  0  0  0  0  0  0
  187.6510  176.5150  136.7500 C   0  0  0  0  0  3  0  0  0  0  0  0
  187.0900  177.7110  136.8890 C   0  0  0  0  0  3  0  0  0  0  0  0
  188.4580  176.1880  135.5390 C   0  0  1  0  0  3  0  0  0  0  0  0
  189.3800  177.3510  135.2290 C   0  0  0  0  0  1  0  0  0  0  0  0
  189.2210  175.0410  135.7720 O   0  0  0  0  0  0  0  0  0  0  0  0
  190.1690  173.9730  137.5470 O   0  0  0  0  0  1  0  0  0  0  0  0
  189.7430  175.2080  137.0550 C   0  0  0  0  0  2  0  0  0  0  0  0
  1  8  1  0  0  0  0
  1  6  1  0  0  0  0
  2  3  1  6  0  0  0
  2  7  1  0  0  0  0
  2 11  1  0  0  0  0
  4 11  2  0  0  0  0
  5  3  1  0  0  0  0
  6  3  2  0  0  0  0
  6 10  1  0  0  0  0
  7 12  1  0  0  0  0
  8  5  2  0  0  0  0
 10 13  1  6  0  0  0
 10  4  1  0  0  0  0
 11  9  1  0  0  0  0
 12  9  2  0  0  0  0
 14 15  1  0  0  0  0
 15 23  1  0  0  0  0
 16  7  1  1  0  0  0
 16 21  1  0  0  0  0
 18 21  1  0  0  0  0
 18 15  1  0  0  0  0
 19 16  1  0  0  0  0
 19 17  1  0  0  0  0
 20 17  1  0  0  0  0
 20 18  1  0  0  0  0
 20 14  1  0  0  0  0
 22 19  1  0  0  0  0
 22 20  1  0  0  0  0
 22 17  1  0  0  0  0
 23 24  1  0  0  0  0
 24 25  1  0  0  0  0
 26 25  1  0  0  0  0
 26 29  1  0  0  0  0
 29 28  2  0  0  0  0
 29 27  1  0  0  0  0
 31 30  1  0  0  0  0
 31 29  1  0  0  0  0
 32 33  2  0  0  0  0
 33  8  1  0  0  0  0
 34 36  1  0  0  0  0
 34 32  1  0  0  0  0
 35 34  1  0  0  0  0
 36 38  1  0  0  0  0
 38 37  1  0  0  0  0
M  END
>  <MODEL>
1

>  <REMARK>
 VINA RESULT:      -6.8      0.000      0.000
  Name = 
  11 active torsions:
  status: ('A' for Active; 'I' for Inactive)
    1  A    between atoms: N_6  and  C_8
    2  A    between atoms: C_8  and  S_29
    3  A    between atoms: N_11  and  N_18
    4  A    between atoms: C_13  and  N_15
    5  A    between atoms: C_13  and  S_29
    6  A    between atoms: N_15  and  P_20
    7  A    between atoms: P_20  and  O_24
    8  A    between atoms: C_21  and  C_22
    9  A    between atoms: C_22  and  O_26
   10  A    between atoms: C_23  and  C_38
   11  A    between atoms: O_26  and  C_32
                            x       y       z     vdW  Elec       q    Type
                         _______ _______ _______ _____ _____    ______ ____

>  <TORSDO>
F 11

$$$$
=
 OpenBabel10232410323D

 38 44  0  0  1  0  0  0  0  0999 V2000
  191.2230  176.5890  142.0970 S   0  0  0  0  0  0  0  0  0  0  0  0
  188.2080  178.8370  140.9500 C   0  0  2  0  0  3  0  0  0  0  0  0
  189.1670  177.9510  141.6880 C   0  0  0  0  0  0  0  0  0  0  0  0
  188.9830  177.6690  138.9170 N   0  0  0  0  0  0  0  0  0  0  0  0
  189.2320  177.8430  143.0400 N   0  0  0  0  0  0  0  0  0  0  0  0
  190.1860  177.3200  140.9920 C   0  0  0  0  0  0  0  0  0  0  0  0
  186.8410  178.7200  141.4160 N   0  0  0  0  0  0  0  0  0  0  0  0
  190.2990  177.0970  143.4180 C   0  0  0  0  0  0  0  0  0  0  0  0
  186.6750  178.1890  139.2110 N   0  0  0  0  0  0  0  0  0  0  0  0
  190.3170  177.4650  139.4990 C   0  0  1  0  0  3  0  0  0  0  0  0
  188.0510  178.3390  139.5430 C   0  0  0  0  0  0  0  0  0  0  0  0
  186.0050  178.4120  140.2960 C   0  0  0  0  0  3  0  0  0  0  0  0
  190.9480  176.2300  138.8820 C   0  0  0  0  0  1  0  0  0  0  0  0
  183.3540  178.6900  145.2170 C   0  0  0  0  0  2  0  0  0  0  0  0
  183.0080  179.6870  144.1900 N   0  0  0  0  0  0  0  0  0  0  0  0
  186.4040  179.1000  142.6980 N   0  0  2  0  0  0  0  0  0  0  0  0
  185.2110  177.6130  144.3180 C   0  0  2  0  0  3  0  0  0  0  0  0
  184.4540  179.9570  143.9910 C   0  0  1  0  0  3  0  0  0  0  0  0
  186.5120  177.9160  143.5840 C   0  0  2  0  0  3  0  0  0  0  0  0
  184.8250  178.9260  145.0330 C   0  0  1  0  0  0  0  0  0  0  0  0
  185.0350  179.6450  142.5820 C   0  0  0  0  0  2  0  0  0  0  0  0
  186.2520  178.3480  145.0250 C   0  0  1  0  0  3  0  0  0  0  0  0
  182.3920  178.9590  143.0810 C   0  0  0  0  0  2  0  0  0  0  0  0
  180.5840  179.1500  143.1530 S   0  0  0  0  0  0  0  0  0  0  0  0
  180.3320  178.2140  141.6140 C   0  0  0  0  0  2  0  0  0  0  0  0
  181.4100  178.4960  140.6810 N   0  0  0  0  0  2  0  0  0  0  0  0
  180.1990  176.1000  139.8500 O   0  0  0  0  0  1  0  0  0  0  0  0
  181.3280  177.7050  138.1330 O   0  0  0  0  0  0  0  0  0  0  0  0
  181.4740  177.1680  139.5380 P   0  0  1  0  0  0  0  0  0  0  0  0
  183.3040  176.0020  138.3640 C   0  0  0  0  0  1  0  0  0  0  0  0
  182.9540  176.3500  139.6690 O   0  0  0  0  0  0  0  0  0  0  0  0
  189.7760  177.0460  145.7960 C   0  0  0  0  0  3  0  0  0  0  0  0
  190.6290  176.7930  144.8110 C   0  0  0  0  0  3  0  0  0  0  0  0
  190.1260  176.7250  147.2100 C   0  0  1  0  0  3  0  0  0  0  0  0
  191.6250  176.5200  147.3140 C   0  0  0  0  0  1  0  0  0  0  0  0
  189.7440  177.7790  148.0450 O   0  0  0  0  0  0  0  0  0  0  0  0
  187.6820  178.7180  148.2830 O   0  0  0  0  0  1  0  0  0  0  0  0
  188.4060  177.5270  148.3550 C   0  0  0  0  0  2  0  0  0  0  0  0
  1  8  1  0  0  0  0
  2 11  1  6  0  0  0
  2  7  1  0  0  0  0
  2  3  1  0  0  0  0
  3  5  1  0  0  0  0
  4 10  1  0  0  0  0
  4 11  2  0  0  0  0
  5  8  2  0  0  0  0
  6  3  2  0  0  0  0
  6  1  1  0  0  0  0
  8 33  1  0  0  0  0
  9 11  1  0  0  0  0
  9 12  2  0  0  0  0
 10 13  1  6  0  0  0
 10  6  1  0  0  0  0
 12  7  1  0  0  0  0
 15 14  1  0  0  0  0
 16  7  1  6  0  0  0
 16 19  1  0  0  0  0
 17 22  1  0  0  0  0
 17 20  1  0  0  0  0
 18 15  1  0  0  0  0
 18 20  1  0  0  0  0
 19 17  1  0  0  0  0
 19 22  1  0  0  0  0
 20 14  1  0  0  0  0
 21 16  1  0  0  0  0
 21 18  1  0  0  0  0
 22 20  1  0  0  0  0
 23 24  1  0  0  0  0
 23 15  1  0  0  0  0
 25 24  1  0  0  0  0
 26 25  1  0  0  0  0
 28 29  2  0  0  0  0
 29 31  1  0  0  0  0
 29 27  1  0  0  0  0
 29 26  1  0  0  0  0
 30 31  1  0  0  0  0
 32 34  1  0  0  0  0
 33 32  2  0  0  0  0
 34 35  1  0  0  0  0
 34 36  1  0  0  0  0
 36 38  1  0  0  0  0
 37 38  1  0  0  0  0
M  END
>  <MODEL>
2

>  <REMARK>
 VINA RESULT:      -6.7      3.689      8.482
  Name = 
  11 active torsions:
  status: ('A' for Active; 'I' for Inactive)
    1  A    between atoms: N_6  and  C_8
    2  A    between atoms: C_8  and  S_29
    3  A    between atoms: N_11  and  N_18
    4  A    between atoms: C_13  and  N_15
    5  A    between atoms: C_13  and  S_29
    6  A    between atoms: N_15  and  P_20
    7  A    between atoms: P_20  and  O_24
    8  A    between atoms: C_21  and  C_22
    9  A    between atoms: C_22  and  O_26
   10  A    between atoms: C_23  and  C_38
   11  A    between atoms: O_26  and  C_32
                            x       y       z     vdW  Elec       q    Type
                         _______ _______ _______ _____ _____    ______ ____

>  <TORSDO>
F 11

$$$$
=
 OpenBabel10232410323D

 38 44  0  0  1  0  0  0  0  0999 V2000
  189.9330  177.1900  141.6030 S   0  0  0  0  0  0  0  0  0  0  0  0
  187.5610  178.5230  138.7660 C   0  0  2  0  0  3  0  0  0  0  0  0
  188.1640  178.0090  140.0390 C   0  0  0  0  0  0  0  0  0  0  0  0
  189.2630  177.1470  137.6230 N   0  0  0  0  0  0  0  0  0  0  0  0
  187.6280  178.1900  141.2730 N   0  0  0  0  0  0  0  0  0  0  0  0
  189.4380  177.4650  140.0190 C   0  0  0  0  0  0  0  0  0  0  0  0
  186.1460  178.2340  138.6420 N   0  0  0  0  0  0  0  0  0  0  0  0
  188.4750  177.7610  142.2400 C   0  0  0  0  0  0  0  0  0  0  0  0
  187.0310  177.2500  136.7930 N   0  0  0  0  0  0  0  0  0  0  0  0
  190.2090  177.3300  138.7320 C   0  0  1  0  0  3  0  0  0  0  0  0
  188.0940  177.7310  137.6070 C   0  0  0  0  0  0  0  0  0  0  0  0
  185.9290  177.5490  137.4040 C   0  0  0  0  0  3  0  0  0  0  0  0
  191.1560  176.1460  138.7830 C   0  0  0  0  0  1  0  0  0  0  0  0
  181.2070  178.8790  139.9810 C   0  0  0  0  0  2  0  0  0  0  0  0
  181.5870  179.8050  138.9010 N   0  0  0  0  0  0  0  0  0  0  0  0
  185.1500  178.7700  139.4780 N   0  0  2  0  0  0  0  0  0  0  0  0
  183.1020  177.5560  140.2480 C   0  0  2  0  0  3  0  0  0  0  0  0
  182.9400  179.9200  139.5000 C   0  0  1  0  0  3  0  0  0  0  0  0
  184.6210  177.6670  140.3180 C   0  0  2  0  0  3  0  0  0  0  0  0
  182.5690  178.9600  140.6080 C   0  0  1  0  0  0  0  0  0  0  0  0
  184.1320  179.4260  138.6320 C   0  0  0  0  0  2  0  0  0  0  0  0
  183.6960  178.2530  141.3820 C   0  0  1  0  0  3  0  0  0  0  0  0
  181.5620  179.0380  137.6560 C   0  0  0  0  0  2  0  0  0  0  0  0
  180.2180  177.8140  137.7170 S   0  0  0  0  0  0  0  0  0  0  0  0
  181.0770  176.6760  136.5880 C   0  0  0  0  0  2  0  0  0  0  0  0
  182.4660  176.5330  136.9930 N   0  0  0  0  0  2  0  0  0  0  0  0
  181.5270  173.9470  137.5730 O   0  0  0  0  0  1  0  0  0  0  0  0
  183.1040  174.3860  135.5420 O   0  0  0  0  0  0  0  0  0  0  0  0
  182.8430  174.8210  136.9660 P   0  0  1  0  0  0  0  0  0  0  0  0
  184.5880  173.1960  137.6020 C   0  0  0  0  0  1  0  0  0  0  0  0
  184.2220  174.5080  137.9030 O   0  0  0  0  0  0  0  0  0  0  0  0
  186.9430  177.6110  144.1280 C   0  0  0  0  0  3  0  0  0  0  0  0
  188.1740  177.8130  143.6720 C   0  0  0  0  0  3  0  0  0  0  0  0
  186.6550  177.6640  145.5900 C   0  0  1  0  0  3  0  0  0  0  0  0
  187.9630  177.6270  146.3550 C   0  0  0  0  0  1  0  0  0  0  0  0
  185.9720  178.8440  145.8980 O   0  0  0  0  0  0  0  0  0  0  0  0
  183.7310  179.1370  145.6080 O   0  0  0  0  0  1  0  0  0  0  0  0
  184.7060  178.4310  146.3150 C   0  0  0  0  0  2  0  0  0  0  0  0
  1  8  1  0  0  0  0
  2 11  1  6  0  0  0
  2  3  1  0  0  0  0
  3  5  1  0  0  0  0
  4 10  1  0  0  0  0
  5  8  2  0  0  0  0
  6  3  2  0  0  0  0
  6  1  1  0  0  0  0
  7  2  1  0  0  0  0
  7 16  1  0  0  0  0
  8 33  1  0  0  0  0
  9 12  2  0  0  0  0
  9 11  1  0  0  0  0
 10 13  1  1  0  0  0
 10  6  1  0  0  0  0
 11  4  2  0  0  0  0
 12  7  1  0  0  0  0
 14 20  1  0  0  0  0
 15 18  1  0  0  0  0
 15 14  1  0  0  0  0
 16 21  1  6  0  0  0
 16 19  1  0  0  0  0
 17 19  1  0  0  0  0
 17 20  1  0  0  0  0
 17 22  1  0  0  0  0
 18 20  1  0  0  0  0
 19 22  1  0  0  0  0
 20 22  1  0  0  0  0
 21 18  1  0  0  0  0
 23 24  1  0  0  0  0
 23 15  1  0  0  0  0
 25 26  1  0  0  0  0
 25 24  1  0  0  0  0
 28 29  2  0  0  0  0
 29 26  1  0  0  0  0
 29 27  1  0  0  0  0
 29 31  1  0  0  0  0
 30 31  1  0  0  0  0
 32 34  1  0  0  0  0
 33 32  2  0  0  0  0
 34 36  1  0  0  0  0
 34 35  1  0  0  0  0
 36 38  1  0  0  0  0
 37 38  1  0  0  0  0
M  END
>  <MODEL>
3

>  <REMARK>
 VINA RESULT:      -6.4      3.668      9.270
  Name = 
  11 active torsions:
  status: ('A' for Active; 'I' for Inactive)
    1  A    between atoms: N_6  and  C_8
    2  A    between atoms: C_8  and  S_29
    3  A    between atoms: N_11  and  N_18
    4  A    between atoms: C_13  and  N_15
    5  A    between atoms: C_13  and  S_29
    6  A    between atoms: N_15  and  P_20
    7  A    between atoms: P_20  and  O_24
    8  A    between atoms: C_21  and  C_22
    9  A    between atoms: C_22  and  O_26
   10  A    between atoms: C_23  and  C_38
   11  A    between atoms: O_26  and  C_32
                            x       y       z     vdW  Elec       q    Type
                         _______ _______ _______ _____ _____    ______ ____

>  <TORSDO>
F 11

$$$$
=
 OpenBabel10232410323D

 38 44  0  0  1  0  0  0  0  0999 V2000
  184.6150  178.4030  143.2620 S   0  0  0  0  0  0  0  0  0  0  0  0
  188.1260  178.5900  141.5030 C   0  0  2  0  0  3  0  0  0  0  0  0
  186.6690  178.4730  141.8400 C   0  0  0  0  0  0  0  0  0  0  0  0
  188.5270  177.4980  143.6810 N   0  0  0  0  0  0  0  0  0  0  0  0
  185.6550  178.7290  140.9740 N   0  0  0  0  0  0  0  0  0  0  0  0
  186.2880  178.2650  143.1560 C   0  0  0  0  0  0  0  0  0  0  0  0
  188.4820  177.9440  140.2560 N   0  0  0  0  0  0  0  0  0  0  0  0
  184.4560  178.6990  141.6060 C   0  0  0  0  0  0  0  0  0  0  0  0
  189.8190  176.9000  141.7700 N   0  0  0  0  0  0  0  0  0  0  0  0
  187.3120  178.1010  144.2480 C   0  0  1  0  0  3  0  0  0  0  0  0
  188.9280  177.7640  142.4660 C   0  0  0  0  0  0  0  0  0  0  0  0
  189.5450  177.0210  140.5100 C   0  0  0  0  0  3  0  0  0  0  0  0
  186.7870  177.2150  145.3630 C   0  0  0  0  0  1  0  0  0  0  0  0
  187.9980  177.2690  135.1650 C   0  0  0  0  0  2  0  0  0  0  0  0
  189.3120  177.8430  135.5000 N   0  0  0  0  0  0  0  0  0  0  0  0
  188.0270  178.3560  138.9900 N   0  0  2  0  0  0  0  0  0  0  0  0
  187.0460  176.8520  137.2470 C   0  0  2  0  0  3  0  0  0  0  0  0
  188.6760  178.6120  136.5990 C   0  0  1  0  0  3  0  0  0  0  0  0
  186.8770  177.4940  138.6190 C   0  0  2  0  0  3  0  0  0  0  0  0
  187.3230  178.0200  136.2760 C   0  0  1  0  0  0  0  0  0  0  0  0
  189.1590  178.2930  138.0430 C   0  0  0  0  0  2  0  0  0  0  0  0
  186.2260  178.0520  137.3560 C   0  0  1  0  0  3  0  0  0  0  0  0
  190.1510  176.7390  135.9670 C   0  0  0  0  0  2  0  0  0  0  0  0
  191.1290  176.0830  134.5810 S   0  0  0  0  0  0  0  0  0  0  0  0
  192.0400  174.9280  135.6490 C   0  0  0  0  0  2  0  0  0  0  0  0
  191.9880  175.3840  137.0290 N   0  0  0  0  0  2  0  0  0  0  0  0
  194.6030  176.1670  136.3610 O   0  0  0  0  0  0  0  0  0  0  0  0
  193.6880  176.4550  138.7860 O   0  0  0  0  0  1  0  0  0  0  0  0
  193.6410  175.5240  137.5960 P   0  0  1  0  0  0  0  0  0  0  0  0
  195.4400  174.2580  138.7130 C   0  0  0  0  0  1  0  0  0  0  0  0
  194.2350  174.0040  138.0560 O   0  0  0  0  0  0  0  0  0  0  0  0
  183.1140  179.2380  139.6460 C   0  0  0  0  0  3  0  0  0  0  0  0
  183.1750  178.9260  140.9350 C   0  0  0  0  0  3  0  0  0  0  0  0
  181.8000  179.4620  138.9780 C   0  0  1  0  0  3  0  0  0  0  0  0
  180.8220  180.0310  139.9860 C   0  0  0  0  0  1  0  0  0  0  0  0
  181.9510  180.3630  137.9200 O   0  0  0  0  0  0  0  0  0  0  0  0
  180.9050  182.3060  137.3550 O   0  0  0  0  0  1  0  0  0  0  0  0
  181.4630  181.5770  138.4060 C   0  0  0  0  0  2  0  0  0  0  0  0
  2  3  1  1  0  0  0
  2 11  1  0  0  0  0
  3  6  2  0  0  0  0
  4 10  1  0  0  0  0
  5  8  2  0  0  0  0
  5  3  1  0  0  0  0
  6  1  1  0  0  0  0
  6 10  1  0  0  0  0
  7 12  1  0  0  0  0
  7  2  1  0  0  0  0
  8  1  1  0  0  0  0
  9 11  1  0  0  0  0
 10 13  1  1  0  0  0
 11  4  2  0  0  0  0
 12  9  2  0  0  0  0
 14 15  1  0  0  0  0
 14 20  1  0  0  0  0
 15 23  1  0  0  0  0
 15 18  1  0  0  0  0
 16 21  1  6  0  0  0
 16  7  1  0  0  0  0
 17 22  1  0  0  0  0
 17 19  1  0  0  0  0
 18 21  1  0  0  0  0
 19 16  1  0  0  0  0
 20 18  1  0  0  0  0
 20 17  1  0  0  0  0
 20 22  1  0  0  0  0
 22 19  1  0  0  0  0
 24 25  1  0  0  0  0
 24 23  1  0  0  0  0
 25 26  1  0  0  0  0
 26 29  1  0  0  0  0
 27 29  2  0  0  0  0
 29 31  1  0  0  0  0
 29 28  1  0  0  0  0
 31 30  1  0  0  0  0
 32 33  2  0  0  0  0
 33  8  1  0  0  0  0
 34 32  1  0  0  0  0
 34 35  1  0  0  0  0
 36 38  1  0  0  0  0
 36 34  1  0  0  0  0
 37 38  1  0  0  0  0
M  END
>  <MODEL>
4

>  <REMARK>
 VINA RESULT:      -6.3      4.516      8.043
  Name = 
  11 active torsions:
  status: ('A' for Active; 'I' for Inactive)
    1  A    between atoms: N_6  and  C_8
    2  A    between atoms: C_8  and  S_29
    3  A    between atoms: N_11  and  N_18
    4  A    between atoms: C_13  and  N_15
    5  A    between atoms: C_13  and  S_29
    6  A    between atoms: N_15  and  P_20
    7  A    between atoms: P_20  and  O_24
    8  A    between atoms: C_21  and  C_22
    9  A    between atoms: C_22  and  O_26
   10  A    between atoms: C_23  and  C_38
   11  A    between atoms: O_26  and  C_32
                            x       y       z     vdW  Elec       q    Type
                         _______ _______ _______ _____ _____    ______ ____

>  <TORSDO>
F 11

$$$$
=
 OpenBabel10232410323D

 38 44  0  0  1  0  0  0  0  0999 V2000
  186.2000  178.0430  144.2070 S   0  0  0  0  0  0  0  0  0  0  0  0
  188.9620  178.5120  141.4490 C   0  0  2  0  0  3  0  0  0  0  0  0
  187.6940  178.2890  142.2190 C   0  0  0  0  0  0  0  0  0  0  0  0
  190.0890  177.3940  143.3400 N   0  0  0  0  0  0  0  0  0  0  0  0
  186.4470  178.4980  141.7260 N   0  0  0  0  0  0  0  0  0  0  0  0
  187.7590  178.0220  143.5770 C   0  0  0  0  0  0  0  0  0  0  0  0
  188.9420  177.9240  140.1240 N   0  0  0  0  0  0  0  0  0  0  0  0
  185.5110  178.3710  142.6980 C   0  0  0  0  0  0  0  0  0  0  0  0
  190.7440  176.9340  141.0950 N   0  0  0  0  0  0  0  0  0  0  0  0
  189.0820  177.8990  144.2850 C   0  0  1  0  0  3  0  0  0  0  0  0
  190.0710  177.7170  142.0740 C   0  0  0  0  0  0  0  0  0  0  0  0
  190.0820  177.0680  139.9910 C   0  0  0  0  0  3  0  0  0  0  0  0
  188.9850  176.9510  145.4660 C   0  0  0  0  0  1  0  0  0  0  0  0
  187.0650  177.4680  135.3420 C   0  0  0  0  0  2  0  0  0  0  0  0
  188.3430  178.2020  135.3410 N   0  0  0  0  0  0  0  0  0  0  0  0
  188.0890  178.3360  139.0850 N   0  0  2  0  0  0  0  0  0  0  0  0
  186.8250  176.8080  137.5600 C   0  0  2  0  0  3  0  0  0  0  0  0
  187.9720  178.8120  136.6420 C   0  0  1  0  0  3  0  0  0  0  0  0
  186.9920  177.3440  138.9770 C   0  0  2  0  0  3  0  0  0  0  0  0
  186.6630  178.0550  136.6640 C   0  0  1  0  0  0  0  0  0  0  0  0
  188.8920  178.4860  137.8530 C   0  0  0  0  0  2  0  0  0  0  0  0
  185.9370  177.8730  138.0090 C   0  0  1  0  0  3  0  0  0  0  0  0
  189.4060  177.2030  135.4450 C   0  0  0  0  0  2  0  0  0  0  0  0
  188.9930  175.7590  134.4190 S   0  0  0  0  0  0  0  0  0  0  0  0
  189.6980  174.5880  135.6190 C   0  0  0  0  0  2  0  0  0  0  0  0
  191.0140  174.1580  135.1750 N   0  0  0  0  0  2  0  0  0  0  0  0
  191.1660  174.3130  137.9780 O   0  0  0  0  0  1  0  0  0  0  0  0
  192.9600  173.0140  136.6000 O   0  0  0  0  0  0  0  0  0  0  0  0
  192.0870  174.2470  136.5590 P   0  0  1  0  0  0  0  0  0  0  0  0
  192.7880  176.3770  137.5880 C   0  0  0  0  0  1  0  0  0  0  0  0
  193.0730  175.6220  136.4500 O   0  0  0  0  0  0  0  0  0  0  0  0
  183.5720  178.6350  141.2480 C   0  0  0  0  0  3  0  0  0  0  0  0
  184.0730  178.5280  142.4730 C   0  0  0  0  0  3  0  0  0  0  0  0
  182.1040  178.7900  141.0360 C   0  0  1  0  0  3  0  0  0  0  0  0
  181.5880  177.5990  140.2520 C   0  0  0  0  0  1  0  0  0  0  0  0
  181.4490  178.8510  142.2700 O   0  0  0  0  0  0  0  0  0  0  0  0
  180.0400  180.6390  142.2070 O   0  0  0  0  0  1  0  0  0  0  0  0
  180.1510  179.2680  141.9700 C   0  0  0  0  0  2  0  0  0  0  0  0
  2 11  1  1  0  0  0
  2  3  1  0  0  0  0
  3  6  2  0  0  0  0
  4 10  1  0  0  0  0
  5  3  1  0  0  0  0
  5  8  2  0  0  0  0
  6  1  1  0  0  0  0
  6 10  1  0  0  0  0
  7  2  1  0  0  0  0
  8  1  1  0  0  0  0
  9 11  1  0  0  0  0
 10 13  1  1  0  0  0
 11  4  2  0  0  0  0
 12  7  1  0  0  0  0
 12  9  2  0  0  0  0
 14 20  1  0  0  0  0
 15 14  1  0  0  0  0
 15 23  1  0  0  0  0
 15 18  1  0  0  0  0
 16 21  1  6  0  0  0
 16  7  1  0  0  0  0
 17 22  1  0  0  0  0
 17 19  1  0  0  0  0
 18 20  1  0  0  0  0
 18 21  1  0  0  0  0
 19 16  1  0  0  0  0
 20 17  1  0  0  0  0
 20 22  1  0  0  0  0
 22 19  1  0  0  0  0
 24 23  1  0  0  0  0
 24 25  1  0  0  0  0
 26 25  1  0  0  0  0
 26 29  1  0  0  0  0
 29 28  2  0  0  0  0
 29 27  1  0  0  0  0
 31 29  1  0  0  0  0
 31 30  1  0  0  0  0
 32 33  2  0  0  0  0
 33  8  1  0  0  0  0
 34 32  1  0  0  0  0
 34 36  1  0  0  0  0
 35 34  1  0  0  0  0
 38 37  1  0  0  0  0
 38 36  1  0  0  0  0
M  END
>  <MODEL>
5

>  <REMARK>
 VINA RESULT:      -6.2      3.937      8.475
  Name = 
  11 active torsions:
  status: ('A' for Active; 'I' for Inactive)
    1  A    between atoms: N_6  and  C_8
    2  A    between atoms: C_8  and  S_29
    3  A    between atoms: N_11  and  N_18
    4  A    between atoms: C_13  and  N_15
    5  A    between atoms: C_13  and  S_29
    6  A    between atoms: N_15  and  P_20
    7  A    between atoms: P_20  and  O_24
    8  A    between atoms: C_21  and  C_22
    9  A    between atoms: C_22  and  O_26
   10  A    between atoms: C_23  and  C_38
   11  A    between atoms: O_26  and  C_32
                            x       y       z     vdW  Elec       q    Type
                         _______ _______ _______ _____ _____    ______ ____

>  <TORSDO>
F 11

$$$$
=
 OpenBabel10232410323D

 38 44  0  0  1  0  0  0  0  0999 V2000
  184.6310  178.5480  143.0870 S   0  0  0  0  0  0  0  0  0  0  0  0
  188.2060  178.5540  141.4530 C   0  0  2  0  0  3  0  0  0  0  0  0
  186.7340  178.5110  141.7380 C   0  0  0  0  0  0  0  0  0  0  0  0
  188.4740  177.4480  143.6440 N   0  0  0  0  0  0  0  0  0  0  0  0
  185.7650  178.8160  140.8370 N   0  0  0  0  0  0  0  0  0  0  0  0
  186.2970  178.3250  143.0400 C   0  0  0  0  0  0  0  0  0  0  0  0
  188.5720  177.8870  140.2190 N   0  0  0  0  0  0  0  0  0  0  0  0
  184.5450  178.8480  141.4260 C   0  0  0  0  0  0  0  0  0  0  0  0
  189.8010  176.7810  141.7790 N   0  0  0  0  0  0  0  0  0  0  0  0
  187.2730  178.1120  144.1680 C   0  0  1  0  0  3  0  0  0  0  0  0
  188.9300  177.6900  142.4440 C   0  0  0  0  0  0  0  0  0  0  0  0
  189.5780  176.9120  140.5110 C   0  0  0  0  0  3  0  0  0  0  0  0
  186.6650  177.2570  145.2630 C   0  0  0  0  0  1  0  0  0  0  0  0
  188.3690  177.3000  135.0980 C   0  0  0  0  0  2  0  0  0  0  0  0
  189.6590  177.8760  135.5140 N   0  0  0  0  0  0  0  0  0  0  0  0
  188.1830  178.3190  138.9380 N   0  0  2  0  0  0  0  0  0  0  0  0
  187.3090  176.8400  137.1190 C   0  0  2  0  0  3  0  0  0  0  0  0
  188.9590  178.6210  136.5900 C   0  0  1  0  0  3  0  0  0  0  0  0
  187.0610  177.4570  138.4900 C   0  0  2  0  0  3  0  0  0  0  0  0
  187.6290  178.0270  136.1840 C   0  0  1  0  0  0  0  0  0  0  0  0
  189.3650  178.2800  138.0520 C   0  0  0  0  0  2  0  0  0  0  0  0
  186.4750  178.0330  137.2030 C   0  0  1  0  0  3  0  0  0  0  0  0
  190.4790  176.7700  136.0060 C   0  0  0  0  0  2  0  0  0  0  0  0
  191.0010  175.7260  134.6120 S   0  0  0  0  0  0  0  0  0  0  0  0
  192.0420  174.6740  135.6680 C   0  0  0  0  0  2  0  0  0  0  0  0
  193.4440  174.8820  135.3450 N   0  0  0  0  0  2  0  0  0  0  0  0
  193.9660  174.1500  138.0090 O   0  0  0  0  0  1  0  0  0  0  0  0
  195.7500  175.4080  136.5820 O   0  0  0  0  0  0  0  0  0  0  0  0
  194.2620  175.3290  136.8310 P   0  0  1  0  0  0  0  0  0  0  0  0
  193.0360  176.5780  138.5700 C   0  0  0  0  0  1  0  0  0  0  0  0
  193.7090  176.8370  137.3750 O   0  0  0  0  0  0  0  0  0  0  0  0
  183.2900  179.3550  139.4010 C   0  0  0  0  0  3  0  0  0  0  0  0
  183.3010  179.1380  140.7110 C   0  0  0  0  0  3  0  0  0  0  0  0
  182.0130  179.6450  138.6870 C   0  0  1  0  0  3  0  0  0  0  0  0
  181.5800  178.4070  137.9260 C   0  0  0  0  0  1  0  0  0  0  0  0
  181.0210  179.9910  139.6090 O   0  0  0  0  0  0  0  0  0  0  0  0
  181.3980  181.9240  138.4640 O   0  0  0  0  0  1  0  0  0  0  0  0
  180.4250  181.1390  139.0840 C   0  0  0  0  0  2  0  0  0  0  0  0
  2  3  1  1  0  0  0
  2 11  1  0  0  0  0
  3  6  2  0  0  0  0
  4 10  1  0  0  0  0
  5  8  2  0  0  0  0
  5  3  1  0  0  0  0
  6  1  1  0  0  0  0
  6 10  1  0  0  0  0
  7 12  1  0  0  0  0
  7  2  1  0  0  0  0
  8  1  1  0  0  0  0
  9 11  1  0  0  0  0
 10 13  1  1  0  0  0
 11  4  2  0  0  0  0
 12  9  2  0  0  0  0
 14 15  1  0  0  0  0
 14 20  1  0  0  0  0
 15 23  1  0  0  0  0
 15 18  1  0  0  0  0
 16 21  1  6  0  0  0
 16  7  1  0  0  0  0
 17 22  1  0  0  0  0
 17 19  1  0  0  0  0
 18 21  1  0  0  0  0
 19 16  1  0  0  0  0
 20 18  1  0  0  0  0
 20 17  1  0  0  0  0
 20 22  1  0  0  0  0
 22 19  1  0  0  0  0
 24 25  1  0  0  0  0
 24 23  1  0  0  0  0
 26 25  1  0  0  0  0
 26 29  1  0  0  0  0
 28 29  2  0  0  0  0
 29 31  1  0  0  0  0
 29 27  1  0  0  0  0
 31 30  1  0  0  0  0
 32 33  2  0  0  0  0
 33  8  1  0  0  0  0
 34 32  1  0  0  0  0
 34 36  1  0  0  0  0
 35 34  1  0  0  0  0
 37 38  1  0  0  0  0
 38 36  1  0  0  0  0
M  END
>  <MODEL>
6

>  <REMARK>
 VINA RESULT:      -6.1      4.618      8.063
  Name = 
  11 active torsions:
  status: ('A' for Active; 'I' for Inactive)
    1  A    between atoms: N_6  and  C_8
    2  A    between atoms: C_8  and  S_29
    3  A    between atoms: N_11  and  N_18
    4  A    between atoms: C_13  and  N_15
    5  A    between atoms: C_13  and  S_29
    6  A    between atoms: N_15  and  P_20
    7  A    between atoms: P_20  and  O_24
    8  A    between atoms: C_21  and  C_22
    9  A    between atoms: C_22  and  O_26
   10  A    between atoms: C_23  and  C_38
   11  A    between atoms: O_26  and  C_32
                            x       y       z     vdW  Elec       q    Type
                         _______ _______ _______ _____ _____    ______ ____

>  <TORSDO>
F 11

$$$$
=
 OpenBabel10232410323D

 38 44  0  0  1  0  0  0  0  0999 V2000
  190.4980  177.1170  141.1580 S   0  0  0  0  0  0  0  0  0  0  0  0
  187.8940  178.3250  138.4720 C   0  0  2  0  0  3  0  0  0  0  0  0
  188.6100  177.8960  139.7190 C   0  0  0  0  0  0  0  0  0  0  0  0
  189.3800  176.7420  137.2970 N   0  0  0  0  0  0  0  0  0  0  0  0
  188.2270  178.2260  140.9790 N   0  0  0  0  0  0  0  0  0  0  0  0
  189.8430  177.2730  139.6170 C   0  0  0  0  0  0  0  0  0  0  0  0
  186.4610  178.1170  138.5310 N   0  0  0  0  0  0  0  0  0  0  0  0
  189.1540  177.8370  141.8880 C   0  0  0  0  0  0  0  0  0  0  0  0
  187.0770  176.9080  136.7070 N   0  0  0  0  0  0  0  0  0  0  0  0
  190.4550  176.9680  138.2750 C   0  0  1  0  0  3  0  0  0  0  0  0
  188.2500  177.3950  137.3490 C   0  0  0  0  0  0  0  0  0  0  0  0
  186.0700  177.3330  137.3990 C   0  0  0  0  0  3  0  0  0  0  0  0
  191.3380  175.7360  138.3420 C   0  0  0  0  0  1  0  0  0  0  0  0
  181.9550  178.5840  140.9980 C   0  0  0  0  0  2  0  0  0  0  0  0
  181.8590  179.0950  139.6190 N   0  0  0  0  0  0  0  0  0  0  0  0
  185.5960  178.7910  139.4120 N   0  0  2  0  0  0  0  0  0  0  0  0
  184.1030  177.6960  141.0940 C   0  0  2  0  0  3  0  0  0  0  0  0
  183.2560  179.5870  139.7240 C   0  0  1  0  0  3  0  0  0  0  0  0
  185.5340  178.0120  140.6720 C   0  0  2  0  0  3  0  0  0  0  0  0
  183.3740  179.0560  141.1350 C   0  0  1  0  0  0  0  0  0  0  0  0
  184.2890  178.9640  138.7430 C   0  0  0  0  0  2  0  0  0  0  0  0
  184.7780  178.8250  141.7220 C   0  0  1  0  0  3  0  0  0  0  0  0
  181.7120  177.9310  138.7460 C   0  0  0  0  0  2  0  0  0  0  0  0
  180.7540  176.6410  139.5980 S   0  0  0  0  0  0  0  0  0  0  0  0
  181.5010  175.3060  138.6150 C   0  0  0  0  0  2  0  0  0  0  0  0
  182.9240  175.5520  138.4470 N   0  0  0  0  0  2  0  0  0  0  0  0
  183.7390  175.1950  135.7810 O   0  0  0  0  0  0  0  0  0  0  0  0
  184.8430  173.8450  137.7210 O   0  0  0  0  0  1  0  0  0  0  0  0
  183.5160  174.4050  137.2610 P   0  0  1  0  0  0  0  0  0  0  0  0
  183.1880  171.9770  136.9700 C   0  0  0  0  0  1  0  0  0  0  0  0
  182.4110  173.1320  137.0730 O   0  0  0  0  0  0  0  0  0  0  0  0
  187.9450  177.6310  143.9920 C   0  0  0  0  0  3  0  0  0  0  0  0
  189.0210  178.0430  143.3300 C   0  0  0  0  0  3  0  0  0  0  0  0
  187.8270  177.8460  145.4630 C   0  0  1  0  0  3  0  0  0  0  0  0
  186.3770  177.6750  145.8730 C   0  0  0  0  0  1  0  0  0  0  0  0
  188.6140  176.9130  146.1440 O   0  0  0  0  0  0  0  0  0  0  0  0
  190.4930  176.9440  147.4320 O   0  0  0  0  0  1  0  0  0  0  0  0
  189.3580  177.6640  147.0550 C   0  0  0  0  0  2  0  0  0  0  0  0
  1  8  1  0  0  0  0
  2 11  1  6  0  0  0
  2  7  1  0  0  0  0
  2  3  1  0  0  0  0
  3  5  1  0  0  0  0
  4 11  2  0  0  0  0
  4 10  1  0  0  0  0
  5  8  2  0  0  0  0
  6  3  2  0  0  0  0
  6  1  1  0  0  0  0
  8 33  1  0  0  0  0
  9 11  1  0  0  0  0
  9 12  2  0  0  0  0
 10 13  1  1  0  0  0
 10  6  1  0  0  0  0
 12  7  1  0  0  0  0
 14 20  1  0  0  0  0
 15 18  1  0  0  0  0
 15 14  1  0  0  0  0
 16  7  1  6  0  0  0
 16 19  1  0  0  0  0
 17 20  1  0  0  0  0
 17 22  1  0  0  0  0
 18 20  1  0  0  0  0
 19 17  1  0  0  0  0
 19 22  1  0  0  0  0
 20 22  1  0  0  0  0
 21 16  1  0  0  0  0
 21 18  1  0  0  0  0
 23 24  1  0  0  0  0
 23 15  1  0  0  0  0
 25 24  1  0  0  0  0
 26 25  1  0  0  0  0
 27 29  2  0  0  0  0
 29 28  1  0  0  0  0
 29 26  1  0  0  0  0
 30 31  1  0  0  0  0
 31 29  1  0  0  0  0
 32 34  1  0  0  0  0
 33 32  2  0  0  0  0
 34 35  1  0  0  0  0
 34 36  1  0  0  0  0
 36 38  1  0  0  0  0
 38 37  1  0  0  0  0
M  END
>  <MODEL>
7

>  <REMARK>
 VINA RESULT:      -6.1      3.499      8.910
  Name = 
  11 active torsions:
  status: ('A' for Active; 'I' for Inactive)
    1  A    between atoms: N_6  and  C_8
    2  A    between atoms: C_8  and  S_29
    3  A    between atoms: N_11  and  N_18
    4  A    between atoms: C_13  and  N_15
    5  A    between atoms: C_13  and  S_29
    6  A    between atoms: N_15  and  P_20
    7  A    between atoms: P_20  and  O_24
    8  A    between atoms: C_21  and  C_22
    9  A    between atoms: C_22  and  O_26
   10  A    between atoms: C_23  and  C_38
   11  A    between atoms: O_26  and  C_32
                            x       y       z     vdW  Elec       q    Type
                         _______ _______ _______ _____ _____    ______ ____

>  <TORSDO>
F 11

$$$$
=
 OpenBabel10232410323D

 38 44  0  0  1  0  0  0  0  0999 V2000
  190.4200  177.0120  137.6680 S   0  0  0  0  0  0  0  0  0  0  0  0
  189.5580  176.8410  141.5000 C   0  0  2  0  0  3  0  0  0  0  0  0
  189.5580  177.0450  140.0140 C   0  0  0  0  0  0  0  0  0  0  0  0
  191.9760  177.3230  141.3800 N   0  0  0  0  0  0  0  0  0  0  0  0
  188.4410  177.1250  139.2470 N   0  0  0  0  0  0  0  0  0  0  0  0
  190.7530  176.9740  139.3170 C   0  0  0  0  0  0  0  0  0  0  0  0
  188.6440  177.7220  142.2010 N   0  0  0  0  0  0  0  0  0  0  0  0
  188.7550  177.1440  137.9290 C   0  0  0  0  0  0  0  0  0  0  0  0
  190.6510  178.2070  143.1530 N   0  0  0  0  0  0  0  0  0  0  0  0
  192.0610  176.7490  140.0300 C   0  0  1  0  0  3  0  0  0  0  0  0
  190.8650  177.3120  142.0670 C   0  0  0  0  0  0  0  0  0  0  0  0
  189.3760  178.4260  143.2090 C   0  0  0  0  0  3  0  0  0  0  0  0
  193.2110  177.3970  139.2810 C   0  0  0  0  0  1  0  0  0  0  0  0
  183.9180  179.3700  143.4470 C   0  0  0  0  0  2  0  0  0  0  0  0
  184.4130  178.3920  144.4310 N   0  0  0  0  0  0  0  0  0  0  0  0
  187.2440  177.6830  142.0680 N   0  0  2  0  0  0  0  0  0  0  0  0
  185.7400  179.6810  142.0330 C   0  0  2  0  0  3  0  0  0  0  0  0
  185.0990  177.6630  143.3340 C   0  0  1  0  0  3  0  0  0  0  0  0
  186.8270  178.8900  141.3140 C   0  0  2  0  0  3  0  0  0  0  0  0
  184.6090  178.6680  142.3140 C   0  0  1  0  0  0  0  0  0  0  0  0
  186.6490  177.5760  143.4160 C   0  0  0  0  0  2  0  0  0  0  0  0
  185.3450  178.7700  140.9660 C   0  0  1  0  0  3  0  0  0  0  0  0
  185.3290  179.1090  145.3180 C   0  0  0  0  0  2  0  0  0  0  0  0
  185.2250  178.4140  146.9960 S   0  0  0  0  0  0  0  0  0  0  0  0
  186.9740  178.7650  147.3490 C   0  0  0  0  0  2  0  0  0  0  0  0
  187.8230  178.0250  146.4290 N   0  0  0  0  0  2  0  0  0  0  0  0
  189.5480  178.4080  148.6160 O   0  0  0  0  0  1  0  0  0  0  0  0
  188.6980  176.0280  147.9690 O   0  0  0  0  0  0  0  0  0  0  0  0
  189.1390  177.3420  147.3660 P   0  0  1  0  0  0  0  0  0  0  0  0
  191.4660  176.5360  147.2130 C   0  0  0  0  0  1  0  0  0  0  0  0
  190.4880  177.0740  146.3740 O   0  0  0  0  0  0  0  0  0  0  0  0
  186.5090  176.8450  137.0350 C   0  0  0  0  0  3  0  0  0  0  0  0
  187.7650  177.2360  136.8550 C   0  0  0  0  0  3  0  0  0  0  0  0
  185.5110  176.9510  135.9320 C   0  0  1  0  0  3  0  0  0  0  0  0
  185.8570  175.9430  134.8540 C   0  0  0  0  0  1  0  0  0  0  0  0
  184.2300  176.6850  136.4220 O   0  0  0  0  0  0  0  0  0  0  0  0
  182.7090  178.0800  137.3870 O   0  0  0  0  0  1  0  0  0  0  0  0
  184.0270  177.6240  137.4340 C   0  0  0  0  0  2  0  0  0  0  0  0
  1  8  1  0  0  0  0
  1  6  1  0  0  0  0
  2  3  1  6  0  0  0
  2 11  1  0  0  0  0
  2  7  1  0  0  0  0
  4 11  2  0  0  0  0
  5  3  1  0  0  0  0
  6  3  2  0  0  0  0
  6 10  1  0  0  0  0
  7 12  1  0  0  0  0
  8  5  2  0  0  0  0
  9 12  2  0  0  0  0
 10 13  1  6  0  0  0
 10  4  1  0  0  0  0
 11  9  1  0  0  0  0
 14 15  1  0  0  0  0
 15 23  1  0  0  0  0
 16  7  1  1  0  0  0
 16 21  1  0  0  0  0
 17 20  1  0  0  0  0
 18 21  1  0  0  0  0
 18 15  1  0  0  0  0
 19 17  1  0  0  0  0
 19 16  1  0  0  0  0
 20 18  1  0  0  0  0
 20 14  1  0  0  0  0
 22 19  1  0  0  0  0
 22 17  1  0  0  0  0
 22 20  1  0  0  0  0
 23 24  1  0  0  0  0
 24 25  1  0  0  0  0
 26 25  1  0  0  0  0
 26 29  1  0  0  0  0
 29 28  2  0  0  0  0
 29 27  1  0  0  0  0
 31 30  1  0  0  0  0
 31 29  1  0  0  0  0
 33 32  2  0  0  0  0
 33  8  1  0  0  0  0
 34 36  1  0  0  0  0
 34 32  1  0  0  0  0
 35 34  1  0  0  0  0
 36 38  1  0  0  0  0
 37 38  1  0  0  0  0
M  END
>  <MODEL>
8

>  <REMARK>
 VINA RESULT:      -6.0      2.597      5.328
  Name = 
  11 active torsions:
  status: ('A' for Active; 'I' for Inactive)
    1  A    between atoms: N_6  and  C_8
    2  A    between atoms: C_8  and  S_29
    3  A    between atoms: N_11  and  N_18
    4  A    between atoms: C_13  and  N_15
    5  A    between atoms: C_13  and  S_29
    6  A    between atoms: N_15  and  P_20
    7  A    between atoms: P_20  and  O_24
    8  A    between atoms: C_21  and  C_22
    9  A    between atoms: C_22  and  O_26
   10  A    between atoms: C_23  and  C_38
   11  A    between atoms: O_26  and  C_32
                            x       y       z     vdW  Elec       q    Type
                         _______ _______ _______ _____ _____    ______ ____

>  <TORSDO>
F 11

$$$$
=
 OpenBabel10232410323D

 38 44  0  0  1  0  0  0  0  0999 V2000
  192.8570  177.2060  140.4710 S   0  0  0  0  0  0  0  0  0  0  0  0
  188.9680  176.9080  139.9830 C   0  0  2  0  0  3  0  0  0  0  0  0
  190.4510  177.0560  139.8140 C   0  0  0  0  0  0  0  0  0  0  0  0
  189.2840  178.0790  142.1340 N   0  0  0  0  0  0  0  0  0  0  0  0
  191.1270  176.7790  138.6690 N   0  0  0  0  0  0  0  0  0  0  0  0
  191.2410  177.3190  140.9210 C   0  0  0  0  0  0  0  0  0  0  0  0
  188.2040  177.5020  138.9040 N   0  0  0  0  0  0  0  0  0  0  0  0
  192.4660  176.8480  138.8660 C   0  0  0  0  0  0  0  0  0  0  0  0
  187.4180  178.5870  140.7410 N   0  0  0  0  0  0  0  0  0  0  0  0
  190.6320  177.5130  142.2850 C   0  0  1  0  0  3  0  0  0  0  0  0
  188.5100  177.7610  141.1300 C   0  0  0  0  0  0  0  0  0  0  0  0
  187.2620  178.4210  139.4660 C   0  0  0  0  0  3  0  0  0  0  0  0
  191.4750  178.4470  143.1330 C   0  0  0  0  0  1  0  0  0  0  0  0
  185.8700  176.4850  134.4170 C   0  0  0  0  0  2  0  0  0  0  0  0
  185.6680  175.3880  135.3790 N   0  0  0  0  0  0  0  0  0  0  0  0
  188.2240  177.0470  137.5720 N   0  0  2  0  0  0  0  0  0  0  0  0
  186.9890  178.0970  135.6680 C   0  0  2  0  0  3  0  0  0  0  0  0
  187.0340  175.6250  135.9090 C   0  0  1  0  0  3  0  0  0  0  0  0
  188.1140  178.2320  136.6870 C   0  0  2  0  0  3  0  0  0  0  0  0
  187.2510  176.7630  134.9370 C   0  0  1  0  0  0  0  0  0  0  0  0
  187.1390  176.0600  137.3990 C   0  0  0  0  0  2  0  0  0  0  0  0
  188.3500  177.7970  135.2430 C   0  0  1  0  0  3  0  0  0  0  0  0
  184.6060  175.8130  136.2900 C   0  0  0  0  0  2  0  0  0  0  0  0
  183.4330  176.8860  135.4060 S   0  0  0  0  0  0  0  0  0  0  0  0
  182.8860  177.7040  136.9350 C   0  0  0  0  0  2  0  0  0  0  0  0
  184.0090  177.8520  137.8460 N   0  0  0  0  0  2  0  0  0  0  0  0
  183.8140  178.1700  140.6320 O   0  0  0  0  0  1  0  0  0  0  0  0
  184.2580  180.2110  139.0700 O   0  0  0  0  0  0  0  0  0  0  0  0
  183.4910  178.9100  139.1450 P   0  0  1  0  0  0  0  0  0  0  0  0
  181.3650  179.3320  140.3240 C   0  0  0  0  0  1  0  0  0  0  0  0
  181.8320  179.2360  139.0120 O   0  0  0  0  0  0  0  0  0  0  0  0
  193.8440  175.3820  137.4930 C   0  0  0  0  0  3  0  0  0  0  0  0
  193.4580  176.6110  137.8160 C   0  0  0  0  0  3  0  0  0  0  0  0
  194.8530  175.1580  136.4170 C   0  0  1  0  0  3  0  0  0  0  0  0
  194.7370  176.2680  135.3910 C   0  0  0  0  0  1  0  0  0  0  0  0
  196.1390  175.1660  136.9640 O   0  0  0  0  0  0  0  0  0  0  0  0
  198.1350  175.7350  136.0240 O   0  0  0  0  0  1  0  0  0  0  0  0
  196.9930  174.9450  135.8810 C   0  0  0  0  0  2  0  0  0  0  0  0
  1  6  1  0  0  0  0
  2  3  1  6  0  0  0
  2 11  1  0  0  0  0
  3  6  2  0  0  0  0
  4 10  1  0  0  0  0
  5  8  2  0  0  0  0
  5  3  1  0  0  0  0
  6 10  1  0  0  0  0
  7 12  1  0  0  0  0
  7  2  1  0  0  0  0
  8  1  1  0  0  0  0
  9 11  1  0  0  0  0
 10 13  1  1  0  0  0
 11  4  2  0  0  0  0
 12  9  2  0  0  0  0
 14 20  1  0  0  0  0
 14 15  1  0  0  0  0
 15 18  1  0  0  0  0
 15 23  1  0  0  0  0
 16 21  1  1  0  0  0
 16  7  1  0  0  0  0
 17 19  1  0  0  0  0
 18 21  1  0  0  0  0
 19 16  1  0  0  0  0
 20 22  1  0  0  0  0
 20 17  1  0  0  0  0
 20 18  1  0  0  0  0
 22 17  1  0  0  0  0
 22 19  1  0  0  0  0
 24 23  1  0  0  0  0
 24 25  1  0  0  0  0
 25 26  1  0  0  0  0
 26 29  1  0  0  0  0
 28 29  2  0  0  0  0
 29 27  1  0  0  0  0
 31 29  1  0  0  0  0
 31 30  1  0  0  0  0
 32 33  2  0  0  0  0
 33  8  1  0  0  0  0
 34 36  1  0  0  0  0
 34 32  1  0  0  0  0
 35 34  1  0  0  0  0
 38 37  1  0  0  0  0
 38 36  1  0  0  0  0
M  END
>  <MODEL>
9

>  <REMARK>
 VINA RESULT:      -6.0      4.350      7.986
  Name = 
  11 active torsions:
  status: ('A' for Active; 'I' for Inactive)
    1  A    between atoms: N_6  and  C_8
    2  A    between atoms: C_8  and  S_29
    3  A    between atoms: N_11  and  N_18
    4  A    between atoms: C_13  and  N_15
    5  A    between atoms: C_13  and  S_29
    6  A    between atoms: N_15  and  P_20
    7  A    between atoms: P_20  and  O_24
    8  A    between atoms: C_21  and  C_22
    9  A    between atoms: C_22  and  O_26
   10  A    between atoms: C_23  and  C_38
   11  A    between atoms: O_26  and  C_32
                            x       y       z     vdW  Elec       q    Type
                         _______ _______ _______ _____ _____    ______ ____

>  <TORSDO>
F 11

$$$$
