=
 OpenBabel10232409343D

 33 37  0  0  1  0  0  0  0  0999 V2000
  186.9050  177.6360  143.1620 C   0  0  0  0  0  2  0  0  0  0  0  0
  189.3210  177.0660  142.9480 C   0  0  2  0  0  0  0  0  0  0  0  0
  189.4410  178.0450  141.7770 C   0  0  2  0  0  3  0  0  0  0  0  0
  186.9830  178.2460  141.8290 N   0  0  2  0  0  0  0  0  0  0  0  0
  190.3270  177.3220  144.0700 C   0  0  2  0  0  3  0  0  0  0  0  0
  190.4820  176.1130  143.1460 C   0  0  0  0  0  2  0  0  0  0  0  0
  187.9340  176.5130  143.2820 C   0  0  0  0  0  2  0  0  0  0  0  0
  188.2410  178.9970  141.7830 C   0  0  0  0  0  2  0  0  0  0  0  0
  183.9670  178.4220  143.0900 C   0  0  2  0  0  3  0  0  0  0  0  0
  184.6310  178.4040  139.4700 C   0  0  0  0  0  0  0  0  0  0  0  0
  184.7570  178.5300  140.8590 C   0  0  0  0  0  0  0  0  0  0  0  0
  185.1550  179.3870  143.0200 C   0  0  0  0  0  2  0  0  0  0  0  0
  185.8520  179.1730  141.6550 C   0  0  1  0  0  3  0  0  0  0  0  0
  182.5600  177.2670  139.8350 N   0  0  0  0  0  0  0  0  0  0  0  0
  183.7520  178.0800  141.6700 C   0  0  0  0  0  0  0  0  0  0  0  0
  182.7630  179.1520  143.6550 C   0  0  0  0  0  1  0  0  0  0  0  0
  183.5030  177.7430  138.9720 C   0  0  0  0  0  3  0  0  0  0  0  0
  182.6700  177.4400  141.1560 N   0  0  0  0  0  0  0  0  0  0  0  0
  185.6150  178.9960  138.5220 C   0  0  0  0  0  1  0  0  0  0  0  0
  188.4810  177.4480  139.4140 C   0  0  0  0  0  2  0  0  0  0  0  0
  190.7950  176.8540  140.1330 C   0  0  0  0  0  3  0  0  0  0  0  0
  190.1440  176.6700  137.7240 C   0  0  1  0  0  3  0  0  0  0  0  0
  190.3230  175.9000  136.5760 O   0  0  0  0  0  1  0  0  0  0  0  0
  188.7070  176.5390  138.2070 C   0  0  0  0  0  2  0  0  0  0  0  0
  189.5910  177.3620  140.4450 C   0  0  0  0  0  0  0  0  0  0  0  0
  191.0760  176.1700  138.8210 C   0  0  0  0  0  2  0  0  0  0  0  0
  189.8890  176.9380  145.4990 C   0  0  2  0  0  3  0  0  0  0  0  0
  188.7510  177.6230  145.9450 O   0  0  0  0  0  1  0  0  0  0  0  0
  191.0390  177.1120  146.4780 C   0  0  0  0  0  2  0  0  0  0  0  0
  191.9270  175.8800  146.4750 C   0  0  0  0  0  2  0  0  0  0  0  0
  192.5300  175.6650  147.8520 C   0  0  0  0  0  2  0  0  0  0  0  0
  192.5300  176.9130  148.5960 N   0  0  0  0  0  2  0  0  0  0  0  0
  193.4810  176.7530  149.6800 C   0  0  0  0  0  1  0  0  0  0  0  0
  1  7  1  0  0  0  0
  2  6  1  6  0  0  0
  2  7  1  0  0  0  0
  2  5  1  0  0  0  0
  3 25  1  6  0  0  0
  3  8  1  0  0  0  0
  3  2  1  0  0  0  0
  4  8  1  1  0  0  0
  4  1  1  0  0  0  0
  5 27  1  1  0  0  0
  6  5  1  0  0  0  0
  9 16  1  6  0  0  0
 10 11  1  0  0  0  0
 11 13  1  0  0  0  0
 11 15  2  0  0  0  0
 12  9  1  0  0  0  0
 13  4  1  0  0  0  0
 13 12  1  1  0  0  0
 14 18  2  0  0  0  0
 15  9  1  0  0  0  0
 17 10  2  0  0  0  0
 17 14  1  0  0  0  0
 18 15  1  0  0  0  0
 19 10  1  0  0  0  0
 20 25  1  0  0  0  0
 21 25  2  0  0  0  0
 22 23  1  6  0  0  0
 22 24  1  0  0  0  0
 22 26  1  0  0  0  0
 24 20  1  0  0  0  0
 26 21  1  0  0  0  0
 27 28  1  1  0  0  0
 27 29  1  0  0  0  0
 30 29  1  0  0  0  0
 30 31  1  0  0  0  0
 31 32  1  0  0  0  0
 32 33  1  0  0  0  0
M  END
>  <MODEL>
1

>  <REMARK>
 VINA RESULT:      -7.8      0.000      0.000
  Name = 
  7 active torsions:
  status: ('A' for Active; 'I' for Inactive)
    1  A    between atoms: N_2  and  C_9
    2  A    between atoms: C_4  and  C_24
    3  A    between atoms: C_4  and  C_29
    4  A    between atoms: C_9  and  C_23
    5  A    between atoms: C_12  and  N_20
    6  A    between atoms: C_18  and  C_26
    7  A    between atoms: C_23  and  C_29
                            x       y       z     vdW  Elec       q    Type
                         _______ _______ _______ _____ _____    ______ ____

>  <TORSDO>
F 7

$$$$
=
 OpenBabel10232409343D

 33 37  0  0  1  0  0  0  0  0999 V2000
  187.0920  177.7970  142.6080 C   0  0  0  0  0  2  0  0  0  0  0  0
  189.4750  177.2110  142.1800 C   0  0  2  0  0  0  0  0  0  0  0  0
  189.4230  177.9920  140.8630 C   0  0  2  0  0  3  0  0  0  0  0  0
  186.9870  178.1880  141.1970 N   0  0  2  0  0  0  0  0  0  0  0  0
  190.6080  177.6470  143.1100 C   0  0  2  0  0  3  0  0  0  0  0  0
  190.6750  176.3060  142.3750 C   0  0  0  0  0  2  0  0  0  0  0  0
  188.1550  176.7120  142.7710 C   0  0  0  0  0  2  0  0  0  0  0  0
  188.2110  178.9270  140.8730 C   0  0  0  0  0  2  0  0  0  0  0  0
  183.9980  178.2970  142.5270 C   0  0  2  0  0  3  0  0  0  0  0  0
  184.5760  178.1990  138.8940 C   0  0  0  0  0  0  0  0  0  0  0  0
  184.7300  178.3680  140.2750 C   0  0  0  0  0  0  0  0  0  0  0  0
  185.1500  179.3000  142.4010 C   0  0  0  0  0  2  0  0  0  0  0  0
  185.8210  179.0700  141.0260 C   0  0  1  0  0  3  0  0  0  0  0  0
  182.5540  177.0020  139.3420 N   0  0  0  0  0  0  0  0  0  0  0  0
  183.7610  177.9070  141.1240 C   0  0  0  0  0  0  0  0  0  0  0  0
  182.7830  179.0020  143.1020 C   0  0  0  0  0  1  0  0  0  0  0  0
  183.4590  177.4850  138.4420 C   0  0  0  0  0  3  0  0  0  0  0  0
  182.6900  177.2170  140.6540 N   0  0  0  0  0  0  0  0  0  0  0  0
  185.5150  178.7950  137.9050 C   0  0  0  0  0  1  0  0  0  0  0  0
  188.2270  177.0960  138.7110 C   0  0  0  0  0  2  0  0  0  0  0  0
  190.5700  176.4890  139.3200 C   0  0  0  0  0  3  0  0  0  0  0  0
  189.6950  175.9770  137.0320 C   0  0  1  0  0  3  0  0  0  0  0  0
  189.7350  175.0320  136.0090 O   0  0  0  0  0  1  0  0  0  0  0  0
  188.3030  176.0030  137.6480 C   0  0  0  0  0  2  0  0  0  0  0  0
  189.4220  177.1050  139.6470 C   0  0  0  0  0  0  0  0  0  0  0  0
  190.6990  175.5980  138.1130 C   0  0  0  0  0  2  0  0  0  0  0  0
  190.3620  177.4930  144.6260 C   0  0  2  0  0  3  0  0  0  0  0  0
  189.6810  178.5740  145.2000 O   0  0  0  0  0  1  0  0  0  0  0  0
  191.6690  177.2290  145.3570 C   0  0  0  0  0  2  0  0  0  0  0  0
  191.4350  176.3100  146.5430 C   0  0  0  0  0  2  0  0  0  0  0  0
  190.6410  177.0320  147.6160 C   0  0  0  0  0  2  0  0  0  0  0  0
  189.2840  176.5160  147.6640 N   0  0  0  0  0  2  0  0  0  0  0  0
  188.4740  177.5280  148.3160 C   0  0  0  0  0  1  0  0  0  0  0  0
  1  7  1  0  0  0  0
  2  6  1  6  0  0  0
  2  7  1  0  0  0  0
  2  5  1  0  0  0  0
  3 25  1  6  0  0  0
  3  8  1  0  0  0  0
  3  2  1  0  0  0  0
  4  8  1  1  0  0  0
  4  1  1  0  0  0  0
  5 27  1  1  0  0  0
  6  5  1  0  0  0  0
  9 16  1  6  0  0  0
 10 11  1  0  0  0  0
 11 13  1  0  0  0  0
 11 15  2  0  0  0  0
 12  9  1  0  0  0  0
 13  4  1  0  0  0  0
 13 12  1  1  0  0  0
 14 18  2  0  0  0  0
 15  9  1  0  0  0  0
 17 10  2  0  0  0  0
 17 14  1  0  0  0  0
 18 15  1  0  0  0  0
 19 10  1  0  0  0  0
 20 25  1  0  0  0  0
 21 25  2  0  0  0  0
 22 23  1  6  0  0  0
 22 24  1  0  0  0  0
 22 26  1  0  0  0  0
 24 20  1  0  0  0  0
 26 21  1  0  0  0  0
 27 28  1  1  0  0  0
 27 29  1  0  0  0  0
 29 30  1  0  0  0  0
 30 31  1  0  0  0  0
 31 32  1  0  0  0  0
 32 33  1  0  0  0  0
M  END
>  <MODEL>
2

>  <REMARK>
 VINA RESULT:      -7.3      1.188      1.414
  Name = 
  7 active torsions:
  status: ('A' for Active; 'I' for Inactive)
    1  A    between atoms: N_2  and  C_9
    2  A    between atoms: C_4  and  C_24
    3  A    between atoms: C_4  and  C_29
    4  A    between atoms: C_9  and  C_23
    5  A    between atoms: C_12  and  N_20
    6  A    between atoms: C_18  and  C_26
    7  A    between atoms: C_23  and  C_29
                            x       y       z     vdW  Elec       q    Type
                         _______ _______ _______ _____ _____    ______ ____

>  <TORSDO>
F 7

$$$$
=
 OpenBabel10232409343D

 33 37  0  0  1  0  0  0  0  0999 V2000
  187.8330  178.0610  142.3960 C   0  0  0  0  0  2  0  0  0  0  0  0
  190.0580  177.1520  141.7430 C   0  0  2  0  0  0  0  0  0  0  0  0
  189.8800  176.0110  142.7480 C   0  0  2  0  0  3  0  0  0  0  0  0
  187.8850  177.1980  143.5830 N   0  0  2  0  0  0  0  0  0  0  0  0
  190.3660  176.6780  140.3220 C   0  0  2  0  0  3  0  0  0  0  0  0
  191.4520  177.3350  141.1770 C   0  0  0  0  0  2  0  0  0  0  0  0
  189.2480  178.4330  141.9580 C   0  0  0  0  0  2  0  0  0  0  0  0
  188.4030  175.9010  143.1380 C   0  0  0  0  0  2  0  0  0  0  0  0
  185.1840  179.0490  143.5740 C   0  0  2  0  0  3  0  0  0  0  0  0
  186.6640  177.6720  146.6500 C   0  0  0  0  0  0  0  0  0  0  0  0
  186.3090  177.9000  145.3150 C   0  0  0  0  0  0  0  0  0  0  0  0
  185.5060  177.6230  143.1150 C   0  0  0  0  0  2  0  0  0  0  0  0
  186.5230  177.0270  144.1160 C   0  0  1  0  0  3  0  0  0  0  0  0
  185.7080  179.7960  147.1900 N   0  0  0  0  0  0  0  0  0  0  0  0
  185.6130  179.0320  144.9870 C   0  0  0  0  0  0  0  0  0  0  0  0
  183.6890  179.2830  143.4690 C   0  0  0  0  0  1  0  0  0  0  0  0
  186.3560  178.6630  147.5890 C   0  0  0  0  0  3  0  0  0  0  0  0
  185.3310  179.9750  145.9210 N   0  0  0  0  0  0  0  0  0  0  0  0
  187.2950  176.4020  147.1030 C   0  0  0  0  0  1  0  0  0  0  0  0
  190.5140  177.2660  144.9580 C   0  0  0  0  0  2  0  0  0  0  0  0
  191.6160  175.1490  144.2310 C   0  0  0  0  0  3  0  0  0  0  0  0
  191.9490  176.0010  146.5600 C   0  0  1  0  0  3  0  0  0  0  0  0
  192.8910  176.1180  147.5800 O   0  0  0  0  0  1  0  0  0  0  0  0
  191.6090  177.3810  146.0170 C   0  0  0  0  0  2  0  0  0  0  0  0
  190.7580  176.1470  143.9630 C   0  0  0  0  0  0  0  0  0  0  0  0
  192.5270  175.1590  145.4290 C   0  0  0  0  0  2  0  0  0  0  0  0
  189.8800  177.5790  139.1670 C   0  0  2  0  0  3  0  0  0  0  0  0
  188.4860  177.6210  139.0320 O   0  0  0  0  0  1  0  0  0  0  0  0
  190.5360  177.1710  137.8570 C   0  0  0  0  0  2  0  0  0  0  0  0
  190.8670  175.6900  137.8700 C   0  0  0  0  0  2  0  0  0  0  0  0
  189.7900  174.9070  137.1400 C   0  0  0  0  0  2  0  0  0  0  0  0
  189.6910  175.3580  135.7630 N   0  0  0  0  0  2  0  0  0  0  0  0
  188.2770  175.4230  135.4450 C   0  0  0  0  0  1  0  0  0  0  0  0
  2  6  1  1  0  0  0
  2  7  1  0  0  0  0
  2  3  1  0  0  0  0
  3  8  1  0  0  0  0
  3 25  1  1  0  0  0
  4  1  1  6  0  0  0
  4 13  1  0  0  0  0
  5 27  1  6  0  0  0
  5  6  1  0  0  0  0
  5  2  1  0  0  0  0
  7  1  1  0  0  0  0
  8  4  1  0  0  0  0
  9 16  1  1  0  0  0
  9 15  1  0  0  0  0
 10 19  1  0  0  0  0
 10 17  1  0  0  0  0
 11 10  2  0  0  0  0
 12  9  1  0  0  0  0
 13 12  1  6  0  0  0
 13 11  1  0  0  0  0
 14 17  2  0  0  0  0
 15 11  1  0  0  0  0
 15 18  2  0  0  0  0
 18 14  1  0  0  0  0
 20 24  1  0  0  0  0
 21 26  1  0  0  0  0
 22 23  1  1  0  0  0
 24 22  1  0  0  0  0
 25 21  2  0  0  0  0
 25 20  1  0  0  0  0
 26 22  1  0  0  0  0
 27 28  1  6  0  0  0
 29 30  1  0  0  0  0
 29 27  1  0  0  0  0
 31 30  1  0  0  0  0
 32 31  1  0  0  0  0
 33 32  1  0  0  0  0
M  END
>  <MODEL>
3

>  <REMARK>
 VINA RESULT:      -7.2      2.844      6.969
  Name = 
  7 active torsions:
  status: ('A' for Active; 'I' for Inactive)
    1  A    between atoms: N_2  and  C_9
    2  A    between atoms: C_4  and  C_24
    3  A    between atoms: C_4  and  C_29
    4  A    between atoms: C_9  and  C_23
    5  A    between atoms: C_12  and  N_20
    6  A    between atoms: C_18  and  C_26
    7  A    between atoms: C_23  and  C_29
                            x       y       z     vdW  Elec       q    Type
                         _______ _______ _______ _____ _____    ______ ____

>  <TORSDO>
F 7

$$$$
=
 OpenBabel10232409343D

 33 37  0  0  1  0  0  0  0  0999 V2000
  190.2770  177.0060  140.5550 C   0  0  0  0  0  2  0  0  0  0  0  0
  190.1920  176.4830  138.1210 C   0  0  2  0  0  0  0  0  0  0  0  0
  189.1150  177.5560  137.9350 C   0  0  2  0  0  3  0  0  0  0  0  0
  189.0070  177.7240  140.3930 N   0  0  2  0  0  0  0  0  0  0  0  0
  191.4010  176.6580  137.2010 C   0  0  2  0  0  3  0  0  0  0  0  0
  190.3960  175.5300  136.9600 C   0  0  0  0  0  2  0  0  0  0  0  0
  190.3800  175.8880  139.5180 C   0  0  0  0  0  2  0  0  0  0  0  0
  189.1120  178.4910  139.1480 C   0  0  0  0  0  2  0  0  0  0  0  0
  189.6370  177.5490  143.6020 C   0  0  2  0  0  3  0  0  0  0  0  0
  186.3230  178.4100  142.2500 C   0  0  0  0  0  0  0  0  0  0  0  0
  187.6990  178.2010  142.4030 C   0  0  0  0  0  0  0  0  0  0  0  0
  190.0350  178.5200  142.4840 C   0  0  0  0  0  2  0  0  0  0  0  0
  188.8280  178.6490  141.5250 C   0  0  1  0  0  3  0  0  0  0  0  0
  185.9870  177.1880  144.2780 N   0  0  0  0  0  0  0  0  0  0  0  0
  188.1630  177.5540  143.5160 C   0  0  0  0  0  0  0  0  0  0  0  0
  190.1000  178.1050  144.9350 C   0  0  0  0  0  1  0  0  0  0  0  0
  185.4670  177.8710  143.2180 C   0  0  0  0  0  3  0  0  0  0  0  0
  187.3060  177.0410  144.4360 N   0  0  0  0  0  0  0  0  0  0  0  0
  185.7570  179.2260  141.1410 C   0  0  0  0  0  1  0  0  0  0  0  0
  186.5370  177.9000  137.6230 C   0  0  0  0  0  2  0  0  0  0  0  0
  187.6640  175.6950  137.3120 C   0  0  0  0  0  3  0  0  0  0  0  0
  185.3090  176.0210  136.5330 C   0  0  1  0  0  3  0  0  0  0  0  0
  184.0740  175.3850  136.4180 O   0  0  0  0  0  1  0  0  0  0  0  0
  185.2120  177.1440  137.5560 C   0  0  0  0  0  2  0  0  0  0  0  0
  187.7470  176.9850  137.6790 C   0  0  0  0  0  0  0  0  0  0  0  0
  186.3550  175.0190  137.0050 C   0  0  0  0  0  2  0  0  0  0  0  0
  192.7590  176.1530  137.7330 C   0  0  2  0  0  3  0  0  0  0  0  0
  193.4230  177.0750  138.5520 O   0  0  0  0  0  1  0  0  0  0  0  0
  193.6530  175.7110  136.5850 C   0  0  0  0  0  2  0  0  0  0  0  0
  194.8310  174.9100  137.1110 C   0  0  0  0  0  2  0  0  0  0  0  0
  194.3390  173.6850  137.8590 C   0  0  0  0  0  2  0  0  0  0  0  0
  195.3550  173.2280  138.7920 N   0  0  0  0  0  2  0  0  0  0  0  0
  195.9770  174.4160  139.3460 C   0  0  0  0  0  1  0  0  0  0  0  0
  2  6  1  6  0  0  0
  2  7  1  0  0  0  0
  3 25  1  1  0  0  0
  3  2  1  0  0  0  0
  3  8  1  0  0  0  0
  4  8  1  6  0  0  0
  4  1  1  0  0  0  0
  4 13  1  0  0  0  0
  5 27  1  1  0  0  0
  5  2  1  0  0  0  0
  6  5  1  0  0  0  0
  7  1  1  0  0  0  0
  9 16  1  1  0  0  0
 10 11  2  0  0  0  0
 10 17  1  0  0  0  0
 11 15  1  0  0  0  0
 12  9  1  0  0  0  0
 13 11  1  0  0  0  0
 13 12  1  1  0  0  0
 14 18  1  0  0  0  0
 15  9  1  0  0  0  0
 15 18  2  0  0  0  0
 17 14  2  0  0  0  0
 19 10  1  0  0  0  0
 20 25  1  0  0  0  0
 21 25  2  0  0  0  0
 22 23  1  1  0  0  0
 22 26  1  0  0  0  0
 22 24  1  0  0  0  0
 24 20  1  0  0  0  0
 26 21  1  0  0  0  0
 27 28  1  6  0  0  0
 29 30  1  0  0  0  0
 29 27  1  0  0  0  0
 30 31  1  0  0  0  0
 31 32  1  0  0  0  0
 32 33  1  0  0  0  0
M  END
>  <MODEL>
4

>  <REMARK>
 VINA RESULT:      -7.0      3.093      6.220
  Name = 
  7 active torsions:
  status: ('A' for Active; 'I' for Inactive)
    1  A    between atoms: N_2  and  C_9
    2  A    between atoms: C_4  and  C_24
    3  A    between atoms: C_4  and  C_29
    4  A    between atoms: C_9  and  C_23
    5  A    between atoms: C_12  and  N_20
    6  A    between atoms: C_18  and  C_26
    7  A    between atoms: C_23  and  C_29
                            x       y       z     vdW  Elec       q    Type
                         _______ _______ _______ _____ _____    ______ ____

>  <TORSDO>
F 7

$$$$
=
 OpenBabel10232409343D

 33 37  0  0  1  0  0  0  0  0999 V2000
  191.0460  176.4940  139.6390 C   0  0  0  0  0  2  0  0  0  0  0  0
  190.4740  176.2790  137.2250 C   0  0  2  0  0  0  0  0  0  0  0  0
  189.4340  177.3920  137.3790 C   0  0  2  0  0  3  0  0  0  0  0  0
  189.8040  177.2570  139.8140 N   0  0  2  0  0  0  0  0  0  0  0  0
  191.4920  176.5370  136.1130 C   0  0  2  0  0  3  0  0  0  0  0  0
  190.4070  175.4720  135.9440 C   0  0  0  0  0  2  0  0  0  0  0  0
  190.8970  175.5110  138.4790 C   0  0  0  0  0  2  0  0  0  0  0  0
  189.7060  178.1690  138.6700 C   0  0  0  0  0  2  0  0  0  0  0  0
  190.6650  176.5530  142.8930 C   0  0  2  0  0  3  0  0  0  0  0  0
  187.4530  178.1210  142.0150 C   0  0  0  0  0  0  0  0  0  0  0  0
  188.7780  177.6690  141.9940 C   0  0  0  0  0  0  0  0  0  0  0  0
  191.1310  177.5850  141.8620 C   0  0  0  0  0  2  0  0  0  0  0  0
  189.8890  178.0390  141.0590 C   0  0  1  0  0  3  0  0  0  0  0  0
  187.0800  176.7110  143.9100 N   0  0  0  0  0  0  0  0  0  0  0  0
  189.2140  176.8120  142.9680 C   0  0  0  0  0  0  0  0  0  0  0  0
  191.3310  176.8410  144.2260 C   0  0  0  0  0  1  0  0  0  0  0  0
  186.6000  177.6060  142.9990 C   0  0  0  0  0  3  0  0  0  0  0  0
  188.3610  176.3290  143.9070 N   0  0  0  0  0  0  0  0  0  0  0  0
  186.9480  179.1590  141.0760 C   0  0  0  0  0  1  0  0  0  0  0  0
  186.8580  177.8700  137.3640 C   0  0  0  0  0  2  0  0  0  0  0  0
  187.8200  175.5880  137.0610 C   0  0  0  0  0  3  0  0  0  0  0  0
  185.4060  176.0090  136.5570 C   0  0  1  0  0  3  0  0  0  0  0  0
  184.1350  175.4420  136.6370 O   0  0  0  0  0  1  0  0  0  0  0  0
  185.4970  177.1920  137.5100 C   0  0  0  0  0  2  0  0  0  0  0  0
  188.0160  176.8900  137.3310 C   0  0  0  0  0  0  0  0  0  0  0  0
  186.4490  174.9750  136.9610 C   0  0  0  0  0  2  0  0  0  0  0  0
  192.9010  175.9380  136.3070 C   0  0  2  0  0  3  0  0  0  0  0  0
  193.6410  176.5520  137.3250 O   0  0  0  0  0  1  0  0  0  0  0  0
  193.6730  175.9500  134.9970 C   0  0  0  0  0  2  0  0  0  0  0  0
  194.9360  176.7810  135.1360 C   0  0  0  0  0  2  0  0  0  0  0  0
  196.1610  175.9140  134.9030 C   0  0  0  0  0  2  0  0  0  0  0  0
  197.2100  176.2710  135.8430 N   0  0  0  0  0  2  0  0  0  0  0  0
  197.8830  175.0370  136.2060 C   0  0  0  0  0  1  0  0  0  0  0  0
  1  4  1  0  0  0  0
  2  6  1  6  0  0  0
  2  3  1  0  0  0  0
  2  7  1  0  0  0  0
  3 25  1  1  0  0  0
  3  8  1  0  0  0  0
  4  8  1  6  0  0  0
  4 13  1  0  0  0  0
  5 27  1  1  0  0  0
  5  2  1  0  0  0  0
  6  5  1  0  0  0  0
  7  1  1  0  0  0  0
  9 15  1  0  0  0  0
  9 16  1  1  0  0  0
 10 17  1  0  0  0  0
 11 10  2  0  0  0  0
 11 15  1  0  0  0  0
 12  9  1  0  0  0  0
 13 12  1  1  0  0  0
 13 11  1  0  0  0  0
 15 18  2  0  0  0  0
 17 14  2  0  0  0  0
 18 14  1  0  0  0  0
 19 10  1  0  0  0  0
 20 24  1  0  0  0  0
 21 25  2  0  0  0  0
 22 23  1  1  0  0  0
 22 26  1  0  0  0  0
 22 24  1  0  0  0  0
 25 20  1  0  0  0  0
 26 21  1  0  0  0  0
 27 28  1  1  0  0  0
 29 30  1  0  0  0  0
 29 27  1  0  0  0  0
 31 30  1  0  0  0  0
 31 32  1  0  0  0  0
 32 33  1  0  0  0  0
M  END
>  <MODEL>
5

>  <REMARK>
 VINA RESULT:      -6.5      3.639      7.400
  Name = 
  7 active torsions:
  status: ('A' for Active; 'I' for Inactive)
    1  A    between atoms: N_2  and  C_9
    2  A    between atoms: C_4  and  C_24
    3  A    between atoms: C_4  and  C_29
    4  A    between atoms: C_9  and  C_23
    5  A    between atoms: C_12  and  N_20
    6  A    between atoms: C_18  and  C_26
    7  A    between atoms: C_23  and  C_29
                            x       y       z     vdW  Elec       q    Type
                         _______ _______ _______ _____ _____    ______ ____

>  <TORSDO>
F 7

$$$$
=
 OpenBabel10232409343D

 33 37  0  0  1  0  0  0  0  0999 V2000
  187.6830  177.8000  142.8390 C   0  0  0  0  0  2  0  0  0  0  0  0
  188.2380  177.5690  145.2570 C   0  0  2  0  0  0  0  0  0  0  0  0
  189.6640  178.0480  144.9680 C   0  0  2  0  0  3  0  0  0  0  0  0
  189.1230  177.8750  142.5680 N   0  0  2  0  0  0  0  0  0  0  0  0
  187.5260  178.3750  146.3440 C   0  0  2  0  0  3  0  0  0  0  0  0
  188.0020  176.9480  146.6190 C   0  0  0  0  0  2  0  0  0  0  0  0
  187.4310  176.9740  144.1000 C   0  0  0  0  0  2  0  0  0  0  0  0
  189.7030  178.7380  143.6020 C   0  0  0  0  0  2  0  0  0  0  0  0
  187.6160  177.6170  139.6730 C   0  0  2  0  0  3  0  0  0  0  0  0
  191.2310  177.0850  140.1080 C   0  0  0  0  0  0  0  0  0  0  0  0
  189.9010  177.4860  140.2830 C   0  0  0  0  0  0  0  0  0  0  0  0
  187.9610  178.7890  140.5990 C   0  0  0  0  0  2  0  0  0  0  0  0
  189.3340  178.4860  141.2440 C   0  0  1  0  0  3  0  0  0  0  0  0
  190.4810  175.6100  138.3810 N   0  0  0  0  0  0  0  0  0  0  0  0
  188.9310  176.9830  139.4590 C   0  0  0  0  0  0  0  0  0  0  0  0
  187.0620  178.1590  138.3680 C   0  0  0  0  0  1  0  0  0  0  0  0
  191.5000  176.1140  139.1360 C   0  0  0  0  0  3  0  0  0  0  0  0
  189.2240  176.0410  138.5270 N   0  0  0  0  0  0  0  0  0  0  0  0
  192.3570  177.6930  140.8690 C   0  0  0  0  0  1  0  0  0  0  0  0
  191.1820  176.4730  146.4100 C   0  0  0  0  0  2  0  0  0  0  0  0
  190.9920  176.2840  143.9290 C   0  0  0  0  0  3  0  0  0  0  0  0
  192.0760  174.4540  145.2480 C   0  0  1  0  0  3  0  0  0  0  0  0
  193.1140  173.5250  145.2210 O   0  0  0  0  0  1  0  0  0  0  0  0
  192.3570  175.5020  146.3160 C   0  0  0  0  0  2  0  0  0  0  0  0
  190.6880  176.9490  145.0560 C   0  0  0  0  0  0  0  0  0  0  0  0
  191.9810  175.1500  143.8960 C   0  0  0  0  0  2  0  0  0  0  0  0
  185.9910  178.4880  146.2330 C   0  0  2  0  0  3  0  0  0  0  0  0
  185.3300  177.2530  146.2590 O   0  0  0  0  0  1  0  0  0  0  0  0
  185.5990  179.2820  144.9970 C   0  0  0  0  0  2  0  0  0  0  0  0
  184.2210  178.8650  144.5150 C   0  0  0  0  0  2  0  0  0  0  0  0
  184.1950  178.8010  142.9980 C   0  0  0  0  0  2  0  0  0  0  0  0
  182.8220  178.7890  142.5240 N   0  0  0  0  0  2  0  0  0  0  0  0
  181.9730  178.8770  143.6970 C   0  0  0  0  0  1  0  0  0  0  0  0
  1  7  1  0  0  0  0
  2  7  1  6  0  0  0
  2  5  1  0  0  0  0
  2  6  1  0  0  0  0
  3 25  1  6  0  0  0
  3  2  1  0  0  0  0
  4  1  1  1  0  0  0
  4  8  1  0  0  0  0
  5 27  1  6  0  0  0
  5  6  1  0  0  0  0
  8  3  1  0  0  0  0
  9 16  1  6  0  0  0
  9 12  1  0  0  0  0
 10 11  1  0  0  0  0
 10 19  1  0  0  0  0
 11 13  1  0  0  0  0
 13 12  1  6  0  0  0
 13  4  1  0  0  0  0
 14 18  2  0  0  0  0
 14 17  1  0  0  0  0
 15  9  1  0  0  0  0
 15 11  2  0  0  0  0
 17 10  2  0  0  0  0
 18 15  1  0  0  0  0
 21 25  2  0  0  0  0
 22 23  1  6  0  0  0
 22 24  1  0  0  0  0
 24 20  1  0  0  0  0
 25 20  1  0  0  0  0
 26 21  1  0  0  0  0
 26 22  1  0  0  0  0
 27 28  1  6  0  0  0
 29 27  1  0  0  0  0
 30 29  1  0  0  0  0
 31 30  1  0  0  0  0
 32 31  1  0  0  0  0
 32 33  1  0  0  0  0
M  END
>  <MODEL>
6

>  <REMARK>
 VINA RESULT:      -6.4      2.694      6.543
  Name = 
  7 active torsions:
  status: ('A' for Active; 'I' for Inactive)
    1  A    between atoms: N_2  and  C_9
    2  A    between atoms: C_4  and  C_24
    3  A    between atoms: C_4  and  C_29
    4  A    between atoms: C_9  and  C_23
    5  A    between atoms: C_12  and  N_20
    6  A    between atoms: C_18  and  C_26
    7  A    between atoms: C_23  and  C_29
                            x       y       z     vdW  Elec       q    Type
                         _______ _______ _______ _____ _____    ______ ____

>  <TORSDO>
F 7

$$$$
=
 OpenBabel10232409343D

 33 37  0  0  1  0  0  0  0  0999 V2000
  187.6470  177.9650  140.7900 C   0  0  0  0  0  2  0  0  0  0  0  0
  190.0330  177.3160  141.0930 C   0  0  2  0  0  0  0  0  0  0  0  0
  190.3030  177.6470  139.6220 C   0  0  2  0  0  3  0  0  0  0  0  0
  187.8650  177.8950  139.3400 N   0  0  2  0  0  0  0  0  0  0  0  0
  190.9640  178.0400  142.0670 C   0  0  2  0  0  3  0  0  0  0  0  0
  191.1160  176.5390  141.8140 C   0  0  0  0  0  2  0  0  0  0  0  0
  188.5930  177.0030  141.5070 C   0  0  0  0  0  2  0  0  0  0  0  0
  189.1660  178.5180  139.0790 C   0  0  0  0  0  2  0  0  0  0  0  0
  184.6000  177.6730  139.2250 C   0  0  2  0  0  3  0  0  0  0  0  0
  186.7160  177.7180  136.2140 C   0  0  0  0  0  0  0  0  0  0  0  0
  186.2330  177.8700  137.5190 C   0  0  0  0  0  0  0  0  0  0  0  0
  185.5850  178.7880  139.5930 C   0  0  0  0  0  2  0  0  0  0  0  0
  186.8090  178.6600  138.6550 C   0  0  1  0  0  3  0  0  0  0  0  0
  184.8340  176.3150  135.7590 N   0  0  0  0  0  0  0  0  0  0  0  0
  185.0420  177.2940  137.8680 C   0  0  0  0  0  0  0  0  0  0  0  0
  183.1930  178.2390  139.1940 C   0  0  0  0  0  1  0  0  0  0  0  0
  185.9880  176.9070  135.3360 C   0  0  0  0  0  3  0  0  0  0  0  0
  184.3600  176.5120  136.9930 N   0  0  0  0  0  0  0  0  0  0  0  0
  187.9290  178.4300  135.7230 C   0  0  0  0  0  1  0  0  0  0  0  0
  189.3540  175.8260  137.9960 C   0  0  0  0  0  2  0  0  0  0  0  0
  191.7770  176.0170  138.5610 C   0  0  0  0  0  3  0  0  0  0  0  0
  191.0430  174.5730  136.6530 C   0  0  1  0  0  3  0  0  0  0  0  0
  191.3100  173.3740  135.9960 O   0  0  0  0  0  1  0  0  0  0  0  0
  189.6910  174.4850  137.3460 C   0  0  0  0  0  2  0  0  0  0  0  0
  190.5140  176.4260  138.7680 C   0  0  0  0  0  0  0  0  0  0  0  0
  192.1160  174.8250  137.7050 C   0  0  0  0  0  2  0  0  0  0  0  0
  190.3930  178.3610  143.4650 C   0  0  2  0  0  3  0  0  0  0  0  0
  190.8570  179.5700  144.0000 O   0  0  0  0  0  1  0  0  0  0  0  0
  190.6530  177.2120  144.4270 C   0  0  0  0  0  2  0  0  0  0  0  0
  189.7110  177.2950  145.6150 C   0  0  0  0  0  2  0  0  0  0  0  0
  190.4330  176.8800  146.8840 C   0  0  0  0  0  2  0  0  0  0  0  0
  191.8520  176.7150  146.6210 N   0  0  0  0  0  2  0  0  0  0  0  0
  192.3570  175.7880  147.6160 C   0  0  0  0  0  1  0  0  0  0  0  0
  1  7  1  0  0  0  0
  2  7  1  1  0  0  0
  2  6  1  0  0  0  0
  2  5  1  0  0  0  0
  3 25  1  6  0  0  0
  3  2  1  0  0  0  0
  4  8  1  1  0  0  0
  4  1  1  0  0  0  0
  5 27  1  1  0  0  0
  6  5  1  0  0  0  0
  8  3  1  0  0  0  0
  9 16  1  6  0  0  0
  9 12  1  0  0  0  0
 10 11  1  0  0  0  0
 11 15  2  0  0  0  0
 11 13  1  0  0  0  0
 13  4  1  0  0  0  0
 13 12  1  1  0  0  0
 14 18  2  0  0  0  0
 15  9  1  0  0  0  0
 17 14  1  0  0  0  0
 17 10  2  0  0  0  0
 18 15  1  0  0  0  0
 19 10  1  0  0  0  0
 20 25  1  0  0  0  0
 21 25  2  0  0  0  0
 22 23  1  1  0  0  0
 22 24  1  0  0  0  0
 22 26  1  0  0  0  0
 24 20  1  0  0  0  0
 26 21  1  0  0  0  0
 27 28  1  1  0  0  0
 27 29  1  0  0  0  0
 29 30  1  0  0  0  0
 30 31  1  0  0  0  0
 32 31  1  0  0  0  0
 32 33  1  0  0  0  0
M  END
>  <MODEL>
7

>  <REMARK>
 VINA RESULT:      -6.3      2.212      3.071
  Name = 
  7 active torsions:
  status: ('A' for Active; 'I' for Inactive)
    1  A    between atoms: N_2  and  C_9
    2  A    between atoms: C_4  and  C_24
    3  A    between atoms: C_4  and  C_29
    4  A    between atoms: C_9  and  C_23
    5  A    between atoms: C_12  and  N_20
    6  A    between atoms: C_18  and  C_26
    7  A    between atoms: C_23  and  C_29
                            x       y       z     vdW  Elec       q    Type
                         _______ _______ _______ _____ _____    ______ ____

>  <TORSDO>
F 7

$$$$
=
 OpenBabel10232409343D

 33 37  0  0  1  0  0  0  0  0999 V2000
  184.3490  177.0900  137.7490 C   0  0  0  0  0  2  0  0  0  0  0  0
  183.5420  178.5070  139.6310 C   0  0  2  0  0  0  0  0  0  0  0  0
  184.9160  179.1790  139.7060 C   0  0  2  0  0  3  0  0  0  0  0  0
  185.7180  177.4770  138.1100 N   0  0  2  0  0  0  0  0  0  0  0  0
  182.3820  179.4920  139.4790 C   0  0  2  0  0  3  0  0  0  0  0  0
  182.6100  178.7550  140.8000 C   0  0  0  0  0  2  0  0  0  0  0  0
  183.4530  177.1220  138.9850 C   0  0  0  0  0  2  0  0  0  0  0  0
  185.6840  178.9120  138.4080 C   0  0  0  0  0  2  0  0  0  0  0  0
  186.9210  174.7850  136.6870 C   0  0  2  0  0  3  0  0  0  0  0  0
  189.0430  177.5490  137.8700 C   0  0  0  0  0  0  0  0  0  0  0  0
  187.9590  176.7830  137.4250 C   0  0  0  0  0  0  0  0  0  0  0  0
  186.1140  175.9890  136.1890 C   0  0  0  0  0  2  0  0  0  0  0  0
  186.6070  177.2340  136.9620 C   0  0  1  0  0  3  0  0  0  0  0  0
  190.2610  175.5140  138.1760 N   0  0  0  0  0  0  0  0  0  0  0  0
  188.0950  175.4260  137.3120 C   0  0  0  0  0  0  0  0  0  0  0  0
  187.3390  173.9380  135.5000 C   0  0  0  0  0  1  0  0  0  0  0  0
  190.2060  176.8750  138.2610 C   0  0  0  0  0  3  0  0  0  0  0  0
  189.2360  174.8020  137.7010 N   0  0  0  0  0  0  0  0  0  0  0  0
  189.0170  179.0380  137.8840 C   0  0  0  0  0  1  0  0  0  0  0  0
  185.0090  178.3550  142.1910 C   0  0  0  0  0  2  0  0  0  0  0  0
  187.0370  178.5790  140.7540 C   0  0  0  0  0  3  0  0  0  0  0  0
  187.1690  177.3440  142.9260 C   0  0  1  0  0  3  0  0  0  0  0  0
  187.9950  177.1010  144.0210 O   0  0  0  0  0  1  0  0  0  0  0  0
  185.9610  178.1590  143.3690 C   0  0  0  0  0  2  0  0  0  0  0  0
  185.7150  178.7640  140.9110 C   0  0  0  0  0  0  0  0  0  0  0  0
  187.9370  178.1400  141.8780 C   0  0  0  0  0  2  0  0  0  0  0  0
  181.1380  178.9900  138.7160 C   0  0  2  0  0  3  0  0  0  0  0  0
  181.3770  178.7200  137.3620 O   0  0  0  0  0  1  0  0  0  0  0  0
  179.9820  179.9640  138.8740 C   0  0  0  0  0  2  0  0  0  0  0  0
  180.5030  181.3820  139.0250 C   0  0  0  0  0  2  0  0  0  0  0  0
  180.4320  182.1110  137.6960 C   0  0  0  0  0  2  0  0  0  0  0  0
  181.4090  183.1850  137.6620 N   0  0  0  0  0  2  0  0  0  0  0  0
  180.9610  184.1270  136.6540 C   0  0  0  0  0  1  0  0  0  0  0  0
  1  7  1  0  0  0  0
  2  7  1  6  0  0  0
  2  3  1  0  0  0  0
  2  6  1  0  0  0  0
  3 25  1  1  0  0  0
  4  1  1  6  0  0  0
  4  8  1  0  0  0  0
  5 27  1  6  0  0  0
  5  2  1  0  0  0  0
  5  6  1  0  0  0  0
  8  3  1  0  0  0  0
  9 16  1  6  0  0  0
  9 15  1  0  0  0  0
 10 19  1  0  0  0  0
 10 17  1  0  0  0  0
 11 10  2  0  0  0  0
 12  9  1  0  0  0  0
 13 12  1  6  0  0  0
 13 11  1  0  0  0  0
 13  4  1  0  0  0  0
 14 17  2  0  0  0  0
 15 11  1  0  0  0  0
 15 18  2  0  0  0  0
 18 14  1  0  0  0  0
 20 24  1  0  0  0  0
 21 25  2  0  0  0  0
 21 26  1  0  0  0  0
 22 24  1  0  0  0  0
 22 23  1  1  0  0  0
 25 20  1  0  0  0  0
 26 22  1  0  0  0  0
 27 28  1  6  0  0  0
 27 29  1  0  0  0  0
 29 30  1  0  0  0  0
 31 30  1  0  0  0  0
 32 31  1  0  0  0  0
 33 32  1  0  0  0  0
M  END
>  <MODEL>
8

>  <REMARK>
 VINA RESULT:      -6.3      3.949      9.070
  Name = 
  7 active torsions:
  status: ('A' for Active; 'I' for Inactive)
    1  A    between atoms: N_2  and  C_9
    2  A    between atoms: C_4  and  C_24
    3  A    between atoms: C_4  and  C_29
    4  A    between atoms: C_9  and  C_23
    5  A    between atoms: C_12  and  N_20
    6  A    between atoms: C_18  and  C_26
    7  A    between atoms: C_23  and  C_29
                            x       y       z     vdW  Elec       q    Type
                         _______ _______ _______ _____ _____    ______ ____

>  <TORSDO>
F 7

$$$$
=
 OpenBabel10232409343D

 33 37  0  0  1  0  0  0  0  0999 V2000
  184.3320  178.0100  142.2170 C   0  0  0  0  0  2  0  0  0  0  0  0
  186.4990  178.1070  143.4410 C   0  0  2  0  0  0  0  0  0  0  0  0
  187.1210  178.8650  142.2650 C   0  0  2  0  0  3  0  0  0  0  0  0
  185.0610  178.3800  140.9980 N   0  0  2  0  0  0  0  0  0  0  0  0
  186.6520  178.8200  144.7850 C   0  0  2  0  0  3  0  0  0  0  0  0
  187.4650  177.5620  144.4740 C   0  0  0  0  0  2  0  0  0  0  0  0
  185.2560  177.2550  143.1700 C   0  0  0  0  0  2  0  0  0  0  0  0
  186.0090  179.4320  141.3790 C   0  0  0  0  0  2  0  0  0  0  0  0
  181.9430  177.7180  140.2500 C   0  0  2  0  0  3  0  0  0  0  0  0
  184.6550  177.6810  137.7630 C   0  0  0  0  0  0  0  0  0  0  0  0
  183.8830  177.9230  138.9050 C   0  0  0  0  0  0  0  0  0  0  0  0
  182.7020  178.9890  140.6460 C   0  0  0  0  0  2  0  0  0  0  0  0
  184.1090  178.9120  140.0090 C   0  0  1  0  0  3  0  0  0  0  0  0
  183.0750  175.9980  137.1410 N   0  0  0  0  0  0  0  0  0  0  0  0
  182.7100  177.2410  139.0830 C   0  0  0  0  0  0  0  0  0  0  0  0
  180.5270  178.0850  139.8500 C   0  0  0  0  0  1  0  0  0  0  0  0
  184.2270  176.6820  136.8810 C   0  0  0  0  0  3  0  0  0  0  0  0
  182.3230  176.2760  138.2100 N   0  0  0  0  0  0  0  0  0  0  0  0
  185.8660  178.4820  137.4330 C   0  0  0  0  0  1  0  0  0  0  0  0
  188.1500  178.1740  139.9570 C   0  0  0  0  0  2  0  0  0  0  0  0
  189.0100  177.3250  142.1400 C   0  0  0  0  0  3  0  0  0  0  0  0
  190.3440  176.9910  140.0500 C   0  0  1  0  0  3  0  0  0  0  0  0
  191.1780  176.0880  139.3920 O   0  0  0  0  0  1  0  0  0  0  0  0
  189.0330  177.1220  139.2890 C   0  0  0  0  0  2  0  0  0  0  0  0
  188.0870  178.0330  141.4670 C   0  0  0  0  0  0  0  0  0  0  0  0
  190.0450  176.4750  141.4530 C   0  0  0  0  0  2  0  0  0  0  0  0
  185.5430  178.5790  145.8310 C   0  0  2  0  0  3  0  0  0  0  0  0
  184.3770  179.3200  145.5990 O   0  0  0  0  0  1  0  0  0  0  0  0
  186.0680  178.8280  147.2360 C   0  0  0  0  0  2  0  0  0  0  0  0
  187.0960  177.7750  147.6100 C   0  0  0  0  0  2  0  0  0  0  0  0
  188.1000  178.3490  148.5930 C   0  0  0  0  0  2  0  0  0  0  0  0
  189.4520  178.0330  148.1670 N   0  0  0  0  0  2  0  0  0  0  0  0
  189.3760  176.7930  147.4170 C   0  0  0  0  0  1  0  0  0  0  0  0
  1  7  1  0  0  0  0
  2  7  1  6  0  0  0
  2  6  1  0  0  0  0
  2  5  1  0  0  0  0
  3 25  1  6  0  0  0
  3  2  1  0  0  0  0
  4  8  1  1  0  0  0
  4  1  1  0  0  0  0
  5 27  1  1  0  0  0
  6  5  1  0  0  0  0
  8  3  1  0  0  0  0
  9 16  1  6  0  0  0
  9 12  1  0  0  0  0
 10 11  1  0  0  0  0
 11 15  2  0  0  0  0
 11 13  1  0  0  0  0
 13 12  1  1  0  0  0
 13  4  1  0  0  0  0
 14 18  2  0  0  0  0
 15  9  1  0  0  0  0
 17 14  1  0  0  0  0
 17 10  2  0  0  0  0
 18 15  1  0  0  0  0
 19 10  1  0  0  0  0
 20 25  1  0  0  0  0
 22 23  1  6  0  0  0
 22 26  1  0  0  0  0
 24 20  1  0  0  0  0
 24 22  1  0  0  0  0
 25 21  2  0  0  0  0
 26 21  1  0  0  0  0
 27 28  1  6  0  0  0
 27 29  1  0  0  0  0
 29 30  1  0  0  0  0
 30 31  1  0  0  0  0
 32 31  1  0  0  0  0
 33 32  1  0  0  0  0
M  END
>  <MODEL>
9

>  <REMARK>
 VINA RESULT:      -6.3      2.229      3.308
  Name = 
  7 active torsions:
  status: ('A' for Active; 'I' for Inactive)
    1  A    between atoms: N_2  and  C_9
    2  A    between atoms: C_4  and  C_24
    3  A    between atoms: C_4  and  C_29
    4  A    between atoms: C_9  and  C_23
    5  A    between atoms: C_12  and  N_20
    6  A    between atoms: C_18  and  C_26
    7  A    between atoms: C_23  and  C_29
                            x       y       z     vdW  Elec       q    Type
                         _______ _______ _______ _____ _____    ______ ____

>  <TORSDO>
F 7

$$$$
