=
 OpenBabel10232411393D

 52 59  0  0  1  0  0  0  0  0999 V2000
  189.4180  176.5110  138.8130 N   0  0  2  0  0  0  0  0  0  0  0  0
  189.8030  176.9710  136.3550 C   0  0  0  0  0  2  0  0  0  0  0  0
  190.4090  176.6280  137.7200 C   0  0  2  0  0  3  0  0  0  0  0  0
  188.0370  176.8060  138.3940 C   0  0  0  0  0  2  0  0  0  0  0  0
  187.9240  178.1340  137.6140 C   0  0  2  0  0  3  0  0  0  0  0  0
  187.4340  177.9920  136.1640 C   0  0  1  0  0  3  0  0  0  0  0  0
  188.9250  178.2210  136.4580 C   0  0  2  0  0  3  0  0  0  0  0  0
  184.9830  177.8650  146.1780 C   0  0  1  0  0  3  0  0  0  0  0  0
  189.7770  177.4080  139.9200 C   0  0  1  0  0  3  0  0  0  0  0  0
  188.4570  177.7370  143.9680 C   0  0  0  0  0  0  0  0  0  0  0  0
  189.2940  176.7490  141.9220 C   0  0  2  0  0  3  0  0  0  0  0  0
  192.7030  177.8190  140.5220 O   0  0  0  0  0  1  0  0  0  0  0  0
  185.1860  178.5820  143.8270 C   0  0  0  0  0  2  0  0  0  0  0  0
  188.5820  177.5640  140.8570 C   0  0  0  0  0  2  0  0  0  0  0  0
  187.4200  177.9350  144.7320 C   0  0  0  0  0  0  0  0  0  0  0  0
  191.7180  177.5080  141.4530 C   0  0  0  0  0  0  0  0  0  0  0  0
  190.8550  177.6460  143.7710 C   0  0  0  0  0  2  0  0  0  0  0  0
  187.3720  177.2910  146.0490 C   0  0  0  0  0  3  0  0  0  0  0  0
  186.2480  177.3060  146.7560 C   0  0  0  0  0  3  0  0  0  0  0  0
  189.4850  177.5300  143.1920 C   0  0  0  0  0  0  0  0  0  0  0  0
  184.1160  178.2020  147.2010 F   0  0  0  0  0  0  0  0  0  0  0  0
  190.5360  176.6680  141.0200 C   0  0  2  0  0  3  0  0  0  0  0  0
  185.2030  179.0770  145.2620 C   0  0  2  0  0  3  0  0  0  0  0  0
  186.4890  179.0740  144.4160 C   0  0  2  0  0  3  0  0  0  0  0  0
  191.8470  177.9650  142.6990 C   0  0  0  0  0  3  0  0  0  0  0  0
  191.1920  175.3290  137.6160 C   0  0  0  0  0  2  0  0  0  0  0  0
  192.2280  175.4440  136.6030 N   0  0  0  0  0  2  0  0  0  0  0  0
  192.0070  174.3840  135.6310 C   0  0  0  0  0  2  0  0  0  0  0  0
  195.3640  172.6940  138.2620 C   0  0  0  0  0  1  0  0  0  0  0  0
  196.5230  175.1380  137.4870 O   0  0  0  0  0  0  0  0  0  0  0  0
  193.5110  171.7490  136.3610 O   0  0  0  0  0  0  0  0  0  0  0  0
  194.9620  173.4380  137.0770 N   0  0  0  0  0  0  0  0  0  0  0  0
  195.2690  175.3570  135.4820 C   0  0  0  0  0  0  0  0  0  0  0  0
  194.2420  174.9330  134.7420 C   0  0  0  0  0  3  0  0  0  0  0  0
  193.3330  173.8040  135.1510 C   0  0  1  0  0  3  0  0  0  0  0  0
  195.6210  174.6660  136.7360 C   0  0  0  0  0  0  0  0  0  0  0  0
  193.9420  172.9260  136.2110 C   0  0  0  0  0  0  0  0  0  0  0  0
  196.0510  176.5380  135.0200 C   0  0  0  0  0  2  0  0  0  0  0  0
  195.5100  177.7000  135.5710 O   0  0  0  0  0  1  0  0  0  0  0  0
  187.0440  176.5570  135.7450 C   0  0  1  0  0  3  0  0  0  0  0  0
  184.9740  177.4300  134.4960 C   0  0  0  0  0  1  0  0  0  0  0  0
  185.5530  176.3640  135.4240 C   0  0  2  0  0  3  0  0  0  0  0  0
  184.7570  176.2740  136.7270 C   0  0  2  0  0  3  0  0  0  0  0  0
  184.0470  174.0450  137.5630 C   0  0  0  0  0  2  0  0  0  0  0  0
  183.6910  175.1930  136.6360 C   0  0  0  0  0  3  0  0  0  0  0  0
  184.3170  173.9300  136.0760 C   0  0  0  0  0  2  0  0  0  0  0  0
  184.1740  177.5080  137.0410 O   0  0  0  0  0  0  0  0  0  0  0  0
  183.9240  177.4490  138.4150 C   0  0  0  0  0  2  0  0  0  0  0  0
  184.0090  178.8470  139.0190 C   0  0  0  0  0  2  0  0  0  0  0  0
  185.1040  178.8970  140.0800 C   0  0  0  0  0  1  0  0  0  0  0  0
  187.9490  174.2120  134.7660 C   0  0  0  0  0  1  0  0  0  0  0  0
  188.0730  175.9790  134.3460 S   0  0  0  0  0  0  0  0  0  0  0  0
  1  4  1  6  0  0  0
  1  9  1  0  0  0  0
  2  3  1  0  0  0  0
  3 26  1  6  0  0  0
  3  1  1  0  0  0  0
  5  4  1  1  0  0  0
  6 40  1  1  0  0  0
  6  7  1  0  0  0  0
  6  5  1  0  0  0  0
  7  2  1  1  0  0  0
  7  5  1  0  0  0  0
  8 19  1  0  0  0  0
  8 21  1  1  0  0  0
  9 14  1  1  0  0  0
  9 22  1  0  0  0  0
 10 15  2  0  0  0  0
 11 14  1  6  0  0  0
 11 20  1  0  0  0  0
 12 16  1  0  0  0  0
 15 18  1  0  0  0  0
 16 25  2  0  0  0  0
 18 19  2  0  0  0  0
 20 17  1  0  0  0  0
 20 10  2  0  0  0  0
 22 16  1  1  0  0  0
 22 11  1  0  0  0  0
 23 13  1  6  0  0  0
 23  8  1  0  0  0  0
 24 13  1  6  0  0  0
 24 15  1  0  0  0  0
 24 23  1  0  0  0  0
 25 17  1  0  0  0  0
 27 26  1  0  0  0  0
 28 27  1  0  0  0  0
 32 29  1  0  0  0  0
 33 36  1  0  0  0  0
 34 35  1  0  0  0  0
 34 33  2  0  0  0  0
 35 28  1  1  0  0  0
 35 37  1  0  0  0  0
 36 32  1  0  0  0  0
 36 30  2  0  0  0  0
 37 31  2  0  0  0  0
 37 32  1  0  0  0  0
 38 33  1  0  0  0  0
 38 39  1  0  0  0  0
 40 52  1  6  0  0  0
 42 41  1  6  0  0  0
 42 40  1  0  0  0  0
 42 43  1  0  0  0  0
 43 47  1  6  0  0  0
 45 43  1  0  0  0  0
 45 44  1  0  0  0  0
 46 45  1  0  0  0  0
 46 44  1  0  0  0  0
 47 48  1  0  0  0  0
 48 49  1  0  0  0  0
 49 50  1  0  0  0  0
 52 51  1  0  0  0  0
M  END
>  <MODEL>
1

>  <REMARK>
 VINA RESULT:      -7.4      0.000      0.000
  Name = 
  14 active torsions:
  status: ('A' for Active; 'I' for Inactive)
    1  A    between atoms: C_2  and  C_19
    2  A    between atoms: N_3  and  C_6
    3  A    between atoms: O_4  and  C_7
    4  A    between atoms: O_4  and  C_19
    5  A    between atoms: C_7  and  C_15
    6  A    between atoms: C_7  and  C_22
    7  A    between atoms: C_8  and  C_34
    8  A    between atoms: C_8  and  N_43
    9  A    between atoms: C_15  and  C_51
   10  A    between atoms: C_24  and  C_28
   11  A    between atoms: C_31  and  C_35
   12  A    between atoms: C_31  and  N_43
   13  A    between atoms: S_41  and  C_51
   14  A    between atoms: C_48  and  C_51
                            x       y       z     vdW  Elec       q    Type
                         _______ _______ _______ _____ _____    ______ ____

>  <TORSDO>
F 14

$$$$
=
 OpenBabel10232411393D

 52 59  0  0  1  0  0  0  0  0999 V2000
  189.8930  176.3240  139.0640 N   0  0  2  0  0  0  0  0  0  0  0  0
  190.4640  176.7280  136.6320 C   0  0  0  0  0  2  0  0  0  0  0  0
  190.9670  176.5270  138.0650 C   0  0  2  0  0  3  0  0  0  0  0  0
  188.5350  176.4130  138.4990 C   0  0  0  0  0  2  0  0  0  0  0  0
  188.3320  177.6800  137.6400 C   0  0  2  0  0  3  0  0  0  0  0  0
  188.0140  177.4120  136.1590 C   0  0  1  0  0  3  0  0  0  0  0  0
  189.4250  177.8510  136.5810 C   0  0  2  0  0  3  0  0  0  0  0  0
  183.8200  178.5980  144.8680 C   0  0  1  0  0  3  0  0  0  0  0  0
  190.0170  177.3070  140.1490 C   0  0  1  0  0  3  0  0  0  0  0  0
  187.7270  178.0910  143.6670 C   0  0  0  0  0  0  0  0  0  0  0  0
  188.9900  176.8700  142.0010 C   0  0  2  0  0  3  0  0  0  0  0  0
  192.7120  177.6360  141.4630 O   0  0  0  0  0  1  0  0  0  0  0  0
  184.6710  179.0710  142.6020 C   0  0  0  0  0  2  0  0  0  0  0  0
  188.6360  177.6100  140.7220 C   0  0  0  0  0  2  0  0  0  0  0  0
  186.5450  178.4110  144.1130 C   0  0  0  0  0  0  0  0  0  0  0  0
  191.5010  177.4650  142.1240 C   0  0  0  0  0  0  0  0  0  0  0  0
  190.0830  177.8680  144.1150 C   0  0  0  0  0  2  0  0  0  0  0  0
  186.1140  177.9020  145.4190 C   0  0  0  0  0  3  0  0  0  0  0  0
  184.8500  178.0380  145.8010 C   0  0  0  0  0  3  0  0  0  0  0  0
  188.9030  177.7620  143.2080 C   0  0  0  0  0  0  0  0  0  0  0  0
  182.7450  179.0730  145.5960 F   0  0  0  0  0  0  0  0  0  0  0  0
  190.4140  176.6430  141.4670 C   0  0  2  0  0  3  0  0  0  0  0  0
  184.3530  179.7030  143.9460 C   0  0  2  0  0  3  0  0  0  0  0  0
  185.8100  179.5560  143.4710 C   0  0  2  0  0  3  0  0  0  0  0  0
  191.3370  178.0340  143.3180 C   0  0  0  0  0  3  0  0  0  0  0  0
  191.9180  175.3430  138.1090 C   0  0  0  0  0  2  0  0  0  0  0  0
  192.4660  175.0860  136.7870 N   0  0  0  0  0  2  0  0  0  0  0  0
  193.9160  175.0480  136.9160 C   0  0  0  0  0  2  0  0  0  0  0  0
  198.0170  174.7940  138.9560 C   0  0  0  0  0  1  0  0  0  0  0  0
  198.1650  172.5510  137.2620 O   0  0  0  0  0  0  0  0  0  0  0  0
  195.3610  175.4200  139.6560 O   0  0  0  0  0  0  0  0  0  0  0  0
  196.8500  174.1150  138.4110 N   0  0  0  0  0  0  0  0  0  0  0  0
  195.8180  172.2270  137.1110 C   0  0  0  0  0  0  0  0  0  0  0  0
  194.5950  172.7140  137.3360 C   0  0  0  0  0  3  0  0  0  0  0  0
  194.3380  174.0470  137.9860 C   0  0  1  0  0  3  0  0  0  0  0  0
  197.0100  172.9610  137.5750 C   0  0  0  0  0  0  0  0  0  0  0  0
  195.5300  174.5590  138.7480 C   0  0  0  0  0  0  0  0  0  0  0  0
  195.9560  170.9350  136.3840 C   0  0  0  0  0  2  0  0  0  0  0  0
  194.6900  170.4300  136.0840 O   0  0  0  0  0  1  0  0  0  0  0  0
  187.8590  175.9210  135.7850 C   0  0  1  0  0  3  0  0  0  0  0  0
  185.6240  176.3750  134.5980 C   0  0  0  0  0  1  0  0  0  0  0  0
  186.4100  175.4670  135.5430 C   0  0  2  0  0  3  0  0  0  0  0  0
  185.6910  175.3100  136.8840 C   0  0  2  0  0  3  0  0  0  0  0  0
  185.5030  172.9780  137.7150 C   0  0  0  0  0  2  0  0  0  0  0  0
  184.8270  174.0590  136.8920 C   0  0  0  0  0  3  0  0  0  0  0  0
  185.5790  172.9370  136.2010 C   0  0  0  0  0  2  0  0  0  0  0  0
  184.9140  176.4410  137.1680 O   0  0  0  0  0  0  0  0  0  0  0  0
  183.7290  175.9370  137.7100 C   0  0  0  0  0  2  0  0  0  0  0  0
  182.6730  177.0360  137.7630 C   0  0  0  0  0  2  0  0  0  0  0  0
  183.2040  178.2380  138.5380 C   0  0  0  0  0  1  0  0  0  0  0  0
  189.0230  173.7210  134.7480 C   0  0  0  0  0  1  0  0  0  0  0  0
  188.9060  175.4920  134.3470 S   0  0  0  0  0  0  0  0  0  0  0  0
  1  4  1  6  0  0  0
  1  9  1  0  0  0  0
  2  3  1  0  0  0  0
  3 26  1  6  0  0  0
  3  1  1  0  0  0  0
  5  4  1  1  0  0  0
  6 40  1  1  0  0  0
  6  7  1  0  0  0  0
  6  5  1  0  0  0  0
  7  2  1  1  0  0  0
  7  5  1  0  0  0  0
  8 21  1  1  0  0  0
  8 19  1  0  0  0  0
  9 14  1  1  0  0  0
  9 22  1  0  0  0  0
 10 15  2  0  0  0  0
 11 14  1  6  0  0  0
 11 20  1  0  0  0  0
 12 16  1  0  0  0  0
 15 18  1  0  0  0  0
 16 25  2  0  0  0  0
 18 19  2  0  0  0  0
 20 10  2  0  0  0  0
 20 17  1  0  0  0  0
 22 11  1  0  0  0  0
 22 16  1  1  0  0  0
 23 13  1  6  0  0  0
 23  8  1  0  0  0  0
 24 13  1  6  0  0  0
 24 23  1  0  0  0  0
 24 15  1  0  0  0  0
 25 17  1  0  0  0  0
 27 28  1  0  0  0  0
 27 26  1  0  0  0  0
 30 36  2  0  0  0  0
 32 37  1  0  0  0  0
 32 29  1  0  0  0  0
 33 34  2  0  0  0  0
 33 36  1  0  0  0  0
 34 35  1  0  0  0  0
 35 28  1  6  0  0  0
 35 37  1  0  0  0  0
 36 32  1  0  0  0  0
 37 31  2  0  0  0  0
 38 33  1  0  0  0  0
 39 38  1  0  0  0  0
 40 52  1  6  0  0  0
 42 41  1  6  0  0  0
 42 40  1  0  0  0  0
 42 43  1  0  0  0  0
 43 45  1  0  0  0  0
 43 47  1  6  0  0  0
 45 44  1  0  0  0  0
 46 45  1  0  0  0  0
 46 44  1  0  0  0  0
 47 48  1  0  0  0  0
 48 49  1  0  0  0  0
 49 50  1  0  0  0  0
 52 51  1  0  0  0  0
M  END
>  <MODEL>
2

>  <REMARK>
 VINA RESULT:      -7.1      1.507      2.253
  Name = 
  14 active torsions:
  status: ('A' for Active; 'I' for Inactive)
    1  A    between atoms: C_2  and  C_19
    2  A    between atoms: N_3  and  C_6
    3  A    between atoms: O_4  and  C_7
    4  A    between atoms: O_4  and  C_19
    5  A    between atoms: C_7  and  C_15
    6  A    between atoms: C_7  and  C_22
    7  A    between atoms: C_8  and  C_34
    8  A    between atoms: C_8  and  N_43
    9  A    between atoms: C_15  and  C_51
   10  A    between atoms: C_24  and  C_28
   11  A    between atoms: C_31  and  C_35
   12  A    between atoms: C_31  and  N_43
   13  A    between atoms: S_41  and  C_51
   14  A    between atoms: C_48  and  C_51
                            x       y       z     vdW  Elec       q    Type
                         _______ _______ _______ _____ _____    ______ ____

>  <TORSDO>
F 14

$$$$
=
 OpenBabel10232411393D

 52 59  0  0  1  0  0  0  0  0999 V2000
  190.6610  174.8990  137.4830 N   0  0  2  0  0  0  0  0  0  0  0  0
  192.8980  176.0780  137.3780 C   0  0  0  0  0  2  0  0  0  0  0  0
  191.4310  176.1170  137.8210 C   0  0  2  0  0  3  0  0  0  0  0  0
  191.4370  173.8980  136.7290 C   0  0  0  0  0  2  0  0  0  0  0  0
  192.1690  174.5080  135.5140 C   0  0  2  0  0  3  0  0  0  0  0  0
  193.7030  174.4120  135.5690 C   0  0  1  0  0  3  0  0  0  0  0  0
  192.9980  175.7410  135.8880 C   0  0  2  0  0  3  0  0  0  0  0  0
  183.6680  169.9460  135.9640 C   0  0  1  0  0  3  0  0  0  0  0  0
  189.4670  175.2540  136.7040 C   0  0  1  0  0  3  0  0  0  0  0  0
  185.5470  173.5820  136.4290 C   0  0  0  0  0  0  0  0  0  0  0  0
  187.5680  174.4910  137.4030 C   0  0  2  0  0  3  0  0  0  0  0  0
  188.5670  178.1320  136.7190 O   0  0  0  0  0  1  0  0  0  0  0  0
  185.9350  170.4760  135.1510 C   0  0  0  0  0  2  0  0  0  0  0  0
  188.6380  173.9990  136.4430 C   0  0  0  0  0  2  0  0  0  0  0  0
  184.8710  172.5060  136.1370 C   0  0  0  0  0  0  0  0  0  0  0  0
  187.7560  177.0260  136.9480 C   0  0  0  0  0  0  0  0  0  0  0  0
  185.5250  175.9570  136.8260 C   0  0  0  0  0  2  0  0  0  0  0  0
  183.6120  172.2440  136.8410 C   0  0  0  0  0  3  0  0  0  0  0  0
  183.0140  171.0650  136.7170 C   0  0  0  0  0  3  0  0  0  0  0  0
  186.2360  174.6490  136.7260 C   0  0  0  0  0  0  0  0  0  0  0  0
  182.7100  169.0290  135.5720 F   0  0  0  0  0  0  0  0  0  0  0  0
  188.3540  175.7980  137.5990 C   0  0  2  0  0  3  0  0  0  0  0  0
  184.4740  170.4090  134.7420 C   0  0  2  0  0  3  0  0  0  0  0  0
  185.1940  171.7640  134.8690 C   0  0  2  0  0  3  0  0  0  0  0  0
  186.4750  177.0840  136.5820 C   0  0  0  0  0  3  0  0  0  0  0  0
  191.3590  176.3510  139.3200 C   0  0  0  0  0  2  0  0  0  0  0  0
  190.3570  177.3590  139.6260 N   0  0  0  0  0  2  0  0  0  0  0  0
  189.7280  176.9820  140.8840 C   0  0  0  0  0  2  0  0  0  0  0  0
  188.8780  177.1710  145.3880 C   0  0  0  0  0  1  0  0  0  0  0  0
  186.2590  177.3840  144.3790 O   0  0  0  0  0  0  0  0  0  0  0  0
  190.7970  178.1510  143.5720 O   0  0  0  0  0  0  0  0  0  0  0  0
  188.5660  177.6230  144.0400 N   0  0  0  0  0  0  0  0  0  0  0  0
  186.9000  178.2780  142.2750 C   0  0  0  0  0  0  0  0  0  0  0  0
  187.8850  178.5360  141.4110 C   0  0  0  0  0  3  0  0  0  0  0  0
  189.3320  178.2190  141.6820 C   0  0  1  0  0  3  0  0  0  0  0  0
  187.2020  177.7280  143.6090 C   0  0  0  0  0  0  0  0  0  0  0  0
  189.6150  178.0170  143.1460 C   0  0  0  0  0  0  0  0  0  0  0  0
  185.4950  178.5560  141.8680 C   0  0  0  0  0  2  0  0  0  0  0  0
  185.4820  179.5260  140.8640 O   0  0  0  0  0  1  0  0  0  0  0  0
  194.2640  173.6410  136.7850 C   0  0  1  0  0  3  0  0  0  0  0  0
  193.6390  171.2240  136.1700 C   0  0  0  0  0  1  0  0  0  0  0  0
  194.7580  172.2190  136.4720 C   0  0  2  0  0  3  0  0  0  0  0  0
  195.6460  171.7230  137.6140 C   0  0  2  0  0  3  0  0  0  0  0  0
  198.0820  171.6800  137.1310 C   0  0  0  0  0  2  0  0  0  0  0  0
  196.7940  170.8800  137.0800 C   0  0  0  0  0  3  0  0  0  0  0  0
  197.3360  171.5270  135.8200 C   0  0  0  0  0  2  0  0  0  0  0  0
  194.8980  170.9930  138.5470 O   0  0  0  0  0  0  0  0  0  0  0  0
  195.4160  169.6970  138.4890 C   0  0  0  0  0  2  0  0  0  0  0  0
  194.3480  168.6920  138.9090 C   0  0  0  0  0  2  0  0  0  0  0  0
  194.4030  168.4640  140.4170 C   0  0  0  0  0  1  0  0  0  0  0  0
  196.4460  175.0640  136.0860 C   0  0  0  0  0  1  0  0  0  0  0  0
  195.5820  174.6000  137.6190 S   0  0  0  0  0  0  0  0  0  0  0  0
  1  4  1  6  0  0  0
  1  3  1  0  0  0  0
  2  3  1  0  0  0  0
  3 26  1  1  0  0  0
  5  6  1  0  0  0  0
  5  7  1  0  0  0  0
  5  4  1  1  0  0  0
  6  7  1  0  0  0  0
  6 40  1  1  0  0  0
  7  2  1  1  0  0  0
  8 21  1  6  0  0  0
  8 19  1  0  0  0  0
  9 14  1  1  0  0  0
  9  1  1  0  0  0  0
  9 22  1  0  0  0  0
 10 20  2  0  0  0  0
 11 14  1  6  0  0  0
 11 22  1  0  0  0  0
 12 16  1  0  0  0  0
 15 10  2  0  0  0  0
 15 18  1  0  0  0  0
 19 18  2  0  0  0  0
 20 17  1  0  0  0  0
 20 11  1  0  0  0  0
 22 16  1  6  0  0  0
 23 24  1  0  0  0  0
 23 13  1  1  0  0  0
 23  8  1  0  0  0  0
 24 13  1  1  0  0  0
 24 15  1  0  0  0  0
 25 17  1  0  0  0  0
 25 16  2  0  0  0  0
 26 27  1  0  0  0  0
 27 28  1  0  0  0  0
 32 29  1  0  0  0  0
 33 36  1  0  0  0  0
 34 35  1  0  0  0  0
 34 33  2  0  0  0  0
 35 28  1  6  0  0  0
 35 37  1  0  0  0  0
 36 32  1  0  0  0  0
 36 30  2  0  0  0  0
 37 31  2  0  0  0  0
 37 32  1  0  0  0  0
 38 33  1  0  0  0  0
 39 38  1  0  0  0  0
 40 52  1  6  0  0  0
 42 41  1  1  0  0  0
 42 40  1  0  0  0  0
 42 43  1  0  0  0  0
 43 47  1  1  0  0  0
 45 44  1  0  0  0  0
 45 43  1  0  0  0  0
 46 45  1  0  0  0  0
 46 44  1  0  0  0  0
 48 47  1  0  0  0  0
 48 49  1  0  0  0  0
 49 50  1  0  0  0  0
 51 52  1  0  0  0  0
M  END
>  <MODEL>
3

>  <REMARK>
 VINA RESULT:      -6.8      3.542      9.899
  Name = 
  14 active torsions:
  status: ('A' for Active; 'I' for Inactive)
    1  A    between atoms: C_2  and  C_19
    2  A    between atoms: N_3  and  C_6
    3  A    between atoms: O_4  and  C_7
    4  A    between atoms: O_4  and  C_19
    5  A    between atoms: C_7  and  C_15
    6  A    between atoms: C_7  and  C_22
    7  A    between atoms: C_8  and  C_34
    8  A    between atoms: C_8  and  N_43
    9  A    between atoms: C_15  and  C_51
   10  A    between atoms: C_24  and  C_28
   11  A    between atoms: C_31  and  C_35
   12  A    between atoms: C_31  and  N_43
   13  A    between atoms: S_41  and  C_51
   14  A    between atoms: C_48  and  C_51
                            x       y       z     vdW  Elec       q    Type
                         _______ _______ _______ _____ _____    ______ ____

>  <TORSDO>
F 14

$$$$
=
 OpenBabel10232411393D

 52 59  0  0  1  0  0  0  0  0999 V2000
  191.1650  175.3210  137.6280 N   0  0  2  0  0  0  0  0  0  0  0  0
  193.4820  176.3340  137.5450 C   0  0  0  0  0  2  0  0  0  0  0  0
  192.0420  176.4330  138.0590 C   0  0  2  0  0  3  0  0  0  0  0  0
  191.8270  174.3560  136.7330 C   0  0  0  0  0  2  0  0  0  0  0  0
  192.5580  175.0430  135.5580 C   0  0  2  0  0  3  0  0  0  0  0  0
  194.0800  174.8270  135.5280 C   0  0  1  0  0  3  0  0  0  0  0  0
  193.4960  176.1600  136.0240 C   0  0  2  0  0  3  0  0  0  0  0  0
  183.6770  171.1650  136.0780 C   0  0  1  0  0  3  0  0  0  0  0  0
  189.9730  175.8500  136.9510 C   0  0  1  0  0  3  0  0  0  0  0  0
  185.9050  174.5630  136.7510 C   0  0  0  0  0  0  0  0  0  0  0  0
  188.0470  175.1970  137.6860 C   0  0  2  0  0  3  0  0  0  0  0  0
  189.3460  178.7830  137.2670 O   0  0  0  0  0  1  0  0  0  0  0  0
  185.9420  171.5650  135.1890 C   0  0  0  0  0  2  0  0  0  0  0  0
  189.0190  174.7030  136.6290 C   0  0  0  0  0  2  0  0  0  0  0  0
  185.1200  173.5820  136.4060 C   0  0  0  0  0  0  0  0  0  0  0  0
  188.4470  177.7370  137.4430 C   0  0  0  0  0  0  0  0  0  0  0  0
  186.1240  176.8840  137.3540 C   0  0  0  0  0  2  0  0  0  0  0  0
  183.8760  173.3690  137.1540 C   0  0  0  0  0  3  0  0  0  0  0  0
  183.1670  172.2630  136.9610 C   0  0  0  0  0  3  0  0  0  0  0  0
  186.7040  175.5330  137.1010 C   0  0  0  0  0  0  0  0  0  0  0  0
  182.6200  170.3760  135.6630 F   0  0  0  0  0  0  0  0  0  0  0  0
  188.9590  176.4060  137.9500 C   0  0  2  0  0  3  0  0  0  0  0  0
  184.4630  171.6650  134.8590 C   0  0  2  0  0  3  0  0  0  0  0  0
  185.3110  172.9340  135.0620 C   0  0  2  0  0  3  0  0  0  0  0  0
  187.1620  177.9410  137.1560 C   0  0  0  0  0  3  0  0  0  0  0  0
  192.0480  176.5010  139.5770 C   0  0  0  0  0  2  0  0  0  0  0  0
  191.1980  177.5880  140.0370 N   0  0  0  0  0  2  0  0  0  0  0  0
  191.4070  177.7290  141.4700 C   0  0  0  0  0  2  0  0  0  0  0  0
  187.4200  178.0100  143.7240 C   0  0  0  0  0  1  0  0  0  0  0  0
  189.2120  177.9280  145.8930 O   0  0  0  0  0  0  0  0  0  0  0  0
  188.4550  176.7170  141.4450 O   0  0  0  0  0  0  0  0  0  0  0  0
  188.7690  177.4690  143.6380 N   0  0  0  0  0  0  0  0  0  0  0  0
  190.9400  176.8010  144.7160 C   0  0  0  0  0  0  0  0  0  0  0  0
  191.4200  176.3870  143.5410 C   0  0  0  0  0  3  0  0  0  0  0  0
  190.7110  176.6040  142.2310 C   0  0  1  0  0  3  0  0  0  0  0  0
  189.6130  177.4400  144.7970 C   0  0  0  0  0  0  0  0  0  0  0  0
  189.2490  176.9110  142.4080 C   0  0  0  0  0  0  0  0  0  0  0  0
  191.7650  176.6070  145.9410 C   0  0  0  0  0  2  0  0  0  0  0  0
  192.1550  175.2700  146.0330 O   0  0  0  0  0  1  0  0  0  0  0  0
  194.6250  173.8840  136.6240 C   0  0  1  0  0  3  0  0  0  0  0  0
  193.5700  171.5540  136.3620 C   0  0  0  0  0  1  0  0  0  0  0  0
  194.8130  172.4230  136.1810 C   0  0  2  0  0  3  0  0  0  0  0  0
  196.0190  171.8210  136.9030 C   0  0  2  0  0  3  0  0  0  0  0  0
  198.1550  171.8190  135.6350 C   0  0  0  0  0  2  0  0  0  0  0  0
  196.8910  171.0350  135.9360 C   0  0  0  0  0  3  0  0  0  0  0  0
  197.0120  171.8120  134.6390 C   0  0  0  0  0  2  0  0  0  0  0  0
  195.6080  171.0030  137.9630 O   0  0  0  0  0  0  0  0  0  0  0  0
  196.3230  169.8140  137.8000 C   0  0  0  0  0  2  0  0  0  0  0  0
  195.4220  168.6200  138.0980 C   0  0  0  0  0  2  0  0  0  0  0  0
  194.7540  168.7940  139.4590 C   0  0  0  0  0  1  0  0  0  0  0  0
  195.6790  174.3120  139.0700 C   0  0  0  0  0  1  0  0  0  0  0  0
  196.1820  174.5350  137.3350 S   0  0  0  0  0  0  0  0  0  0  0  0
  1  4  1  6  0  0  0
  1  3  1  0  0  0  0
  2  3  1  0  0  0  0
  3 26  1  1  0  0  0
  5  7  1  0  0  0  0
  5  4  1  1  0  0  0
  6  5  1  0  0  0  0
  6  7  1  0  0  0  0
  6 40  1  1  0  0  0
  7  2  1  1  0  0  0
  8 21  1  6  0  0  0
  8 19  1  0  0  0  0
  9 14  1  1  0  0  0
  9  1  1  0  0  0  0
  9 22  1  0  0  0  0
 10 20  2  0  0  0  0
 11 14  1  6  0  0  0
 11 22  1  0  0  0  0
 12 16  1  0  0  0  0
 15 10  2  0  0  0  0
 15 18  1  0  0  0  0
 19 18  2  0  0  0  0
 20 17  1  0  0  0  0
 20 11  1  0  0  0  0
 22 16  1  6  0  0  0
 23 24  1  0  0  0  0
 23 13  1  1  0  0  0
 23  8  1  0  0  0  0
 24 13  1  1  0  0  0
 24 15  1  0  0  0  0
 25 17  1  0  0  0  0
 25 16  2  0  0  0  0
 26 27  1  0  0  0  0
 27 28  1  0  0  0  0
 31 37  2  0  0  0  0
 32 29  1  0  0  0  0
 32 36  1  0  0  0  0
 33 36  1  0  0  0  0
 33 38  1  0  0  0  0
 34 33  2  0  0  0  0
 35 28  1  1  0  0  0
 35 37  1  0  0  0  0
 35 34  1  0  0  0  0
 36 30  2  0  0  0  0
 37 32  1  0  0  0  0
 38 39  1  0  0  0  0
 40 52  1  6  0  0  0
 42 41  1  1  0  0  0
 42 40  1  0  0  0  0
 42 43  1  0  0  0  0
 43 47  1  1  0  0  0
 44 45  1  0  0  0  0
 45 43  1  0  0  0  0
 46 44  1  0  0  0  0
 46 45  1  0  0  0  0
 48 47  1  0  0  0  0
 48 49  1  0  0  0  0
 49 50  1  0  0  0  0
 52 51  1  0  0  0  0
M  END
>  <MODEL>
4

>  <REMARK>
 VINA RESULT:      -6.1      3.441      9.586
  Name = 
  14 active torsions:
  status: ('A' for Active; 'I' for Inactive)
    1  A    between atoms: C_2  and  C_19
    2  A    between atoms: N_3  and  C_6
    3  A    between atoms: O_4  and  C_7
    4  A    between atoms: O_4  and  C_19
    5  A    between atoms: C_7  and  C_15
    6  A    between atoms: C_7  and  C_22
    7  A    between atoms: C_8  and  C_34
    8  A    between atoms: C_8  and  N_43
    9  A    between atoms: C_15  and  C_51
   10  A    between atoms: C_24  and  C_28
   11  A    between atoms: C_31  and  C_35
   12  A    between atoms: C_31  and  N_43
   13  A    between atoms: S_41  and  C_51
   14  A    between atoms: C_48  and  C_51
                            x       y       z     vdW  Elec       q    Type
                         _______ _______ _______ _____ _____    ______ ____

>  <TORSDO>
F 14

$$$$
=
 OpenBabel10232411393D

 52 59  0  0  1  0  0  0  0  0999 V2000
  188.3350  176.5970  139.0800 N   0  0  2  0  0  0  0  0  0  0  0  0
  187.8010  177.1600  136.6710 C   0  0  0  0  0  2  0  0  0  0  0  0
  188.8350  176.6660  137.6880 C   0  0  2  0  0  3  0  0  0  0  0  0
  186.9500  177.0750  139.2350 C   0  0  0  0  0  2  0  0  0  0  0  0
  186.7200  178.4530  138.5760 C   0  0  2  0  0  3  0  0  0  0  0  0
  185.6960  178.4590  137.4300 C   0  0  1  0  0  3  0  0  0  0  0  0
  187.2020  178.4950  137.1230 C   0  0  2  0  0  3  0  0  0  0  0  0
  187.9560  177.0730  147.7610 C   0  0  1  0  0  3  0  0  0  0  0  0
  189.2050  177.3770  139.9710 C   0  0  1  0  0  3  0  0  0  0  0  0
  189.9660  177.2450  144.1710 C   0  0  0  0  0  0  0  0  0  0  0  0
  189.7030  176.4980  141.8830 C   0  0  2  0  0  3  0  0  0  0  0  0
  192.0810  177.7720  139.1550 O   0  0  0  0  0  1  0  0  0  0  0  0
  187.0490  178.0420  145.6830 C   0  0  0  0  0  2  0  0  0  0  0  0
  188.6000  177.4090  141.3720 C   0  0  0  0  0  2  0  0  0  0  0  0
  189.4210  177.3410  145.3510 C   0  0  0  0  0  0  0  0  0  0  0  0
  191.6420  177.3460  140.4030 C   0  0  0  0  0  0  0  0  0  0  0  0
  191.9820  177.2190  142.8530 C   0  0  0  0  0  2  0  0  0  0  0  0
  189.9790  176.5590  146.4590 C   0  0  0  0  0  3  0  0  0  0  0  0
  189.3230  176.4780  147.6110 C   0  0  0  0  0  3  0  0  0  0  0  0
  190.4980  177.1420  142.9840 C   0  0  0  0  0  0  0  0  0  0  0  0
  187.6870  177.2830  149.1020 F   0  0  0  0  0  0  0  0  0  0  0  0
  190.3680  176.5360  140.4970 C   0  0  2  0  0  3  0  0  0  0  0  0
  187.7590  178.3800  146.9810 C   0  0  2  0  0  3  0  0  0  0  0  0
  188.4920  178.4910  145.6320 C   0  0  2  0  0  3  0  0  0  0  0  0
  192.3600  177.6690  141.4790 C   0  0  0  0  0  3  0  0  0  0  0  0
  189.3410  175.2950  137.2730 C   0  0  0  0  0  2  0  0  0  0  0  0
  190.5300  175.4240  136.4460 N   0  0  0  0  0  2  0  0  0  0  0  0
  191.6170  174.7440  137.1350 C   0  0  0  0  0  2  0  0  0  0  0  0
  194.7260  172.6380  134.4980 C   0  0  0  0  0  1  0  0  0  0  0  0
  195.9850  172.4370  137.0070 O   0  0  0  0  0  0  0  0  0  0  0  0
  193.0130  174.8700  134.3470 O   0  0  0  0  0  0  0  0  0  0  0  0
  194.4320  173.5160  135.6220 N   0  0  0  0  0  0  0  0  0  0  0  0
  194.8980  174.3220  137.9570 C   0  0  0  0  0  0  0  0  0  0  0  0
  193.9250  175.2320  137.8590 C   0  0  0  0  0  3  0  0  0  0  0  0
  192.9670  175.3030  136.6990 C   0  0  1  0  0  3  0  0  0  0  0  0
  195.1370  173.3650  136.8610 C   0  0  0  0  0  0  0  0  0  0  0  0
  193.4750  174.5740  135.4840 C   0  0  0  0  0  0  0  0  0  0  0  0
  195.7340  174.2920  139.1890 C   0  0  0  0  0  2  0  0  0  0  0  0
  196.8990  175.0320  138.9800 O   0  0  0  0  0  1  0  0  0  0  0  0
  184.9920  177.1060  137.1780 C   0  0  1  0  0  3  0  0  0  0  0  0
  182.5130  176.5300  136.8140 C   0  0  0  0  0  1  0  0  0  0  0  0
  183.5890  176.9880  137.7970 C   0  0  2  0  0  3  0  0  0  0  0  0
  183.2070  178.3140  138.4560 C   0  0  2  0  0  3  0  0  0  0  0  0
  183.5480  178.7850  140.8710 C   0  0  0  0  0  2  0  0  0  0  0  0
  182.6620  178.0840  139.8570 C   0  0  0  0  0  3  0  0  0  0  0  0
  183.6770  177.2890  140.6560 C   0  0  0  0  0  2  0  0  0  0  0  0
  182.2720  179.0070  137.6770 O   0  0  0  0  0  0  0  0  0  0  0  0
  182.2740  180.3090  138.1850 C   0  0  0  0  0  2  0  0  0  0  0  0
  180.8590  180.8780  138.1620 C   0  0  0  0  0  2  0  0  0  0  0  0
  180.3460  181.0690  139.5870 C   0  0  0  0  0  1  0  0  0  0  0  0
  185.3340  174.9570  135.5850 C   0  0  0  0  0  1  0  0  0  0  0  0
  184.9290  176.7210  135.3900 S   0  0  0  0  0  0  0  0  0  0  0  0
  1  4  1  6  0  0  0
  1  9  1  0  0  0  0
  2  3  1  0  0  0  0
  3 26  1  6  0  0  0
  3  1  1  0  0  0  0
  5  4  1  6  0  0  0
  6 40  1  6  0  0  0
  6  5  1  0  0  0  0
  7  2  1  6  0  0  0
  7  6  1  0  0  0  0
  7  5  1  0  0  0  0
  8 21  1  1  0  0  0
  9 22  1  0  0  0  0
  9 14  1  1  0  0  0
 10 15  2  0  0  0  0
 11 14  1  6  0  0  0
 11 20  1  0  0  0  0
 12 16  1  0  0  0  0
 15 24  1  0  0  0  0
 15 18  1  0  0  0  0
 16 25  2  0  0  0  0
 17 20  1  0  0  0  0
 18 19  2  0  0  0  0
 19  8  1  0  0  0  0
 20 10  2  0  0  0  0
 22 16  1  1  0  0  0
 22 11  1  0  0  0  0
 23 13  1  6  0  0  0
 23  8  1  0  0  0  0
 24 13  1  6  0  0  0
 24 23  1  0  0  0  0
 25 17  1  0  0  0  0
 27 28  1  0  0  0  0
 27 26  1  0  0  0  0
 29 32  1  0  0  0  0
 31 37  2  0  0  0  0
 32 36  1  0  0  0  0
 33 38  1  0  0  0  0
 34 33  2  0  0  0  0
 35 28  1  1  0  0  0
 35 34  1  0  0  0  0
 36 30  2  0  0  0  0
 36 33  1  0  0  0  0
 37 32  1  0  0  0  0
 37 35  1  0  0  0  0
 39 38  1  0  0  0  0
 40 52  1  6  0  0  0
 40 42  1  0  0  0  0
 42 41  1  6  0  0  0
 42 43  1  0  0  0  0
 43 47  1  6  0  0  0
 43 45  1  0  0  0  0
 45 46  1  0  0  0  0
 45 44  1  0  0  0  0
 46 44  1  0  0  0  0
 47 48  1  0  0  0  0
 49 48  1  0  0  0  0
 49 50  1  0  0  0  0
 52 51  1  0  0  0  0
M  END
>  <MODEL>
5

>  <REMARK>
 VINA RESULT:      -5.9      1.926      2.877
  Name = 
  14 active torsions:
  status: ('A' for Active; 'I' for Inactive)
    1  A    between atoms: C_2  and  C_19
    2  A    between atoms: N_3  and  C_6
    3  A    between atoms: O_4  and  C_7
    4  A    between atoms: O_4  and  C_19
    5  A    between atoms: C_7  and  C_15
    6  A    between atoms: C_7  and  C_22
    7  A    between atoms: C_8  and  C_34
    8  A    between atoms: C_8  and  N_43
    9  A    between atoms: C_15  and  C_51
   10  A    between atoms: C_24  and  C_28
   11  A    between atoms: C_31  and  C_35
   12  A    between atoms: C_31  and  N_43
   13  A    between atoms: S_41  and  C_51
   14  A    between atoms: C_48  and  C_51
                            x       y       z     vdW  Elec       q    Type
                         _______ _______ _______ _____ _____    ______ ____

>  <TORSDO>
F 14

$$$$
=
 OpenBabel10232411393D

 52 59  0  0  1  0  0  0  0  0999 V2000
  190.8570  175.7140  137.8550 N   0  0  2  0  0  0  0  0  0  0  0  0
  193.1840  176.6930  137.6700 C   0  0  0  0  0  2  0  0  0  0  0  0
  191.7200  176.8960  138.0770 C   0  0  2  0  0  3  0  0  0  0  0  0
  191.5570  174.5800  137.2260 C   0  0  0  0  0  2  0  0  0  0  0  0
  192.3500  174.9960  135.9680 C   0  0  2  0  0  3  0  0  0  0  0  0
  193.8690  174.7850  136.0620 C   0  0  1  0  0  3  0  0  0  0  0  0
  193.2720  176.1910  136.2250 C   0  0  2  0  0  3  0  0  0  0  0  0
  183.7910  170.9090  136.2040 C   0  0  1  0  0  3  0  0  0  0  0  0
  189.7040  176.0780  137.0200 C   0  0  1  0  0  3  0  0  0  0  0  0
  185.7520  174.5050  136.6390 C   0  0  0  0  0  0  0  0  0  0  0  0
  187.7600  175.3870  137.6660 C   0  0  2  0  0  3  0  0  0  0  0  0
  188.8860  178.9790  136.9190 O   0  0  0  0  0  1  0  0  0  0  0  0
  186.1020  171.3540  135.4650 C   0  0  0  0  0  2  0  0  0  0  0  0
  188.8510  174.8390  136.7630 C   0  0  0  0  0  2  0  0  0  0  0  0
  185.0580  173.4400  136.3520 C   0  0  0  0  0  0  0  0  0  0  0  0
  188.0360  177.9020  137.1460 C   0  0  0  0  0  0  0  0  0  0  0  0
  185.7820  176.8910  136.9680 C   0  0  0  0  0  2  0  0  0  0  0  0
  183.7660  173.2320  137.0130 C   0  0  0  0  0  3  0  0  0  0  0  0
  183.1400  172.0670  136.8990 C   0  0  0  0  0  3  0  0  0  0  0  0
  186.4590  175.5620  136.9330 C   0  0  0  0  0  0  0  0  0  0  0  0
  182.8230  170.0080  135.8010 F   0  0  0  0  0  0  0  0  0  0  0  0
  188.5730  176.6780  137.8550 C   0  0  2  0  0  3  0  0  0  0  0  0
  184.6570  171.3140  135.0020 C   0  0  2  0  0  3  0  0  0  0  0  0
  185.4090  172.6520  135.1190 C   0  0  2  0  0  3  0  0  0  0  0  0
  186.7720  177.9840  136.7290 C   0  0  0  0  0  3  0  0  0  0  0  0
  191.6520  177.2940  139.5420 C   0  0  0  0  0  2  0  0  0  0  0  0
  191.3100  176.1430  140.3620 N   0  0  0  0  0  2  0  0  0  0  0  0
  189.9470  176.3330  140.8350 C   0  0  0  0  0  2  0  0  0  0  0  0
  189.7710  177.2110  145.3340 C   0  0  0  0  0  1  0  0  0  0  0  0
  187.0660  177.5820  144.6500 O   0  0  0  0  0  0  0  0  0  0  0  0
  191.4930  177.7200  143.1630 O   0  0  0  0  0  0  0  0  0  0  0  0
  189.3130  177.5120  143.9860 N   0  0  0  0  0  0  0  0  0  0  0  0
  187.4800  178.1110  142.3730 C   0  0  0  0  0  0  0  0  0  0  0  0
  188.3510  178.1400  141.3610 C   0  0  0  0  0  3  0  0  0  0  0  0
  189.7860  177.7010  141.4880 C   0  0  1  0  0  3  0  0  0  0  0  0
  187.9170  177.7130  143.7240 C   0  0  0  0  0  0  0  0  0  0  0  0
  190.2560  177.6640  142.9170 C   0  0  0  0  0  0  0  0  0  0  0  0
  186.0630  178.4890  142.1140 C   0  0  0  0  0  2  0  0  0  0  0  0
  186.0130  179.4450  141.0980 O   0  0  0  0  0  1  0  0  0  0  0  0
  194.3530  174.1060  137.3630 C   0  0  1  0  0  3  0  0  0  0  0  0
  195.1260  171.9100  138.4560 C   0  0  0  0  0  1  0  0  0  0  0  0
  194.3230  172.5680  137.3360 C   0  0  2  0  0  3  0  0  0  0  0  0
  194.7800  172.0730  135.9630 C   0  0  2  0  0  3  0  0  0  0  0  0
  192.9430  171.6210  134.3540 C   0  0  0  0  0  2  0  0  0  0  0  0
  193.8300  171.0140  135.4250 C   0  0  0  0  0  3  0  0  0  0  0  0
  192.4060  171.4180  135.7570 C   0  0  0  0  0  2  0  0  0  0  0  0
  196.0860  171.5690  136.0250 O   0  0  0  0  0  0  0  0  0  0  0  0
  196.7030  172.0230  134.8550 C   0  0  0  0  0  2  0  0  0  0  0  0
  198.1700  172.3360  135.1300 C   0  0  0  0  0  2  0  0  0  0  0  0
  198.7230  171.3820  136.1850 C   0  0  0  0  0  1  0  0  0  0  0  0
  196.4370  175.3450  136.1830 C   0  0  0  0  0  1  0  0  0  0  0  0
  196.0210  174.6970  137.8320 S   0  0  0  0  0  0  0  0  0  0  0  0
  1  4  1  6  0  0  0
  1  3  1  0  0  0  0
  2  3  1  0  0  0  0
  3 26  1  1  0  0  0
  5  6  1  0  0  0  0
  5  7  1  0  0  0  0
  5  4  1  1  0  0  0
  6  7  1  0  0  0  0
  6 40  1  1  0  0  0
  7  2  1  1  0  0  0
  8 21  1  6  0  0  0
  8 19  1  0  0  0  0
  9 14  1  1  0  0  0
  9  1  1  0  0  0  0
  9 22  1  0  0  0  0
 10 20  2  0  0  0  0
 11 14  1  6  0  0  0
 11 22  1  0  0  0  0
 12 16  1  0  0  0  0
 15 10  2  0  0  0  0
 15 18  1  0  0  0  0
 19 18  2  0  0  0  0
 20 17  1  0  0  0  0
 20 11  1  0  0  0  0
 22 16  1  6  0  0  0
 23 24  1  0  0  0  0
 23 13  1  1  0  0  0
 23  8  1  0  0  0  0
 24 13  1  1  0  0  0
 24 15  1  0  0  0  0
 25 17  1  0  0  0  0
 25 16  2  0  0  0  0
 26 27  1  0  0  0  0
 27 28  1  0  0  0  0
 32 29  1  0  0  0  0
 33 36  1  0  0  0  0
 34 35  1  0  0  0  0
 34 33  2  0  0  0  0
 35 28  1  1  0  0  0
 35 37  1  0  0  0  0
 36 32  1  0  0  0  0
 36 30  2  0  0  0  0
 37 31  2  0  0  0  0
 37 32  1  0  0  0  0
 38 33  1  0  0  0  0
 39 38  1  0  0  0  0
 40 52  1  6  0  0  0
 42 40  1  0  0  0  0
 42 41  1  1  0  0  0
 43 47  1  1  0  0  0
 43 42  1  0  0  0  0
 44 45  1  0  0  0  0
 44 46  1  0  0  0  0
 45 46  1  0  0  0  0
 45 43  1  0  0  0  0
 48 49  1  0  0  0  0
 48 47  1  0  0  0  0
 49 50  1  0  0  0  0
 51 52  1  0  0  0  0
M  END
>  <MODEL>
6

>  <REMARK>
 VINA RESULT:      -5.9      3.339      9.450
  Name = 
  14 active torsions:
  status: ('A' for Active; 'I' for Inactive)
    1  A    between atoms: C_2  and  C_19
    2  A    between atoms: N_3  and  C_6
    3  A    between atoms: O_4  and  C_7
    4  A    between atoms: O_4  and  C_19
    5  A    between atoms: C_7  and  C_15
    6  A    between atoms: C_7  and  C_22
    7  A    between atoms: C_8  and  C_34
    8  A    between atoms: C_8  and  N_43
    9  A    between atoms: C_15  and  C_51
   10  A    between atoms: C_24  and  C_28
   11  A    between atoms: C_31  and  C_35
   12  A    between atoms: C_31  and  N_43
   13  A    between atoms: S_41  and  C_51
   14  A    between atoms: C_48  and  C_51
                            x       y       z     vdW  Elec       q    Type
                         _______ _______ _______ _____ _____    ______ ____

>  <TORSDO>
F 14

$$$$
=
 OpenBabel10232411393D

 52 59  0  0  1  0  0  0  0  0999 V2000
  187.3450  179.2780  141.7680 N   0  0  2  0  0  0  0  0  0  0  0  0
  188.4450  177.0190  141.4640 C   0  0  0  0  0  2  0  0  0  0  0  0
  187.6840  178.1860  140.8270 C   0  0  2  0  0  3  0  0  0  0  0  0
  187.7520  179.0080  143.1580 C   0  0  0  0  0  2  0  0  0  0  0  0
  187.2940  177.6180  143.6520 C   0  0  2  0  0  3  0  0  0  0  0  0
  188.4340  176.6570  144.0260 C   0  0  1  0  0  3  0  0  0  0  0  0
  187.6920  176.4950  142.6900 C   0  0  2  0  0  3  0  0  0  0  0  0
  181.3910  175.5890  136.6030 C   0  0  1  0  0  3  0  0  0  0  0  0
  185.8990  179.5380  141.7430 C   0  0  1  0  0  3  0  0  0  0  0  0
  182.5720  177.4300  140.0920 C   0  0  0  0  0  0  0  0  0  0  0  0
  184.5990  177.8570  141.3470 C   0  0  2  0  0  3  0  0  0  0  0  0
  184.5430  180.2590  144.3380 O   0  0  0  0  0  1  0  0  0  0  0  0
  183.0250  177.4300  136.7420 C   0  0  0  0  0  2  0  0  0  0  0  0
  185.2900  178.9060  140.4940 C   0  0  0  0  0  2  0  0  0  0  0  0
  182.0550  176.9590  138.9930 C   0  0  0  0  0  0  0  0  0  0  0  0
  184.1090  179.2950  143.4350 C   0  0  0  0  0  0  0  0  0  0  0  0
  182.2520  178.0210  142.4050 C   0  0  0  0  0  2  0  0  0  0  0  0
  181.2380  175.7430  139.0530 C   0  0  0  0  0  3  0  0  0  0  0  0
  180.8760  175.1290  137.9330 C   0  0  0  0  0  3  0  0  0  0  0  0
  183.1050  177.8990  141.1870 C   0  0  0  0  0  0  0  0  0  0  0  0
  180.5500  175.1400  135.6010 F   0  0  0  0  0  0  0  0  0  0  0  0
  185.1340  178.5430  142.6140 C   0  0  2  0  0  3  0  0  0  0  0  0
  181.5620  177.1100  136.4960 C   0  0  2  0  0  3  0  0  0  0  0  0
  182.0020  177.8430  137.7760 C   0  0  2  0  0  3  0  0  0  0  0  0
  182.8010  179.0670  143.3210 C   0  0  0  0  0  3  0  0  0  0  0  0
  188.4980  178.7560  139.6770 C   0  0  0  0  0  2  0  0  0  0  0  0
  188.0440  178.1990  138.4130 N   0  0  0  0  0  2  0  0  0  0  0  0
  188.7520  178.8960  137.3490 C   0  0  0  0  0  2  0  0  0  0  0  0
  186.0880  175.3090  136.3060 C   0  0  0  0  0  1  0  0  0  0  0  0
  188.4570  173.9740  137.0320 O   0  0  0  0  0  0  0  0  0  0  0  0
  186.5900  177.9030  135.3290 O   0  0  0  0  0  0  0  0  0  0  0  0
  187.4040  175.9320  136.2910 N   0  0  0  0  0  0  0  0  0  0  0  0
  189.9020  175.7920  136.5380 C   0  0  0  0  0  0  0  0  0  0  0  0
  190.0240  177.0900  136.2490 C   0  0  0  0  0  3  0  0  0  0  0  0
  188.8510  178.0230  136.1030 C   0  0  1  0  0  3  0  0  0  0  0  0
  188.5670  175.1750  136.6510 C   0  0  0  0  0  0  0  0  0  0  0  0
  187.5570  177.2920  135.8650 C   0  0  0  0  0  0  0  0  0  0  0  0
  191.1340  174.9810  136.7420 C   0  0  0  0  0  2  0  0  0  0  0  0
  191.2630  174.6620  138.0950 O   0  0  0  0  0  1  0  0  0  0  0  0
  189.8530  177.2630  143.9360 C   0  0  1  0  0  3  0  0  0  0  0  0
  191.5610  178.8860  144.9660 C   0  0  0  0  0  1  0  0  0  0  0  0
  190.2870  178.0680  145.1730 C   0  0  2  0  0  3  0  0  0  0  0  0
  190.4210  177.1300  146.3730 C   0  0  2  0  0  3  0  0  0  0  0  0
  188.4430  176.8020  147.8390 C   0  0  0  0  0  2  0  0  0  0  0  0
  189.6570  177.6720  147.5710 C   0  0  0  0  0  3  0  0  0  0  0  0
  188.2840  178.1250  147.1160 C   0  0  0  0  0  2  0  0  0  0  0  0
  191.7680  176.9310  146.7020 O   0  0  0  0  0  0  0  0  0  0  0  0
  191.7800  175.7740  147.4860 C   0  0  0  0  0  2  0  0  0  0  0  0
  193.1060  175.6660  148.2320 C   0  0  0  0  0  2  0  0  0  0  0  0
  193.1210  176.6240  149.4200 C   0  0  0  0  0  1  0  0  0  0  0  0
  191.9090  176.9160  142.2260 C   0  0  0  0  0  1  0  0  0  0  0  0
  191.0940  175.9740  143.5530 S   0  0  0  0  0  0  0  0  0  0  0  0
  1  4  1  1  0  0  0
  3 26  1  6  0  0  0
  3  2  1  0  0  0  0
  3  1  1  0  0  0  0
  5  4  1  6  0  0  0
  5  6  1  0  0  0  0
  6 40  1  6  0  0  0
  7  2  1  6  0  0  0
  7  5  1  0  0  0  0
  7  6  1  0  0  0  0
  8 21  1  6  0  0  0
  8 19  1  0  0  0  0
  9 14  1  6  0  0  0
  9  1  1  0  0  0  0
  9 22  1  0  0  0  0
 10 20  2  0  0  0  0
 11 14  1  6  0  0  0
 11 22  1  0  0  0  0
 15 18  1  0  0  0  0
 15 10  2  0  0  0  0
 16 12  1  0  0  0  0
 17 25  1  0  0  0  0
 19 18  2  0  0  0  0
 20 11  1  0  0  0  0
 20 17  1  0  0  0  0
 22 16  1  1  0  0  0
 23  8  1  0  0  0  0
 23 13  1  6  0  0  0
 23 24  1  0  0  0  0
 24 13  1  6  0  0  0
 24 15  1  0  0  0  0
 25 16  2  0  0  0  0
 27 26  1  0  0  0  0
 28 27  1  0  0  0  0
 31 37  2  0  0  0  0
 32 29  1  0  0  0  0
 32 36  1  0  0  0  0
 33 36  1  0  0  0  0
 33 38  1  0  0  0  0
 34 33  2  0  0  0  0
 35 34  1  0  0  0  0
 35 28  1  1  0  0  0
 36 30  2  0  0  0  0
 37 35  1  0  0  0  0
 37 32  1  0  0  0  0
 38 39  1  0  0  0  0
 40 52  1  1  0  0  0
 40 42  1  0  0  0  0
 42 41  1  6  0  0  0
 42 43  1  0  0  0  0
 43 47  1  1  0  0  0
 43 45  1  0  0  0  0
 45 44  1  0  0  0  0
 46 45  1  0  0  0  0
 46 44  1  0  0  0  0
 47 48  1  0  0  0  0
 48 49  1  0  0  0  0
 49 50  1  0  0  0  0
 51 52  1  0  0  0  0
M  END
>  <MODEL>
7

>  <REMARK>
 VINA RESULT:      -5.8      3.611      8.643
  Name = 
  14 active torsions:
  status: ('A' for Active; 'I' for Inactive)
    1  A    between atoms: C_2  and  C_19
    2  A    between atoms: N_3  and  C_6
    3  A    between atoms: O_4  and  C_7
    4  A    between atoms: O_4  and  C_19
    5  A    between atoms: C_7  and  C_15
    6  A    between atoms: C_7  and  C_22
    7  A    between atoms: C_8  and  C_34
    8  A    between atoms: C_8  and  N_43
    9  A    between atoms: C_15  and  C_51
   10  A    between atoms: C_24  and  C_28
   11  A    between atoms: C_31  and  C_35
   12  A    between atoms: C_31  and  N_43
   13  A    between atoms: S_41  and  C_51
   14  A    between atoms: C_48  and  C_51
                            x       y       z     vdW  Elec       q    Type
                         _______ _______ _______ _____ _____    ______ ____

>  <TORSDO>
F 14

$$$$
=
 OpenBabel10232411393D

 52 59  0  0  1  0  0  0  0  0999 V2000
  190.7150  175.6770  137.7800 N   0  0  2  0  0  0  0  0  0  0  0  0
  193.1080  176.4960  137.7180 C   0  0  0  0  0  2  0  0  0  0  0  0
  191.6660  176.7400  138.1740 C   0  0  2  0  0  3  0  0  0  0  0  0
  191.3250  174.6080  136.9690 C   0  0  0  0  0  2  0  0  0  0  0  0
  192.1440  175.1590  135.7810 C   0  0  2  0  0  3  0  0  0  0  0  0
  193.6440  174.8230  135.8190 C   0  0  1  0  0  3  0  0  0  0  0  0
  193.1550  176.2260  136.2120 C   0  0  2  0  0  3  0  0  0  0  0  0
  183.2040  171.8090  135.6910 C   0  0  1  0  0  3  0  0  0  0  0  0
  189.5910  176.2530  137.0300 C   0  0  1  0  0  3  0  0  0  0  0  0
  185.5030  175.1170  136.5460 C   0  0  0  0  0  0  0  0  0  0  0  0
  187.5980  175.6660  137.6290 C   0  0  2  0  0  3  0  0  0  0  0  0
  189.0510  179.2050  137.3330 O   0  0  0  0  0  1  0  0  0  0  0  0
  185.5360  172.1320  134.9590 C   0  0  0  0  0  2  0  0  0  0  0  0
  188.6210  175.1440  136.6340 C   0  0  0  0  0  2  0  0  0  0  0  0
  184.7070  174.1690  136.1390 C   0  0  0  0  0  0  0  0  0  0  0  0
  188.1050  178.1910  137.4380 C   0  0  0  0  0  0  0  0  0  0  0  0
  185.7630  177.4250  137.1850 C   0  0  0  0  0  2  0  0  0  0  0  0
  183.4100  173.9950  136.8000 C   0  0  0  0  0  3  0  0  0  0  0  0
  182.6750  172.9180  136.5490 C   0  0  0  0  0  3  0  0  0  0  0  0
  186.3100  176.0550  136.9580 C   0  0  0  0  0  0  0  0  0  0  0  0
  182.1490  171.0620  135.1980 F   0  0  0  0  0  0  0  0  0  0  0  0
  188.5330  176.8390  137.9650 C   0  0  2  0  0  3  0  0  0  0  0  0
  184.0880  172.2890  134.5320 C   0  0  2  0  0  3  0  0  0  0  0  0
  184.9650  173.5240  134.8050 C   0  0  2  0  0  3  0  0  0  0  0  0
  186.8500  178.4440  137.0680 C   0  0  0  0  0  3  0  0  0  0  0  0
  191.6310  176.9040  139.6840 C   0  0  0  0  0  2  0  0  0  0  0  0
  190.3040  176.6000  140.1950 N   0  0  0  0  0  2  0  0  0  0  0  0
  190.3950  176.5510  141.6470 C   0  0  0  0  0  2  0  0  0  0  0  0
  190.1290  177.5300  146.1210 C   0  0  0  0  0  1  0  0  0  0  0  0
  187.4030  177.1560  145.5320 O   0  0  0  0  0  0  0  0  0  0  0  0
  191.5930  178.3830  143.8700 O   0  0  0  0  0  0  0  0  0  0  0  0
  189.5680  177.6480  144.7830 N   0  0  0  0  0  0  0  0  0  0  0  0
  187.5960  177.6850  143.2250 C   0  0  0  0  0  0  0  0  0  0  0  0
  188.3990  177.8990  142.1800 C   0  0  0  0  0  3  0  0  0  0  0  0
  189.9020  177.8550  142.2640 C   0  0  1  0  0  3  0  0  0  0  0  0
  188.1620  177.4670  144.5690 C   0  0  0  0  0  0  0  0  0  0  0  0
  190.4070  177.9980  143.6740 C   0  0  0  0  0  0  0  0  0  0  0  0
  186.1220  177.6700  143.0090 C   0  0  0  0  0  2  0  0  0  0  0  0
  185.5590  178.8250  143.5540 O   0  0  0  0  0  1  0  0  0  0  0  0
  194.0780  173.9110  136.9890 C   0  0  1  0  0  3  0  0  0  0  0  0
  195.8540  172.8910  135.4350 C   0  0  0  0  0  1  0  0  0  0  0  0
  194.8580  172.6540  136.5690 C   0  0  2  0  0  3  0  0  0  0  0  0
  193.8750  171.5370  136.2170 C   0  0  2  0  0  3  0  0  0  0  0  0
  193.9410  169.3220  137.3380 C   0  0  0  0  0  2  0  0  0  0  0  0
  194.5620  170.1800  136.2530 C   0  0  0  0  0  3  0  0  0  0  0  0
  195.2640  170.0190  137.5880 C   0  0  0  0  0  2  0  0  0  0  0  0
  193.2980  171.7580  134.9600 O   0  0  0  0  0  0  0  0  0  0  0  0
  192.0690  171.0930  135.0050 C   0  0  0  0  0  2  0  0  0  0  0  0
  190.9890  171.9530  134.3590 C   0  0  0  0  0  2  0  0  0  0  0  0
  189.6820  171.8300  135.1370 C   0  0  0  0  0  1  0  0  0  0  0  0
  196.3070  173.5840  138.4720 C   0  0  0  0  0  1  0  0  0  0  0  0
  195.0240  174.8540  138.2400 S   0  0  0  0  0  0  0  0  0  0  0  0
  1  4  1  6  0  0  0
  1  3  1  0  0  0  0
  2  3  1  0  0  0  0
  3 26  1  1  0  0  0
  5  6  1  0  0  0  0
  5  7  1  0  0  0  0
  5  4  1  1  0  0  0
  6  7  1  0  0  0  0
  6 40  1  1  0  0  0
  7  2  1  1  0  0  0
  8 21  1  6  0  0  0
  8 19  1  0  0  0  0
  9 14  1  1  0  0  0
  9  1  1  0  0  0  0
  9 22  1  0  0  0  0
 10 20  2  0  0  0  0
 11 14  1  6  0  0  0
 11 22  1  0  0  0  0
 12 16  1  0  0  0  0
 15 10  2  0  0  0  0
 15 18  1  0  0  0  0
 19 18  2  0  0  0  0
 20 17  1  0  0  0  0
 20 11  1  0  0  0  0
 22 16  1  6  0  0  0
 23 24  1  0  0  0  0
 23 13  1  1  0  0  0
 23  8  1  0  0  0  0
 24 13  1  1  0  0  0
 24 15  1  0  0  0  0
 25 17  1  0  0  0  0
 25 16  2  0  0  0  0
 26 27  1  0  0  0  0
 27 28  1  0  0  0  0
 32 29  1  0  0  0  0
 33 36  1  0  0  0  0
 34 35  1  0  0  0  0
 34 33  2  0  0  0  0
 35 28  1  1  0  0  0
 35 37  1  0  0  0  0
 36 32  1  0  0  0  0
 36 30  2  0  0  0  0
 37 31  2  0  0  0  0
 37 32  1  0  0  0  0
 38 33  1  0  0  0  0
 38 39  1  0  0  0  0
 40 52  1  1  0  0  0
 42 41  1  6  0  0  0
 42 40  1  0  0  0  0
 43 47  1  6  0  0  0
 43 45  1  0  0  0  0
 43 42  1  0  0  0  0
 44 46  1  0  0  0  0
 45 44  1  0  0  0  0
 45 46  1  0  0  0  0
 47 48  1  0  0  0  0
 49 48  1  0  0  0  0
 49 50  1  0  0  0  0
 52 51  1  0  0  0  0
M  END
>  <MODEL>
8

>  <REMARK>
 VINA RESULT:      -5.8      3.356      9.207
  Name = 
  14 active torsions:
  status: ('A' for Active; 'I' for Inactive)
    1  A    between atoms: C_2  and  C_19
    2  A    between atoms: N_3  and  C_6
    3  A    between atoms: O_4  and  C_7
    4  A    between atoms: O_4  and  C_19
    5  A    between atoms: C_7  and  C_15
    6  A    between atoms: C_7  and  C_22
    7  A    between atoms: C_8  and  C_34
    8  A    between atoms: C_8  and  N_43
    9  A    between atoms: C_15  and  C_51
   10  A    between atoms: C_24  and  C_28
   11  A    between atoms: C_31  and  C_35
   12  A    between atoms: C_31  and  N_43
   13  A    between atoms: S_41  and  C_51
   14  A    between atoms: C_48  and  C_51
                            x       y       z     vdW  Elec       q    Type
                         _______ _______ _______ _____ _____    ______ ____

>  <TORSDO>
F 14

$$$$
=
 OpenBabel10232411393D

 52 59  0  0  1  0  0  0  0  0999 V2000
  187.4440  179.1910  141.6460 N   0  0  2  0  0  0  0  0  0  0  0  0
  188.5290  176.9130  141.4510 C   0  0  0  0  0  2  0  0  0  0  0  0
  187.7860  178.0590  140.7550 C   0  0  2  0  0  3  0  0  0  0  0  0
  187.8300  178.9760  143.0520 C   0  0  0  0  0  2  0  0  0  0  0  0
  187.3540  177.6110  143.5960 C   0  0  2  0  0  3  0  0  0  0  0  0
  188.4810  176.6580  144.0250 C   0  0  1  0  0  3  0  0  0  0  0  0
  187.7550  176.4460  142.6870 C   0  0  2  0  0  3  0  0  0  0  0  0
  181.5330  175.3590  136.5350 C   0  0  1  0  0  3  0  0  0  0  0  0
  186.0000  179.4610  141.5900 C   0  0  1  0  0  3  0  0  0  0  0  0
  182.6800  177.3190  139.9710 C   0  0  0  0  0  0  0  0  0  0  0  0
  184.6920  177.7760  141.2380 C   0  0  2  0  0  3  0  0  0  0  0  0
  184.6130  180.2880  144.1380 O   0  0  0  0  0  1  0  0  0  0  0  0
  183.1800  177.1920  136.6300 C   0  0  0  0  0  2  0  0  0  0  0  0
  185.4040  178.7880  140.3570 C   0  0  0  0  0  2  0  0  0  0  0  0
  182.1750  176.8120  138.8820 C   0  0  0  0  0  0  0  0  0  0  0  0
  184.1850  179.2940  143.2650 C   0  0  0  0  0  0  0  0  0  0  0  0
  182.3310  177.9970  142.2560 C   0  0  0  0  0  2  0  0  0  0  0  0
  181.3470  175.6040  138.9750 C   0  0  0  0  0  3  0  0  0  0  0  0
  180.9960  174.9530  137.8740 C   0  0  0  0  0  3  0  0  0  0  0  0
  183.2010  177.8230  141.0550 C   0  0  0  0  0  0  0  0  0  0  0  0
  180.7030  174.8800  135.5380 F   0  0  0  0  0  0  0  0  0  0  0  0
  185.2150  178.5040  142.4870 C   0  0  2  0  0  3  0  0  0  0  0  0
  181.7180  176.8740  136.3740 C   0  0  2  0  0  3  0  0  0  0  0  0
  182.1460  177.6500  137.6330 C   0  0  2  0  0  3  0  0  0  0  0  0
  182.8760  179.0710  143.1400 C   0  0  0  0  0  3  0  0  0  0  0  0
  188.6190  178.5740  139.5940 C   0  0  0  0  0  2  0  0  0  0  0  0
  188.7180  177.5610  138.5550 N   0  0  0  0  0  2  0  0  0  0  0  0
  190.0890  177.5680  138.0670 C   0  0  0  0  0  2  0  0  0  0  0  0
  194.0290  176.0390  136.2810 C   0  0  0  0  0  1  0  0  0  0  0  0
  192.2000  174.3540  134.9650 O   0  0  0  0  0  0  0  0  0  0  0  0
  193.0570  176.9150  138.7770 O   0  0  0  0  0  0  0  0  0  0  0  0
  192.6910  175.7530  136.7790 N   0  0  0  0  0  0  0  0  0  0  0  0
  190.5120  174.5080  136.6280 C   0  0  0  0  0  0  0  0  0  0  0  0
  190.0600  175.1250  137.7230 C   0  0  0  0  0  3  0  0  0  0  0  0
  190.7890  176.2550  138.4010 C   0  0  1  0  0  3  0  0  0  0  0  0
  191.8270  174.8620  136.0610 C   0  0  0  0  0  0  0  0  0  0  0  0
  192.2430  176.3180  138.0180 C   0  0  0  0  0  0  0  0  0  0  0  0
  189.6680  173.4590  135.9920 C   0  0  0  0  0  2  0  0  0  0  0  0
  188.5310  174.0490  135.4370 O   0  0  0  0  0  1  0  0  0  0  0  0
  189.9060  177.2490  143.9300 C   0  0  1  0  0  3  0  0  0  0  0  0
  191.6100  178.8910  144.9350 C   0  0  0  0  0  1  0  0  0  0  0  0
  190.3500  178.0570  145.1610 C   0  0  2  0  0  3  0  0  0  0  0  0
  190.5160  177.1170  146.3560 C   0  0  2  0  0  3  0  0  0  0  0  0
  188.5500  176.8220  147.8450 C   0  0  0  0  0  2  0  0  0  0  0  0
  189.7860  177.6590  147.5750 C   0  0  0  0  0  3  0  0  0  0  0  0
  188.4200  178.1620  147.1480 C   0  0  0  0  0  2  0  0  0  0  0  0
  191.8710  176.9160  146.6480 O   0  0  0  0  0  0  0  0  0  0  0  0
  191.8990  175.7860  147.4710 C   0  0  0  0  0  2  0  0  0  0  0  0
  193.1690  175.7890  148.3140 C   0  0  0  0  0  2  0  0  0  0  0  0
  193.0980  176.8880  149.3700 C   0  0  0  0  0  1  0  0  0  0  0  0
  191.9590  176.8730  142.2220 C   0  0  0  0  0  1  0  0  0  0  0  0
  191.1330  175.9450  143.5520 S   0  0  0  0  0  0  0  0  0  0  0  0
  1  4  1  1  0  0  0
  3 26  1  6  0  0  0
  3  2  1  0  0  0  0
  3  1  1  0  0  0  0
  5  4  1  6  0  0  0
  5  6  1  0  0  0  0
  6 40  1  6  0  0  0
  7  2  1  6  0  0  0
  7  5  1  0  0  0  0
  7  6  1  0  0  0  0
  8 21  1  6  0  0  0
  8 19  1  0  0  0  0
  9 14  1  6  0  0  0
  9  1  1  0  0  0  0
  9 22  1  0  0  0  0
 10 20  2  0  0  0  0
 11 14  1  6  0  0  0
 11 22  1  0  0  0  0
 15 18  1  0  0  0  0
 15 10  2  0  0  0  0
 16 12  1  0  0  0  0
 17 25  1  0  0  0  0
 19 18  2  0  0  0  0
 20 11  1  0  0  0  0
 20 17  1  0  0  0  0
 22 16  1  6  0  0  0
 23  8  1  0  0  0  0
 23 13  1  6  0  0  0
 23 24  1  0  0  0  0
 24 13  1  6  0  0  0
 24 15  1  0  0  0  0
 25 16  2  0  0  0  0
 27 26  1  0  0  0  0
 28 27  1  0  0  0  0
 29 32  1  0  0  0  0
 30 36  2  0  0  0  0
 32 37  1  0  0  0  0
 33 34  2  0  0  0  0
 34 35  1  0  0  0  0
 35 28  1  6  0  0  0
 36 33  1  0  0  0  0
 36 32  1  0  0  0  0
 37 35  1  0  0  0  0
 37 31  2  0  0  0  0
 38 33  1  0  0  0  0
 39 38  1  0  0  0  0
 40 52  1  1  0  0  0
 40 42  1  0  0  0  0
 42 41  1  6  0  0  0
 42 43  1  0  0  0  0
 43 47  1  1  0  0  0
 43 45  1  0  0  0  0
 45 44  1  0  0  0  0
 46 45  1  0  0  0  0
 46 44  1  0  0  0  0
 47 48  1  0  0  0  0
 48 49  1  0  0  0  0
 49 50  1  0  0  0  0
 51 52  1  0  0  0  0
M  END
>  <MODEL>
9

>  <REMARK>
 VINA RESULT:      -5.6      3.505      8.303
  Name = 
  14 active torsions:
  status: ('A' for Active; 'I' for Inactive)
    1  A    between atoms: C_2  and  C_19
    2  A    between atoms: N_3  and  C_6
    3  A    between atoms: O_4  and  C_7
    4  A    between atoms: O_4  and  C_19
    5  A    between atoms: C_7  and  C_15
    6  A    between atoms: C_7  and  C_22
    7  A    between atoms: C_8  and  C_34
    8  A    between atoms: C_8  and  N_43
    9  A    between atoms: C_15  and  C_51
   10  A    between atoms: C_24  and  C_28
   11  A    between atoms: C_31  and  C_35
   12  A    between atoms: C_31  and  N_43
   13  A    between atoms: S_41  and  C_51
   14  A    between atoms: C_48  and  C_51
                            x       y       z     vdW  Elec       q    Type
                         _______ _______ _______ _____ _____    ______ ____

>  <TORSDO>
F 14

$$$$
