=
 OpenBabel10232410023D

 26 28  0  0  1  0  0  0  0  0999 V2000
  191.4530  176.7420  147.4430 C   0  0  0  0  0  0  0  0  0  0  0  0
  189.8910  177.3130  147.8670 S   0  0  0  0  0  0  0  0  0  0  0  0
  188.2200  177.3680  145.5420 C   0  0  0  0  0  0  0  0  0  0  0  0
  188.5850  177.0020  144.2550 C   0  0  0  0  0  0  0  0  0  0  0  0
  191.5390  176.4310  146.0730 C   0  0  0  0  0  3  0  0  0  0  0  0
  186.9580  177.8610  145.8510 C   0  0  0  0  0  3  0  0  0  0  0  0
  186.0390  177.9760  144.7920 C   0  0  0  0  0  3  0  0  0  0  0  0
  186.3910  177.6090  143.4720 C   0  0  0  0  0  0  0  0  0  0  0  0
  189.3410  177.1500  146.3000 C   0  0  0  0  0  0  0  0  0  0  0  0
  187.6860  177.1140  143.1950 C   0  0  0  0  0  3  0  0  0  0  0  0
  190.3060  176.6830  145.4820 C   0  0  0  0  0  0  0  0  0  0  0  0
  189.8710  176.5700  144.2090 N   0  0  0  0  0  0  0  0  0  0  0  0
  193.2920  175.5780  148.3730 O   0  0  0  0  0  0  0  0  0  0  0  0
  192.8110  177.6040  149.3250 O   0  0  0  0  0  1  0  0  0  0  0  0
  192.5610  176.6040  148.3940 C   0  0  0  0  0  0  0  0  0  0  0  0
  190.6390  176.1690  143.0390 C   0  0  0  0  0  2  0  0  0  0  0  0
  191.6190  177.2670  142.6620 C   0  0  0  0  0  2  0  0  0  0  0  0
  190.4290  176.7830  140.5280 C   0  0  0  0  0  1  0  0  0  0  0  0
  191.6110  177.4920  141.1620 C   0  0  0  0  0  2  0  0  0  0  0  0
  185.4350  177.7480  142.4610 O   0  0  0  0  0  0  0  0  0  0  0  0
  184.7940  178.9900  142.1510 C   0  0  2  0  0  3  0  0  0  0  0  0
  182.6600  178.8640  143.5220 C   0  0  0  0  0  1  0  0  0  0  0  0
  183.2630  178.8930  142.1280 C   0  0  0  0  0  2  0  0  0  0  0  0
  185.3280  179.6150  141.0020 O   0  0  0  0  0  0  0  0  0  0  0  0
  184.6300  179.1710  139.8680 C   0  0  0  0  0  2  0  0  0  0  0  0
  184.2530  180.2680  139.0960 O   0  0  0  0  0  1  0  0  0  0  0  0
  1  2  1  0  0  0  0
  1 15  1  0  0  0  0
  3  6  1  0  0  0  0
  3  9  1  0  0  0  0
  4  3  2  0  0  0  0
  5  1  2  0  0  0  0
  7  6  2  0  0  0  0
  8  7  1  0  0  0  0
  9  2  1  0  0  0  0
 10  8  2  0  0  0  0
 10  4  1  0  0  0  0
 11  5  1  0  0  0  0
 11  9  2  0  0  0  0
 12  4  1  0  0  0  0
 12 11  1  0  0  0  0
 13 15  2  0  0  0  0
 15 14  1  0  0  0  0
 16 12  1  0  0  0  0
 17 16  1  0  0  0  0
 18 19  1  0  0  0  0
 19 17  1  0  0  0  0
 20  8  1  0  0  0  0
 21 23  1  6  0  0  0
 21 20  1  0  0  0  0
 23 22  1  0  0  0  0
 24 21  1  0  0  0  0
 25 24  1  0  0  0  0
 26 25  1  0  0  0  0
M  END
>  <MODEL>
1

>  <REMARK>
 VINA RESULT:      -7.5      0.000      0.000
  Name = 
  9 active torsions:
  status: ('A' for Active; 'I' for Inactive)
    1  A    between atoms: C_1  and  O_11
    2  A    between atoms: C_3  and  C_20
    3  A    between atoms: C_9  and  C_23
    4  A    between atoms: C_9  and  N_24
    5  A    between atoms: O_11  and  C_21
    6  A    between atoms: C_12  and  C_23
    7  A    between atoms: C_16  and  O_26
    8  A    between atoms: C_21  and  C_25
    9  A    between atoms: C_21  and  O_26
                            x       y       z     vdW  Elec       q    Type
                         _______ _______ _______ _____ _____    ______ ____

>  <TORSDO>
F 9

$$$$
=
 OpenBabel10232410023D

 26 28  0  0  1  0  0  0  0  0999 V2000
  190.3240  176.9000  146.7470 C   0  0  0  0  0  0  0  0  0  0  0  0
  188.9960  177.5300  147.6330 S   0  0  0  0  0  0  0  0  0  0  0  0
  186.7890  177.9870  145.8660 C   0  0  0  0  0  0  0  0  0  0  0  0
  186.7640  177.7530  144.4990 C   0  0  0  0  0  0  0  0  0  0  0  0
  190.0150  176.7510  145.3820 C   0  0  0  0  0  3  0  0  0  0  0  0
  185.7100  178.5310  146.5530 C   0  0  0  0  0  3  0  0  0  0  0  0
  184.5630  178.8400  145.8000 C   0  0  0  0  0  3  0  0  0  0  0  0
  184.5160  178.6110  144.4040 C   0  0  0  0  0  0  0  0  0  0  0  0
  188.0400  177.5980  146.2660 C   0  0  0  0  0  0  0  0  0  0  0  0
  185.6350  178.0580  143.7400 C   0  0  0  0  0  3  0  0  0  0  0  0
  188.7030  177.1620  145.1750 C   0  0  0  0  0  0  0  0  0  0  0  0
  187.9410  177.2360  144.0640 N   0  0  0  0  0  0  0  0  0  0  0  0
  192.0700  177.2390  148.3100 O   0  0  0  0  0  1  0  0  0  0  0  0
  192.3680  175.5060  146.8430 O   0  0  0  0  0  0  0  0  0  0  0  0
  191.6230  176.5670  147.3430 C   0  0  0  0  0  0  0  0  0  0  0  0
  188.3290  176.9230  142.6960 C   0  0  0  0  0  2  0  0  0  0  0  0
  188.8280  178.1790  142.0000 C   0  0  0  0  0  2  0  0  0  0  0  0
  188.7440  178.1610  139.5100 C   0  0  0  0  0  1  0  0  0  0  0  0
  187.9790  178.4810  140.7810 C   0  0  0  0  0  2  0  0  0  0  0  0
  183.3490  178.9400  143.7100 O   0  0  0  0  0  0  0  0  0  0  0  0
  183.1220  178.5870  142.3410 C   0  0  2  0  0  3  0  0  0  0  0  0
  184.1060  178.4780  140.0030 C   0  0  0  0  0  1  0  0  0  0  0  0
  184.2340  179.0650  141.3980 C   0  0  0  0  0  2  0  0  0  0  0  0
  181.8270  178.9290  141.8910 O   0  0  0  0  0  0  0  0  0  0  0  0
  181.0120  179.2090  142.9990 C   0  0  0  0  0  2  0  0  0  0  0  0
  180.3510  180.4180  142.7950 O   0  0  0  0  0  1  0  0  0  0  0  0
  1 15  1  0  0  0  0
  1  2  1  0  0  0  0
  3  9  1  0  0  0  0
  3  6  1  0  0  0  0
  4  3  2  0  0  0  0
  5  1  2  0  0  0  0
  7  6  2  0  0  0  0
  8  7  1  0  0  0  0
  9  2  1  0  0  0  0
 10  8  2  0  0  0  0
 10  4  1  0  0  0  0
 11  5  1  0  0  0  0
 11  9  2  0  0  0  0
 12  4  1  0  0  0  0
 12 11  1  0  0  0  0
 14 15  2  0  0  0  0
 15 13  1  0  0  0  0
 16 12  1  0  0  0  0
 17 16  1  0  0  0  0
 18 19  1  0  0  0  0
 19 17  1  0  0  0  0
 20  8  1  0  0  0  0
 21 23  1  6  0  0  0
 21 20  1  0  0  0  0
 22 23  1  0  0  0  0
 24 21  1  0  0  0  0
 24 25  1  0  0  0  0
 26 25  1  0  0  0  0
M  END
>  <MODEL>
2

>  <REMARK>
 VINA RESULT:      -7.5      1.920      2.647
  Name = 
  9 active torsions:
  status: ('A' for Active; 'I' for Inactive)
    1  A    between atoms: C_1  and  O_11
    2  A    between atoms: C_3  and  C_20
    3  A    between atoms: C_9  and  C_23
    4  A    between atoms: C_9  and  N_24
    5  A    between atoms: O_11  and  C_21
    6  A    between atoms: C_12  and  C_23
    7  A    between atoms: C_16  and  O_26
    8  A    between atoms: C_21  and  C_25
    9  A    between atoms: C_21  and  O_26
                            x       y       z     vdW  Elec       q    Type
                         _______ _______ _______ _____ _____    ______ ____

>  <TORSDO>
F 9

$$$$
=
 OpenBabel10232410023D

 26 28  0  0  1  0  0  0  0  0999 V2000
  183.3300  178.7460  143.1410 C   0  0  0  0  0  0  0  0  0  0  0  0
  183.6080  178.8380  144.8310 S   0  0  0  0  0  0  0  0  0  0  0  0
  186.3310  178.1580  145.4000 C   0  0  0  0  0  0  0  0  0  0  0  0
  187.3020  177.7990  144.4770 C   0  0  0  0  0  0  0  0  0  0  0  0
  184.4930  178.3730  142.4420 C   0  0  0  0  0  3  0  0  0  0  0  0
  186.5730  178.1900  146.7680 C   0  0  0  0  0  3  0  0  0  0  0  0
  187.8680  177.8430  147.1960 C   0  0  0  0  0  3  0  0  0  0  0  0
  188.8720  177.4720  146.2710 C   0  0  0  0  0  0  0  0  0  0  0  0
  185.2100  178.4070  144.6520 C   0  0  0  0  0  0  0  0  0  0  0  0
  188.5870  177.4480  144.8870 C   0  0  0  0  0  3  0  0  0  0  0  0
  185.5250  178.1980  143.3570 C   0  0  0  0  0  0  0  0  0  0  0  0
  186.8140  177.8280  143.2100 N   0  0  0  0  0  0  0  0  0  0  0  0
  181.8570  178.7580  141.2870 O   0  0  0  0  0  0  0  0  0  0  0  0
  180.9960  179.5660  143.2480 O   0  0  0  0  0  1  0  0  0  0  0  0
  182.0350  179.0180  142.5070 C   0  0  0  0  0  0  0  0  0  0  0  0
  187.4970  177.4510  141.9800 C   0  0  0  0  0  2  0  0  0  0  0  0
  188.0980  178.6830  141.3240 C   0  0  0  0  0  2  0  0  0  0  0  0
  189.8010  177.2430  140.2130 C   0  0  0  0  0  1  0  0  0  0  0  0
  188.7470  178.3150  140.0040 C   0  0  0  0  0  2  0  0  0  0  0  0
  190.1390  177.1350  146.7580 O   0  0  0  0  0  0  0  0  0  0  0  0
  191.2130  176.6990  145.9170 C   0  0  2  0  0  3  0  0  0  0  0  0
  192.4520  175.8530  147.9650 C   0  0  0  0  0  1  0  0  0  0  0  0
  192.0420  175.5640  146.5310 C   0  0  0  0  0  2  0  0  0  0  0  0
  192.0040  177.7660  145.4360 O   0  0  0  0  0  0  0  0  0  0  0  0
  191.7140  177.9810  144.0790 C   0  0  0  0  0  2  0  0  0  0  0  0
  191.7970  176.7730  143.3900 O   0  0  0  0  0  1  0  0  0  0  0  0
  1  2  1  0  0  0  0
  3  6  1  0  0  0  0
  4 10  1  0  0  0  0
  4  3  2  0  0  0  0
  5  1  2  0  0  0  0
  5 11  1  0  0  0  0
  6  7  2  0  0  0  0
  8 20  1  0  0  0  0
  8  7  1  0  0  0  0
  9  2  1  0  0  0  0
  9  3  1  0  0  0  0
 10  8  2  0  0  0  0
 11  9  2  0  0  0  0
 12 11  1  0  0  0  0
 12  4  1  0  0  0  0
 13 15  2  0  0  0  0
 15  1  1  0  0  0  0
 15 14  1  0  0  0  0
 16 12  1  0  0  0  0
 17 16  1  0  0  0  0
 19 18  1  0  0  0  0
 19 17  1  0  0  0  0
 21 23  1  1  0  0  0
 21 20  1  0  0  0  0
 23 22  1  0  0  0  0
 24 21  1  0  0  0  0
 25 24  1  0  0  0  0
 26 25  1  0  0  0  0
M  END
>  <MODEL>
3

>  <REMARK>
 VINA RESULT:      -7.4      2.682      7.402
  Name = 
  9 active torsions:
  status: ('A' for Active; 'I' for Inactive)
    1  A    between atoms: C_1  and  O_11
    2  A    between atoms: C_3  and  C_20
    3  A    between atoms: C_9  and  C_23
    4  A    between atoms: C_9  and  N_24
    5  A    between atoms: O_11  and  C_21
    6  A    between atoms: C_12  and  C_23
    7  A    between atoms: C_16  and  O_26
    8  A    between atoms: C_21  and  C_25
    9  A    between atoms: C_21  and  O_26
                            x       y       z     vdW  Elec       q    Type
                         _______ _______ _______ _____ _____    ______ ____

>  <TORSDO>
F 9

$$$$
=
 OpenBabel10232410023D

 26 28  0  0  1  0  0  0  0  0999 V2000
  190.3490  176.8640  146.7760 C   0  0  0  0  0  0  0  0  0  0  0  0
  188.9660  177.5350  147.5390 S   0  0  0  0  0  0  0  0  0  0  0  0
  186.8990  177.9440  145.5990 C   0  0  0  0  0  0  0  0  0  0  0  0
  186.9720  177.6610  144.2430 C   0  0  0  0  0  0  0  0  0  0  0  0
  190.1400  176.6680  145.3990 C   0  0  0  0  0  3  0  0  0  0  0  0
  185.7790  178.5210  146.1840 C   0  0  0  0  0  3  0  0  0  0  0  0
  184.6930  178.8110  145.3380 C   0  0  0  0  0  3  0  0  0  0  0  0
  184.7470  178.5310  143.9520 C   0  0  0  0  0  0  0  0  0  0  0  0
  188.1140  177.5610  146.1040 C   0  0  0  0  0  0  0  0  0  0  0  0
  185.9050  177.9470  143.3920 C   0  0  0  0  0  3  0  0  0  0  0  0
  188.8510  177.0810  145.0810 C   0  0  0  0  0  0  0  0  0  0  0  0
  188.1730  177.1200  143.9150 N   0  0  0  0  0  0  0  0  0  0  0  0
  192.0200  177.2930  148.3970 O   0  0  0  0  0  1  0  0  0  0  0  0
  192.3190  175.4080  147.1320 O   0  0  0  0  0  0  0  0  0  0  0  0
  191.5970  176.5430  147.4780 C   0  0  0  0  0  0  0  0  0  0  0  0
  188.6580  176.7550  142.5910 C   0  0  0  0  0  2  0  0  0  0  0  0
  189.4770  177.8950  142.0080 C   0  0  0  0  0  2  0  0  0  0  0  0
  188.5580  178.1580  139.7070 C   0  0  0  0  0  1  0  0  0  0  0  0
  189.7310  177.6610  140.5310 C   0  0  0  0  0  2  0  0  0  0  0  0
  183.6370  178.8440  143.1610 O   0  0  0  0  0  0  0  0  0  0  0  0
  183.6850  178.9190  141.7330 C   0  0  2  0  0  3  0  0  0  0  0  0
  181.8610  177.6630  140.4930 C   0  0  0  0  0  1  0  0  0  0  0  0
  183.2760  177.6130  141.0410 C   0  0  0  0  0  2  0  0  0  0  0  0
  184.9050  179.4450  141.2500 O   0  0  0  0  0  0  0  0  0  0  0  0
  185.0180  179.1670  139.8790 C   0  0  0  0  0  2  0  0  0  0  0  0
  184.4790  180.2210  139.1450 O   0  0  0  0  0  1  0  0  0  0  0  0
  1 15  1  0  0  0  0
  1  2  1  0  0  0  0
  3  9  1  0  0  0  0
  3  6  1  0  0  0  0
  4  3  2  0  0  0  0
  5  1  2  0  0  0  0
  7  6  2  0  0  0  0
  8  7  1  0  0  0  0
  9  2  1  0  0  0  0
 10  8  2  0  0  0  0
 10  4  1  0  0  0  0
 11  5  1  0  0  0  0
 11  9  2  0  0  0  0
 12  4  1  0  0  0  0
 12 11  1  0  0  0  0
 14 15  2  0  0  0  0
 15 13  1  0  0  0  0
 16 12  1  0  0  0  0
 17 16  1  0  0  0  0
 18 19  1  0  0  0  0
 19 17  1  0  0  0  0
 20  8  1  0  0  0  0
 21 23  1  6  0  0  0
 21 20  1  0  0  0  0
 22 23  1  0  0  0  0
 24 21  1  0  0  0  0
 25 24  1  0  0  0  0
 26 25  1  0  0  0  0
M  END
>  <MODEL>
4

>  <REMARK>
 VINA RESULT:      -7.4      1.351      1.831
  Name = 
  9 active torsions:
  status: ('A' for Active; 'I' for Inactive)
    1  A    between atoms: C_1  and  O_11
    2  A    between atoms: C_3  and  C_20
    3  A    between atoms: C_9  and  C_23
    4  A    between atoms: C_9  and  N_24
    5  A    between atoms: O_11  and  C_21
    6  A    between atoms: C_12  and  C_23
    7  A    between atoms: C_16  and  O_26
    8  A    between atoms: C_21  and  C_25
    9  A    between atoms: C_21  and  O_26
                            x       y       z     vdW  Elec       q    Type
                         _______ _______ _______ _____ _____    ______ ____

>  <TORSDO>
F 9

$$$$
=
 OpenBabel10232410023D

 26 28  0  0  1  0  0  0  0  0999 V2000
  190.8410  176.7770  145.8590 C   0  0  0  0  0  0  0  0  0  0  0  0
  191.3180  177.1660  144.2580 S   0  0  0  0  0  0  0  0  0  0  0  0
  189.0080  177.8230  142.6960 C   0  0  0  0  0  0  0  0  0  0  0  0
  187.6920  177.8300  143.1330 C   0  0  0  0  0  0  0  0  0  0  0  0
  189.4470  176.8810  146.0270 C   0  0  0  0  0  3  0  0  0  0  0  0
  189.3640  178.1070  141.3840 C   0  0  0  0  0  3  0  0  0  0  0  0
  188.3200  178.4150  140.4910 C   0  0  0  0  0  3  0  0  0  0  0  0
  186.9710  178.4270  140.9150 C   0  0  0  0  0  0  0  0  0  0  0  0
  189.7420  177.4690  143.7980 C   0  0  0  0  0  0  0  0  0  0  0  0
  186.6480  178.1300  142.2590 C   0  0  0  0  0  3  0  0  0  0  0  0
  188.8820  177.2800  144.8210 C   0  0  0  0  0  0  0  0  0  0  0  0
  187.6050  177.5030  144.4480 N   0  0  0  0  0  0  0  0  0  0  0  0
  192.5100  175.3680  146.7710 O   0  0  0  0  0  0  0  0  0  0  0  0
  191.8520  177.1170  148.0930 O   0  0  0  0  0  1  0  0  0  0  0  0
  191.7740  176.3790  146.9190 C   0  0  0  0  0  0  0  0  0  0  0  0
  186.4010  177.3340  145.2500 C   0  0  0  0  0  2  0  0  0  0  0  0
  186.2150  178.5350  146.1620 C   0  0  0  0  0  2  0  0  0  0  0  0
  184.0890  179.1540  145.0210 C   0  0  0  0  0  1  0  0  0  0  0  0
  184.7400  178.8310  146.3530 C   0  0  0  0  0  2  0  0  0  0  0  0
  185.9780  178.7390  139.9820 O   0  0  0  0  0  0  0  0  0  0  0  0
  184.6650  179.1780  140.3470 C   0  0  2  0  0  3  0  0  0  0  0  0
  182.8060  178.2540  141.8090 C   0  0  0  0  0  1  0  0  0  0  0  0
  183.6850  178.0230  140.5910 C   0  0  0  0  0  2  0  0  0  0  0  0
  184.1530  180.1670  139.4780 O   0  0  0  0  0  0  0  0  0  0  0  0
  183.0810  179.6300  138.7480 C   0  0  0  0  0  2  0  0  0  0  0  0
  182.1850  180.6460  138.4230 O   0  0  0  0  0  1  0  0  0  0  0  0
  1  5  2  0  0  0  0
  1 15  1  0  0  0  0
  2  1  1  0  0  0  0
  3  4  1  0  0  0  0
  3  9  1  0  0  0  0
  4 12  1  0  0  0  0
  6  3  2  0  0  0  0
  7  8  2  0  0  0  0
  7  6  1  0  0  0  0
  8 10  1  0  0  0  0
  9  2  1  0  0  0  0
  9 11  2  0  0  0  0
 10  4  2  0  0  0  0
 11  5  1  0  0  0  0
 12 11  1  0  0  0  0
 12 16  1  0  0  0  0
 13 15  2  0  0  0  0
 15 14  1  0  0  0  0
 16 17  1  0  0  0  0
 17 19  1  0  0  0  0
 18 19  1  0  0  0  0
 20 21  1  0  0  0  0
 20  8  1  0  0  0  0
 21 23  1  6  0  0  0
 23 22  1  0  0  0  0
 24 21  1  0  0  0  0
 25 24  1  0  0  0  0
 26 25  1  0  0  0  0
M  END
>  <MODEL>
5

>  <REMARK>
 VINA RESULT:      -7.2      1.737      3.710
  Name = 
  9 active torsions:
  status: ('A' for Active; 'I' for Inactive)
    1  A    between atoms: C_1  and  O_11
    2  A    between atoms: C_3  and  C_20
    3  A    between atoms: C_9  and  C_23
    4  A    between atoms: C_9  and  N_24
    5  A    between atoms: O_11  and  C_21
    6  A    between atoms: C_12  and  C_23
    7  A    between atoms: C_16  and  O_26
    8  A    between atoms: C_21  and  C_25
    9  A    between atoms: C_21  and  O_26
                            x       y       z     vdW  Elec       q    Type
                         _______ _______ _______ _____ _____    ______ ____

>  <TORSDO>
F 9

$$$$
=
 OpenBabel10232410023D

 26 28  0  0  1  0  0  0  0  0999 V2000
  187.9020  177.9400  147.0140 C   0  0  0  0  0  0  0  0  0  0  0  0
  186.2610  178.4420  147.0320 S   0  0  0  0  0  0  0  0  0  0  0  0
  185.2000  178.3630  144.3730 C   0  0  0  0  0  0  0  0  0  0  0  0
  185.8800  177.9880  143.2240 C   0  0  0  0  0  0  0  0  0  0  0  0
  188.3290  177.6050  145.7160 C   0  0  0  0  0  3  0  0  0  0  0  0
  183.8810  178.7990  144.3540 C   0  0  0  0  0  3  0  0  0  0  0  0
  183.2400  178.8450  143.1010 C   0  0  0  0  0  3  0  0  0  0  0  0
  183.9160  178.4690  141.9170 C   0  0  0  0  0  0  0  0  0  0  0  0
  186.1120  178.2180  145.3840 C   0  0  0  0  0  0  0  0  0  0  0  0
  185.2600  178.0330  141.9760 C   0  0  0  0  0  3  0  0  0  0  0  0
  187.2660  177.7810  144.8380 C   0  0  0  0  0  0  0  0  0  0  0  0
  187.1570  177.6200  143.5020 N   0  0  0  0  0  0  0  0  0  0  0  0
  188.2540  178.0410  149.3530 O   0  0  0  0  0  1  0  0  0  0  0  0
  190.1150  177.6380  148.0820 O   0  0  0  0  0  0  0  0  0  0  0  0
  188.7520  177.8780  148.2080 C   0  0  0  0  0  0  0  0  0  0  0  0
  188.2010  177.2330  142.5640 C   0  0  0  0  0  2  0  0  0  0  0  0
  189.1540  178.3960  142.3430 C   0  0  0  0  0  2  0  0  0  0  0  0
  191.0570  179.1170  143.7810 C   0  0  0  0  0  1  0  0  0  0  0  0
  190.5430  178.0430  142.8400 C   0  0  0  0  0  2  0  0  0  0  0  0
  183.2280  178.5380  140.7020 O   0  0  0  0  0  0  0  0  0  0  0  0
  183.3110  179.6580  139.8140 C   0  0  2  0  0  3  0  0  0  0  0  0
  181.6490  181.0630  138.5080 C   0  0  0  0  0  1  0  0  0  0  0  0
  182.2080  179.6710  138.7480 C   0  0  0  0  0  2  0  0  0  0  0  0
  184.6050  179.8400  139.2770 O   0  0  0  0  0  0  0  0  0  0  0  0
  184.9070  178.7650  138.4250 C   0  0  0  0  0  2  0  0  0  0  0  0
  186.2880  178.6030  138.3520 O   0  0  0  0  0  1  0  0  0  0  0  0
  1  2  1  0  0  0  0
  1 15  1  0  0  0  0
  3  9  1  0  0  0  0
  4 12  1  0  0  0  0
  4  3  2  0  0  0  0
  5  1  2  0  0  0  0
  6  3  1  0  0  0  0
  7  6  2  0  0  0  0
  8 10  2  0  0  0  0
  8  7  1  0  0  0  0
  9  2  1  0  0  0  0
 10  4  1  0  0  0  0
 11  9  2  0  0  0  0
 11  5  1  0  0  0  0
 12 11  1  0  0  0  0
 14 15  2  0  0  0  0
 15 13  1  0  0  0  0
 16 12  1  0  0  0  0
 17 16  1  0  0  0  0
 17 19  1  0  0  0  0
 19 18  1  0  0  0  0
 20  8  1  0  0  0  0
 21 23  1  6  0  0  0
 21 20  1  0  0  0  0
 22 23  1  0  0  0  0
 24 21  1  0  0  0  0
 25 24  1  0  0  0  0
 26 25  1  0  0  0  0
M  END
>  <MODEL>
6

>  <REMARK>
 VINA RESULT:      -7.2      2.231      3.413
  Name = 
  9 active torsions:
  status: ('A' for Active; 'I' for Inactive)
    1  A    between atoms: C_1  and  O_11
    2  A    between atoms: C_3  and  C_20
    3  A    between atoms: C_9  and  C_23
    4  A    between atoms: C_9  and  N_24
    5  A    between atoms: O_11  and  C_21
    6  A    between atoms: C_12  and  C_23
    7  A    between atoms: C_16  and  O_26
    8  A    between atoms: C_21  and  C_25
    9  A    between atoms: C_21  and  O_26
                            x       y       z     vdW  Elec       q    Type
                         _______ _______ _______ _____ _____    ______ ____

>  <TORSDO>
F 9

$$$$
=
 OpenBabel10232410023D

 26 28  0  0  1  0  0  0  0  0999 V2000
  185.0890  178.6300  143.5360 C   0  0  0  0  0  0  0  0  0  0  0  0
  185.4100  179.0140  141.8950 S   0  0  0  0  0  0  0  0  0  0  0  0
  188.0160  178.0680  141.1760 C   0  0  0  0  0  0  0  0  0  0  0  0
  188.9100  177.4040  142.0030 C   0  0  0  0  0  0  0  0  0  0  0  0
  186.1640  177.9430  144.1300 C   0  0  0  0  0  3  0  0  0  0  0  0
  188.3170  178.3970  139.8600 C   0  0  0  0  0  3  0  0  0  0  0  0
  189.5850  178.0230  139.3810 C   0  0  0  0  0  3  0  0  0  0  0  0
  190.5130  177.3460  140.2080 C   0  0  0  0  0  0  0  0  0  0  0  0
  186.9140  178.2920  141.9590 C   0  0  0  0  0  0  0  0  0  0  0  0
  190.1720  177.0300  141.5430 C   0  0  0  0  0  3  0  0  0  0  0  0
  187.1670  177.7810  143.1810 C   0  0  0  0  0  0  0  0  0  0  0  0
  188.3910  177.2150  143.2430 N   0  0  0  0  0  0  0  0  0  0  0  0
  183.8390  179.1300  145.4840 O   0  0  0  0  0  1  0  0  0  0  0  0
  182.6700  179.1590  143.5150 O   0  0  0  0  0  0  0  0  0  0  0  0
  183.8470  178.9840  144.2320 C   0  0  0  0  0  0  0  0  0  0  0  0
  189.0410  176.6250  144.4050 C   0  0  0  0  0  2  0  0  0  0  0  0
  189.8060  177.6940  145.1680 C   0  0  0  0  0  2  0  0  0  0  0  0
  191.6760  176.4930  146.2930 C   0  0  0  0  0  1  0  0  0  0  0  0
  191.2940  177.4010  145.1390 C   0  0  0  0  0  2  0  0  0  0  0  0
  191.7590  177.0020  139.6750 O   0  0  0  0  0  0  0  0  0  0  0  0
  191.9460  176.5890  138.3170 C   0  0  2  0  0  3  0  0  0  0  0  0
  190.2180  175.2460  137.0300 C   0  0  0  0  0  1  0  0  0  0  0  0
  191.3690  175.1990  138.0210 C   0  0  0  0  0  2  0  0  0  0  0  0
  193.2780  176.7430  137.8730 O   0  0  0  0  0  0  0  0  0  0  0  0
  193.8800  175.4790  137.7700 C   0  0  0  0  0  2  0  0  0  0  0  0
  195.0360  175.5770  136.9990 O   0  0  0  0  0  1  0  0  0  0  0  0
  1  5  2  0  0  0  0
  1 15  1  0  0  0  0
  2  9  1  0  0  0  0
  2  1  1  0  0  0  0
  3  9  1  0  0  0  0
  3  4  1  0  0  0  0
  4 12  1  0  0  0  0
  6  3  2  0  0  0  0
  7  6  1  0  0  0  0
  7  8  2  0  0  0  0
  8 10  1  0  0  0  0
  9 11  2  0  0  0  0
 10  4  2  0  0  0  0
 11 12  1  0  0  0  0
 11  5  1  0  0  0  0
 12 16  1  0  0  0  0
 14 15  2  0  0  0  0
 15 13  1  0  0  0  0
 16 17  1  0  0  0  0
 19 17  1  0  0  0  0
 19 18  1  0  0  0  0
 20  8  1  0  0  0  0
 21 23  1  1  0  0  0
 21 20  1  0  0  0  0
 22 23  1  0  0  0  0
 24 21  1  0  0  0  0
 25 24  1  0  0  0  0
 26 25  1  0  0  0  0
M  END
>  <MODEL>
7

>  <REMARK>
 VINA RESULT:      -7.1      4.054      7.363
  Name = 
  9 active torsions:
  status: ('A' for Active; 'I' for Inactive)
    1  A    between atoms: C_1  and  O_11
    2  A    between atoms: C_3  and  C_20
    3  A    between atoms: C_9  and  C_23
    4  A    between atoms: C_9  and  N_24
    5  A    between atoms: O_11  and  C_21
    6  A    between atoms: C_12  and  C_23
    7  A    between atoms: C_16  and  O_26
    8  A    between atoms: C_21  and  C_25
    9  A    between atoms: C_21  and  O_26
                            x       y       z     vdW  Elec       q    Type
                         _______ _______ _______ _____ _____    ______ ____

>  <TORSDO>
F 9

$$$$
=
 OpenBabel10232410023D

 26 28  0  0  1  0  0  0  0  0999 V2000
  185.1300  178.4570  143.7530 C   0  0  0  0  0  0  0  0  0  0  0  0
  185.3030  178.9080  142.1070 S   0  0  0  0  0  0  0  0  0  0  0  0
  187.8650  178.0700  141.1420 C   0  0  0  0  0  0  0  0  0  0  0  0
  188.8430  177.4040  141.8660 C   0  0  0  0  0  0  0  0  0  0  0  0
  186.2690  177.7820  144.2300 C   0  0  0  0  0  3  0  0  0  0  0  0
  188.0460  178.4550  139.8190 C   0  0  0  0  0  3  0  0  0  0  0  0
  189.2800  178.1370  139.2230 C   0  0  0  0  0  3  0  0  0  0  0  0
  190.2910  177.4600  139.9440 C   0  0  0  0  0  0  0  0  0  0  0  0
  186.8260  178.2310  142.0200 C   0  0  0  0  0  0  0  0  0  0  0  0
  190.0720  177.0860  141.2900 C   0  0  0  0  0  3  0  0  0  0  0  0
  187.1940  177.6840  143.1970 C   0  0  0  0  0  0  0  0  0  0  0  0
  188.4340  177.1550  143.1370 N   0  0  0  0  0  0  0  0  0  0  0  0
  182.8270  178.9420  144.0080 O   0  0  0  0  0  0  0  0  0  0  0  0
  184.0370  178.8080  145.9470 O   0  0  0  0  0  1  0  0  0  0  0  0
  183.9410  178.7470  144.5620 C   0  0  0  0  0  0  0  0  0  0  0  0
  189.1940  176.5440  144.2180 C   0  0  0  0  0  2  0  0  0  0  0  0
  189.7040  177.6190  145.1630 C   0  0  0  0  0  2  0  0  0  0  0  0
  188.6190  177.7130  147.4030 C   0  0  0  0  0  1  0  0  0  0  0  0
  189.7400  177.0980  146.5870 C   0  0  0  0  0  2  0  0  0  0  0  0
  191.4980  177.1740  139.2980 O   0  0  0  0  0  0  0  0  0  0  0  0
  191.6820  176.0390  138.4460 C   0  0  2  0  0  3  0  0  0  0  0  0
  193.4780  176.2030  136.6580 C   0  0  0  0  0  1  0  0  0  0  0  0
  192.0120  176.4150  136.9960 C   0  0  0  0  0  2  0  0  0  0  0  0
  190.6350  175.0950  138.5500 O   0  0  0  0  0  0  0  0  0  0  0  0
  190.2780  174.6580  137.2650 C   0  0  0  0  0  2  0  0  0  0  0  0
  189.7450  173.3730  137.3430 O   0  0  0  0  0  1  0  0  0  0  0  0
  1  5  2  0  0  0  0
  1 15  1  0  0  0  0
  2  1  1  0  0  0  0
  3  4  1  0  0  0  0
  3  9  1  0  0  0  0
  4 12  1  0  0  0  0
  6  3  2  0  0  0  0
  7  6  1  0  0  0  0
  7  8  2  0  0  0  0
  8 10  1  0  0  0  0
  9  2  1  0  0  0  0
  9 11  2  0  0  0  0
 10  4  2  0  0  0  0
 11  5  1  0  0  0  0
 12 11  1  0  0  0  0
 12 16  1  0  0  0  0
 13 15  2  0  0  0  0
 15 14  1  0  0  0  0
 16 17  1  0  0  0  0
 17 19  1  0  0  0  0
 19 18  1  0  0  0  0
 20  8  1  0  0  0  0
 21 23  1  6  0  0  0
 21 24  1  0  0  0  0
 21 20  1  0  0  0  0
 22 23  1  0  0  0  0
 25 26  1  0  0  0  0
 25 24  1  0  0  0  0
M  END
>  <MODEL>
8

>  <REMARK>
 VINA RESULT:      -7.0      3.694      7.198
  Name = 
  9 active torsions:
  status: ('A' for Active; 'I' for Inactive)
    1  A    between atoms: C_1  and  O_11
    2  A    between atoms: C_3  and  C_20
    3  A    between atoms: C_9  and  C_23
    4  A    between atoms: C_9  and  N_24
    5  A    between atoms: O_11  and  C_21
    6  A    between atoms: C_12  and  C_23
    7  A    between atoms: C_16  and  O_26
    8  A    between atoms: C_21  and  C_25
    9  A    between atoms: C_21  and  O_26
                            x       y       z     vdW  Elec       q    Type
                         _______ _______ _______ _____ _____    ______ ____

>  <TORSDO>
F 9

$$$$
=
 OpenBabel10232410023D

 26 28  0  0  1  0  0  0  0  0999 V2000
  189.3740  177.0660  138.1000 C   0  0  0  0  0  0  0  0  0  0  0  0
  190.7350  176.5590  139.0130 S   0  0  0  0  0  0  0  0  0  0  0  0
  190.3190  177.1620  141.7810 C   0  0  0  0  0  0  0  0  0  0  0  0
  189.2040  177.7740  142.3340 C   0  0  0  0  0  0  0  0  0  0  0  0
  188.3840  177.6410  138.9180 C   0  0  0  0  0  3  0  0  0  0  0  0
  191.4240  176.7930  142.5390 C   0  0  0  0  0  3  0  0  0  0  0  0
  191.3720  177.0630  143.9190 C   0  0  0  0  0  3  0  0  0  0  0  0
  190.2450  177.6880  144.5030 C   0  0  0  0  0  0  0  0  0  0  0  0
  190.0440  177.0730  140.4420 C   0  0  0  0  0  0  0  0  0  0  0  0
  189.1410  178.0510  143.6990 C   0  0  0  0  0  3  0  0  0  0  0  0
  188.8250  177.6130  140.2370 C   0  0  0  0  0  0  0  0  0  0  0  0
  188.2710  178.0500  141.3870 N   0  0  0  0  0  0  0  0  0  0  0  0
  188.3330  177.4950  136.0180 O   0  0  0  0  0  1  0  0  0  0  0  0
  190.1830  176.1480  135.9480 O   0  0  0  0  0  0  0  0  0  0  0  0
  189.2620  176.9210  136.6440 C   0  0  0  0  0  0  0  0  0  0  0  0
  187.0040  178.7480  141.5570 C   0  0  0  0  0  2  0  0  0  0  0  0
  186.1040  177.9620  142.4960 C   0  0  0  0  0  2  0  0  0  0  0  0
  185.2690  178.4300  144.7960 C   0  0  0  0  0  1  0  0  0  0  0  0
  185.2850  178.9060  143.3550 C   0  0  0  0  0  2  0  0  0  0  0  0
  190.2530  177.9330  145.8790 O   0  0  0  0  0  0  0  0  0  0  0  0
  190.0390  176.9120  146.8600 C   0  0  2  0  0  3  0  0  0  0  0  0
  188.5680  178.0320  148.6000 C   0  0  0  0  0  1  0  0  0  0  0  0
  188.6510  176.9760  147.5100 C   0  0  0  0  0  2  0  0  0  0  0  0
  191.0890  176.8230  147.8010 O   0  0  0  0  0  0  0  0  0  0  0  0
  191.9270  175.7500  147.4570 C   0  0  0  0  0  2  0  0  0  0  0  0
  193.0770  175.7880  148.2430 O   0  0  0  0  0  1  0  0  0  0  0  0
  1  5  2  0  0  0  0
  1  2  1  0  0  0  0
  2  9  1  0  0  0  0
  3  4  2  0  0  0  0
  3  6  1  0  0  0  0
  4 10  1  0  0  0  0
  5 11  1  0  0  0  0
  6  7  2  0  0  0  0
  7  8  1  0  0  0  0
  8 20  1  0  0  0  0
  9  3  1  0  0  0  0
 10  8  2  0  0  0  0
 11  9  2  0  0  0  0
 11 12  1  0  0  0  0
 12 16  1  0  0  0  0
 12  4  1  0  0  0  0
 13 15  1  0  0  0  0
 14 15  2  0  0  0  0
 15  1  1  0  0  0  0
 16 17  1  0  0  0  0
 17 19  1  0  0  0  0
 19 18  1  0  0  0  0
 20 21  1  0  0  0  0
 21 23  1  1  0  0  0
 21 24  1  0  0  0  0
 23 22  1  0  0  0  0
 25 24  1  0  0  0  0
 25 26  1  0  0  0  0
M  END
>  <MODEL>
9

>  <REMARK>
 VINA RESULT:      -7.0      3.264      8.051
  Name = 
  9 active torsions:
  status: ('A' for Active; 'I' for Inactive)
    1  A    between atoms: C_1  and  O_11
    2  A    between atoms: C_3  and  C_20
    3  A    between atoms: C_9  and  C_23
    4  A    between atoms: C_9  and  N_24
    5  A    between atoms: O_11  and  C_21
    6  A    between atoms: C_12  and  C_23
    7  A    between atoms: C_16  and  O_26
    8  A    between atoms: C_21  and  C_25
    9  A    between atoms: C_21  and  O_26
                            x       y       z     vdW  Elec       q    Type
                         _______ _______ _______ _____ _____    ______ ____

>  <TORSDO>
F 9

$$$$
