=
 OpenBabel10232407593D

 44 49  0  0  1  0  0  0  0  0999 V2000
  188.5200  177.6830  139.9230 N   0  0  0  0  0  0  0  0  0  0  0  0
  191.2350  176.0890  138.3120 C   0  0  0  0  0  3  0  0  0  0  0  0
  191.8950  177.5220  140.9460 C   0  0  0  0  0  3  0  0  0  0  0  0
  190.6850  177.0290  140.5760 C   0  0  0  0  0  0  0  0  0  0  0  0
  189.3850  176.5640  140.3060 C   0  0  2  0  0  3  0  0  0  0  0  0
  194.1270  177.7040  140.1070 F   0  0  0  0  0  0  0  0  0  0  0  0
  192.8590  177.2680  139.9070 C   0  0  0  0  0  0  0  0  0  0  0  0
  192.5560  176.5720  138.6480 C   0  0  0  0  0  0  0  0  0  0  0  0
  190.3730  176.3500  139.3280 C   0  0  0  0  0  0  0  0  0  0  0  0
  193.6070  176.4200  137.7310 O   0  0  0  0  0  0  0  0  0  0  0  0
  195.5030  173.0530  138.0170 C   0  0  0  0  0  2  0  0  0  0  0  0
  195.5770  175.0390  139.3410 O   0  0  0  0  0  0  0  0  0  0  0  0
  195.1230  174.4780  138.3070 C   0  0  0  0  0  0  0  0  0  0  0  0
  194.6530  173.4650  135.7140 C   0  0  0  0  0  3  0  0  0  0  0  0
  195.3610  172.7090  136.5570 C   0  0  0  0  0  3  0  0  0  0  0  0
  194.0180  174.7190  136.1590 C   0  0  0  0  0  3  0  0  0  0  0  0
  194.2160  175.2060  137.3870 C   0  0  0  0  0  0  0  0  0  0  0  0
  188.5230  178.7160  140.9700 C   0  0  0  0  0  2  0  0  0  0  0  0
  187.6330  178.3740  142.1630 C   0  0  0  0  0  2  0  0  0  0  0  0
  186.1840  178.6330  141.7990 C   0  0  0  0  0  2  0  0  0  0  0  0
  185.0980  178.1140  145.4430 C   0  0  1  0  0  3  0  0  0  0  0  0
  183.9400  179.0210  142.8950 C   0  0  1  0  0  3  0  0  0  0  0  0
  183.8250  178.9570  145.3970 C   0  0  0  0  0  2  0  0  0  0  0  0
  183.0690  178.6850  144.1040 C   0  0  0  0  0  2  0  0  0  0  0  0
  185.9850  178.4620  144.2510 C   0  0  0  0  0  2  0  0  0  0  0  0
  185.2530  178.2170  142.9300 C   0  0  2  0  0  3  0  0  0  0  0  0
  183.2210  178.7360  141.7340 O   0  0  0  0  0  1  0  0  0  0  0  0
  185.8570  178.4010  146.7250 C   0  0  0  0  0  2  0  0  0  0  0  0
  187.2750  178.5380  146.4450 N   0  0  0  0  0  2  0  0  0  0  0  0
  187.9780  177.7700  147.4600 C   0  0  0  0  0  2  0  0  0  0  0  0
  190.3400  177.0070  147.5460 C   0  0  0  0  0  2  0  0  0  0  0  0
  191.4190  177.0550  146.5660 N   0  0  0  0  0  0  0  0  0  0  0  0
  190.7980  177.0360  145.2450 C   0  0  0  0  0  2  0  0  0  0  0  0
  192.1690  175.8190  146.6970 C   0  0  0  0  0  1  0  0  0  0  0  0
  189.3360  177.3660  145.4160 C   0  0  0  0  0  2  0  0  0  0  0  0
  189.0260  176.8910  146.8060 C   0  0  2  0  0  3  0  0  0  0  0  0
  189.0350  178.2620  138.6850 C   0  0  0  0  0  2  0  0  0  0  0  0
  185.2500  177.0720  134.5560 C   0  0  0  0  0  1  0  0  0  0  0  0
  188.4820  178.0620  136.3110 C   0  0  0  0  0  3  0  0  0  0  0  0
  187.5330  177.9250  135.1510 C   0  0  0  0  0  2  0  0  0  0  0  0
  188.0590  178.0560  137.5770 C   0  0  0  0  0  0  0  0  0  0  0  0
  185.7630  177.5760  136.9280 C   0  0  0  0  0  3  0  0  0  0  0  0
  186.2070  177.4630  135.5710 N   0  0  0  0  0  0  0  0  0  0  0  0
  186.6330  177.8620  137.8950 C   0  0  0  0  0  3  0  0  0  0  0  0
  1 18  1  0  0  0  0
  2  8  2  0  0  0  0
  2  9  1  0  0  0  0
  4  3  1  0  0  0  0
  5  1  1  6  0  0  0
  5  4  1  0  0  0  0
  7  6  1  0  0  0  0
  7  3  2  0  0  0  0
  8  7  1  0  0  0  0
  9  5  1  0  0  0  0
  9  4  2  0  0  0  0
 10  8  1  0  0  0  0
 11 13  1  0  0  0  0
 13 12  2  0  0  0  0
 14 16  1  0  0  0  0
 14 15  2  0  0  0  0
 15 11  1  0  0  0  0
 16 17  2  0  0  0  0
 17 10  1  0  0  0  0
 17 13  1  0  0  0  0
 18 19  1  0  0  0  0
 20 19  1  0  0  0  0
 21 28  1  1  0  0  0
 22 27  1  6  0  0  0
 22 26  1  0  0  0  0
 22 24  1  0  0  0  0
 23 21  1  0  0  0  0
 24 23  1  0  0  0  0
 25 21  1  0  0  0  0
 26 20  1  6  0  0  0
 26 25  1  0  0  0  0
 29 28  1  0  0  0  0
 29 30  1  0  0  0  0
 32 34  1  0  0  0  0
 32 31  1  0  0  0  0
 33 35  1  0  0  0  0
 33 32  1  0  0  0  0
 35 36  1  0  0  0  0
 36 30  1  1  0  0  0
 36 31  1  0  0  0  0
 37  1  1  0  0  0  0
 38 43  1  0  0  0  0
 39 41  2  0  0  0  0
 40 43  1  0  0  0  0
 40 39  1  0  0  0  0
 41 44  1  0  0  0  0
 41 37  1  0  0  0  0
 42 44  2  0  0  0  0
 43 42  1  0  0  0  0
M  END
>  <MODEL>
1

>  <REMARK>
 VINA RESULT:      -8.8      0.000      0.000
  Name = 
  13 active torsions:
  status: ('A' for Active; 'I' for Inactive)
    1  A    between atoms: C_6  and  C_9
    2  A    between atoms: O_7  and  C_38
    3  A    between atoms: O_7  and  C_39
    4  A    between atoms: N_8  and  C_9
    5  A    between atoms: N_8  and  C_27
    6  A    between atoms: C_15  and  C_33
    7  A    between atoms: C_16  and  C_30
    8  A    between atoms: C_16  and  N_41
    9  A    between atoms: C_21  and  N_41
   10  A    between atoms: C_24  and  C_30
   11  A    between atoms: C_24  and  C_37
   12  A    between atoms: C_27  and  C_43
   13  A    between atoms: C_33  and  N_41
                            x       y       z     vdW  Elec       q    Type
                         _______ _______ _______ _____ _____    ______ ____

>  <TORSDO>
F 13

$$$$
=
 OpenBabel10232407593D

 44 49  0  0  1  0  0  0  0  0999 V2000
  189.0600  177.2680  138.0910 N   0  0  0  0  0  0  0  0  0  0  0  0
  192.4360  176.2170  138.0550 C   0  0  0  0  0  3  0  0  0  0  0  0
  190.5620  174.7640  136.1050 C   0  0  0  0  0  3  0  0  0  0  0  0
  190.3920  176.0140  136.6080 C   0  0  0  0  0  0  0  0  0  0  0  0
  190.1040  177.3140  137.0640 C   0  0  2  0  0  3  0  0  0  0  0  0
  192.1050  172.9420  136.2230 F   0  0  0  0  0  0  0  0  0  0  0  0
  191.7820  174.1970  136.6180 C   0  0  0  0  0  0  0  0  0  0  0  0
  192.6930  174.8900  137.5430 C   0  0  0  0  0  0  0  0  0  0  0  0
  191.2810  176.7020  137.5320 C   0  0  0  0  0  0  0  0  0  0  0  0
  193.8330  174.1890  137.9620 O   0  0  0  0  0  0  0  0  0  0  0  0
  197.7050  174.2350  137.8150 C   0  0  0  0  0  2  0  0  0  0  0  0
  196.1830  174.1070  139.6510 O   0  0  0  0  0  0  0  0  0  0  0  0
  196.3230  174.2540  138.4060 C   0  0  0  0  0  0  0  0  0  0  0  0
  196.6700  175.2210  135.7760 C   0  0  0  0  0  3  0  0  0  0  0  0
  197.7670  174.9410  136.4850 C   0  0  0  0  0  3  0  0  0  0  0  0
  195.3250  174.9070  136.2920 C   0  0  0  0  0  3  0  0  0  0  0  0
  195.1420  174.4340  137.5280 C   0  0  0  0  0  0  0  0  0  0  0  0
  189.5390  177.8840  139.3380 C   0  0  0  0  0  2  0  0  0  0  0  0
  188.7140  177.4950  140.5630 C   0  0  0  0  0  2  0  0  0  0  0  0
  187.9540  178.7090  141.0630 C   0  0  0  0  0  2  0  0  0  0  0  0
  185.9610  177.7290  144.1920 C   0  0  1  0  0  3  0  0  0  0  0  0
  185.6170  179.3590  141.7680 C   0  0  1  0  0  3  0  0  0  0  0  0
  184.9010  178.8250  144.1090 C   0  0  0  0  0  2  0  0  0  0  0  0
  184.4390  178.9910  142.6680 C   0  0  0  0  0  2  0  0  0  0  0  0
  187.1520  178.1010  143.3130 C   0  0  0  0  0  2  0  0  0  0  0  0
  186.7240  178.2930  141.8580 C   0  0  2  0  0  3  0  0  0  0  0  0
  185.1550  179.4780  140.4560 O   0  0  0  0  0  1  0  0  0  0  0  0
  186.4320  177.5780  145.6260 C   0  0  0  0  0  2  0  0  0  0  0  0
  187.7340  178.1980  145.7910 N   0  0  0  0  0  2  0  0  0  0  0  0
  188.2860  177.6870  147.0360 C   0  0  0  0  0  2  0  0  0  0  0  0
  190.5550  176.9570  147.7340 C   0  0  0  0  0  2  0  0  0  0  0  0
  191.8240  176.8930  147.0180 N   0  0  0  0  0  0  0  0  0  0  0  0
  191.5090  176.7090  145.6050 C   0  0  0  0  0  2  0  0  0  0  0  0
  192.5020  175.6870  147.4590 C   0  0  0  0  0  1  0  0  0  0  0  0
  190.0530  177.0460  145.4070 C   0  0  0  0  0  2  0  0  0  0  0  0
  189.4350  176.7420  146.7410 C   0  0  2  0  0  3  0  0  0  0  0  0
  187.9020  178.0160  137.6070 C   0  0  0  0  0  2  0  0  0  0  0  0
  183.4660  174.5080  136.7080 C   0  0  0  0  0  1  0  0  0  0  0  0
  185.4910  177.6070  137.6040 C   0  0  0  0  0  3  0  0  0  0  0  0
  184.2680  176.7310  137.5510 C   0  0  0  0  0  2  0  0  0  0  0  0
  186.7240  177.1110  137.4790 C   0  0  0  0  0  0  0  0  0  0  0  0
  185.8990  174.8700  137.0120 C   0  0  0  0  0  3  0  0  0  0  0  0
  184.5660  175.3940  137.0270 N   0  0  0  0  0  0  0  0  0  0  0  0
  186.9380  175.6750  137.2290 C   0  0  0  0  0  3  0  0  0  0  0  0
  1 18  1  0  0  0  0
  3  4  2  0  0  0  0
  3  7  1  0  0  0  0
  4  5  1  0  0  0  0
  4  9  1  0  0  0  0
  5  9  1  0  0  0  0
  5  1  1  1  0  0  0
  6  7  1  0  0  0  0
  7  8  2  0  0  0  0
  8 10  1  0  0  0  0
  8  2  1  0  0  0  0
  9  2  2  0  0  0  0
 11 13  1  0  0  0  0
 13 12  2  0  0  0  0
 14 16  1  0  0  0  0
 14 15  2  0  0  0  0
 15 11  1  0  0  0  0
 16 17  2  0  0  0  0
 17 10  1  0  0  0  0
 17 13  1  0  0  0  0
 18 19  1  0  0  0  0
 19 20  1  0  0  0  0
 21 28  1  1  0  0  0
 22 27  1  6  0  0  0
 22 26  1  0  0  0  0
 22 24  1  0  0  0  0
 23 21  1  0  0  0  0
 24 23  1  0  0  0  0
 25 21  1  0  0  0  0
 26 20  1  6  0  0  0
 26 25  1  0  0  0  0
 28 29  1  0  0  0  0
 29 30  1  0  0  0  0
 32 34  1  0  0  0  0
 32 31  1  0  0  0  0
 33 32  1  0  0  0  0
 35 33  1  0  0  0  0
 35 36  1  0  0  0  0
 36 30  1  1  0  0  0
 36 31  1  0  0  0  0
 37  1  1  0  0  0  0
 38 43  1  0  0  0  0
 40 39  1  0  0  0  0
 41 39  2  0  0  0  0
 41 37  1  0  0  0  0
 42 43  1  0  0  0  0
 42 44  2  0  0  0  0
 43 40  1  0  0  0  0
 44 41  1  0  0  0  0
M  END
>  <MODEL>
2

>  <REMARK>
 VINA RESULT:      -8.5      1.929      2.555
  Name = 
  13 active torsions:
  status: ('A' for Active; 'I' for Inactive)
    1  A    between atoms: C_6  and  C_9
    2  A    between atoms: O_7  and  C_38
    3  A    between atoms: O_7  and  C_39
    4  A    between atoms: N_8  and  C_9
    5  A    between atoms: N_8  and  C_27
    6  A    between atoms: C_15  and  C_33
    7  A    between atoms: C_16  and  C_30
    8  A    between atoms: C_16  and  N_41
    9  A    between atoms: C_21  and  N_41
   10  A    between atoms: C_24  and  C_30
   11  A    between atoms: C_24  and  C_37
   12  A    between atoms: C_27  and  C_43
   13  A    between atoms: C_33  and  N_41
                            x       y       z     vdW  Elec       q    Type
                         _______ _______ _______ _____ _____    ______ ____

>  <TORSDO>
F 13

$$$$
=
 OpenBabel10232407593D

 44 49  0  0  1  0  0  0  0  0999 V2000
  182.9070  175.9870  138.1400 N   0  0  0  0  0  0  0  0  0  0  0  0
  185.4970  178.3930  138.2370 C   0  0  0  0  0  3  0  0  0  0  0  0
  185.1290  176.9290  135.5630 C   0  0  0  0  0  3  0  0  0  0  0  0
  184.1810  177.1200  136.5160 C   0  0  0  0  0  0  0  0  0  0  0  0
  183.1170  177.2500  137.4280 C   0  0  2  0  0  3  0  0  0  0  0  0
  187.4310  177.4280  135.1510 F   0  0  0  0  0  0  0  0  0  0  0  0
  186.3680  177.5310  135.9850 C   0  0  0  0  0  0  0  0  0  0  0  0
  186.5510  178.2450  137.2570 C   0  0  0  0  0  0  0  0  0  0  0  0
  184.3560  177.8140  137.7830 C   0  0  0  0  0  0  0  0  0  0  0  0
  187.8280  178.7590  137.5250 O   0  0  0  0  0  0  0  0  0  0  0  0
  189.8600  177.1140  140.3860 C   0  0  0  0  0  2  0  0  0  0  0  0
  188.2600  178.8880  140.3850 O   0  0  0  0  0  0  0  0  0  0  0  0
  188.9440  178.0850  139.6940 C   0  0  0  0  0  0  0  0  0  0  0  0
  190.9200  176.7750  138.1590 C   0  0  0  0  0  3  0  0  0  0  0  0
  190.9680  176.6320  139.4860 C   0  0  0  0  0  3  0  0  0  0  0  0
  189.7990  177.4740  137.5040 C   0  0  0  0  0  3  0  0  0  0  0  0
  188.8460  178.0860  138.2140 C   0  0  0  0  0  0  0  0  0  0  0  0
  182.4980  176.2430  139.5300 C   0  0  0  0  0  2  0  0  0  0  0  0
  181.3120  177.1980  139.6470 C   0  0  0  0  0  2  0  0  0  0  0  0
  181.7640  178.4810  140.3170 C   0  0  0  0  0  2  0  0  0  0  0  0
  184.4230  178.3530  143.0800 C   0  0  1  0  0  3  0  0  0  0  0  0
  181.5800  179.0400  142.7740 C   0  0  1  0  0  3  0  0  0  0  0  0
  183.6960  179.2250  144.1020 C   0  0  0  0  0  2  0  0  0  0  0  0
  182.2220  178.8490  144.1470 C   0  0  0  0  0  2  0  0  0  0  0  0
  183.8030  178.5570  141.7010 C   0  0  0  0  0  2  0  0  0  0  0  0
  182.3150  178.2050  141.7090 C   0  0  2  0  0  3  0  0  0  0  0  0
  180.2380  178.6630  142.8530 O   0  0  0  0  0  1  0  0  0  0  0  0
  185.8890  178.7420  143.0260 C   0  0  0  0  0  2  0  0  0  0  0  0
  186.7220  177.5540  143.0720 N   0  0  0  0  0  2  0  0  0  0  0  0
  186.8660  177.1970  144.4740 C   0  0  0  0  0  2  0  0  0  0  0  0
  189.3380  176.9500  144.4680 C   0  0  0  0  0  2  0  0  0  0  0  0
  190.3010  176.7470  145.5440 N   0  0  0  0  0  0  0  0  0  0  0  0
  189.7300  177.3420  146.7480 C   0  0  0  0  0  2  0  0  0  0  0  0
  191.4820  177.5240  145.2100 C   0  0  0  0  0  1  0  0  0  0  0  0
  188.2590  177.5640  146.5010 C   0  0  0  0  0  2  0  0  0  0  0  0
  188.1730  177.7450  145.0130 C   0  0  2  0  0  3  0  0  0  0  0  0
  181.8460  175.2450  137.4630 C   0  0  0  0  0  2  0  0  0  0  0  0
  183.7680  170.0590  135.9810 C   0  0  0  0  0  1  0  0  0  0  0  0
  181.4070  172.9280  136.8190 C   0  0  0  0  0  3  0  0  0  0  0  0
  181.7980  171.4950  136.5740 C   0  0  0  0  0  2  0  0  0  0  0  0
  182.3000  173.8560  137.1680 C   0  0  0  0  0  0  0  0  0  0  0  0
  184.1680  172.3160  136.9230 C   0  0  0  0  0  3  0  0  0  0  0  0
  183.2480  171.3320  136.4350 N   0  0  0  0  0  0  0  0  0  0  0  0
  183.7310  173.5220  137.2790 C   0  0  0  0  0  3  0  0  0  0  0  0
  1 18  1  0  0  0  0
  3  7  2  0  0  0  0
  3  4  1  0  0  0  0
  4  5  1  0  0  0  0
  4  9  2  0  0  0  0
  5  9  1  0  0  0  0
  5  1  1  1  0  0  0
  6  7  1  0  0  0  0
  7  8  1  0  0  0  0
  8 10  1  0  0  0  0
  8  2  2  0  0  0  0
  9  2  1  0  0  0  0
 10 17  1  0  0  0  0
 13 12  2  0  0  0  0
 13 11  1  0  0  0  0
 14 15  2  0  0  0  0
 15 11  1  0  0  0  0
 16 14  1  0  0  0  0
 16 17  2  0  0  0  0
 17 13  1  0  0  0  0
 18 19  1  0  0  0  0
 19 20  1  0  0  0  0
 21 28  1  6  0  0  0
 21 23  1  0  0  0  0
 22 27  1  1  0  0  0
 22 24  1  0  0  0  0
 23 24  1  0  0  0  0
 25 26  1  0  0  0  0
 25 21  1  0  0  0  0
 26 20  1  6  0  0  0
 26 22  1  0  0  0  0
 28 29  1  0  0  0  0
 29 30  1  0  0  0  0
 31 36  1  0  0  0  0
 31 32  1  0  0  0  0
 32 33  1  0  0  0  0
 34 32  1  0  0  0  0
 35 33  1  0  0  0  0
 36 30  1  6  0  0  0
 36 35  1  0  0  0  0
 37  1  1  0  0  0  0
 38 43  1  0  0  0  0
 39 41  2  0  0  0  0
 40 39  1  0  0  0  0
 41 44  1  0  0  0  0
 41 37  1  0  0  0  0
 42 44  2  0  0  0  0
 43 40  1  0  0  0  0
 43 42  1  0  0  0  0
M  END
>  <MODEL>
3

>  <REMARK>
 VINA RESULT:      -8.4      3.561      5.782
  Name = 
  13 active torsions:
  status: ('A' for Active; 'I' for Inactive)
    1  A    between atoms: C_6  and  C_9
    2  A    between atoms: O_7  and  C_38
    3  A    between atoms: O_7  and  C_39
    4  A    between atoms: N_8  and  C_9
    5  A    between atoms: N_8  and  C_27
    6  A    between atoms: C_15  and  C_33
    7  A    between atoms: C_16  and  C_30
    8  A    between atoms: C_16  and  N_41
    9  A    between atoms: C_21  and  N_41
   10  A    between atoms: C_24  and  C_30
   11  A    between atoms: C_24  and  C_37
   12  A    between atoms: C_27  and  C_43
   13  A    between atoms: C_33  and  N_41
                            x       y       z     vdW  Elec       q    Type
                         _______ _______ _______ _____ _____    ______ ____

>  <TORSDO>
F 13

$$$$
=
 OpenBabel10232407593D

 44 49  0  0  1  0  0  0  0  0999 V2000
  185.7260  178.3960  139.5840 N   0  0  0  0  0  0  0  0  0  0  0  0
  188.7500  177.0920  138.2960 C   0  0  0  0  0  3  0  0  0  0  0  0
  186.1980  176.2890  136.7900 C   0  0  0  0  0  3  0  0  0  0  0  0
  186.3720  177.4010  137.5500 C   0  0  0  0  0  0  0  0  0  0  0  0
  186.4270  178.5840  138.3110 C   0  0  2  0  0  3  0  0  0  0  0  0
  187.4160  174.3610  136.0710 F   0  0  0  0  0  0  0  0  0  0  0  0
  187.4130  175.5160  136.7790 C   0  0  0  0  0  0  0  0  0  0  0  0
  188.6450  175.8980  137.4870 C   0  0  0  0  0  0  0  0  0  0  0  0
  187.5810  177.7810  138.2630 C   0  0  0  0  0  0  0  0  0  0  0  0
  189.7380  175.0240  137.3880 O   0  0  0  0  0  0  0  0  0  0  0  0
  192.5340  175.7130  134.7950 C   0  0  0  0  0  2  0  0  0  0  0  0
  190.5740  174.3510  134.7000 O   0  0  0  0  0  0  0  0  0  0  0  0
  191.3130  175.0860  135.4090 C   0  0  0  0  0  0  0  0  0  0  0  0
  193.2770  176.1650  137.1280 C   0  0  0  0  0  3  0  0  0  0  0  0
  193.5680  176.0810  135.8270 C   0  0  0  0  0  3  0  0  0  0  0  0
  191.9310  175.8380  137.6340 C   0  0  0  0  0  3  0  0  0  0  0  0
  190.9840  175.3420  136.8320 C   0  0  0  0  0  0  0  0  0  0  0  0
  186.5500  178.8860  140.7000 C   0  0  0  0  0  2  0  0  0  0  0  0
  186.4110  178.0490  141.9700 C   0  0  0  0  0  2  0  0  0  0  0  0
  185.4320  178.7230  142.9120 C   0  0  0  0  0  2  0  0  0  0  0  0
  187.1610  177.5150  146.1170 C   0  0  1  0  0  3  0  0  0  0  0  0
  184.7290  178.9690  145.3260 C   0  0  1  0  0  3  0  0  0  0  0  0
  186.4010  178.4010  147.1030 C   0  0  0  0  0  2  0  0  0  0  0  0
  184.9230  178.4290  146.7420 C   0  0  0  0  0  2  0  0  0  0  0  0
  186.9920  178.0630  144.7030 C   0  0  0  0  0  2  0  0  0  0  0  0
  185.5160  178.1230  144.3080 C   0  0  2  0  0  3  0  0  0  0  0  0
  183.3670  178.9560  145.0260 O   0  0  0  0  0  1  0  0  0  0  0  0
  188.6360  177.5030  146.4710 C   0  0  0  0  0  2  0  0  0  0  0  0
  189.4290  177.8830  145.3150 N   0  0  0  0  0  2  0  0  0  0  0  0
  190.6370  177.0740  145.3530 C   0  0  0  0  0  2  0  0  0  0  0  0
  191.4580  177.8530  143.1420 C   0  0  0  0  0  2  0  0  0  0  0  0
  190.9050  177.7350  141.7970 N   0  0  0  0  0  0  0  0  0  0  0  0
  190.0870  176.5270  141.7760 C   0  0  0  0  0  2  0  0  0  0  0  0
  192.0210  177.5040  140.8970 C   0  0  0  0  0  1  0  0  0  0  0  0
  189.8270  176.1190  143.2050 C   0  0  0  0  0  2  0  0  0  0  0  0
  191.0180  176.6520  143.9470 C   0  0  2  0  0  3  0  0  0  0  0  0
  184.4810  179.1590  139.5440 C   0  0  0  0  0  2  0  0  0  0  0  0
  180.4210  175.4720  137.8960 C   0  0  0  0  0  1  0  0  0  0  0  0
  182.6340  178.5680  138.0550 C   0  0  0  0  0  3  0  0  0  0  0  0
  181.4410  177.7500  137.6390 C   0  0  0  0  0  2  0  0  0  0  0  0
  183.3500  178.2740  139.1420 C   0  0  0  0  0  0  0  0  0  0  0  0
  182.0890  176.2360  139.5630 C   0  0  0  0  0  3  0  0  0  0  0  0
  181.3800  176.4640  138.3390 N   0  0  0  0  0  0  0  0  0  0  0  0
  183.0290  177.0920  139.9600 C   0  0  0  0  0  3  0  0  0  0  0  0
  1 18  1  0  0  0  0
  3  4  1  0  0  0  0
  4  9  2  0  0  0  0
  4  5  1  0  0  0  0
  5  1  1  1  0  0  0
  6  7  1  0  0  0  0
  7  3  2  0  0  0  0
  7  8  1  0  0  0  0
  8  2  2  0  0  0  0
  9  2  1  0  0  0  0
  9  5  1  0  0  0  0
 10  8  1  0  0  0  0
 11 13  1  0  0  0  0
 11 15  1  0  0  0  0
 12 13  2  0  0  0  0
 13 17  1  0  0  0  0
 14 16  1  0  0  0  0
 15 14  2  0  0  0  0
 17 10  1  0  0  0  0
 17 16  2  0  0  0  0
 18 19  1  0  0  0  0
 19 20  1  0  0  0  0
 21 28  1  1  0  0  0
 21 23  1  0  0  0  0
 22 27  1  6  0  0  0
 22 24  1  0  0  0  0
 24 23  1  0  0  0  0
 25 21  1  0  0  0  0
 26 20  1  6  0  0  0
 26 25  1  0  0  0  0
 26 22  1  0  0  0  0
 29 30  1  0  0  0  0
 29 28  1  0  0  0  0
 31 36  1  0  0  0  0
 32 31  1  0  0  0  0
 33 32  1  0  0  0  0
 33 35  1  0  0  0  0
 34 32  1  0  0  0  0
 35 36  1  0  0  0  0
 36 30  1  1  0  0  0
 37  1  1  0  0  0  0
 38 43  1  0  0  0  0
 39 41  2  0  0  0  0
 40 39  1  0  0  0  0
 40 43  1  0  0  0  0
 41 37  1  0  0  0  0
 41 44  1  0  0  0  0
 42 44  2  0  0  0  0
 43 42  1  0  0  0  0
M  END
>  <MODEL>
4

>  <REMARK>
 VINA RESULT:      -8.3      2.866      4.379
  Name = 
  13 active torsions:
  status: ('A' for Active; 'I' for Inactive)
    1  A    between atoms: C_6  and  C_9
    2  A    between atoms: O_7  and  C_38
    3  A    between atoms: O_7  and  C_39
    4  A    between atoms: N_8  and  C_9
    5  A    between atoms: N_8  and  C_27
    6  A    between atoms: C_15  and  C_33
    7  A    between atoms: C_16  and  C_30
    8  A    between atoms: C_16  and  N_41
    9  A    between atoms: C_21  and  N_41
   10  A    between atoms: C_24  and  C_30
   11  A    between atoms: C_24  and  C_37
   12  A    between atoms: C_27  and  C_43
   13  A    between atoms: C_33  and  N_41
                            x       y       z     vdW  Elec       q    Type
                         _______ _______ _______ _____ _____    ______ ____

>  <TORSDO>
F 13

$$$$
=
 OpenBabel10232407593D

 44 49  0  0  1  0  0  0  0  0999 V2000
  188.5290  177.7480  137.9240 N   0  0  0  0  0  0  0  0  0  0  0  0
  191.8060  176.4170  137.9010 C   0  0  0  0  0  3  0  0  0  0  0  0
  189.7480  174.9370  136.1680 C   0  0  0  0  0  3  0  0  0  0  0  0
  189.6990  176.2420  136.5430 C   0  0  0  0  0  0  0  0  0  0  0  0
  189.5350  177.6010  136.8680 C   0  0  2  0  0  3  0  0  0  0  0  0
  191.1420  173.0130  136.4300 F   0  0  0  0  0  0  0  0  0  0  0  0
  190.9360  174.3240  136.7020 C   0  0  0  0  0  0  0  0  0  0  0  0
  191.9340  175.0270  137.5230 C   0  0  0  0  0  0  0  0  0  0  0  0
  190.6750  176.9420  137.3640 C   0  0  0  0  0  0  0  0  0  0  0  0
  193.0280  174.2780  137.9800 O   0  0  0  0  0  0  0  0  0  0  0  0
  196.8890  174.2200  137.6540 C   0  0  0  0  0  2  0  0  0  0  0  0
  195.4520  174.9210  139.4280 O   0  0  0  0  0  0  0  0  0  0  0  0
  195.5350  174.5080  138.2390 C   0  0  0  0  0  0  0  0  0  0  0  0
  195.7540  174.2260  135.4380 C   0  0  0  0  0  3  0  0  0  0  0  0
  196.8840  174.2730  136.1480 C   0  0  0  0  0  3  0  0  0  0  0  0
  194.4360  174.1810  136.0980 C   0  0  0  0  0  3  0  0  0  0  0  0
  194.3150  174.2970  137.4240 C   0  0  0  0  0  0  0  0  0  0  0  0
  189.1100  178.4220  139.0950 C   0  0  0  0  0  2  0  0  0  0  0  0
  188.4090  178.0730  140.4070 C   0  0  0  0  0  2  0  0  0  0  0  0
  189.2530  177.0780  141.1790 C   0  0  0  0  0  2  0  0  0  0  0  0
  188.9040  177.8990  144.9110 C   0  0  1  0  0  3  0  0  0  0  0  0
  190.9730  176.9890  143.0280 C   0  0  1  0  0  3  0  0  0  0  0  0
  190.1710  177.1950  145.3920 C   0  0  0  0  0  2  0  0  0  0  0  0
  191.3180  177.4780  144.4330 C   0  0  0  0  0  2  0  0  0  0  0  0
  188.5390  177.3970  143.5170 C   0  0  0  0  0  2  0  0  0  0  0  0
  189.6760  177.6490  142.5250 C   0  0  2  0  0  3  0  0  0  0  0  0
  192.0370  177.2880  142.1770 O   0  0  0  0  0  1  0  0  0  0  0  0
  187.7590  177.6000  145.8600 C   0  0  0  0  0  2  0  0  0  0  0  0
  186.4940  177.6530  145.1490 N   0  0  0  0  0  2  0  0  0  0  0  0
  185.7830  178.8210  145.6450 C   0  0  0  0  0  2  0  0  0  0  0  0
  183.4410  178.8200  144.8190 C   0  0  0  0  0  2  0  0  0  0  0  0
  182.8580  178.4510  143.5340 N   0  0  0  0  0  0  0  0  0  0  0  0
  183.8840  178.6730  142.5200 C   0  0  0  0  0  2  0  0  0  0  0  0
  181.7890  179.3950  143.2650 C   0  0  0  0  0  1  0  0  0  0  0  0
  185.2100  178.8070  143.2250 C   0  0  0  0  0  2  0  0  0  0  0  0
  184.8400  179.3410  144.5780 C   0  0  2  0  0  3  0  0  0  0  0  0
  187.4310  178.5600  137.4070 C   0  0  0  0  0  2  0  0  0  0  0  0
  182.5800  175.7530  138.5790 C   0  0  0  0  0  1  0  0  0  0  0  0
  185.8720  176.7370  136.9350 C   0  0  0  0  0  3  0  0  0  0  0  0
  184.5520  176.0210  137.0520 C   0  0  0  0  0  2  0  0  0  0  0  0
  186.1330  177.8570  137.6130 C   0  0  0  0  0  0  0  0  0  0  0  0
  184.0260  177.7500  138.8260 C   0  0  0  0  0  3  0  0  0  0  0  0
  183.7690  176.4880  138.2000 N   0  0  0  0  0  0  0  0  0  0  0  0
  185.1470  178.4160  138.5540 C   0  0  0  0  0  3  0  0  0  0  0  0
  1 18  1  0  0  0  0
  3  4  2  0  0  0  0
  3  7  1  0  0  0  0
  4  5  1  0  0  0  0
  4  9  1  0  0  0  0
  5  9  1  0  0  0  0
  5  1  1  1  0  0  0
  6  7  1  0  0  0  0
  7  8  2  0  0  0  0
  8  2  1  0  0  0  0
  8 10  1  0  0  0  0
  9  2  2  0  0  0  0
 11 13  1  0  0  0  0
 13 12  2  0  0  0  0
 14 16  1  0  0  0  0
 14 15  2  0  0  0  0
 15 11  1  0  0  0  0
 16 17  2  0  0  0  0
 17 10  1  0  0  0  0
 17 13  1  0  0  0  0
 18 19  1  0  0  0  0
 19 20  1  0  0  0  0
 21 23  1  0  0  0  0
 21 28  1  1  0  0  0
 22 27  1  6  0  0  0
 22 24  1  0  0  0  0
 24 23  1  0  0  0  0
 25 21  1  0  0  0  0
 26 20  1  6  0  0  0
 26 22  1  0  0  0  0
 26 25  1  0  0  0  0
 29 30  1  0  0  0  0
 29 28  1  0  0  0  0
 32 31  1  0  0  0  0
 33 35  1  0  0  0  0
 33 32  1  0  0  0  0
 34 32  1  0  0  0  0
 35 36  1  0  0  0  0
 36 31  1  0  0  0  0
 36 30  1  1  0  0  0
 37 41  1  0  0  0  0
 37  1  1  0  0  0  0
 39 40  1  0  0  0  0
 39 41  2  0  0  0  0
 40 43  1  0  0  0  0
 41 44  1  0  0  0  0
 43 38  1  0  0  0  0
 43 42  1  0  0  0  0
 44 42  2  0  0  0  0
M  END
>  <MODEL>
5

>  <REMARK>
 VINA RESULT:      -8.3      2.384      4.660
  Name = 
  13 active torsions:
  status: ('A' for Active; 'I' for Inactive)
    1  A    between atoms: C_6  and  C_9
    2  A    between atoms: O_7  and  C_38
    3  A    between atoms: O_7  and  C_39
    4  A    between atoms: N_8  and  C_9
    5  A    between atoms: N_8  and  C_27
    6  A    between atoms: C_15  and  C_33
    7  A    between atoms: C_16  and  C_30
    8  A    between atoms: C_16  and  N_41
    9  A    between atoms: C_21  and  N_41
   10  A    between atoms: C_24  and  C_30
   11  A    between atoms: C_24  and  C_37
   12  A    between atoms: C_27  and  C_43
   13  A    between atoms: C_33  and  N_41
                            x       y       z     vdW  Elec       q    Type
                         _______ _______ _______ _____ _____    ______ ____

>  <TORSDO>
F 13

$$$$
=
 OpenBabel10232407593D

 44 49  0  0  1  0  0  0  0  0999 V2000
  189.6720  177.3400  142.8610 N   0  0  0  0  0  0  0  0  0  0  0  0
  190.2040  177.4140  139.3650 C   0  0  0  0  0  3  0  0  0  0  0  0
  187.4640  178.4150  140.3230 C   0  0  0  0  0  3  0  0  0  0  0  0
  188.6150  178.4010  141.0430 C   0  0  0  0  0  0  0  0  0  0  0  0
  189.7400  178.4350  141.8890 C   0  0  2  0  0  3  0  0  0  0  0  0
  186.6610  177.8200  138.1510 F   0  0  0  0  0  0  0  0  0  0  0  0
  187.7100  177.8870  139.0060 C   0  0  0  0  0  0  0  0  0  0  0  0
  189.0210  177.4180  138.5330 C   0  0  0  0  0  0  0  0  0  0  0  0
  189.9140  177.9270  140.5890 C   0  0  0  0  0  0  0  0  0  0  0  0
  189.0880  176.9160  137.2250 O   0  0  0  0  0  0  0  0  0  0  0  0
  188.7090  173.0670  136.9780 C   0  0  0  0  0  2  0  0  0  0  0  0
  190.5380  174.4470  137.6510 O   0  0  0  0  0  0  0  0  0  0  0  0
  189.3720  174.4020  137.1750 C   0  0  0  0  0  0  0  0  0  0  0  0
  187.0780  174.2710  135.5320 C   0  0  0  0  0  3  0  0  0  0  0  0
  187.6140  173.1190  135.9440 C   0  0  0  0  0  3  0  0  0  0  0  0
  187.5770  175.5680  136.0280 C   0  0  0  0  0  3  0  0  0  0  0  0
  188.6510  175.6480  136.8190 C   0  0  0  0  0  0  0  0  0  0  0  0
  188.6050  176.3950  142.4950 C   0  0  0  0  0  2  0  0  0  0  0  0
  187.5760  176.1820  143.6030 C   0  0  0  0  0  2  0  0  0  0  0  0
  187.9000  177.0920  144.7720 C   0  0  0  0  0  2  0  0  0  0  0  0
  184.6660  178.9920  143.9650 C   0  0  1  0  0  3  0  0  0  0  0  0
  186.0560  177.8810  146.3070 C   0  0  1  0  0  3  0  0  0  0  0  0
  183.9270  178.6960  145.2680 C   0  0  0  0  0  2  0  0  0  0  0  0
  184.8770  178.8430  146.4480 C   0  0  0  0  0  2  0  0  0  0  0  0
  185.8300  178.0190  143.8050 C   0  0  0  0  0  2  0  0  0  0  0  0
  186.8010  178.1240  144.9820 C   0  0  2  0  0  3  0  0  0  0  0  0
  186.9130  178.0640  147.3930 O   0  0  0  0  0  1  0  0  0  0  0  0
  183.7190  178.8280  142.7900 C   0  0  0  0  0  2  0  0  0  0  0  0
  184.3030  177.9430  141.7990 N   0  0  0  0  0  2  0  0  0  0  0  0
  183.3290  177.8130  140.7280 C   0  0  0  0  0  2  0  0  0  0  0  0
  181.2830  179.0740  140.1020 C   0  0  0  0  0  2  0  0  0  0  0  0
  180.9660  179.9130  138.9510 N   0  0  0  0  0  0  0  0  0  0  0  0
  182.2250  180.4760  138.4740 C   0  0  0  0  0  2  0  0  0  0  0  0
  180.1670  181.0230  139.4410 C   0  0  0  0  0  1  0  0  0  0  0  0
  183.3500  179.6810  139.0860 C   0  0  0  0  0  2  0  0  0  0  0  0
  182.7660  179.1760  140.3740 C   0  0  2  0  0  3  0  0  0  0  0  0
  190.9510  176.6350  142.8540 C   0  0  0  0  0  2  0  0  0  0  0  0
  192.7320  175.5340  148.1830 C   0  0  0  0  0  1  0  0  0  0  0  0
  191.9820  175.1200  144.4720 C   0  0  0  0  0  3  0  0  0  0  0  0
  192.3420  174.6660  145.8620 C   0  0  0  0  0  2  0  0  0  0  0  0
  191.3410  176.2690  144.2450 C   0  0  0  0  0  0  0  0  0  0  0  0
  191.4280  176.9130  146.5900 C   0  0  0  0  0  3  0  0  0  0  0  0
  192.2170  175.7450  146.8460 N   0  0  0  0  0  0  0  0  0  0  0  0
  191.0010  177.1740  145.3560 C   0  0  0  0  0  3  0  0  0  0  0  0
  2  9  1  0  0  0  0
  3  4  1  0  0  0  0
  4  5  1  0  0  0  0
  5  1  1  1  0  0  0
  6  7  1  0  0  0  0
  7  3  2  0  0  0  0
  8  7  1  0  0  0  0
  8  2  2  0  0  0  0
  9  4  2  0  0  0  0
  9  5  1  0  0  0  0
 10  8  1  0  0  0  0
 11 13  1  0  0  0  0
 13 12  2  0  0  0  0
 14 15  2  0  0  0  0
 14 16  1  0  0  0  0
 15 11  1  0  0  0  0
 16 17  2  0  0  0  0
 17 13  1  0  0  0  0
 17 10  1  0  0  0  0
 18  1  1  0  0  0  0
 18 19  1  0  0  0  0
 19 20  1  0  0  0  0
 21 28  1  6  0  0  0
 21 23  1  0  0  0  0
 22 24  1  0  0  0  0
 22 27  1  1  0  0  0
 23 24  1  0  0  0  0
 25 21  1  0  0  0  0
 25 26  1  0  0  0  0
 26 20  1  6  0  0  0
 26 22  1  0  0  0  0
 29 28  1  0  0  0  0
 30 29  1  0  0  0  0
 31 36  1  0  0  0  0
 32 34  1  0  0  0  0
 32 31  1  0  0  0  0
 33 32  1  0  0  0  0
 33 35  1  0  0  0  0
 35 36  1  0  0  0  0
 36 30  1  6  0  0  0
 37  1  1  0  0  0  0
 37 41  1  0  0  0  0
 39 40  1  0  0  0  0
 40 43  1  0  0  0  0
 41 39  2  0  0  0  0
 41 44  1  0  0  0  0
 42 43  1  0  0  0  0
 43 38  1  0  0  0  0
 44 42  2  0  0  0  0
M  END
>  <MODEL>
6

>  <REMARK>
 VINA RESULT:      -8.2      3.388      7.498
  Name = 
  13 active torsions:
  status: ('A' for Active; 'I' for Inactive)
    1  A    between atoms: C_6  and  C_9
    2  A    between atoms: O_7  and  C_38
    3  A    between atoms: O_7  and  C_39
    4  A    between atoms: N_8  and  C_9
    5  A    between atoms: N_8  and  C_27
    6  A    between atoms: C_15  and  C_33
    7  A    between atoms: C_16  and  C_30
    8  A    between atoms: C_16  and  N_41
    9  A    between atoms: C_21  and  N_41
   10  A    between atoms: C_24  and  C_30
   11  A    between atoms: C_24  and  C_37
   12  A    between atoms: C_27  and  C_43
   13  A    between atoms: C_33  and  N_41
                            x       y       z     vdW  Elec       q    Type
                         _______ _______ _______ _____ _____    ______ ____

>  <TORSDO>
F 13

$$$$
=
 OpenBabel10232407593D

 44 49  0  0  1  0  0  0  0  0999 V2000
  187.4350  178.1980  139.7850 N   0  0  0  0  0  0  0  0  0  0  0  0
  189.6960  176.1570  137.9890 C   0  0  0  0  0  3  0  0  0  0  0  0
  188.8490  178.7610  136.5990 C   0  0  0  0  0  3  0  0  0  0  0  0
  188.8560  178.5240  137.9360 C   0  0  0  0  0  0  0  0  0  0  0  0
  188.8160  178.4000  139.3380 C   0  0  2  0  0  3  0  0  0  0  0  0
  189.3630  177.6490  134.5460 F   0  0  0  0  0  0  0  0  0  0  0  0
  189.3140  177.5910  135.8980 C   0  0  0  0  0  0  0  0  0  0  0  0
  189.7340  176.3440  136.5550 C   0  0  0  0  0  0  0  0  0  0  0  0
  189.2580  177.2900  138.5940 C   0  0  0  0  0  0  0  0  0  0  0  0
  190.1450  175.2910  135.7250 O   0  0  0  0  0  0  0  0  0  0  0  0
  193.9820  174.8750  135.3790 C   0  0  0  0  0  2  0  0  0  0  0  0
  192.4440  176.3820  134.3460 O   0  0  0  0  0  0  0  0  0  0  0  0
  192.5950  175.3830  135.1000 C   0  0  0  0  0  0  0  0  0  0  0  0
  192.8800  172.8080  136.2240 C   0  0  0  0  0  3  0  0  0  0  0  0
  193.9860  173.4300  135.8070 C   0  0  0  0  0  3  0  0  0  0  0  0
  191.5740  173.4910  136.2290 C   0  0  0  0  0  3  0  0  0  0  0  0
  191.4230  174.7160  135.7160 C   0  0  0  0  0  0  0  0  0  0  0  0
  187.2230  178.8330  141.0950 C   0  0  0  0  0  2  0  0  0  0  0  0
  186.8550  177.8410  142.1980 C   0  0  0  0  0  2  0  0  0  0  0  0
  185.6940  178.3930  143.0020 C   0  0  0  0  0  2  0  0  0  0  0  0
  187.4180  177.3720  146.2740 C   0  0  1  0  0  3  0  0  0  0  0  0
  185.1100  178.9690  145.3920 C   0  0  1  0  0  3  0  0  0  0  0  0
  186.7850  178.4310  147.1750 C   0  0  0  0  0  2  0  0  0  0  0  0
  185.3040  178.5680  146.8530 C   0  0  0  0  0  2  0  0  0  0  0  0
  187.2490  177.7770  144.8130 C   0  0  0  0  0  2  0  0  0  0  0  0
  185.7720  177.9420  144.4540 C   0  0  2  0  0  3  0  0  0  0  0  0
  183.7420  179.0600  145.1320 O   0  0  0  0  0  1  0  0  0  0  0  0
  188.8970  177.2500  146.5870 C   0  0  0  0  0  2  0  0  0  0  0  0
  189.6850  177.7540  145.4760 N   0  0  0  0  0  2  0  0  0  0  0  0
  190.9440  177.0270  145.4910 C   0  0  0  0  0  2  0  0  0  0  0  0
  191.6040  177.8650  143.2480 C   0  0  0  0  0  2  0  0  0  0  0  0
  191.0280  177.6680  141.9230 N   0  0  0  0  0  0  0  0  0  0  0  0
  190.3520  176.3740  141.9390 C   0  0  0  0  0  2  0  0  0  0  0  0
  192.1350  177.5530  140.9900 C   0  0  0  0  0  1  0  0  0  0  0  0
  190.1840  175.9570  143.3790 C   0  0  0  0  0  2  0  0  0  0  0  0
  191.3280  176.6320  144.0790 C   0  0  2  0  0  3  0  0  0  0  0  0
  186.5380  178.8150  138.8100 C   0  0  0  0  0  2  0  0  0  0  0  0
  182.2420  175.1140  138.0160 C   0  0  0  0  0  1  0  0  0  0  0  0
  185.5480  176.9520  137.5740 C   0  0  0  0  0  3  0  0  0  0  0  0
  184.4170  176.0410  137.1780 C   0  0  0  0  0  2  0  0  0  0  0  0
  185.4040  177.8970  138.5060 C   0  0  0  0  0  0  0  0  0  0  0  0
  183.1410  177.1820  139.0440 C   0  0  0  0  0  3  0  0  0  0  0  0
  183.3070  176.0890  138.1340 N   0  0  0  0  0  0  0  0  0  0  0  0
  184.1300  178.0540  139.2300 C   0  0  0  0  0  3  0  0  0  0  0  0
  1 18  1  0  0  0  0
  2  9  1  0  0  0  0
  3  4  1  0  0  0  0
  4  9  2  0  0  0  0
  4  5  1  0  0  0  0
  5  1  1  6  0  0  0
  6  7  1  0  0  0  0
  7  8  1  0  0  0  0
  7  3  2  0  0  0  0
  8  2  2  0  0  0  0
  9  5  1  0  0  0  0
 10  8  1  0  0  0  0
 11 15  1  0  0  0  0
 12 13  2  0  0  0  0
 13 11  1  0  0  0  0
 13 17  1  0  0  0  0
 14 16  1  0  0  0  0
 15 14  2  0  0  0  0
 17 10  1  0  0  0  0
 17 16  2  0  0  0  0
 18 19  1  0  0  0  0
 19 20  1  0  0  0  0
 21 28  1  1  0  0  0
 21 23  1  0  0  0  0
 22 27  1  6  0  0  0
 22 24  1  0  0  0  0
 24 23  1  0  0  0  0
 25 21  1  0  0  0  0
 26 20  1  6  0  0  0
 26 25  1  0  0  0  0
 26 22  1  0  0  0  0
 29 30  1  0  0  0  0
 29 28  1  0  0  0  0
 31 36  1  0  0  0  0
 32 33  1  0  0  0  0
 32 31  1  0  0  0  0
 33 35  1  0  0  0  0
 34 32  1  0  0  0  0
 35 36  1  0  0  0  0
 36 30  1  1  0  0  0
 37  1  1  0  0  0  0
 38 43  1  0  0  0  0
 39 41  2  0  0  0  0
 40 39  1  0  0  0  0
 40 43  1  0  0  0  0
 41 37  1  0  0  0  0
 41 44  1  0  0  0  0
 42 44  2  0  0  0  0
 43 42  1  0  0  0  0
M  END
>  <MODEL>
7

>  <REMARK>
 VINA RESULT:      -8.2      2.311      3.578
  Name = 
  13 active torsions:
  status: ('A' for Active; 'I' for Inactive)
    1  A    between atoms: C_6  and  C_9
    2  A    between atoms: O_7  and  C_38
    3  A    between atoms: O_7  and  C_39
    4  A    between atoms: N_8  and  C_9
    5  A    between atoms: N_8  and  C_27
    6  A    between atoms: C_15  and  C_33
    7  A    between atoms: C_16  and  C_30
    8  A    between atoms: C_16  and  N_41
    9  A    between atoms: C_21  and  N_41
   10  A    between atoms: C_24  and  C_30
   11  A    between atoms: C_24  and  C_37
   12  A    between atoms: C_27  and  C_43
   13  A    between atoms: C_33  and  N_41
                            x       y       z     vdW  Elec       q    Type
                         _______ _______ _______ _____ _____    ______ ____

>  <TORSDO>
F 13

$$$$
=
 OpenBabel10232407593D

 44 49  0  0  1  0  0  0  0  0999 V2000
  184.1170  176.4560  137.0030 N   0  0  0  0  0  0  0  0  0  0  0  0
  186.8920  178.3870  138.0390 C   0  0  0  0  0  3  0  0  0  0  0  0
  187.5500  175.6590  136.7930 C   0  0  0  0  0  3  0  0  0  0  0  0
  186.4320  176.3980  136.5750 C   0  0  0  0  0  0  0  0  0  0  0  0
  185.2310  177.0670  136.2720 C   0  0  2  0  0  3  0  0  0  0  0  0
  189.5840  175.7510  138.0470 F   0  0  0  0  0  0  0  0  0  0  0  0
  188.4180  176.3520  137.7100 C   0  0  0  0  0  0  0  0  0  0  0  0
  188.1170  177.6650  138.3020 C   0  0  0  0  0  0  0  0  0  0  0  0
  186.1210  177.6900  137.1660 C   0  0  0  0  0  0  0  0  0  0  0  0
  189.0620  178.1960  139.1930 O   0  0  0  0  0  0  0  0  0  0  0  0
  190.8810  177.1050  142.4360 C   0  0  0  0  0  2  0  0  0  0  0  0
  191.5490  177.0600  140.1440 O   0  0  0  0  0  0  0  0  0  0  0  0
  190.6220  177.2890  140.9670 C   0  0  0  0  0  0  0  0  0  0  0  0
  188.4080  177.1640  142.7140 C   0  0  0  0  0  3  0  0  0  0  0  0
  189.6120  176.8790  143.2160 C   0  0  0  0  0  3  0  0  0  0  0  0
  188.2510  177.6630  141.3360 C   0  0  0  0  0  3  0  0  0  0  0  0
  189.2900  177.7440  140.5000 C   0  0  0  0  0  0  0  0  0  0  0  0
  183.4100  177.4690  137.8000 C   0  0  0  0  0  2  0  0  0  0  0  0
  183.3270  177.1240  139.2860 C   0  0  0  0  0  2  0  0  0  0  0  0
  183.7180  178.3380  140.1060 C   0  0  0  0  0  2  0  0  0  0  0  0
  184.1930  178.5910  143.9050 C   0  0  1  0  0  3  0  0  0  0  0  0
  182.0430  178.8770  141.9190 C   0  0  1  0  0  3  0  0  0  0  0  0
  182.9110  179.3580  144.2190 C   0  0  0  0  0  2  0  0  0  0  0  0
  181.7530  178.7830  143.4160 C   0  0  0  0  0  2  0  0  0  0  0  0
  184.5030  178.7010  142.4150 C   0  0  0  0  0  2  0  0  0  0  0  0
  183.3530  178.1470  141.5720 C   0  0  2  0  0  3  0  0  0  0  0  0
  180.9710  178.3200  141.2210 O   0  0  0  0  0  1  0  0  0  0  0  0
  185.3480  179.1780  144.6950 C   0  0  0  0  0  2  0  0  0  0  0  0
  185.2940  178.7210  146.0720 N   0  0  0  0  0  2  0  0  0  0  0  0
  186.1890  177.5790  146.1700 C   0  0  0  0  0  2  0  0  0  0  0  0
  188.5420  176.8890  146.5650 C   0  0  0  0  0  2  0  0  0  0  0  0
  189.3870  176.9350  147.7530 N   0  0  0  0  0  0  0  0  0  0  0  0
  188.9070  178.0390  148.5770 C   0  0  0  0  0  2  0  0  0  0  0  0
  190.7240  177.2890  147.3100 C   0  0  0  0  0  1  0  0  0  0  0  0
  187.5340  178.4230  148.0840 C   0  0  0  0  0  2  0  0  0  0  0  0
  187.5580  178.0360  146.6340 C   0  0  2  0  0  3  0  0  0  0  0  0
  183.1870  175.8840  136.0320 C   0  0  0  0  0  2  0  0  0  0  0  0
  183.3610  170.1630  135.8380 C   0  0  0  0  0  1  0  0  0  0  0  0
  183.7380  173.7440  137.0800 C   0  0  0  0  0  3  0  0  0  0  0  0
  183.9740  172.2570  137.0760 C   0  0  0  0  0  2  0  0  0  0  0  0
  183.3400  174.4010  135.9880 C   0  0  0  0  0  0  0  0  0  0  0  0
  183.0990  172.3500  134.7010 C   0  0  0  0  0  3  0  0  0  0  0  0
  183.4110  171.6100  135.8870 N   0  0  0  0  0  0  0  0  0  0  0  0
  183.0650  173.6810  134.7330 C   0  0  0  0  0  3  0  0  0  0  0  0
  1 18  1  0  0  0  0
  2  8  1  0  0  0  0
  3  7  1  0  0  0  0
  4  3  2  0  0  0  0
  4  9  1  0  0  0  0
  5  4  1  0  0  0  0
  5  1  1  1  0  0  0
  5  9  1  0  0  0  0
  7  6  1  0  0  0  0
  7  8  2  0  0  0  0
  8 10  1  0  0  0  0
  9  2  2  0  0  0  0
 10 17  1  0  0  0  0
 11 15  1  0  0  0  0
 12 13  2  0  0  0  0
 13 11  1  0  0  0  0
 14 15  2  0  0  0  0
 16 14  1  0  0  0  0
 17 13  1  0  0  0  0
 17 16  2  0  0  0  0
 18 19  1  0  0  0  0
 19 20  1  0  0  0  0
 21 23  1  0  0  0  0
 21 28  1  1  0  0  0
 22 27  1  6  0  0  0
 22 24  1  0  0  0  0
 24 23  1  0  0  0  0
 25 21  1  0  0  0  0
 26 20  1  6  0  0  0
 26 22  1  0  0  0  0
 26 25  1  0  0  0  0
 28 29  1  0  0  0  0
 29 30  1  0  0  0  0
 31 36  1  0  0  0  0
 31 32  1  0  0  0  0
 32 33  1  0  0  0  0
 34 32  1  0  0  0  0
 35 33  1  0  0  0  0
 36 30  1  1  0  0  0
 36 35  1  0  0  0  0
 37  1  1  0  0  0  0
 38 43  1  0  0  0  0
 40 39  1  0  0  0  0
 41 37  1  0  0  0  0
 41 39  2  0  0  0  0
 42 44  2  0  0  0  0
 42 43  1  0  0  0  0
 43 40  1  0  0  0  0
 44 41  1  0  0  0  0
M  END
>  <MODEL>
8

>  <REMARK>
 VINA RESULT:      -8.0      3.205      5.265
  Name = 
  13 active torsions:
  status: ('A' for Active; 'I' for Inactive)
    1  A    between atoms: C_6  and  C_9
    2  A    between atoms: O_7  and  C_38
    3  A    between atoms: O_7  and  C_39
    4  A    between atoms: N_8  and  C_9
    5  A    between atoms: N_8  and  C_27
    6  A    between atoms: C_15  and  C_33
    7  A    between atoms: C_16  and  C_30
    8  A    between atoms: C_16  and  N_41
    9  A    between atoms: C_21  and  N_41
   10  A    between atoms: C_24  and  C_30
   11  A    between atoms: C_24  and  C_37
   12  A    between atoms: C_27  and  C_43
   13  A    between atoms: C_33  and  N_41
                            x       y       z     vdW  Elec       q    Type
                         _______ _______ _______ _____ _____    ______ ____

>  <TORSDO>
F 13

$$$$
=
 OpenBabel10232407593D

 44 49  0  0  1  0  0  0  0  0999 V2000
  189.3860  177.4060  143.1680 N   0  0  0  0  0  0  0  0  0  0  0  0
  190.8840  177.5860  139.9700 C   0  0  0  0  0  3  0  0  0  0  0  0
  187.8270  177.8750  140.0350 C   0  0  0  0  0  3  0  0  0  0  0  0
  188.6870  178.1550  141.0480 C   0  0  0  0  0  0  0  0  0  0  0  0
  189.4740  178.4760  142.1710 C   0  0  2  0  0  3  0  0  0  0  0  0
  187.8600  177.0830  137.7790 F   0  0  0  0  0  0  0  0  0  0  0  0
  188.5660  177.4170  138.8870 C   0  0  0  0  0  0  0  0  0  0  0  0
  190.0310  177.2870  138.8410 C   0  0  0  0  0  0  0  0  0  0  0  0
  190.1350  178.0190  141.0170 C   0  0  0  0  0  0  0  0  0  0  0  0
  190.5940  176.8090  137.6490 O   0  0  0  0  0  0  0  0  0  0  0  0
  192.5460  173.5400  136.9280 C   0  0  0  0  0  2  0  0  0  0  0  0
  190.2430  173.9450  137.4120 O   0  0  0  0  0  0  0  0  0  0  0  0
  191.4010  174.4340  137.3120 C   0  0  0  0  0  0  0  0  0  0  0  0
  194.0320  175.3710  137.7270 C   0  0  0  0  0  3  0  0  0  0  0  0
  193.8760  174.0940  137.3680 C   0  0  0  0  0  3  0  0  0  0  0  0
  192.8870  176.2990  137.7700 C   0  0  0  0  0  3  0  0  0  0  0  0
  191.6370  175.8770  137.5600 C   0  0  0  0  0  0  0  0  0  0  0  0
  188.2280  176.5430  142.8940 C   0  0  0  0  0  2  0  0  0  0  0  0
  187.2040  176.5210  144.0280 C   0  0  0  0  0  2  0  0  0  0  0  0
  187.2430  177.8460  144.7650 C   0  0  0  0  0  2  0  0  0  0  0  0
  184.3190  179.1120  142.6290 C   0  0  1  0  0  3  0  0  0  0  0  0
  184.8730  178.4120  145.4310 C   0  0  1  0  0  3  0  0  0  0  0  0
  183.1950  178.7840  143.6090 C   0  0  0  0  0  2  0  0  0  0  0  0
  183.6110  179.1680  145.0220 C   0  0  0  0  0  2  0  0  0  0  0  0
  185.5770  178.3410  143.0170 C   0  0  0  0  0  2  0  0  0  0  0  0
  186.0180  178.6880  144.4400 C   0  0  2  0  0  3  0  0  0  0  0  0
  185.2330  178.8090  146.7200 O   0  0  0  0  0  1  0  0  0  0  0  0
  183.9070  178.7120  141.2240 C   0  0  0  0  0  2  0  0  0  0  0  0
  184.5900  179.5430  140.2490 N   0  0  0  0  0  2  0  0  0  0  0  0
  184.5750  178.8110  138.9920 C   0  0  0  0  0  2  0  0  0  0  0  0
  183.5250  176.6860  138.2490 C   0  0  0  0  0  2  0  0  0  0  0  0
  182.4640  176.4050  137.2890 N   0  0  0  0  0  0  0  0  0  0  0  0
  181.6030  177.5820  137.2440 C   0  0  0  0  0  2  0  0  0  0  0  0
  181.6680  175.3220  137.8390 C   0  0  0  0  0  1  0  0  0  0  0  0
  182.3500  178.7260  137.8830 C   0  0  0  0  0  2  0  0  0  0  0  0
  183.2720  178.0480  138.8560 C   0  0  2  0  0  3  0  0  0  0  0  0
  190.6040  176.6030  143.0920 C   0  0  0  0  0  2  0  0  0  0  0  0
  192.7340  175.7930  148.3450 C   0  0  0  0  0  1  0  0  0  0  0  0
  191.9750  175.3040  144.6450 C   0  0  0  0  0  3  0  0  0  0  0  0
  192.4620  174.9080  146.0130 C   0  0  0  0  0  2  0  0  0  0  0  0
  191.1040  176.2990  144.4630 C   0  0  0  0  0  0  0  0  0  0  0  0
  191.1250  176.9020  146.8210 C   0  0  0  0  0  3  0  0  0  0  0  0
  192.1460  175.9180  147.0280 N   0  0  0  0  0  0  0  0  0  0  0  0
  190.6160  177.0920  145.6050 C   0  0  0  0  0  3  0  0  0  0  0  0
  2  9  1  0  0  0  0
  3  4  1  0  0  0  0
  4  5  1  0  0  0  0
  5  1  1  1  0  0  0
  6  7  1  0  0  0  0
  7  3  2  0  0  0  0
  8  7  1  0  0  0  0
  8  2  2  0  0  0  0
  9  4  2  0  0  0  0
  9  5  1  0  0  0  0
 10  8  1  0  0  0  0
 11 13  1  0  0  0  0
 11 15  1  0  0  0  0
 13 12  2  0  0  0  0
 13 17  1  0  0  0  0
 14 16  1  0  0  0  0
 15 14  2  0  0  0  0
 17 10  1  0  0  0  0
 17 16  2  0  0  0  0
 18  1  1  0  0  0  0
 18 19  1  0  0  0  0
 19 20  1  0  0  0  0
 21 28  1  6  0  0  0
 21 25  1  0  0  0  0
 21 23  1  0  0  0  0
 22 27  1  1  0  0  0
 23 24  1  0  0  0  0
 24 22  1  0  0  0  0
 25 26  1  0  0  0  0
 26 20  1  1  0  0  0
 26 22  1  0  0  0  0
 29 28  1  0  0  0  0
 30 29  1  0  0  0  0
 31 36  1  0  0  0  0
 32 34  1  0  0  0  0
 32 31  1  0  0  0  0
 33 32  1  0  0  0  0
 33 35  1  0  0  0  0
 35 36  1  0  0  0  0
 36 30  1  6  0  0  0
 37  1  1  0  0  0  0
 37 41  1  0  0  0  0
 39 40  1  0  0  0  0
 40 43  1  0  0  0  0
 41 39  2  0  0  0  0
 41 44  1  0  0  0  0
 42 43  1  0  0  0  0
 43 38  1  0  0  0  0
 44 42  2  0  0  0  0
M  END
>  <MODEL>
9

>  <REMARK>
 VINA RESULT:      -8.0      2.531      7.155
  Name = 
  13 active torsions:
  status: ('A' for Active; 'I' for Inactive)
    1  A    between atoms: C_6  and  C_9
    2  A    between atoms: O_7  and  C_38
    3  A    between atoms: O_7  and  C_39
    4  A    between atoms: N_8  and  C_9
    5  A    between atoms: N_8  and  C_27
    6  A    between atoms: C_15  and  C_33
    7  A    between atoms: C_16  and  C_30
    8  A    between atoms: C_16  and  N_41
    9  A    between atoms: C_21  and  N_41
   10  A    between atoms: C_24  and  C_30
   11  A    between atoms: C_24  and  C_37
   12  A    between atoms: C_27  and  C_43
   13  A    between atoms: C_33  and  N_41
                            x       y       z     vdW  Elec       q    Type
                         _______ _______ _______ _____ _____    ______ ____

>  <TORSDO>
F 13

$$$$
