=
 OpenBabel10232411533D

 31 35  0  0  1  0  0  0  0  0999 V2000
  189.6860  175.7710  143.3010 O   0  0  0  0  0  0  0  0  0  0  0  0
  189.8760  176.9860  143.5860 C   0  0  0  0  0  0  0  0  0  0  0  0
  188.7540  177.8500  143.8030 N   0  0  0  0  0  2  0  0  0  0  0  0
  183.1610  179.3470  145.3490 N   0  0  0  0  0  0  0  0  0  0  0  0
  186.8860  177.9590  142.2700 C   0  0  0  0  0  2  0  0  0  0  0  0
  183.3670  178.8830  143.0130 C   0  0  0  0  0  3  0  0  0  0  0  0
  184.8720  178.7900  146.8620 N   0  0  0  0  0  0  0  0  0  0  0  0
  185.1930  178.3710  144.5230 C   0  0  0  0  0  0  0  0  0  0  0  0
  185.3910  177.7540  142.0900 C   0  0  0  0  0  2  0  0  0  0  0  0
  186.9170  177.7840  146.1260 C   0  0  0  0  0  0  0  0  0  0  0  0
  186.4980  177.8880  144.7780 C   0  0  0  0  0  0  0  0  0  0  0  0
  188.2040  177.1440  146.5210 C   0  0  0  0  0  1  0  0  0  0  0  0
  182.6360  179.3780  144.0950 C   0  0  0  0  0  3  0  0  0  0  0  0
  184.6520  178.3810  143.2260 C   0  0  0  0  0  0  0  0  0  0  0  0
  184.4030  178.8490  145.5900 C   0  0  0  0  0  0  0  0  0  0  0  0
  186.0900  178.2600  147.1460 C   0  0  0  0  0  3  0  0  0  0  0  0
  187.3740  177.4170  143.6190 C   0  0  2  0  0  3  0  0  0  0  0  0
  191.2800  177.5560  143.6180 C   0  0  1  0  0  0  0  0  0  0  0  0
  191.2270  179.0860  143.7050 C   0  0  0  0  0  1  0  0  0  0  0  0
  191.9940  177.0220  144.8770 C   0  0  1  0  0  3  0  0  0  0  0  0
  191.5130  177.6500  146.0460 O   0  0  0  0  0  0  0  0  0  0  0  0
  191.2430  176.6370  146.9870 C   0  0  0  0  0  2  0  0  0  0  0  0
  191.8720  175.5170  145.0290 C   0  0  0  0  0  2  0  0  0  0  0  0
  191.8300  175.3350  146.5060 C   0  0  0  0  0  2  0  0  0  0  0  0
  192.0420  177.1390  142.4290 N   0  0  0  0  0  2  0  0  0  0  0  0
  191.6270  177.8820  141.2350 C   0  0  0  0  0  2  0  0  0  0  0  0
  191.7650  176.7950  138.9670 C   0  0  0  0  0  2  0  0  0  0  0  0
  190.7560  176.6870  137.8470 C   0  0  0  0  0  2  0  0  0  0  0  0
  190.9390  176.9660  140.2280 C   0  0  0  0  0  3  0  0  0  0  0  0
  189.5840  177.5130  139.8070 C   0  0  0  0  0  2  0  0  0  0  0  0
  189.5710  177.5200  138.2890 C   0  0  0  0  0  2  0  0  0  0  0  0
  1  2  2  0  0  0  0
  2 18  1  0  0  0  0
  2  3  1  0  0  0  0
  4 15  2  0  0  0  0
  5 17  1  0  0  0  0
  6 14  1  0  0  0  0
  6 13  2  0  0  0  0
  7 16  2  0  0  0  0
  8 11  1  0  0  0  0
  8 15  1  0  0  0  0
  9  5  1  0  0  0  0
  9 14  1  0  0  0  0
 10 12  1  0  0  0  0
 10 16  1  0  0  0  0
 11 10  2  0  0  0  0
 13  4  1  0  0  0  0
 14  8  2  0  0  0  0
 15  7  1  0  0  0  0
 17  3  1  1  0  0  0
 17 11  1  0  0  0  0
 18 19  1  1  0  0  0
 20 18  1  6  0  0  0
 20 23  1  0  0  0  0
 20 21  1  0  0  0  0
 21 22  1  0  0  0  0
 23 24  1  0  0  0  0
 24 22  1  0  0  0  0
 25 18  1  0  0  0  0
 26 25  1  0  0  0  0
 27 29  1  0  0  0  0
 28 31  1  0  0  0  0
 28 27  1  0  0  0  0
 29 26  1  0  0  0  0
 30 29  1  0  0  0  0
 31 30  1  0  0  0  0
M  END
>  <MODEL>
1

>  <REMARK>
 VINA RESULT:      -8.9      0.000      0.000
  Name = 
  6 active torsions:
  status: ('A' for Active; 'I' for Inactive)
    1  A    between atoms: C_1  and  C_10
    2  A    between atoms: C_1  and  N_20
    3  A    between atoms: C_1  and  C_27
    4  A    between atoms: C_13  and  N_20
    5  A    between atoms: C_13  and  C_22
    6  A    between atoms: C_26  and  N_28
                            x       y       z     vdW  Elec       q    Type
                         _______ _______ _______ _____ _____    ______ ____

>  <TORSDO>
F 6

$$$$
=
 OpenBabel10232411533D

 31 35  0  0  1  0  0  0  0  0999 V2000
  188.8230  179.3600  142.0780 O   0  0  0  0  0  0  0  0  0  0  0  0
  188.9350  178.1030  142.1320 C   0  0  0  0  0  0  0  0  0  0  0  0
  189.1720  177.3590  140.9300 N   0  0  0  0  0  2  0  0  0  0  0  0
  190.6840  176.1480  135.2590 N   0  0  0  0  0  0  0  0  0  0  0  0
  187.7960  177.8570  139.0040 C   0  0  0  0  0  2  0  0  0  0  0  0
  188.5310  177.1700  135.4290 C   0  0  0  0  0  3  0  0  0  0  0  0
  192.1640  176.1030  137.0860 N   0  0  0  0  0  0  0  0  0  0  0  0
  189.9880  177.0710  137.3630 C   0  0  0  0  0  0  0  0  0  0  0  0
  187.7790  178.2670  137.5400 C   0  0  0  0  0  2  0  0  0  0  0  0
  191.5610  177.0300  139.2100 C   0  0  0  0  0  0  0  0  0  0  0  0
  190.2630  177.3230  138.7280 C   0  0  0  0  0  0  0  0  0  0  0  0
  192.0120  177.3990  140.5820 C   0  0  0  0  0  1  0  0  0  0  0  0
  189.5020  176.4980  134.6850 C   0  0  0  0  0  3  0  0  0  0  0  0
  188.7710  177.4540  136.7740 C   0  0  0  0  0  0  0  0  0  0  0  0
  190.9540  176.4250  136.5630 C   0  0  0  0  0  0  0  0  0  0  0  0
  192.4850  176.4020  138.3710 C   0  0  0  0  0  3  0  0  0  0  0  0
  189.2000  177.9760  139.6090 C   0  0  2  0  0  3  0  0  0  0  0  0
  188.7370  177.3700  143.4430 C   0  0  1  0  0  0  0  0  0  0  0  0
  188.6900  175.8560  143.1990 C   0  0  0  0  0  1  0  0  0  0  0  0
  189.9390  177.6780  144.3590 C   0  0  1  0  0  3  0  0  0  0  0  0
  189.5320  177.8530  145.7000 O   0  0  0  0  0  0  0  0  0  0  0  0
  190.3900  177.0790  146.5040 C   0  0  0  0  0  2  0  0  0  0  0  0
  191.0140  176.6090  144.2970 C   0  0  0  0  0  2  0  0  0  0  0  0
  191.5620  176.6080  145.6820 C   0  0  0  0  0  2  0  0  0  0  0  0
  187.5050  177.8170  144.1120 N   0  0  0  0  0  2  0  0  0  0  0  0
  186.3330  177.6630  143.2450 C   0  0  0  0  0  2  0  0  0  0  0  0
  184.7800  178.7330  144.9150 C   0  0  0  0  0  2  0  0  0  0  0  0
  183.3360  179.1620  144.8050 C   0  0  0  0  0  2  0  0  0  0  0  0
  185.3140  178.7680  143.4950 C   0  0  0  0  0  3  0  0  0  0  0  0
  184.1170  178.6500  142.5630 C   0  0  0  0  0  2  0  0  0  0  0  0
  182.8780  178.6940  143.4390 C   0  0  0  0  0  2  0  0  0  0  0  0
  1  2  2  0  0  0  0
  2 18  1  0  0  0  0
  3  2  1  0  0  0  0
  4 15  2  0  0  0  0
  5 17  1  0  0  0  0
  6 14  1  0  0  0  0
  7 16  2  0  0  0  0
  8 11  1  0  0  0  0
  9  5  1  0  0  0  0
 10 12  1  0  0  0  0
 11 10  2  0  0  0  0
 11 17  1  0  0  0  0
 13  4  1  0  0  0  0
 13  6  2  0  0  0  0
 14  8  2  0  0  0  0
 14  9  1  0  0  0  0
 15  7  1  0  0  0  0
 15  8  1  0  0  0  0
 16 10  1  0  0  0  0
 17  3  1  1  0  0  0
 18 19  1  6  0  0  0
 18 25  1  0  0  0  0
 20 18  1  6  0  0  0
 20 21  1  0  0  0  0
 21 22  1  0  0  0  0
 23 20  1  0  0  0  0
 23 24  1  0  0  0  0
 24 22  1  0  0  0  0
 26 29  1  0  0  0  0
 26 25  1  0  0  0  0
 28 27  1  0  0  0  0
 29 27  1  0  0  0  0
 30 31  1  0  0  0  0
 30 29  1  0  0  0  0
 31 28  1  0  0  0  0
M  END
>  <MODEL>
2

>  <REMARK>
 VINA RESULT:      -8.5      2.336      7.293
  Name = 
  6 active torsions:
  status: ('A' for Active; 'I' for Inactive)
    1  A    between atoms: C_1  and  C_10
    2  A    between atoms: C_1  and  N_20
    3  A    between atoms: C_1  and  C_27
    4  A    between atoms: C_13  and  N_20
    5  A    between atoms: C_13  and  C_22
    6  A    between atoms: C_26  and  N_28
                            x       y       z     vdW  Elec       q    Type
                         _______ _______ _______ _____ _____    ______ ____

>  <TORSDO>
F 6

$$$$
=
 OpenBabel10232411533D

 31 35  0  0  1  0  0  0  0  0999 V2000
  188.5870  179.0780  141.4670 O   0  0  0  0  0  0  0  0  0  0  0  0
  189.0970  177.9490  141.7090 C   0  0  0  0  0  0  0  0  0  0  0  0
  189.6920  177.1940  140.6460 N   0  0  0  0  0  2  0  0  0  0  0  0
  191.3220  175.3840  135.1700 N   0  0  0  0  0  0  0  0  0  0  0  0
  188.2730  177.2840  138.6890 C   0  0  0  0  0  2  0  0  0  0  0  0
  189.0760  176.1970  135.2290 C   0  0  0  0  0  3  0  0  0  0  0  0
  192.7980  175.7370  136.9670 N   0  0  0  0  0  0  0  0  0  0  0  0
  190.5350  176.5090  137.1400 C   0  0  0  0  0  0  0  0  0  0  0  0
  188.2150  177.4880  137.1830 C   0  0  0  0  0  2  0  0  0  0  0  0
  192.1030  176.8780  138.9540 C   0  0  0  0  0  0  0  0  0  0  0  0
  190.7820  176.9700  138.4540 C   0  0  0  0  0  0  0  0  0  0  0  0
  192.5130  177.4740  140.2580 C   0  0  0  0  0  1  0  0  0  0  0  0
  190.1110  175.5320  134.5700 C   0  0  0  0  0  3  0  0  0  0  0  0
  189.2850  176.6840  136.5210 C   0  0  0  0  0  0  0  0  0  0  0  0
  191.5620  175.8620  136.4210 C   0  0  0  0  0  0  0  0  0  0  0  0
  193.0870  176.2390  138.1950 C   0  0  0  0  0  3  0  0  0  0  0  0
  189.6580  177.6260  139.2530 C   0  0  2  0  0  3  0  0  0  0  0  0
  189.0120  177.3500  143.0980 C   0  0  1  0  0  0  0  0  0  0  0  0
  188.5810  175.8800  143.0140 C   0  0  0  0  0  1  0  0  0  0  0  0
  190.4120  177.4110  143.7430 C   0  0  1  0  0  3  0  0  0  0  0  0
  190.3570  177.9660  145.0400 O   0  0  0  0  0  0  0  0  0  0  0  0
  191.0960  177.1210  145.8900 C   0  0  0  0  0  2  0  0  0  0  0  0
  191.0900  176.0550  143.8060 C   0  0  0  0  0  2  0  0  0  0  0  0
  191.8840  176.1390  145.0630 C   0  0  0  0  0  2  0  0  0  0  0  0
  188.0700  178.1080  143.9390 N   0  0  0  0  0  2  0  0  0  0  0  0
  186.7590  177.4550  144.0050 C   0  0  0  0  0  2  0  0  0  0  0  0
  185.5300  178.8110  145.7360 C   0  0  0  0  0  2  0  0  0  0  0  0
  185.8180  179.0640  147.1970 C   0  0  0  0  0  2  0  0  0  0  0  0
  186.2010  177.4860  145.4230 C   0  0  0  0  0  3  0  0  0  0  0  0
  187.2930  177.2810  146.4610 C   0  0  0  0  0  2  0  0  0  0  0  0
  187.1600  178.4130  147.4640 C   0  0  0  0  0  2  0  0  0  0  0  0
  1  2  2  0  0  0  0
  2 18  1  0  0  0  0
  3  2  1  0  0  0  0
  4 15  2  0  0  0  0
  5 17  1  0  0  0  0
  6 14  1  0  0  0  0
  7 16  2  0  0  0  0
  8 11  1  0  0  0  0
  9  5  1  0  0  0  0
 10 12  1  0  0  0  0
 11 10  2  0  0  0  0
 11 17  1  0  0  0  0
 13  4  1  0  0  0  0
 13  6  2  0  0  0  0
 14  8  2  0  0  0  0
 14  9  1  0  0  0  0
 15  7  1  0  0  0  0
 15  8  1  0  0  0  0
 16 10  1  0  0  0  0
 17  3  1  1  0  0  0
 18 19  1  6  0  0  0
 18 25  1  0  0  0  0
 20 18  1  1  0  0  0
 20 23  1  0  0  0  0
 20 21  1  0  0  0  0
 21 22  1  0  0  0  0
 23 24  1  0  0  0  0
 24 22  1  0  0  0  0
 25 26  1  0  0  0  0
 26 29  1  0  0  0  0
 27 28  1  0  0  0  0
 28 31  1  0  0  0  0
 29 27  1  0  0  0  0
 29 30  1  0  0  0  0
 30 31  1  0  0  0  0
M  END
>  <MODEL>
3

>  <REMARK>
 VINA RESULT:      -8.5      2.373      7.691
  Name = 
  6 active torsions:
  status: ('A' for Active; 'I' for Inactive)
    1  A    between atoms: C_1  and  C_10
    2  A    between atoms: C_1  and  N_20
    3  A    between atoms: C_1  and  C_27
    4  A    between atoms: C_13  and  N_20
    5  A    between atoms: C_13  and  C_22
    6  A    between atoms: C_26  and  N_28
                            x       y       z     vdW  Elec       q    Type
                         _______ _______ _______ _____ _____    ______ ____

>  <TORSDO>
F 6

$$$$
=
 OpenBabel10232411533D

 31 35  0  0  1  0  0  0  0  0999 V2000
  185.1360  179.8560  140.3160 O   0  0  0  0  0  0  0  0  0  0  0  0
  184.5380  178.8120  140.6980 C   0  0  0  0  0  0  0  0  0  0  0  0
  184.9670  178.1430  141.8900 N   0  0  0  0  0  2  0  0  0  0  0  0
  187.6080  177.2790  147.2000 N   0  0  0  0  0  0  0  0  0  0  0  0
  187.3250  177.7000  142.1970 C   0  0  0  0  0  2  0  0  0  0  0  0
  189.1480  177.1140  145.3790 C   0  0  0  0  0  3  0  0  0  0  0  0
  185.4470  178.1550  146.8980 N   0  0  0  0  0  0  0  0  0  0  0  0
  186.9010  177.9420  145.0030 C   0  0  0  0  0  0  0  0  0  0  0  0
  188.5390  177.8990  143.0910 C   0  0  0  0  0  2  0  0  0  0  0  0
  184.6740  178.8690  144.7480 C   0  0  0  0  0  0  0  0  0  0  0  0
  185.8810  178.4320  144.1530 C   0  0  0  0  0  0  0  0  0  0  0  0
  183.5950  179.5480  143.9720 C   0  0  0  0  0  1  0  0  0  0  0  0
  188.8380  176.9400  146.7290 C   0  0  0  0  0  3  0  0  0  0  0  0
  188.1750  177.6120  144.5110 C   0  0  0  0  0  0  0  0  0  0  0  0
  186.6450  177.7830  146.3820 C   0  0  0  0  0  0  0  0  0  0  0  0
  184.4770  178.7010  146.1200 C   0  0  0  0  0  3  0  0  0  0  0  0
  186.1380  178.5580  142.6530 C   0  0  2  0  0  3  0  0  0  0  0  0
  183.4250  178.2150  139.8600 C   0  0  1  0  0  0  0  0  0  0  0  0
  183.1500  176.7710  140.3010 C   0  0  0  0  0  1  0  0  0  0  0  0
  182.1450  179.0460  140.0870 C   0  0  1  0  0  3  0  0  0  0  0  0
  181.2640  178.9410  138.9880 O   0  0  0  0  0  0  0  0  0  0  0  0
  179.9820  178.6690  139.5020 C   0  0  0  0  0  2  0  0  0  0  0  0
  181.4110  178.6600  141.3570 C   0  0  0  0  0  2  0  0  0  0  0  0
  179.9830  178.8790  140.9940 C   0  0  0  0  0  2  0  0  0  0  0  0
  183.7680  178.2540  138.4290 N   0  0  0  0  0  2  0  0  0  0  0  0
  184.4520  177.0290  138.0050 C   0  0  0  0  0  2  0  0  0  0  0  0
  186.1660  176.1320  136.3910 C   0  0  0  0  0  2  0  0  0  0  0  0
  187.6700  176.2690  136.3520 C   0  0  0  0  0  2  0  0  0  0  0  0
  185.6770  177.3480  137.1550 C   0  0  0  0  0  3  0  0  0  0  0  0
  186.8370  177.8410  138.0050 C   0  0  0  0  0  2  0  0  0  0  0  0
  188.0430  177.0000  137.6250 C   0  0  0  0  0  2  0  0  0  0  0  0
  1  2  2  0  0  0  0
  2  3  1  0  0  0  0
  5 17  1  0  0  0  0
  5  9  1  0  0  0  0
  6 13  2  0  0  0  0
  8 15  1  0  0  0  0
  9 14  1  0  0  0  0
 10 16  1  0  0  0  0
 11 10  2  0  0  0  0
 11  8  1  0  0  0  0
 12 10  1  0  0  0  0
 13  4  1  0  0  0  0
 14  8  2  0  0  0  0
 14  6  1  0  0  0  0
 15  7  1  0  0  0  0
 15  4  2  0  0  0  0
 16  7  2  0  0  0  0
 17  3  1  6  0  0  0
 17 11  1  0  0  0  0
 18 19  1  1  0  0  0
 18  2  1  0  0  0  0
 20 18  1  6  0  0  0
 20 23  1  0  0  0  0
 21 22  1  0  0  0  0
 21 20  1  0  0  0  0
 22 24  1  0  0  0  0
 24 23  1  0  0  0  0
 25 18  1  0  0  0  0
 26 25  1  0  0  0  0
 27 29  1  0  0  0  0
 28 27  1  0  0  0  0
 28 31  1  0  0  0  0
 29 30  1  0  0  0  0
 29 26  1  0  0  0  0
 31 30  1  0  0  0  0
M  END
>  <MODEL>
4

>  <REMARK>
 VINA RESULT:      -8.4      3.511      6.967
  Name = 
  6 active torsions:
  status: ('A' for Active; 'I' for Inactive)
    1  A    between atoms: C_1  and  C_10
    2  A    between atoms: C_1  and  N_20
    3  A    between atoms: C_1  and  C_27
    4  A    between atoms: C_13  and  N_20
    5  A    between atoms: C_13  and  C_22
    6  A    between atoms: C_26  and  N_28
                            x       y       z     vdW  Elec       q    Type
                         _______ _______ _______ _____ _____    ______ ____

>  <TORSDO>
F 6

$$$$
=
 OpenBabel10232411533D

 31 35  0  0  1  0  0  0  0  0999 V2000
  189.0750  179.2550  138.6080 O   0  0  0  0  0  0  0  0  0  0  0  0
  188.3560  178.2200  138.6750 C   0  0  0  0  0  0  0  0  0  0  0  0
  187.8810  177.7650  139.9480 N   0  0  0  0  0  2  0  0  0  0  0  0
  186.7010  177.5260  145.8190 N   0  0  0  0  0  0  0  0  0  0  0  0
  189.5610  177.7260  141.6880 C   0  0  0  0  0  2  0  0  0  0  0  0
  189.0460  177.5550  145.3620 C   0  0  0  0  0  3  0  0  0  0  0  0
  185.1230  178.0230  144.1480 N   0  0  0  0  0  0  0  0  0  0  0  0
  187.4540  177.9890  143.5870 C   0  0  0  0  0  0  0  0  0  0  0  0
  189.9200  178.1520  143.1020 C   0  0  0  0  0  2  0  0  0  0  0  0
  185.7910  178.5280  141.9040 C   0  0  0  0  0  0  0  0  0  0  0  0
  187.1430  178.2760  142.2360 C   0  0  0  0  0  0  0  0  0  0  0  0
  185.3680  178.9940  140.5520 C   0  0  0  0  0  1  0  0  0  0  0  0
  187.9830  177.3780  146.2480 C   0  0  0  0  0  3  0  0  0  0  0  0
  188.7830  177.8570  144.0250 C   0  0  0  0  0  0  0  0  0  0  0  0
  186.4120  177.8360  144.5260 C   0  0  0  0  0  0  0  0  0  0  0  0
  184.8000  178.3750  142.8770 C   0  0  0  0  0  3  0  0  0  0  0  0
  188.2660  178.3920  141.2070 C   0  0  2  0  0  3  0  0  0  0  0  0
  188.0620  177.4090  137.4300 C   0  0  1  0  0  0  0  0  0  0  0  0
  187.4580  178.3090  136.3440 C   0  0  0  0  0  1  0  0  0  0  0  0
  189.3890  176.8300  136.8990 C   0  0  1  0  0  3  0  0  0  0  0  0
  190.0030  175.9920  137.8560 O   0  0  0  0  0  0  0  0  0  0  0  0
  190.3770  174.8050  137.1970 C   0  0  0  0  0  2  0  0  0  0  0  0
  189.2210  176.0680  135.5990 C   0  0  0  0  0  2  0  0  0  0  0  0
  190.2490  174.9950  135.7080 C   0  0  0  0  0  2  0  0  0  0  0  0
  187.1480  176.2950  137.7340 N   0  0  0  0  0  2  0  0  0  0  0  0
  185.8900  176.4100  136.9910 C   0  0  0  0  0  2  0  0  0  0  0  0
  183.9990  174.7480  137.0880 C   0  0  0  0  0  2  0  0  0  0  0  0
  183.9880  173.2620  137.3590 C   0  0  0  0  0  2  0  0  0  0  0  0
  185.3860  175.0420  136.5460 C   0  0  0  0  0  3  0  0  0  0  0  0
  186.3000  173.9250  137.0240 C   0  0  0  0  0  2  0  0  0  0  0  0
  185.4150  172.9060  137.7190 C   0  0  0  0  0  2  0  0  0  0  0  0
  1  2  2  0  0  0  0
  2  3  1  0  0  0  0
  4 13  1  0  0  0  0
  5  9  1  0  0  0  0
  6 13  2  0  0  0  0
  7 15  1  0  0  0  0
  8 14  2  0  0  0  0
  8 15  1  0  0  0  0
  9 14  1  0  0  0  0
 10 11  2  0  0  0  0
 10 16  1  0  0  0  0
 11  8  1  0  0  0  0
 12 10  1  0  0  0  0
 14  6  1  0  0  0  0
 15  4  2  0  0  0  0
 16  7  2  0  0  0  0
 17  3  1  6  0  0  0
 17  5  1  0  0  0  0
 17 11  1  0  0  0  0
 18 19  1  6  0  0  0
 18 25  1  0  0  0  0
 18  2  1  0  0  0  0
 20 18  1  1  0  0  0
 20 21  1  0  0  0  0
 22 21  1  0  0  0  0
 23 24  1  0  0  0  0
 23 20  1  0  0  0  0
 24 22  1  0  0  0  0
 26 25  1  0  0  0  0
 27 28  1  0  0  0  0
 28 31  1  0  0  0  0
 29 26  1  0  0  0  0
 29 30  1  0  0  0  0
 29 27  1  0  0  0  0
 30 31  1  0  0  0  0
M  END
>  <MODEL>
5

>  <REMARK>
 VINA RESULT:      -8.3      3.488      6.374
  Name = 
  6 active torsions:
  status: ('A' for Active; 'I' for Inactive)
    1  A    between atoms: C_1  and  C_10
    2  A    between atoms: C_1  and  N_20
    3  A    between atoms: C_1  and  C_27
    4  A    between atoms: C_13  and  N_20
    5  A    between atoms: C_13  and  C_22
    6  A    between atoms: C_26  and  N_28
                            x       y       z     vdW  Elec       q    Type
                         _______ _______ _______ _____ _____    ______ ____

>  <TORSDO>
F 6

$$$$
=
 OpenBabel10232411533D

 31 35  0  0  1  0  0  0  0  0999 V2000
  188.9810  179.1630  138.8610 O   0  0  0  0  0  0  0  0  0  0  0  0
  188.3740  178.0720  139.0460 C   0  0  0  0  0  0  0  0  0  0  0  0
  188.2890  177.5190  140.3660 N   0  0  0  0  0  2  0  0  0  0  0  0
  188.5090  177.1160  146.3410 N   0  0  0  0  0  0  0  0  0  0  0  0
  190.3290  177.4390  141.6640 C   0  0  0  0  0  2  0  0  0  0  0  0
  190.6840  177.1660  145.3510 C   0  0  0  0  0  3  0  0  0  0  0  0
  186.5870  177.6530  145.0980 N   0  0  0  0  0  0  0  0  0  0  0  0
  188.7230  177.6430  144.0080 C   0  0  0  0  0  0  0  0  0  0  0  0
  191.0080  177.8280  142.9680 C   0  0  0  0  0  2  0  0  0  0  0  0
  186.7150  178.2210  142.7750 C   0  0  0  0  0  0  0  0  0  0  0  0
  188.1070  177.9650  142.7760 C   0  0  0  0  0  0  0  0  0  0  0  0
  185.9900  178.7220  141.5720 C   0  0  0  0  0  1  0  0  0  0  0  0
  189.8550  176.9610  146.4560 C   0  0  0  0  0  3  0  0  0  0  0  0
  190.1170  177.5040  144.1210 C   0  0  0  0  0  0  0  0  0  0  0  0
  187.9280  177.4610  145.1600 C   0  0  0  0  0  0  0  0  0  0  0  0
  185.9770  178.0390  143.9470 C   0  0  0  0  0  3  0  0  0  0  0  0
  188.9590  178.1140  141.5170 C   0  0  2  0  0  3  0  0  0  0  0  0
  187.8070  177.3010  137.8720 C   0  0  1  0  0  0  0  0  0  0  0  0
  188.1440  178.0170  136.5570 C   0  0  0  0  0  1  0  0  0  0  0  0
  188.4590  175.9030  137.8450 C   0  0  1  0  0  3  0  0  0  0  0  0
  187.8170  175.0540  136.9170 O   0  0  0  0  0  0  0  0  0  0  0  0
  188.8220  174.4420  136.1430 C   0  0  0  0  0  2  0  0  0  0  0  0
  189.9430  175.9530  137.5370 C   0  0  0  0  0  2  0  0  0  0  0  0
  190.1670  174.6930  136.7760 C   0  0  0  0  0  2  0  0  0  0  0  0
  186.3490  177.1410  138.0040 N   0  0  0  0  0  2  0  0  0  0  0  0
  185.6550  178.4300  137.9260 C   0  0  0  0  0  2  0  0  0  0  0  0
  183.5540  179.3750  138.9450 C   0  0  0  0  0  2  0  0  0  0  0  0
  182.4500  178.7220  139.7440 C   0  0  0  0  0  2  0  0  0  0  0  0
  184.1520  178.2580  138.1090 C   0  0  0  0  0  3  0  0  0  0  0  0
  183.8180  176.9480  138.8060 C   0  0  0  0  0  2  0  0  0  0  0  0
  182.9010  177.2940  139.9670 C   0  0  0  0  0  2  0  0  0  0  0  0
  1  2  2  0  0  0  0
  2  3  1  0  0  0  0
  4 13  1  0  0  0  0
  5  9  1  0  0  0  0
  6 13  2  0  0  0  0
  7 15  1  0  0  0  0
  8 14  2  0  0  0  0
  8 15  1  0  0  0  0
  9 14  1  0  0  0  0
 10 11  2  0  0  0  0
 10 16  1  0  0  0  0
 11  8  1  0  0  0  0
 12 10  1  0  0  0  0
 14  6  1  0  0  0  0
 15  4  2  0  0  0  0
 16  7  2  0  0  0  0
 17  3  1  6  0  0  0
 17  5  1  0  0  0  0
 17 11  1  0  0  0  0
 18 19  1  6  0  0  0
 18 25  1  0  0  0  0
 18  2  1  0  0  0  0
 20 18  1  6  0  0  0
 21 20  1  0  0  0  0
 22 24  1  0  0  0  0
 22 21  1  0  0  0  0
 23 20  1  0  0  0  0
 24 23  1  0  0  0  0
 26 25  1  0  0  0  0
 26 29  1  0  0  0  0
 27 28  1  0  0  0  0
 28 31  1  0  0  0  0
 29 30  1  0  0  0  0
 29 27  1  0  0  0  0
 30 31  1  0  0  0  0
M  END
>  <MODEL>
6

>  <REMARK>
 VINA RESULT:      -8.3      3.012      6.601
  Name = 
  6 active torsions:
  status: ('A' for Active; 'I' for Inactive)
    1  A    between atoms: C_1  and  C_10
    2  A    between atoms: C_1  and  N_20
    3  A    between atoms: C_1  and  C_27
    4  A    between atoms: C_13  and  N_20
    5  A    between atoms: C_13  and  C_22
    6  A    between atoms: C_26  and  N_28
                            x       y       z     vdW  Elec       q    Type
                         _______ _______ _______ _____ _____    ______ ____

>  <TORSDO>
F 6

$$$$
=
 OpenBabel10232411533D

 31 35  0  0  1  0  0  0  0  0999 V2000
  185.0270  179.7550  140.1040 O   0  0  0  0  0  0  0  0  0  0  0  0
  184.4250  178.7290  140.5270 C   0  0  0  0  0  0  0  0  0  0  0  0
  184.8410  178.1160  141.7540 N   0  0  0  0  0  2  0  0  0  0  0  0
  187.5570  177.3110  147.0340 N   0  0  0  0  0  0  0  0  0  0  0  0
  187.2160  177.7540  142.0370 C   0  0  0  0  0  2  0  0  0  0  0  0
  189.0860  177.2120  145.2000 C   0  0  0  0  0  3  0  0  0  0  0  0
  185.3640  178.1120  146.7570 N   0  0  0  0  0  0  0  0  0  0  0  0
  186.8080  177.9630  144.8490 C   0  0  0  0  0  0  0  0  0  0  0  0
  188.4290  177.9910  142.9220 C   0  0  0  0  0  2  0  0  0  0  0  0
  184.5470  178.8120  144.6180 C   0  0  0  0  0  0  0  0  0  0  0  0
  185.7640  178.4220  144.0110 C   0  0  0  0  0  0  0  0  0  0  0  0
  183.4390  179.4580  143.8570 C   0  0  0  0  0  1  0  0  0  0  0  0
  188.7940  177.0190  146.5510 C   0  0  0  0  0  3  0  0  0  0  0  0
  188.0890  177.6810  144.3430 C   0  0  0  0  0  0  0  0  0  0  0  0
  186.5700  177.7860  146.2280 C   0  0  0  0  0  0  0  0  0  0  0  0
  184.3680  178.6290  145.9910 C   0  0  0  0  0  3  0  0  0  0  0  0
  186.0040  178.5670  142.5090 C   0  0  2  0  0  3  0  0  0  0  0  0
  183.3220  178.0930  139.7060 C   0  0  1  0  0  0  0  0  0  0  0  0
  182.8070  176.8280  140.4040 C   0  0  0  0  0  1  0  0  0  0  0  0
  182.1560  179.0970  139.5950 C   0  0  1  0  0  3  0  0  0  0  0  0
  182.2720  179.8920  138.4330 O   0  0  0  0  0  0  0  0  0  0  0  0
  181.0160  179.8890  137.7950 C   0  0  0  0  0  2  0  0  0  0  0  0
  180.7970  178.4230  139.6080 C   0  0  0  0  0  2  0  0  0  0  0  0
  179.9830  179.2990  138.7200 C   0  0  0  0  0  2  0  0  0  0  0  0
  183.7980  177.7680  138.3510 N   0  0  0  0  0  2  0  0  0  0  0  0
  183.6990  176.3320  138.0730 C   0  0  0  0  0  2  0  0  0  0  0  0
  182.9330  177.2940  135.8750 C   0  0  0  0  0  2  0  0  0  0  0  0
  181.5880  177.2690  135.1870 C   0  0  0  0  0  2  0  0  0  0  0  0
  182.9400  176.0740  136.7770 C   0  0  0  0  0  3  0  0  0  0  0  0
  181.4890  175.7020  137.0400 C   0  0  0  0  0  2  0  0  0  0  0  0
  180.6410  176.6160  136.1730 C   0  0  0  0  0  2  0  0  0  0  0  0
  1  2  2  0  0  0  0
  2  3  1  0  0  0  0
  5 17  1  0  0  0  0
  5  9  1  0  0  0  0
  6 13  2  0  0  0  0
  8 15  1  0  0  0  0
  9 14  1  0  0  0  0
 10 16  1  0  0  0  0
 11 10  2  0  0  0  0
 11  8  1  0  0  0  0
 12 10  1  0  0  0  0
 13  4  1  0  0  0  0
 14  8  2  0  0  0  0
 14  6  1  0  0  0  0
 15  7  1  0  0  0  0
 15  4  2  0  0  0  0
 16  7  2  0  0  0  0
 17  3  1  6  0  0  0
 17 11  1  0  0  0  0
 18 19  1  1  0  0  0
 18  2  1  0  0  0  0
 20 23  1  0  0  0  0
 20 18  1  6  0  0  0
 21 20  1  0  0  0  0
 22 21  1  0  0  0  0
 22 24  1  0  0  0  0
 24 23  1  0  0  0  0
 25 18  1  0  0  0  0
 26 25  1  0  0  0  0
 27 29  1  0  0  0  0
 28 27  1  0  0  0  0
 28 31  1  0  0  0  0
 29 30  1  0  0  0  0
 29 26  1  0  0  0  0
 31 30  1  0  0  0  0
M  END
>  <MODEL>
7

>  <REMARK>
 VINA RESULT:      -8.3      4.478      7.852
  Name = 
  6 active torsions:
  status: ('A' for Active; 'I' for Inactive)
    1  A    between atoms: C_1  and  C_10
    2  A    between atoms: C_1  and  N_20
    3  A    between atoms: C_1  and  C_27
    4  A    between atoms: C_13  and  N_20
    5  A    between atoms: C_13  and  C_22
    6  A    between atoms: C_26  and  N_28
                            x       y       z     vdW  Elec       q    Type
                         _______ _______ _______ _____ _____    ______ ____

>  <TORSDO>
F 6

$$$$
=
 OpenBabel10232411533D

 31 35  0  0  1  0  0  0  0  0999 V2000
  185.0030  179.6420  140.1390 O   0  0  0  0  0  0  0  0  0  0  0  0
  184.4390  178.5850  140.5370 C   0  0  0  0  0  0  0  0  0  0  0  0
  184.8440  177.9840  141.7730 N   0  0  0  0  0  2  0  0  0  0  0  0
  187.1930  177.5710  147.2710 N   0  0  0  0  0  0  0  0  0  0  0  0
  187.1910  177.6310  142.2430 C   0  0  0  0  0  2  0  0  0  0  0  0
  188.8390  177.3220  145.5560 C   0  0  0  0  0  3  0  0  0  0  0  0
  185.0320  178.3610  146.7860 N   0  0  0  0  0  0  0  0  0  0  0  0
  186.5980  178.0580  144.9960 C   0  0  0  0  0  0  0  0  0  0  0  0
  188.3450  177.9270  143.1870 C   0  0  0  0  0  2  0  0  0  0  0  0
  184.3680  178.9000  144.5500 C   0  0  0  0  0  0  0  0  0  0  0  0
  185.6180  178.4570  144.0570 C   0  0  0  0  0  0  0  0  0  0  0  0
  183.3200  179.4920  143.6680 C   0  0  0  0  0  1  0  0  0  0  0  0
  188.4560  177.2350  146.8960 C   0  0  0  0  0  3  0  0  0  0  0  0
  187.9070  177.7300  144.6010 C   0  0  0  0  0  0  0  0  0  0  0  0
  186.2670  177.9880  146.3660 C   0  0  0  0  0  0  0  0  0  0  0  0
  184.0960  178.8230  145.9180 C   0  0  0  0  0  3  0  0  0  0  0  0
  185.9590  178.4850  142.5690 C   0  0  2  0  0  3  0  0  0  0  0  0
  183.3950  177.9020  139.6770 C   0  0  1  0  0  0  0  0  0  0  0  0
  182.6200  176.8710  140.5060 C   0  0  0  0  0  1  0  0  0  0  0  0
  182.4010  178.9710  139.1770 C   0  0  1  0  0  3  0  0  0  0  0  0
  182.1240  178.8110  137.8010 O   0  0  0  0  0  0  0  0  0  0  0  0
  180.7260  178.8700  137.6440 C   0  0  0  0  0  2  0  0  0  0  0  0
  181.0980  178.9710  139.9530 C   0  0  0  0  0  2  0  0  0  0  0  0
  180.0960  179.3600  138.9220 C   0  0  0  0  0  2  0  0  0  0  0  0
  184.0190  177.2540  138.5110 N   0  0  0  0  0  2  0  0  0  0  0  0
  183.4520  175.9240  138.2660 C   0  0  0  0  0  2  0  0  0  0  0  0
  184.5550  173.7310  137.7020 C   0  0  0  0  0  2  0  0  0  0  0  0
  185.9400  173.4110  137.1890 C   0  0  0  0  0  2  0  0  0  0  0  0
  184.2820  175.1520  137.2460 C   0  0  0  0  0  3  0  0  0  0  0  0
  185.6300  175.8130  137.0040 C   0  0  0  0  0  2  0  0  0  0  0  0
  186.6820  174.7310  137.1780 C   0  0  0  0  0  2  0  0  0  0  0  0
  1  2  2  0  0  0  0
  2  3  1  0  0  0  0
  5 17  1  0  0  0  0
  5  9  1  0  0  0  0
  6 13  2  0  0  0  0
  8 15  1  0  0  0  0
  9 14  1  0  0  0  0
 10 16  1  0  0  0  0
 11 10  2  0  0  0  0
 11  8  1  0  0  0  0
 12 10  1  0  0  0  0
 13  4  1  0  0  0  0
 14  8  2  0  0  0  0
 14  6  1  0  0  0  0
 15  7  1  0  0  0  0
 15  4  2  0  0  0  0
 16  7  2  0  0  0  0
 17  3  1  6  0  0  0
 17 11  1  0  0  0  0
 18 19  1  1  0  0  0
 18  2  1  0  0  0  0
 20 18  1  1  0  0  0
 20 23  1  0  0  0  0
 21 20  1  0  0  0  0
 22 21  1  0  0  0  0
 22 24  1  0  0  0  0
 24 23  1  0  0  0  0
 25 18  1  0  0  0  0
 26 25  1  0  0  0  0
 28 27  1  0  0  0  0
 29 27  1  0  0  0  0
 29 26  1  0  0  0  0
 30 31  1  0  0  0  0
 30 29  1  0  0  0  0
 31 28  1  0  0  0  0
M  END
>  <MODEL>
8

>  <REMARK>
 VINA RESULT:      -8.2      4.032      7.369
  Name = 
  6 active torsions:
  status: ('A' for Active; 'I' for Inactive)
    1  A    between atoms: C_1  and  C_10
    2  A    between atoms: C_1  and  N_20
    3  A    between atoms: C_1  and  C_27
    4  A    between atoms: C_13  and  N_20
    5  A    between atoms: C_13  and  C_22
    6  A    between atoms: C_26  and  N_28
                            x       y       z     vdW  Elec       q    Type
                         _______ _______ _______ _____ _____    ______ ____

>  <TORSDO>
F 6

$$$$
=
 OpenBabel10232411533D

 31 35  0  0  1  0  0  0  0  0999 V2000
  184.4770  180.2600  139.1910 O   0  0  0  0  0  0  0  0  0  0  0  0
  183.9710  179.1950  139.6420 C   0  0  0  0  0  0  0  0  0  0  0  0
  184.6340  178.4830  140.6950 N   0  0  0  0  0  2  0  0  0  0  0  0
  188.7050  176.8320  144.7710 N   0  0  0  0  0  0  0  0  0  0  0  0
  187.0120  178.3310  140.2800 C   0  0  0  0  0  2  0  0  0  0  0  0
  189.6870  177.3100  142.6460 C   0  0  0  0  0  3  0  0  0  0  0  0
  186.4820  177.4280  145.2540 N   0  0  0  0  0  0  0  0  0  0  0  0
  187.3650  177.8650  143.0680 C   0  0  0  0  0  0  0  0  0  0  0  0
  188.4060  178.4970  140.8640 C   0  0  0  0  0  2  0  0  0  0  0  0
  185.0880  178.4910  143.6230 C   0  0  0  0  0  0  0  0  0  0  0  0
  186.1140  178.3810  142.6540 C   0  0  0  0  0  0  0  0  0  0  0  0
  183.7870  179.1640  143.3420 C   0  0  0  0  0  1  0  0  0  0  0  0
  189.7790  176.7910  143.9390 C   0  0  0  0  0  3  0  0  0  0  0  0
  188.4750  177.8450  142.2060 C   0  0  0  0  0  0  0  0  0  0  0  0
  187.5160  177.3620  144.3770 C   0  0  0  0  0  0  0  0  0  0  0  0
  185.2940  177.9890  144.9100 C   0  0  0  0  0  3  0  0  0  0  0  0
  185.9340  178.8810  141.2220 C   0  0  2  0  0  3  0  0  0  0  0  0
  182.7140  178.6190  139.0220 C   0  0  1  0  0  0  0  0  0  0  0  0
  183.0400  177.9780  137.6670 C   0  0  0  0  0  1  0  0  0  0  0  0
  182.1660  177.5240  139.9600 C   0  0  1  0  0  3  0  0  0  0  0  0
  180.8840  177.8590  140.4480 O   0  0  0  0  0  0  0  0  0  0  0  0
  180.0620  176.7280  140.2800 C   0  0  0  0  0  2  0  0  0  0  0  0
  182.1110  176.1590  139.3000 C   0  0  0  0  0  2  0  0  0  0  0  0
  180.9120  175.5360  139.9260 C   0  0  0  0  0  2  0  0  0  0  0  0
  181.6860  179.6610  138.8590 N   0  0  0  0  0  2  0  0  0  0  0  0
  181.2650  179.7890  137.4610 C   0  0  0  0  0  2  0  0  0  0  0  0
  180.6090  181.5890  135.8260 C   0  0  0  0  0  2  0  0  0  0  0  0
  180.5790  183.0940  135.9550 C   0  0  0  0  0  2  0  0  0  0  0  0
  180.4620  181.0660  137.2430 C   0  0  0  0  0  3  0  0  0  0  0  0
  180.9110  182.1770  138.1790 C   0  0  0  0  0  2  0  0  0  0  0  0
  181.1780  183.3950  137.3130 C   0  0  0  0  0  2  0  0  0  0  0  0
  1  2  2  0  0  0  0
  2  3  1  0  0  0  0
  5  9  1  0  0  0  0
  5 17  1  0  0  0  0
  6 13  2  0  0  0  0
  8 15  1  0  0  0  0
  9 14  1  0  0  0  0
 10 16  1  0  0  0  0
 11  8  1  0  0  0  0
 11 10  2  0  0  0  0
 12 10  1  0  0  0  0
 13  4  1  0  0  0  0
 14  6  1  0  0  0  0
 14  8  2  0  0  0  0
 15  4  2  0  0  0  0
 15  7  1  0  0  0  0
 16  7  2  0  0  0  0
 17  3  1  6  0  0  0
 17 11  1  0  0  0  0
 18 19  1  6  0  0  0
 18  2  1  0  0  0  0
 20 18  1  6  0  0  0
 20 21  1  0  0  0  0
 22 21  1  0  0  0  0
 23 24  1  0  0  0  0
 23 20  1  0  0  0  0
 24 22  1  0  0  0  0
 25 18  1  0  0  0  0
 26 25  1  0  0  0  0
 27 28  1  0  0  0  0
 27 29  1  0  0  0  0
 28 31  1  0  0  0  0
 29 26  1  0  0  0  0
 29 30  1  0  0  0  0
 31 30  1  0  0  0  0
M  END
>  <MODEL>
9

>  <REMARK>
 VINA RESULT:      -8.2      4.773      8.486
  Name = 
  6 active torsions:
  status: ('A' for Active; 'I' for Inactive)
    1  A    between atoms: C_1  and  C_10
    2  A    between atoms: C_1  and  N_20
    3  A    between atoms: C_1  and  C_27
    4  A    between atoms: C_13  and  N_20
    5  A    between atoms: C_13  and  C_22
    6  A    between atoms: C_26  and  N_28
                            x       y       z     vdW  Elec       q    Type
                         _______ _______ _______ _____ _____    ______ ____

>  <TORSDO>
F 6

$$$$
