=
 OpenBabel10232408003D

 46 49  0  0  1  0  0  0  0  0999 V2000
  191.4880  176.5170  143.9250 C   0  0  0  0  0  2  0  0  0  0  0  0
  188.6320  177.2020  144.3670 N   0  0  0  0  0  0  0  0  0  0  0  0
  189.7060  176.8150  142.1870 C   0  0  0  0  0  2  0  0  0  0  0  0
  188.7460  176.2650  143.2460 C   0  0  0  0  0  2  0  0  0  0  0  0
  190.9700  177.4100  142.8070 C   0  0  2  0  0  3  0  0  0  0  0  0
  189.5760  177.1490  145.4640 C   0  0  0  0  0  0  0  0  0  0  0  0
  190.8920  176.8550  145.2660 C   0  0  0  0  0  0  0  0  0  0  0  0
  191.7800  176.7530  146.3750 N   0  0  0  0  0  1  0  0  0  0  0  0
  188.0280  177.2630  148.6580 C   0  0  0  0  0  3  0  0  0  0  0  0
  189.4150  178.4970  147.5750 N   0  0  0  0  0  0  0  0  0  0  0  0
  188.7650  178.3870  148.7210 N   0  0  0  0  0  0  0  0  0  0  0  0
  188.1920  176.6340  147.4770 N   0  0  0  0  0  2  0  0  0  0  0  0
  189.0650  177.4330  146.8320 C   0  0  0  0  0  0  0  0  0  0  0  0
  187.5410  178.1850  144.4140 C   0  0  0  0  0  2  0  0  0  0  0  0
  186.1630  177.5600  144.5820 C   0  0  0  0  0  2  0  0  0  0  0  0
  185.3180  178.0920  142.3660 C   0  0  0  0  0  3  0  0  0  0  0  0
  185.2050  178.2360  143.6770 C   0  0  0  0  0  3  0  0  0  0  0  0
  183.4110  178.0810  140.9350 N   0  0  0  0  0  0  0  0  0  0  0  0
  184.3690  178.7590  141.4800 C   0  0  0  0  0  3  0  0  0  0  0  0
  182.4570  178.7380  140.0530 C   0  0  1  0  0  3  0  0  0  0  0  0
  183.3190  179.8850  138.9380 S   0  0  0  0  0  1  0  0  0  0  0  0
  181.7560  177.7430  139.2590 N   0  0  0  0  0  2  0  0  0  0  0  0
  181.2440  174.5010  137.6930 N   0  0  0  0  0  0  0  0  0  0  0  0
  180.3250  175.1680  138.6240 C   0  0  0  0  0  2  0  0  0  0  0  0
  183.1290  175.8220  138.6020 C   0  0  0  0  0  2  0  0  0  0  0  0
  180.4560  174.2570  136.4930 C   0  0  0  0  0  1  0  0  0  0  0  0
  182.3380  175.4310  137.3470 C   0  0  1  0  0  3  0  0  0  0  0  0
  181.0310  175.4870  139.9360 C   0  0  0  0  0  2  0  0  0  0  0  0
  183.3170  174.7820  136.3760 C   0  0  0  0  0  1  0  0  0  0  0  0
  182.2190  176.4230  139.6750 C   0  0  2  0  0  3  0  0  0  0  0  0
  192.0420  177.5660  141.7430 C   0  0  0  0  0  2  0  0  0  0  0  0
  193.6230  177.1860  139.3770 O   0  0  0  0  0  0  0  0  0  0  0  0
  191.5500  177.0910  140.4570 N   0  0  0  0  0  2  0  0  0  0  0  0
  192.4000  176.8880  139.3270 C   0  0  0  0  0  0  0  0  0  0  0  0
  191.8330  176.3020  138.0850 C   0  0  0  0  0  2  0  0  0  0  0  0
  190.7920  175.3490  138.4260 N   0  0  0  0  0  2  0  0  0  0  0  0
  189.9580  175.2030  137.2410 C   0  0  1  0  0  3  0  0  0  0  0  0
  190.3020  173.6870  135.3020 C   0  0  0  0  0  2  0  0  0  0  0  0
  191.3580  173.3690  136.3370 C   0  0  0  0  0  2  0  0  0  0  0  0
  189.9610  173.7540  136.7800 C   0  0  0  0  0  3  0  0  0  0  0  0
  188.5440  175.6440  137.5650 C   0  0  0  0  0  2  0  0  0  0  0  0
  188.0850  176.5620  136.5460 N   0  0  0  0  0  2  0  0  0  0  0  0
  189.1010  177.5920  136.4040 C   0  0  0  0  0  2  0  0  0  0  0  0
  189.1510  178.8840  138.5130 C   0  0  0  0  0  1  0  0  0  0  0  0
  188.6430  178.8640  137.0880 C   0  0  2  0  0  3  0  0  0  0  0  0
  187.2500  178.9190  137.0940 O   0  0  0  0  0  1  0  0  0  0  0  0
  1  7  1  0  0  0  0
  2 14  1  0  0  0  0
  2  6  1  0  0  0  0
  3  5  1  0  0  0  0
  3  4  1  0  0  0  0
  4  2  1  0  0  0  0
  5 31  1  6  0  0  0
  5  1  1  0  0  0  0
  6 13  1  0  0  0  0
  7  6  2  0  0  0  0
  7  8  1  0  0  0  0
  9 11  2  0  0  0  0
 10 11  1  0  0  0  0
 12  9  1  0  0  0  0
 13 12  1  0  0  0  0
 13 10  2  0  0  0  0
 14 15  1  0  0  0  0
 16 17  2  0  0  0  0
 17 15  1  0  0  0  0
 18 19  2  0  0  0  0
 19 16  1  0  0  0  0
 20 21  1  6  0  0  0
 20 18  1  0  0  0  0
 22 20  1  0  0  0  0
 23 24  1  0  0  0  0
 24 28  1  0  0  0  0
 25 30  1  0  0  0  0
 26 23  1  0  0  0  0
 27 29  1  6  0  0  0
 27 23  1  0  0  0  0
 27 25  1  0  0  0  0
 30 22  1  6  0  0  0
 30 28  1  0  0  0  0
 33 31  1  0  0  0  0
 34 32  2  0  0  0  0
 34 33  1  0  0  0  0
 35 36  1  0  0  0  0
 35 34  1  0  0  0  0
 37 41  1  1  0  0  0
 37 36  1  0  0  0  0
 38 39  1  0  0  0  0
 38 40  1  0  0  0  0
 39 40  1  0  0  0  0
 40 37  1  0  0  0  0
 42 41  1  0  0  0  0
 43 42  1  0  0  0  0
 43 45  1  0  0  0  0
 45 46  1  0  0  0  0
 45 44  1  1  0  0  0
M  END
>  <MODEL>
1

>  <REMARK>
 VINA RESULT:      -7.0      0.000      0.000
  Name = 
  18 active torsions:
  status: ('A' for Active; 'I' for Inactive)
    1  A    between atoms: N_3  and  C_20
    2  A    between atoms: N_5  and  C_21
    3  A    between atoms: N_5  and  C_25
    4  A    between atoms: C_6  and  C_21
    5  A    between atoms: C_7  and  C_41
    6  A    between atoms: N_10  and  C_23
    7  A    between atoms: N_10  and  C_37
    8  A    between atoms: N_12  and  C_17
    9  A    between atoms: C_15  and  C_27
   10  A    between atoms: C_15  and  N_33
   11  A    between atoms: C_17  and  C_18
   12  A    between atoms: C_18  and  C_22
   13  A    between atoms: C_20  and  N_24
   14  A    between atoms: C_23  and  C_36
   15  A    between atoms: N_24  and  C_44
   16  A    between atoms: C_25  and  C_37
   17  A    between atoms: C_30  and  C_37
   18  A    between atoms: C_38  and  C_40
                            x       y       z     vdW  Elec       q    Type
                         _______ _______ _______ _____ _____    ______ ____

>  <TORSDO>
F 18

$$$$
=
 OpenBabel10232408003D

 46 49  0  0  1  0  0  0  0  0999 V2000
  190.9800  176.2830  143.5870 C   0  0  0  0  0  2  0  0  0  0  0  0
  188.2650  177.2090  144.3590 N   0  0  0  0  0  0  0  0  0  0  0  0
  189.0430  176.7570  142.0680 C   0  0  0  0  0  2  0  0  0  0  0  0
  188.1670  176.2800  143.2300 C   0  0  0  0  0  2  0  0  0  0  0  0
  190.4170  177.2320  142.5390 C   0  0  2  0  0  3  0  0  0  0  0  0
  189.3210  177.0600  145.3390 C   0  0  0  0  0  0  0  0  0  0  0  0
  190.5750  176.6550  144.9890 C   0  0  0  0  0  0  0  0  0  0  0  0
  191.5720  176.4630  145.9870 N   0  0  0  0  0  1  0  0  0  0  0  0
  188.9620  178.3030  148.6460 C   0  0  0  0  0  3  0  0  0  0  0  0
  188.1360  176.6720  147.5170 N   0  0  0  0  0  0  0  0  0  0  0  0
  188.1130  177.2610  148.7000 N   0  0  0  0  0  0  0  0  0  0  0  0
  189.5420  178.4020  147.4320 N   0  0  0  0  0  2  0  0  0  0  0  0
  188.9980  177.3700  146.7580 C   0  0  0  0  0  0  0  0  0  0  0  0
  187.2780  178.2820  144.5350 C   0  0  0  0  0  2  0  0  0  0  0  0
  185.8700  177.7770  144.8150 C   0  0  0  0  0  2  0  0  0  0  0  0
  185.0670  178.2220  142.5630 C   0  0  0  0  0  3  0  0  0  0  0  0
  184.9240  178.4100  143.8660 C   0  0  0  0  0  3  0  0  0  0  0  0
  183.3860  178.1070  140.8780 N   0  0  0  0  0  0  0  0  0  0  0  0
  184.1310  178.8460  141.6340 C   0  0  0  0  0  3  0  0  0  0  0  0
  182.4460  178.7210  139.9500 C   0  0  1  0  0  3  0  0  0  0  0  0
  183.2870  179.9750  138.9410 S   0  0  0  0  0  1  0  0  0  0  0  0
  181.8860  177.7050  139.0740 N   0  0  0  0  0  2  0  0  0  0  0  0
  181.9170  174.7660  136.9330 N   0  0  0  0  0  0  0  0  0  0  0  0
  181.1100  174.9440  138.1470 C   0  0  0  0  0  2  0  0  0  0  0  0
  183.5280  176.4570  137.7510 C   0  0  0  0  0  2  0  0  0  0  0  0
  180.9540  174.4790  135.8790 C   0  0  0  0  0  1  0  0  0  0  0  0
  182.5890  176.0410  136.6100 C   0  0  1  0  0  3  0  0  0  0  0  0
  182.0030  175.2580  139.3410 C   0  0  0  0  0  2  0  0  0  0  0  0
  183.4370  175.9050  135.3500 C   0  0  0  0  0  1  0  0  0  0  0  0
  182.7830  176.5540  139.0840 C   0  0  2  0  0  3  0  0  0  0  0  0
  191.3690  177.3080  141.3580 C   0  0  0  0  0  2  0  0  0  0  0  0
  191.1110  175.6160  139.0540 O   0  0  0  0  0  0  0  0  0  0  0  0
  190.6380  177.6320  140.1410 N   0  0  0  0  0  2  0  0  0  0  0  0
  190.5170  176.7270  139.0420 C   0  0  0  0  0  0  0  0  0  0  0  0
  189.6670  177.0970  137.8830 C   0  0  0  0  0  2  0  0  0  0  0  0
  188.2880  176.7310  138.1510 N   0  0  0  0  0  2  0  0  0  0  0  0
  187.7360  176.2380  136.8960 C   0  0  1  0  0  3  0  0  0  0  0  0
  186.6780  177.4220  134.9840 C   0  0  0  0  0  2  0  0  0  0  0  0
  187.0360  178.4520  136.0310 C   0  0  0  0  0  2  0  0  0  0  0  0
  187.9500  177.2680  135.7970 C   0  0  0  0  0  3  0  0  0  0  0  0
  188.4140  174.9340  136.5270 C   0  0  0  0  0  2  0  0  0  0  0  0
  187.5730  173.8280  136.9290 N   0  0  0  0  0  2  0  0  0  0  0  0
  186.8000  173.4290  135.7640 C   0  0  0  0  0  2  0  0  0  0  0  0
  185.2600  173.1560  137.6810 C   0  0  0  0  0  1  0  0  0  0  0  0
  185.4460  172.9050  136.1990 C   0  0  2  0  0  3  0  0  0  0  0  0
  185.3700  171.5370  135.9510 O   0  0  0  0  0  1  0  0  0  0  0  0
  1  7  1  0  0  0  0
  2 14  1  0  0  0  0
  2  6  1  0  0  0  0
  3  5  1  0  0  0  0
  3  4  1  0  0  0  0
  4  2  1  0  0  0  0
  5 31  1  6  0  0  0
  5  1  1  0  0  0  0
  6 13  1  0  0  0  0
  7  6  2  0  0  0  0
  7  8  1  0  0  0  0
  9 11  2  0  0  0  0
 10 11  1  0  0  0  0
 12  9  1  0  0  0  0
 13 12  1  0  0  0  0
 13 10  2  0  0  0  0
 14 15  1  0  0  0  0
 16 17  2  0  0  0  0
 17 15  1  0  0  0  0
 18 19  2  0  0  0  0
 19 16  1  0  0  0  0
 20 21  1  6  0  0  0
 20 18  1  0  0  0  0
 22 20  1  0  0  0  0
 23 24  1  0  0  0  0
 24 28  1  0  0  0  0
 25 30  1  0  0  0  0
 26 23  1  0  0  0  0
 27 29  1  6  0  0  0
 27 23  1  0  0  0  0
 27 25  1  0  0  0  0
 30 22  1  6  0  0  0
 30 28  1  0  0  0  0
 33 31  1  0  0  0  0
 34 32  2  0  0  0  0
 34 33  1  0  0  0  0
 35 36  1  0  0  0  0
 35 34  1  0  0  0  0
 37 41  1  6  0  0  0
 37 36  1  0  0  0  0
 38 40  1  0  0  0  0
 38 39  1  0  0  0  0
 40 39  1  0  0  0  0
 40 37  1  0  0  0  0
 41 42  1  0  0  0  0
 43 45  1  0  0  0  0
 43 42  1  0  0  0  0
 45 44  1  1  0  0  0
 46 45  1  0  0  0  0
M  END
>  <MODEL>
2

>  <REMARK>
 VINA RESULT:      -6.8      1.783      2.704
  Name = 
  18 active torsions:
  status: ('A' for Active; 'I' for Inactive)
    1  A    between atoms: N_3  and  C_20
    2  A    between atoms: N_5  and  C_21
    3  A    between atoms: N_5  and  C_25
    4  A    between atoms: C_6  and  C_21
    5  A    between atoms: C_7  and  C_41
    6  A    between atoms: N_10  and  C_23
    7  A    between atoms: N_10  and  C_37
    8  A    between atoms: N_12  and  C_17
    9  A    between atoms: C_15  and  C_27
   10  A    between atoms: C_15  and  N_33
   11  A    between atoms: C_17  and  C_18
   12  A    between atoms: C_18  and  C_22
   13  A    between atoms: C_20  and  N_24
   14  A    between atoms: C_23  and  C_36
   15  A    between atoms: N_24  and  C_44
   16  A    between atoms: C_25  and  C_37
   17  A    between atoms: C_30  and  C_37
   18  A    between atoms: C_38  and  C_40
                            x       y       z     vdW  Elec       q    Type
                         _______ _______ _______ _____ _____    ______ ____

>  <TORSDO>
F 18

$$$$
=
 OpenBabel10232408003D

 46 49  0  0  1  0  0  0  0  0999 V2000
  191.4330  176.4430  144.0030 C   0  0  0  0  0  2  0  0  0  0  0  0
  188.6080  177.2290  144.4770 N   0  0  0  0  0  0  0  0  0  0  0  0
  189.6400  176.7900  142.2860 C   0  0  0  0  0  2  0  0  0  0  0  0
  188.6760  176.2820  143.3610 C   0  0  0  0  0  2  0  0  0  0  0  0
  190.9310  177.3460  142.8850 C   0  0  2  0  0  3  0  0  0  0  0  0
  189.5640  177.1510  145.5620 C   0  0  0  0  0  0  0  0  0  0  0  0
  190.8670  176.8110  145.3490 C   0  0  0  0  0  0  0  0  0  0  0  0
  191.7650  176.6870  146.4470 N   0  0  0  0  0  1  0  0  0  0  0  0
  187.9120  177.4950  148.6860 C   0  0  0  0  0  3  0  0  0  0  0  0
  189.7250  178.2500  147.8120 N   0  0  0  0  0  0  0  0  0  0  0  0
  188.9910  178.2670  148.9120 N   0  0  0  0  0  0  0  0  0  0  0  0
  187.9350  176.9700  147.4440 N   0  0  0  0  0  2  0  0  0  0  0  0
  189.0810  177.4620  146.9340 C   0  0  0  0  0  0  0  0  0  0  0  0
  187.5530  178.2490  144.5300 C   0  0  0  0  0  2  0  0  0  0  0  0
  186.1560  177.6960  144.2830 C   0  0  0  0  0  2  0  0  0  0  0  0
  184.4140  178.3620  142.7240 C   0  0  0  0  0  3  0  0  0  0  0  0
  185.6960  178.1090  142.9370 C   0  0  0  0  0  3  0  0  0  0  0  0
  184.0990  177.9610  140.3960 N   0  0  0  0  0  0  0  0  0  0  0  0
  183.9670  178.7700  141.3960 C   0  0  0  0  0  3  0  0  0  0  0  0
  183.6520  178.3580  139.0680 C   0  0  1  0  0  3  0  0  0  0  0  0
  182.6380  179.8610  139.1690 S   0  0  0  0  0  1  0  0  0  0  0  0
  184.8040  178.6200  138.2200 N   0  0  0  0  0  2  0  0  0  0  0  0
  187.0600  177.3750  135.6540 N   0  0  0  0  0  0  0  0  0  0  0  0
  185.6150  177.1240  135.7330 C   0  0  0  0  0  2  0  0  0  0  0  0
  187.1180  177.8240  138.0870 C   0  0  0  0  0  2  0  0  0  0  0  0
  187.2680  177.9800  134.3460 C   0  0  0  0  0  1  0  0  0  0  0  0
  187.4340  178.3640  136.6860 C   0  0  1  0  0  3  0  0  0  0  0  0
  185.2550  176.4880  137.0690 C   0  0  0  0  0  2  0  0  0  0  0  0
  188.9290  178.6600  136.6400 C   0  0  0  0  0  1  0  0  0  0  0  0
  185.6460  177.4270  138.2170 C   0  0  2  0  0  3  0  0  0  0  0  0
  191.9940  177.4580  141.8070 C   0  0  0  0  0  2  0  0  0  0  0  0
  193.4700  177.2240  139.3560 O   0  0  0  0  0  0  0  0  0  0  0  0
  191.4420  177.0810  140.5130 N   0  0  0  0  0  2  0  0  0  0  0  0
  192.2410  176.9450  139.3360 C   0  0  0  0  0  0  0  0  0  0  0  0
  191.6150  176.4560  138.0820 C   0  0  0  0  0  2  0  0  0  0  0  0
  191.3330  175.0360  138.1990 N   0  0  0  0  0  2  0  0  0  0  0  0
  191.3470  174.4960  136.8460 C   0  0  1  0  0  3  0  0  0  0  0  0
  189.5580  174.0720  135.1740 C   0  0  0  0  0  2  0  0  0  0  0  0
  188.9010  174.5530  136.4480 C   0  0  0  0  0  2  0  0  0  0  0  0
  190.2360  175.1310  136.0240 C   0  0  0  0  0  3  0  0  0  0  0  0
  192.6930  174.7760  136.2080 C   0  0  0  0  0  2  0  0  0  0  0  0
  193.6750  173.8590  136.7440 N   0  0  0  0  0  2  0  0  0  0  0  0
  194.8090  174.6530  137.1870 C   0  0  0  0  0  2  0  0  0  0  0  0
  196.4080  175.5210  135.5100 C   0  0  0  0  0  1  0  0  0  0  0  0
  196.0280  174.3200  136.3500 C   0  0  2  0  0  3  0  0  0  0  0  0
  195.7420  173.2440  135.5120 O   0  0  0  0  0  1  0  0  0  0  0  0
  1  7  1  0  0  0  0
  2 14  1  0  0  0  0
  2  6  1  0  0  0  0
  3  5  1  0  0  0  0
  3  4  1  0  0  0  0
  4  2  1  0  0  0  0
  5 31  1  6  0  0  0
  5  1  1  0  0  0  0
  6 13  1  0  0  0  0
  7  6  2  0  0  0  0
  7  8  1  0  0  0  0
  9 11  2  0  0  0  0
 10 11  1  0  0  0  0
 12  9  1  0  0  0  0
 13 12  1  0  0  0  0
 13 10  2  0  0  0  0
 15 14  1  0  0  0  0
 16 17  2  0  0  0  0
 17 15  1  0  0  0  0
 18 19  2  0  0  0  0
 19 16  1  0  0  0  0
 20 21  1  1  0  0  0
 20 18  1  0  0  0  0
 22 20  1  0  0  0  0
 23 24  1  0  0  0  0
 23 27  1  0  0  0  0
 24 28  1  0  0  0  0
 25 30  1  0  0  0  0
 26 23  1  0  0  0  0
 27 29  1  1  0  0  0
 27 25  1  0  0  0  0
 28 30  1  0  0  0  0
 30 22  1  6  0  0  0
 33 31  1  0  0  0  0
 34 32  2  0  0  0  0
 34 33  1  0  0  0  0
 35 36  1  0  0  0  0
 35 34  1  0  0  0  0
 37 41  1  6  0  0  0
 37 36  1  0  0  0  0
 38 40  1  0  0  0  0
 38 39  1  0  0  0  0
 40 39  1  0  0  0  0
 40 37  1  0  0  0  0
 41 42  1  0  0  0  0
 42 43  1  0  0  0  0
 45 44  1  6  0  0  0
 45 43  1  0  0  0  0
 46 45  1  0  0  0  0
M  END
>  <MODEL>
3

>  <REMARK>
 VINA RESULT:      -6.7      2.080      3.852
  Name = 
  18 active torsions:
  status: ('A' for Active; 'I' for Inactive)
    1  A    between atoms: N_3  and  C_20
    2  A    between atoms: N_5  and  C_21
    3  A    between atoms: N_5  and  C_25
    4  A    between atoms: C_6  and  C_21
    5  A    between atoms: C_7  and  C_41
    6  A    between atoms: N_10  and  C_23
    7  A    between atoms: N_10  and  C_37
    8  A    between atoms: N_12  and  C_17
    9  A    between atoms: C_15  and  C_27
   10  A    between atoms: C_15  and  N_33
   11  A    between atoms: C_17  and  C_18
   12  A    between atoms: C_18  and  C_22
   13  A    between atoms: C_20  and  N_24
   14  A    between atoms: C_23  and  C_36
   15  A    between atoms: N_24  and  C_44
   16  A    between atoms: C_25  and  C_37
   17  A    between atoms: C_30  and  C_37
   18  A    between atoms: C_38  and  C_40
                            x       y       z     vdW  Elec       q    Type
                         _______ _______ _______ _____ _____    ______ ____

>  <TORSDO>
F 18

$$$$
=
 OpenBabel10232408003D

 46 49  0  0  1  0  0  0  0  0999 V2000
  191.4560  176.4930  144.0230 C   0  0  0  0  0  2  0  0  0  0  0  0
  188.6060  177.1940  144.4840 N   0  0  0  0  0  0  0  0  0  0  0  0
  189.6680  176.8150  142.2960 C   0  0  0  0  0  2  0  0  0  0  0  0
  188.7100  176.2650  143.3550 C   0  0  0  0  0  2  0  0  0  0  0  0
  190.9390  177.3980  142.9140 C   0  0  2  0  0  3  0  0  0  0  0  0
  189.5560  177.1280  145.5760 C   0  0  0  0  0  0  0  0  0  0  0  0
  190.8690  176.8270  145.3690 C   0  0  0  0  0  0  0  0  0  0  0  0
  191.7610  176.7120  146.4730 N   0  0  0  0  0  1  0  0  0  0  0  0
  188.6920  178.3510  148.7960 C   0  0  0  0  0  3  0  0  0  0  0  0
  188.2360  176.5960  147.6430 N   0  0  0  0  0  0  0  0  0  0  0  0
  188.0090  177.1920  148.8010 N   0  0  0  0  0  0  0  0  0  0  0  0
  189.3650  178.5190  147.6400 N   0  0  0  0  0  2  0  0  0  0  0  0
  189.0530  177.4060  146.9480 C   0  0  0  0  0  0  0  0  0  0  0  0
  187.5230  178.1840  144.5420 C   0  0  0  0  0  2  0  0  0  0  0  0
  186.1360  177.5650  144.6390 C   0  0  0  0  0  2  0  0  0  0  0  0
  185.3860  178.0940  142.3870 C   0  0  0  0  0  3  0  0  0  0  0  0
  185.2250  178.2510  143.6920 C   0  0  0  0  0  3  0  0  0  0  0  0
  183.4520  178.1450  140.9940 N   0  0  0  0  0  0  0  0  0  0  0  0
  184.4850  178.7700  141.4600 C   0  0  0  0  0  3  0  0  0  0  0  0
  182.5460  178.8130  140.0710 C   0  0  1  0  0  3  0  0  0  0  0  0
  183.4760  179.8980  138.9500 S   0  0  0  0  0  1  0  0  0  0  0  0
  181.8280  177.8230  139.2850 N   0  0  0  0  0  2  0  0  0  0  0  0
  181.4600  174.6710  137.5090 N   0  0  0  0  0  0  0  0  0  0  0  0
  180.5360  175.2120  138.5140 C   0  0  0  0  0  2  0  0  0  0  0  0
  183.2920  176.0440  138.4500 C   0  0  0  0  0  2  0  0  0  0  0  0
  180.6450  174.4610  136.3200 C   0  0  0  0  0  1  0  0  0  0  0  0
  182.4810  175.6910  137.1950 C   0  0  1  0  0  3  0  0  0  0  0  0
  181.2680  175.4840  139.8220 C   0  0  0  0  0  2  0  0  0  0  0  0
  183.4630  175.1750  136.1490 C   0  0  0  0  0  1  0  0  0  0  0  0
  182.3860  176.5090  139.5910 C   0  0  2  0  0  3  0  0  0  0  0  0
  192.0070  177.5540  141.8460 C   0  0  0  0  0  2  0  0  0  0  0  0
  193.5430  177.1420  139.4560 O   0  0  0  0  0  0  0  0  0  0  0  0
  191.4710  177.1970  140.5400 N   0  0  0  0  0  2  0  0  0  0  0  0
  192.2970  176.9690  139.3970 C   0  0  0  0  0  0  0  0  0  0  0  0
  191.6760  176.5070  138.1290 C   0  0  0  0  0  2  0  0  0  0  0  0
  190.5790  175.6020  138.4240 N   0  0  0  0  0  2  0  0  0  0  0  0
  190.4240  174.7420  137.2590 C   0  0  1  0  0  3  0  0  0  0  0  0
  188.1030  174.3360  136.4690 C   0  0  0  0  0  2  0  0  0  0  0  0
  188.1140  175.6390  137.2380 C   0  0  0  0  0  2  0  0  0  0  0  0
  189.3010  175.2630  136.3760 C   0  0  0  0  0  3  0  0  0  0  0  0
  191.7260  174.7090  136.4830 C   0  0  0  0  0  2  0  0  0  0  0  0
  192.2590  173.3640  136.5020 N   0  0  0  0  0  2  0  0  0  0  0  0
  193.6700  173.4640  136.8370 C   0  0  0  0  0  2  0  0  0  0  0  0
  195.1250  174.2870  135.0130 C   0  0  0  0  0  1  0  0  0  0  0  0
  194.2660  174.6980  136.1890 C   0  0  2  0  0  3  0  0  0  0  0  0
  195.0500  175.3830  137.1160 O   0  0  0  0  0  1  0  0  0  0  0  0
  1  7  1  0  0  0  0
  2 14  1  0  0  0  0
  2  6  1  0  0  0  0
  3  5  1  0  0  0  0
  3  4  1  0  0  0  0
  4  2  1  0  0  0  0
  5 31  1  6  0  0  0
  5  1  1  0  0  0  0
  6 13  1  0  0  0  0
  7  6  2  0  0  0  0
  7  8  1  0  0  0  0
  9 11  2  0  0  0  0
 10 11  1  0  0  0  0
 12  9  1  0  0  0  0
 13 12  1  0  0  0  0
 13 10  2  0  0  0  0
 14 15  1  0  0  0  0
 16 17  2  0  0  0  0
 17 15  1  0  0  0  0
 18 19  2  0  0  0  0
 19 16  1  0  0  0  0
 20 21  1  6  0  0  0
 20 18  1  0  0  0  0
 22 20  1  0  0  0  0
 23 24  1  0  0  0  0
 24 28  1  0  0  0  0
 25 30  1  0  0  0  0
 26 23  1  0  0  0  0
 27 29  1  6  0  0  0
 27 23  1  0  0  0  0
 27 25  1  0  0  0  0
 30 22  1  6  0  0  0
 30 28  1  0  0  0  0
 33 31  1  0  0  0  0
 34 32  2  0  0  0  0
 34 33  1  0  0  0  0
 35 36  1  0  0  0  0
 35 34  1  0  0  0  0
 37 41  1  6  0  0  0
 37 36  1  0  0  0  0
 38 39  1  0  0  0  0
 40 38  1  0  0  0  0
 40 39  1  0  0  0  0
 40 37  1  0  0  0  0
 41 42  1  0  0  0  0
 42 43  1  0  0  0  0
 45 44  1  6  0  0  0
 45 43  1  0  0  0  0
 45 46  1  0  0  0  0
M  END
>  <MODEL>
4

>  <REMARK>
 VINA RESULT:      -6.6      1.478      2.602
  Name = 
  18 active torsions:
  status: ('A' for Active; 'I' for Inactive)
    1  A    between atoms: N_3  and  C_20
    2  A    between atoms: N_5  and  C_21
    3  A    between atoms: N_5  and  C_25
    4  A    between atoms: C_6  and  C_21
    5  A    between atoms: C_7  and  C_41
    6  A    between atoms: N_10  and  C_23
    7  A    between atoms: N_10  and  C_37
    8  A    between atoms: N_12  and  C_17
    9  A    between atoms: C_15  and  C_27
   10  A    between atoms: C_15  and  N_33
   11  A    between atoms: C_17  and  C_18
   12  A    between atoms: C_18  and  C_22
   13  A    between atoms: C_20  and  N_24
   14  A    between atoms: C_23  and  C_36
   15  A    between atoms: N_24  and  C_44
   16  A    between atoms: C_25  and  C_37
   17  A    between atoms: C_30  and  C_37
   18  A    between atoms: C_38  and  C_40
                            x       y       z     vdW  Elec       q    Type
                         _______ _______ _______ _____ _____    ______ ____

>  <TORSDO>
F 18

$$$$
=
 OpenBabel10232408003D

 46 49  0  0  1  0  0  0  0  0999 V2000
  184.5480  179.6270  144.9700 C   0  0  0  0  0  2  0  0  0  0  0  0
  186.6350  177.7870  143.9290 N   0  0  0  0  0  0  0  0  0  0  0  0
  184.6400  178.5520  142.7080 C   0  0  0  0  0  2  0  0  0  0  0  0
  186.1600  178.6570  142.8490 C   0  0  0  0  0  2  0  0  0  0  0  0
  183.9320  178.5740  144.0620 C   0  0  2  0  0  3  0  0  0  0  0  0
  186.6620  178.2660  145.2960 C   0  0  0  0  0  0  0  0  0  0  0  0
  185.6960  179.0950  145.7860 C   0  0  0  0  0  0  0  0  0  0  0  0
  185.7870  179.5930  147.1170 N   0  0  0  0  0  1  0  0  0  0  0  0
  188.8850  176.8360  147.6670 C   0  0  0  0  0  3  0  0  0  0  0  0
  189.0610  178.2170  146.0290 N   0  0  0  0  0  0  0  0  0  0  0  0
  189.7510  177.5960  146.9720 N   0  0  0  0  0  2  0  0  0  0  0  0
  187.6310  176.9530  147.1850 N   0  0  0  0  0  0  0  0  0  0  0  0
  187.7840  177.8200  146.1640 C   0  0  0  0  0  0  0  0  0  0  0  0
  187.1210  176.4320  143.6410 C   0  0  0  0  0  2  0  0  0  0  0  0
  188.6360  176.3370  143.5290 C   0  0  0  0  0  2  0  0  0  0  0  0
  190.2840  176.5490  141.7550 C   0  0  0  0  0  3  0  0  0  0  0  0
  189.0590  176.8020  142.1870 C   0  0  0  0  0  3  0  0  0  0  0  0
  190.5890  176.2150  139.4150 N   0  0  0  0  0  0  0  0  0  0  0  0
  190.6940  177.0070  140.4320 C   0  0  0  0  0  3  0  0  0  0  0  0
  190.9920  176.6650  138.0900 C   0  0  1  0  0  3  0  0  0  0  0  0
  192.5270  175.8350  137.5840 S   0  0  0  0  0  1  0  0  0  0  0  0
  189.9470  176.3570  137.1280 N   0  0  0  0  0  2  0  0  0  0  0  0
  186.7890  177.4950  135.7310 N   0  0  0  0  0  0  0  0  0  0  0  0
  187.8780  178.3500  136.2190 C   0  0  0  0  0  2  0  0  0  0  0  0
  187.6050  175.6400  137.1510 C   0  0  0  0  0  2  0  0  0  0  0  0
  186.5740  177.9060  134.3510 C   0  0  0  0  0  1  0  0  0  0  0  0
  187.2440  176.0890  135.7290 C   0  0  1  0  0  3  0  0  0  0  0  0
  188.2100  178.0180  137.6690 C   0  0  0  0  0  2  0  0  0  0  0  0
  186.1450  175.1620  135.2240 C   0  0  0  0  0  1  0  0  0  0  0  0
  188.6570  176.5550  137.7800 C   0  0  2  0  0  3  0  0  0  0  0  0
  182.4550  178.8710  143.8680 C   0  0  0  0  0  2  0  0  0  0  0  0
  180.3070  180.0390  142.3630 O   0  0  0  0  0  0  0  0  0  0  0  0
  182.0300  178.4660  142.5350 N   0  0  0  0  0  2  0  0  0  0  0  0
  180.9750  179.1170  141.8240 C   0  0  0  0  0  0  0  0  0  0  0  0
  180.6750  178.7070  140.4290 C   0  0  0  0  0  2  0  0  0  0  0  0
  181.4730  179.4950  139.5060 N   0  0  0  0  0  2  0  0  0  0  0  0
  182.0930  178.5540  138.5830 C   0  0  1  0  0  3  0  0  0  0  0  0
  184.5170  178.1880  138.1750 C   0  0  0  0  0  2  0  0  0  0  0  0
  184.3790  179.1610  139.3240 C   0  0  0  0  0  2  0  0  0  0  0  0
  183.3890  178.0240  139.1770 C   0  0  0  0  0  3  0  0  0  0  0  0
  181.1360  177.4100  138.3140 C   0  0  0  0  0  2  0  0  0  0  0  0
  181.8190  176.1550  138.5330 N   0  0  0  0  0  2  0  0  0  0  0  0
  181.5790  175.3240  137.3640 C   0  0  0  0  0  2  0  0  0  0  0  0
  182.5190  173.0910  136.8630 C   0  0  0  0  0  1  0  0  0  0  0  0
  182.8400  174.5630  137.0070 C   0  0  2  0  0  3  0  0  0  0  0  0
  183.7910  174.7320  138.0100 O   0  0  0  0  0  1  0  0  0  0  0  0
  1  7  1  0  0  0  0
  2  6  1  0  0  0  0
  3  4  1  0  0  0  0
  3  5  1  0  0  0  0
  4  2  1  0  0  0  0
  5 31  1  6  0  0  0
  5  1  1  0  0  0  0
  6  7  2  0  0  0  0
  6 13  1  0  0  0  0
  7  8  1  0  0  0  0
 10 13  2  0  0  0  0
 10 11  1  0  0  0  0
 11  9  1  0  0  0  0
 12  9  2  0  0  0  0
 13 12  1  0  0  0  0
 14  2  1  0  0  0  0
 15 14  1  0  0  0  0
 16 17  2  0  0  0  0
 17 15  1  0  0  0  0
 18 19  2  0  0  0  0
 19 16  1  0  0  0  0
 20 21  1  6  0  0  0
 20 18  1  0  0  0  0
 22 20  1  0  0  0  0
 23 24  1  0  0  0  0
 24 28  1  0  0  0  0
 25 30  1  0  0  0  0
 26 23  1  0  0  0  0
 27 29  1  1  0  0  0
 27 23  1  0  0  0  0
 27 25  1  0  0  0  0
 28 30  1  0  0  0  0
 30 22  1  6  0  0  0
 33 31  1  0  0  0  0
 34 32  2  0  0  0  0
 34 33  1  0  0  0  0
 35 34  1  0  0  0  0
 36 35  1  0  0  0  0
 37 41  1  1  0  0  0
 37 40  1  0  0  0  0
 37 36  1  0  0  0  0
 38 40  1  0  0  0  0
 38 39  1  0  0  0  0
 40 39  1  0  0  0  0
 41 42  1  0  0  0  0
 43 42  1  0  0  0  0
 45 44  1  1  0  0  0
 45 43  1  0  0  0  0
 45 46  1  0  0  0  0
M  END
>  <MODEL>
5

>  <REMARK>
 VINA RESULT:      -6.6      2.891      7.234
  Name = 
  18 active torsions:
  status: ('A' for Active; 'I' for Inactive)
    1  A    between atoms: N_3  and  C_20
    2  A    between atoms: N_5  and  C_21
    3  A    between atoms: N_5  and  C_25
    4  A    between atoms: C_6  and  C_21
    5  A    between atoms: C_7  and  C_41
    6  A    between atoms: N_10  and  C_23
    7  A    between atoms: N_10  and  C_37
    8  A    between atoms: N_12  and  C_17
    9  A    between atoms: C_15  and  C_27
   10  A    between atoms: C_15  and  N_33
   11  A    between atoms: C_17  and  C_18
   12  A    between atoms: C_18  and  C_22
   13  A    between atoms: C_20  and  N_24
   14  A    between atoms: C_23  and  C_36
   15  A    between atoms: N_24  and  C_44
   16  A    between atoms: C_25  and  C_37
   17  A    between atoms: C_30  and  C_37
   18  A    between atoms: C_38  and  C_40
                            x       y       z     vdW  Elec       q    Type
                         _______ _______ _______ _____ _____    ______ ____

>  <TORSDO>
F 18

$$$$
=
 OpenBabel10232408003D

 46 49  0  0  1  0  0  0  0  0999 V2000
  191.4270  176.5530  143.9030 C   0  0  0  0  0  2  0  0  0  0  0  0
  188.5320  177.0930  144.2840 N   0  0  0  0  0  0  0  0  0  0  0  0
  189.6560  176.6830  142.1340 C   0  0  0  0  0  2  0  0  0  0  0  0
  188.7140  176.1220  143.2020 C   0  0  0  0  0  2  0  0  0  0  0  0
  190.8760  177.3720  142.7450 C   0  0  2  0  0  3  0  0  0  0  0  0
  189.4620  177.1360  145.3930 C   0  0  0  0  0  0  0  0  0  0  0  0
  190.7960  176.9090  145.2220 C   0  0  0  0  0  0  0  0  0  0  0  0
  191.6720  176.9000  146.3440 N   0  0  0  0  0  1  0  0  0  0  0  0
  187.9540  177.2480  148.6060 C   0  0  0  0  0  3  0  0  0  0  0  0
  189.0500  178.6240  147.3710 N   0  0  0  0  0  0  0  0  0  0  0  0
  188.4470  178.4990  148.5410 N   0  0  0  0  0  0  0  0  0  0  0  0
  188.2320  176.5520  147.4850 N   0  0  0  0  0  2  0  0  0  0  0  0
  188.9170  177.4440  146.7430 C   0  0  0  0  0  0  0  0  0  0  0  0
  187.3880  178.0150  144.2790 C   0  0  0  0  0  2  0  0  0  0  0  0
  186.9060  178.3820  142.8830 C   0  0  0  0  0  2  0  0  0  0  0  0
  184.5690  178.9290  143.2730 C   0  0  0  0  0  3  0  0  0  0  0  0
  185.4580  178.0860  142.7700 C   0  0  0  0  0  3  0  0  0  0  0  0
  182.5560  178.7400  142.0110 N   0  0  0  0  0  0  0  0  0  0  0  0
  183.1450  178.6330  143.1580 C   0  0  0  0  0  3  0  0  0  0  0  0
  181.1370  178.4430  141.8850 C   0  0  1  0  0  3  0  0  0  0  0  0
  180.1650  179.9760  141.9640 S   0  0  0  0  0  1  0  0  0  0  0  0
  180.8830  177.7870  140.6120 N   0  0  0  0  0  2  0  0  0  0  0  0
  181.5860  176.3890  137.3300 N   0  0  0  0  0  0  0  0  0  0  0  0
  181.5260  175.6440  138.5940 C   0  0  0  0  0  2  0  0  0  0  0  0
  182.0630  178.4720  138.5770 C   0  0  0  0  0  2  0  0  0  0  0  0
  180.6130  175.7400  136.4620 C   0  0  0  0  0  1  0  0  0  0  0  0
  181.1400  177.7770  137.5670 C   0  0  1  0  0  3  0  0  0  0  0  0
  182.5040  176.2280  139.6060 C   0  0  0  0  0  2  0  0  0  0  0  0
  181.1810  178.5900  136.2790 C   0  0  0  0  0  1  0  0  0  0  0  0
  182.1480  177.6930  139.8910 C   0  0  2  0  0  3  0  0  0  0  0  0
  191.9530  177.5470  141.6880 C   0  0  0  0  0  2  0  0  0  0  0  0
  193.5180  177.0690  139.3290 O   0  0  0  0  0  0  0  0  0  0  0  0
  191.4290  177.2070  140.3720 N   0  0  0  0  0  2  0  0  0  0  0  0
  192.2670  176.9440  139.2460 C   0  0  0  0  0  0  0  0  0  0  0  0
  191.6530  176.5030  137.9680 C   0  0  0  0  0  2  0  0  0  0  0  0
  191.1140  175.1630  138.1210 N   0  0  0  0  0  2  0  0  0  0  0  0
  190.1180  174.9930  137.0720 C   0  0  1  0  0  3  0  0  0  0  0  0
  191.0830  173.8590  135.0820 C   0  0  0  0  0  2  0  0  0  0  0  0
  191.8020  173.3430  136.3080 C   0  0  0  0  0  2  0  0  0  0  0  0
  190.3210  173.6550  136.3780 C   0  0  0  0  0  3  0  0  0  0  0  0
  188.7310  175.0600  137.6790 C   0  0  0  0  0  2  0  0  0  0  0  0
  188.0680  176.2610  137.2220 N   0  0  0  0  0  2  0  0  0  0  0  0
  187.9310  177.1420  138.3710 C   0  0  0  0  0  2  0  0  0  0  0  0
  185.8720  178.0490  137.3430 C   0  0  0  0  0  1  0  0  0  0  0  0
  187.2050  178.4080  137.9640 C   0  0  2  0  0  3  0  0  0  0  0  0
  187.9710  179.1120  137.0370 O   0  0  0  0  0  1  0  0  0  0  0  0
  1  7  1  0  0  0  0
  2  6  1  0  0  0  0
  3  5  1  0  0  0  0
  3  4  1  0  0  0  0
  4  2  1  0  0  0  0
  5 31  1  6  0  0  0
  5  1  1  0  0  0  0
  6 13  1  0  0  0  0
  7  6  2  0  0  0  0
  7  8  1  0  0  0  0
 10 11  1  0  0  0  0
 11  9  2  0  0  0  0
 12  9  1  0  0  0  0
 13 10  2  0  0  0  0
 13 12  1  0  0  0  0
 14  2  1  0  0  0  0
 15 14  1  0  0  0  0
 17 15  1  0  0  0  0
 17 16  2  0  0  0  0
 18 19  2  0  0  0  0
 19 16  1  0  0  0  0
 20 21  1  6  0  0  0
 20 18  1  0  0  0  0
 22 20  1  0  0  0  0
 23 27  1  0  0  0  0
 23 24  1  0  0  0  0
 24 28  1  0  0  0  0
 25 30  1  0  0  0  0
 26 23  1  0  0  0  0
 27 29  1  6  0  0  0
 27 25  1  0  0  0  0
 28 30  1  0  0  0  0
 30 22  1  6  0  0  0
 33 31  1  0  0  0  0
 34 32  2  0  0  0  0
 34 33  1  0  0  0  0
 35 36  1  0  0  0  0
 35 34  1  0  0  0  0
 37 41  1  1  0  0  0
 37 36  1  0  0  0  0
 38 39  1  0  0  0  0
 38 40  1  0  0  0  0
 39 40  1  0  0  0  0
 40 37  1  0  0  0  0
 42 41  1  0  0  0  0
 42 43  1  0  0  0  0
 45 44  1  6  0  0  0
 45 43  1  0  0  0  0
 46 45  1  0  0  0  0
M  END
>  <MODEL>
6

>  <REMARK>
 VINA RESULT:      -6.6      1.375      1.562
  Name = 
  18 active torsions:
  status: ('A' for Active; 'I' for Inactive)
    1  A    between atoms: N_3  and  C_20
    2  A    between atoms: N_5  and  C_21
    3  A    between atoms: N_5  and  C_25
    4  A    between atoms: C_6  and  C_21
    5  A    between atoms: C_7  and  C_41
    6  A    between atoms: N_10  and  C_23
    7  A    between atoms: N_10  and  C_37
    8  A    between atoms: N_12  and  C_17
    9  A    between atoms: C_15  and  C_27
   10  A    between atoms: C_15  and  N_33
   11  A    between atoms: C_17  and  C_18
   12  A    between atoms: C_18  and  C_22
   13  A    between atoms: C_20  and  N_24
   14  A    between atoms: C_23  and  C_36
   15  A    between atoms: N_24  and  C_44
   16  A    between atoms: C_25  and  C_37
   17  A    between atoms: C_30  and  C_37
   18  A    between atoms: C_38  and  C_40
                            x       y       z     vdW  Elec       q    Type
                         _______ _______ _______ _____ _____    ______ ____

>  <TORSDO>
F 18

$$$$
=
 OpenBabel10232408003D

 46 49  0  0  1  0  0  0  0  0999 V2000
  191.1480  177.5380  139.6470 C   0  0  0  0  0  2  0  0  0  0  0  0
  191.2760  176.2420  136.9780 N   0  0  0  0  0  0  0  0  0  0  0  0
  189.2490  177.1130  138.0680 C   0  0  0  0  0  2  0  0  0  0  0  0
  190.2820  177.3170  136.9560 C   0  0  0  0  0  2  0  0  0  0  0  0
  189.8980  176.7100  139.3910 C   0  0  2  0  0  3  0  0  0  0  0  0
  192.4450  176.3420  137.8280 C   0  0  0  0  0  0  0  0  0  0  0  0
  192.3890  176.9180  139.0620 C   0  0  0  0  0  0  0  0  0  0  0  0
  193.5710  177.0530  139.8450 N   0  0  0  0  0  1  0  0  0  0  0  0
  195.3550  174.4990  136.9640 C   0  0  0  0  0  3  0  0  0  0  0  0
  194.5330  176.4140  136.4380 N   0  0  0  0  0  0  0  0  0  0  0  0
  195.5540  175.6010  136.2190 N   0  0  0  0  0  2  0  0  0  0  0  0
  194.2090  174.5830  137.6700 N   0  0  0  0  0  0  0  0  0  0  0  0
  193.7260  175.7890  137.3120 C   0  0  0  0  0  0  0  0  0  0  0  0
  191.1220  175.0610  136.1170 C   0  0  0  0  0  2  0  0  0  0  0  0
  190.4290  175.3570  134.7950 C   0  0  0  0  0  2  0  0  0  0  0  0
  188.6040  174.0760  135.7640 C   0  0  0  0  0  3  0  0  0  0  0  0
  188.9940  175.0030  134.9040 C   0  0  0  0  0  3  0  0  0  0  0  0
  186.3710  174.5460  136.4550 N   0  0  0  0  0  0  0  0  0  0  0  0
  187.1890  173.7340  135.8680 C   0  0  0  0  0  3  0  0  0  0  0  0
  184.9570  174.2150  136.5600 C   0  0  1  0  0  3  0  0  0  0  0  0
  184.7430  172.4200  136.7330 S   0  0  0  0  0  1  0  0  0  0  0  0
  184.3840  174.8750  137.7210 N   0  0  0  0  0  2  0  0  0  0  0  0
  182.7430  177.5800  139.5140 N   0  0  0  0  0  0  0  0  0  0  0  0
  182.3170  176.1750  139.4880 C   0  0  0  0  0  2  0  0  0  0  0  0
  183.9410  177.2590  137.3730 C   0  0  0  0  0  2  0  0  0  0  0  0
  182.9270  177.8940  140.9240 C   0  0  0  0  0  1  0  0  0  0  0  0
  184.0510  177.6990  138.8390 C   0  0  1  0  0  3  0  0  0  0  0  0
  182.0900  175.7110  138.0540 C   0  0  0  0  0  2  0  0  0  0  0  0
  184.5370  179.1440  138.8450 C   0  0  0  0  0  1  0  0  0  0  0  0
  183.3910  175.8370  137.2530 C   0  0  2  0  0  3  0  0  0  0  0  0
  188.9140  176.9100  140.5300 C   0  0  0  0  0  2  0  0  0  0  0  0
  187.8570  178.4570  142.7060 O   0  0  0  0  0  0  0  0  0  0  0  0
  189.6230  177.2510  141.7560 N   0  0  0  0  0  2  0  0  0  0  0  0
  189.0240  177.9940  142.8190 C   0  0  0  0  0  0  0  0  0  0  0  0
  189.7840  178.2090  144.0770 C   0  0  0  0  0  2  0  0  0  0  0  0
  190.1630  176.9260  144.6430 N   0  0  0  0  0  2  0  0  0  0  0  0
  189.6630  176.9110  146.0110 C   0  0  1  0  0  3  0  0  0  0  0  0
  191.1000  175.5670  147.5290 C   0  0  0  0  0  2  0  0  0  0  0  0
  191.9790  176.1410  146.4410 C   0  0  0  0  0  2  0  0  0  0  0  0
  190.8280  176.9590  146.9880 C   0  0  0  0  0  3  0  0  0  0  0  0
  188.7530  178.1040  146.2260 C   0  0  0  0  0  2  0  0  0  0  0  0
  187.5660  177.6770  146.9340 N   0  0  0  0  0  2  0  0  0  0  0  0
  186.5280  177.4540  145.9400 C   0  0  0  0  0  2  0  0  0  0  0  0
  185.0040  179.1350  144.9540 C   0  0  0  0  0  1  0  0  0  0  0  0
  185.3510  178.3680  146.2120 C   0  0  2  0  0  3  0  0  0  0  0  0
  185.6780  179.2670  147.2250 O   0  0  0  0  0  1  0  0  0  0  0  0
  2  6  1  0  0  0  0
  3  5  1  0  0  0  0
  4  2  1  0  0  0  0
  4  3  1  0  0  0  0
  5  1  1  0  0  0  0
  5 31  1  1  0  0  0
  6  7  2  0  0  0  0
  7  1  1  0  0  0  0
  7  8  1  0  0  0  0
  9 12  2  0  0  0  0
 10 13  2  0  0  0  0
 11 10  1  0  0  0  0
 11  9  1  0  0  0  0
 13 12  1  0  0  0  0
 13  6  1  0  0  0  0
 14  2  1  0  0  0  0
 15 17  1  0  0  0  0
 15 14  1  0  0  0  0
 16 19  1  0  0  0  0
 17 16  2  0  0  0  0
 18 20  1  0  0  0  0
 19 18  2  0  0  0  0
 20 21  1  1  0  0  0
 20 22  1  0  0  0  0
 23 26  1  0  0  0  0
 24 23  1  0  0  0  0
 25 27  1  0  0  0  0
 27 29  1  6  0  0  0
 27 23  1  0  0  0  0
 28 24  1  0  0  0  0
 30 25  1  0  0  0  0
 30 22  1  1  0  0  0
 30 28  1  0  0  0  0
 31 33  1  0  0  0  0
 32 34  2  0  0  0  0
 33 34  1  0  0  0  0
 34 35  1  0  0  0  0
 35 36  1  0  0  0  0
 36 37  1  0  0  0  0
 37 41  1  6  0  0  0
 37 40  1  0  0  0  0
 39 40  1  0  0  0  0
 39 38  1  0  0  0  0
 40 38  1  0  0  0  0
 41 42  1  0  0  0  0
 43 45  1  0  0  0  0
 43 42  1  0  0  0  0
 45 44  1  6  0  0  0
 45 46  1  0  0  0  0
M  END
>  <MODEL>
7

>  <REMARK>
 VINA RESULT:      -6.4      2.958      8.107
  Name = 
  18 active torsions:
  status: ('A' for Active; 'I' for Inactive)
    1  A    between atoms: N_3  and  C_20
    2  A    between atoms: N_5  and  C_21
    3  A    between atoms: N_5  and  C_25
    4  A    between atoms: C_6  and  C_21
    5  A    between atoms: C_7  and  C_41
    6  A    between atoms: N_10  and  C_23
    7  A    between atoms: N_10  and  C_37
    8  A    between atoms: N_12  and  C_17
    9  A    between atoms: C_15  and  C_27
   10  A    between atoms: C_15  and  N_33
   11  A    between atoms: C_17  and  C_18
   12  A    between atoms: C_18  and  C_22
   13  A    between atoms: C_20  and  N_24
   14  A    between atoms: C_23  and  C_36
   15  A    between atoms: N_24  and  C_44
   16  A    between atoms: C_25  and  C_37
   17  A    between atoms: C_30  and  C_37
   18  A    between atoms: C_38  and  C_40
                            x       y       z     vdW  Elec       q    Type
                         _______ _______ _______ _____ _____    ______ ____

>  <TORSDO>
F 18

$$$$
=
 OpenBabel10232408003D

 46 49  0  0  1  0  0  0  0  0999 V2000
  187.5190  177.9450  145.6960 C   0  0  0  0  0  2  0  0  0  0  0  0
  190.1630  177.5720  144.3950 N   0  0  0  0  0  0  0  0  0  0  0  0
  188.1400  178.4780  143.3270 C   0  0  0  0  0  2  0  0  0  0  0  0
  189.5300  178.7910  143.8850 C   0  0  0  0  0  2  0  0  0  0  0  0
  187.3490  177.5410  144.2390 C   0  0  2  0  0  3  0  0  0  0  0  0
  189.9200  177.1340  145.7540 C   0  0  0  0  0  0  0  0  0  0  0  0
  188.7030  177.2840  146.3510 C   0  0  0  0  0  0  0  0  0  0  0  0
  188.5170  176.8970  147.7080 N   0  0  0  0  0  1  0  0  0  0  0  0
  192.5530  176.1400  147.9200 C   0  0  0  0  0  3  0  0  0  0  0  0
  191.6340  175.3440  146.1480 N   0  0  0  0  0  0  0  0  0  0  0  0
  192.5760  175.1160  147.0470 N   0  0  0  0  0  2  0  0  0  0  0  0
  191.6000  177.0380  147.5980 N   0  0  0  0  0  0  0  0  0  0  0  0
  191.0480  176.5040  146.4910 C   0  0  0  0  0  0  0  0  0  0  0  0
  191.0770  176.7930  143.5500 C   0  0  0  0  0  2  0  0  0  0  0  0
  192.0300  177.6510  142.7290 C   0  0  0  0  0  2  0  0  0  0  0  0
  190.9040  177.4060  140.5880 C   0  0  0  0  0  3  0  0  0  0  0  0
  191.9930  177.2100  141.3150 C   0  0  0  0  0  3  0  0  0  0  0  0
  190.7640  175.7130  138.9160 N   0  0  0  0  0  0  0  0  0  0  0  0
  190.8740  176.9720  139.1960 C   0  0  0  0  0  3  0  0  0  0  0  0
  190.7290  175.2710  137.5300 C   0  0  1  0  0  3  0  0  0  0  0  0
  192.3110  174.5010  137.0760 S   0  0  0  0  0  1  0  0  0  0  0  0
  189.6620  174.3000  137.3500 N   0  0  0  0  0  2  0  0  0  0  0  0
  186.8630  172.8760  135.5180 N   0  0  0  0  0  0  0  0  0  0  0  0
  188.1950  173.1690  134.9730 C   0  0  0  0  0  2  0  0  0  0  0  0
  187.2240  174.5430  137.3100 C   0  0  0  0  0  2  0  0  0  0  0  0
  186.6540  171.4570  135.2630 C   0  0  0  0  0  1  0  0  0  0  0  0
  186.8830  173.0840  136.9800 C   0  0  1  0  0  3  0  0  0  0  0  0
  188.5450  174.6380  135.1800 C   0  0  0  0  0  2  0  0  0  0  0  0
  185.5190  172.7860  137.5920 C   0  0  0  0  0  1  0  0  0  0  0  0
  188.5510  174.9670  136.6780 C   0  0  2  0  0  3  0  0  0  0  0  0
  185.8770  177.5810  143.8690 C   0  0  0  0  0  2  0  0  0  0  0  0
  183.5200  178.7830  142.7540 O   0  0  0  0  0  0  0  0  0  0  0  0
  185.7150  178.0180  142.4890 N   0  0  0  0  0  2  0  0  0  0  0  0
  184.5260  178.6450  142.0070 C   0  0  0  0  0  0  0  0  0  0  0  0
  184.4840  179.1530  140.6120 C   0  0  0  0  0  2  0  0  0  0  0  0
  185.7120  178.7950  139.9250 N   0  0  0  0  0  2  0  0  0  0  0  0
  185.3570  178.5650  138.5310 C   0  0  1  0  0  3  0  0  0  0  0  0
  187.1260  178.5150  136.7860 C   0  0  0  0  0  2  0  0  0  0  0  0
  187.7880  178.3010  138.1280 C   0  0  0  0  0  2  0  0  0  0  0  0
  186.4200  177.7090  137.8610 C   0  0  0  0  0  3  0  0  0  0  0  0
  184.0110  177.8740  138.4630 C   0  0  0  0  0  2  0  0  0  0  0  0
  184.1610  176.6000  137.7940 N   0  0  0  0  0  2  0  0  0  0  0  0
  182.9050  175.8840  137.9420 C   0  0  0  0  0  2  0  0  0  0  0  0
  182.0530  173.8120  136.8920 C   0  0  0  0  0  1  0  0  0  0  0  0
  182.5320  175.2230  136.6300 C   0  0  2  0  0  3  0  0  0  0  0  0
  183.6450  175.1840  135.7910 O   0  0  0  0  0  1  0  0  0  0  0  0
  1  7  1  0  0  0  0
  2  6  1  0  0  0  0
  3  4  1  0  0  0  0
  3  5  1  0  0  0  0
  4  2  1  0  0  0  0
  5 31  1  6  0  0  0
  5  1  1  0  0  0  0
  6  7  2  0  0  0  0
  6 13  1  0  0  0  0
  7  8  1  0  0  0  0
 10 13  2  0  0  0  0
 10 11  1  0  0  0  0
 11  9  1  0  0  0  0
 12  9  2  0  0  0  0
 13 12  1  0  0  0  0
 14  2  1  0  0  0  0
 15 14  1  0  0  0  0
 16 17  2  0  0  0  0
 17 15  1  0  0  0  0
 18 19  2  0  0  0  0
 19 16  1  0  0  0  0
 20 21  1  1  0  0  0
 20 18  1  0  0  0  0
 22 20  1  0  0  0  0
 23 27  1  0  0  0  0
 24 28  1  0  0  0  0
 24 23  1  0  0  0  0
 26 23  1  0  0  0  0
 27 25  1  0  0  0  0
 27 29  1  6  0  0  0
 28 30  1  0  0  0  0
 30 25  1  0  0  0  0
 30 22  1  1  0  0  0
 33 31  1  0  0  0  0
 34 33  1  0  0  0  0
 34 32  2  0  0  0  0
 35 34  1  0  0  0  0
 36 35  1  0  0  0  0
 37 41  1  1  0  0  0
 37 36  1  0  0  0  0
 38 40  1  0  0  0  0
 38 39  1  0  0  0  0
 40 39  1  0  0  0  0
 40 37  1  0  0  0  0
 42 43  1  0  0  0  0
 42 41  1  0  0  0  0
 45 44  1  1  0  0  0
 45 43  1  0  0  0  0
 46 45  1  0  0  0  0
M  END
>  <MODEL>
8

>  <REMARK>
 VINA RESULT:      -6.4      2.912      6.264
  Name = 
  18 active torsions:
  status: ('A' for Active; 'I' for Inactive)
    1  A    between atoms: N_3  and  C_20
    2  A    between atoms: N_5  and  C_21
    3  A    between atoms: N_5  and  C_25
    4  A    between atoms: C_6  and  C_21
    5  A    between atoms: C_7  and  C_41
    6  A    between atoms: N_10  and  C_23
    7  A    between atoms: N_10  and  C_37
    8  A    between atoms: N_12  and  C_17
    9  A    between atoms: C_15  and  C_27
   10  A    between atoms: C_15  and  N_33
   11  A    between atoms: C_17  and  C_18
   12  A    between atoms: C_18  and  C_22
   13  A    between atoms: C_20  and  N_24
   14  A    between atoms: C_23  and  C_36
   15  A    between atoms: N_24  and  C_44
   16  A    between atoms: C_25  and  C_37
   17  A    between atoms: C_30  and  C_37
   18  A    between atoms: C_38  and  C_40
                            x       y       z     vdW  Elec       q    Type
                         _______ _______ _______ _____ _____    ______ ____

>  <TORSDO>
F 18

$$$$
=
 OpenBabel10232408003D

 46 49  0  0  1  0  0  0  0  0999 V2000
  189.4880  176.8340  143.2710 C   0  0  0  0  0  2  0  0  0  0  0  0
  187.1420  177.7910  144.8200 N   0  0  0  0  0  0  0  0  0  0  0  0
  187.2570  177.5420  142.3740 C   0  0  0  0  0  2  0  0  0  0  0  0
  186.6870  176.9870  143.6820 C   0  0  0  0  0  2  0  0  0  0  0  0
  188.7360  177.9080  142.4980 C   0  0  2  0  0  3  0  0  0  0  0  0
  188.4060  177.5000  145.4640 C   0  0  0  0  0  0  0  0  0  0  0  0
  189.4930  177.0790  144.7560 C   0  0  0  0  0  0  0  0  0  0  0  0
  190.7020  176.7450  145.4300 N   0  0  0  0  0  1  0  0  0  0  0  0
  188.2050  177.4050  149.0080 C   0  0  0  0  0  3  0  0  0  0  0  0
  189.2250  178.6180  147.5560 N   0  0  0  0  0  0  0  0  0  0  0  0
  189.0470  178.4440  148.8540 N   0  0  0  0  0  0  0  0  0  0  0  0
  187.8300  176.8970  147.8160 N   0  0  0  0  0  2  0  0  0  0  0  0
  188.4890  177.6780  146.9380 C   0  0  0  0  0  0  0  0  0  0  0  0
  186.3110  178.8820  145.3450 C   0  0  0  0  0  2  0  0  0  0  0  0
  185.1770  178.4080  146.2430 C   0  0  0  0  0  2  0  0  0  0  0  0
  183.7200  179.2810  144.5040 C   0  0  0  0  0  3  0  0  0  0  0  0
  183.9110  178.3990  145.4730 C   0  0  0  0  0  3  0  0  0  0  0  0
  182.4470  178.7650  142.5560 N   0  0  0  0  0  0  0  0  0  0  0  0
  182.4720  179.2660  143.7480 C   0  0  0  0  0  3  0  0  0  0  0  0
  181.2060  178.7420  141.7950 C   0  0  1  0  0  3  0  0  0  0  0  0
  179.9900  179.8640  142.5440 S   0  0  0  0  0  1  0  0  0  0  0  0
  181.4610  179.1640  140.4270 N   0  0  0  0  0  2  0  0  0  0  0  0
  182.3840  177.4020  137.3830 N   0  0  0  0  0  0  0  0  0  0  0  0
  181.9860  178.8120  137.4810 C   0  0  0  0  0  2  0  0  0  0  0  0
  181.1880  176.9150  139.4940 C   0  0  0  0  0  2  0  0  0  0  0  0
  183.7010  177.4230  136.7610 C   0  0  0  0  0  1  0  0  0  0  0  0
  182.5260  176.8460  138.7440 C   0  0  1  0  0  3  0  0  0  0  0  0
  180.6110  178.9360  138.1260 C   0  0  0  0  0  2  0  0  0  0  0  0
  182.9440  175.3810  138.6930 C   0  0  0  0  0  1  0  0  0  0  0  0
  180.6420  178.3430  139.5400 C   0  0  2  0  0  3  0  0  0  0  0  0
  189.3460  178.0620  141.1170 C   0  0  0  0  0  2  0  0  0  0  0  0
  189.0920  179.1510  138.4720 O   0  0  0  0  0  0  0  0  0  0  0  0
  188.4080  177.6130  140.0970 N   0  0  0  0  0  2  0  0  0  0  0  0
  188.3600  178.1740  138.7840 C   0  0  0  0  0  0  0  0  0  0  0  0
  187.4440  177.5870  137.7730 C   0  0  0  0  0  2  0  0  0  0  0  0
  188.2180  176.9200  136.7420 N   0  0  0  0  0  2  0  0  0  0  0  0
  188.3050  175.5180  137.1270 C   0  0  1  0  0  3  0  0  0  0  0  0
  187.1920  173.3200  136.8000 C   0  0  0  0  0  2  0  0  0  0  0  0
  186.1270  174.3920  136.7650 C   0  0  0  0  0  2  0  0  0  0  0  0
  187.4910  174.6660  136.1660 C   0  0  0  0  0  3  0  0  0  0  0  0
  189.7560  175.0810  137.1100 C   0  0  0  0  0  2  0  0  0  0  0  0
  190.6040  176.2470  136.9960 N   0  0  0  0  0  2  0  0  0  0  0  0
  191.4700  176.2680  138.1630 C   0  0  0  0  0  2  0  0  0  0  0  0
  193.2340  175.7780  136.5000 C   0  0  0  0  0  1  0  0  0  0  0  0
  192.8940  176.5720  137.7420 C   0  0  2  0  0  3  0  0  0  0  0  0
  193.7710  176.2230  138.7670 O   0  0  0  0  0  1  0  0  0  0  0  0
  1  7  1  0  0  0  0
  2 14  1  0  0  0  0
  2  6  1  0  0  0  0
  3  5  1  0  0  0  0
  3  4  1  0  0  0  0
  4  2  1  0  0  0  0
  5 31  1  6  0  0  0
  5  1  1  0  0  0  0
  6 13  1  0  0  0  0
  7  8  1  0  0  0  0
  7  6  2  0  0  0  0
 10 11  1  0  0  0  0
 11  9  2  0  0  0  0
 12  9  1  0  0  0  0
 13 10  2  0  0  0  0
 13 12  1  0  0  0  0
 14 15  1  0  0  0  0
 16 17  2  0  0  0  0
 17 15  1  0  0  0  0
 18 19  2  0  0  0  0
 19 16  1  0  0  0  0
 20 21  1  1  0  0  0
 20 18  1  0  0  0  0
 22 20  1  0  0  0  0
 23 24  1  0  0  0  0
 23 27  1  0  0  0  0
 24 28  1  0  0  0  0
 25 30  1  0  0  0  0
 26 23  1  0  0  0  0
 27 29  1  6  0  0  0
 27 25  1  0  0  0  0
 28 30  1  0  0  0  0
 30 22  1  1  0  0  0
 32 34  2  0  0  0  0
 33 31  1  0  0  0  0
 34 33  1  0  0  0  0
 35 34  1  0  0  0  0
 36 37  1  0  0  0  0
 36 35  1  0  0  0  0
 37 41  1  6  0  0  0
 39 38  1  0  0  0  0
 40 39  1  0  0  0  0
 40 38  1  0  0  0  0
 40 37  1  0  0  0  0
 42 41  1  0  0  0  0
 42 43  1  0  0  0  0
 45 44  1  6  0  0  0
 45 43  1  0  0  0  0
 45 46  1  0  0  0  0
M  END
>  <MODEL>
9

>  <REMARK>
 VINA RESULT:      -6.3      1.900      3.139
  Name = 
  18 active torsions:
  status: ('A' for Active; 'I' for Inactive)
    1  A    between atoms: N_3  and  C_20
    2  A    between atoms: N_5  and  C_21
    3  A    between atoms: N_5  and  C_25
    4  A    between atoms: C_6  and  C_21
    5  A    between atoms: C_7  and  C_41
    6  A    between atoms: N_10  and  C_23
    7  A    between atoms: N_10  and  C_37
    8  A    between atoms: N_12  and  C_17
    9  A    between atoms: C_15  and  C_27
   10  A    between atoms: C_15  and  N_33
   11  A    between atoms: C_17  and  C_18
   12  A    between atoms: C_18  and  C_22
   13  A    between atoms: C_20  and  N_24
   14  A    between atoms: C_23  and  C_36
   15  A    between atoms: N_24  and  C_44
   16  A    between atoms: C_25  and  C_37
   17  A    between atoms: C_30  and  C_37
   18  A    between atoms: C_38  and  C_40
                            x       y       z     vdW  Elec       q    Type
                         _______ _______ _______ _____ _____    ______ ____

>  <TORSDO>
F 18

$$$$
