=
 OpenBabel10232408373D

 28 31  0  0  1  0  0  0  0  0999 V2000
  189.0190  178.1170  141.6860 C   0  0  0  0  0  2  0  0  0  0  0  0
  190.4980  176.1620  141.3630 O   0  0  0  0  0  0  0  0  0  0  0  0
  191.6760  177.3060  139.1250 O   0  0  0  0  0  0  0  0  0  0  0  0
  190.3450  177.6600  139.4070 C   0  0  2  0  0  3  0  0  0  0  0  0
  190.0920  177.4120  140.8720 C   0  0  1  0  0  0  0  0  0  0  0  0
  191.3850  177.2530  141.5140 C   0  0  2  0  0  3  0  0  0  0  0  0
  192.3640  177.2810  140.3560 C   0  0  0  0  0  2  0  0  0  0  0  0
  189.3870  176.8370  138.5590 C   0  0  0  0  0  2  0  0  0  0  0  0
  188.2980  177.6980  138.0220 C   0  0  0  0  0  0  0  0  0  0  0  0
  188.5270  178.9140  137.7780 O   0  0  0  0  0  0  0  0  0  0  0  0
  187.0130  177.1320  137.7600 N   0  0  0  0  0  2  0  0  0  0  0  0
  185.9300  177.8910  137.1540 C   0  0  0  0  0  2  0  0  0  0  0  0
  184.3950  177.6740  138.1090 S   0  0  0  0  0  0  0  0  0  0  0  0
  184.9340  178.7990  139.4300 C   0  0  0  0  0  2  0  0  0  0  0  0
  184.4150  180.0750  139.2050 O   0  0  0  0  0  1  0  0  0  0  0  0
  188.0180  177.1160  142.2380 C   0  0  0  0  0  2  0  0  0  0  0  0
  188.5150  177.5850  145.9030 C   0  0  0  0  0  0  0  0  0  0  0  0
  187.2420  178.0100  146.3380 C   0  0  0  0  0  0  0  0  0  0  0  0
  186.4630  177.8400  144.0550 C   0  0  0  0  0  3  0  0  0  0  0  0
  188.0380  178.1740  148.5730 C   0  0  0  0  0  3  0  0  0  0  0  0
  189.3110  177.7550  148.1760 C   0  0  0  0  0  3  0  0  0  0  0  0
  187.0390  178.2920  147.6570 N   0  0  0  0  0  0  0  0  0  0  0  0
  187.7380  177.4150  143.6690 C   0  0  0  0  0  0  0  0  0  0  0  0
  186.2090  178.1380  145.3960 C   0  0  0  0  0  0  0  0  0  0  0  0
  188.7310  177.3020  144.5920 N   0  0  0  0  0  0  0  0  0  0  0  0
  189.5480  177.4590  146.8330 C   0  0  0  0  0  3  0  0  0  0  0  0
  184.8910  178.5700  145.7790 C   0  0  0  0  0  0  0  0  0  0  0  0
  183.8300  178.9150  146.0880 N   0  0  0  0  0  0  0  0  0  0  0  0
  1 16  1  0  0  0  0
  2  6  1  0  0  0  0
  3  4  1  0  0  0  0
  3  7  1  0  0  0  0
  4  8  1  6  0  0  0
  4  5  1  0  0  0  0
  5  2  1  0  0  0  0
  5  6  1  0  0  0  0
  5  1  1  1  0  0  0
  6  7  1  6  0  0  0
  9  8  1  0  0  0  0
 10  9  2  0  0  0  0
 11  9  1  0  0  0  0
 12 11  1  0  0  0  0
 12 13  1  0  0  0  0
 13 14  1  0  0  0  0
 15 14  1  0  0  0  0
 16 23  1  0  0  0  0
 17 18  1  0  0  0  0
 17 26  1  0  0  0  0
 18 22  1  0  0  0  0
 19 24  1  0  0  0  0
 21 20  1  0  0  0  0
 22 20  2  0  0  0  0
 23 19  2  0  0  0  0
 23 25  1  0  0  0  0
 24 27  1  0  0  0  0
 24 18  2  0  0  0  0
 25 17  2  0  0  0  0
 26 21  2  0  0  0  0
 27 28  3  0  0  0  0
M  END
>  <MODEL>
1

>  <REMARK>
 VINA RESULT:      -7.8      0.000      0.000
  Name = 
  9 active torsions:
  status: ('A' for Active; 'I' for Inactive)
    1  A    between atoms: C_1  and  C_3
    2  A    between atoms: C_1  and  C_20
    3  A    between atoms: C_3  and  C_13
    4  A    between atoms: C_4  and  S_22
    5  A    between atoms: C_6  and  C_17
    6  A    between atoms: C_10  and  C_21
    7  A    between atoms: C_11  and  C_17
    8  A    between atoms: S_22  and  C_25
    9  A    between atoms: C_25  and  N_27
                            x       y       z     vdW  Elec       q    Type
                         _______ _______ _______ _____ _____    ______ ____

>  <TORSDO>
F 9

$$$$
=
 OpenBabel10232408373D

 28 31  0  0  1  0  0  0  0  0999 V2000
  190.6580  177.7840  141.9880 C   0  0  0  0  0  2  0  0  0  0  0  0
  189.5860  176.5180  140.1540 O   0  0  0  0  0  0  0  0  0  0  0  0
  187.9070  178.6430  139.5440 O   0  0  0  0  0  0  0  0  0  0  0  0
  188.3380  178.5210  140.8770 C   0  0  2  0  0  3  0  0  0  0  0  0
  189.6100  177.7130  140.8890 C   0  0  1  0  0  0  0  0  0  0  0  0
  190.1100  177.6710  139.5260 C   0  0  2  0  0  3  0  0  0  0  0  0
  189.0200  178.3580  138.7250 C   0  0  0  0  0  2  0  0  0  0  0  0
  187.2700  177.8390  141.7170 C   0  0  0  0  0  2  0  0  0  0  0  0
  185.9860  178.5880  141.6350 C   0  0  0  0  0  0  0  0  0  0  0  0
  185.8250  179.4500  140.7290 O   0  0  0  0  0  0  0  0  0  0  0  0
  184.9390  178.3010  142.5620 N   0  0  0  0  0  2  0  0  0  0  0  0
  183.6290  178.9300  142.4860 C   0  0  0  0  0  2  0  0  0  0  0  0
  182.7540  178.7620  144.0740 S   0  0  0  0  0  0  0  0  0  0  0  0
  184.2540  179.0680  145.0520 C   0  0  0  0  0  2  0  0  0  0  0  0
  183.9930  178.8320  146.4020 O   0  0  0  0  0  1  0  0  0  0  0  0
  190.7210  176.4740  142.7560 C   0  0  0  0  0  2  0  0  0  0  0  0
  188.8290  177.3770  145.8380 C   0  0  0  0  0  0  0  0  0  0  0  0
  189.7610  177.1130  146.8640 C   0  0  0  0  0  0  0  0  0  0  0  0
  191.3490  176.4290  145.1730 C   0  0  0  0  0  3  0  0  0  0  0  0
  188.1770  177.7870  148.5050 C   0  0  0  0  0  3  0  0  0  0  0  0
  187.2290  178.0580  147.5140 C   0  0  0  0  0  3  0  0  0  0  0  0
  189.4110  177.3260  148.1650 N   0  0  0  0  0  0  0  0  0  0  0  0
  190.3970  176.7090  144.1890 C   0  0  0  0  0  0  0  0  0  0  0  0
  191.0340  176.6330  146.5190 C   0  0  0  0  0  0  0  0  0  0  0  0
  189.1650  177.1680  144.5390 N   0  0  0  0  0  0  0  0  0  0  0  0
  187.5600  177.8510  146.1730 C   0  0  0  0  0  3  0  0  0  0  0  0
  192.0260  176.3440  147.5220 C   0  0  0  0  0  0  0  0  0  0  0  0
  192.8220  176.1110  148.3290 N   0  0  0  0  0  0  0  0  0  0  0  0
  1 16  1  0  0  0  0
  2  5  1  0  0  0  0
  3  4  1  0  0  0  0
  4  5  1  0  0  0  0
  4  8  1  1  0  0  0
  5  1  1  1  0  0  0
  6  7  1  6  0  0  0
  6  2  1  0  0  0  0
  6  5  1  0  0  0  0
  7  3  1  0  0  0  0
  9  8  1  0  0  0  0
  9 11  1  0  0  0  0
 10  9  2  0  0  0  0
 12 11  1  0  0  0  0
 12 13  1  0  0  0  0
 13 14  1  0  0  0  0
 14 15  1  0  0  0  0
 16 23  1  0  0  0  0
 17 26  1  0  0  0  0
 17 18  1  0  0  0  0
 18 22  1  0  0  0  0
 19 24  1  0  0  0  0
 21 20  1  0  0  0  0
 22 20  2  0  0  0  0
 23 25  1  0  0  0  0
 23 19  2  0  0  0  0
 24 18  2  0  0  0  0
 24 27  1  0  0  0  0
 25 17  2  0  0  0  0
 26 21  2  0  0  0  0
 27 28  3  0  0  0  0
M  END
>  <MODEL>
2

>  <REMARK>
 VINA RESULT:      -7.7      2.741      4.374
  Name = 
  9 active torsions:
  status: ('A' for Active; 'I' for Inactive)
    1  A    between atoms: C_1  and  C_3
    2  A    between atoms: C_1  and  C_20
    3  A    between atoms: C_3  and  C_13
    4  A    between atoms: C_4  and  S_22
    5  A    between atoms: C_6  and  C_17
    6  A    between atoms: C_10  and  C_21
    7  A    between atoms: C_11  and  C_17
    8  A    between atoms: S_22  and  C_25
    9  A    between atoms: C_25  and  N_27
                            x       y       z     vdW  Elec       q    Type
                         _______ _______ _______ _____ _____    ______ ____

>  <TORSDO>
F 9

$$$$
=
 OpenBabel10232408373D

 28 31  0  0  1  0  0  0  0  0999 V2000
  187.8060  178.3860  140.5370 C   0  0  0  0  0  2  0  0  0  0  0  0
  189.5050  178.6140  138.7560 O   0  0  0  0  0  0  0  0  0  0  0  0
  190.4100  176.0210  139.1580 O   0  0  0  0  0  0  0  0  0  0  0  0
  189.8590  176.6920  140.2630 C   0  0  2  0  0  3  0  0  0  0  0  0
  188.9600  177.7880  139.7500 C   0  0  1  0  0  0  0  0  0  0  0  0
  188.7100  177.5200  138.3450 C   0  0  2  0  0  3  0  0  0  0  0  0
  189.5980  176.3260  138.0460 C   0  0  0  0  0  2  0  0  0  0  0  0
  190.9640  177.2770  141.1310 C   0  0  0  0  0  2  0  0  0  0  0  0
  190.9240  176.6810  142.4940 C   0  0  0  0  0  0  0  0  0  0  0  0
  190.4180  175.5380  142.6610 O   0  0  0  0  0  0  0  0  0  0  0  0
  191.4870  177.3960  143.5950 N   0  0  0  0  0  2  0  0  0  0  0  0
  191.5630  176.8380  144.9370 C   0  0  0  0  0  2  0  0  0  0  0  0
  190.0930  177.3110  145.9020 S   0  0  0  0  0  0  0  0  0  0  0  0
  190.6820  176.4780  147.4050 C   0  0  0  0  0  2  0  0  0  0  0  0
  191.9090  177.0170  147.7930 O   0  0  0  0  0  1  0  0  0  0  0  0
  187.7910  177.8520  141.9600 C   0  0  0  0  0  2  0  0  0  0  0  0
  184.1380  178.4840  142.3580 C   0  0  0  0  0  0  0  0  0  0  0  0
  183.9920  178.5940  143.7570 C   0  0  0  0  0  0  0  0  0  0  0  0
  186.3710  178.2200  143.9820 C   0  0  0  0  0  3  0  0  0  0  0  0
  181.6550  178.9530  143.5050 C   0  0  0  0  0  3  0  0  0  0  0  0
  181.7640  178.8490  142.1150 C   0  0  0  0  0  3  0  0  0  0  0  0
  182.7590  178.8250  144.2900 N   0  0  0  0  0  0  0  0  0  0  0  0
  186.4720  178.1250  142.5910 C   0  0  0  0  0  0  0  0  0  0  0  0
  185.1270  178.4580  144.5720 C   0  0  0  0  0  0  0  0  0  0  0  0
  185.3610  178.2520  141.8140 N   0  0  0  0  0  0  0  0  0  0  0  0
  183.0140  178.6140  141.5410 C   0  0  0  0  0  3  0  0  0  0  0  0
  185.0400  178.5580  146.0050 C   0  0  0  0  0  0  0  0  0  0  0  0
  184.9700  178.6400  147.1570 N   0  0  0  0  0  0  0  0  0  0  0  0
  1 16  1  0  0  0  0
  2  5  1  0  0  0  0
  3  4  1  0  0  0  0
  4  8  1  1  0  0  0
  5  4  1  0  0  0  0
  5  1  1  1  0  0  0
  6  7  1  6  0  0  0
  6  2  1  0  0  0  0
  6  5  1  0  0  0  0
  7  3  1  0  0  0  0
  8  9  1  0  0  0  0
  9 10  2  0  0  0  0
  9 11  1  0  0  0  0
 11 12  1  0  0  0  0
 12 13  1  0  0  0  0
 13 14  1  0  0  0  0
 14 15  1  0  0  0  0
 16 23  1  0  0  0  0
 17 18  1  0  0  0  0
 18 22  1  0  0  0  0
 18 24  2  0  0  0  0
 19 24  1  0  0  0  0
 20 22  2  0  0  0  0
 21 20  1  0  0  0  0
 23 19  2  0  0  0  0
 24 27  1  0  0  0  0
 25 17  2  0  0  0  0
 25 23  1  0  0  0  0
 26 21  2  0  0  0  0
 26 17  1  0  0  0  0
 27 28  3  0  0  0  0
M  END
>  <MODEL>
3

>  <REMARK>
 VINA RESULT:      -7.5      3.041      5.845
  Name = 
  9 active torsions:
  status: ('A' for Active; 'I' for Inactive)
    1  A    between atoms: C_1  and  C_3
    2  A    between atoms: C_1  and  C_20
    3  A    between atoms: C_3  and  C_13
    4  A    between atoms: C_4  and  S_22
    5  A    between atoms: C_6  and  C_17
    6  A    between atoms: C_10  and  C_21
    7  A    between atoms: C_11  and  C_17
    8  A    between atoms: S_22  and  C_25
    9  A    between atoms: C_25  and  N_27
                            x       y       z     vdW  Elec       q    Type
                         _______ _______ _______ _____ _____    ______ ____

>  <TORSDO>
F 9

$$$$
=
 OpenBabel10232408373D

 28 31  0  0  1  0  0  0  0  0999 V2000
  185.0970  177.7970  144.7400 C   0  0  0  0  0  2  0  0  0  0  0  0
  183.8400  179.8590  144.2100 O   0  0  0  0  0  0  0  0  0  0  0  0
  183.0110  178.8370  141.7660 O   0  0  0  0  0  0  0  0  0  0  0  0
  184.2410  178.3830  142.2740 C   0  0  2  0  0  3  0  0  0  0  0  0
  184.2410  178.5900  143.7670 C   0  0  1  0  0  0  0  0  0  0  0  0
  182.8670  178.8340  144.1700 C   0  0  2  0  0  3  0  0  0  0  0  0
  182.1150  178.8950  142.8530 C   0  0  0  0  0  2  0  0  0  0  0  0
  185.3910  179.1450  141.6340 C   0  0  0  0  0  2  0  0  0  0  0  0
  185.2650  179.1270  140.1510 C   0  0  0  0  0  0  0  0  0  0  0  0
  184.4240  179.8780  139.5870 O   0  0  0  0  0  0  0  0  0  0  0  0
  186.1200  178.2830  139.3780 N   0  0  0  0  0  2  0  0  0  0  0  0
  186.1140  178.2800  137.9230 C   0  0  0  0  0  2  0  0  0  0  0  0
  187.5690  177.3890  137.2870 S   0  0  0  0  0  0  0  0  0  0  0  0
  188.7070  178.2130  138.4390 C   0  0  0  0  0  2  0  0  0  0  0  0
  188.9990  179.4970  137.9770 O   0  0  0  0  0  1  0  0  0  0  0  0
  186.1170  178.6980  145.4170 C   0  0  0  0  0  2  0  0  0  0  0  0
  189.4440  177.3090  146.3680 C   0  0  0  0  0  0  0  0  0  0  0  0
  189.9960  176.9410  145.1220 C   0  0  0  0  0  0  0  0  0  0  0  0
  187.9800  177.7440  144.0520 C   0  0  0  0  0  3  0  0  0  0  0  0
  191.9630  176.1560  146.2020 C   0  0  0  0  0  3  0  0  0  0  0  0
  191.4460  176.5070  147.4520 C   0  0  0  0  0  3  0  0  0  0  0  0
  191.2360  176.3780  145.0730 N   0  0  0  0  0  0  0  0  0  0  0  0
  187.4750  178.0990  145.3070 C   0  0  0  0  0  0  0  0  0  0  0  0
  189.2480  177.1650  143.9550 C   0  0  0  0  0  0  0  0  0  0  0  0
  188.2090  177.8710  146.4300 N   0  0  0  0  0  0  0  0  0  0  0  0
  190.1790  177.0870  147.5330 C   0  0  0  0  0  3  0  0  0  0  0  0
  189.7570  176.8090  142.6570 C   0  0  0  0  0  0  0  0  0  0  0  0
  190.1650  176.5210  141.6120 N   0  0  0  0  0  0  0  0  0  0  0  0
  1 16  1  0  0  0  0
  3  4  1  0  0  0  0
  3  7  1  0  0  0  0
  4  8  1  6  0  0  0
  4  5  1  0  0  0  0
  5  6  1  0  0  0  0
  5  2  1  0  0  0  0
  5  1  1  1  0  0  0
  6  7  1  6  0  0  0
  6  2  1  0  0  0  0
  9  8  1  0  0  0  0
 10  9  2  0  0  0  0
 11  9  1  0  0  0  0
 12 11  1  0  0  0  0
 13 12  1  0  0  0  0
 13 14  1  0  0  0  0
 15 14  1  0  0  0  0
 17 25  1  0  0  0  0
 17 26  1  0  0  0  0
 18 17  2  0  0  0  0
 19 23  1  0  0  0  0
 20 21  1  0  0  0  0
 21 26  2  0  0  0  0
 22 18  1  0  0  0  0
 22 20  2  0  0  0  0
 23 16  1  0  0  0  0
 23 25  2  0  0  0  0
 24 19  2  0  0  0  0
 24 18  1  0  0  0  0
 27 24  1  0  0  0  0
 28 27  3  0  0  0  0
M  END
>  <MODEL>
4

>  <REMARK>
 VINA RESULT:      -7.5      2.264      5.332
  Name = 
  9 active torsions:
  status: ('A' for Active; 'I' for Inactive)
    1  A    between atoms: C_1  and  C_3
    2  A    between atoms: C_1  and  C_20
    3  A    between atoms: C_3  and  C_13
    4  A    between atoms: C_4  and  S_22
    5  A    between atoms: C_6  and  C_17
    6  A    between atoms: C_10  and  C_21
    7  A    between atoms: C_11  and  C_17
    8  A    between atoms: S_22  and  C_25
    9  A    between atoms: C_25  and  N_27
                            x       y       z     vdW  Elec       q    Type
                         _______ _______ _______ _____ _____    ______ ____

>  <TORSDO>
F 9

$$$$
=
 OpenBabel10232408373D

 28 31  0  0  1  0  0  0  0  0999 V2000
  185.8150  178.6600  145.2180 C   0  0  0  0  0  2  0  0  0  0  0  0
  184.1040  180.2290  144.3670 O   0  0  0  0  0  0  0  0  0  0  0  0
  183.5330  178.5820  142.2070 O   0  0  0  0  0  0  0  0  0  0  0  0
  184.8370  178.5340  142.7310 C   0  0  2  0  0  3  0  0  0  0  0  0
  184.7930  179.0260  144.1550 C   0  0  1  0  0  0  0  0  0  0  0  0
  183.4010  179.0200  144.5710 C   0  0  2  0  0  3  0  0  0  0  0  0
  182.6520  178.6440  143.3070 C   0  0  0  0  0  2  0  0  0  0  0  0
  185.7720  179.4000  141.9010 C   0  0  0  0  0  2  0  0  0  0  0  0
  185.5690  179.1410  140.4490 C   0  0  0  0  0  0  0  0  0  0  0  0
  184.5720  179.6400  139.8600 O   0  0  0  0  0  0  0  0  0  0  0  0
  186.5220  178.3560  139.7310 N   0  0  0  0  0  2  0  0  0  0  0  0
  186.4340  178.1370  138.2940 C   0  0  0  0  0  2  0  0  0  0  0  0
  187.8620  177.1660  137.7160 S   0  0  0  0  0  0  0  0  0  0  0  0
  189.0430  178.5040  138.0580 C   0  0  0  0  0  2  0  0  0  0  0  0
  188.7040  179.6350  137.3160 O   0  0  0  0  0  1  0  0  0  0  0  0
  186.2690  177.2190  145.0550 C   0  0  0  0  0  2  0  0  0  0  0  0
  189.2980  177.2600  142.8820 C   0  0  0  0  0  0  0  0  0  0  0  0
  190.3520  177.1540  143.8140 C   0  0  0  0  0  0  0  0  0  0  0  0
  188.7060  177.0820  145.5860 C   0  0  0  0  0  3  0  0  0  0  0  0
  191.9460  177.2340  142.0520 C   0  0  0  0  0  3  0  0  0  0  0  0
  190.9270  177.3390  141.1020 C   0  0  0  0  0  3  0  0  0  0  0  0
  191.6420  177.1440  143.3760 N   0  0  0  0  0  0  0  0  0  0  0  0
  187.6930  177.1810  144.6270 C   0  0  0  0  0  0  0  0  0  0  0  0
  190.0440  177.0660  145.1810 C   0  0  0  0  0  0  0  0  0  0  0  0
  188.0080  177.2730  143.3060 N   0  0  0  0  0  0  0  0  0  0  0  0
  189.5960  177.3520  141.5220 C   0  0  0  0  0  3  0  0  0  0  0  0
  191.0750  176.9590  146.1790 C   0  0  0  0  0  0  0  0  0  0  0  0
  191.9040  176.8740  146.9820 N   0  0  0  0  0  0  0  0  0  0  0  0
  2  6  1  0  0  0  0
  3  4  1  0  0  0  0
  3  7  1  0  0  0  0
  4  8  1  6  0  0  0
  4  5  1  0  0  0  0
  5  2  1  0  0  0  0
  5  6  1  0  0  0  0
  5  1  1  1  0  0  0
  6  7  1  6  0  0  0
  9  8  1  0  0  0  0
 10  9  2  0  0  0  0
 11  9  1  0  0  0  0
 12 11  1  0  0  0  0
 13 14  1  0  0  0  0
 13 12  1  0  0  0  0
 15 14  1  0  0  0  0
 16  1  1  0  0  0  0
 17 25  2  0  0  0  0
 17 18  1  0  0  0  0
 18 24  2  0  0  0  0
 20 22  2  0  0  0  0
 21 26  2  0  0  0  0
 21 20  1  0  0  0  0
 22 18  1  0  0  0  0
 23 16  1  0  0  0  0
 23 19  2  0  0  0  0
 24 19  1  0  0  0  0
 24 27  1  0  0  0  0
 25 23  1  0  0  0  0
 26 17  1  0  0  0  0
 27 28  3  0  0  0  0
M  END
>  <MODEL>
5

>  <REMARK>
 VINA RESULT:      -7.5      2.430      5.718
  Name = 
  9 active torsions:
  status: ('A' for Active; 'I' for Inactive)
    1  A    between atoms: C_1  and  C_3
    2  A    between atoms: C_1  and  C_20
    3  A    between atoms: C_3  and  C_13
    4  A    between atoms: C_4  and  S_22
    5  A    between atoms: C_6  and  C_17
    6  A    between atoms: C_10  and  C_21
    7  A    between atoms: C_11  and  C_17
    8  A    between atoms: S_22  and  C_25
    9  A    between atoms: C_25  and  N_27
                            x       y       z     vdW  Elec       q    Type
                         _______ _______ _______ _____ _____    ______ ____

>  <TORSDO>
F 9

$$$$
=
 OpenBabel10232408373D

 28 31  0  0  1  0  0  0  0  0999 V2000
  188.7430  178.1860  141.4090 C   0  0  0  0  0  2  0  0  0  0  0  0
  188.9220  178.9870  139.0770 O   0  0  0  0  0  0  0  0  0  0  0  0
  189.1630  176.3970  138.1070 O   0  0  0  0  0  0  0  0  0  0  0  0
  189.6320  176.6470  139.4090 C   0  0  2  0  0  3  0  0  0  0  0  0
  188.9360  177.8770  139.9340 C   0  0  1  0  0  0  0  0  0  0  0  0
  187.7970  178.1310  139.0690 C   0  0  2  0  0  3  0  0  0  0  0  0
  187.9480  177.0990  137.9680 C   0  0  0  0  0  2  0  0  0  0  0  0
  191.1390  176.8570  139.3970 C   0  0  0  0  0  2  0  0  0  0  0  0
  191.7460  176.1910  138.2120 C   0  0  0  0  0  0  0  0  0  0  0  0
  192.3270  176.8870  137.3360 O   0  0  0  0  0  0  0  0  0  0  0  0
  191.6930  174.7690  138.0950 N   0  0  0  0  0  2  0  0  0  0  0  0
  192.3410  174.0460  137.0110 C   0  0  0  0  0  2  0  0  0  0  0  0
  194.0820  173.7110  137.4280 S   0  0  0  0  0  0  0  0  0  0  0  0
  194.7130  174.6720  136.0210 C   0  0  0  0  0  2  0  0  0  0  0  0
  195.4180  175.7820  136.4860 O   0  0  0  0  0  1  0  0  0  0  0  0
  188.5520  176.9070  142.2070 C   0  0  0  0  0  2  0  0  0  0  0  0
  188.7500  177.4460  145.8900 C   0  0  0  0  0  0  0  0  0  0  0  0
  187.4470  177.8830  146.2120 C   0  0  0  0  0  0  0  0  0  0  0  0
  186.8570  177.6690  143.8760 C   0  0  0  0  0  3  0  0  0  0  0  0
  188.0580  178.0880  148.5000 C   0  0  0  0  0  3  0  0  0  0  0  0
  189.3580  177.6580  148.2170 C   0  0  0  0  0  3  0  0  0  0  0  0
  187.1380  178.1900  147.5030 N   0  0  0  0  0  0  0  0  0  0  0  0
  188.1570  177.2340  143.6030 C   0  0  0  0  0  0  0  0  0  0  0  0
  186.4950  177.9940  145.1860 C   0  0  0  0  0  0  0  0  0  0  0  0
  189.0710  177.1370  144.6070 N   0  0  0  0  0  0  0  0  0  0  0  0
  189.7030  177.3360  146.9040 C   0  0  0  0  0  3  0  0  0  0  0  0
  185.1520  178.4360  145.4520 C   0  0  0  0  0  0  0  0  0  0  0  0
  184.0720  178.7920  145.6670 N   0  0  0  0  0  0  0  0  0  0  0  0
  1 16  1  0  0  0  0
  2  5  1  0  0  0  0
  3  4  1  0  0  0  0
  4  8  1  6  0  0  0
  4  5  1  0  0  0  0
  5  1  1  1  0  0  0
  6  7  1  6  0  0  0
  6  2  1  0  0  0  0
  6  5  1  0  0  0  0
  7  3  1  0  0  0  0
  9  8  1  0  0  0  0
 10  9  2  0  0  0  0
 11  9  1  0  0  0  0
 12 13  1  0  0  0  0
 12 11  1  0  0  0  0
 14 15  1  0  0  0  0
 14 13  1  0  0  0  0
 16 23  1  0  0  0  0
 17 18  1  0  0  0  0
 17 26  1  0  0  0  0
 18 22  1  0  0  0  0
 19 24  1  0  0  0  0
 21 20  1  0  0  0  0
 22 20  2  0  0  0  0
 23 19  2  0  0  0  0
 23 25  1  0  0  0  0
 24 27  1  0  0  0  0
 24 18  2  0  0  0  0
 25 17  2  0  0  0  0
 26 21  2  0  0  0  0
 27 28  3  0  0  0  0
M  END
>  <MODEL>
6

>  <REMARK>
 VINA RESULT:      -7.3      2.911      4.536
  Name = 
  9 active torsions:
  status: ('A' for Active; 'I' for Inactive)
    1  A    between atoms: C_1  and  C_3
    2  A    between atoms: C_1  and  C_20
    3  A    between atoms: C_3  and  C_13
    4  A    between atoms: C_4  and  S_22
    5  A    between atoms: C_6  and  C_17
    6  A    between atoms: C_10  and  C_21
    7  A    between atoms: C_11  and  C_17
    8  A    between atoms: S_22  and  C_25
    9  A    between atoms: C_25  and  N_27
                            x       y       z     vdW  Elec       q    Type
                         _______ _______ _______ _____ _____    ______ ____

>  <TORSDO>
F 9

$$$$
=
 OpenBabel10232408373D

 28 31  0  0  1  0  0  0  0  0999 V2000
  186.3220  177.4250  146.3290 C   0  0  0  0  0  2  0  0  0  0  0  0
  187.9630  176.4770  147.9160 O   0  0  0  0  0  0  0  0  0  0  0  0
  189.9820  178.1220  146.9540 O   0  0  0  0  0  0  0  0  0  0  0  0
  188.9630  177.7570  146.0570 C   0  0  2  0  0  3  0  0  0  0  0  0
  187.7450  177.3720  146.8580 C   0  0  1  0  0  0  0  0  0  0  0  0
  187.9450  177.8590  148.2120 C   0  0  2  0  0  3  0  0  0  0  0  0
  189.3610  178.4050  148.1880 C   0  0  0  0  0  2  0  0  0  0  0  0
  189.4140  176.5930  145.1890 C   0  0  0  0  0  2  0  0  0  0  0  0
  188.9190  176.7630  143.7950 C   0  0  0  0  0  0  0  0  0  0  0  0
  187.8610  176.1800  143.4340 O   0  0  0  0  0  0  0  0  0  0  0  0
  189.6290  177.6090  142.8900 N   0  0  0  0  0  2  0  0  0  0  0  0
  189.1560  177.8920  141.5430 C   0  0  0  0  0  2  0  0  0  0  0  0
  190.3610  177.2990  140.3130 S   0  0  0  0  0  0  0  0  0  0  0  0
  189.3380  177.8220  138.9050 C   0  0  0  0  0  2  0  0  0  0  0  0
  188.9790  179.1620  139.0530 O   0  0  0  0  0  1  0  0  0  0  0  0
  185.9510  178.8410  145.9200 C   0  0  0  0  0  2  0  0  0  0  0  0
  182.8330  178.7960  143.8760 C   0  0  0  0  0  0  0  0  0  0  0  0
  183.3270  178.7890  142.5550 C   0  0  0  0  0  0  0  0  0  0  0  0
  185.5740  178.8070  143.4500 C   0  0  0  0  0  3  0  0  0  0  0  0
  181.1070  178.7770  141.7030 C   0  0  0  0  0  3  0  0  0  0  0  0
  180.5840  178.7840  142.9990 C   0  0  0  0  0  3  0  0  0  0  0  0
  182.4540  178.7790  141.5080 N   0  0  0  0  0  0  0  0  0  0  0  0
  185.0410  178.8080  144.7430 C   0  0  0  0  0  0  0  0  0  0  0  0
  184.7150  178.7960  142.3480 C   0  0  0  0  0  0  0  0  0  0  0  0
  183.6930  178.8080  144.9280 N   0  0  0  0  0  0  0  0  0  0  0  0
  181.4540  178.7940  144.0900 C   0  0  0  0  0  3  0  0  0  0  0  0
  185.2780  178.7910  141.0230 C   0  0  0  0  0  0  0  0  0  0  0  0
  185.7330  178.7870  139.9590 N   0  0  0  0  0  0  0  0  0  0  0  0
  2  6  1  0  0  0  0
  3  7  1  0  0  0  0
  4  8  1  1  0  0  0
  4  5  1  0  0  0  0
  4  3  1  0  0  0  0
  5  1  1  6  0  0  0
  5  2  1  0  0  0  0
  5  6  1  0  0  0  0
  6  7  1  6  0  0  0
  9  8  1  0  0  0  0
 10  9  2  0  0  0  0
 11  9  1  0  0  0  0
 12 11  1  0  0  0  0
 13 12  1  0  0  0  0
 14 15  1  0  0  0  0
 14 13  1  0  0  0  0
 16  1  1  0  0  0  0
 17 26  1  0  0  0  0
 17 25  1  0  0  0  0
 18 17  2  0  0  0  0
 19 23  1  0  0  0  0
 20 21  1  0  0  0  0
 21 26  2  0  0  0  0
 22 20  2  0  0  0  0
 22 18  1  0  0  0  0
 23 25  2  0  0  0  0
 23 16  1  0  0  0  0
 24 18  1  0  0  0  0
 24 19  2  0  0  0  0
 27 24  1  0  0  0  0
 28 27  3  0  0  0  0
M  END
>  <MODEL>
7

>  <REMARK>
 VINA RESULT:      -7.2      3.156      6.444
  Name = 
  9 active torsions:
  status: ('A' for Active; 'I' for Inactive)
    1  A    between atoms: C_1  and  C_3
    2  A    between atoms: C_1  and  C_20
    3  A    between atoms: C_3  and  C_13
    4  A    between atoms: C_4  and  S_22
    5  A    between atoms: C_6  and  C_17
    6  A    between atoms: C_10  and  C_21
    7  A    between atoms: C_11  and  C_17
    8  A    between atoms: S_22  and  C_25
    9  A    between atoms: C_25  and  N_27
                            x       y       z     vdW  Elec       q    Type
                         _______ _______ _______ _____ _____    ______ ____

>  <TORSDO>
F 9

$$$$
=
 OpenBabel10232408373D

 28 31  0  0  1  0  0  0  0  0999 V2000
  183.2390  178.3670  144.4010 C   0  0  0  0  0  2  0  0  0  0  0  0
  181.9960  179.9750  142.9930 O   0  0  0  0  0  0  0  0  0  0  0  0
  182.2880  178.3730  140.7440 O   0  0  0  0  0  0  0  0  0  0  0  0
  183.2910  178.2970  141.7270 C   0  0  2  0  0  3  0  0  0  0  0  0
  182.7060  178.7650  143.0350 C   0  0  1  0  0  0  0  0  0  0  0  0
  181.2610  178.7720  142.8850 C   0  0  2  0  0  3  0  0  0  0  0  0
  181.0530  178.4290  141.4220 C   0  0  0  0  0  2  0  0  0  0  0  0
  184.4790  179.1650  141.3380 C   0  0  0  0  0  2  0  0  0  0  0  0
  184.6510  179.1770  139.8600 C   0  0  0  0  0  0  0  0  0  0  0  0
  184.4530  180.2440  139.2180 O   0  0  0  0  0  0  0  0  0  0  0  0
  185.0700  177.9890  139.1860 N   0  0  0  0  0  2  0  0  0  0  0  0
  185.3430  177.9520  137.7570 C   0  0  0  0  0  2  0  0  0  0  0  0
  186.9890  177.2360  137.4480 S   0  0  0  0  0  0  0  0  0  0  0  0
  187.4640  178.5580  136.2960 C   0  0  0  0  0  2  0  0  0  0  0  0
  188.0800  179.5960  136.9970 O   0  0  0  0  0  1  0  0  0  0  0  0
  184.1980  179.4190  144.9320 C   0  0  0  0  0  2  0  0  0  0  0  0
  187.2220  178.3790  146.8500 C   0  0  0  0  0  0  0  0  0  0  0  0
  187.9270  177.5910  145.9160 C   0  0  0  0  0  0  0  0  0  0  0  0
  186.1680  178.0130  144.3100 C   0  0  0  0  0  3  0  0  0  0  0  0
  189.6380  177.1890  147.5170 C   0  0  0  0  0  3  0  0  0  0  0  0
  188.9660  177.9630  148.4660 C   0  0  0  0  0  3  0  0  0  0  0  0
  189.1120  177.0200  146.2730 N   0  0  0  0  0  0  0  0  0  0  0  0
  185.5060  178.7920  145.2650 C   0  0  0  0  0  0  0  0  0  0  0  0
  187.3870  177.4100  144.6330 C   0  0  0  0  0  0  0  0  0  0  0  0
  186.0390  178.9530  146.5060 N   0  0  0  0  0  0  0  0  0  0  0  0
  187.7510  178.5610  148.1280 C   0  0  0  0  0  3  0  0  0  0  0  0
  188.0590  176.6150  143.6390 C   0  0  0  0  0  0  0  0  0  0  0  0
  188.6000  175.9770  142.8390 N   0  0  0  0  0  0  0  0  0  0  0  0
  1 16  1  0  0  0  0
  2  5  1  0  0  0  0
  3  7  1  0  0  0  0
  3  4  1  0  0  0  0
  4  8  1  6  0  0  0
  4  5  1  0  0  0  0
  5  1  1  1  0  0  0
  6  7  1  6  0  0  0
  6  2  1  0  0  0  0
  6  5  1  0  0  0  0
  9  8  1  0  0  0  0
 10  9  2  0  0  0  0
 11  9  1  0  0  0  0
 12 11  1  0  0  0  0
 13 12  1  0  0  0  0
 14 15  1  0  0  0  0
 14 13  1  0  0  0  0
 16 23  1  0  0  0  0
 17 26  1  0  0  0  0
 18 22  1  0  0  0  0
 18 17  2  0  0  0  0
 19 24  2  0  0  0  0
 19 23  1  0  0  0  0
 20 21  1  0  0  0  0
 22 20  2  0  0  0  0
 23 25  2  0  0  0  0
 24 18  1  0  0  0  0
 25 17  1  0  0  0  0
 26 21  2  0  0  0  0
 27 24  1  0  0  0  0
 28 27  3  0  0  0  0
M  END
>  <MODEL>
8

>  <REMARK>
 VINA RESULT:      -7.2      2.629      5.471
  Name = 
  9 active torsions:
  status: ('A' for Active; 'I' for Inactive)
    1  A    between atoms: C_1  and  C_3
    2  A    between atoms: C_1  and  C_20
    3  A    between atoms: C_3  and  C_13
    4  A    between atoms: C_4  and  S_22
    5  A    between atoms: C_6  and  C_17
    6  A    between atoms: C_10  and  C_21
    7  A    between atoms: C_11  and  C_17
    8  A    between atoms: S_22  and  C_25
    9  A    between atoms: C_25  and  N_27
                            x       y       z     vdW  Elec       q    Type
                         _______ _______ _______ _____ _____    ______ ____

>  <TORSDO>
F 9

$$$$
=
 OpenBabel10232408373D

 28 31  0  0  1  0  0  0  0  0999 V2000
  190.7220  177.6400  141.8040 C   0  0  0  0  0  2  0  0  0  0  0  0
  189.6290  176.5040  139.9000 O   0  0  0  0  0  0  0  0  0  0  0  0
  188.1970  178.7890  139.2390 O   0  0  0  0  0  0  0  0  0  0  0  0
  188.5450  178.6120  140.5900 C   0  0  2  0  0  3  0  0  0  0  0  0
  189.7310  177.6830  140.6540 C   0  0  1  0  0  0  0  0  0  0  0  0
  190.2930  177.6080  139.3170 C   0  0  2  0  0  3  0  0  0  0  0  0
  189.3170  178.4060  138.4730 C   0  0  0  0  0  2  0  0  0  0  0  0
  187.3740  178.0280  141.3660 C   0  0  0  0  0  2  0  0  0  0  0  0
  186.1350  178.8100  141.1020 C   0  0  0  0  0  0  0  0  0  0  0  0
  185.8030  179.7370  141.8880 O   0  0  0  0  0  0  0  0  0  0  0  0
  185.3520  178.5220  139.9420 N   0  0  0  0  0  2  0  0  0  0  0  0
  184.1800  179.3030  139.5740 C   0  0  0  0  0  2  0  0  0  0  0  0
  183.0980  178.3360  138.4730 S   0  0  0  0  0  0  0  0  0  0  0  0
  184.4870  177.4290  137.7320 C   0  0  0  0  0  2  0  0  0  0  0  0
  184.2700  177.2680  136.3630 O   0  0  0  0  0  1  0  0  0  0  0  0
  190.6000  176.3340  142.5710 C   0  0  0  0  0  2  0  0  0  0  0  0
  188.7130  177.3170  145.6330 C   0  0  0  0  0  0  0  0  0  0  0  0
  189.6520  177.0920  146.6620 C   0  0  0  0  0  0  0  0  0  0  0  0
  191.2380  176.3680  144.9860 C   0  0  0  0  0  3  0  0  0  0  0  0
  188.0690  177.8040  148.2880 C   0  0  0  0  0  3  0  0  0  0  0  0
  187.1160  178.0370  147.2930 C   0  0  0  0  0  3  0  0  0  0  0  0
  189.3050  177.3420  147.9570 N   0  0  0  0  0  0  0  0  0  0  0  0
  190.2800  176.6110  143.9970 C   0  0  0  0  0  0  0  0  0  0  0  0
  190.9270  176.6110  146.3270 C   0  0  0  0  0  0  0  0  0  0  0  0
  189.0460  177.0710  144.3380 N   0  0  0  0  0  0  0  0  0  0  0  0
  187.4420  177.7920  145.9580 C   0  0  0  0  0  3  0  0  0  0  0  0
  191.9250  176.3610  147.3330 C   0  0  0  0  0  0  0  0  0  0  0  0
  192.7270  176.1580  148.1420 N   0  0  0  0  0  0  0  0  0  0  0  0
  1 16  1  0  0  0  0
  2  5  1  0  0  0  0
  3  4  1  0  0  0  0
  4  5  1  0  0  0  0
  4  8  1  1  0  0  0
  5  1  1  1  0  0  0
  6  7  1  6  0  0  0
  6  2  1  0  0  0  0
  6  5  1  0  0  0  0
  7  3  1  0  0  0  0
  9  8  1  0  0  0  0
  9 10  2  0  0  0  0
 11  9  1  0  0  0  0
 12 11  1  0  0  0  0
 13 12  1  0  0  0  0
 14 13  1  0  0  0  0
 15 14  1  0  0  0  0
 16 23  1  0  0  0  0
 17 26  1  0  0  0  0
 17 18  1  0  0  0  0
 18 22  1  0  0  0  0
 19 24  1  0  0  0  0
 21 20  1  0  0  0  0
 22 20  2  0  0  0  0
 23 25  1  0  0  0  0
 23 19  2  0  0  0  0
 24 18  2  0  0  0  0
 24 27  1  0  0  0  0
 25 17  2  0  0  0  0
 26 21  2  0  0  0  0
 27 28  3  0  0  0  0
M  END
>  <MODEL>
9

>  <REMARK>
 VINA RESULT:      -7.2      2.083      3.693
  Name = 
  9 active torsions:
  status: ('A' for Active; 'I' for Inactive)
    1  A    between atoms: C_1  and  C_3
    2  A    between atoms: C_1  and  C_20
    3  A    between atoms: C_3  and  C_13
    4  A    between atoms: C_4  and  S_22
    5  A    between atoms: C_6  and  C_17
    6  A    between atoms: C_10  and  C_21
    7  A    between atoms: C_11  and  C_17
    8  A    between atoms: S_22  and  C_25
    9  A    between atoms: C_25  and  N_27
                            x       y       z     vdW  Elec       q    Type
                         _______ _______ _______ _____ _____    ______ ____

>  <TORSDO>
F 9

$$$$
