=
 OpenBabel10232409423D

 35 41  0  0  1  0  0  0  0  0999 V2000
  190.1900  177.1540  141.3910 C   0  0  1  0  0  3  0  0  0  0  0  0
  190.4850  177.6810  140.0260 C   0  0  1  0  0  3  0  0  0  0  0  0
  192.4510  177.3800  141.3370 N   0  0  0  0  0  0  0  0  0  0  0  0
  191.3060  177.0240  142.0880 C   0  0  0  0  0  0  0  0  0  0  0  0
  192.0160  177.7870  140.0080 C   0  0  0  0  0  2  0  0  0  0  0  0
  189.9410  178.1330  145.2230 C   0  0  0  0  0  3  0  0  0  0  0  0
  191.1560  176.0190  146.8460 C   0  0  0  0  0  3  0  0  0  0  0  0
  191.3860  176.6770  143.4720 N   0  0  0  0  0  0  0  0  0  0  0  0
  190.3050  177.0040  147.4110 C   0  0  0  0  0  2  0  0  0  0  0  0
  191.3560  176.1470  145.4860 C   0  0  0  0  0  0  0  0  0  0  0  0
  189.7130  178.0360  146.6180 C   0  0  0  0  0  3  0  0  0  0  0  0
  190.7760  177.1580  144.7090 C   0  0  1  0  0  0  0  0  0  0  0  0
  191.9590  175.6650  144.2830 C   0  0  1  0  0  3  0  0  0  0  0  0
  188.6790  176.9330  138.4730 C   0  0  0  0  0  3  0  0  0  0  0  0
  190.7650  175.7070  138.4600 C   0  0  0  0  0  3  0  0  0  0  0  0
  189.9790  176.7580  138.9560 C   0  0  0  0  0  0  0  0  0  0  0  0
  188.9580  175.0270  136.9910 C   0  0  0  0  0  0  0  0  0  0  0  0
  190.2560  174.8490  137.4800 C   0  0  0  0  0  3  0  0  0  0  0  0
  188.1690  176.0730  137.4950 C   0  0  0  0  0  3  0  0  0  0  0  0
  188.4810  174.1600  136.0040 O   0  0  0  0  0  0  0  0  0  0  0  0
  187.1350  173.7030  135.9690 C   0  0  0  0  0  2  0  0  0  0  0  0
  186.8900  172.7830  137.1110 C   0  0  0  0  0  0  0  0  0  0  0  0
  185.6970  172.8560  137.8150 O   0  0  0  0  0  1  0  0  0  0  0  0
  187.7480  171.9150  137.4170 O   0  0  0  0  0  0  0  0  0  0  0  0
  188.6470  175.7850  142.6680 O   0  0  0  0  0  0  0  0  0  0  0  0
  187.1670  177.5390  143.0620 C   0  0  0  0  0  0  0  0  0  0  0  0
  187.6270  176.2120  143.5530 C   0  0  0  0  0  2  0  0  0  0  0  0
  187.9370  177.9020  142.0780 C   0  0  0  0  0  3  0  0  0  0  0  0
  188.8680  176.8620  141.8620 N   0  0  0  0  0  0  0  0  0  0  0  0
  183.6610  178.9180  143.4520 N   0  0  0  0  0  0  0  0  0  0  0  0
  184.6550  178.8310  145.6410 C   0  0  0  0  0  2  0  0  0  0  0  0
  186.0440  178.3700  143.6080 C   0  0  2  0  0  3  0  0  0  0  0  0
  185.8190  178.0540  145.0900 C   0  0  0  0  0  2  0  0  0  0  0  0
  184.7380  178.1360  142.8470 C   0  0  0  0  0  2  0  0  0  0  0  0
  183.6390  179.2010  144.8570 C   0  0  0  0  0  3  0  0  0  0  0  0
  1 29  1  1  0  0  0
  1  4  1  0  0  0  0
  2 16  1  6  0  0  0
  2  1  1  0  0  0  0
  3  4  2  0  0  0  0
  4  8  1  0  0  0  0
  5  2  1  0  0  0  0
  5  3  1  0  0  0  0
  6 11  2  0  0  0  0
  7  9  1  0  0  0  0
  8 13  1  0  0  0  0
  8 12  1  0  0  0  0
 10  7  2  0  0  0  0
 11  9  1  0  0  0  0
 12  6  1  6  0  0  0
 12 10  1  0  0  0  0
 13 12  1  0  0  0  0
 13 10  1  1  0  0  0
 14 16  1  0  0  0  0
 15 16  2  0  0  0  0
 17 18  2  0  0  0  0
 17 19  1  0  0  0  0
 18 15  1  0  0  0  0
 19 14  2  0  0  0  0
 20 17  1  0  0  0  0
 21 20  1  0  0  0  0
 21 22  1  0  0  0  0
 22 24  2  0  0  0  0
 22 23  1  0  0  0  0
 25 27  1  0  0  0  0
 26 27  1  0  0  0  0
 28 26  2  0  0  0  0
 29 28  1  0  0  0  0
 29 25  1  0  0  0  0
 30 35  2  0  0  0  0
 32 26  1  6  0  0  0
 32 33  1  0  0  0  0
 33 31  1  0  0  0  0
 34 30  1  0  0  0  0
 34 32  1  0  0  0  0
 35 31  1  0  0  0  0
M  END
>  <MODEL>
1

>  <REMARK>
 VINA RESULT:      -8.5      0.000      0.000
  Name = 
  7 active torsions:
  status: ('A' for Active; 'I' for Inactive)
    1  A    between atoms: C_3  and  N_26
    2  A    between atoms: N_5  and  C_33
    3  A    between atoms: C_6  and  C_19
    4  A    between atoms: C_10  and  C_12
    5  A    between atoms: O_13  and  C_24
    6  A    between atoms: O_13  and  C_27
    7  A    between atoms: C_25  and  C_27
                            x       y       z     vdW  Elec       q    Type
                         _______ _______ _______ _____ _____    ______ ____

>  <TORSDO>
F 7

$$$$
=
 OpenBabel10232409423D

 35 41  0  0  1  0  0  0  0  0999 V2000
  188.7040  177.8320  139.9220 C   0  0  0  0  0  0  0  0  0  0  0  0
  189.3260  177.8430  138.5650 C   0  0  1  0  0  3  0  0  0  0  0  0
  190.4520  176.3870  140.0770 N   0  0  0  0  0  0  0  0  0  0  0  0
  189.3740  177.0290  140.7320 C   0  0  0  0  0  0  0  0  0  0  0  0
  190.4750  176.8330  138.6910 C   0  0  0  0  0  3  0  0  0  0  0  0
  190.5580  178.4410  143.8180 C   0  0  0  0  0  3  0  0  0  0  0  0
  188.7190  176.9620  145.5520 C   0  0  0  0  0  3  0  0  0  0  0  0
  189.1420  176.8810  142.1340 N   0  0  0  0  0  0  0  0  0  0  0  0
  189.6430  177.9060  146.0690 C   0  0  0  0  0  2  0  0  0  0  0  0
  188.7650  176.8070  144.1810 C   0  0  0  0  0  0  0  0  0  0  0  0
  190.5420  178.6270  145.2220 C   0  0  0  0  0  3  0  0  0  0  0  0
  189.6450  177.5140  143.3510 C   0  0  1  0  0  0  0  0  0  0  0  0
  188.2640  176.1800  142.9980 C   0  0  2  0  0  3  0  0  0  0  0  0
  187.8710  176.1230  137.4900 C   0  0  0  0  0  3  0  0  0  0  0  0
  187.9210  178.3360  136.5120 C   0  0  0  0  0  3  0  0  0  0  0  0
  188.3440  177.4380  137.5050 C   0  0  0  0  0  0  0  0  0  0  0  0
  186.5440  176.6070  135.5120 C   0  0  0  0  0  0  0  0  0  0  0  0
  187.0230  177.9210  135.5250 C   0  0  0  0  0  3  0  0  0  0  0  0
  186.9750  175.7070  136.5000 C   0  0  0  0  0  3  0  0  0  0  0  0
  185.6390  176.2250  134.5180 O   0  0  0  0  0  0  0  0  0  0  0  0
  184.3770  176.8570  134.3460 C   0  0  0  0  0  2  0  0  0  0  0  0
  183.5050  176.5570  135.5120 C   0  0  0  0  0  0  0  0  0  0  0  0
  183.2530  175.2400  135.8680 O   0  0  0  0  0  0  0  0  0  0  0  0
  183.0220  177.4960  136.1980 O   0  0  0  0  0  1  0  0  0  0  0  0
  186.4560  178.6240  139.4720 O   0  0  0  0  0  0  0  0  0  0  0  0
  185.9440  178.9360  141.7230 C   0  0  0  0  0  0  0  0  0  0  0  0
  185.3640  178.7110  140.3720 C   0  0  0  0  0  2  0  0  0  0  0  0
  187.2390  178.8490  141.6330 C   0  0  0  0  0  3  0  0  0  0  0  0
  187.5560  178.6130  140.2770 N   0  0  0  0  0  0  0  0  0  0  0  0
  183.0590  178.9690  144.1760 N   0  0  0  0  0  0  0  0  0  0  0  0
  185.0740  178.5810  145.4300 C   0  0  0  0  0  2  0  0  0  0  0  0
  185.1990  179.1790  143.0010 C   0  0  2  0  0  3  0  0  0  0  0  0
  185.8450  178.4010  144.1520 C   0  0  0  0  0  2  0  0  0  0  0  0
  183.7280  178.7720  142.8910 C   0  0  0  0  0  2  0  0  0  0  0  0
  183.7600  178.8190  145.4170 C   0  0  0  0  0  3  0  0  0  0  0  0
  1 29  1  0  0  0  0
  1  4  2  0  0  0  0
  2 16  1  6  0  0  0
  2  5  1  0  0  0  0
  2  1  1  0  0  0  0
  3  4  1  0  0  0  0
  4  8  1  0  0  0  0
  5  3  2  0  0  0  0
  6 11  2  0  0  0  0
  7  9  1  0  0  0  0
  8 13  1  0  0  0  0
  8 12  1  0  0  0  0
 10  7  2  0  0  0  0
 11  9  1  0  0  0  0
 12  6  1  6  0  0  0
 12 10  1  0  0  0  0
 13 12  1  0  0  0  0
 13 10  1  6  0  0  0
 14 16  1  0  0  0  0
 15 16  2  0  0  0  0
 17 18  2  0  0  0  0
 17 19  1  0  0  0  0
 18 15  1  0  0  0  0
 19 14  2  0  0  0  0
 20 17  1  0  0  0  0
 21 20  1  0  0  0  0
 21 22  1  0  0  0  0
 22 23  2  0  0  0  0
 22 24  1  0  0  0  0
 25 29  1  0  0  0  0
 25 27  1  0  0  0  0
 27 26  1  0  0  0  0
 28 26  2  0  0  0  0
 29 28  1  0  0  0  0
 30 35  2  0  0  0  0
 32 26  1  6  0  0  0
 32 33  1  0  0  0  0
 33 31  1  0  0  0  0
 34 32  1  0  0  0  0
 34 30  1  0  0  0  0
 35 31  1  0  0  0  0
M  END
>  <MODEL>
2

>  <REMARK>
 VINA RESULT:      -7.7      2.387      3.108
  Name = 
  7 active torsions:
  status: ('A' for Active; 'I' for Inactive)
    1  A    between atoms: C_3  and  N_26
    2  A    between atoms: N_5  and  C_33
    3  A    between atoms: C_6  and  C_19
    4  A    between atoms: C_10  and  C_12
    5  A    between atoms: O_13  and  C_24
    6  A    between atoms: O_13  and  C_27
    7  A    between atoms: C_25  and  C_27
                            x       y       z     vdW  Elec       q    Type
                         _______ _______ _______ _____ _____    ______ ____

>  <TORSDO>
F 7

$$$$
=
 OpenBabel10232409423D

 35 41  0  0  1  0  0  0  0  0999 V2000
  182.5540  178.3910  141.1680 C   0  0  0  0  0  0  0  0  0  0  0  0
  181.1380  178.7620  140.8750 C   0  0  1  0  0  3  0  0  0  0  0  0
  181.8790  179.5710  142.9890 N   0  0  0  0  0  0  0  0  0  0  0  0
  182.9140  178.8410  142.3580 C   0  0  0  0  0  0  0  0  0  0  0  0
  180.7250  179.5870  142.1010 C   0  0  0  0  0  3  0  0  0  0  0  0
  184.2300  178.7850  145.7030 C   0  0  0  0  0  3  0  0  0  0  0  0
  186.8720  177.7540  144.9710 C   0  0  0  0  0  3  0  0  0  0  0  0
  184.1490  178.5540  143.0170 N   0  0  0  0  0  0  0  0  0  0  0  0
  186.5130  178.0110  146.3190 C   0  0  0  0  0  2  0  0  0  0  0  0
  185.8790  178.0310  144.0520 C   0  0  0  0  0  0  0  0  0  0  0  0
  185.2230  178.5150  146.6760 C   0  0  0  0  0  3  0  0  0  0  0  0
  184.6150  178.5250  144.4010 C   0  0  1  0  0  0  0  0  0  0  0  0
  185.4350  178.0540  142.6930 C   0  0  1  0  0  3  0  0  0  0  0  0
  181.5220  180.8650  139.5860 C   0  0  0  0  0  3  0  0  0  0  0  0
  180.4090  179.0340  138.4610 C   0  0  0  0  0  3  0  0  0  0  0  0
  181.0270  179.5580  139.6070 C   0  0  0  0  0  0  0  0  0  0  0  0
  180.8020  181.1150  137.2780 C   0  0  0  0  0  0  0  0  0  0  0  0
  180.3020  179.8090  137.3030 C   0  0  0  0  0  3  0  0  0  0  0  0
  181.4110  181.6420  138.4280 C   0  0  0  0  0  3  0  0  0  0  0  0
  180.6880  181.8620  136.1020 O   0  0  0  0  0  0  0  0  0  0  0  0
  179.9820  183.0940  136.0410 C   0  0  0  0  0  2  0  0  0  0  0  0
  180.9410  184.2100  135.8300 C   0  0  0  0  0  0  0  0  0  0  0  0
  180.8920  184.9540  134.6600 O   0  0  0  0  0  0  0  0  0  0  0  0
  181.7760  184.5030  136.7260 O   0  0  0  0  0  1  0  0  0  0  0  0
  182.8930  176.4970  139.6900 O   0  0  0  0  0  0  0  0  0  0  0  0
  184.4700  177.6000  138.3780 C   0  0  0  0  0  0  0  0  0  0  0  0
  183.4810  176.4890  138.4010 C   0  0  0  0  0  2  0  0  0  0  0  0
  184.3650  178.2660  139.4910 C   0  0  0  0  0  3  0  0  0  0  0  0
  183.3770  177.6290  140.2750 N   0  0  0  0  0  0  0  0  0  0  0  0
  187.6910  178.6280  136.6730 N   0  0  0  0  0  2  0  0  0  0  0  0
  186.5590  177.0850  135.2160 C   0  0  0  0  0  3  0  0  0  0  0  0
  185.4120  177.9540  137.2660 C   0  0  2  0  0  3  0  0  0  0  0  0
  185.5690  176.7730  136.3030 C   0  0  0  0  0  2  0  0  0  0  0  0
  186.7930  178.3520  137.7920 C   0  0  0  0  0  2  0  0  0  0  0  0
  187.5650  177.9400  135.4220 C   0  0  0  0  0  3  0  0  0  0  0  0
  1  4  2  0  0  0  0
  2 16  1  6  0  0  0
  2  1  1  0  0  0  0
  2  5  1  0  0  0  0
  4  3  1  0  0  0  0
  4  8  1  0  0  0  0
  5  3  2  0  0  0  0
  6 11  2  0  0  0  0
  7  9  1  0  0  0  0
  8 12  1  0  0  0  0
  9 11  1  0  0  0  0
 10 12  1  0  0  0  0
 10  7  2  0  0  0  0
 12  6  1  1  0  0  0
 13  8  1  0  0  0  0
 13 10  1  6  0  0  0
 13 12  1  0  0  0  0
 14 16  1  0  0  0  0
 15 16  2  0  0  0  0
 17 18  2  0  0  0  0
 17 19  1  0  0  0  0
 18 15  1  0  0  0  0
 19 14  2  0  0  0  0
 20 17  1  0  0  0  0
 21 20  1  0  0  0  0
 22 21  1  0  0  0  0
 22 24  1  0  0  0  0
 23 22  2  0  0  0  0
 25 29  1  0  0  0  0
 26 27  1  0  0  0  0
 26 28  2  0  0  0  0
 27 25  1  0  0  0  0
 28 29  1  0  0  0  0
 29  1  1  0  0  0  0
 30 34  1  0  0  0  0
 31 35  2  0  0  0  0
 31 33  1  0  0  0  0
 32 34  1  0  0  0  0
 32 26  1  1  0  0  0
 33 32  1  0  0  0  0
 35 30  1  0  0  0  0
M  END
>  <MODEL>
3

>  <REMARK>
 VINA RESULT:      -7.6      5.594      8.843
  Name = 
  7 active torsions:
  status: ('A' for Active; 'I' for Inactive)
    1  A    between atoms: C_3  and  N_26
    2  A    between atoms: N_5  and  C_33
    3  A    between atoms: C_6  and  C_19
    4  A    between atoms: C_10  and  C_12
    5  A    between atoms: O_13  and  C_24
    6  A    between atoms: O_13  and  C_27
    7  A    between atoms: C_25  and  C_27
                            x       y       z     vdW  Elec       q    Type
                         _______ _______ _______ _____ _____    ______ ____

>  <TORSDO>
F 7

$$$$
=
 OpenBabel10232409423D

 35 41  0  0  1  0  0  0  0  0999 V2000
  189.7650  176.5130  138.3980 C   0  0  1  0  0  3  0  0  0  0  0  0
  189.8250  177.7150  139.2810 C   0  0  1  0  0  3  0  0  0  0  0  0
  187.7300  177.4990  138.1670 N   0  0  0  0  0  0  0  0  0  0  0  0
  188.5950  176.4470  137.7850 C   0  0  0  0  0  0  0  0  0  0  0  0
  188.4290  178.3360  139.1330 C   0  0  0  0  0  2  0  0  0  0  0  0
  186.3890  173.6410  137.3640 C   0  0  0  0  0  3  0  0  0  0  0  0
  186.9840  173.2110  134.5290 C   0  0  0  0  0  3  0  0  0  0  0  0
  188.2430  175.5070  136.7680 N   0  0  0  0  0  0  0  0  0  0  0  0
  186.0380  172.4170  135.2260 C   0  0  0  0  0  2  0  0  0  0  0  0
  187.5890  174.1870  135.2960 C   0  0  0  0  0  0  0  0  0  0  0  0
  185.7480  172.6270  136.6100 C   0  0  0  0  0  3  0  0  0  0  0  0
  187.3050  174.3930  136.6520 C   0  0  1  0  0  0  0  0  0  0  0  0
  188.5090  175.2760  135.3960 C   0  0  1  0  0  3  0  0  0  0  0  0
  191.4220  177.4900  141.1870 C   0  0  0  0  0  3  0  0  0  0  0  0
  189.1270  176.8130  141.5460 C   0  0  0  0  0  3  0  0  0  0  0  0
  190.1180  177.3410  140.7050 C   0  0  0  0  0  0  0  0  0  0  0  0
  190.7400  176.6070  143.3460 C   0  0  0  0  0  0  0  0  0  0  0  0
  189.4370  176.4520  142.8600 C   0  0  0  0  0  3  0  0  0  0  0  0
  191.7330  177.1260  142.5010 C   0  0  0  0  0  3  0  0  0  0  0  0
  191.0170  176.2460  144.6670 O   0  0  0  0  0  0  0  0  0  0  0  0
  191.6000  177.1460  145.6020 C   0  0  0  0  0  2  0  0  0  0  0  0
  191.2400  176.7340  146.9840 C   0  0  0  0  0  0  0  0  0  0  0  0
  189.9120  176.5130  147.3170 O   0  0  0  0  0  0  0  0  0  0  0  0
  192.1420  176.5530  147.8440 O   0  0  0  0  0  1  0  0  0  0  0  0
  190.6030  174.2810  137.9520 O   0  0  0  0  0  0  0  0  0  0  0  0
  192.6220  175.0410  137.0740 C   0  0  0  0  0  0  0  0  0  0  0  0
  191.6650  173.9020  137.0950 C   0  0  0  0  0  2  0  0  0  0  0  0
  192.0980  176.0280  137.7390 C   0  0  0  0  0  3  0  0  0  0  0  0
  190.8500  175.5910  138.2380 N   0  0  0  0  0  0  0  0  0  0  0  0
  195.6680  176.5450  135.4000 N   0  0  0  0  0  0  0  0  0  0  0  0
  196.3930  174.5980  136.6130 C   0  0  0  0  0  2  0  0  0  0  0  0
  193.9490  175.0990  136.3790 C   0  0  2  0  0  3  0  0  0  0  0  0
  195.0420  174.4920  137.2650 C   0  0  0  0  0  2  0  0  0  0  0  0
  194.3430  176.5330  136.0170 C   0  0  0  0  0  2  0  0  0  0  0  0
  196.6720  175.5880  135.7600 C   0  0  0  0  0  3  0  0  0  0  0  0
  1 29  1  6  0  0  0
  1  2  1  0  0  0  0
  2 16  1  1  0  0  0
  3  5  1  0  0  0  0
  4  3  2  0  0  0  0
  4  1  1  0  0  0  0
  5  2  1  0  0  0  0
  7  9  1  0  0  0  0
  7 10  2  0  0  0  0
  8  4  1  0  0  0  0
  9 11  1  0  0  0  0
 10 12  1  0  0  0  0
 11  6  2  0  0  0  0
 12  8  1  0  0  0  0
 12  6  1  6  0  0  0
 13 10  1  1  0  0  0
 13 12  1  0  0  0  0
 13  8  1  0  0  0  0
 14 19  1  0  0  0  0
 15 18  2  0  0  0  0
 16 14  2  0  0  0  0
 16 15  1  0  0  0  0
 17 20  1  0  0  0  0
 18 17  1  0  0  0  0
 19 17  2  0  0  0  0
 20 21  1  0  0  0  0
 21 22  1  0  0  0  0
 22 23  2  0  0  0  0
 22 24  1  0  0  0  0
 25 29  1  0  0  0  0
 26 27  1  0  0  0  0
 26 28  2  0  0  0  0
 27 25  1  0  0  0  0
 28 29  1  0  0  0  0
 30 35  2  0  0  0  0
 30 34  1  0  0  0  0
 31 33  1  0  0  0  0
 32 26  1  1  0  0  0
 32 33  1  0  0  0  0
 34 32  1  0  0  0  0
 35 31  1  0  0  0  0
M  END
>  <MODEL>
4

>  <REMARK>
 VINA RESULT:      -7.4      3.204      9.515
  Name = 
  7 active torsions:
  status: ('A' for Active; 'I' for Inactive)
    1  A    between atoms: C_3  and  N_26
    2  A    between atoms: N_5  and  C_33
    3  A    between atoms: C_6  and  C_19
    4  A    between atoms: C_10  and  C_12
    5  A    between atoms: O_13  and  C_24
    6  A    between atoms: O_13  and  C_27
    7  A    between atoms: C_25  and  C_27
                            x       y       z     vdW  Elec       q    Type
                         _______ _______ _______ _____ _____    ______ ____

>  <TORSDO>
F 7

$$$$
=
 OpenBabel10232409423D

 35 41  0  0  1  0  0  0  0  0999 V2000
  186.4640  178.4580  139.8330 C   0  0  0  0  0  0  0  0  0  0  0  0
  186.7840  179.1220  141.1310 C   0  0  1  0  0  3  0  0  0  0  0  0
  184.4540  178.6990  140.8680 N   0  0  0  0  0  0  0  0  0  0  0  0
  185.1600  178.2640  139.7220 C   0  0  0  0  0  0  0  0  0  0  0  0
  185.4170  179.2360  141.8200 C   0  0  0  0  0  3  0  0  0  0  0  0
  182.1420  178.9260  137.8850 C   0  0  0  0  0  3  0  0  0  0  0  0
  182.6840  177.0290  135.7200 C   0  0  0  0  0  3  0  0  0  0  0  0
  184.4890  177.7790  138.5570 N   0  0  0  0  0  0  0  0  0  0  0  0
  181.5230  177.8440  135.7310 C   0  0  0  0  0  2  0  0  0  0  0  0
  183.5200  177.2080  136.8040 C   0  0  0  0  0  0  0  0  0  0  0  0
  181.2590  178.7700  136.7880 C   0  0  0  0  0  3  0  0  0  0  0  0
  183.2610  178.1150  137.8410 C   0  0  1  0  0  0  0  0  0  0  0  0
  184.7240  176.8700  137.4960 C   0  0  2  0  0  3  0  0  0  0  0  0
  187.2460  177.3670  142.8460 C   0  0  0  0  0  3  0  0  0  0  0  0
  189.1360  178.4990  141.8450 C   0  0  0  0  0  3  0  0  0  0  0  0
  187.7490  178.3090  141.9440 C   0  0  0  0  0  0  0  0  0  0  0  0
  189.5070  176.7940  143.5300 C   0  0  0  0  0  0  0  0  0  0  0  0
  190.0080  177.7410  142.6330 C   0  0  0  0  0  3  0  0  0  0  0  0
  188.1180  176.6120  143.6350 C   0  0  0  0  0  3  0  0  0  0  0  0
  190.4040  176.0450  144.2960 O   0  0  0  0  0  0  0  0  0  0  0  0
  191.5400  176.6210  144.9280 C   0  0  0  0  0  2  0  0  0  0  0  0
  191.3300  176.6570  146.3990 C   0  0  0  0  0  0  0  0  0  0  0  0
  190.0940  177.0210  146.9130 O   0  0  0  0  0  0  0  0  0  0  0  0
  192.2620  176.3250  147.1790 O   0  0  0  0  0  1  0  0  0  0  0  0
  188.2010  179.0860  138.2610 O   0  0  0  0  0  0  0  0  0  0  0  0
  189.3180  177.0500  138.4380 C   0  0  0  0  0  0  0  0  0  0  0  0
  189.4710  178.4850  138.0760 C   0  0  0  0  0  2  0  0  0  0  0  0
  188.1200  176.8720  138.9130 C   0  0  0  0  0  3  0  0  0  0  0  0
  187.4500  178.1140  138.8520 N   0  0  0  0  0  0  0  0  0  0  0  0
  190.9990  173.8740  137.2420 N   0  0  0  0  0  0  0  0  0  0  0  0
  192.7270  175.4850  137.6900 C   0  0  0  0  0  2  0  0  0  0  0  0
  190.3550  175.9720  138.3310 C   0  0  2  0  0  3  0  0  0  0  0  0
  191.6910  176.5610  137.8650 C   0  0  0  0  0  2  0  0  0  0  0  0
  189.9330  174.8680  137.3600 C   0  0  0  0  0  2  0  0  0  0  0  0
  192.3800  174.2360  137.3700 C   0  0  0  0  0  3  0  0  0  0  0  0
  1  2  1  0  0  0  0
  2  5  1  0  0  0  0
  2 16  1  1  0  0  0
  3  5  2  0  0  0  0
  4  1  2  0  0  0  0
  4  3  1  0  0  0  0
  7  9  1  0  0  0  0
  7 10  2  0  0  0  0
  8  4  1  0  0  0  0
  9 11  1  0  0  0  0
 10 12  1  0  0  0  0
 11  6  2  0  0  0  0
 12  6  1  6  0  0  0
 12  8  1  0  0  0  0
 13 10  1  6  0  0  0
 13 12  1  0  0  0  0
 13  8  1  0  0  0  0
 14 19  1  0  0  0  0
 15 16  1  0  0  0  0
 15 18  2  0  0  0  0
 16 14  2  0  0  0  0
 17 19  2  0  0  0  0
 17 20  1  0  0  0  0
 18 17  1  0  0  0  0
 20 21  1  0  0  0  0
 21 22  1  0  0  0  0
 22 23  2  0  0  0  0
 22 24  1  0  0  0  0
 25 29  1  0  0  0  0
 26 28  2  0  0  0  0
 27 25  1  0  0  0  0
 27 26  1  0  0  0  0
 29 28  1  0  0  0  0
 29  1  1  0  0  0  0
 30 34  1  0  0  0  0
 30 35  2  0  0  0  0
 31 33  1  0  0  0  0
 32 26  1  6  0  0  0
 33 32  1  0  0  0  0
 34 32  1  0  0  0  0
 35 31  1  0  0  0  0
M  END
>  <MODEL>
5

>  <REMARK>
 VINA RESULT:      -7.1      3.546      8.922
  Name = 
  7 active torsions:
  status: ('A' for Active; 'I' for Inactive)
    1  A    between atoms: C_3  and  N_26
    2  A    between atoms: N_5  and  C_33
    3  A    between atoms: C_6  and  C_19
    4  A    between atoms: C_10  and  C_12
    5  A    between atoms: O_13  and  C_24
    6  A    between atoms: O_13  and  C_27
    7  A    between atoms: C_25  and  C_27
                            x       y       z     vdW  Elec       q    Type
                         _______ _______ _______ _____ _____    ______ ____

>  <TORSDO>
F 7

$$$$
=
 OpenBabel10232409423D

 35 41  0  0  1  0  0  0  0  0999 V2000
  189.9450  177.3180  138.9340 C   0  0  1  0  0  3  0  0  0  0  0  0
  189.0550  178.5140  138.8530 C   0  0  1  0  0  3  0  0  0  0  0  0
  189.1070  177.2700  136.8220 N   0  0  0  0  0  0  0  0  0  0  0  0
  189.9590  176.6720  137.7800 C   0  0  0  0  0  0  0  0  0  0  0  0
  188.4780  178.4320  137.4330 C   0  0  0  0  0  2  0  0  0  0  0  0
  193.4700  175.9060  137.6790 C   0  0  0  0  0  3  0  0  0  0  0  0
  193.1430  173.0830  136.9720 C   0  0  0  0  0  3  0  0  0  0  0  0
  190.8030  175.5650  137.4580 N   0  0  0  0  0  0  0  0  0  0  0  0
  194.4210  173.6610  137.1840 C   0  0  0  0  0  2  0  0  0  0  0  0
  192.0860  173.9580  137.1260 C   0  0  0  0  0  0  0  0  0  0  0  0
  194.5800  175.0390  137.5280 C   0  0  0  0  0  3  0  0  0  0  0  0
  192.2420  175.3090  137.4640 C   0  0  1  0  0  0  0  0  0  0  0  0
  190.6760  174.1960  137.1170 C   0  0  1  0  0  3  0  0  0  0  0  0
  186.6740  178.1410  139.5050 C   0  0  0  0  0  3  0  0  0  0  0  0
  188.2360  178.7890  141.2370 C   0  0  0  0  0  3  0  0  0  0  0  0
  187.9760  178.4710  139.8950 C   0  0  0  0  0  0  0  0  0  0  0  0
  185.9020  178.4260  141.7920 C   0  0  0  0  0  0  0  0  0  0  0  0
  187.2040  178.7620  142.1790 C   0  0  0  0  0  3  0  0  0  0  0  0
  185.6420  178.1180  140.4480 C   0  0  0  0  0  3  0  0  0  0  0  0
  184.8940  178.3980  142.7590 O   0  0  0  0  0  0  0  0  0  0  0  0
  184.7230  179.4330  143.7200 C   0  0  0  0  0  2  0  0  0  0  0  0
  184.8040  178.8610  145.0900 C   0  0  0  0  0  0  0  0  0  0  0  0
  183.7440  179.0210  145.9700 O   0  0  0  0  0  1  0  0  0  0  0  0
  185.8190  178.2040  145.4410 O   0  0  0  0  0  0  0  0  0  0  0  0
  191.8860  177.5510  140.3700 O   0  0  0  0  0  0  0  0  0  0  0  0
  190.7370  176.9200  142.2950 C   0  0  0  0  0  0  0  0  0  0  0  0
  191.9200  177.6610  141.7820 C   0  0  0  0  0  2  0  0  0  0  0  0
  190.0200  176.5390  141.2780 C   0  0  0  0  0  3  0  0  0  0  0  0
  190.6870  176.9580  140.1060 N   0  0  0  0  0  0  0  0  0  0  0  0
  191.2090  176.2240  145.9880 N   0  0  0  0  0  2  0  0  0  0  0  0
  189.3010  177.6710  145.7590 C   0  0  0  0  0  3  0  0  0  0  0  0
  190.3730  176.6710  143.7280 C   0  0  2  0  0  3  0  0  0  0  0  0
  189.6190  177.8740  144.3040 C   0  0  0  0  0  2  0  0  0  0  0  0
  191.6070  176.3990  144.5920 C   0  0  0  0  0  2  0  0  0  0  0  0
  190.0780  176.9130  146.5370 C   0  0  0  0  0  3  0  0  0  0  0  0
  1 29  1  6  0  0  0
  2  1  1  0  0  0  0
  2 16  1  1  0  0  0
  3  5  1  0  0  0  0
  3  4  2  0  0  0  0
  4  1  1  0  0  0  0
  5  2  1  0  0  0  0
  7 10  2  0  0  0  0
  7  9  1  0  0  0  0
  8 12  1  0  0  0  0
  8  4  1  0  0  0  0
  9 11  1  0  0  0  0
 10 12  1  0  0  0  0
 11  6  2  0  0  0  0
 12  6  1  1  0  0  0
 13 10  1  6  0  0  0
 13  8  1  0  0  0  0
 13 12  1  0  0  0  0
 14 16  2  0  0  0  0
 14 19  1  0  0  0  0
 15 18  2  0  0  0  0
 16 15  1  0  0  0  0
 17 18  1  0  0  0  0
 17 20  1  0  0  0  0
 19 17  2  0  0  0  0
 20 21  1  0  0  0  0
 21 22  1  0  0  0  0
 22 24  2  0  0  0  0
 22 23  1  0  0  0  0
 25 27  1  0  0  0  0
 27 26  1  0  0  0  0
 28 26  2  0  0  0  0
 29 25  1  0  0  0  0
 29 28  1  0  0  0  0
 30 35  1  0  0  0  0
 31 35  2  0  0  0  0
 32 26  1  6  0  0  0
 32 33  1  0  0  0  0
 32 34  1  0  0  0  0
 33 31  1  0  0  0  0
 34 30  1  0  0  0  0
M  END
>  <MODEL>
6

>  <REMARK>
 VINA RESULT:      -6.9      3.082      6.943
  Name = 
  7 active torsions:
  status: ('A' for Active; 'I' for Inactive)
    1  A    between atoms: C_3  and  N_26
    2  A    between atoms: N_5  and  C_33
    3  A    between atoms: C_6  and  C_19
    4  A    between atoms: C_10  and  C_12
    5  A    between atoms: O_13  and  C_24
    6  A    between atoms: O_13  and  C_27
    7  A    between atoms: C_25  and  C_27
                            x       y       z     vdW  Elec       q    Type
                         _______ _______ _______ _____ _____    ______ ____

>  <TORSDO>
F 7

$$$$
=
 OpenBabel10232409423D

 35 41  0  0  1  0  0  0  0  0999 V2000
  186.6830  178.4140  140.1420 C   0  0  0  0  0  0  0  0  0  0  0  0
  187.6020  178.4830  138.9680 C   0  0  1  0  0  3  0  0  0  0  0  0
  188.7180  177.8270  140.9680 N   0  0  0  0  0  0  0  0  0  0  0  0
  187.3490  178.0690  141.2320 C   0  0  0  0  0  0  0  0  0  0  0  0
  188.9540  178.0460  139.5480 C   0  0  0  0  0  3  0  0  0  0  0  0
  188.4850  177.3890  144.5730 C   0  0  0  0  0  3  0  0  0  0  0  0
  185.9580  178.0590  145.8940 C   0  0  0  0  0  3  0  0  0  0  0  0
  186.8150  178.0380  142.5570 N   0  0  0  0  0  0  0  0  0  0  0  0
  187.1060  177.6630  146.6270 C   0  0  0  0  0  2  0  0  0  0  0  0
  186.1370  178.0970  144.5250 C   0  0  0  0  0  0  0  0  0  0  0  0
  188.3400  177.3360  145.9820 C   0  0  0  0  0  3  0  0  0  0  0  0
  187.3460  177.7770  143.8930 C   0  0  1  0  0  0  0  0  0  0  0  0
  185.6060  178.3570  143.2240 C   0  0  1  0  0  3  0  0  0  0  0  0
  186.2870  178.0770  136.8850 C   0  0  0  0  0  3  0  0  0  0  0  0
  187.5490  176.2290  137.8070 C   0  0  0  0  0  3  0  0  0  0  0  0
  187.1520  177.5740  137.8610 C   0  0  0  0  0  0  0  0  0  0  0  0
  186.2340  175.9050  135.7940 C   0  0  0  0  0  0  0  0  0  0  0  0
  187.0940  175.4020  136.7750 C   0  0  0  0  0  3  0  0  0  0  0  0
  185.8300  177.2480  135.8550 C   0  0  0  0  0  3  0  0  0  0  0  0
  185.8050  175.0560  134.7700 O   0  0  0  0  0  0  0  0  0  0  0  0
  184.4500  174.6450  134.6310 C   0  0  0  0  0  2  0  0  0  0  0  0
  184.2310  173.3830  135.3850 C   0  0  0  0  0  0  0  0  0  0  0  0
  185.2900  172.5130  135.6010 O   0  0  0  0  0  0  0  0  0  0  0  0
  183.0950  173.1190  135.8570 O   0  0  0  0  0  1  0  0  0  0  0  0
  184.8570  179.9140  139.5940 O   0  0  0  0  0  0  0  0  0  0  0  0
  183.3460  178.1860  139.1970 C   0  0  0  0  0  0  0  0  0  0  0  0
  183.6550  179.6120  138.9070 C   0  0  0  0  0  2  0  0  0  0  0  0
  184.3390  177.6800  139.8690 C   0  0  0  0  0  3  0  0  0  0  0  0
  185.2820  178.7110  140.0740 N   0  0  0  0  0  0  0  0  0  0  0  0
  181.2630  175.6290  137.3360 N   0  0  0  0  0  0  0  0  0  0  0  0
  180.3380  175.8490  139.5450 C   0  0  0  0  0  2  0  0  0  0  0  0
  182.1330  177.4150  138.7700 C   0  0  2  0  0  3  0  0  0  0  0  0
  181.5190  176.6800  139.9660 C   0  0  0  0  0  2  0  0  0  0  0  0
  182.4600  176.3960  137.6760 C   0  0  0  0  0  2  0  0  0  0  0  0
  180.2540  175.3420  138.3120 C   0  0  0  0  0  3  0  0  0  0  0  0
  1  4  2  0  0  0  0
  2 16  1  6  0  0  0
  2  5  1  0  0  0  0
  2  1  1  0  0  0  0
  3  4  1  0  0  0  0
  4  8  1  0  0  0  0
  5  3  2  0  0  0  0
  6 11  2  0  0  0  0
  7  9  1  0  0  0  0
  8 13  1  0  0  0  0
  8 12  1  0  0  0  0
 10  7  2  0  0  0  0
 11  9  1  0  0  0  0
 12 10  1  0  0  0  0
 12  6  1  1  0  0  0
 13 12  1  0  0  0  0
 13 10  1  6  0  0  0
 14 16  1  0  0  0  0
 15 16  2  0  0  0  0
 17 19  1  0  0  0  0
 17 18  2  0  0  0  0
 18 15  1  0  0  0  0
 19 14  2  0  0  0  0
 20 17  1  0  0  0  0
 21 20  1  0  0  0  0
 21 22  1  0  0  0  0
 22 23  2  0  0  0  0
 22 24  1  0  0  0  0
 25 29  1  0  0  0  0
 26 28  2  0  0  0  0
 27 26  1  0  0  0  0
 27 25  1  0  0  0  0
 28 29  1  0  0  0  0
 29  1  1  0  0  0  0
 30 34  1  0  0  0  0
 30 35  2  0  0  0  0
 31 33  1  0  0  0  0
 32 26  1  1  0  0  0
 32 33  1  0  0  0  0
 34 32  1  0  0  0  0
 35 31  1  0  0  0  0
M  END
>  <MODEL>
7

>  <REMARK>
 VINA RESULT:      -6.9      3.460      4.841
  Name = 
  7 active torsions:
  status: ('A' for Active; 'I' for Inactive)
    1  A    between atoms: C_3  and  N_26
    2  A    between atoms: N_5  and  C_33
    3  A    between atoms: C_6  and  C_19
    4  A    between atoms: C_10  and  C_12
    5  A    between atoms: O_13  and  C_24
    6  A    between atoms: O_13  and  C_27
    7  A    between atoms: C_25  and  C_27
                            x       y       z     vdW  Elec       q    Type
                         _______ _______ _______ _____ _____    ______ ____

>  <TORSDO>
F 7

$$$$
=
 OpenBabel10232409423D

 35 41  0  0  1  0  0  0  0  0999 V2000
  185.6100  178.2900  138.8720 C   0  0  0  0  0  0  0  0  0  0  0  0
  185.5380  179.1370  140.0990 C   0  0  1  0  0  3  0  0  0  0  0  0
  183.4290  178.2020  139.5050 N   0  0  0  0  0  0  0  0  0  0  0  0
  184.4150  177.8120  138.5680 C   0  0  0  0  0  0  0  0  0  0  0  0
  184.0670  179.0260  140.5220 C   0  0  0  0  0  3  0  0  0  0  0  0
  184.6530  174.4400  137.3460 C   0  0  0  0  0  3  0  0  0  0  0  0
  183.2710  174.9390  134.8120 C   0  0  0  0  0  3  0  0  0  0  0  0
  184.0900  177.0780  137.3860 N   0  0  0  0  0  0  0  0  0  0  0  0
  183.7330  173.6480  135.1730 C   0  0  0  0  0  2  0  0  0  0  0  0
  183.5280  175.9220  135.7470 C   0  0  0  0  0  0  0  0  0  0  0  0
  184.4090  173.4050  136.4100 C   0  0  0  0  0  3  0  0  0  0  0  0
  184.1900  175.6840  136.9590 C   0  0  1  0  0  0  0  0  0  0  0  0
  183.4240  177.2890  136.1530 C   0  0  2  0  0  3  0  0  0  0  0  0
  185.9150  178.0380  142.3090 C   0  0  0  0  0  3  0  0  0  0  0  0
  187.8540  178.7880  141.0710 C   0  0  0  0  0  3  0  0  0  0  0  0
  186.4630  178.6360  141.1700 C   0  0  0  0  0  0  0  0  0  0  0  0
  188.1420  177.7270  143.2330 C   0  0  0  0  0  0  0  0  0  0  0  0
  188.6870  178.3320  142.0960 C   0  0  0  0  0  3  0  0  0  0  0  0
  186.7490  177.5850  143.3360 C   0  0  0  0  0  3  0  0  0  0  0  0
  189.0010  177.2720  144.2370 O   0  0  0  0  0  0  0  0  0  0  0  0
  190.1680  177.9840  144.6280 C   0  0  0  0  0  2  0  0  0  0  0  0
  191.2700  177.0240  144.9040 C   0  0  0  0  0  0  0  0  0  0  0  0
  191.6070  176.0660  143.9580 O   0  0  0  0  0  0  0  0  0  0  0  0
  191.9200  177.1010  145.9790 O   0  0  0  0  0  1  0  0  0  0  0  0
  187.5810  179.1190  137.7250 O   0  0  0  0  0  0  0  0  0  0  0  0
  188.8250  177.1930  138.1350 C   0  0  0  0  0  0  0  0  0  0  0  0
  188.9130  178.6450  137.8230 C   0  0  0  0  0  2  0  0  0  0  0  0
  187.5750  176.8910  138.3330 C   0  0  0  0  0  3  0  0  0  0  0  0
  186.8170  178.0660  138.1310 N   0  0  0  0  0  0  0  0  0  0  0  0
  190.9480  174.1400  137.4190 N   0  0  0  0  0  0  0  0  0  0  0  0
  192.4360  175.9390  138.0010 C   0  0  0  0  0  2  0  0  0  0  0  0
  189.9600  176.2200  138.2550 C   0  0  2  0  0  3  0  0  0  0  0  0
  191.2910  176.9130  137.9490 C   0  0  0  0  0  2  0  0  0  0  0  0
  189.7920  175.0270  137.3110 C   0  0  0  0  0  2  0  0  0  0  0  0
  192.2550  174.6450  137.7210 C   0  0  0  0  0  3  0  0  0  0  0  0
  1  2  1  0  0  0  0
  2  5  1  0  0  0  0
  2 16  1  1  0  0  0
  3  5  2  0  0  0  0
  4  1  2  0  0  0  0
  4  3  1  0  0  0  0
  7  9  1  0  0  0  0
  7 10  2  0  0  0  0
  8  4  1  0  0  0  0
  9 11  1  0  0  0  0
 10 12  1  0  0  0  0
 11  6  2  0  0  0  0
 12  6  1  1  0  0  0
 12  8  1  0  0  0  0
 13 10  1  1  0  0  0
 13 12  1  0  0  0  0
 13  8  1  0  0  0  0
 14 19  1  0  0  0  0
 15 16  1  0  0  0  0
 15 18  2  0  0  0  0
 16 14  2  0  0  0  0
 17 19  2  0  0  0  0
 17 20  1  0  0  0  0
 18 17  1  0  0  0  0
 20 21  1  0  0  0  0
 21 22  1  0  0  0  0
 22 24  1  0  0  0  0
 23 22  2  0  0  0  0
 25 27  1  0  0  0  0
 25 29  1  0  0  0  0
 26 28  2  0  0  0  0
 27 26  1  0  0  0  0
 29 28  1  0  0  0  0
 29  1  1  0  0  0  0
 30 35  2  0  0  0  0
 32 26  1  6  0  0  0
 33 31  1  0  0  0  0
 33 32  1  0  0  0  0
 34 30  1  0  0  0  0
 34 32  1  0  0  0  0
 35 31  1  0  0  0  0
M  END
>  <MODEL>
8

>  <REMARK>
 VINA RESULT:      -6.9      3.133      8.976
  Name = 
  7 active torsions:
  status: ('A' for Active; 'I' for Inactive)
    1  A    between atoms: C_3  and  N_26
    2  A    between atoms: N_5  and  C_33
    3  A    between atoms: C_6  and  C_19
    4  A    between atoms: C_10  and  C_12
    5  A    between atoms: O_13  and  C_24
    6  A    between atoms: O_13  and  C_27
    7  A    between atoms: C_25  and  C_27
                            x       y       z     vdW  Elec       q    Type
                         _______ _______ _______ _____ _____    ______ ____

>  <TORSDO>
F 7

$$$$
=
 OpenBabel10232409423D

 35 41  0  0  1  0  0  0  0  0999 V2000
  189.8600  177.7170  140.2700 C   0  0  0  0  0  0  0  0  0  0  0  0
  191.3090  177.5210  139.9690 C   0  0  1  0  0  3  0  0  0  0  0  0
  190.7600  176.9890  142.2260 N   0  0  0  0  0  0  0  0  0  0  0  0
  189.6070  177.4310  141.5360 C   0  0  0  0  0  0  0  0  0  0  0  0
  191.8790  176.9950  141.2930 C   0  0  0  0  0  3  0  0  0  0  0  0
  188.3090  177.4100  144.8880 C   0  0  0  0  0  3  0  0  0  0  0  0
  185.5990  178.2560  144.1690 C   0  0  0  0  0  3  0  0  0  0  0  0
  188.3580  177.6350  142.2010 N   0  0  0  0  0  0  0  0  0  0  0  0
  185.9820  178.0300  145.5150 C   0  0  0  0  0  2  0  0  0  0  0  0
  186.6030  178.0440  143.2440 C   0  0  0  0  0  0  0  0  0  0  0  0
  187.3050  177.6160  145.8670 C   0  0  0  0  0  3  0  0  0  0  0  0
  187.8990  177.6380  143.5880 C   0  0  1  0  0  0  0  0  0  0  0  0
  187.0400  178.0450  141.8830 C   0  0  1  0  0  3  0  0  0  0  0  0
  192.7170  176.5720  138.1390 C   0  0  0  0  0  3  0  0  0  0  0  0
  190.5130  175.6320  138.4770 C   0  0  0  0  0  3  0  0  0  0  0  0
  191.5130  176.5430  138.8490 C   0  0  0  0  0  0  0  0  0  0  0  0
  191.9320  174.7720  136.7070 C   0  0  0  0  0  0  0  0  0  0  0  0
  190.7260  174.7490  137.4130 C   0  0  0  0  0  3  0  0  0  0  0  0
  192.9280  175.6910  137.0740 C   0  0  0  0  0  3  0  0  0  0  0  0
  192.1190  173.8700  135.6560 O   0  0  0  0  0  0  0  0  0  0  0  0
  193.4030  173.3990  135.2680 C   0  0  0  0  0  2  0  0  0  0  0  0
  193.7460  172.1810  136.0500 C   0  0  0  0  0  0  0  0  0  0  0  0
  194.7310  172.2400  137.0250 O   0  0  0  0  0  1  0  0  0  0  0  0
  193.1190  171.1070  135.8530 O   0  0  0  0  0  0  0  0  0  0  0  0
  189.2220  179.1850  138.4470 O   0  0  0  0  0  0  0  0  0  0  0  0
  187.6940  177.6720  137.5510 C   0  0  0  0  0  0  0  0  0  0  0  0
  188.5560  178.8450  137.2430 C   0  0  0  0  0  2  0  0  0  0  0  0
  187.9420  177.2900  138.7700 C   0  0  0  0  0  3  0  0  0  0  0  0
  188.9030  178.1760  139.3060 N   0  0  0  0  0  0  0  0  0  0  0  0
  185.8430  176.8580  134.3490 N   0  0  0  0  0  0  0  0  0  0  0  0
  186.1280  174.8030  135.5660 C   0  0  0  0  0  2  0  0  0  0  0  0
  186.7280  176.9890  136.6300 C   0  0  2  0  0  3  0  0  0  0  0  0
  187.0470  175.4940  136.5350 C   0  0  0  0  0  2  0  0  0  0  0  0
  186.7540  177.5940  135.2250 C   0  0  0  0  0  2  0  0  0  0  0  0
  185.5960  175.4580  134.5300 C   0  0  0  0  0  3  0  0  0  0  0  0
  1  4  2  0  0  0  0
  2 16  1  6  0  0  0
  2  1  1  0  0  0  0
  2  5  1  0  0  0  0
  4  8  1  0  0  0  0
  4  3  1  0  0  0  0
  5  3  2  0  0  0  0
  6 11  2  0  0  0  0
  7  9  1  0  0  0  0
  8 12  1  0  0  0  0
  9 11  1  0  0  0  0
 10 12  1  0  0  0  0
 10  7  2  0  0  0  0
 12  6  1  1  0  0  0
 13  8  1  0  0  0  0
 13 10  1  6  0  0  0
 13 12  1  0  0  0  0
 14 16  1  0  0  0  0
 15 16  2  0  0  0  0
 17 19  1  0  0  0  0
 17 18  2  0  0  0  0
 18 15  1  0  0  0  0
 19 14  2  0  0  0  0
 20 17  1  0  0  0  0
 21 20  1  0  0  0  0
 21 22  1  0  0  0  0
 22 23  1  0  0  0  0
 24 22  2  0  0  0  0
 25 29  1  0  0  0  0
 26 28  2  0  0  0  0
 27 26  1  0  0  0  0
 27 25  1  0  0  0  0
 28 29  1  0  0  0  0
 29  1  1  0  0  0  0
 30 35  2  0  0  0  0
 30 34  1  0  0  0  0
 31 33  1  0  0  0  0
 32 26  1  1  0  0  0
 33 32  1  0  0  0  0
 34 32  1  0  0  0  0
 35 31  1  0  0  0  0
M  END
>  <MODEL>
9

>  <REMARK>
 VINA RESULT:      -6.8      2.902      5.613
  Name = 
  7 active torsions:
  status: ('A' for Active; 'I' for Inactive)
    1  A    between atoms: C_3  and  N_26
    2  A    between atoms: N_5  and  C_33
    3  A    between atoms: C_6  and  C_19
    4  A    between atoms: C_10  and  C_12
    5  A    between atoms: O_13  and  C_24
    6  A    between atoms: O_13  and  C_27
    7  A    between atoms: C_25  and  C_27
                            x       y       z     vdW  Elec       q    Type
                         _______ _______ _______ _____ _____    ______ ____

>  <TORSDO>
F 7

$$$$
