=
 OpenBabel10232410233D

 68 71  0  0  1  0  0  0  0  0999 V2000
  183.7740  176.9650  137.0140 C   0  0  0  0  0  0  0  0  0  0  0  0
  182.9180  177.7290  137.7340 C   0  0  0  0  0  0  0  0  0  0  0  0
  182.6450  179.1940  137.4620 C   0  0  2  0  0  3  0  0  0  0  0  0
  180.3760  180.0970  137.8020 N   0  0  0  0  0  2  0  0  0  0  0  0
  184.3750  180.2120  138.8480 N   0  0  0  0  0  1  0  0  0  0  0  0
  182.9320  180.0880  138.6740 C   0  0  1  0  0  3  0  0  0  0  0  0
  181.3010  179.5420  136.7990 C   0  0  0  0  0  2  0  0  0  0  0  0
  180.8980  181.3470  138.3910 C   0  0  0  0  0  2  0  0  0  0  0  0
  182.3710  181.4140  138.4340 N   0  0  0  0  0  2  0  0  0  0  0  0
  183.8070  175.4780  137.2360 C   0  0  1  0  0  3  0  0  0  0  0  0
  183.3280  175.1500  138.5060 O   0  0  0  0  0  1  0  0  0  0  0  0
  180.9230  174.6280  136.7920 C   0  0  0  0  0  2  0  0  0  0  0  0
  183.1490  174.6500  136.1180 C   0  0  2  0  0  3  0  0  0  0  0  0
  182.2680  172.6160  137.3050 C   0  0  0  0  0  2  0  0  0  0  0  0
  181.8240  175.0340  135.7840 O   0  0  0  0  0  0  0  0  0  0  0  0
  183.3000  173.1370  136.3110 C   0  0  0  0  0  2  0  0  0  0  0  0
  180.8830  173.1090  136.9180 C   0  0  0  0  0  2  0  0  0  0  0  0
  182.0980  177.1190  138.7330 N   0  0  0  0  0  2  0  0  0  0  0  0
  182.6810  176.6510  139.9780 C   0  0  0  0  0  2  0  0  0  0  0  0
  183.5040  177.7420  140.6240 C   0  0  0  0  0  2  0  0  0  0  0  0
  182.6930  178.5450  141.4240 O   0  0  0  0  0  0  0  0  0  0  0  0
  183.5440  179.0340  142.4160 C   0  0  1  0  0  3  0  0  0  0  0  0
  182.7230  179.4810  143.6130 C   0  0  0  0  0  1  0  0  0  0  0  0
  184.4870  177.9530  142.8290 C   0  0  0  0  0  3  0  0  0  0  0  0
  185.2940  178.1310  143.8050 N   0  0  0  0  0  0  0  0  0  0  0  0
  186.1970  177.0790  144.1860 C   0  0  0  0  0  2  0  0  0  0  0  0
  190.0010  177.5160  144.2030 C   0  0  2  0  0  3  0  0  0  0  0  0
  188.6230  177.1170  143.6620 C   0  0  0  0  0  2  0  0  0  0  0  0
  189.9130  178.2480  145.4080 O   0  0  0  0  0  0  0  0  0  0  0  0
  187.5370  177.6630  144.5900 C   0  0  2  0  0  3  0  0  0  0  0  0
  187.7770  177.4000  145.9680 O   0  0  0  0  0  0  0  0  0  0  0  0
  189.1650  177.4420  146.2910 C   0  0  2  0  0  3  0  0  0  0  0  0
  191.8320  179.0140  143.8320 C   0  0  0  0  0  1  0  0  0  0  0  0
  190.7790  178.2320  143.1790 N   0  0  0  0  0  0  0  0  0  0  0  0
  190.7410  177.2970  140.9050 C   0  0  0  0  0  1  0  0  0  0  0  0
  191.4080  177.2600  142.2700 C   0  0  2  0  0  3  0  0  0  0  0  0
  191.2920  175.9620  142.7750 O   0  0  0  0  0  1  0  0  0  0  0  0
  189.3620  177.8630  147.6770 N   0  0  0  0  0  2  0  0  0  0  0  0
  190.7130  177.5290  148.1020 C   0  0  0  0  0  2  0  0  0  0  0  0
  191.3820  176.7030  147.0280 C   0  0  0  0  0  2  0  0  0  0  0  0
  192.1710  175.5730  147.6650 C   0  0  0  0  0  1  0  0  0  0  0  0
  184.6790  177.5430  135.9570 C   0  0  0  0  0  2  0  0  0  0  0  0
  187.0190  177.2110  136.6910 C   0  0  0  0  0  3  0  0  0  0  0  0
  186.0290  176.8570  135.8630 C   0  0  0  0  0  0  0  0  0  0  0  0
  186.7020  172.3210  136.0750 C   0  0  0  0  0  1  0  0  0  0  0  0
  186.2130  175.7050  134.9560 C   0  0  0  0  0  3  0  0  0  0  0  0
  186.8330  174.6060  135.3040 C   0  0  0  0  0  0  0  0  0  0  0  0
  187.4810  173.5320  135.6660 C   0  0  0  0  0  0  0  0  0  0  0  0
  189.1470  171.3830  134.6120 C   0  0  0  0  0  2  0  0  0  0  0  0
  189.7140  172.4670  135.1400 C   0  0  0  0  0  0  0  0  0  0  0  0
  191.8890  171.5090  135.0640 O   0  0  0  0  0  0  0  0  0  0  0  0
  188.9180  173.5330  135.7100 N   0  0  0  0  0  0  0  0  0  0  0  0
  189.5810  174.5020  136.5900 C   0  0  0  0  0  2  0  0  0  0  0  0
  190.9310  174.9130  136.0150 C   0  0  0  0  0  2  0  0  0  0  0  0
  191.7740  173.7440  135.7930 N   0  0  0  0  0  0  0  0  0  0  0  0
  191.1810  172.5280  135.2900 C   0  0  0  0  0  0  0  0  0  0  0  0
  193.1970  173.8790  136.1170 C   0  0  2  0  0  3  0  0  0  0  0  0
  194.0420  174.2460  134.8890 C   0  0  2  0  0  3  0  0  0  0  0  0
  194.9250  173.0950  134.4370 C   0  0  0  0  0  1  0  0  0  0  0  0
  196.2610  175.0920  135.2220 O   0  0  0  0  0  1  0  0  0  0  0  0
  194.9150  175.4570  135.1730 C   0  0  0  0  0  2  0  0  0  0  0  0
  193.6910  172.7450  136.7810 O   0  0  0  0  0  0  0  0  0  0  0  0
  193.7870  173.1110  138.1300 C   0  0  0  0  0  2  0  0  0  0  0  0
  195.0250  173.9640  138.3720 C   0  0  0  0  0  2  0  0  0  0  0  0
  196.0960  173.1570  138.7430 O   0  0  0  0  0  1  0  0  0  0  0  0
  186.9170  178.3270  137.6810 C   0  0  0  0  0  2  0  0  0  0  0  0
  189.0620  178.2480  138.9270 C   0  0  0  0  0  1  0  0  0  0  0  0
  187.5890  177.9280  138.9830 C   0  0  0  0  0  2  0  0  0  0  0  0
  1 10  1  0  0  0  0
  1  2  2  0  0  0  0
  2 18  1  0  0  0  0
  3  2  1  1  0  0  0
  3  6  1  0  0  0  0
  4  8  1  0  0  0  0
  6  5  1  6  0  0  0
  7  3  1  0  0  0  0
  7  4  1  0  0  0  0
  8  9  1  0  0  0  0
  9  6  1  0  0  0  0
 10 11  1  1  0  0  0
 12 17  1  0  0  0  0
 13 16  1  0  0  0  0
 13 10  1  1  0  0  0
 15 13  1  0  0  0  0
 15 12  1  0  0  0  0
 16 14  1  0  0  0  0
 17 14  1  0  0  0  0
 18 19  1  0  0  0  0
 19 20  1  0  0  0  0
 20 21  1  0  0  0  0
 21 22  1  0  0  0  0
 22 24  1  0  0  0  0
 22 23  1  1  0  0  0
 24 25  2  0  0  0  0
 25 26  1  0  0  0  0
 27 34  1  6  0  0  0
 27 29  1  0  0  0  0
 28 27  1  0  0  0  0
 28 30  1  0  0  0  0
 29 32  1  0  0  0  0
 30 26  1  6  0  0  0
 30 31  1  0  0  0  0
 31 32  1  0  0  0  0
 32 38  1  1  0  0  0
 34 33  1  0  0  0  0
 36 35  1  6  0  0  0
 36 37  1  0  0  0  0
 36 34  1  0  0  0  0
 38 39  1  0  0  0  0
 40 41  1  0  0  0  0
 40 39  1  0  0  0  0
 42  1  1  0  0  0  0
 43 66  1  0  0  0  0
 44 42  1  0  0  0  0
 44 43  2  0  0  0  0
 46 47  2  0  0  0  0
 46 44  1  0  0  0  0
 47 48  2  0  0  0  0
 48 52  1  0  0  0  0
 48 45  1  0  0  0  0
 49 50  2  0  0  0  0
 50 56  1  0  0  0  0
 50 52  1  0  0  0  0
 51 56  2  0  0  0  0
 52 53  1  0  0  0  0
 54 53  1  0  0  0  0
 55 54  1  0  0  0  0
 55 57  1  0  0  0  0
 56 55  1  0  0  0  0
 57 62  1  6  0  0  0
 58 59  1  1  0  0  0
 58 61  1  0  0  0  0
 58 57  1  0  0  0  0
 61 60  1  0  0  0  0
 62 63  1  0  0  0  0
 63 64  1  0  0  0  0
 64 65  1  0  0  0  0
 66 68  1  0  0  0  0
 67 68  1  0  0  0  0
M  END
>  <MODEL>
1

>  <REMARK>
 VINA RESULT:      -5.4      0.000      0.000
  Name = 
  28 active torsions:
  status: ('A' for Active; 'I' for Inactive)
    1  A    between atoms: C_1  and  N_53
    2  A    between atoms: C_3  and  C_26
    3  A    between atoms: C_5  and  C_15
    4  A    between atoms: C_5  and  C_18
    5  A    between atoms: O_9  and  C_13
    6  A    between atoms: O_9  and  C_16
    7  A    between atoms: C_11  and  C_66
    8  A    between atoms: C_13  and  C_64
    9  A    between atoms: O_14  and  C_65
   10  A    between atoms: O_14  and  C_66
   11  A    between atoms: C_15  and  C_17
   12  A    between atoms: C_16  and  C_41
   13  A    between atoms: C_17  and  C_33
   14  A    between atoms: C_22  and  C_38
   15  A    between atoms: C_23  and  C_28
   16  A    between atoms: C_23  and  N_39
   17  A    between atoms: C_24  and  C_38
   18  A    between atoms: C_26  and  N_43
   19  A    between atoms: C_29  and  N_53
   20  A    between atoms: C_32  and  C_36
   21  A    between atoms: C_33  and  C_45
   22  A    between atoms: C_34  and  N_42
   23  A    between atoms: C_34  and  C_61
   24  A    between atoms: C_36  and  C_65
   25  A    between atoms: N_37  and  C_59
   26  A    between atoms: N_39  and  C_67
   27  A    between atoms: N_43  and  C_64
   28  A    between atoms: N_58  and  C_65
                            x       y       z     vdW  Elec       q    Type
                         _______ _______ _______ _____ _____    ______ ____

>  <TORSDO>
F 28

$$$$
=
 OpenBabel10232410233D

 68 71  0  0  1  0  0  0  0  0999 V2000
  183.4110  177.2890  138.5290 C   0  0  0  0  0  0  0  0  0  0  0  0
  184.3120  177.0660  137.5420 C   0  0  0  0  0  0  0  0  0  0  0  0
  184.6500  175.6970  136.9880 C   0  0  2  0  0  3  0  0  0  0  0  0
  183.3740  173.7270  137.7400 N   0  0  0  0  0  2  0  0  0  0  0  0
  184.5100  176.1620  134.5970 N   0  0  0  0  0  1  0  0  0  0  0  0
  183.9130  175.3870  135.6790 C   0  0  1  0  0  3  0  0  0  0  0  0
  184.5970  174.5140  137.9690 C   0  0  0  0  0  2  0  0  0  0  0  0
  183.3430  173.1540  136.3790 C   0  0  0  0  0  2  0  0  0  0  0  0
  184.0550  173.9660  135.3750 N   0  0  0  0  0  2  0  0  0  0  0  0
  182.9990  178.6980  138.8520 C   0  0  1  0  0  3  0  0  0  0  0  0
  183.9610  179.3330  139.6420 O   0  0  0  0  0  1  0  0  0  0  0  0
  181.4830  181.3240  138.6400 C   0  0  0  0  0  2  0  0  0  0  0  0
  182.5800  179.5380  137.6320 C   0  0  2  0  0  3  0  0  0  0  0  0
  180.0660  179.5190  137.7150 C   0  0  0  0  0  2  0  0  0  0  0  0
  182.5800  180.9430  137.8390 O   0  0  0  0  0  0  0  0  0  0  0  0
  181.2990  179.0360  136.9580 C   0  0  0  0  0  2  0  0  0  0  0  0
  180.1600  181.0190  137.9480 C   0  0  0  0  0  2  0  0  0  0  0  0
  184.9000  178.1750  136.8590 N   0  0  0  0  0  2  0  0  0  0  0  0
  186.3390  178.3680  136.8700 C   0  0  0  0  0  2  0  0  0  0  0  0
  186.8610  178.4010  138.2890 C   0  0  0  0  0  2  0  0  0  0  0  0
  187.7620  177.3580  138.4930 O   0  0  0  0  0  0  0  0  0  0  0  0
  188.7680  177.5660  137.5500 C   0  0  1  0  0  3  0  0  0  0  0  0
  188.8340  179.0420  137.1950 C   0  0  0  0  0  1  0  0  0  0  0  0
  190.0760  177.1290  138.1220 C   0  0  0  0  0  3  0  0  0  0  0  0
  190.5730  175.9920  137.8160 N   0  0  0  0  0  0  0  0  0  0  0  0
  191.8320  175.5870  138.3800 C   0  0  0  0  0  2  0  0  0  0  0  0
  194.2640  173.7900  136.0300 C   0  0  2  0  0  3  0  0  0  0  0  0
  193.7760  174.8530  137.0220 C   0  0  0  0  0  2  0  0  0  0  0  0
  193.3370  172.7360  135.8750 O   0  0  0  0  0  0  0  0  0  0  0  0
  192.4150  174.4360  137.5830 C   0  0  2  0  0  3  0  0  0  0  0  0
  191.4870  174.0270  136.5840 O   0  0  0  0  0  0  0  0  0  0  0  0
  192.1210  173.3470  135.5050 C   0  0  2  0  0  3  0  0  0  0  0  0
  196.3780  173.0470  135.1870 C   0  0  0  0  0  1  0  0  0  0  0  0
  195.6010  173.3000  136.4040 N   0  0  0  0  0  0  0  0  0  0  0  0
  197.3240  175.0530  136.3570 C   0  0  0  0  0  1  0  0  0  0  0  0
  196.2940  174.3220  137.2030 C   0  0  2  0  0  3  0  0  0  0  0  0
  196.9570  173.7380  138.2860 O   0  0  0  0  0  1  0  0  0  0  0  0
  191.2120  172.3760  134.8980 N   0  0  0  0  0  2  0  0  0  0  0  0
  190.0550  173.0670  134.3470 C   0  0  0  0  0  2  0  0  0  0  0  0
  188.8710  172.1280  134.3470 C   0  0  0  0  0  2  0  0  0  0  0  0
  187.5830  172.9250  134.4500 C   0  0  0  0  0  1  0  0  0  0  0  0
  182.7650  176.1680  139.3010 C   0  0  0  0  0  2  0  0  0  0  0  0
  180.3490  176.2380  138.7620 C   0  0  0  0  0  3  0  0  0  0  0  0
  181.3160  176.4310  139.6670 C   0  0  0  0  0  0  0  0  0  0  0  0
  181.4120  180.0180  142.5330 C   0  0  0  0  0  1  0  0  0  0  0  0
  180.9540  176.7660  141.0610 C   0  0  0  0  0  3  0  0  0  0  0  0
  181.5120  177.7400  141.7350 C   0  0  0  0  0  0  0  0  0  0  0  0
  182.1040  178.6970  142.3960 C   0  0  0  0  0  0  0  0  0  0  0  0
  182.7410  178.9460  145.2320 C   0  0  0  0  0  2  0  0  0  0  0  0
  183.6870  178.5860  144.3660 C   0  0  0  0  0  0  0  0  0  0  0  0
  185.4100  178.7650  145.9950 O   0  0  0  0  0  0  0  0  0  0  0  0
  183.4170  178.4940  142.9470 N   0  0  0  0  0  0  0  0  0  0  0  0
  184.5550  178.4610  142.0210 C   0  0  0  0  0  2  0  0  0  0  0  0
  185.6500  177.5440  142.5500 C   0  0  0  0  0  2  0  0  0  0  0  0
  186.0700  177.9590  143.8850 N   0  0  0  0  0  0  0  0  0  0  0  0
  185.0800  178.4230  144.8260 C   0  0  0  0  0  0  0  0  0  0  0  0
  187.5040  177.8900  144.1810 C   0  0  2  0  0  3  0  0  0  0  0  0
  188.3070  177.2620  143.0340 C   0  0  2  0  0  3  0  0  0  0  0  0
  189.0930  176.0430  143.4870 C   0  0  0  0  0  1  0  0  0  0  0  0
  189.1430  178.2910  141.0360 O   0  0  0  0  0  1  0  0  0  0  0  0
  189.2660  178.2710  142.4260 C   0  0  0  0  0  2  0  0  0  0  0  0
  187.7530  177.2610  145.4110 O   0  0  0  0  0  0  0  0  0  0  0  0
  188.9230  177.8520  145.9070 C   0  0  0  0  0  2  0  0  0  0  0  0
  188.7650  178.2130  147.3780 C   0  0  0  0  0  2  0  0  0  0  0  0
  189.0040  177.0950  148.1710 O   0  0  0  0  0  1  0  0  0  0  0  0
  180.6070  175.8480  137.3420 C   0  0  0  0  0  2  0  0  0  0  0  0
  180.0240  174.1230  135.6560 C   0  0  0  0  0  1  0  0  0  0  0  0
  180.2220  174.3940  137.1260 C   0  0  0  0  0  2  0  0  0  0  0  0
  1 10  1  0  0  0  0
  1 42  1  0  0  0  0
  2  1  2  0  0  0  0
  3  2  1  1  0  0  0
  3  7  1  0  0  0  0
  4  7  1  0  0  0  0
  6  5  1  6  0  0  0
  6  3  1  0  0  0  0
  8  4  1  0  0  0  0
  9  6  1  0  0  0  0
  9  8  1  0  0  0  0
 10 11  1  6  0  0  0
 13 15  1  0  0  0  0
 13 10  1  1  0  0  0
 14 17  1  0  0  0  0
 15 12  1  0  0  0  0
 16 13  1  0  0  0  0
 16 14  1  0  0  0  0
 17 12  1  0  0  0  0
 18 19  1  0  0  0  0
 18  2  1  0  0  0  0
 19 20  1  0  0  0  0
 20 21  1  0  0  0  0
 22 23  1  1  0  0  0
 22 24  1  0  0  0  0
 22 21  1  0  0  0  0
 25 24  2  0  0  0  0
 25 26  1  0  0  0  0
 27 34  1  1  0  0  0
 27 28  1  0  0  0  0
 28 30  1  0  0  0  0
 29 27  1  0  0  0  0
 30 26  1  6  0  0  0
 31 30  1  0  0  0  0
 32 38  1  1  0  0  0
 32 29  1  0  0  0  0
 32 31  1  0  0  0  0
 33 34  1  0  0  0  0
 34 36  1  0  0  0  0
 36 35  1  6  0  0  0
 36 37  1  0  0  0  0
 39 38  1  0  0  0  0
 40 39  1  0  0  0  0
 40 41  1  0  0  0  0
 42 44  1  0  0  0  0
 43 44  2  0  0  0  0
 44 46  1  0  0  0  0
 46 47  2  0  0  0  0
 47 48  2  0  0  0  0
 48 45  1  0  0  0  0
 48 52  1  0  0  0  0
 50 56  1  0  0  0  0
 50 49  2  0  0  0  0
 52 50  1  0  0  0  0
 53 54  1  0  0  0  0
 53 52  1  0  0  0  0
 54 55  1  0  0  0  0
 55 57  1  0  0  0  0
 55 56  1  0  0  0  0
 56 51  2  0  0  0  0
 57 62  1  1  0  0  0
 58 59  1  1  0  0  0
 58 57  1  0  0  0  0
 60 61  1  0  0  0  0
 61 58  1  0  0  0  0
 62 63  1  0  0  0  0
 63 64  1  0  0  0  0
 64 65  1  0  0  0  0
 66 43  1  0  0  0  0
 67 68  1  0  0  0  0
 68 66  1  0  0  0  0
M  END
>  <MODEL>
2

>  <REMARK>
 VINA RESULT:      -4.7      2.309      9.215
  Name = 
  28 active torsions:
  status: ('A' for Active; 'I' for Inactive)
    1  A    between atoms: C_1  and  N_53
    2  A    between atoms: C_3  and  C_26
    3  A    between atoms: C_5  and  C_15
    4  A    between atoms: C_5  and  C_18
    5  A    between atoms: O_9  and  C_13
    6  A    between atoms: O_9  and  C_16
    7  A    between atoms: C_11  and  C_66
    8  A    between atoms: C_13  and  C_64
    9  A    between atoms: O_14  and  C_65
   10  A    between atoms: O_14  and  C_66
   11  A    between atoms: C_15  and  C_17
   12  A    between atoms: C_16  and  C_41
   13  A    between atoms: C_17  and  C_33
   14  A    between atoms: C_22  and  C_38
   15  A    between atoms: C_23  and  C_28
   16  A    between atoms: C_23  and  N_39
   17  A    between atoms: C_24  and  C_38
   18  A    between atoms: C_26  and  N_43
   19  A    between atoms: C_29  and  N_53
   20  A    between atoms: C_32  and  C_36
   21  A    between atoms: C_33  and  C_45
   22  A    between atoms: C_34  and  N_42
   23  A    between atoms: C_34  and  C_61
   24  A    between atoms: C_36  and  C_65
   25  A    between atoms: N_37  and  C_59
   26  A    between atoms: N_39  and  C_67
   27  A    between atoms: N_43  and  C_64
   28  A    between atoms: N_58  and  C_65
                            x       y       z     vdW  Elec       q    Type
                         _______ _______ _______ _____ _____    ______ ____

>  <TORSDO>
F 28

$$$$
=
 OpenBabel10232410233D

 68 71  0  0  1  0  0  0  0  0999 V2000
  183.9790  176.6140  136.8910 C   0  0  0  0  0  0  0  0  0  0  0  0
  183.0640  177.4110  137.4950 C   0  0  0  0  0  0  0  0  0  0  0  0
  182.7580  178.8320  137.0700 C   0  0  2  0  0  3  0  0  0  0  0  0
  180.4610  179.4430  136.4170 N   0  0  0  0  0  2  0  0  0  0  0  0
  183.6390  180.0480  138.9930 N   0  0  0  0  0  1  0  0  0  0  0  0
  182.4180  179.7470  138.2530 C   0  0  1  0  0  3  0  0  0  0  0  0
  181.7720  179.0150  135.9030 C   0  0  0  0  0  2  0  0  0  0  0  0
  180.5470  180.7440  137.1110 C   0  0  0  0  0  2  0  0  0  0  0  0
  181.8540  180.9940  137.7470 N   0  0  0  0  0  2  0  0  0  0  0  0
  184.0480  175.1570  137.2570 C   0  0  1  0  0  3  0  0  0  0  0  0
  183.5490  174.9390  138.5430 O   0  0  0  0  0  1  0  0  0  0  0  0
  182.1550  172.7970  137.5440 C   0  0  0  0  0  2  0  0  0  0  0  0
  183.4400  174.2050  136.2110 C   0  0  2  0  0  3  0  0  0  0  0  0
  184.3660  171.9500  136.8300 C   0  0  0  0  0  2  0  0  0  0  0  0
  182.1270  173.7500  136.5030 O   0  0  0  0  0  0  0  0  0  0  0  0
  184.3840  173.0710  135.7970 C   0  0  0  0  0  2  0  0  0  0  0  0
  182.9310  171.5510  137.1330 C   0  0  0  0  0  2  0  0  0  0  0  0
  182.2160  176.8690  138.5090 N   0  0  0  0  0  2  0  0  0  0  0  0
  182.7860  176.3090  139.7230 C   0  0  0  0  0  2  0  0  0  0  0  0
  183.6310  177.3390  140.4380 C   0  0  0  0  0  2  0  0  0  0  0  0
  182.8180  178.2020  141.1710 O   0  0  0  0  0  0  0  0  0  0  0  0
  183.6800  178.8210  142.0760 C   0  0  1  0  0  3  0  0  0  0  0  0
  183.3870  178.3190  143.4800 C   0  0  0  0  0  1  0  0  0  0  0  0
  185.0900  178.4960  141.7110 C   0  0  0  0  0  3  0  0  0  0  0  0
  185.9830  178.3620  142.6160 N   0  0  0  0  0  0  0  0  0  0  0  0
  187.3370  178.0520  142.2440 C   0  0  0  0  0  2  0  0  0  0  0  0
  188.5330  178.2100  145.8780 C   0  0  2  0  0  3  0  0  0  0  0  0
  187.5910  178.4150  144.6860 C   0  0  0  0  0  2  0  0  0  0  0  0
  189.6550  177.4180  145.5440 O   0  0  0  0  0  0  0  0  0  0  0  0
  188.1390  177.6640  143.4710 C   0  0  2  0  0  3  0  0  0  0  0  0
  189.5220  177.8970  143.2320 O   0  0  0  0  0  0  0  0  0  0  0  0
  190.2590  178.0560  144.4420 C   0  0  2  0  0  3  0  0  0  0  0  0
  188.2370  176.2950  147.2840 C   0  0  0  0  0  1  0  0  0  0  0  0
  187.8030  177.6720  147.0370 N   0  0  0  0  0  0  0  0  0  0  0  0
  189.5470  178.2800  148.6600 C   0  0  0  0  0  1  0  0  0  0  0  0
  188.1040  178.4830  148.2280 C   0  0  2  0  0  3  0  0  0  0  0  0
  187.2760  178.1230  149.2940 O   0  0  0  0  0  1  0  0  0  0  0  0
  191.6390  177.6070  144.2700 N   0  0  0  0  0  2  0  0  0  0  0  0
  191.7980  176.2800  144.8480 C   0  0  0  0  0  2  0  0  0  0  0  0
  191.9070  176.4020  146.3500 C   0  0  0  0  0  2  0  0  0  0  0  0
  191.7970  175.0290  146.9880 C   0  0  0  0  0  1  0  0  0  0  0  0
  184.9150  177.1210  135.8260 C   0  0  0  0  0  2  0  0  0  0  0  0
  187.1130  177.2270  136.9590 C   0  0  0  0  0  3  0  0  0  0  0  0
  186.3530  176.6730  136.0080 C   0  0  0  0  0  0  0  0  0  0  0  0
  188.3440  172.5960  136.7110 C   0  0  0  0  0  1  0  0  0  0  0  0
  186.8750  175.5290  135.2320 C   0  0  0  0  0  3  0  0  0  0  0  0
  187.7930  174.7110  135.6830 C   0  0  0  0  0  0  0  0  0  0  0  0
  188.7290  173.9270  136.1440 C   0  0  0  0  0  0  0  0  0  0  0  0
  189.8000  175.9610  134.3490 C   0  0  0  0  0  2  0  0  0  0  0  0
  190.5880  175.4000  135.2650 C   0  0  0  0  0  0  0  0  0  0  0  0
  192.5450  176.4150  134.3730 O   0  0  0  0  0  0  0  0  0  0  0  0
  190.1010  174.3580  136.1440 N   0  0  0  0  0  0  0  0  0  0  0  0
  191.0820  173.5340  136.8590 C   0  0  0  0  0  2  0  0  0  0  0  0
  192.2070  174.4010  137.4130 C   0  0  0  0  0  2  0  0  0  0  0  0
  192.8420  175.1660  136.3460 N   0  0  0  0  0  0  0  0  0  0  0  0
  192.0270  175.7280  135.2960 C   0  0  0  0  0  0  0  0  0  0  0  0
  194.3000  175.3030  136.4030 C   0  0  2  0  0  3  0  0  0  0  0  0
  194.9500  175.2030  135.0150 C   0  0  2  0  0  3  0  0  0  0  0  0
  194.7040  173.8520  134.3650 C   0  0  0  0  0  1  0  0  0  0  0  0
  196.7330  176.8020  134.9170 O   0  0  0  0  0  1  0  0  0  0  0  0
  196.4470  175.4480  135.0980 C   0  0  0  0  0  2  0  0  0  0  0  0
  194.8730  174.4110  137.3220 O   0  0  0  0  0  0  0  0  0  0  0  0
  194.7140  175.0110  138.5790 C   0  0  0  0  0  2  0  0  0  0  0  0
  195.9280  174.7470  139.4600 C   0  0  0  0  0  2  0  0  0  0  0  0
  197.0570  174.5520  138.6720 O   0  0  0  0  0  1  0  0  0  0  0  0
  186.6610  178.3540  137.8330 C   0  0  0  0  0  2  0  0  0  0  0  0
  188.8240  178.5730  139.0290 C   0  0  0  0  0  1  0  0  0  0  0  0
  187.3540  178.2730  139.1820 C   0  0  0  0  0  2  0  0  0  0  0  0
  1 10  1  0  0  0  0
  1  2  2  0  0  0  0
  2 18  1  0  0  0  0
  3  2  1  1  0  0  0
  3  6  1  0  0  0  0
  4  8  1  0  0  0  0
  6  5  1  6  0  0  0
  7  4  1  0  0  0  0
  7  3  1  0  0  0  0
  8  9  1  0  0  0  0
  9  6  1  0  0  0  0
 10 11  1  1  0  0  0
 13 15  1  0  0  0  0
 13 10  1  1  0  0  0
 14 17  1  0  0  0  0
 15 12  1  0  0  0  0
 16 13  1  0  0  0  0
 16 14  1  0  0  0  0
 17 12  1  0  0  0  0
 18 19  1  0  0  0  0
 19 20  1  0  0  0  0
 20 21  1  0  0  0  0
 21 22  1  0  0  0  0
 22 23  1  1  0  0  0
 24 22  1  0  0  0  0
 24 25  2  0  0  0  0
 26 25  1  0  0  0  0
 27 34  1  1  0  0  0
 28 27  1  0  0  0  0
 29 27  1  0  0  0  0
 30 26  1  6  0  0  0
 30 28  1  0  0  0  0
 31 30  1  0  0  0  0
 31 32  1  0  0  0  0
 32 38  1  6  0  0  0
 32 29  1  0  0  0  0
 34 33  1  0  0  0  0
 34 36  1  0  0  0  0
 36 35  1  1  0  0  0
 36 37  1  0  0  0  0
 38 39  1  0  0  0  0
 39 40  1  0  0  0  0
 40 41  1  0  0  0  0
 42 44  1  0  0  0  0
 42  1  1  0  0  0  0
 43 66  1  0  0  0  0
 44 43  2  0  0  0  0
 46 47  2  0  0  0  0
 46 44  1  0  0  0  0
 47 48  2  0  0  0  0
 48 52  1  0  0  0  0
 48 45  1  0  0  0  0
 49 50  2  0  0  0  0
 50 56  1  0  0  0  0
 50 52  1  0  0  0  0
 51 56  2  0  0  0  0
 52 53  1  0  0  0  0
 53 54  1  0  0  0  0
 55 57  1  0  0  0  0
 55 54  1  0  0  0  0
 56 55  1  0  0  0  0
 57 62  1  1  0  0  0
 58 59  1  1  0  0  0
 58 61  1  0  0  0  0
 58 57  1  0  0  0  0
 60 61  1  0  0  0  0
 62 63  1  0  0  0  0
 63 64  1  0  0  0  0
 65 64  1  0  0  0  0
 66 68  1  0  0  0  0
 67 68  1  0  0  0  0
M  END
>  <MODEL>
3

>  <REMARK>
 VINA RESULT:      -4.3      1.463      2.558
  Name = 
  28 active torsions:
  status: ('A' for Active; 'I' for Inactive)
    1  A    between atoms: C_1  and  N_53
    2  A    between atoms: C_3  and  C_26
    3  A    between atoms: C_5  and  C_15
    4  A    between atoms: C_5  and  C_18
    5  A    between atoms: O_9  and  C_13
    6  A    between atoms: O_9  and  C_16
    7  A    between atoms: C_11  and  C_66
    8  A    between atoms: C_13  and  C_64
    9  A    between atoms: O_14  and  C_65
   10  A    between atoms: O_14  and  C_66
   11  A    between atoms: C_15  and  C_17
   12  A    between atoms: C_16  and  C_41
   13  A    between atoms: C_17  and  C_33
   14  A    between atoms: C_22  and  C_38
   15  A    between atoms: C_23  and  C_28
   16  A    between atoms: C_23  and  N_39
   17  A    between atoms: C_24  and  C_38
   18  A    between atoms: C_26  and  N_43
   19  A    between atoms: C_29  and  N_53
   20  A    between atoms: C_32  and  C_36
   21  A    between atoms: C_33  and  C_45
   22  A    between atoms: C_34  and  N_42
   23  A    between atoms: C_34  and  C_61
   24  A    between atoms: C_36  and  C_65
   25  A    between atoms: N_37  and  C_59
   26  A    between atoms: N_39  and  C_67
   27  A    between atoms: N_43  and  C_64
   28  A    between atoms: N_58  and  C_65
                            x       y       z     vdW  Elec       q    Type
                         _______ _______ _______ _____ _____    ______ ____

>  <TORSDO>
F 28

$$$$
=
 OpenBabel10232410233D

 68 71  0  0  1  0  0  0  0  0999 V2000
  184.0110  176.5090  136.6680 C   0  0  0  0  0  0  0  0  0  0  0  0
  183.0920  177.2810  137.2960 C   0  0  0  0  0  0  0  0  0  0  0  0
  182.6910  178.6700  136.8440 C   0  0  2  0  0  3  0  0  0  0  0  0
  180.3490  179.1240  136.2230 N   0  0  0  0  0  2  0  0  0  0  0  0
  183.5310  179.9850  138.7200 N   0  0  0  0  0  1  0  0  0  0  0  0
  182.3180  179.5920  138.0120 C   0  0  1  0  0  3  0  0  0  0  0  0
  181.6740  178.7640  135.6930 C   0  0  0  0  0  2  0  0  0  0  0  0
  180.3680  180.4440  136.8840 C   0  0  0  0  0  2  0  0  0  0  0  0
  181.6680  180.7890  137.4870 N   0  0  0  0  0  2  0  0  0  0  0  0
  184.1750  175.0710  137.0760 C   0  0  1  0  0  3  0  0  0  0  0  0
  184.7010  174.9730  138.3660 O   0  0  0  0  0  1  0  0  0  0  0  0
  183.8340  172.0680  136.7590 C   0  0  0  0  0  2  0  0  0  0  0  0
  182.9190  174.2030  136.8760 C   0  0  2  0  0  3  0  0  0  0  0  0
  183.2560  173.1560  134.6150 C   0  0  0  0  0  2  0  0  0  0  0  0
  182.9720  172.9200  137.4820 O   0  0  0  0  0  0  0  0  0  0  0  0
  182.4360  174.1550  135.4230 C   0  0  0  0  0  2  0  0  0  0  0  0
  183.3160  171.8250  135.3470 C   0  0  0  0  0  2  0  0  0  0  0  0
  182.3290  176.7340  138.3740 N   0  0  0  0  0  2  0  0  0  0  0  0
  182.9950  176.1830  139.5410 C   0  0  0  0  0  2  0  0  0  0  0  0
  183.7710  177.2580  140.2680 C   0  0  0  0  0  2  0  0  0  0  0  0
  182.9030  178.2470  140.7280 O   0  0  0  0  0  0  0  0  0  0  0  0
  183.5230  178.7630  141.8670 C   0  0  1  0  0  3  0  0  0  0  0  0
  182.4660  179.1800  142.8750 C   0  0  0  0  0  1  0  0  0  0  0  0
  184.4010  177.7150  142.4650 C   0  0  0  0  0  3  0  0  0  0  0  0
  185.0670  177.9520  143.5300 N   0  0  0  0  0  0  0  0  0  0  0  0
  185.9100  176.9310  144.0890 C   0  0  0  0  0  2  0  0  0  0  0  0
  189.6930  177.5140  143.9860 C   0  0  2  0  0  3  0  0  0  0  0  0
  188.3060  177.1200  143.4660 C   0  0  0  0  0  2  0  0  0  0  0  0
  189.6370  178.1100  145.2650 O   0  0  0  0  0  0  0  0  0  0  0  0
  187.2460  177.5220  144.4950 C   0  0  2  0  0  3  0  0  0  0  0  0
  187.5610  177.1240  145.8240 O   0  0  0  0  0  0  0  0  0  0  0  0
  188.9600  177.1870  146.0880 C   0  0  2  0  0  3  0  0  0  0  0  0
  191.5960  178.9250  143.6380 C   0  0  0  0  0  1  0  0  0  0  0  0
  190.3960  178.3650  143.0110 N   0  0  0  0  0  0  0  0  0  0  0  0
  190.8170  176.0770  142.2150 C   0  0  0  0  0  1  0  0  0  0  0  0
  190.8030  177.5530  141.8530 C   0  0  2  0  0  3  0  0  0  0  0  0
  192.0850  177.9070  141.4260 O   0  0  0  0  0  1  0  0  0  0  0  0
  189.2090  177.4660  147.5010 N   0  0  0  0  0  2  0  0  0  0  0  0
  188.5200  178.6900  147.8870 C   0  0  0  0  0  2  0  0  0  0  0  0
  187.0510  178.3930  148.0770 C   0  0  0  0  0  2  0  0  0  0  0  0
  186.2290  179.6190  147.7230 C   0  0  0  0  0  1  0  0  0  0  0  0
  184.8610  177.0240  135.5360 C   0  0  0  0  0  2  0  0  0  0  0  0
  187.1000  176.8560  136.5770 C   0  0  0  0  0  3  0  0  0  0  0  0
  186.2920  176.5210  135.5640 C   0  0  0  0  0  0  0  0  0  0  0  0
  187.1830  172.0330  135.1820 C   0  0  0  0  0  1  0  0  0  0  0  0
  186.7550  175.5500  134.5510 C   0  0  0  0  0  3  0  0  0  0  0  0
  187.3460  174.4210  134.8530 C   0  0  0  0  0  0  0  0  0  0  0  0
  187.9570  173.3150  135.1790 C   0  0  0  0  0  0  0  0  0  0  0  0
  188.9590  174.6610  137.5640 C   0  0  0  0  0  2  0  0  0  0  0  0
  189.7970  173.9840  136.7800 C   0  0  0  0  0  0  0  0  0  0  0  0
  191.7130  174.7840  137.9390 O   0  0  0  0  0  0  0  0  0  0  0  0
  189.3410  173.3390  135.5670 N   0  0  0  0  0  0  0  0  0  0  0  0
  190.3430  172.9370  134.5740 C   0  0  0  0  0  2  0  0  0  0  0  0
  191.5470  172.2980  135.2550 C   0  0  0  0  0  2  0  0  0  0  0  0
  192.1220  173.2050  136.2430 N   0  0  0  0  0  0  0  0  0  0  0  0
  191.2460  174.0090  137.0600 C   0  0  0  0  0  0  0  0  0  0  0  0
  193.5840  173.2530  136.3300 C   0  0  2  0  0  3  0  0  0  0  0  0
  194.2430  171.9810  135.7770 C   0  0  2  0  0  3  0  0  0  0  0  0
  194.7210  172.1600  134.3460 C   0  0  0  0  0  1  0  0  0  0  0  0
  193.7250  169.7700  135.0080 O   0  0  0  0  0  1  0  0  0  0  0  0
  193.2840  170.8030  135.8350 C   0  0  0  0  0  2  0  0  0  0  0  0
  194.0200  173.5540  137.6290 O   0  0  0  0  0  0  0  0  0  0  0  0
  195.3340  174.0200  137.4880 C   0  0  0  0  0  2  0  0  0  0  0  0
  195.9910  174.2050  138.8490 C   0  0  0  0  0  2  0  0  0  0  0  0
  196.9460  175.2150  138.7850 O   0  0  0  0  0  1  0  0  0  0  0  0
  186.7100  177.7890  137.6780 C   0  0  0  0  0  2  0  0  0  0  0  0
  188.8100  178.7380  136.7570 C   0  0  0  0  0  1  0  0  0  0  0  0
  187.7010  178.9370  137.7600 C   0  0  0  0  0  2  0  0  0  0  0  0
  1 10  1  0  0  0  0
  1  2  2  0  0  0  0
  2 18  1  0  0  0  0
  3  2  1  1  0  0  0
  3  6  1  0  0  0  0
  4  8  1  0  0  0  0
  6  5  1  6  0  0  0
  7  4  1  0  0  0  0
  7  3  1  0  0  0  0
  8  9  1  0  0  0  0
  9  6  1  0  0  0  0
 10 11  1  1  0  0  0
 12 15  1  0  0  0  0
 13 10  1  6  0  0  0
 13 15  1  0  0  0  0
 14 17  1  0  0  0  0
 14 16  1  0  0  0  0
 16 13  1  0  0  0  0
 17 12  1  0  0  0  0
 18 19  1  0  0  0  0
 19 20  1  0  0  0  0
 20 21  1  0  0  0  0
 21 22  1  0  0  0  0
 22 24  1  0  0  0  0
 22 23  1  1  0  0  0
 24 25  2  0  0  0  0
 25 26  1  0  0  0  0
 27 34  1  6  0  0  0
 27 29  1  0  0  0  0
 28 27  1  0  0  0  0
 28 30  1  0  0  0  0
 29 32  1  0  0  0  0
 30 26  1  6  0  0  0
 30 31  1  0  0  0  0
 31 32  1  0  0  0  0
 32 38  1  1  0  0  0
 34 33  1  0  0  0  0
 36 35  1  1  0  0  0
 36 34  1  0  0  0  0
 37 36  1  0  0  0  0
 38 39  1  0  0  0  0
 39 40  1  0  0  0  0
 41 40  1  0  0  0  0
 42 44  1  0  0  0  0
 42  1  1  0  0  0  0
 43 66  1  0  0  0  0
 44 43  2  0  0  0  0
 46 47  2  0  0  0  0
 46 44  1  0  0  0  0
 47 48  2  0  0  0  0
 48 45  1  0  0  0  0
 48 52  1  0  0  0  0
 50 56  1  0  0  0  0
 50 49  2  0  0  0  0
 52 50  1  0  0  0  0
 53 54  1  0  0  0  0
 53 52  1  0  0  0  0
 54 55  1  0  0  0  0
 55 57  1  0  0  0  0
 55 56  1  0  0  0  0
 56 51  2  0  0  0  0
 57 62  1  1  0  0  0
 58 59  1  6  0  0  0
 58 61  1  0  0  0  0
 58 57  1  0  0  0  0
 60 61  1  0  0  0  0
 63 62  1  0  0  0  0
 63 64  1  0  0  0  0
 65 64  1  0  0  0  0
 66 68  1  0  0  0  0
 67 68  1  0  0  0  0
M  END
>  <MODEL>
4

>  <REMARK>
 VINA RESULT:      -3.8      1.436      2.140
  Name = 
  28 active torsions:
  status: ('A' for Active; 'I' for Inactive)
    1  A    between atoms: C_1  and  N_53
    2  A    between atoms: C_3  and  C_26
    3  A    between atoms: C_5  and  C_15
    4  A    between atoms: C_5  and  C_18
    5  A    between atoms: O_9  and  C_13
    6  A    between atoms: O_9  and  C_16
    7  A    between atoms: C_11  and  C_66
    8  A    between atoms: C_13  and  C_64
    9  A    between atoms: O_14  and  C_65
   10  A    between atoms: O_14  and  C_66
   11  A    between atoms: C_15  and  C_17
   12  A    between atoms: C_16  and  C_41
   13  A    between atoms: C_17  and  C_33
   14  A    between atoms: C_22  and  C_38
   15  A    between atoms: C_23  and  C_28
   16  A    between atoms: C_23  and  N_39
   17  A    between atoms: C_24  and  C_38
   18  A    between atoms: C_26  and  N_43
   19  A    between atoms: C_29  and  N_53
   20  A    between atoms: C_32  and  C_36
   21  A    between atoms: C_33  and  C_45
   22  A    between atoms: C_34  and  N_42
   23  A    between atoms: C_34  and  C_61
   24  A    between atoms: C_36  and  C_65
   25  A    between atoms: N_37  and  C_59
   26  A    between atoms: N_39  and  C_67
   27  A    between atoms: N_43  and  C_64
   28  A    between atoms: N_58  and  C_65
                            x       y       z     vdW  Elec       q    Type
                         _______ _______ _______ _____ _____    ______ ____

>  <TORSDO>
F 28

$$$$
=
 OpenBabel10232410233D

 68 71  0  0  1  0  0  0  0  0999 V2000
  184.7230  177.7460  138.2890 C   0  0  1  0  0  3  0  0  0  0  0  0
  185.4470  177.3290  137.2220 C   0  0  0  0  0  0  0  0  0  0  0  0
  186.5990  178.1040  136.6170 C   0  0  2  0  0  3  0  0  0  0  0  0
  188.8730  177.1530  136.6710 N   0  0  0  0  0  2  0  0  0  0  0  0
  185.7080  178.5130  134.3830 N   0  0  0  0  0  1  0  0  0  0  0  0
  186.7730  177.8380  135.1160 C   0  0  1  0  0  3  0  0  0  0  0  0
  187.9420  178.0580  137.3660 C   0  0  0  0  0  2  0  0  0  0  0  0
  189.1650  177.6210  135.3010 C   0  0  0  0  0  2  0  0  0  0  0  0
  188.0590  178.3740  134.6820 N   0  0  0  0  0  2  0  0  0  0  0  0
  183.7460  176.8040  138.9350 C   0  0  1  0  0  3  0  0  0  0  0  0
  184.2070  176.3830  140.1850 O   0  0  0  0  0  1  0  0  0  0  0  0
  181.0890  175.3290  138.8920 C   0  0  0  0  0  2  0  0  0  0  0  0
  182.2950  177.3160  138.9770 C   0  0  2  0  0  3  0  0  0  0  0  0
  181.3270  176.5830  136.7740 C   0  0  0  0  0  2  0  0  0  0  0  0
  181.3790  176.4750  139.6630 O   0  0  0  0  0  0  0  0  0  0  0  0
  181.7720  177.7770  137.6120 C   0  0  0  0  0  2  0  0  0  0  0  0
  180.3950  175.7000  137.5870 C   0  0  0  0  0  2  0  0  0  0  0  0
  185.2330  176.0190  136.6930 N   0  0  0  0  0  0  0  0  0  0  0  0
  186.1080  175.4910  135.6600 C   0  0  0  0  0  2  0  0  0  0  0  0
  187.3590  174.9020  136.2730 C   0  0  0  0  0  2  0  0  0  0  0  0
  187.8300  173.8530  135.4860 O   0  0  0  0  0  0  0  0  0  0  0  0
  188.1750  172.8530  136.3960 C   0  0  1  0  0  3  0  0  0  0  0  0
  188.3130  171.5280  135.6660 C   0  0  0  0  0  1  0  0  0  0  0  0
  189.4730  173.2060  137.0440 C   0  0  0  0  0  3  0  0  0  0  0  0
  190.1420  174.2220  136.6510 N   0  0  0  0  0  0  0  0  0  0  0  0
  191.3910  174.5440  137.2850 C   0  0  0  0  0  2  0  0  0  0  0  0
  194.2760  172.2160  136.3270 C   0  0  2  0  0  3  0  0  0  0  0  0
  192.9700  172.6500  137.0030 C   0  0  0  0  0  2  0  0  0  0  0  0
  194.7550  173.1830  135.4150 O   0  0  0  0  0  0  0  0  0  0  0  0
  192.5470  174.0160  136.4580 C   0  0  2  0  0  3  0  0  0  0  0  0
  193.5990  174.9740  136.4400 O   0  0  0  0  0  0  0  0  0  0  0  0
  194.8620  174.3820  136.1490 C   0  0  2  0  0  3  0  0  0  0  0  0
  193.5960  171.0570  134.3460 C   0  0  0  0  0  1  0  0  0  0  0  0
  194.1270  170.8920  135.7020 N   0  0  0  0  0  0  0  0  0  0  0  0
  196.3770  170.7780  136.6860 C   0  0  0  0  0  1  0  0  0  0  0  0
  195.4420  170.2370  135.6170 C   0  0  2  0  0  3  0  0  0  0  0  0
  196.0300  170.4650  134.3700 O   0  0  0  0  0  1  0  0  0  0  0  0
  195.7370  175.3340  135.4690 N   0  0  0  0  0  2  0  0  0  0  0  0
  196.8010  174.6170  134.7800 C   0  0  0  0  0  2  0  0  0  0  0  0
  198.0840  174.7570  135.5670 C   0  0  0  0  0  2  0  0  0  0  0  0
  197.8140  174.5040  137.0390 C   0  0  0  0  0  1  0  0  0  0  0  0
  184.8840  179.1180  138.8880 C   0  0  0  0  0  2  0  0  0  0  0  0
  185.2350  179.0490  141.3380 C   0  0  0  0  0  3  0  0  0  0  0  0
  185.7740  179.1510  140.1170 C   0  0  0  0  0  0  0  0  0  0  0  0
  189.2900  176.1990  140.1140 C   0  0  0  0  0  1  0  0  0  0  0  0
  187.2440  179.1550  139.9660 C   0  0  0  0  0  3  0  0  0  0  0  0
  188.0210  178.2250  140.4610 C   0  0  0  0  0  0  0  0  0  0  0  0
  188.7770  177.3000  140.9880 C   0  0  0  0  0  0  0  0  0  0  0  0
  191.3550  178.0890  142.0990 C   0  0  0  0  0  2  0  0  0  0  0  0
  190.3530  177.7590  142.9130 C   0  0  0  0  0  0  0  0  0  0  0  0
  191.7500  177.7860  144.8370 O   0  0  0  0  0  0  0  0  0  0  0  0
  189.0740  177.3220  142.3950 N   0  0  0  0  0  0  0  0  0  0  0  0
  188.1530  176.6300  143.3040 C   0  0  0  0  0  2  0  0  0  0  0  0
  188.1210  177.3210  144.6620 C   0  0  0  0  0  2  0  0  0  0  0  0
  189.4620  177.4010  145.2320 N   0  0  0  0  0  0  0  0  0  0  0  0
  190.5820  177.6860  144.3690 C   0  0  0  0  0  0  0  0  0  0  0  0
  189.5870  177.1660  146.6730 C   0  0  2  0  0  3  0  0  0  0  0  0
  188.7500  178.1530  147.5000 C   0  0  2  0  0  3  0  0  0  0  0  0
  189.5540  178.7790  148.6270 C   0  0  0  0  0  1  0  0  0  0  0  0
  186.4140  177.6690  147.2640 O   0  0  0  0  0  1  0  0  0  0  0  0
  187.5250  177.4700  148.0840 C   0  0  0  0  0  2  0  0  0  0  0  0
  190.9280  177.1350  147.0830 O   0  0  0  0  0  0  0  0  0  0  0  0
  191.2920  175.7820  147.0820 C   0  0  0  0  0  2  0  0  0  0  0  0
  192.4240  175.5250  148.0680 C   0  0  0  0  0  2  0  0  0  0  0  0
  192.7450  176.7000  148.7410 O   0  0  0  0  0  1  0  0  0  0  0  0
  183.7640  178.9860  141.5950 C   0  0  0  0  0  2  0  0  0  0  0  0
  183.9120  179.1160  144.0690 C   0  0  0  0  0  1  0  0  0  0  0  0
  183.4970  178.2570  142.9010 C   0  0  0  0  0  2  0  0  0  0  0  0
  1 42  1  1  0  0  0
  1 10  1  0  0  0  0
  2  1  1  0  0  0  0
  3  2  1  1  0  0  0
  3  7  1  0  0  0  0
  4  7  1  0  0  0  0
  6  5  1  6  0  0  0
  6  3  1  0  0  0  0
  8  4  1  0  0  0  0
  9  6  1  0  0  0  0
  9  8  1  0  0  0  0
 10 11  1  1  0  0  0
 12 15  1  0  0  0  0
 13 10  1  6  0  0  0
 13 15  1  0  0  0  0
 14 17  1  0  0  0  0
 14 16  1  0  0  0  0
 16 13  1  0  0  0  0
 17 12  1  0  0  0  0
 18  2  2  0  0  0  0
 19 20  1  0  0  0  0
 19 18  1  0  0  0  0
 21 20  1  0  0  0  0
 21 22  1  0  0  0  0
 22 23  1  6  0  0  0
 22 24  1  0  0  0  0
 25 24  2  0  0  0  0
 25 26  1  0  0  0  0
 27 34  1  6  0  0  0
 27 28  1  0  0  0  0
 29 32  1  0  0  0  0
 29 27  1  0  0  0  0
 30 28  1  0  0  0  0
 30 26  1  1  0  0  0
 31 30  1  0  0  0  0
 32 38  1  6  0  0  0
 32 31  1  0  0  0  0
 33 34  1  0  0  0  0
 36 34  1  0  0  0  0
 36 35  1  1  0  0  0
 37 36  1  0  0  0  0
 39 38  1  0  0  0  0
 39 40  1  0  0  0  0
 40 41  1  0  0  0  0
 42 44  1  0  0  0  0
 43 66  1  0  0  0  0
 44 43  2  0  0  0  0
 45 48  1  0  0  0  0
 46 44  1  0  0  0  0
 46 47  2  0  0  0  0
 47 48  2  0  0  0  0
 48 52  1  0  0  0  0
 49 50  2  0  0  0  0
 50 56  1  0  0  0  0
 52 50  1  0  0  0  0
 52 53  1  0  0  0  0
 53 54  1  0  0  0  0
 54 55  1  0  0  0  0
 55 57  1  0  0  0  0
 56 51  2  0  0  0  0
 56 55  1  0  0  0  0
 57 62  1  1  0  0  0
 57 58  1  0  0  0  0
 58 61  1  0  0  0  0
 58 59  1  1  0  0  0
 60 61  1  0  0  0  0
 63 62  1  0  0  0  0
 63 64  1  0  0  0  0
 64 65  1  0  0  0  0
 66 68  1  0  0  0  0
 68 67  1  0  0  0  0
M  END
>  <MODEL>
5

>  <REMARK>
 VINA RESULT:      -3.4      2.362      9.247
  Name = 
  28 active torsions:
  status: ('A' for Active; 'I' for Inactive)
    1  A    between atoms: C_1  and  N_53
    2  A    between atoms: C_3  and  C_26
    3  A    between atoms: C_5  and  C_15
    4  A    between atoms: C_5  and  C_18
    5  A    between atoms: O_9  and  C_13
    6  A    between atoms: O_9  and  C_16
    7  A    between atoms: C_11  and  C_66
    8  A    between atoms: C_13  and  C_64
    9  A    between atoms: O_14  and  C_65
   10  A    between atoms: O_14  and  C_66
   11  A    between atoms: C_15  and  C_17
   12  A    between atoms: C_16  and  C_41
   13  A    between atoms: C_17  and  C_33
   14  A    between atoms: C_22  and  C_38
   15  A    between atoms: C_23  and  C_28
   16  A    between atoms: C_23  and  N_39
   17  A    between atoms: C_24  and  C_38
   18  A    between atoms: C_26  and  N_43
   19  A    between atoms: C_29  and  N_53
   20  A    between atoms: C_32  and  C_36
   21  A    between atoms: C_33  and  C_45
   22  A    between atoms: C_34  and  N_42
   23  A    between atoms: C_34  and  C_61
   24  A    between atoms: C_36  and  C_65
   25  A    between atoms: N_37  and  C_59
   26  A    between atoms: N_39  and  C_67
   27  A    between atoms: N_43  and  C_64
   28  A    between atoms: N_58  and  C_65
                            x       y       z     vdW  Elec       q    Type
                         _______ _______ _______ _____ _____    ______ ____

>  <TORSDO>
F 28

$$$$
=
 OpenBabel10232410233D

 68 71  0  0  1  0  0  0  0  0999 V2000
  189.0610  177.7140  142.7390 C   0  0  0  0  0  0  0  0  0  0  0  0
  188.2170  177.6460  141.6810 C   0  0  0  0  0  0  0  0  0  0  0  0
  188.6460  177.7860  140.2360 C   0  0  2  0  0  3  0  0  0  0  0  0
  187.1660  176.9760  138.4380 N   0  0  0  0  0  2  0  0  0  0  0  0
  189.1320  180.1760  140.1680 N   0  0  0  0  0  1  0  0  0  0  0  0
  188.2590  179.1400  139.6280 C   0  0  1  0  0  3  0  0  0  0  0  0
  188.3120  176.6180  139.2910 C   0  0  0  0  0  2  0  0  0  0  0  0
  187.4670  178.1420  137.5840 C   0  0  0  0  0  2  0  0  0  0  0  0
  188.4340  179.0830  138.1800 N   0  0  0  0  0  2  0  0  0  0  0  0
  188.5630  177.3490  144.1100 C   0  0  1  0  0  3  0  0  0  0  0  0
  188.7500  175.9890  144.3660 O   0  0  0  0  0  1  0  0  0  0  0  0
  189.9420  176.6790  146.7340 C   0  0  0  0  0  2  0  0  0  0  0  0
  189.0920  178.2480  145.2420 C   0  0  2  0  0  3  0  0  0  0  0  0
  187.7020  177.5990  147.2340 C   0  0  0  0  0  2  0  0  0  0  0  0
  190.2590  177.7690  145.8960 O   0  0  0  0  0  0  0  0  0  0  0  0
  188.0040  178.6980  146.2220 C   0  0  0  0  0  2  0  0  0  0  0  0
  188.9960  177.0970  147.8530 C   0  0  0  0  0  2  0  0  0  0  0  0
  186.8510  177.2810  141.8920 N   0  0  0  0  0  2  0  0  0  0  0  0
  185.8870  178.2690  142.3460 C   0  0  0  0  0  2  0  0  0  0  0  0
  185.0360  178.7500  141.1930 C   0  0  0  0  0  2  0  0  0  0  0  0
  183.7080  178.8760  141.5980 O   0  0  0  0  0  0  0  0  0  0  0  0
  182.9760  178.9150  140.4110 C   0  0  1  0  0  3  0  0  0  0  0  0
  183.8540  179.4410  139.2890 C   0  0  0  0  0  1  0  0  0  0  0  0
  182.5080  177.5370  140.0780 C   0  0  0  0  0  3  0  0  0  0  0  0
  182.5100  177.1230  138.8690 N   0  0  0  0  0  0  0  0  0  0  0  0
  182.0530  175.7930  138.5680 C   0  0  0  0  0  2  0  0  0  0  0  0
  183.3780  173.3880  135.8990 C   0  0  2  0  0  3  0  0  0  0  0  0
  182.6390  173.8290  137.1680 C   0  0  0  0  0  2  0  0  0  0  0  0
  183.8220  174.4860  135.1280 O   0  0  0  0  0  0  0  0  0  0  0  0
  182.5750  175.3570  137.2120 C   0  0  2  0  0  3  0  0  0  0  0  0
  183.8240  175.9890  136.9550 O   0  0  0  0  0  0  0  0  0  0  0  0
  184.6030  175.2730  135.9990 C   0  0  2  0  0  3  0  0  0  0  0  0
  183.1200  171.1090  135.2130 C   0  0  0  0  0  1  0  0  0  0  0  0
  182.5550  172.4570  135.1100 N   0  0  0  0  0  0  0  0  0  0  0  0
  180.7010  171.0070  135.8210 C   0  0  0  0  0  1  0  0  0  0  0  0
  181.1840  172.4370  135.6460 C   0  0  2  0  0  3  0  0  0  0  0  0
  180.3040  173.0900  134.7790 O   0  0  0  0  0  1  0  0  0  0  0  0
  185.4650  176.1840  135.2480 N   0  0  0  0  0  2  0  0  0  0  0  0
  186.3170  175.4200  134.3470 C   0  0  0  0  0  2  0  0  0  0  0  0
  187.7140  175.3570  134.9190 C   0  0  0  0  0  2  0  0  0  0  0  0
  187.7860  174.2790  135.9850 C   0  0  0  0  0  1  0  0  0  0  0  0
  190.5080  178.1060  142.5930 C   0  0  0  0  0  2  0  0  0  0  0  0
  191.4350  175.9220  141.8850 C   0  0  0  0  0  3  0  0  0  0  0  0
  191.2890  177.2290  141.6330 C   0  0  0  0  0  0  0  0  0  0  0  0
  190.6280  176.6710  137.1240 C   0  0  0  0  0  1  0  0  0  0  0  0
  191.7700  177.7820  140.3500 C   0  0  0  0  0  3  0  0  0  0  0  0
  191.7380  177.1180  139.2220 C   0  0  0  0  0  0  0  0  0  0  0  0
  191.7220  176.4250  138.1160 C   0  0  0  0  0  0  0  0  0  0  0  0
  191.2190  173.9460  136.6640 C   0  0  0  0  0  2  0  0  0  0  0  0
  192.4420  174.2150  137.1180 C   0  0  0  0  0  0  0  0  0  0  0  0
  193.2470  172.0430  136.5790 O   0  0  0  0  0  0  0  0  0  0  0  0
  192.7180  175.4150  137.8790 N   0  0  0  0  0  0  0  0  0  0  0  0
  193.9610  175.4770  138.6550 C   0  0  0  0  0  2  0  0  0  0  0  0
  195.1260  174.9190  137.8480 C   0  0  0  0  0  2  0  0  0  0  0  0
  194.8460  173.5540  137.4140 N   0  0  0  0  0  0  0  0  0  0  0  0
  193.5130  173.2080  136.9830 C   0  0  0  0  0  0  0  0  0  0  0  0
  195.9570  172.6000  137.4610 C   0  0  2  0  0  3  0  0  0  0  0  0
  197.1890  173.1010  136.6930 C   0  0  2  0  0  3  0  0  0  0  0  0
  197.8380  172.0000  135.8730 C   0  0  0  0  0  1  0  0  0  0  0  0
  198.6900  174.9090  137.1660 O   0  0  0  0  0  1  0  0  0  0  0  0
  198.2210  173.6850  137.6430 C   0  0  0  0  0  2  0  0  0  0  0  0
  195.5620  171.3180  137.0510 O   0  0  0  0  0  0  0  0  0  0  0  0
  195.6400  170.5140  138.1970 C   0  0  0  0  0  2  0  0  0  0  0  0
  195.2330  169.0810  137.8810 C   0  0  0  0  0  2  0  0  0  0  0  0
  194.1610  168.7030  138.6830 O   0  0  0  0  0  1  0  0  0  0  0  0
  190.9390  175.2550  143.1280 C   0  0  0  0  0  2  0  0  0  0  0  0
  192.2490  173.9840  144.8090 C   0  0  0  0  0  1  0  0  0  0  0  0
  191.9900  175.3490  144.2200 C   0  0  0  0  0  2  0  0  0  0  0  0
  1 10  1  0  0  0  0
  2 18  1  0  0  0  0
  2  1  2  0  0  0  0
  3  2  1  1  0  0  0
  4  7  1  0  0  0  0
  6  5  1  1  0  0  0
  6  3  1  0  0  0  0
  7  3  1  0  0  0  0
  8  9  1  0  0  0  0
  8  4  1  0  0  0  0
  9  6  1  0  0  0  0
 10 11  1  1  0  0  0
 12 17  1  0  0  0  0
 13 10  1  1  0  0  0
 13 15  1  0  0  0  0
 13 16  1  0  0  0  0
 14 17  1  0  0  0  0
 15 12  1  0  0  0  0
 16 14  1  0  0  0  0
 18 19  1  0  0  0  0
 20 21  1  0  0  0  0
 20 19  1  0  0  0  0
 22 23  1  6  0  0  0
 22 21  1  0  0  0  0
 24 22  1  0  0  0  0
 25 24  2  0  0  0  0
 26 25  1  0  0  0  0
 27 34  1  6  0  0  0
 27 28  1  0  0  0  0
 28 30  1  0  0  0  0
 29 27  1  0  0  0  0
 29 32  1  0  0  0  0
 30 26  1  1  0  0  0
 31 30  1  0  0  0  0
 32 38  1  6  0  0  0
 32 31  1  0  0  0  0
 34 33  1  0  0  0  0
 34 36  1  0  0  0  0
 36 35  1  6  0  0  0
 37 36  1  0  0  0  0
 39 40  1  0  0  0  0
 39 38  1  0  0  0  0
 40 41  1  0  0  0  0
 42  1  1  0  0  0  0
 43 66  1  0  0  0  0
 44 43  2  0  0  0  0
 44 42  1  0  0  0  0
 45 48  1  0  0  0  0
 46 44  1  0  0  0  0
 47 46  2  0  0  0  0
 48 47  2  0  0  0  0
 49 50  2  0  0  0  0
 50 52  1  0  0  0  0
 51 56  2  0  0  0  0
 52 48  1  0  0  0  0
 52 53  1  0  0  0  0
 54 53  1  0  0  0  0
 55 57  1  0  0  0  0
 55 54  1  0  0  0  0
 56 50  1  0  0  0  0
 56 55  1  0  0  0  0
 57 62  1  6  0  0  0
 58 59  1  1  0  0  0
 58 57  1  0  0  0  0
 58 61  1  0  0  0  0
 60 61  1  0  0  0  0
 62 63  1  0  0  0  0
 64 63  1  0  0  0  0
 64 65  1  0  0  0  0
 66 68  1  0  0  0  0
 68 67  1  0  0  0  0
M  END
>  <MODEL>
6

>  <REMARK>
 VINA RESULT:      -3.2      2.326      8.430
  Name = 
  28 active torsions:
  status: ('A' for Active; 'I' for Inactive)
    1  A    between atoms: C_1  and  N_53
    2  A    between atoms: C_3  and  C_26
    3  A    between atoms: C_5  and  C_15
    4  A    between atoms: C_5  and  C_18
    5  A    between atoms: O_9  and  C_13
    6  A    between atoms: O_9  and  C_16
    7  A    between atoms: C_11  and  C_66
    8  A    between atoms: C_13  and  C_64
    9  A    between atoms: O_14  and  C_65
   10  A    between atoms: O_14  and  C_66
   11  A    between atoms: C_15  and  C_17
   12  A    between atoms: C_16  and  C_41
   13  A    between atoms: C_17  and  C_33
   14  A    between atoms: C_22  and  C_38
   15  A    between atoms: C_23  and  C_28
   16  A    between atoms: C_23  and  N_39
   17  A    between atoms: C_24  and  C_38
   18  A    between atoms: C_26  and  N_43
   19  A    between atoms: C_29  and  N_53
   20  A    between atoms: C_32  and  C_36
   21  A    between atoms: C_33  and  C_45
   22  A    between atoms: C_34  and  N_42
   23  A    between atoms: C_34  and  C_61
   24  A    between atoms: C_36  and  C_65
   25  A    between atoms: N_37  and  C_59
   26  A    between atoms: N_39  and  C_67
   27  A    between atoms: N_43  and  C_64
   28  A    between atoms: N_58  and  C_65
                            x       y       z     vdW  Elec       q    Type
                         _______ _______ _______ _____ _____    ______ ____

>  <TORSDO>
F 28

$$$$
=
 OpenBabel10232410233D

 68 71  0  0  1  0  0  0  0  0999 V2000
  189.6800  177.1040  141.4050 C   0  0  0  0  0  0  0  0  0  0  0  0
  190.8800  177.5330  141.8650 C   0  0  0  0  0  0  0  0  0  0  0  0
  191.3280  177.4280  143.3080 C   0  0  2  0  0  3  0  0  0  0  0  0
  190.2870  178.8650  145.0190 N   0  0  0  0  0  2  0  0  0  0  0  0
  191.0420  175.0310  143.6660 N   0  0  0  0  0  1  0  0  0  0  0  0
  190.5720  176.3450  144.0880 C   0  0  1  0  0  3  0  0  0  0  0  0
  191.4340  178.7400  144.1050 C   0  0  0  0  0  2  0  0  0  0  0  0
  190.2560  177.7680  146.0060 C   0  0  0  0  0  2  0  0  0  0  0  0
  190.8410  176.5070  145.5140 N   0  0  0  0  0  2  0  0  0  0  0  0
  189.4260  177.0630  139.9240 C   0  0  1  0  0  3  0  0  0  0  0  0
  189.2390  175.7510  139.4830 O   0  0  0  0  0  1  0  0  0  0  0  0
  187.5680  176.9360  137.5220 C   0  0  0  0  0  2  0  0  0  0  0  0
  188.3210  178.0180  139.4380 C   0  0  2  0  0  3  0  0  0  0  0  0
  189.1450  178.8130  137.1980 C   0  0  0  0  0  2  0  0  0  0  0  0
  187.2130  177.3890  138.8110 O   0  0  0  0  0  0  0  0  0  0  0  0
  188.8560  179.2130  138.6410 C   0  0  0  0  0  2  0  0  0  0  0  0
  187.9400  178.0980  136.6090 C   0  0  0  0  0  2  0  0  0  0  0  0
  191.8670  177.9930  140.9400 N   0  0  0  0  0  2  0  0  0  0  0  0
  192.9140  177.0980  140.4760 C   0  0  0  0  0  2  0  0  0  0  0  0
  192.4310  176.2800  139.3000 C   0  0  0  0  0  2  0  0  0  0  0  0
  193.1390  176.6280  138.1500 O   0  0  0  0  0  0  0  0  0  0  0  0
  193.0880  175.4920  137.3420 C   0  0  1  0  0  3  0  0  0  0  0  0
  193.4530  175.8660  135.9160 C   0  0  0  0  0  1  0  0  0  0  0  0
  194.0550  174.4790  137.8590 C   0  0  0  0  0  3  0  0  0  0  0  0
  194.1430  173.3260  137.3150 N   0  0  0  0  0  0  0  0  0  0  0  0
  195.0780  172.3620  137.8280 C   0  0  0  0  0  2  0  0  0  0  0  0
  198.6220  171.4630  136.6910 C   0  0  2  0  0  3  0  0  0  0  0  0
  197.3630  171.4280  137.5640 C   0  0  0  0  0  2  0  0  0  0  0  0
  198.4320  172.2080  135.5060 O   0  0  0  0  0  0  0  0  0  0  0  0
  196.2410  172.2020  136.8690 C   0  0  2  0  0  3  0  0  0  0  0  0
  196.6430  173.4790  136.3870 O   0  0  0  0  0  0  0  0  0  0  0  0
  197.9900  173.4810  135.9210 C   0  0  2  0  0  3  0  0  0  0  0  0
  199.4570  169.4480  137.6790 C   0  0  0  0  0  1  0  0  0  0  0  0
  199.1060  170.1000  136.4150 N   0  0  0  0  0  0  0  0  0  0  0  0
  197.4550  168.3050  136.7270 C   0  0  0  0  0  1  0  0  0  0  0  0
  198.0400  169.3230  135.7620 C   0  0  2  0  0  3  0  0  0  0  0  0
  198.5380  168.6330  134.6530 O   0  0  0  0  0  1  0  0  0  0  0  0
  198.1700  174.4680  134.8590 N   0  0  0  0  0  2  0  0  0  0  0  0
  196.9520  175.2500  134.7050 C   0  0  0  0  0  2  0  0  0  0  0  0
  197.3140  176.7100  134.5550 C   0  0  0  0  0  2  0  0  0  0  0  0
  196.1410  177.5770  134.9740 C   0  0  0  0  0  1  0  0  0  0  0  0
  188.5880  176.6210  142.3230 C   0  0  0  0  0  2  0  0  0  0  0  0
  187.2390  177.7590  144.0590 C   0  0  0  0  0  3  0  0  0  0  0  0
  187.6450  177.7160  142.7850 C   0  0  0  0  0  0  0  0  0  0  0  0
  183.9570  180.1450  141.5280 C   0  0  0  0  0  1  0  0  0  0  0  0
  187.2840  178.8170  141.8670 C   0  0  0  0  0  3  0  0  0  0  0  0
  186.0760  178.9930  141.3940 C   0  0  0  0  0  0  0  0  0  0  0  0
  184.8700  179.1300  140.9140 C   0  0  0  0  0  0  0  0  0  0  0  0
  185.3070  179.7150  138.0900 C   0  0  0  0  0  2  0  0  0  0  0  0
  184.6890  178.5900  138.4490 C   0  0  0  0  0  0  0  0  0  0  0  0
  184.0970  178.0610  136.2080 O   0  0  0  0  0  0  0  0  0  0  0  0
  184.4180  178.2890  139.8380 N   0  0  0  0  0  0  0  0  0  0  0  0
  183.4300  177.2490  140.1460 C   0  0  0  0  0  2  0  0  0  0  0  0
  183.6130  176.0470  139.2280 C   0  0  0  0  0  2  0  0  0  0  0  0
  183.5330  176.4510  137.8280 N   0  0  0  0  0  0  0  0  0  0  0  0
  184.1290  177.6980  137.4150 C   0  0  0  0  0  0  0  0  0  0  0  0
  182.8220  175.5500  136.9160 C   0  0  2  0  0  3  0  0  0  0  0  0
  183.6360  174.2900  136.5900 C   0  0  2  0  0  3  0  0  0  0  0  0
  182.9760  173.0290  137.1240 C   0  0  0  0  0  1  0  0  0  0  0  0
  185.4010  173.2020  137.7930 O   0  0  0  0  0  1  0  0  0  0  0  0
  185.0420  174.3900  137.1550 C   0  0  0  0  0  2  0  0  0  0  0  0
  182.3870  176.2150  135.7590 O   0  0  0  0  0  0  0  0  0  0  0  0
  181.0010  176.0170  135.7090 C   0  0  0  0  0  2  0  0  0  0  0  0
  180.4200  175.8970  137.1110 C   0  0  0  0  0  2  0  0  0  0  0  0
  180.0820  174.5740  137.3760 O   0  0  0  0  0  1  0  0  0  0  0  0
  187.5910  176.7230  145.0790 C   0  0  0  0  0  2  0  0  0  0  0  0
  186.3160  178.3680  146.4310 C   0  0  0  0  0  1  0  0  0  0  0  0
  187.3480  177.2680  146.4760 C   0  0  0  0  0  2  0  0  0  0  0  0
  1  2  2  0  0  0  0
  1 42  1  0  0  0  0
  3  2  1  6  0  0  0
  3  6  1  0  0  0  0
  3  7  1  0  0  0  0
  4  8  1  0  0  0  0
  6  5  1  6  0  0  0
  6  9  1  0  0  0  0
  7  4  1  0  0  0  0
  9  8  1  0  0  0  0
 10 11  1  1  0  0  0
 10  1  1  0  0  0  0
 12 15  1  0  0  0  0
 13 10  1  6  0  0  0
 14 16  1  0  0  0  0
 15 13  1  0  0  0  0
 16 13  1  0  0  0  0
 17 14  1  0  0  0  0
 17 12  1  0  0  0  0
 18  2  1  0  0  0  0
 19 18  1  0  0  0  0
 20 19  1  0  0  0  0
 21 20  1  0  0  0  0
 22 23  1  6  0  0  0
 22 24  1  0  0  0  0
 22 21  1  0  0  0  0
 25 26  1  0  0  0  0
 25 24  2  0  0  0  0
 27 34  1  6  0  0  0
 27 28  1  0  0  0  0
 29 32  1  0  0  0  0
 29 27  1  0  0  0  0
 30 28  1  0  0  0  0
 30 26  1  1  0  0  0
 31 30  1  0  0  0  0
 32 38  1  6  0  0  0
 32 31  1  0  0  0  0
 34 33  1  0  0  0  0
 36 34  1  0  0  0  0
 36 35  1  1  0  0  0
 37 36  1  0  0  0  0
 39 38  1  0  0  0  0
 40 39  1  0  0  0  0
 40 41  1  0  0  0  0
 42 44  1  0  0  0  0
 43 66  1  0  0  0  0
 44 43  2  0  0  0  0
 46 44  1  0  0  0  0
 47 46  2  0  0  0  0
 48 47  2  0  0  0  0
 48 45  1  0  0  0  0
 49 50  2  0  0  0  0
 50 52  1  0  0  0  0
 51 56  2  0  0  0  0
 52 53  1  0  0  0  0
 52 48  1  0  0  0  0
 54 53  1  0  0  0  0
 55 54  1  0  0  0  0
 56 55  1  0  0  0  0
 56 50  1  0  0  0  0
 57 62  1  6  0  0  0
 57 55  1  0  0  0  0
 58 57  1  0  0  0  0
 58 59  1  1  0  0  0
 58 61  1  0  0  0  0
 61 60  1  0  0  0  0
 63 62  1  0  0  0  0
 63 64  1  0  0  0  0
 64 65  1  0  0  0  0
 66 68  1  0  0  0  0
 67 68  1  0  0  0  0
M  END
>  <MODEL>
7

>  <REMARK>
 VINA RESULT:      -2.5      2.883     10.879
  Name = 
  28 active torsions:
  status: ('A' for Active; 'I' for Inactive)
    1  A    between atoms: C_1  and  N_53
    2  A    between atoms: C_3  and  C_26
    3  A    between atoms: C_5  and  C_15
    4  A    between atoms: C_5  and  C_18
    5  A    between atoms: O_9  and  C_13
    6  A    between atoms: O_9  and  C_16
    7  A    between atoms: C_11  and  C_66
    8  A    between atoms: C_13  and  C_64
    9  A    between atoms: O_14  and  C_65
   10  A    between atoms: O_14  and  C_66
   11  A    between atoms: C_15  and  C_17
   12  A    between atoms: C_16  and  C_41
   13  A    between atoms: C_17  and  C_33
   14  A    between atoms: C_22  and  C_38
   15  A    between atoms: C_23  and  C_28
   16  A    between atoms: C_23  and  N_39
   17  A    between atoms: C_24  and  C_38
   18  A    between atoms: C_26  and  N_43
   19  A    between atoms: C_29  and  N_53
   20  A    between atoms: C_32  and  C_36
   21  A    between atoms: C_33  and  C_45
   22  A    between atoms: C_34  and  N_42
   23  A    between atoms: C_34  and  C_61
   24  A    between atoms: C_36  and  C_65
   25  A    between atoms: N_37  and  C_59
   26  A    between atoms: N_39  and  C_67
   27  A    between atoms: N_43  and  C_64
   28  A    between atoms: N_58  and  C_65
                            x       y       z     vdW  Elec       q    Type
                         _______ _______ _______ _____ _____    ______ ____

>  <TORSDO>
F 28

$$$$
=
 OpenBabel10232410233D

 68 71  0  0  1  0  0  0  0  0999 V2000
  189.6810  177.0990  141.4110 C   0  0  0  0  0  0  0  0  0  0  0  0
  190.8660  177.6130  141.8220 C   0  0  0  0  0  0  0  0  0  0  0  0
  191.3120  177.6790  143.2670 C   0  0  2  0  0  3  0  0  0  0  0  0
  189.7650  178.5360  144.9840 N   0  0  0  0  0  2  0  0  0  0  0  0
  192.0360  175.3720  143.5940 N   0  0  0  0  0  1  0  0  0  0  0  0
  191.0650  176.3700  144.0270 C   0  0  1  0  0  3  0  0  0  0  0  0
  190.8660  178.9070  144.0800 C   0  0  0  0  0  2  0  0  0  0  0  0
  190.1840  177.5090  145.9590 C   0  0  0  0  0  2  0  0  0  0  0  0
  191.2380  176.6080  145.4570 N   0  0  0  0  0  2  0  0  0  0  0  0
  189.4330  176.8880  139.9430 C   0  0  1  0  0  3  0  0  0  0  0  0
  188.4210  175.9480  139.7350 O   0  0  0  0  0  1  0  0  0  0  0  0
  187.3230  177.6600  137.8960 C   0  0  0  0  0  2  0  0  0  0  0  0
  189.2190  178.1830  139.1390 C   0  0  2  0  0  3  0  0  0  0  0  0
  189.5030  177.4660  136.7450 C   0  0  0  0  0  2  0  0  0  0  0  0
  187.8620  178.5140  138.8820 O   0  0  0  0  0  0  0  0  0  0  0  0
  190.1010  178.2770  137.8890 C   0  0  0  0  0  2  0  0  0  0  0  0
  188.0390  177.8320  136.5620 C   0  0  0  0  0  2  0  0  0  0  0  0
  191.8410  177.9980  140.8510 N   0  0  0  0  0  2  0  0  0  0  0  0
  192.9630  177.1250  140.5480 C   0  0  0  0  0  2  0  0  0  0  0  0
  192.7270  176.3860  139.2510 C   0  0  0  0  0  2  0  0  0  0  0  0
  193.6440  176.8030  138.2870 O   0  0  0  0  0  0  0  0  0  0  0  0
  193.4820  175.9070  137.2300 C   0  0  1  0  0  3  0  0  0  0  0  0
  194.3380  176.3480  136.0560 C   0  0  0  0  0  1  0  0  0  0  0  0
  193.9010  174.5450  137.6740 C   0  0  0  0  0  3  0  0  0  0  0  0
  193.6450  173.5180  136.9560 N   0  0  0  0  0  0  0  0  0  0  0  0
  194.0540  172.2140  137.4020 C   0  0  0  0  0  2  0  0  0  0  0  0
  197.6610  173.1350  136.5050 C   0  0  2  0  0  3  0  0  0  0  0  0
  196.2470  173.3280  137.0650 C   0  0  0  0  0  2  0  0  0  0  0  0
  197.9080  171.7980  136.1210 O   0  0  0  0  0  0  0  0  0  0  0  0
  195.5150  171.9840  137.0680 C   0  0  2  0  0  3  0  0  0  0  0  0
  195.6190  171.2740  135.8390 O   0  0  0  0  0  0  0  0  0  0  0  0
  196.8840  171.4660  135.2100 C   0  0  2  0  0  3  0  0  0  0  0  0
  199.8280  174.1330  136.7050 C   0  0  0  0  0  1  0  0  0  0  0  0
  198.6720  173.6330  137.4530 N   0  0  0  0  0  0  0  0  0  0  0  0
  198.1310  176.0310  137.4440 C   0  0  0  0  0  1  0  0  0  0  0  0
  198.1040  174.7380  138.2410 C   0  0  2  0  0  3  0  0  0  0  0  0
  198.8370  174.9360  139.4150 O   0  0  0  0  0  1  0  0  0  0  0  0
  197.2510  170.2960  134.4150 N   0  0  0  0  0  2  0  0  0  0  0  0
  196.5260  169.1290  134.8980 C   0  0  0  0  0  2  0  0  0  0  0  0
  197.4310  168.3190  135.7960 C   0  0  0  0  0  2  0  0  0  0  0  0
  196.8020  168.1810  137.1710 C   0  0  0  0  0  1  0  0  0  0  0  0
  188.6010  176.6860  142.3770 C   0  0  0  0  0  2  0  0  0  0  0  0
  186.6020  177.6750  143.4500 C   0  0  0  0  0  3  0  0  0  0  0  0
  187.3900  177.6000  142.3710 C   0  0  0  0  0  0  0  0  0  0  0  0
  184.2340  180.5800  140.8750 C   0  0  0  0  0  1  0  0  0  0  0  0
  187.1570  178.5120  141.2320 C   0  0  0  0  0  3  0  0  0  0  0  0
  185.9650  178.8960  140.8490 C   0  0  0  0  0  0  0  0  0  0  0  0
  184.7650  179.2410  140.4690 C   0  0  0  0  0  0  0  0  0  0  0  0
  182.7960  177.4360  141.6410 C   0  0  0  0  0  2  0  0  0  0  0  0
  182.9600  177.4750  140.3190 C   0  0  0  0  0  0  0  0  0  0  0  0
  181.5590  175.5850  139.9720 O   0  0  0  0  0  0  0  0  0  0  0  0
  183.9560  178.3280  139.7070 N   0  0  0  0  0  0  0  0  0  0  0  0
  184.3410  178.0620  138.3160 C   0  0  0  0  0  2  0  0  0  0  0  0
  183.1110  177.7610  137.4680 C   0  0  0  0  0  2  0  0  0  0  0  0
  182.3600  176.6430  138.0280 N   0  0  0  0  0  0  0  0  0  0  0  0
  182.2240  176.5270  139.4590 C   0  0  0  0  0  0  0  0  0  0  0  0
  181.7950  175.6800  137.0790 C   0  0  2  0  0  3  0  0  0  0  0  0
  182.7580  174.5220  136.7800 C   0  0  2  0  0  3  0  0  0  0  0  0
  182.0210  173.2530  136.3860 C   0  0  0  0  0  1  0  0  0  0  0  0
  184.4200  173.0920  137.7510 O   0  0  0  0  0  1  0  0  0  0  0  0
  183.6430  174.2280  137.9800 C   0  0  0  0  0  2  0  0  0  0  0  0
  181.3400  176.3060  135.9080 O   0  0  0  0  0  0  0  0  0  0  0  0
  180.2260  177.0640  136.2940 C   0  0  0  0  0  2  0  0  0  0  0  0
  180.3150  178.4780  135.7370 C   0  0  0  0  0  2  0  0  0  0  0  0
  180.2750  178.4460  134.3470 O   0  0  0  0  0  1  0  0  0  0  0  0
  186.7830  176.8340  144.6730 C   0  0  0  0  0  2  0  0  0  0  0  0
  185.4300  178.7680  145.4410 C   0  0  0  0  0  1  0  0  0  0  0  0
  186.1870  177.5390  145.8790 C   0  0  0  0  0  2  0  0  0  0  0  0
  1  2  2  0  0  0  0
  1 42  1  0  0  0  0
  3  2  1  6  0  0  0
  3  6  1  0  0  0  0
  3  7  1  0  0  0  0
  4  8  1  0  0  0  0
  6  5  1  6  0  0  0
  6  9  1  0  0  0  0
  7  4  1  0  0  0  0
  9  8  1  0  0  0  0
 10 11  1  1  0  0  0
 10  1  1  0  0  0  0
 12 15  1  0  0  0  0
 13 10  1  6  0  0  0
 14 16  1  0  0  0  0
 15 13  1  0  0  0  0
 16 13  1  0  0  0  0
 17 14  1  0  0  0  0
 17 12  1  0  0  0  0
 18  2  1  0  0  0  0
 19 18  1  0  0  0  0
 20 19  1  0  0  0  0
 21 20  1  0  0  0  0
 22 23  1  6  0  0  0
 22 24  1  0  0  0  0
 22 21  1  0  0  0  0
 25 26  1  0  0  0  0
 25 24  2  0  0  0  0
 27 28  1  0  0  0  0
 27 34  1  1  0  0  0
 28 30  1  0  0  0  0
 29 27  1  0  0  0  0
 30 26  1  6  0  0  0
 31 30  1  0  0  0  0
 32 38  1  1  0  0  0
 32 31  1  0  0  0  0
 32 29  1  0  0  0  0
 33 34  1  0  0  0  0
 34 36  1  0  0  0  0
 36 35  1  6  0  0  0
 36 37  1  0  0  0  0
 38 39  1  0  0  0  0
 39 40  1  0  0  0  0
 40 41  1  0  0  0  0
 43 66  1  0  0  0  0
 44 42  1  0  0  0  0
 44 43  2  0  0  0  0
 46 44  1  0  0  0  0
 47 46  2  0  0  0  0
 48 47  2  0  0  0  0
 48 45  1  0  0  0  0
 50 49  2  0  0  0  0
 52 50  1  0  0  0  0
 52 48  1  0  0  0  0
 53 52  1  0  0  0  0
 54 55  1  0  0  0  0
 54 53  1  0  0  0  0
 55 56  1  0  0  0  0
 56 51  2  0  0  0  0
 56 50  1  0  0  0  0
 57 62  1  6  0  0  0
 57 55  1  0  0  0  0
 58 59  1  1  0  0  0
 58 57  1  0  0  0  0
 58 61  1  0  0  0  0
 60 61  1  0  0  0  0
 62 63  1  0  0  0  0
 64 63  1  0  0  0  0
 65 64  1  0  0  0  0
 66 68  1  0  0  0  0
 67 68  1  0  0  0  0
M  END
>  <MODEL>
8

>  <REMARK>
 VINA RESULT:      -2.4      2.781     10.921
  Name = 
  28 active torsions:
  status: ('A' for Active; 'I' for Inactive)
    1  A    between atoms: C_1  and  N_53
    2  A    between atoms: C_3  and  C_26
    3  A    between atoms: C_5  and  C_15
    4  A    between atoms: C_5  and  C_18
    5  A    between atoms: O_9  and  C_13
    6  A    between atoms: O_9  and  C_16
    7  A    between atoms: C_11  and  C_66
    8  A    between atoms: C_13  and  C_64
    9  A    between atoms: O_14  and  C_65
   10  A    between atoms: O_14  and  C_66
   11  A    between atoms: C_15  and  C_17
   12  A    between atoms: C_16  and  C_41
   13  A    between atoms: C_17  and  C_33
   14  A    between atoms: C_22  and  C_38
   15  A    between atoms: C_23  and  C_28
   16  A    between atoms: C_23  and  N_39
   17  A    between atoms: C_24  and  C_38
   18  A    between atoms: C_26  and  N_43
   19  A    between atoms: C_29  and  N_53
   20  A    between atoms: C_32  and  C_36
   21  A    between atoms: C_33  and  C_45
   22  A    between atoms: C_34  and  N_42
   23  A    between atoms: C_34  and  C_61
   24  A    between atoms: C_36  and  C_65
   25  A    between atoms: N_37  and  C_59
   26  A    between atoms: N_39  and  C_67
   27  A    between atoms: N_43  and  C_64
   28  A    between atoms: N_58  and  C_65
                            x       y       z     vdW  Elec       q    Type
                         _______ _______ _______ _____ _____    ______ ____

>  <TORSDO>
F 28

$$$$
