=
 OpenBabel10222422103D

 29 33  0  0  1  0  0  0  0  0999 V2000
  191.9960  176.8990  147.8600 N   0  0  0  0  0  1  0  0  0  0  0  0
  189.6330  177.2420  147.5400 N   0  0  0  0  0  0  0  0  0  0  0  0
  189.8770  176.8380  144.8140 C   0  0  0  0  0  0  0  0  0  0  0  0
  184.8930  179.5020  143.0640 C   0  0  0  0  0  1  0  0  0  0  0  0
  187.7050  177.1800  143.1010 C   0  0  2  0  0  3  0  0  0  0  0  0
  189.1700  177.3040  141.2500 N   0  0  0  0  0  0  0  0  0  0  0  0
  190.9990  176.7590  145.6370 C   0  0  0  0  0  3  0  0  0  0  0  0
  187.3670  177.0290  144.5330 C   0  0  1  0  0  3  0  0  0  0  0  0
  188.5170  177.3110  146.7650 C   0  0  0  0  0  3  0  0  0  0  0  0
  188.1880  177.9050  140.5010 C   0  0  1  0  0  3  0  0  0  0  0  0
  188.9650  176.9960  142.5620 C   0  0  0  0  0  0  0  0  0  0  0  0
  186.9760  178.2970  141.1170 C   0  0  0  0  0  3  0  0  0  0  0  0
  188.6100  177.1320  145.3830 C   0  0  0  0  0  0  0  0  0  0  0  0
  185.8270  178.4320  143.3620 N   0  0  0  0  0  0  0  0  0  0  0  0
  190.0190  176.6670  143.4210 O   0  0  0  0  0  0  0  0  0  0  0  0
  186.7730  177.9100  142.4440 C   0  0  0  0  0  0  0  0  0  0  0  0
  186.2810  178.1110  144.7210 C   0  0  0  0  0  2  0  0  0  0  0  0
  190.8570  176.9700  147.0110 C   0  0  0  0  0  0  0  0  0  0  0  0
  188.0600  177.3160  138.0690 N   0  0  0  0  0  2  0  0  0  0  0  0
  189.0130  179.3210  138.7870 O   0  0  0  0  0  0  0  0  0  0  0  0
  188.4470  178.2350  139.0930 C   0  0  0  0  0  0  0  0  0  0  0  0
  187.4270  176.7630  135.7140 C   0  0  1  0  0  3  0  0  0  0  0  0
  187.1370  178.2210  136.0340 C   0  0  0  0  0  2  0  0  0  0  0  0
  188.3420  177.5600  136.6610 C   0  0  1  0  0  3  0  0  0  0  0  0
  185.3090  176.4400  137.0210 C   0  0  0  0  0  1  0  0  0  0  0  0
  186.5070  175.8630  136.4210 N   0  0  0  0  0  0  0  0  0  0  0  0
  186.8980  174.5240  136.7710 C   0  0  0  0  0  0  0  0  0  0  0  0
  185.9470  173.6030  137.4600 C   0  0  0  0  0  1  0  0  0  0  0  0
  188.0540  174.1050  136.5000 O   0  0  0  0  0  0  0  0  0  0  0  0
  3 13  2  0  0  0  0
  3  7  1  0  0  0  0
  4 14  1  0  0  0  0
  5 16  1  1  0  0  0
  5  8  1  0  0  0  0
  6 11  2  0  0  0  0
  7 18  2  0  0  0  0
  8 17  1  1  0  0  0
  8 13  1  0  0  0  0
  9  2  2  0  0  0  0
 10 21  1  1  0  0  0
 10 12  1  0  0  0  0
 10  6  1  0  0  0  0
 11  5  1  0  0  0  0
 11 15  1  0  0  0  0
 12 16  2  0  0  0  0
 13  9  1  0  0  0  0
 14 17  1  0  0  0  0
 15  3  1  0  0  0  0
 16 14  1  0  0  0  0
 18  2  1  0  0  0  0
 18  1  1  0  0  0  0
 19 21  1  0  0  0  0
 20 21  2  0  0  0  0
 22 23  1  0  0  0  0
 22 26  1  1  0  0  0
 22 24  1  0  0  0  0
 23 24  1  0  0  0  0
 24 19  1  1  0  0  0
 26 27  1  0  0  0  0
 26 25  1  0  0  0  0
 27 28  1  0  0  0  0
 29 27  2  0  0  0  0
M  END
>  <MODEL>
1

>  <REMARK>
 VINA RESULT:      -9.1      0.000      0.000
  Name = 
  3 active torsions:
  status: ('A' for Active; 'I' for Inactive)
    1  A    between atoms: N_2  and  C_25
    2  A    between atoms: N_6  and  C_11
    3  A    between atoms: C_14  and  C_18
                            x       y       z     vdW  Elec       q    Type
                         _______ _______ _______ _____ _____    ______ ____

>  <TORSDO>
F 3

$$$$
=
 OpenBabel10222422103D

 29 33  0  0  1  0  0  0  0  0999 V2000
  191.9950  176.8590  147.6420 N   0  0  0  0  0  1  0  0  0  0  0  0
  189.6120  177.1250  147.4110 N   0  0  0  0  0  0  0  0  0  0  0  0
  189.7930  176.9330  144.6560 C   0  0  0  0  0  0  0  0  0  0  0  0
  184.6580  179.5070  143.2400 C   0  0  0  0  0  1  0  0  0  0  0  0
  187.5610  177.3080  143.0310 C   0  0  2  0  0  3  0  0  0  0  0  0
  188.9650  177.6290  141.1560 N   0  0  0  0  0  0  0  0  0  0  0  0
  190.9410  176.8400  145.4420 C   0  0  0  0  0  3  0  0  0  0  0  0
  187.2710  177.0390  144.4550 C   0  0  1  0  0  3  0  0  0  0  0  0
  188.4730  177.2050  146.6720 C   0  0  0  0  0  3  0  0  0  0  0  0
  187.9390  178.2420  140.4800 C   0  0  1  0  0  3  0  0  0  0  0  0
  188.8110  177.2170  142.4470 C   0  0  0  0  0  0  0  0  0  0  0  0
  186.7310  178.5370  141.1550 C   0  0  0  0  0  3  0  0  0  0  0  0
  188.5330  177.1310  145.2780 C   0  0  0  0  0  0  0  0  0  0  0  0
  185.6430  178.4580  143.4330 N   0  0  0  0  0  0  0  0  0  0  0  0
  189.9020  176.8710  143.2510 O   0  0  0  0  0  0  0  0  0  0  0  0
  186.5820  178.0450  142.4540 C   0  0  0  0  0  0  0  0  0  0  0  0
  186.1490  178.0580  144.7510 C   0  0  0  0  0  2  0  0  0  0  0  0
  190.8300  176.9440  146.8310 C   0  0  0  0  0  0  0  0  0  0  0  0
  187.2380  178.2560  138.0740 N   0  0  0  0  0  2  0  0  0  0  0  0
  189.1150  179.4350  138.8020 O   0  0  0  0  0  0  0  0  0  0  0  0
  188.1430  178.6850  139.0940 C   0  0  0  0  0  0  0  0  0  0  0  0
  188.0800  177.4960  135.8460 C   0  0  1  0  0  3  0  0  0  0  0  0
  186.5730  177.6970  135.8260 C   0  0  0  0  0  2  0  0  0  0  0  0
  187.4210  178.6130  136.6740 C   0  0  1  0  0  3  0  0  0  0  0  0
  187.3910  175.4650  137.1500 C   0  0  0  0  0  1  0  0  0  0  0  0
  188.4570  176.3260  136.6500 N   0  0  0  0  0  0  0  0  0  0  0  0
  189.7870  176.1840  137.1790 C   0  0  0  0  0  0  0  0  0  0  0  0
  190.1740  174.9770  137.9670 C   0  0  0  0  0  1  0  0  0  0  0  0
  190.6510  177.0790  136.9830 O   0  0  0  0  0  0  0  0  0  0  0  0
  3 13  2  0  0  0  0
  3  7  1  0  0  0  0
  4 14  1  0  0  0  0
  5 11  1  1  0  0  0
  5  8  1  0  0  0  0
  6 11  2  0  0  0  0
  7 18  2  0  0  0  0
  8 17  1  1  0  0  0
  8 13  1  0  0  0  0
  9  2  2  0  0  0  0
 10 21  1  1  0  0  0
 10 12  1  0  0  0  0
 10  6  1  0  0  0  0
 11 15  1  0  0  0  0
 12 16  2  0  0  0  0
 13  9  1  0  0  0  0
 14 17  1  0  0  0  0
 15  3  1  0  0  0  0
 16  5  1  0  0  0  0
 16 14  1  0  0  0  0
 18  2  1  0  0  0  0
 18  1  1  0  0  0  0
 19 21  1  0  0  0  0
 20 21  2  0  0  0  0
 22 26  1  1  0  0  0
 22 24  1  0  0  0  0
 23 22  1  0  0  0  0
 23 24  1  0  0  0  0
 24 19  1  1  0  0  0
 26 25  1  0  0  0  0
 26 27  1  0  0  0  0
 27 28  1  0  0  0  0
 29 27  2  0  0  0  0
M  END
>  <MODEL>
2

>  <REMARK>
 VINA RESULT:      -8.9      1.126      1.474
  Name = 
  3 active torsions:
  status: ('A' for Active; 'I' for Inactive)
    1  A    between atoms: N_2  and  C_25
    2  A    between atoms: N_6  and  C_11
    3  A    between atoms: C_14  and  C_18
                            x       y       z     vdW  Elec       q    Type
                         _______ _______ _______ _____ _____    ______ ____

>  <TORSDO>
F 3

$$$$
=
 OpenBabel10222422103D

 29 33  0  0  1  0  0  0  0  0999 V2000
  192.6040  177.6400  140.6980 N   0  0  0  0  0  1  0  0  0  0  0  0
  191.9540  177.3440  142.9980 N   0  0  0  0  0  0  0  0  0  0  0  0
  189.2740  177.3390  142.3080 C   0  0  0  0  0  0  0  0  0  0  0  0
  186.9850  178.6880  147.5930 C   0  0  0  0  0  1  0  0  0  0  0  0
  187.2800  177.2540  144.2520 C   0  0  2  0  0  3  0  0  0  0  0  0
  185.6880  177.9930  142.6680 N   0  0  0  0  0  0  0  0  0  0  0  0
  190.2510  177.4820  141.3240 C   0  0  0  0  0  3  0  0  0  0  0  0
  188.6280  176.8530  144.7080 C   0  0  1  0  0  3  0  0  0  0  0  0
  191.0250  177.1880  143.9800 C   0  0  0  0  0  3  0  0  0  0  0  0
  184.8450  178.3770  143.6810 C   0  0  1  0  0  3  0  0  0  0  0  0
  186.9270  177.4920  142.9370 C   0  0  0  0  0  0  0  0  0  0  0  0
  185.2950  178.3430  145.0220 C   0  0  0  0  0  3  0  0  0  0  0  0
  189.6630  177.2010  143.6660 C   0  0  0  0  0  0  0  0  0  0  0  0
  187.3420  177.8940  146.4320 N   0  0  0  0  0  0  0  0  0  0  0  0
  187.9110  177.3740  141.9490 O   0  0  0  0  0  0  0  0  0  0  0  0
  186.5430  177.7650  145.2680 C   0  0  0  0  0  0  0  0  0  0  0  0
  188.7270  177.5600  146.0780 C   0  0  0  0  0  2  0  0  0  0  0  0
  191.5990  177.4870  141.6930 C   0  0  0  0  0  0  0  0  0  0  0  0
  182.8850  178.5600  142.1290 N   0  0  0  0  0  2  0  0  0  0  0  0
  182.9470  179.7190  144.1530 O   0  0  0  0  0  0  0  0  0  0  0  0
  183.5200  178.9250  143.3570 C   0  0  0  0  0  0  0  0  0  0  0  0
  181.2940  178.9060  140.2330 C   0  0  1  0  0  3  0  0  0  0  0  0
  180.7020  177.9840  141.2860 C   0  0  0  0  0  2  0  0  0  0  0  0
  181.6010  179.1140  141.7260 C   0  0  1  0  0  3  0  0  0  0  0  0
  182.4940  176.8030  139.5730 C   0  0  0  0  0  1  0  0  0  0  0  0
  182.3900  178.2560  139.5020 N   0  0  0  0  0  0  0  0  0  0  0  0
  183.4930  179.0190  138.9810 C   0  0  0  0  0  0  0  0  0  0  0  0
  184.5870  178.3570  138.2120 C   0  0  0  0  0  1  0  0  0  0  0  0
  183.5520  180.2630  139.1650 O   0  0  0  0  0  0  0  0  0  0  0  0
  1 18  1  0  0  0  0
  2  9  1  0  0  0  0
  3 13  1  0  0  0  0
  5 11  1  6  0  0  0
  5  8  1  0  0  0  0
  5 16  1  0  0  0  0
  6 11  2  0  0  0  0
  6 10  1  0  0  0  0
  7 18  1  0  0  0  0
  7  3  2  0  0  0  0
  8 17  1  1  0  0  0
 10 21  1  6  0  0  0
 10 12  1  0  0  0  0
 12 16  2  0  0  0  0
 13  9  2  0  0  0  0
 13  8  1  0  0  0  0
 14  4  1  0  0  0  0
 15  3  1  0  0  0  0
 15 11  1  0  0  0  0
 16 14  1  0  0  0  0
 17 14  1  0  0  0  0
 18  2  2  0  0  0  0
 19 21  1  0  0  0  0
 21 20  2  0  0  0  0
 22 26  1  6  0  0  0
 22 23  1  0  0  0  0
 22 24  1  0  0  0  0
 23 24  1  0  0  0  0
 24 19  1  6  0  0  0
 26 25  1  0  0  0  0
 27 29  2  0  0  0  0
 27 26  1  0  0  0  0
 28 27  1  0  0  0  0
M  END
>  <MODEL>
3

>  <REMARK>
 VINA RESULT:      -8.8      3.188      5.276
  Name = 
  3 active torsions:
  status: ('A' for Active; 'I' for Inactive)
    1  A    between atoms: N_2  and  C_25
    2  A    between atoms: N_6  and  C_11
    3  A    between atoms: C_14  and  C_18
                            x       y       z     vdW  Elec       q    Type
                         _______ _______ _______ _____ _____    ______ ____

>  <TORSDO>
F 3

$$$$
=
 OpenBabel10222422103D

 29 33  0  0  1  0  0  0  0  0999 V2000
  189.6410  178.3140  149.3590 N   0  0  0  0  0  1  0  0  0  0  0  0
  187.5960  178.3950  148.0910 N   0  0  0  0  0  0  0  0  0  0  0  0
  188.8690  177.3880  145.8500 C   0  0  0  0  0  0  0  0  0  0  0  0
  185.0130  179.1910  141.7410 C   0  0  0  0  0  1  0  0  0  0  0  0
  187.5400  177.1580  143.4110 C   0  0  2  0  0  3  0  0  0  0  0  0
  189.6100  176.9580  142.2890 N   0  0  0  0  0  0  0  0  0  0  0  0
  189.5820  177.5860  147.0320 C   0  0  0  0  0  3  0  0  0  0  0  0
  186.6700  177.3200  144.5960 C   0  0  1  0  0  3  0  0  0  0  0  0
  186.8700  178.1990  146.9570 C   0  0  0  0  0  3  0  0  0  0  0  0
  189.0090  177.2930  141.1000 C   0  0  1  0  0  3  0  0  0  0  0  0
  188.9060  176.9490  143.4550 C   0  0  0  0  0  0  0  0  0  0  0  0
  187.6620  177.7260  141.0920 C   0  0  0  0  0  3  0  0  0  0  0  0
  187.4880  177.7110  145.8030 C   0  0  0  0  0  0  0  0  0  0  0  0
  185.7360  178.2920  142.6240 N   0  0  0  0  0  0  0  0  0  0  0  0
  189.5360  176.9090  144.7040 O   0  0  0  0  0  0  0  0  0  0  0  0
  186.9520  177.6440  142.2920 C   0  0  0  0  0  0  0  0  0  0  0  0
  185.6200  178.3320  144.0860 C   0  0  0  0  0  2  0  0  0  0  0  0
  188.9230  178.1000  148.1510 C   0  0  0  0  0  0  0  0  0  0  0  0
  189.1870  176.9290  138.6270 N   0  0  0  0  0  2  0  0  0  0  0  0
  191.0180  177.6380  139.8880 O   0  0  0  0  0  0  0  0  0  0  0  0
  189.8010  177.3050  139.8620 C   0  0  0  0  0  0  0  0  0  0  0  0
  189.0420  176.5960  136.1540 C   0  0  1  0  0  3  0  0  0  0  0  0
  189.4960  178.0070  136.4930 C   0  0  0  0  0  2  0  0  0  0  0  0
  189.9340  176.8640  137.3780 C   0  0  1  0  0  3  0  0  0  0  0  0
  187.2270  175.0620  136.9610 C   0  0  0  0  0  1  0  0  0  0  0  0
  187.6310  176.3860  136.5010 N   0  0  0  0  0  0  0  0  0  0  0  0
  186.6220  177.3420  136.1290 C   0  0  0  0  0  0  0  0  0  0  0  0
  185.1940  177.1390  136.5130 C   0  0  0  0  0  1  0  0  0  0  0  0
  186.9290  178.3700  135.4710 O   0  0  0  0  0  0  0  0  0  0  0  0
  2 18  1  0  0  0  0
  3  7  1  0  0  0  0
  4 14  1  0  0  0  0
  5 16  1  6  0  0  0
  5 11  1  0  0  0  0
  5  8  1  0  0  0  0
  6 11  2  0  0  0  0
  7 18  2  0  0  0  0
  8 17  1  6  0  0  0
  8 13  1  0  0  0  0
  9  2  2  0  0  0  0
 10 21  1  1  0  0  0
 10  6  1  0  0  0  0
 11 15  1  0  0  0  0
 12 10  1  0  0  0  0
 12 16  2  0  0  0  0
 13  3  2  0  0  0  0
 13  9  1  0  0  0  0
 14 17  1  0  0  0  0
 15  3  1  0  0  0  0
 16 14  1  0  0  0  0
 18  1  1  0  0  0  0
 19 21  1  0  0  0  0
 21 20  2  0  0  0  0
 22 23  1  0  0  0  0
 22 26  1  1  0  0  0
 22 24  1  0  0  0  0
 23 24  1  0  0  0  0
 24 19  1  1  0  0  0
 26 25  1  0  0  0  0
 27 26  1  0  0  0  0
 27 28  1  0  0  0  0
 29 27  2  0  0  0  0
M  END
>  <MODEL>
4

>  <REMARK>
 VINA RESULT:      -8.0      1.644      2.034
  Name = 
  3 active torsions:
  status: ('A' for Active; 'I' for Inactive)
    1  A    between atoms: N_2  and  C_25
    2  A    between atoms: N_6  and  C_11
    3  A    between atoms: C_14  and  C_18
                            x       y       z     vdW  Elec       q    Type
                         _______ _______ _______ _____ _____    ______ ____

>  <TORSDO>
F 3

$$$$
=
 OpenBabel10222422103D

 29 33  0  0  1  0  0  0  0  0999 V2000
  183.8000  178.5970  145.9660 N   0  0  0  0  0  1  0  0  0  0  0  0
  186.0950  178.1200  146.5190 N   0  0  0  0  0  0  0  0  0  0  0  0
  186.8480  178.3400  143.8650 C   0  0  0  0  0  0  0  0  0  0  0  0
  191.9300  175.3220  144.1230 C   0  0  0  0  0  1  0  0  0  0  0  0
  189.4520  177.7740  143.0490 C   0  0  2  0  0  3  0  0  0  0  0  0
  188.7220  177.5890  140.8090 N   0  0  0  0  0  0  0  0  0  0  0  0
  185.5170  178.5320  144.2340 C   0  0  0  0  0  3  0  0  0  0  0  0
  189.2780  178.0090  144.4990 C   0  0  1  0  0  3  0  0  0  0  0  0
  187.4030  177.9420  146.1920 C   0  0  0  0  0  3  0  0  0  0  0  0
  189.8590  176.8900  140.4860 C   0  0  1  0  0  3  0  0  0  0  0  0
  188.4760  177.9790  142.0920 C   0  0  0  0  0  0  0  0  0  0  0  0
  190.7480  176.4850  141.5090 C   0  0  0  0  0  3  0  0  0  0  0  0
  187.8120  178.0260  144.8590 C   0  0  0  0  0  0  0  0  0  0  0  0
  191.0270  176.4550  144.0190 N   0  0  0  0  0  0  0  0  0  0  0  0
  187.2140  178.4190  142.5060 O   0  0  0  0  0  0  0  0  0  0  0  0
  190.5020  176.9540  142.8010 C   0  0  0  0  0  0  0  0  0  0  0  0
  190.1510  176.8920  145.1110 C   0  0  0  0  0  2  0  0  0  0  0  0
  185.1560  178.4120  145.5780 C   0  0  0  0  0  0  0  0  0  0  0  0
  188.9910  176.4420  138.1780 N   0  0  0  0  0  2  0  0  0  0  0  0
  191.2420  176.1390  138.7120 O   0  0  0  0  0  0  0  0  0  0  0  0
  190.0870  176.4740  139.0950 C   0  0  0  0  0  0  0  0  0  0  0  0
  188.0530  176.5240  135.8620 C   0  0  1  0  0  3  0  0  0  0  0  0
  189.4250  177.1770  135.9230 C   0  0  0  0  0  2  0  0  0  0  0  0
  189.1420  175.9830  136.8040 C   0  0  1  0  0  3  0  0  0  0  0  0
  187.3770  178.7110  136.8910 C   0  0  0  0  0  1  0  0  0  0  0  0
  187.0410  177.3330  136.5520 N   0  0  0  0  0  0  0  0  0  0  0  0
  185.8770  176.7250  137.1410 C   0  0  0  0  0  0  0  0  0  0  0  0
  184.8350  177.5560  137.8130 C   0  0  0  0  0  1  0  0  0  0  0  0
  185.7180  175.4770  137.0970 O   0  0  0  0  0  0  0  0  0  0  0  0
  3  7  2  0  0  0  0
  3 13  1  0  0  0  0
  5 11  1  1  0  0  0
  5  8  1  0  0  0  0
  6 11  2  0  0  0  0
  7 18  1  0  0  0  0
  8 13  1  0  0  0  0
  8 17  1  1  0  0  0
  9  2  1  0  0  0  0
 10 21  1  1  0  0  0
 10  6  1  0  0  0  0
 10 12  1  0  0  0  0
 11 15  1  0  0  0  0
 12 16  2  0  0  0  0
 13  9  2  0  0  0  0
 14  4  1  0  0  0  0
 14 17  1  0  0  0  0
 15  3  1  0  0  0  0
 16  5  1  0  0  0  0
 16 14  1  0  0  0  0
 18  1  1  0  0  0  0
 18  2  2  0  0  0  0
 19 21  1  0  0  0  0
 20 21  2  0  0  0  0
 22 23  1  0  0  0  0
 22 26  1  1  0  0  0
 22 24  1  0  0  0  0
 23 24  1  0  0  0  0
 24 19  1  1  0  0  0
 26 25  1  0  0  0  0
 26 27  1  0  0  0  0
 27 28  1  0  0  0  0
 29 27  2  0  0  0  0
M  END
>  <MODEL>
5

>  <REMARK>
 VINA RESULT:      -8.0      2.119      3.829
  Name = 
  3 active torsions:
  status: ('A' for Active; 'I' for Inactive)
    1  A    between atoms: N_2  and  C_25
    2  A    between atoms: N_6  and  C_11
    3  A    between atoms: C_14  and  C_18
                            x       y       z     vdW  Elec       q    Type
                         _______ _______ _______ _____ _____    ______ ____

>  <TORSDO>
F 3

$$$$
=
 OpenBabel10222422103D

 29 33  0  0  1  0  0  0  0  0999 V2000
  192.2180  178.5220  144.2640 N   0  0  0  0  0  1  0  0  0  0  0  0
  190.1250  178.0540  145.3610 N   0  0  0  0  0  0  0  0  0  0  0  0
  188.7750  178.0960  142.9460 C   0  0  0  0  0  0  0  0  0  0  0  0
  183.3060  179.0410  144.9920 C   0  0  0  0  0  1  0  0  0  0  0  0
  186.0010  177.8620  142.8350 C   0  0  2  0  0  3  0  0  0  0  0  0
  186.0060  178.7150  140.6300 N   0  0  0  0  0  0  0  0  0  0  0  0
  190.1520  178.3140  142.9830 C   0  0  0  0  0  3  0  0  0  0  0  0
  186.6240  177.4300  144.1050 C   0  0  1  0  0  3  0  0  0  0  0  0
  188.7850  177.8230  145.3550 C   0  0  0  0  0  3  0  0  0  0  0  0
  184.6710  179.0200  140.7350 C   0  0  1  0  0  3  0  0  0  0  0  0
  186.6940  178.1970  141.6870 C   0  0  0  0  0  0  0  0  0  0  0  0
  184.0160  178.8860  141.9820 C   0  0  0  0  0  3  0  0  0  0  0  0
  188.0710  177.8570  144.1550 C   0  0  0  0  0  0  0  0  0  0  0  0
  184.4360  178.3370  144.4120 N   0  0  0  0  0  0  0  0  0  0  0  0
  188.0930  178.1550  141.7130 O   0  0  0  0  0  0  0  0  0  0  0  0
  184.7320  178.2950  143.0260 C   0  0  0  0  0  0  0  0  0  0  0  0
  185.6650  178.0330  145.1540 C   0  0  0  0  0  2  0  0  0  0  0  0
  190.8150  178.2940  144.2130 C   0  0  0  0  0  0  0  0  0  0  0  0
  182.6090  179.2040  139.3230 N   0  0  0  0  0  2  0  0  0  0  0  0
  184.5430  180.4070  138.8150 O   0  0  0  0  0  0  0  0  0  0  0  0
  183.9620  179.5890  139.5810 C   0  0  0  0  0  0  0  0  0  0  0  0
  181.3950  178.5560  137.2360 C   0  0  1  0  0  3  0  0  0  0  0  0
  180.4520  179.1870  138.2480 C   0  0  0  0  0  2  0  0  0  0  0  0
  181.8740  179.6880  138.1630 C   0  0  1  0  0  3  0  0  0  0  0  0
  181.0640  176.5450  138.6990 C   0  0  0  0  0  1  0  0  0  0  0  0
  181.8400  177.2260  137.6700 N   0  0  0  0  0  0  0  0  0  0  0  0
  183.1450  176.7280  137.3230 C   0  0  0  0  0  0  0  0  0  0  0  0
  183.5790  175.3620  137.7390 C   0  0  0  0  0  1  0  0  0  0  0  0
  183.9440  177.4390  136.6590 O   0  0  0  0  0  0  0  0  0  0  0  0
  3  7  2  0  0  0  0
  3 13  1  0  0  0  0
  5 11  1  1  0  0  0
  5 16  1  0  0  0  0
  5  8  1  0  0  0  0
  6 10  1  0  0  0  0
  6 11  2  0  0  0  0
  7 18  1  0  0  0  0
  8 13  1  0  0  0  0
  8 17  1  1  0  0  0
  9  2  1  0  0  0  0
 10 21  1  1  0  0  0
 10 12  1  0  0  0  0
 11 15  1  0  0  0  0
 12 16  2  0  0  0  0
 13  9  2  0  0  0  0
 14  4  1  0  0  0  0
 14 17  1  0  0  0  0
 15  3  1  0  0  0  0
 16 14  1  0  0  0  0
 18  1  1  0  0  0  0
 18  2  2  0  0  0  0
 19 21  1  0  0  0  0
 20 21  2  0  0  0  0
 22 26  1  1  0  0  0
 22 24  1  0  0  0  0
 22 23  1  0  0  0  0
 24 23  1  0  0  0  0
 24 19  1  1  0  0  0
 26 25  1  0  0  0  0
 27 26  1  0  0  0  0
 27 28  1  0  0  0  0
 29 27  2  0  0  0  0
M  END
>  <MODEL>
6

>  <REMARK>
 VINA RESULT:      -7.8      3.165      3.915
  Name = 
  3 active torsions:
  status: ('A' for Active; 'I' for Inactive)
    1  A    between atoms: N_2  and  C_25
    2  A    between atoms: N_6  and  C_11
    3  A    between atoms: C_14  and  C_18
                            x       y       z     vdW  Elec       q    Type
                         _______ _______ _______ _____ _____    ______ ____

>  <TORSDO>
F 3

$$$$
=
 OpenBabel10222422103D

 29 33  0  0  1  0  0  0  0  0999 V2000
  192.2220  174.2080  135.8140 N   0  0  0  0  0  1  0  0  0  0  0  0
  190.3330  175.6690  136.1300 N   0  0  0  0  0  0  0  0  0  0  0  0
  191.2430  176.4120  138.6350 C   0  0  0  0  0  0  0  0  0  0  0  0
  186.1480  178.4060  140.8840 C   0  0  0  0  0  1  0  0  0  0  0  0
  189.7310  178.0650  140.2910 C   0  0  2  0  0  3  0  0  0  0  0  0
  191.0260  177.4030  142.1550 N   0  0  0  0  0  0  0  0  0  0  0  0
  191.9700  175.5050  137.8660 C   0  0  0  0  0  3  0  0  0  0  0  0
  189.3420  178.0690  138.8650 C   0  0  1  0  0  3  0  0  0  0  0  0
  189.6090  176.5670  136.8500 C   0  0  0  0  0  3  0  0  0  0  0  0
  190.0410  177.8380  143.0060 C   0  0  1  0  0  3  0  0  0  0  0  0
  190.8590  177.4520  140.8030 C   0  0  0  0  0  0  0  0  0  0  0  0
  188.7950  178.2570  142.4830 C   0  0  0  0  0  3  0  0  0  0  0  0
  190.0310  176.9470  138.1260 C   0  0  0  0  0  0  0  0  0  0  0  0
  187.4890  178.4330  140.3280 N   0  0  0  0  0  0  0  0  0  0  0  0
  191.6970  176.7550  139.9250 O   0  0  0  0  0  0  0  0  0  0  0  0
  188.6790  178.3550  141.0950 C   0  0  0  0  0  0  0  0  0  0  0  0
  187.8010  178.0260  138.9530 C   0  0  0  0  0  2  0  0  0  0  0  0
  191.4920  175.1380  136.6050 C   0  0  0  0  0  0  0  0  0  0  0  0
  189.1610  178.0390  145.3450 N   0  0  0  0  0  2  0  0  0  0  0  0
  191.3800  177.4540  144.9250 O   0  0  0  0  0  0  0  0  0  0  0  0
  190.2480  177.7590  144.4590 C   0  0  0  0  0  0  0  0  0  0  0  0
  187.9890  177.8630  147.5450 C   0  0  1  0  0  3  0  0  0  0  0  0
  188.9160  176.6790  147.3200 C   0  0  0  0  0  2  0  0  0  0  0  0
  189.3190  178.0350  146.7920 C   0  0  1  0  0  3  0  0  0  0  0  0
  186.8300  176.8370  145.5710 C   0  0  0  0  0  1  0  0  0  0  0  0
  186.8220  177.8120  146.6550 N   0  0  0  0  0  0  0  0  0  0  0  0
  185.8410  178.8630  146.6530 C   0  0  0  0  0  0  0  0  0  0  0  0
  184.6400  178.7900  145.7700 C   0  0  0  0  0  1  0  0  0  0  0  0
  185.9790  179.8670  147.4010 O   0  0  0  0  0  0  0  0  0  0  0  0
  1 18  1  0  0  0  0
  2 18  2  0  0  0  0
  2  9  1  0  0  0  0
  3 15  1  0  0  0  0
  5 11  1  1  0  0  0
  5 16  1  0  0  0  0
  6 10  1  0  0  0  0
  7  3  2  0  0  0  0
  8 17  1  1  0  0  0
  8  5  1  0  0  0  0
  9 13  2  0  0  0  0
 10 21  1  1  0  0  0
 11  6  2  0  0  0  0
 12 10  1  0  0  0  0
 13  3  1  0  0  0  0
 13  8  1  0  0  0  0
 14  4  1  0  0  0  0
 14 16  1  0  0  0  0
 15 11  1  0  0  0  0
 16 12  2  0  0  0  0
 17 14  1  0  0  0  0
 18  7  1  0  0  0  0
 21 20  2  0  0  0  0
 21 19  1  0  0  0  0
 22 26  1  6  0  0  0
 23 22  1  0  0  0  0
 24 19  1  6  0  0  0
 24 23  1  0  0  0  0
 24 22  1  0  0  0  0
 25 26  1  0  0  0  0
 27 26  1  0  0  0  0
 27 29  2  0  0  0  0
 28 27  1  0  0  0  0
M  END
>  <MODEL>
7

>  <REMARK>
 VINA RESULT:      -7.7      2.716      8.041
  Name = 
  3 active torsions:
  status: ('A' for Active; 'I' for Inactive)
    1  A    between atoms: N_2  and  C_25
    2  A    between atoms: N_6  and  C_11
    3  A    between atoms: C_14  and  C_18
                            x       y       z     vdW  Elec       q    Type
                         _______ _______ _______ _____ _____    ______ ____

>  <TORSDO>
F 3

$$$$
=
 OpenBabel10222422103D

 29 33  0  0  1  0  0  0  0  0999 V2000
  192.3540  176.8320  147.2630 N   0  0  0  0  0  1  0  0  0  0  0  0
  190.0310  177.0920  147.8450 N   0  0  0  0  0  0  0  0  0  0  0  0
  189.2800  176.9280  145.1870 C   0  0  0  0  0  0  0  0  0  0  0  0
  183.9670  179.4970  145.5970 C   0  0  0  0  0  1  0  0  0  0  0  0
  186.6320  177.3110  144.4060 C   0  0  2  0  0  3  0  0  0  0  0  0
  187.3290  177.6560  142.1730 N   0  0  0  0  0  0  0  0  0  0  0  0
  190.6240  176.8320  145.5430 C   0  0  0  0  0  3  0  0  0  0  0  0
  186.8350  177.0270  145.8430 C   0  0  1  0  0  3  0  0  0  0  0  0
  188.7100  177.1740  147.5310 C   0  0  0  0  0  3  0  0  0  0  0  0
  186.1360  178.2720  141.8860 C   0  0  1  0  0  3  0  0  0  0  0  0
  187.6150  177.2310  143.4360 C   0  0  0  0  0  0  0  0  0  0  0  0
  185.2230  178.5550  142.9290 C   0  0  0  0  0  3  0  0  0  0  0  0
  188.3000  177.1160  146.1970 C   0  0  0  0  0  0  0  0  0  0  0  0
  184.9590  178.4500  145.4390 N   0  0  0  0  0  0  0  0  0  0  0  0
  188.9120  176.8800  143.8260 O   0  0  0  0  0  0  0  0  0  0  0  0
  185.5160  178.0500  144.1980 C   0  0  0  0  0  0  0  0  0  0  0  0
  185.8770  178.0390  146.5080 C   0  0  0  0  0  2  0  0  0  0  0  0
  190.9840  176.9220  146.8900 C   0  0  0  0  0  0  0  0  0  0  0  0
  184.5340  179.1010  140.1450 N   0  0  0  0  0  2  0  0  0  0  0  0
  186.7970  178.7880  139.6680 O   0  0  0  0  0  0  0  0  0  0  0  0
  185.8640  178.7290  140.5160 C   0  0  0  0  0  0  0  0  0  0  0  0
  182.8080  179.0080  138.3400 C   0  0  1  0  0  3  0  0  0  0  0  0
  182.9980  180.4290  138.8460 C   0  0  0  0  0  2  0  0  0  0  0  0
  184.1920  179.5060  138.7890 C   0  0  1  0  0  3  0  0  0  0  0  0
  182.5100  176.7530  139.4000 C   0  0  0  0  0  1  0  0  0  0  0  0
  182.1450  178.1630  139.3420 N   0  0  0  0  0  0  0  0  0  0  0  0
  180.9730  178.6190  140.0410 C   0  0  0  0  0  0  0  0  0  0  0  0
  180.3220  177.7690  141.0810 C   0  0  0  0  0  1  0  0  0  0  0  0
  180.4760  179.7470  139.7860 O   0  0  0  0  0  0  0  0  0  0  0  0
  3  7  2  0  0  0  0
  3 13  1  0  0  0  0
  5 11  1  1  0  0  0
  5  8  1  0  0  0  0
  6 11  2  0  0  0  0
  7 18  1  0  0  0  0
  8 13  1  0  0  0  0
  8 17  1  1  0  0  0
  9  2  1  0  0  0  0
 10 21  1  1  0  0  0
 10  6  1  0  0  0  0
 10 12  1  0  0  0  0
 11 15  1  0  0  0  0
 12 16  2  0  0  0  0
 13  9  2  0  0  0  0
 14  4  1  0  0  0  0
 14 17  1  0  0  0  0
 15  3  1  0  0  0  0
 16  5  1  0  0  0  0
 16 14  1  0  0  0  0
 18  1  1  0  0  0  0
 18  2  2  0  0  0  0
 19 21  1  0  0  0  0
 20 21  2  0  0  0  0
 22 24  1  0  0  0  0
 22 23  1  0  0  0  0
 22 26  1  1  0  0  0
 24 23  1  0  0  0  0
 24 19  1  1  0  0  0
 26 25  1  0  0  0  0
 26 27  1  0  0  0  0
 27 28  1  0  0  0  0
 29 27  2  0  0  0  0
M  END
>  <MODEL>
8

>  <REMARK>
 VINA RESULT:      -7.5      3.056      3.913
  Name = 
  3 active torsions:
  status: ('A' for Active; 'I' for Inactive)
    1  A    between atoms: N_2  and  C_25
    2  A    between atoms: N_6  and  C_11
    3  A    between atoms: C_14  and  C_18
                            x       y       z     vdW  Elec       q    Type
                         _______ _______ _______ _____ _____    ______ ____

>  <TORSDO>
F 3

$$$$
=
 OpenBabel10222422103D

 29 33  0  0  1  0  0  0  0  0999 V2000
  184.1790  177.0270  135.5240 N   0  0  0  0  0  1  0  0  0  0  0  0
  182.5980  177.9270  137.1040 N   0  0  0  0  0  0  0  0  0  0  0  0
  184.5770  178.2200  139.0160 C   0  0  0  0  0  0  0  0  0  0  0  0
  181.1450  178.4660  143.8280 C   0  0  0  0  0  1  0  0  0  0  0  0
  183.9750  179.0580  141.6040 C   0  0  2  0  0  3  0  0  0  0  0  0
  186.0670  178.2600  142.3620 N   0  0  0  0  0  0  0  0  0  0  0  0
  184.8880  177.7040  137.7580 C   0  0  0  0  0  3  0  0  0  0  0  0
  182.9300  179.3230  140.5920 C   0  0  1  0  0  3  0  0  0  0  0  0
  182.2660  178.4460  138.3160 C   0  0  0  0  0  3  0  0  0  0  0  0
  185.6060  178.2520  143.6550 C   0  0  1  0  0  3  0  0  0  0  0  0
  185.2480  178.5970  141.3260 C   0  0  0  0  0  0  0  0  0  0  0  0
  184.2390  178.5070  143.9150 C   0  0  0  0  0  3  0  0  0  0  0  0
  183.2380  178.5880  139.3100 C   0  0  0  0  0  0  0  0  0  0  0  0
  182.0280  178.9140  142.7660 N   0  0  0  0  0  0  0  0  0  0  0  0
  185.5870  178.3300  139.9940 O   0  0  0  0  0  0  0  0  0  0  0  0
  183.4430  178.9110  142.8410 C   0  0  0  0  0  0  0  0  0  0  0  0
  181.6430  178.9290  141.3490 C   0  0  0  0  0  2  0  0  0  0  0  0
  183.8750  177.5590  136.8080 C   0  0  0  0  0  0  0  0  0  0  0  0
  187.8160  177.3710  144.4440 N   0  0  0  0  0  2  0  0  0  0  0  0
  186.1410  177.9790  145.9500 O   0  0  0  0  0  0  0  0  0  0  0  0
  186.5120  177.8720  144.7480 C   0  0  0  0  0  0  0  0  0  0  0  0
  190.2100  176.9730  145.0430 C   0  0  1  0  0  3  0  0  0  0  0  0
  189.6100  178.0860  145.8870 C   0  0  0  0  0  2  0  0  0  0  0  0
  188.7360  176.9230  145.4800 C   0  0  1  0  0  3  0  0  0  0  0  0
  190.3090  178.8140  143.3410 C   0  0  0  0  0  1  0  0  0  0  0  0
  190.3850  177.3900  143.6460 N   0  0  0  0  0  0  0  0  0  0  0  0
  190.3390  176.4340  142.5720 C   0  0  0  0  0  0  0  0  0  0  0  0
  190.5500  176.8590  141.1570 C   0  0  0  0  0  1  0  0  0  0  0  0
  190.1200  175.2170  142.8100 O   0  0  0  0  0  0  0  0  0  0  0  0
  1 18  1  0  0  0  0
  2  9  1  0  0  0  0
  3 13  1  0  0  0  0
  3 15  1  0  0  0  0
  5 11  1  6  0  0  0
  5 16  1  0  0  0  0
  6 10  1  0  0  0  0
  7  3  2  0  0  0  0
  8 17  1  1  0  0  0
  8  5  1  0  0  0  0
  9 13  2  0  0  0  0
 10 12  1  0  0  0  0
 10 21  1  6  0  0  0
 11  6  2  0  0  0  0
 13  8  1  0  0  0  0
 14 16  1  0  0  0  0
 14  4  1  0  0  0  0
 15 11  1  0  0  0  0
 16 12  2  0  0  0  0
 17 14  1  0  0  0  0
 18  2  2  0  0  0  0
 18  7  1  0  0  0  0
 19 21  1  0  0  0  0
 21 20  2  0  0  0  0
 22 26  1  6  0  0  0
 22 24  1  0  0  0  0
 22 23  1  0  0  0  0
 24 19  1  6  0  0  0
 24 23  1  0  0  0  0
 25 26  1  0  0  0  0
 27 29  2  0  0  0  0
 27 26  1  0  0  0  0
 28 27  1  0  0  0  0
M  END
>  <MODEL>
9

>  <REMARK>
 VINA RESULT:      -7.4      2.839      7.869
  Name = 
  3 active torsions:
  status: ('A' for Active; 'I' for Inactive)
    1  A    between atoms: N_2  and  C_25
    2  A    between atoms: N_6  and  C_11
    3  A    between atoms: C_14  and  C_18
                            x       y       z     vdW  Elec       q    Type
                         _______ _______ _______ _____ _____    ______ ____

>  <TORSDO>
F 3

$$$$
