=
 OpenBabel10232410393D

 48 52  0  0  1  0  0  0  0  0999 V2000
  190.4580  176.7880  140.5770 S   0  0  0  0  0  0  0  0  0  0  0  0
  189.9070  176.4340  142.2900 C   0  0  2  0  0  3  0  0  0  0  0  0
  189.1640  178.0330  140.4790 C   0  0  2  0  0  3  0  0  0  0  0  0
  188.4780  176.7470  142.4320 N   0  0  0  0  0  2  0  0  0  0  0  0
  187.9970  177.5240  141.2950 C   0  0  1  0  0  3  0  0  0  0  0  0
  189.1950  179.2450  138.2570 O   0  0  0  0  0  0  0  0  0  0  0  0
  187.9720  177.3890  138.4540 N   0  0  0  0  0  0  0  0  0  0  0  0
  188.5760  179.1440  136.9870 C   0  0  0  0  0  2  0  0  0  0  0  0
  188.7920  178.1860  139.0410 C   0  0  0  0  0  0  0  0  0  0  0  0
  187.6860  177.9090  137.1330 C   0  0  1  0  0  3  0  0  0  0  0  0
  187.9070  176.8780  136.0230 C   0  0  2  0  0  3  0  0  0  0  0  0
  187.0480  177.1360  134.9640 O   0  0  0  0  0  1  0  0  0  0  0  0
  186.0360  173.5770  135.9390 C   0  0  2  0  0  3  0  0  0  0  0  0
  187.3480  173.1380  135.2870 C   0  0  2  0  0  3  0  0  0  0  0  0
  189.1610  173.3670  136.8960 C   0  0  0  0  0  2  0  0  0  0  0  0
  187.8540  175.3840  136.4420 C   0  0  2  0  0  3  0  0  0  0  0  0
  188.2140  172.5290  136.2200 O   0  0  0  0  0  0  0  0  0  0  0  0
  189.2480  174.7850  136.3880 C   0  0  0  0  0  2  0  0  0  0  0  0
  187.0190  174.6260  135.4110 C   0  0  2  0  0  3  0  0  0  0  0  0
  184.9310  172.6450  137.8360 O   0  0  0  0  0  1  0  0  0  0  0  0
  185.9890  173.4700  137.4610 C   0  0  0  0  0  2  0  0  0  0  0  0
  190.3550  178.6030  143.1590 C   0  0  0  0  0  1  0  0  0  0  0  0
  190.6830  177.1830  143.2950 N   0  0  0  0  0  0  0  0  0  0  0  0
  191.5700  176.5300  145.5530 C   0  0  0  0  0  2  0  0  0  0  0  0
  190.3400  176.7150  144.6550 C   0  0  1  0  0  3  0  0  0  0  0  0
  189.8770  177.5620  146.7930 C   0  0  0  0  0  0  0  0  0  0  0  0
  191.0700  177.0050  146.8620 C   0  0  0  0  0  0  0  0  0  0  0  0
  189.3290  177.5900  145.4080 C   0  0  0  0  0  2  0  0  0  0  0  0
  191.7850  176.8670  148.0410 O   0  0  0  0  0  1  0  0  0  0  0  0
  189.2310  178.1550  147.9160 N   0  0  0  0  0  2  0  0  0  0  0  0
  187.8930  177.7470  148.3340 C   0  0  0  0  0  2  0  0  0  0  0  0
  185.9300  179.7920  147.7170 O   0  0  0  0  0  0  0  0  0  0  0  0
  184.9890  178.6260  145.8710 C   0  0  0  0  0  1  0  0  0  0  0  0
  185.9800  178.7760  146.9770 C   0  0  0  0  0  0  0  0  0  0  0  0
  186.9660  177.7540  147.2080 N   0  0  0  0  0  2  0  0  0  0  0  0
  187.1590  178.7050  141.7910 C   0  0  0  0  0  2  0  0  0  0  0  0
  185.7910  178.2560  142.2700 C   0  0  0  0  0  2  0  0  0  0  0  0
  184.7120  178.7890  141.3990 C   0  0  0  0  0  0  0  0  0  0  0  0
  183.3590  178.3700  141.6180 N   0  0  0  0  0  2  0  0  0  0  0  0
  184.9940  179.5900  140.4610 O   0  0  0  0  0  0  0  0  0  0  0  0
  182.2460  178.7820  140.7790 C   0  0  0  0  0  2  0  0  0  0  0  0
  181.4160  177.5790  140.3220 C   0  0  0  0  0  2  0  0  0  0  0  0
  181.6080  177.2730  138.8470 C   0  0  2  0  0  3  0  0  0  0  0  0
  180.4560  176.6520  138.3390 O   0  0  0  0  0  1  0  0  0  0  0  0
  182.8260  176.4020  138.5980 C   0  0  0  0  0  2  0  0  0  0  0  0
  183.7550  176.3840  136.1720 C   0  0  0  0  0  1  0  0  0  0  0  0
  183.6940  176.9930  137.5300 C   0  0  0  0  0  0  0  0  0  0  0  0
  184.3460  177.9940  137.7680 O   0  0  0  0  0  0  0  0  0  0  0  0
  1  2  1  0  0  0  0
  2  4  1  0  0  0  0
  2 23  1  1  0  0  0
  3  9  1  6  0  0  0
  3  1  1  0  0  0  0
  3  5  1  0  0  0  0
  5 36  1  1  0  0  0
  5  4  1  0  0  0  0
  6  9  1  0  0  0  0
  7  9  2  0  0  0  0
  8 10  1  0  0  0  0
  8  6  1  0  0  0  0
 10 11  1  6  0  0  0
 10  7  1  0  0  0  0
 11 12  1  6  0  0  0
 13 21  1  1  0  0  0
 14 19  1  0  0  0  0
 14 13  1  0  0  0  0
 14 17  1  1  0  0  0
 16 11  1  6  0  0  0
 17 15  1  0  0  0  0
 18 16  1  0  0  0  0
 18 15  1  0  0  0  0
 19 13  1  0  0  0  0
 19 16  1  0  0  0  0
 21 20  1  0  0  0  0
 22 23  1  0  0  0  0
 23 25  1  0  0  0  0
 24 27  1  0  0  0  0
 25 28  1  0  0  0  0
 25 24  1  0  0  0  0
 26 27  2  0  0  0  0
 26 30  1  0  0  0  0
 27 29  1  0  0  0  0
 28 26  1  0  0  0  0
 30 31  1  0  0  0  0
 33 34  1  0  0  0  0
 34 35  1  0  0  0  0
 34 32  2  0  0  0  0
 35 31  1  0  0  0  0
 36 37  1  0  0  0  0
 38 39  1  0  0  0  0
 38 37  1  0  0  0  0
 40 38  2  0  0  0  0
 41 39  1  0  0  0  0
 42 41  1  0  0  0  0
 43 42  1  0  0  0  0
 44 43  1  0  0  0  0
 45 43  1  0  0  0  0
 46 47  1  0  0  0  0
 47 48  2  0  0  0  0
 47 45  1  0  0  0  0
M  END
>  <MODEL>
1

>  <REMARK>
 VINA RESULT:      -7.9      0.000      0.000
  Name = 
  17 active torsions:
  status: ('A' for Active; 'I' for Inactive)
    1  A    between atoms: C_1  and  C_25
    2  A    between atoms: C_1  and  C_46
    3  A    between atoms: C_2  and  C_9
    4  A    between atoms: C_2  and  C_24
    5  A    between atoms: C_3  and  C_36
    6  A    between atoms: C_3  and  C_45
    7  A    between atoms: C_7  and  C_30
    8  A    between atoms: C_9  and  C_17
    9  A    between atoms: C_10  and  N_37
   10  A    between atoms: C_14  and  C_36
   11  A    between atoms: C_18  and  N_37
   12  A    between atoms: C_19  and  N_21
   13  A    between atoms: N_21  and  C_27
   14  A    between atoms: C_24  and  C_29
   15  A    between atoms: C_26  and  C_33
   16  A    between atoms: C_27  and  N_48
   17  A    between atoms: C_29  and  N_32
                            x       y       z     vdW  Elec       q    Type
                         _______ _______ _______ _____ _____    ______ ____

>  <TORSDO>
F 17

$$$$
=
 OpenBabel10232410393D

 48 52  0  0  1  0  0  0  0  0999 V2000
  192.3020  176.5640  137.9360 S   0  0  0  0  0  0  0  0  0  0  0  0
  192.3490  175.7440  136.2970 C   0  0  2  0  0  3  0  0  0  0  0  0
  190.7390  175.7310  138.2440 C   0  0  2  0  0  3  0  0  0  0  0  0
  190.9820  175.4680  135.8340 N   0  0  0  0  0  2  0  0  0  0  0  0
  190.0190  175.6340  136.9170 C   0  0  1  0  0  3  0  0  0  0  0  0
  189.0970  177.5620  138.8430 O   0  0  0  0  0  0  0  0  0  0  0  0
  190.1420  176.4730  140.4870 N   0  0  0  0  0  0  0  0  0  0  0  0
  188.6250  178.2220  140.0040 C   0  0  0  0  0  2  0  0  0  0  0  0
  189.9670  176.5610  139.2170 C   0  0  0  0  0  0  0  0  0  0  0  0
  189.3840  177.5250  141.1330 C   0  0  1  0  0  3  0  0  0  0  0  0
  188.4640  177.0060  142.2410 C   0  0  2  0  0  3  0  0  0  0  0  0
  187.2610  177.6950  142.2140 O   0  0  0  0  0  1  0  0  0  0  0  0
  191.4370  177.6490  144.5110 C   0  0  2  0  0  3  0  0  0  0  0  0
  190.4080  178.5590  145.1830 C   0  0  2  0  0  3  0  0  0  0  0  0
  188.5890  177.2010  146.0640 C   0  0  0  0  0  2  0  0  0  0  0  0
  189.0590  176.9640  143.6750 C   0  0  2  0  0  3  0  0  0  0  0  0
  189.8020  177.9290  146.2910 O   0  0  0  0  0  0  0  0  0  0  0  0
  187.9940  177.3510  144.6860 C   0  0  0  0  0  2  0  0  0  0  0  0
  190.1510  178.0290  143.7720 C   0  0  2  0  0  3  0  0  0  0  0  0
  192.0420  175.3900  144.0410 O   0  0  0  0  0  1  0  0  0  0  0  0
  191.4700  176.2080  145.0140 C   0  0  0  0  0  2  0  0  0  0  0  0
  192.3370  173.4510  135.6600 C   0  0  0  0  0  1  0  0  0  0  0  0
  193.1290  174.4920  136.3170 N   0  0  0  0  0  0  0  0  0  0  0  0
  194.7120  176.1510  135.2890 C   0  0  0  0  0  2  0  0  0  0  0  0
  194.4090  174.6790  135.6010 C   0  0  1  0  0  3  0  0  0  0  0  0
  196.6730  175.1180  136.0330 C   0  0  0  0  0  0  0  0  0  0  0  0
  196.1740  176.2170  135.5040 C   0  0  0  0  0  0  0  0  0  0  0  0
  195.6380  174.0800  136.2970 C   0  0  0  0  0  2  0  0  0  0  0  0
  196.9380  177.3250  135.1730 O   0  0  0  0  0  1  0  0  0  0  0  0
  198.0450  174.9830  136.3950 N   0  0  0  0  0  2  0  0  0  0  0  0
  198.4480  174.3870  137.6650 C   0  0  0  0  0  2  0  0  0  0  0  0
  199.4850  174.8660  140.3310 O   0  0  0  0  0  0  0  0  0  0  0  0
  197.4340  175.6850  141.2090 C   0  0  0  0  0  1  0  0  0  0  0  0
  198.2870  175.1690  140.0990 C   0  0  0  0  0  0  0  0  0  0  0  0
  197.7350  174.9980  138.7810 N   0  0  0  0  0  2  0  0  0  0  0  0
  189.0530  174.4460  136.9380 C   0  0  0  0  0  2  0  0  0  0  0  0
  187.8810  174.6640  135.9990 C   0  0  0  0  0  2  0  0  0  0  0  0
  186.6640  175.0820  136.7420 C   0  0  0  0  0  0  0  0  0  0  0  0
  186.3100  176.4690  136.7880 N   0  0  0  0  0  2  0  0  0  0  0  0
  185.9630  174.2170  137.3430 O   0  0  0  0  0  0  0  0  0  0  0  0
  185.1800  176.9830  137.5430 C   0  0  0  0  0  2  0  0  0  0  0  0
  185.4700  178.3780  138.1050 C   0  0  0  0  0  2  0  0  0  0  0  0
  184.2980  178.9370  138.8930 C   0  0  2  0  0  3  0  0  0  0  0  0
  184.4580  180.3210  139.0590 O   0  0  0  0  0  1  0  0  0  0  0  0
  184.1430  178.2610  140.2440 C   0  0  0  0  0  2  0  0  0  0  0  0
  182.2850  176.4920  139.8340 C   0  0  0  0  0  1  0  0  0  0  0  0
  182.7400  177.7760  140.4380 C   0  0  0  0  0  0  0  0  0  0  0  0
  181.9630  178.4290  141.1110 O   0  0  0  0  0  0  0  0  0  0  0  0
  1  3  1  0  0  0  0
  2 23  1  1  0  0  0
  2  1  1  0  0  0  0
  3  9  1  1  0  0  0
  4  2  1  0  0  0  0
  4  5  1  0  0  0  0
  5 36  1  1  0  0  0
  5  3  1  0  0  0  0
  6  9  1  0  0  0  0
  6  8  1  0  0  0  0
  7 10  1  0  0  0  0
  8 10  1  0  0  0  0
  9  7  2  0  0  0  0
 10 11  1  1  0  0  0
 11 12  1  1  0  0  0
 13 21  1  1  0  0  0
 13 14  1  0  0  0  0
 14 17  1  1  0  0  0
 15 17  1  0  0  0  0
 16 11  1  6  0  0  0
 16 19  1  0  0  0  0
 16 18  1  0  0  0  0
 18 15  1  0  0  0  0
 19 13  1  0  0  0  0
 19 14  1  0  0  0  0
 20 21  1  0  0  0  0
 22 23  1  0  0  0  0
 24 27  1  0  0  0  0
 24 25  1  0  0  0  0
 25 28  1  0  0  0  0
 25 23  1  0  0  0  0
 26 28  1  0  0  0  0
 26 30  1  0  0  0  0
 27 26  2  0  0  0  0
 29 27  1  0  0  0  0
 30 31  1  0  0  0  0
 31 35  1  0  0  0  0
 34 32  2  0  0  0  0
 34 33  1  0  0  0  0
 35 34  1  0  0  0  0
 37 38  1  0  0  0  0
 37 36  1  0  0  0  0
 38 39  1  0  0  0  0
 38 40  2  0  0  0  0
 39 41  1  0  0  0  0
 41 42  1  0  0  0  0
 42 43  1  0  0  0  0
 43 44  1  0  0  0  0
 43 45  1  0  0  0  0
 45 47  1  0  0  0  0
 46 47  1  0  0  0  0
 47 48  2  0  0  0  0
M  END
>  <MODEL>
2

>  <REMARK>
 VINA RESULT:      -7.4      4.596      8.974
  Name = 
  17 active torsions:
  status: ('A' for Active; 'I' for Inactive)
    1  A    between atoms: C_1  and  C_25
    2  A    between atoms: C_1  and  C_46
    3  A    between atoms: C_2  and  C_9
    4  A    between atoms: C_2  and  C_24
    5  A    between atoms: C_3  and  C_36
    6  A    between atoms: C_3  and  C_45
    7  A    between atoms: C_7  and  C_30
    8  A    between atoms: C_9  and  C_17
    9  A    between atoms: C_10  and  N_37
   10  A    between atoms: C_14  and  C_36
   11  A    between atoms: C_18  and  N_37
   12  A    between atoms: C_19  and  N_21
   13  A    between atoms: N_21  and  C_27
   14  A    between atoms: C_24  and  C_29
   15  A    between atoms: C_26  and  C_33
   16  A    between atoms: C_27  and  N_48
   17  A    between atoms: C_29  and  N_32
                            x       y       z     vdW  Elec       q    Type
                         _______ _______ _______ _____ _____    ______ ____

>  <TORSDO>
F 17

$$$$
=
 OpenBabel10232410393D

 48 52  0  0  1  0  0  0  0  0999 V2000
  192.6420  176.4940  138.3490 S   0  0  0  0  0  0  0  0  0  0  0  0
  191.9780  176.5280  136.6400 C   0  0  2  0  0  3  0  0  0  0  0  0
  190.9770  176.1370  138.9270 C   0  0  2  0  0  3  0  0  0  0  0  0
  190.5630  176.9250  136.6590 N   0  0  0  0  0  2  0  0  0  0  0  0
  190.0230  176.8730  138.0130 C   0  0  1  0  0  3  0  0  0  0  0  0
  191.7820  177.4910  140.9100 O   0  0  0  0  0  0  0  0  0  0  0  0
  189.9680  176.2110  141.1450 N   0  0  0  0  0  0  0  0  0  0  0  0
  191.4500  177.6690  142.2750 C   0  0  0  0  0  2  0  0  0  0  0  0
  190.8700  176.6340  140.3320 C   0  0  0  0  0  0  0  0  0  0  0  0
  190.2450  176.7460  142.4620 C   0  0  1  0  0  3  0  0  0  0  0  0
  189.0390  177.4550  143.0850 C   0  0  2  0  0  3  0  0  0  0  0  0
  189.1210  178.8190  142.8470 O   0  0  0  0  0  1  0  0  0  0  0  0
  190.2150  177.6840  146.6860 C   0  0  2  0  0  3  0  0  0  0  0  0
  188.9030  178.4600  146.8020 C   0  0  2  0  0  3  0  0  0  0  0  0
  187.0410  176.9680  146.3160 C   0  0  0  0  0  2  0  0  0  0  0  0
  188.7580  177.1590  144.5830 C   0  0  2  0  0  3  0  0  0  0  0  0
  187.8560  177.6440  147.2820 O   0  0  0  0  0  0  0  0  0  0  0  0
  187.2820  177.3610  144.8790 C   0  0  0  0  0  2  0  0  0  0  0  0
  189.5100  178.1890  145.4250 C   0  0  2  0  0  3  0  0  0  0  0  0
  191.3270  175.6890  147.3770 O   0  0  0  0  0  1  0  0  0  0  0  0
  190.1100  176.1760  146.9030 C   0  0  0  0  0  2  0  0  0  0  0  0
  191.0730  175.1310  134.9400 C   0  0  0  0  0  1  0  0  0  0  0  0
  192.1210  175.2290  135.9570 N   0  0  0  0  0  0  0  0  0  0  0  0
  193.9020  176.4530  134.6750 C   0  0  0  0  0  2  0  0  0  0  0  0
  193.4520  175.1340  135.3180 C   0  0  1  0  0  3  0  0  0  0  0  0
  195.7170  175.5040  135.8030 C   0  0  0  0  0  0  0  0  0  0  0  0
  195.3500  176.4660  134.9810 C   0  0  0  0  0  0  0  0  0  0  0  0
  194.5800  174.6440  136.2360 C   0  0  0  0  0  2  0  0  0  0  0  0
  196.2280  177.3950  134.4450 O   0  0  0  0  0  1  0  0  0  0  0  0
  197.0480  175.3670  136.2930 N   0  0  0  0  0  2  0  0  0  0  0  0
  197.4120  174.3180  137.2410 C   0  0  0  0  0  2  0  0  0  0  0  0
  199.2490  175.3510  139.2350 O   0  0  0  0  0  0  0  0  0  0  0  0
  197.6390  175.4260  140.9830 C   0  0  0  0  0  1  0  0  0  0  0  0
  198.0490  175.1740  139.5700 C   0  0  0  0  0  0  0  0  0  0  0  0
  197.0860  174.7100  138.6080 N   0  0  0  0  0  2  0  0  0  0  0  0
  188.6660  176.1640  138.0040 C   0  0  0  0  0  2  0  0  0  0  0  0
  187.7320  176.7610  136.9680 C   0  0  0  0  0  2  0  0  0  0  0  0
  186.7210  177.6480  137.5990 C   0  0  0  0  0  0  0  0  0  0  0  0
  185.3350  177.2880  137.5410 N   0  0  0  0  0  2  0  0  0  0  0  0
  187.0860  178.7210  138.1620 O   0  0  0  0  0  0  0  0  0  0  0  0
  184.2680  178.1220  138.0670 C   0  0  0  0  0  2  0  0  0  0  0  0
  183.8190  177.6490  139.4530 C   0  0  0  0  0  2  0  0  0  0  0  0
  183.9090  178.7500  140.4950 C   0  0  2  0  0  3  0  0  0  0  0  0
  184.7800  179.7550  140.0470 O   0  0  0  0  0  1  0  0  0  0  0  0
  184.3660  178.2240  141.8440 C   0  0  0  0  0  2  0  0  0  0  0  0
  183.9710  178.8740  144.3280 C   0  0  0  0  0  1  0  0  0  0  0  0
  183.4640  178.7080  142.9370 C   0  0  0  0  0  0  0  0  0  0  0  0
  182.3050  178.9870  142.6840 O   0  0  0  0  0  0  0  0  0  0  0  0
  1  3  1  0  0  0  0
  2 23  1  1  0  0  0
  2  4  1  0  0  0  0
  2  1  1  0  0  0  0
  3  9  1  1  0  0  0
  4  5  1  0  0  0  0
  5 36  1  6  0  0  0
  5  3  1  0  0  0  0
  6  8  1  0  0  0  0
  7 10  1  0  0  0  0
  8 10  1  0  0  0  0
  9  6  1  0  0  0  0
  9  7  2  0  0  0  0
 10 11  1  6  0  0  0
 11 12  1  1  0  0  0
 13 14  1  0  0  0  0
 13 21  1  6  0  0  0
 14 17  1  6  0  0  0
 15 17  1  0  0  0  0
 16 11  1  6  0  0  0
 16 18  1  0  0  0  0
 16 19  1  0  0  0  0
 18 15  1  0  0  0  0
 19 13  1  0  0  0  0
 19 14  1  0  0  0  0
 21 20  1  0  0  0  0
 22 23  1  0  0  0  0
 24 27  1  0  0  0  0
 24 25  1  0  0  0  0
 25 23  1  0  0  0  0
 25 28  1  0  0  0  0
 26 28  1  0  0  0  0
 26 30  1  0  0  0  0
 27 26  2  0  0  0  0
 29 27  1  0  0  0  0
 30 31  1  0  0  0  0
 31 35  1  0  0  0  0
 32 34  2  0  0  0  0
 34 33  1  0  0  0  0
 35 34  1  0  0  0  0
 37 38  1  0  0  0  0
 37 36  1  0  0  0  0
 38 40  2  0  0  0  0
 39 38  1  0  0  0  0
 39 41  1  0  0  0  0
 41 42  1  0  0  0  0
 42 43  1  0  0  0  0
 43 45  1  0  0  0  0
 44 43  1  0  0  0  0
 45 47  1  0  0  0  0
 47 46  1  0  0  0  0
 48 47  2  0  0  0  0
M  END
>  <MODEL>
3

>  <REMARK>
 VINA RESULT:      -7.3      4.347      9.191
  Name = 
  17 active torsions:
  status: ('A' for Active; 'I' for Inactive)
    1  A    between atoms: C_1  and  C_25
    2  A    between atoms: C_1  and  C_46
    3  A    between atoms: C_2  and  C_9
    4  A    between atoms: C_2  and  C_24
    5  A    between atoms: C_3  and  C_36
    6  A    between atoms: C_3  and  C_45
    7  A    between atoms: C_7  and  C_30
    8  A    between atoms: C_9  and  C_17
    9  A    between atoms: C_10  and  N_37
   10  A    between atoms: C_14  and  C_36
   11  A    between atoms: C_18  and  N_37
   12  A    between atoms: C_19  and  N_21
   13  A    between atoms: N_21  and  C_27
   14  A    between atoms: C_24  and  C_29
   15  A    between atoms: C_26  and  C_33
   16  A    between atoms: C_27  and  N_48
   17  A    between atoms: C_29  and  N_32
                            x       y       z     vdW  Elec       q    Type
                         _______ _______ _______ _____ _____    ______ ____

>  <TORSDO>
F 17

$$$$
=
 OpenBabel10232410393D

 48 52  0  0  1  0  0  0  0  0999 V2000
  190.5590  176.9150  140.5440 S   0  0  0  0  0  0  0  0  0  0  0  0
  190.0800  176.4300  142.2460 C   0  0  2  0  0  3  0  0  0  0  0  0
  189.1870  178.0770  140.5510 C   0  0  2  0  0  3  0  0  0  0  0  0
  188.6400  176.6420  142.4420 N   0  0  0  0  0  2  0  0  0  0  0  0
  188.0780  177.4480  141.3640 C   0  0  1  0  0  3  0  0  0  0  0  0
  189.6470  178.5220  138.1010 O   0  0  0  0  0  0  0  0  0  0  0  0
  187.5290  178.3680  138.7880 N   0  0  0  0  0  0  0  0  0  0  0  0
  188.9160  178.7890  136.9180 C   0  0  0  0  0  2  0  0  0  0  0  0
  188.7650  178.2860  139.1330 C   0  0  0  0  0  0  0  0  0  0  0  0
  187.4620  178.7480  137.3930 C   0  0  1  0  0  3  0  0  0  0  0  0
  186.5870  177.8100  136.5580 C   0  0  2  0  0  3  0  0  0  0  0  0
  185.4480  177.4690  137.2730 O   0  0  0  0  0  1  0  0  0  0  0  0
  188.8240  174.8000  137.1410 C   0  0  2  0  0  3  0  0  0  0  0  0
  187.5650  174.0840  136.6510 C   0  0  2  0  0  3  0  0  0  0  0  0
  187.1190  174.7290  134.3460 C   0  0  0  0  0  2  0  0  0  0  0  0
  187.2820  176.5520  135.9690 C   0  0  2  0  0  3  0  0  0  0  0  0
  187.6440  173.7740  135.2770 O   0  0  0  0  0  0  0  0  0  0  0  0
  186.3650  175.8830  134.9600 C   0  0  0  0  0  2  0  0  0  0  0  0
  187.4860  175.5440  137.0990 C   0  0  2  0  0  3  0  0  0  0  0  0
  191.0260  174.5680  136.2530 O   0  0  0  0  0  1  0  0  0  0  0  0
  189.8090  175.2180  136.0530 C   0  0  0  0  0  2  0  0  0  0  0  0
  190.4880  178.5880  143.1620 C   0  0  0  0  0  1  0  0  0  0  0  0
  190.8370  177.1700  143.2740 N   0  0  0  0  0  0  0  0  0  0  0  0
  191.7160  176.2820  145.4530 C   0  0  0  0  0  2  0  0  0  0  0  0
  190.4870  176.6710  144.6210 C   0  0  1  0  0  3  0  0  0  0  0  0
  190.2160  177.4440  146.8190 C   0  0  0  0  0  0  0  0  0  0  0  0
  191.3300  176.7380  146.8060 C   0  0  0  0  0  0  0  0  0  0  0  0
  189.6250  177.6200  145.4640 C   0  0  0  0  0  2  0  0  0  0  0  0
  192.0640  176.4440  147.9430 O   0  0  0  0  0  1  0  0  0  0  0  0
  189.6920  178.0470  147.9990 N   0  0  0  0  0  2  0  0  0  0  0  0
  188.4150  177.6320  148.5710 C   0  0  0  0  0  2  0  0  0  0  0  0
  186.5050  177.1260  146.4460 O   0  0  0  0  0  0  0  0  0  0  0  0
  185.4570  179.2540  146.5980 C   0  0  0  0  0  1  0  0  0  0  0  0
  186.4450  178.2300  147.0470 C   0  0  0  0  0  0  0  0  0  0  0  0
  187.3360  178.5140  148.1400 N   0  0  0  0  0  2  0  0  0  0  0  0
  187.1810  178.5430  141.9480 C   0  0  0  0  0  2  0  0  0  0  0  0
  186.2890  178.0040  143.0510 C   0  0  0  0  0  2  0  0  0  0  0  0
  184.8520  178.1830  142.7190 C   0  0  0  0  0  0  0  0  0  0  0  0
  184.4100  177.9800  141.3710 N   0  0  0  0  0  2  0  0  0  0  0  0
  184.0350  178.5320  143.6190 O   0  0  0  0  0  0  0  0  0  0  0  0
  183.0420  178.1970  140.9350 C   0  0  0  0  0  2  0  0  0  0  0  0
  182.5760  177.0920  139.9820 C   0  0  0  0  0  2  0  0  0  0  0  0
  181.1120  177.2350  139.6050 C   0  0  2  0  0  3  0  0  0  0  0  0
  180.3860  177.7180  140.7050 O   0  0  0  0  0  1  0  0  0  0  0  0
  180.5170  175.9250  139.1180 C   0  0  0  0  0  2  0  0  0  0  0  0
  181.9020  174.4080  137.5280 C   0  0  0  0  0  1  0  0  0  0  0  0
  181.0210  175.5890  137.7490 C   0  0  0  0  0  0  0  0  0  0  0  0
  180.6950  176.2790  136.7990 O   0  0  0  0  0  0  0  0  0  0  0  0
  1  3  1  0  0  0  0
  1  2  1  0  0  0  0
  2  4  1  0  0  0  0
  2 23  1  1  0  0  0
  3  9  1  6  0  0  0
  3  5  1  0  0  0  0
  5 36  1  1  0  0  0
  5  4  1  0  0  0  0
  6  9  1  0  0  0  0
  7  9  2  0  0  0  0
  8 10  1  0  0  0  0
  8  6  1  0  0  0  0
 10 11  1  6  0  0  0
 10  7  1  0  0  0  0
 11 12  1  1  0  0  0
 13 21  1  6  0  0  0
 14 17  1  6  0  0  0
 14 19  1  0  0  0  0
 14 13  1  0  0  0  0
 15 18  1  0  0  0  0
 15 17  1  0  0  0  0
 16 11  1  1  0  0  0
 16 19  1  0  0  0  0
 18 16  1  0  0  0  0
 19 13  1  0  0  0  0
 21 20  1  0  0  0  0
 22 23  1  0  0  0  0
 23 25  1  0  0  0  0
 24 27  1  0  0  0  0
 25 24  1  0  0  0  0
 25 28  1  0  0  0  0
 26 30  1  0  0  0  0
 27 26  2  0  0  0  0
 27 29  1  0  0  0  0
 28 26  1  0  0  0  0
 30 31  1  0  0  0  0
 32 34  2  0  0  0  0
 33 34  1  0  0  0  0
 34 35  1  0  0  0  0
 35 31  1  0  0  0  0
 36 37  1  0  0  0  0
 38 37  1  0  0  0  0
 38 40  2  0  0  0  0
 39 38  1  0  0  0  0
 41 39  1  0  0  0  0
 42 41  1  0  0  0  0
 43 42  1  0  0  0  0
 43 44  1  0  0  0  0
 45 43  1  0  0  0  0
 46 47  1  0  0  0  0
 47 45  1  0  0  0  0
 48 47  2  0  0  0  0
M  END
>  <MODEL>
4

>  <REMARK>
 VINA RESULT:      -7.2      1.435      2.067
  Name = 
  17 active torsions:
  status: ('A' for Active; 'I' for Inactive)
    1  A    between atoms: C_1  and  C_25
    2  A    between atoms: C_1  and  C_46
    3  A    between atoms: C_2  and  C_9
    4  A    between atoms: C_2  and  C_24
    5  A    between atoms: C_3  and  C_36
    6  A    between atoms: C_3  and  C_45
    7  A    between atoms: C_7  and  C_30
    8  A    between atoms: C_9  and  C_17
    9  A    between atoms: C_10  and  N_37
   10  A    between atoms: C_14  and  C_36
   11  A    between atoms: C_18  and  N_37
   12  A    between atoms: C_19  and  N_21
   13  A    between atoms: N_21  and  C_27
   14  A    between atoms: C_24  and  C_29
   15  A    between atoms: C_26  and  C_33
   16  A    between atoms: C_27  and  N_48
   17  A    between atoms: C_29  and  N_32
                            x       y       z     vdW  Elec       q    Type
                         _______ _______ _______ _____ _____    ______ ____

>  <TORSDO>
F 17

$$$$
=
 OpenBabel10232410393D

 48 52  0  0  1  0  0  0  0  0999 V2000
  190.8830  176.6460  138.4500 S   0  0  0  0  0  0  0  0  0  0  0  0
  190.8500  176.5600  136.6180 C   0  0  2  0  0  3  0  0  0  0  0  0
  189.0860  176.5890  138.4270 C   0  0  2  0  0  3  0  0  0  0  0  0
  189.6000  177.1420  136.1100 N   0  0  0  0  0  2  0  0  0  0  0  0
  188.6340  177.3280  137.1880 C   0  0  1  0  0  3  0  0  0  0  0  0
  187.6910  178.3020  139.6630 O   0  0  0  0  0  0  0  0  0  0  0  0
  189.0690  176.9910  140.8310 N   0  0  0  0  0  0  0  0  0  0  0  0
  187.5330  178.7830  140.9860 C   0  0  0  0  0  2  0  0  0  0  0  0
  188.5970  177.2630  139.6670 C   0  0  0  0  0  0  0  0  0  0  0  0
  188.5210  177.9320  141.7850 C   0  0  1  0  0  3  0  0  0  0  0  0
  187.8800  177.2510  142.9970 C   0  0  2  0  0  3  0  0  0  0  0  0
  186.6970  177.8960  143.3280 O   0  0  0  0  0  1  0  0  0  0  0  0
  191.3310  177.5540  144.5460 C   0  0  2  0  0  3  0  0  0  0  0  0
  190.5470  178.4480  145.5070 C   0  0  2  0  0  3  0  0  0  0  0  0
  188.8950  177.1050  146.6870 C   0  0  0  0  0  2  0  0  0  0  0  0
  188.7850  177.0570  144.2440 C   0  0  2  0  0  3  0  0  0  0  0  0
  190.1720  177.7540  146.6760 O   0  0  0  0  0  0  0  0  0  0  0  0
  188.0090  177.4030  145.5020 C   0  0  0  0  0  2  0  0  0  0  0  0
  189.9370  178.0570  144.1600 C   0  0  2  0  0  3  0  0  0  0  0  0
  191.9650  175.3540  143.8770 O   0  0  0  0  0  1  0  0  0  0  0  0
  191.3850  176.0750  144.9190 C   0  0  0  0  0  2  0  0  0  0  0  0
  190.4300  175.1220  134.7700 C   0  0  0  0  0  1  0  0  0  0  0  0
  190.9960  175.1800  136.1190 N   0  0  0  0  0  0  0  0  0  0  0  0
  193.3200  175.8950  135.4870 C   0  0  0  0  0  2  0  0  0  0  0  0
  192.4250  174.8010  136.0830 C   0  0  1  0  0  3  0  0  0  0  0  0
  194.3780  174.9950  137.3680 C   0  0  0  0  0  0  0  0  0  0  0  0
  194.5280  175.8020  136.3370 C   0  0  0  0  0  0  0  0  0  0  0  0
  193.0210  174.3830  137.4330 C   0  0  0  0  0  2  0  0  0  0  0  0
  195.6990  176.4910  136.0650 O   0  0  0  0  0  1  0  0  0  0  0  0
  195.3830  174.8080  138.3600 N   0  0  0  0  0  2  0  0  0  0  0  0
  196.2350  173.6220  138.3750 C   0  0  0  0  0  2  0  0  0  0  0  0
  198.7620  175.0360  138.2000 O   0  0  0  0  0  0  0  0  0  0  0  0
  199.1880  174.4240  135.9430 C   0  0  0  0  0  1  0  0  0  0  0  0
  198.3780  174.3840  137.1960 C   0  0  0  0  0  0  0  0  0  0  0  0
  197.1560  173.6250  137.2440 N   0  0  0  0  0  2  0  0  0  0  0  0
  187.2620  176.8120  136.7490 C   0  0  0  0  0  2  0  0  0  0  0  0
  187.2790  175.3130  136.5120 C   0  0  0  0  0  2  0  0  0  0  0  0
  186.0820  174.6590  137.0990 C   0  0  0  0  0  0  0  0  0  0  0  0
  184.8510  175.3880  137.1830 N   0  0  0  0  0  2  0  0  0  0  0  0
  186.1610  173.4760  137.5400 O   0  0  0  0  0  0  0  0  0  0  0  0
  183.6470  174.8610  137.8010 C   0  0  0  0  0  2  0  0  0  0  0  0
  182.6290  175.9700  138.0800 C   0  0  0  0  0  2  0  0  0  0  0  0
  182.2940  176.0870  139.5560 C   0  0  2  0  0  3  0  0  0  0  0  0
  181.1150  175.3760  139.8320 O   0  0  0  0  0  1  0  0  0  0  0  0
  182.1480  177.5340  139.9960 C   0  0  0  0  0  2  0  0  0  0  0  0
  184.2000  178.9930  139.3590 C   0  0  0  0  0  1  0  0  0  0  0  0
  183.4820  178.1240  140.3330 C   0  0  0  0  0  0  0  0  0  0  0  0
  183.9810  177.9060  141.4220 O   0  0  0  0  0  0  0  0  0  0  0  0
  2 23  1  1  0  0  0
  2  1  1  0  0  0  0
  3  1  1  0  0  0  0
  3  9  1  1  0  0  0
  4  2  1  0  0  0  0
  4  5  1  0  0  0  0
  5 36  1  6  0  0  0
  5  3  1  0  0  0  0
  6  9  1  0  0  0  0
  6  8  1  0  0  0  0
  7 10  1  0  0  0  0
  8 10  1  0  0  0  0
  9  7  2  0  0  0  0
 10 11  1  1  0  0  0
 11 12  1  1  0  0  0
 13 21  1  1  0  0  0
 13 14  1  0  0  0  0
 14 17  1  1  0  0  0
 16 11  1  6  0  0  0
 16 18  1  0  0  0  0
 17 15  1  0  0  0  0
 18 15  1  0  0  0  0
 19 16  1  0  0  0  0
 19 13  1  0  0  0  0
 19 14  1  0  0  0  0
 20 21  1  0  0  0  0
 22 23  1  0  0  0  0
 24 25  1  0  0  0  0
 24 27  1  0  0  0  0
 25 23  1  0  0  0  0
 25 28  1  0  0  0  0
 26 28  1  0  0  0  0
 26 30  1  0  0  0  0
 27 26  2  0  0  0  0
 29 27  1  0  0  0  0
 30 31  1  0  0  0  0
 33 34  1  0  0  0  0
 34 35  1  0  0  0  0
 34 32  2  0  0  0  0
 35 31  1  0  0  0  0
 37 36  1  0  0  0  0
 37 38  1  0  0  0  0
 38 39  1  0  0  0  0
 38 40  2  0  0  0  0
 39 41  1  0  0  0  0
 41 42  1  0  0  0  0
 42 43  1  0  0  0  0
 43 44  1  0  0  0  0
 43 45  1  0  0  0  0
 45 47  1  0  0  0  0
 46 47  1  0  0  0  0
 47 48  2  0  0  0  0
M  END
>  <MODEL>
5

>  <REMARK>
 VINA RESULT:      -7.2      4.072      8.803
  Name = 
  17 active torsions:
  status: ('A' for Active; 'I' for Inactive)
    1  A    between atoms: C_1  and  C_25
    2  A    between atoms: C_1  and  C_46
    3  A    between atoms: C_2  and  C_9
    4  A    between atoms: C_2  and  C_24
    5  A    between atoms: C_3  and  C_36
    6  A    between atoms: C_3  and  C_45
    7  A    between atoms: C_7  and  C_30
    8  A    between atoms: C_9  and  C_17
    9  A    between atoms: C_10  and  N_37
   10  A    between atoms: C_14  and  C_36
   11  A    between atoms: C_18  and  N_37
   12  A    between atoms: C_19  and  N_21
   13  A    between atoms: N_21  and  C_27
   14  A    between atoms: C_24  and  C_29
   15  A    between atoms: C_26  and  C_33
   16  A    between atoms: C_27  and  N_48
   17  A    between atoms: C_29  and  N_32
                            x       y       z     vdW  Elec       q    Type
                         _______ _______ _______ _____ _____    ______ ____

>  <TORSDO>
F 17

$$$$
=
 OpenBabel10232410393D

 48 52  0  0  1  0  0  0  0  0999 V2000
  187.5940  176.3500  136.0760 S   0  0  0  0  0  0  0  0  0  0  0  0
  186.5670  177.7060  136.7620 C   0  0  2  0  0  3  0  0  0  0  0  0
  188.8310  176.7340  137.3230 C   0  0  2  0  0  3  0  0  0  0  0  0
  187.4270  178.7250  137.3790 N   0  0  0  0  0  2  0  0  0  0  0  0
  188.7900  178.2300  137.5430 C   0  0  1  0  0  3  0  0  0  0  0  0
  190.5910  176.5740  135.5100 O   0  0  0  0  0  0  0  0  0  0  0  0
  190.9570  175.5510  137.4600 N   0  0  0  0  0  0  0  0  0  0  0  0
  191.8330  175.9300  135.2950 C   0  0  0  0  0  2  0  0  0  0  0  0
  190.1590  176.3040  136.7900 C   0  0  0  0  0  0  0  0  0  0  0  0
  192.0630  175.1730  136.6040 C   0  0  1  0  0  3  0  0  0  0  0  0
  193.4300  175.4620  137.2300 C   0  0  2  0  0  3  0  0  0  0  0  0
  193.7820  176.7840  137.0020 O   0  0  0  0  0  1  0  0  0  0  0  0
  196.9700  174.2640  137.8900 C   0  0  2  0  0  3  0  0  0  0  0  0
  196.2170  172.9520  138.1120 C   0  0  2  0  0  3  0  0  0  0  0  0
  195.1650  172.2670  136.0260 C   0  0  0  0  0  2  0  0  0  0  0  0
  194.5850  174.4960  136.8510 C   0  0  2  0  0  3  0  0  0  0  0  0
  196.2430  172.1360  136.9610 O   0  0  0  0  0  0  0  0  0  0  0  0
  194.0190  173.1370  136.4790 C   0  0  0  0  0  2  0  0  0  0  0  0
  195.4520  174.2760  138.0900 C   0  0  2  0  0  3  0  0  0  0  0  0
  197.6350  175.8990  136.2850 O   0  0  0  0  0  1  0  0  0  0  0  0
  197.4170  174.5330  136.4560 C   0  0  0  0  0  2  0  0  0  0  0  0
  185.1620  178.3590  138.5680 C   0  0  0  0  0  1  0  0  0  0  0  0
  185.5850  177.2210  137.7500 N   0  0  0  0  0  0  0  0  0  0  0  0
  184.1740  175.1670  137.4300 C   0  0  0  0  0  2  0  0  0  0  0  0
  184.4150  176.6360  137.0590 C   0  0  1  0  0  3  0  0  0  0  0  0
  182.1190  176.2820  137.3810 C   0  0  0  0  0  0  0  0  0  0  0  0
  182.6960  175.1010  137.4820 C   0  0  0  0  0  0  0  0  0  0  0  0
  183.0970  177.3970  137.2530 C   0  0  0  0  0  2  0  0  0  0  0  0
  181.9960  173.9130  137.6150 O   0  0  0  0  0  1  0  0  0  0  0  0
  180.7100  176.4680  137.4790 N   0  0  0  0  0  2  0  0  0  0  0  0
  180.1340  177.6750  138.0660 C   0  0  0  0  0  2  0  0  0  0  0  0
  181.7330  179.6400  139.4800 O   0  0  0  0  0  0  0  0  0  0  0  0
  181.5170  178.5950  141.6040 C   0  0  0  0  0  1  0  0  0  0  0  0
  181.2220  178.7020  140.1450 C   0  0  0  0  0  0  0  0  0  0  0  0
  180.3800  177.7280  139.5030 N   0  0  0  0  0  2  0  0  0  0  0  0
  189.2950  178.5600  138.9500 C   0  0  0  0  0  2  0  0  0  0  0  0
  188.8000  177.5530  139.9710 C   0  0  0  0  0  2  0  0  0  0  0  0
  189.8950  177.1180  140.8750 C   0  0  0  0  0  0  0  0  0  0  0  0
  189.5880  176.7440  142.2240 N   0  0  0  0  0  2  0  0  0  0  0  0
  191.0900  177.1000  140.4580 O   0  0  0  0  0  0  0  0  0  0  0  0
  190.5960  176.3710  143.2020 C   0  0  0  0  0  2  0  0  0  0  0  0
  190.9640  177.5510  144.1040 C   0  0  0  0  0  2  0  0  0  0  0  0
  190.7800  177.2310  145.5770 C   0  0  2  0  0  3  0  0  0  0  0  0
  191.6020  176.1490  145.9320 O   0  0  0  0  0  1  0  0  0  0  0  0
  189.3330  176.9230  145.9190 C   0  0  0  0  0  2  0  0  0  0  0  0
  187.5400  178.0310  147.4370 C   0  0  0  0  0  1  0  0  0  0  0  0
  188.9400  177.5780  147.2070 C   0  0  0  0  0  0  0  0  0  0  0  0
  189.7710  177.7290  148.0850 O   0  0  0  0  0  0  0  0  0  0  0  0
  1  2  1  0  0  0  0
  1  3  1  0  0  0  0
  2  4  1  0  0  0  0
  2 23  1  1  0  0  0
  3  9  1  6  0  0  0
  3  5  1  0  0  0  0
  4  5  1  0  0  0  0
  5 36  1  1  0  0  0
  6  9  1  0  0  0  0
  8  6  1  0  0  0  0
  8 10  1  0  0  0  0
  9  7  2  0  0  0  0
 10 11  1  1  0  0  0
 10  7  1  0  0  0  0
 11 12  1  6  0  0  0
 13 21  1  6  0  0  0
 13 19  1  0  0  0  0
 13 14  1  0  0  0  0
 14 17  1  6  0  0  0
 15 18  1  0  0  0  0
 15 17  1  0  0  0  0
 16 11  1  1  0  0  0
 16 19  1  0  0  0  0
 18 16  1  0  0  0  0
 19 14  1  0  0  0  0
 20 21  1  0  0  0  0
 23 22  1  0  0  0  0
 24 27  1  0  0  0  0
 25 28  1  0  0  0  0
 25 24  1  0  0  0  0
 25 23  1  0  0  0  0
 26 30  1  0  0  0  0
 26 27  2  0  0  0  0
 27 29  1  0  0  0  0
 28 26  1  0  0  0  0
 30 31  1  0  0  0  0
 31 35  1  0  0  0  0
 32 34  2  0  0  0  0
 34 33  1  0  0  0  0
 35 34  1  0  0  0  0
 36 37  1  0  0  0  0
 37 38  1  0  0  0  0
 38 39  1  0  0  0  0
 39 41  1  0  0  0  0
 40 38  2  0  0  0  0
 41 42  1  0  0  0  0
 42 43  1  0  0  0  0
 43 45  1  0  0  0  0
 43 44  1  0  0  0  0
 45 47  1  0  0  0  0
 47 46  1  0  0  0  0
 47 48  2  0  0  0  0
M  END
>  <MODEL>
6

>  <REMARK>
 VINA RESULT:      -6.9      3.870      8.901
  Name = 
  17 active torsions:
  status: ('A' for Active; 'I' for Inactive)
    1  A    between atoms: C_1  and  C_25
    2  A    between atoms: C_1  and  C_46
    3  A    between atoms: C_2  and  C_9
    4  A    between atoms: C_2  and  C_24
    5  A    between atoms: C_3  and  C_36
    6  A    between atoms: C_3  and  C_45
    7  A    between atoms: C_7  and  C_30
    8  A    between atoms: C_9  and  C_17
    9  A    between atoms: C_10  and  N_37
   10  A    between atoms: C_14  and  C_36
   11  A    between atoms: C_18  and  N_37
   12  A    between atoms: C_19  and  N_21
   13  A    between atoms: N_21  and  C_27
   14  A    between atoms: C_24  and  C_29
   15  A    between atoms: C_26  and  C_33
   16  A    between atoms: C_27  and  N_48
   17  A    between atoms: C_29  and  N_32
                            x       y       z     vdW  Elec       q    Type
                         _______ _______ _______ _____ _____    ______ ____

>  <TORSDO>
F 17

$$$$
=
 OpenBabel10232410393D

 48 52  0  0  1  0  0  0  0  0999 V2000
  186.8640  178.0450  138.4940 S   0  0  0  0  0  0  0  0  0  0  0  0
  187.0850  178.7870  140.1570 C   0  0  2  0  0  3  0  0  0  0  0  0
  188.2890  177.0020  138.8340 C   0  0  2  0  0  3  0  0  0  0  0  0
  188.4970  178.7130  140.5560 N   0  0  0  0  0  2  0  0  0  0  0  0
  189.2420  177.8150  139.6800 C   0  0  1  0  0  3  0  0  0  0  0  0
  189.6560  177.5110  136.7650 O   0  0  0  0  0  0  0  0  0  0  0  0
  188.6910  175.5070  136.9510 N   0  0  0  0  0  0  0  0  0  0  0  0
  189.9900  176.8890  135.5370 C   0  0  0  0  0  2  0  0  0  0  0  0
  188.9060  176.6380  137.5230 C   0  0  0  0  0  0  0  0  0  0  0  0
  189.2800  175.5380  135.6290 C   0  0  1  0  0  3  0  0  0  0  0  0
  190.2120  174.3530  135.3610 C   0  0  2  0  0  3  0  0  0  0  0  0
  189.7960  173.2520  136.0960 O   0  0  0  0  0  1  0  0  0  0  0  0
  193.1740  174.6180  137.7180 C   0  0  2  0  0  3  0  0  0  0  0  0
  193.6780  173.4970  136.8090 C   0  0  2  0  0  3  0  0  0  0  0  0
  193.9540  174.3570  134.5490 C   0  0  0  0  0  2  0  0  0  0  0  0
  191.7320  174.6110  135.5400 C   0  0  2  0  0  3  0  0  0  0  0  0
  194.5380  173.9880  135.8040 O   0  0  0  0  0  0  0  0  0  0  0  0
  192.4990  173.9970  134.3820 C   0  0  0  0  0  2  0  0  0  0  0  0
  192.1980  173.8800  136.7990 C   0  0  2  0  0  3  0  0  0  0  0  0
  193.5630  176.8790  138.3740 O   0  0  0  0  0  1  0  0  0  0  0  0
  193.5130  176.0360  137.2650 C   0  0  0  0  0  2  0  0  0  0  0  0
  186.9090  178.2790  142.4740 C   0  0  0  0  0  1  0  0  0  0  0  0
  186.2440  178.1350  141.1780 N   0  0  0  0  0  0  0  0  0  0  0  0
  184.5520  179.5000  139.9190 C   0  0  0  0  0  2  0  0  0  0  0  0
  184.9110  178.7730  141.2220 C   0  0  1  0  0  3  0  0  0  0  0  0
  182.6760  178.3240  140.6710 C   0  0  0  0  0  0  0  0  0  0  0  0
  183.1080  179.2030  139.7890 C   0  0  0  0  0  0  0  0  0  0  0  0
  183.7510  177.8330  141.5770 C   0  0  0  0  0  2  0  0  0  0  0  0
  182.2960  179.7990  138.8390 O   0  0  0  0  0  1  0  0  0  0  0  0
  181.3380  177.8340  140.6870 N   0  0  0  0  0  2  0  0  0  0  0  0
  180.8750  176.8370  139.7260 C   0  0  0  0  0  2  0  0  0  0  0  0
  182.1290  176.5900  137.1210 O   0  0  0  0  0  0  0  0  0  0  0  0
  183.5110  174.7540  137.7290 C   0  0  0  0  0  1  0  0  0  0  0  0
  182.5040  175.8120  138.0360 C   0  0  0  0  0  0  0  0  0  0  0  0
  181.9510  175.9230  139.3590 N   0  0  0  0  0  2  0  0  0  0  0  0
  190.1160  176.8790  140.5190 C   0  0  0  0  0  2  0  0  0  0  0  0
  191.1240  177.6520  141.3490 C   0  0  0  0  0  2  0  0  0  0  0  0
  190.9850  177.3420  142.7950 C   0  0  0  0  0  0  0  0  0  0  0  0
  190.2580  178.2420  143.6410 N   0  0  0  0  0  2  0  0  0  0  0  0
  191.5220  176.3010  143.2730 O   0  0  0  0  0  0  0  0  0  0  0  0
  190.1250  178.0620  145.0760 C   0  0  0  0  0  2  0  0  0  0  0  0
  188.8850  177.2330  145.4240 C   0  0  0  0  0  2  0  0  0  0  0  0
  187.9350  177.9760  146.3470 C   0  0  2  0  0  3  0  0  0  0  0  0
  188.3510  177.8190  147.6780 O   0  0  0  0  0  1  0  0  0  0  0  0
  186.4990  177.5070  146.1880 C   0  0  0  0  0  2  0  0  0  0  0  0
  184.4650  178.7840  145.1980 C   0  0  0  0  0  1  0  0  0  0  0  0
  185.5550  178.6690  146.2070 C   0  0  0  0  0  0  0  0  0  0  0  0
  185.6680  179.5250  147.0660 O   0  0  0  0  0  0  0  0  0  0  0  0
  1  3  1  0  0  0  0
  1  2  1  0  0  0  0
  2  4  1  0  0  0  0
  2 23  1  1  0  0  0
  3  9  1  6  0  0  0
  3  5  1  0  0  0  0
  5 36  1  1  0  0  0
  5  4  1  0  0  0  0
  6  9  1  0  0  0  0
  7  9  2  0  0  0  0
  8 10  1  0  0  0  0
  8  6  1  0  0  0  0
 10 11  1  1  0  0  0
 10  7  1  0  0  0  0
 11 12  1  1  0  0  0
 13 21  1  6  0  0  0
 14 17  1  6  0  0  0
 14 13  1  0  0  0  0
 15 17  1  0  0  0  0
 16 11  1  6  0  0  0
 16 19  1  0  0  0  0
 18 15  1  0  0  0  0
 18 16  1  0  0  0  0
 19 14  1  0  0  0  0
 19 13  1  0  0  0  0
 21 20  1  0  0  0  0
 23 25  1  0  0  0  0
 23 22  1  0  0  0  0
 24 25  1  0  0  0  0
 25 28  1  0  0  0  0
 26 30  1  0  0  0  0
 26 28  1  0  0  0  0
 27 24  1  0  0  0  0
 27 26  2  0  0  0  0
 29 27  1  0  0  0  0
 31 30  1  0  0  0  0
 32 34  2  0  0  0  0
 33 34  1  0  0  0  0
 34 35  1  0  0  0  0
 35 31  1  0  0  0  0
 36 37  1  0  0  0  0
 37 38  1  0  0  0  0
 38 40  2  0  0  0  0
 38 39  1  0  0  0  0
 39 41  1  0  0  0  0
 41 42  1  0  0  0  0
 42 43  1  0  0  0  0
 43 44  1  0  0  0  0
 45 47  1  0  0  0  0
 45 43  1  0  0  0  0
 46 47  1  0  0  0  0
 47 48  2  0  0  0  0
M  END
>  <MODEL>
7

>  <REMARK>
 VINA RESULT:      -6.9      2.674      7.520
  Name = 
  17 active torsions:
  status: ('A' for Active; 'I' for Inactive)
    1  A    between atoms: C_1  and  C_25
    2  A    between atoms: C_1  and  C_46
    3  A    between atoms: C_2  and  C_9
    4  A    between atoms: C_2  and  C_24
    5  A    between atoms: C_3  and  C_36
    6  A    between atoms: C_3  and  C_45
    7  A    between atoms: C_7  and  C_30
    8  A    between atoms: C_9  and  C_17
    9  A    between atoms: C_10  and  N_37
   10  A    between atoms: C_14  and  C_36
   11  A    between atoms: C_18  and  N_37
   12  A    between atoms: C_19  and  N_21
   13  A    between atoms: N_21  and  C_27
   14  A    between atoms: C_24  and  C_29
   15  A    between atoms: C_26  and  C_33
   16  A    between atoms: C_27  and  N_48
   17  A    between atoms: C_29  and  N_32
                            x       y       z     vdW  Elec       q    Type
                         _______ _______ _______ _____ _____    ______ ____

>  <TORSDO>
F 17

$$$$
=
 OpenBabel10232410393D

 48 52  0  0  1  0  0  0  0  0999 V2000
  190.3870  175.9380  135.8410 S   0  0  0  0  0  0  0  0  0  0  0  0
  191.5630  175.5230  137.1860 C   0  0  2  0  0  3  0  0  0  0  0  0
  189.6100  177.1110  136.9600 C   0  0  2  0  0  3  0  0  0  0  0  0
  190.9320  175.7550  138.4930 N   0  0  0  0  0  2  0  0  0  0  0  0
  189.7010  176.5240  138.3510 C   0  0  1  0  0  3  0  0  0  0  0  0
  187.7980  177.4330  135.2210 O   0  0  0  0  0  0  0  0  0  0  0  0
  187.2230  177.3710  137.3760 N   0  0  0  0  0  0  0  0  0  0  0  0
  186.4030  177.6680  135.1770 C   0  0  0  0  0  2  0  0  0  0  0  0
  188.1870  177.2690  136.5330 C   0  0  0  0  0  0  0  0  0  0  0  0
  186.0080  177.6900  136.6550 C   0  0  1  0  0  3  0  0  0  0  0  0
  184.8520  176.7410  136.9800 C   0  0  2  0  0  3  0  0  0  0  0  0
  184.0270  176.6090  135.8720 O   0  0  0  0  0  1  0  0  0  0  0  0
  183.4220  179.3680  139.3160 C   0  0  2  0  0  3  0  0  0  0  0  0
  182.1260  178.6670  138.9060 C   0  0  2  0  0  3  0  0  0  0  0  0
  182.1740  176.3640  139.6920 C   0  0  0  0  0  2  0  0  0  0  0  0
  184.0320  177.0590  138.2600 C   0  0  2  0  0  3  0  0  0  0  0  0
  181.7230  177.7130  139.8640 O   0  0  0  0  0  0  0  0  0  0  0  0
  182.8790  176.0790  138.3880 C   0  0  0  0  0  2  0  0  0  0  0  0
  183.4040  178.4420  138.0970 C   0  0  2  0  0  3  0  0  0  0  0  0
  185.2680  179.5340  140.8180 O   0  0  0  0  0  1  0  0  0  0  0  0
  184.1270  178.7840  140.5380 C   0  0  0  0  0  2  0  0  0  0  0  0
  193.5260  176.1640  138.3670 C   0  0  0  0  0  1  0  0  0  0  0  0
  192.8150  176.2960  137.0940 N   0  0  0  0  0  0  0  0  0  0  0  0
  194.8140  176.7120  135.6300 C   0  0  0  0  0  2  0  0  0  0  0  0
  193.6540  175.7750  135.9920 C   0  0  1  0  0  3  0  0  0  0  0  0
  195.5980  174.5090  135.6470 C   0  0  0  0  0  0  0  0  0  0  0  0
  195.9050  175.7540  135.3420 C   0  0  0  0  0  0  0  0  0  0  0  0
  194.2310  174.3720  136.2210 C   0  0  0  0  0  2  0  0  0  0  0  0
  197.1210  176.1330  134.7980 O   0  0  0  0  0  1  0  0  0  0  0  0
  196.5200  173.4290  135.5230 N   0  0  0  0  0  2  0  0  0  0  0  0
  197.3680  173.0140  136.6370 C   0  0  0  0  0  2  0  0  0  0  0  0
  195.6780  172.9240  138.9930 O   0  0  0  0  0  0  0  0  0  0  0  0
  196.3780  175.0340  139.8330 C   0  0  0  0  0  1  0  0  0  0  0  0
  196.4340  173.9180  138.8440 C   0  0  0  0  0  0  0  0  0  0  0  0
  197.3290  173.9900  137.7190 N   0  0  0  0  0  2  0  0  0  0  0  0
  189.6680  177.6480  139.3890 C   0  0  0  0  0  2  0  0  0  0  0  0
  190.6590  177.3990  140.5120 C   0  0  0  0  0  2  0  0  0  0  0  0
  189.9680  176.9920  141.7620 C   0  0  0  0  0  0  0  0  0  0  0  0
  189.1460  177.9410  142.4530 N   0  0  0  0  0  2  0  0  0  0  0  0
  190.1240  175.8220  142.2180 O   0  0  0  0  0  0  0  0  0  0  0  0
  188.4860  177.6600  143.7170 C   0  0  0  0  0  2  0  0  0  0  0  0
  187.0900  177.0710  143.4990 C   0  0  0  0  0  2  0  0  0  0  0  0
  186.0640  177.6520  144.4560 C   0  0  2  0  0  3  0  0  0  0  0  0
  185.6860  178.9330  144.0230 O   0  0  0  0  0  1  0  0  0  0  0  0
  186.5820  177.7130  145.8820 C   0  0  0  0  0  2  0  0  0  0  0  0
  186.3150  179.7500  147.4720 C   0  0  0  0  0  1  0  0  0  0  0  0
  185.7230  178.6070  146.7220 C   0  0  0  0  0  0  0  0  0  0  0  0
  184.5230  178.4090  146.7820 O   0  0  0  0  0  0  0  0  0  0  0  0
  1  3  1  0  0  0  0
  1  2  1  0  0  0  0
  2 23  1  6  0  0  0
  2  4  1  0  0  0  0
  3  9  1  6  0  0  0
  3  5  1  0  0  0  0
  5  4  1  0  0  0  0
  5 36  1  1  0  0  0
  6  9  1  0  0  0  0
  8  6  1  0  0  0  0
  8 10  1  0  0  0  0
  9  7  2  0  0  0  0
 10 11  1  6  0  0  0
 10  7  1  0  0  0  0
 11 12  1  6  0  0  0
 13 21  1  1  0  0  0
 14 13  1  0  0  0  0
 14 17  1  1  0  0  0
 15 17  1  0  0  0  0
 16 11  1  6  0  0  0
 16 18  1  0  0  0  0
 18 15  1  0  0  0  0
 19 16  1  0  0  0  0
 19 14  1  0  0  0  0
 19 13  1  0  0  0  0
 21 20  1  0  0  0  0
 23 22  1  0  0  0  0
 24 25  1  0  0  0  0
 25 28  1  0  0  0  0
 25 23  1  0  0  0  0
 26 28  1  0  0  0  0
 27 24  1  0  0  0  0
 27 26  2  0  0  0  0
 29 27  1  0  0  0  0
 30 26  1  0  0  0  0
 30 31  1  0  0  0  0
 31 35  1  0  0  0  0
 34 32  2  0  0  0  0
 34 33  1  0  0  0  0
 35 34  1  0  0  0  0
 36 37  1  0  0  0  0
 37 38  1  0  0  0  0
 38 40  2  0  0  0  0
 38 39  1  0  0  0  0
 39 41  1  0  0  0  0
 42 41  1  0  0  0  0
 42 43  1  0  0  0  0
 43 45  1  0  0  0  0
 44 43  1  0  0  0  0
 45 47  1  0  0  0  0
 47 48  2  0  0  0  0
 47 46  1  0  0  0  0
M  END
>  <MODEL>
8

>  <REMARK>
 VINA RESULT:      -6.9      4.274      8.642
  Name = 
  17 active torsions:
  status: ('A' for Active; 'I' for Inactive)
    1  A    between atoms: C_1  and  C_25
    2  A    between atoms: C_1  and  C_46
    3  A    between atoms: C_2  and  C_9
    4  A    between atoms: C_2  and  C_24
    5  A    between atoms: C_3  and  C_36
    6  A    between atoms: C_3  and  C_45
    7  A    between atoms: C_7  and  C_30
    8  A    between atoms: C_9  and  C_17
    9  A    between atoms: C_10  and  N_37
   10  A    between atoms: C_14  and  C_36
   11  A    between atoms: C_18  and  N_37
   12  A    between atoms: C_19  and  N_21
   13  A    between atoms: N_21  and  C_27
   14  A    between atoms: C_24  and  C_29
   15  A    between atoms: C_26  and  C_33
   16  A    between atoms: C_27  and  N_48
   17  A    between atoms: C_29  and  N_32
                            x       y       z     vdW  Elec       q    Type
                         _______ _______ _______ _____ _____    ______ ____

>  <TORSDO>
F 17

$$$$
=
 OpenBabel10232410393D

 48 52  0  0  1  0  0  0  0  0999 V2000
  187.0410  176.5490  135.6940 S   0  0  0  0  0  0  0  0  0  0  0  0
  186.0440  177.8280  136.5490 C   0  0  2  0  0  3  0  0  0  0  0  0
  187.9580  176.3220  137.2240 C   0  0  2  0  0  3  0  0  0  0  0  0
  186.8350  178.4480  137.6210 N   0  0  0  0  0  2  0  0  0  0  0  0
  188.0410  177.6750  137.8950 C   0  0  1  0  0  3  0  0  0  0  0  0
  189.9270  176.0550  135.6550 O   0  0  0  0  0  0  0  0  0  0  0  0
  189.9730  175.0140  137.6290 N   0  0  0  0  0  0  0  0  0  0  0  0
  191.1460  175.3360  135.6000 C   0  0  0  0  0  2  0  0  0  0  0  0
  189.3150  175.8120  136.8660 C   0  0  0  0  0  0  0  0  0  0  0  0
  191.1570  174.5690  136.9220 C   0  0  1  0  0  3  0  0  0  0  0  0
  192.4450  174.7760  137.7240 C   0  0  2  0  0  3  0  0  0  0  0  0
  192.6120  176.1240  138.0050 O   0  0  0  0  0  1  0  0  0  0  0  0
  196.2050  174.3280  137.9720 C   0  0  2  0  0  3  0  0  0  0  0  0
  195.7750  172.8620  138.0290 C   0  0  2  0  0  3  0  0  0  0  0  0
  194.7030  172.2570  135.9280 C   0  0  0  0  0  2  0  0  0  0  0  0
  193.7400  174.1590  137.1280 C   0  0  2  0  0  3  0  0  0  0  0  0
  195.8670  172.2430  136.7640 O   0  0  0  0  0  0  0  0  0  0  0  0
  193.4450  172.7730  136.5810 C   0  0  0  0  0  2  0  0  0  0  0  0
  194.7460  173.9690  138.2620 C   0  0  2  0  0  3  0  0  0  0  0  0
  197.5120  175.7890  136.6120 O   0  0  0  0  0  1  0  0  0  0  0  0
  196.4480  174.8890  136.5730 C   0  0  0  0  0  2  0  0  0  0  0  0
  185.0830  175.9670  137.6790 C   0  0  0  0  0  1  0  0  0  0  0  0
  184.7920  177.2830  137.1070 N   0  0  0  0  0  0  0  0  0  0  0  0
  182.9490  178.8600  137.7630 C   0  0  0  0  0  2  0  0  0  0  0  0
  184.2690  178.1830  138.1570 C   0  0  1  0  0  3  0  0  0  0  0  0
  182.8040  178.1610  139.9890 C   0  0  0  0  0  0  0  0  0  0  0  0
  182.2070  178.8580  139.0420 C   0  0  0  0  0  0  0  0  0  0  0  0
  184.0760  177.5340  139.5340 C   0  0  0  0  0  2  0  0  0  0  0  0
  181.0090  179.5290  139.2230 O   0  0  0  0  0  1  0  0  0  0  0  0
  182.2350  177.9600  141.2800 N   0  0  0  0  0  2  0  0  0  0  0  0
  182.5590  178.8330  142.4050 C   0  0  0  0  0  2  0  0  0  0  0  0
  183.3890  179.1620  145.1650 O   0  0  0  0  0  0  0  0  0  0  0  0
  185.6340  178.4760  144.7910 C   0  0  0  0  0  1  0  0  0  0  0  0
  184.2340  178.7280  144.3410 C   0  0  0  0  0  0  0  0  0  0  0  0
  183.8620  178.5000  142.9700 N   0  0  0  0  0  2  0  0  0  0  0  0
  188.2090  177.4930  139.4060 C   0  0  0  0  0  2  0  0  0  0  0  0
  189.5220  178.0750  139.8950 C   0  0  0  0  0  2  0  0  0  0  0  0
  190.0210  177.3500  141.0920 C   0  0  0  0  0  0  0  0  0  0  0  0
  189.0910  176.9250  142.0960 N   0  0  0  0  0  2  0  0  0  0  0  0
  191.2600  177.1330  141.2280 O   0  0  0  0  0  0  0  0  0  0  0  0
  189.4880  176.2720  143.3310 C   0  0  0  0  0  2  0  0  0  0  0  0
  188.9970  177.0460  144.5570 C   0  0  0  0  0  2  0  0  0  0  0  0
  190.1170  177.8050  145.2470 C   0  0  2  0  0  3  0  0  0  0  0  0
  190.5130  178.8910  144.4510 O   0  0  0  0  0  1  0  0  0  0  0  0
  191.3100  176.9140  145.5470 C   0  0  0  0  0  2  0  0  0  0  0  0
  192.2960  175.5020  147.4920 C   0  0  0  0  0  1  0  0  0  0  0  0
  191.3210  176.5090  146.9890 C   0  0  0  0  0  0  0  0  0  0  0  0
  190.5330  177.0200  147.7660 O   0  0  0  0  0  0  0  0  0  0  0  0
  1  2  1  0  0  0  0
  1  3  1  0  0  0  0
  2 23  1  1  0  0  0
  2  4  1  0  0  0  0
  3  9  1  6  0  0  0
  3  5  1  0  0  0  0
  4  5  1  0  0  0  0
  5 36  1  1  0  0  0
  6  9  1  0  0  0  0
  8  6  1  0  0  0  0
  8 10  1  0  0  0  0
  9  7  2  0  0  0  0
 10  7  1  0  0  0  0
 10 11  1  1  0  0  0
 11 12  1  6  0  0  0
 13 21  1  6  0  0  0
 13 14  1  0  0  0  0
 13 19  1  0  0  0  0
 14 17  1  6  0  0  0
 14 19  1  0  0  0  0
 15 18  1  0  0  0  0
 15 17  1  0  0  0  0
 16 11  1  1  0  0  0
 16 19  1  0  0  0  0
 18 16  1  0  0  0  0
 21 20  1  0  0  0  0
 23 22  1  0  0  0  0
 23 25  1  0  0  0  0
 24 25  1  0  0  0  0
 24 27  1  0  0  0  0
 25 28  1  0  0  0  0
 26 30  1  0  0  0  0
 27 29  1  0  0  0  0
 27 26  2  0  0  0  0
 28 26  1  0  0  0  0
 30 31  1  0  0  0  0
 31 35  1  0  0  0  0
 34 33  1  0  0  0  0
 34 32  2  0  0  0  0
 35 34  1  0  0  0  0
 36 37  1  0  0  0  0
 37 38  1  0  0  0  0
 38 40  2  0  0  0  0
 38 39  1  0  0  0  0
 39 41  1  0  0  0  0
 41 42  1  0  0  0  0
 42 43  1  0  0  0  0
 43 45  1  0  0  0  0
 44 43  1  0  0  0  0
 45 47  1  0  0  0  0
 47 46  1  0  0  0  0
 47 48  2  0  0  0  0
M  END
>  <MODEL>
9

>  <REMARK>
 VINA RESULT:      -6.9      3.584      8.167
  Name = 
  17 active torsions:
  status: ('A' for Active; 'I' for Inactive)
    1  A    between atoms: C_1  and  C_25
    2  A    between atoms: C_1  and  C_46
    3  A    between atoms: C_2  and  C_9
    4  A    between atoms: C_2  and  C_24
    5  A    between atoms: C_3  and  C_36
    6  A    between atoms: C_3  and  C_45
    7  A    between atoms: C_7  and  C_30
    8  A    between atoms: C_9  and  C_17
    9  A    between atoms: C_10  and  N_37
   10  A    between atoms: C_14  and  C_36
   11  A    between atoms: C_18  and  N_37
   12  A    between atoms: C_19  and  N_21
   13  A    between atoms: N_21  and  C_27
   14  A    between atoms: C_24  and  C_29
   15  A    between atoms: C_26  and  C_33
   16  A    between atoms: C_27  and  N_48
   17  A    between atoms: C_29  and  N_32
                            x       y       z     vdW  Elec       q    Type
                         _______ _______ _______ _____ _____    ______ ____

>  <TORSDO>
F 17

$$$$
