=
 OpenBabel10232409323D

 53 59  0  0  1  0  0  0  0  0999 V2000
  189.3060  176.7830  140.8200 N   0  0  0  0  0  0  0  0  0  0  0  0
  189.7690  177.8460  143.0120 C   0  0  0  0  0  0  0  0  0  0  0  0
  191.7370  179.0350  143.9100 C   0  0  0  0  0  1  0  0  0  0  0  0
  191.9790  177.6810  141.8200 C   0  0  0  0  0  3  0  0  0  0  0  0
  191.6290  177.3890  140.5730 C   0  0  0  0  0  3  0  0  0  0  0  0
  189.0810  176.8990  142.0940 C   0  0  0  0  0  3  0  0  0  0  0  0
  190.2460  177.6030  140.0680 C   0  0  1  0  0  3  0  0  0  0  0  0
  191.0740  178.1880  142.8720 C   0  0  0  0  0  0  0  0  0  0  0  0
  188.7880  177.6150  138.0260 C   0  0  0  0  0  2  0  0  0  0  0  0
  188.2550  176.3050  137.5800 C   0  0  0  0  0  0  0  0  0  0  0  0
  190.1760  177.2930  138.5710 C   0  0  2  0  0  3  0  0  0  0  0  0
  190.4490  175.8160  138.2660 C   0  0  0  0  0  3  0  0  0  0  0  0
  187.0450  176.0900  137.0100 C   0  0  0  0  0  0  0  0  0  0  0  0
  189.2100  175.2730  137.7520 N   0  0  0  0  0  0  0  0  0  0  0  0
  186.3210  172.4450  135.3980 S   0  0  0  0  0  0  0  0  0  0  0  0
  184.2080  172.2880  137.1380 C   0  0  0  0  0  1  0  0  0  0  0  0
  186.9090  174.1260  135.5080 C   0  0  0  0  0  3  0  0  0  0  0  0
  185.9340  173.9000  137.5520 O   0  0  0  0  0  0  0  0  0  0  0  0
  186.6210  174.7080  136.6590 C   0  0  0  0  0  0  0  0  0  0  0  0
  185.6950  172.5740  137.1110 C   0  0  2  0  0  3  0  0  0  0  0  0
  186.2900  177.9020  135.6610 O   0  0  0  0  0  0  0  0  0  0  0  0
  186.0970  177.1960  136.6910 C   0  0  0  0  0  0  0  0  0  0  0  0
  184.9470  177.4500  137.5070 N   0  0  0  0  0  0  0  0  0  0  0  0
  183.7490  177.5130  137.0130 C   0  0  0  0  0  3  0  0  0  0  0  0
  182.5810  177.7490  137.9020 C   0  0  0  0  0  2  0  0  0  0  0  0
  181.3540  178.0610  137.0720 C   0  0  0  0  0  2  0  0  0  0  0  0
  180.6690  181.6300  135.6910 C   0  0  0  0  0  2  0  0  0  0  0  0
  180.7730  180.1400  135.7810 C   0  0  0  0  0  0  0  0  0  0  0  0
  180.3300  182.2520  137.0440 C   0  0  0  0  0  2  0  0  0  0  0  0
  180.9760  180.2070  138.2960 C   0  0  0  0  0  2  0  0  0  0  0  0
  181.2510  181.7010  138.1250 C   0  0  0  0  0  2  0  0  0  0  0  0
  180.6210  179.4560  134.7310 O   0  0  0  0  0  0  0  0  0  0  0  0
  181.1290  179.5010  137.0270 N   0  0  0  0  0  0  0  0  0  0  0  0
  189.1640  177.8310  145.4090 C   0  0  0  0  0  0  0  0  0  0  0  0
  189.0810  178.3000  144.1960 N   0  0  0  0  0  0  0  0  0  0  0  0
  188.3750  178.5000  146.4850 C   0  0  0  0  0  2  0  0  0  0  0  0
  187.2890  177.5700  146.9820 C   0  0  0  0  0  2  0  0  0  0  0  0
  186.3570  177.3030  145.8980 N   0  0  0  0  0  2  0  0  0  0  0  0
  183.9910  178.1930  146.7320 O   0  0  0  0  0  0  0  0  0  0  0  0
  185.7870  179.8370  146.4360 O   0  0  0  0  0  0  0  0  0  0  0  0
  185.1760  178.5760  145.8860 S   0  0  0  0  0  0  0  0  0  0  0  0
  183.2190  179.0630  143.9620 C   0  0  0  0  0  3  0  0  0  0  0  0
  185.1490  179.1530  141.8360 C   0  0  0  0  0  2  0  0  0  0  0  0
  183.6630  178.1970  141.4020 S   0  0  0  0  0  0  0  0  0  0  0  0
  182.6970  178.8960  142.7490 C   0  0  0  0  0  3  0  0  0  0  0  0
  184.6490  178.8360  144.2320 C   0  0  0  0  0  0  0  0  0  0  0  0
  185.5490  178.8530  143.2460 C   0  0  0  0  0  3  0  0  0  0  0  0
  189.9640  176.7210  145.7090 O   0  0  0  0  0  0  0  0  0  0  0  0
  192.6190  175.6350  148.0890 O   0  0  0  0  0  0  0  0  0  0  0  0
  192.6190  175.1590  146.8030 C   0  0  0  0  0  2  0  0  0  0  0  0
  191.3830  175.7630  147.4010 C   0  0  1  0  0  0  0  0  0  0  0  0
  191.0840  177.2340  147.7250 C   0  0  0  0  0  2  0  0  0  0  0  0
  191.2400  176.8480  146.3180 C   0  0  2  0  0  3  0  0  0  0  0  0
  1  6  2  0  0  0  0
  2 35  1  0  0  0  0
  4  8  1  0  0  0  0
  5  4  2  0  0  0  0
  6  2  1  0  0  0  0
  7  5  1  1  0  0  0
  7  1  1  0  0  0  0
  8  2  2  0  0  0  0
  8  3  1  0  0  0  0
 10 14  1  0  0  0  0
 10  9  1  0  0  0  0
 11  9  1  1  0  0  0
 11  7  1  0  0  0  0
 12 11  1  0  0  0  0
 13 10  2  0  0  0  0
 14 12  2  0  0  0  0
 15 17  1  0  0  0  0
 15 20  1  0  0  0  0
 17 19  2  0  0  0  0
 19 13  1  0  0  0  0
 19 18  1  0  0  0  0
 20 16  1  6  0  0  0
 20 18  1  0  0  0  0
 21 22  2  0  0  0  0
 22 13  1  0  0  0  0
 22 23  1  0  0  0  0
 24 23  2  0  0  0  0
 24 25  1  0  0  0  0
 26 25  1  0  0  0  0
 27 28  1  0  0  0  0
 27 29  1  0  0  0  0
 28 33  1  0  0  0  0
 29 31  1  0  0  0  0
 31 30  1  0  0  0  0
 32 28  2  0  0  0  0
 33 26  1  0  0  0  0
 33 30  1  0  0  0  0
 34 48  1  0  0  0  0
 34 36  1  0  0  0  0
 35 34  2  0  0  0  0
 36 37  1  0  0  0  0
 38 37  1  0  0  0  0
 41 38  1  0  0  0  0
 41 40  2  0  0  0  0
 41 39  2  0  0  0  0
 42 46  1  0  0  0  0
 43 47  1  0  0  0  0
 44 43  1  0  0  0  0
 44 45  1  0  0  0  0
 45 42  2  0  0  0  0
 46 41  1  0  0  0  0
 47 46  2  0  0  0  0
 50 49  1  0  0  0  0
 51 50  1  1  0  0  0
 51 52  1  0  0  0  0
 51 49  1  0  0  0  0
 53 48  1  6  0  0  0
 53 51  1  0  0  0  0
 53 52  1  0  0  0  0
M  END
>  <MODEL>
1

>  <REMARK>
 VINA RESULT:      -8.2      0.000      0.000
  Name = 
  15 active torsions:
  status: ('A' for Active; 'I' for Inactive)
    1  A    between atoms: C_10  and  N_32
    2  A    between atoms: C_14  and  C_47
    3  A    between atoms: N_15  and  S_52
    4  A    between atoms: N_15  and  C_53
    5  A    between atoms: C_20  and  C_39
    6  A    between atoms: C_20  and  O_44
    7  A    between atoms: C_26  and  S_52
    8  A    between atoms: C_27  and  C_33
    9  A    between atoms: C_27  and  C_34
   10  A    between atoms: C_33  and  N_38
   11  A    between atoms: C_39  and  C_53
   12  A    between atoms: C_40  and  C_41
   13  A    between atoms: C_40  and  C_48
   14  A    between atoms: O_44  and  C_49
   15  A    between atoms: C_48  and  N_51
                            x       y       z     vdW  Elec       q    Type
                         _______ _______ _______ _____ _____    ______ ____

>  <TORSDO>
F 15

$$$$
=
 OpenBabel10232409323D

 53 59  0  0  1  0  0  0  0  0999 V2000
  189.9550  176.3110  140.6440 N   0  0  0  0  0  0  0  0  0  0  0  0
  189.6320  177.4780  142.8090 C   0  0  0  0  0  0  0  0  0  0  0  0
  190.9450  179.2010  143.9910 C   0  0  0  0  0  1  0  0  0  0  0  0
  191.9910  177.9660  142.0830 C   0  0  0  0  0  3  0  0  0  0  0  0
  192.0040  177.5760  140.8140 C   0  0  0  0  0  3  0  0  0  0  0  0
  189.4500  176.3640  141.8390 C   0  0  0  0  0  3  0  0  0  0  0  0
  190.7530  177.3680  140.0370 C   0  0  1  0  0  3  0  0  0  0  0  0
  190.7830  178.1890  142.9030 C   0  0  0  0  0  0  0  0  0  0  0  0
  189.8170  177.0500  137.7310 C   0  0  0  0  0  2  0  0  0  0  0  0
  189.6860  175.6530  137.2510 C   0  0  0  0  0  0  0  0  0  0  0  0
  191.0850  177.0410  138.5790 C   0  0  2  0  0  3  0  0  0  0  0  0
  191.7250  175.6580  138.4200 C   0  0  0  0  0  3  0  0  0  0  0  0
  188.7070  175.1760  136.4460 C   0  0  0  0  0  0  0  0  0  0  0  0
  190.7740  174.8550  137.6800 N   0  0  0  0  0  0  0  0  0  0  0  0
  188.1010  171.1880  136.0710 S   0  0  0  0  0  0  0  0  0  0  0  0
  190.4160  171.1510  134.6030 C   0  0  0  0  0  1  0  0  0  0  0  0
  188.0090  172.8240  136.7790 C   0  0  0  0  0  3  0  0  0  0  0  0
  189.2970  173.2430  134.9500 O   0  0  0  0  0  0  0  0  0  0  0  0
  188.6730  173.7330  136.0870 C   0  0  0  0  0  0  0  0  0  0  0  0
  189.0840  171.8660  134.6860 C   0  0  2  0  0  3  0  0  0  0  0  0
  187.9000  176.7580  134.8590 O   0  0  0  0  0  0  0  0  0  0  0  0
  187.6410  176.0470  135.8710 C   0  0  0  0  0  0  0  0  0  0  0  0
  186.3170  176.0640  136.4170 N   0  0  0  0  0  0  0  0  0  0  0  0
  185.3080  176.5580  135.7680 C   0  0  0  0  0  3  0  0  0  0  0  0
  183.9450  176.5270  136.3620 C   0  0  0  0  0  2  0  0  0  0  0  0
  183.9230  175.5960  137.5560 C   0  0  0  0  0  2  0  0  0  0  0  0
  183.6900  171.7540  137.0080 C   0  0  0  0  0  2  0  0  0  0  0  0
  184.1350  173.0910  137.5140 C   0  0  0  0  0  0  0  0  0  0  0  0
  182.1900  171.7340  136.7190 C   0  0  0  0  0  2  0  0  0  0  0  0
  182.0270  174.2120  136.6990 C   0  0  0  0  0  2  0  0  0  0  0  0
  181.7980  172.9430  135.8790 C   0  0  0  0  0  2  0  0  0  0  0  0
  185.2010  173.1600  138.1860 O   0  0  0  0  0  0  0  0  0  0  0  0
  183.4070  174.2890  137.1650 N   0  0  0  0  0  0  0  0  0  0  0  0
  188.5630  177.2740  145.0280 C   0  0  0  0  0  0  0  0  0  0  0  0
  188.6140  177.7160  143.8030 N   0  0  0  0  0  0  0  0  0  0  0  0
  187.4150  177.6930  145.8860 C   0  0  0  0  0  2  0  0  0  0  0  0
  186.4900  178.6010  145.1030 C   0  0  0  0  0  2  0  0  0  0  0  0
  185.3690  177.8200  144.6010 N   0  0  0  0  0  2  0  0  0  0  0  0
  182.8530  178.6830  144.5160 O   0  0  0  0  0  0  0  0  0  0  0  0
  184.6370  180.3390  144.2100 O   0  0  0  0  0  0  0  0  0  0  0  0
  184.2150  178.9230  143.9200 S   0  0  0  0  0  0  0  0  0  0  0  0
  185.3930  178.6860  141.4050 C   0  0  0  0  0  3  0  0  0  0  0  0
  182.8800  178.1030  140.1410 C   0  0  0  0  0  2  0  0  0  0  0  0
  183.8880  179.2890  139.1990 S   0  0  0  0  0  0  0  0  0  0  0  0
  185.3940  178.8700  140.0860 C   0  0  0  0  0  3  0  0  0  0  0  0
  184.1440  178.6610  142.1870 C   0  0  0  0  0  0  0  0  0  0  0  0
  182.9700  178.4140  141.6020 C   0  0  0  0  0  3  0  0  0  0  0  0
  189.5490  176.4210  145.5390 O   0  0  0  0  0  0  0  0  0  0  0  0
  192.2570  176.2070  148.0910 O   0  0  0  0  0  0  0  0  0  0  0  0
  192.4480  175.6650  146.8450 C   0  0  0  0  0  2  0  0  0  0  0  0
  191.0690  175.9700  147.3500 C   0  0  1  0  0  0  0  0  0  0  0  0
  190.3900  177.3320  147.5490 C   0  0  0  0  0  2  0  0  0  0  0  0
  190.7160  176.9100  146.1830 C   0  0  2  0  0  3  0  0  0  0  0  0
  1  6  2  0  0  0  0
  2  8  2  0  0  0  0
  2 35  1  0  0  0  0
  4  8  1  0  0  0  0
  5  4  2  0  0  0  0
  6  2  1  0  0  0  0
  7  1  1  0  0  0  0
  7  5  1  1  0  0  0
  8  3  1  0  0  0  0
 10 14  1  0  0  0  0
 10  9  1  0  0  0  0
 11  9  1  6  0  0  0
 11  7  1  0  0  0  0
 12 11  1  0  0  0  0
 13 10  2  0  0  0  0
 14 12  2  0  0  0  0
 15 17  1  0  0  0  0
 18 19  1  0  0  0  0
 19 13  1  0  0  0  0
 19 17  2  0  0  0  0
 20 16  1  1  0  0  0
 20 18  1  0  0  0  0
 20 15  1  0  0  0  0
 21 22  2  0  0  0  0
 22 23  1  0  0  0  0
 22 13  1  0  0  0  0
 24 25  1  0  0  0  0
 24 23  2  0  0  0  0
 25 26  1  0  0  0  0
 27 28  1  0  0  0  0
 28 32  2  0  0  0  0
 29 27  1  0  0  0  0
 30 33  1  0  0  0  0
 31 30  1  0  0  0  0
 31 29  1  0  0  0  0
 33 28  1  0  0  0  0
 33 26  1  0  0  0  0
 34 48  1  0  0  0  0
 34 36  1  0  0  0  0
 35 34  2  0  0  0  0
 37 36  1  0  0  0  0
 38 37  1  0  0  0  0
 41 40  2  0  0  0  0
 41 39  2  0  0  0  0
 41 38  1  0  0  0  0
 42 46  1  0  0  0  0
 43 47  1  0  0  0  0
 44 45  1  0  0  0  0
 44 43  1  0  0  0  0
 45 42  2  0  0  0  0
 46 41  1  0  0  0  0
 47 46  2  0  0  0  0
 50 49  1  0  0  0  0
 51 50  1  1  0  0  0
 51 52  1  0  0  0  0
 51 49  1  0  0  0  0
 53 48  1  6  0  0  0
 53 51  1  0  0  0  0
 53 52  1  0  0  0  0
M  END
>  <MODEL>
2

>  <REMARK>
 VINA RESULT:      -8.0      2.470      3.764
  Name = 
  15 active torsions:
  status: ('A' for Active; 'I' for Inactive)
    1  A    between atoms: C_10  and  N_32
    2  A    between atoms: C_14  and  C_47
    3  A    between atoms: N_15  and  S_52
    4  A    between atoms: N_15  and  C_53
    5  A    between atoms: C_20  and  C_39
    6  A    between atoms: C_20  and  O_44
    7  A    between atoms: C_26  and  S_52
    8  A    between atoms: C_27  and  C_33
    9  A    between atoms: C_27  and  C_34
   10  A    between atoms: C_33  and  N_38
   11  A    between atoms: C_39  and  C_53
   12  A    between atoms: C_40  and  C_41
   13  A    between atoms: C_40  and  C_48
   14  A    between atoms: O_44  and  C_49
   15  A    between atoms: C_48  and  N_51
                            x       y       z     vdW  Elec       q    Type
                         _______ _______ _______ _____ _____    ______ ____

>  <TORSDO>
F 15

$$$$
=
 OpenBabel10232409323D

 53 59  0  0  1  0  0  0  0  0999 V2000
  189.7840  176.4460  140.6440 N   0  0  0  0  0  0  0  0  0  0  0  0
  189.4690  177.6570  142.7850 C   0  0  0  0  0  0  0  0  0  0  0  0
  190.9210  179.1800  144.0730 C   0  0  0  0  0  1  0  0  0  0  0  0
  191.9210  177.7990  142.2420 C   0  0  0  0  0  3  0  0  0  0  0  0
  191.9740  177.4050  140.9750 C   0  0  0  0  0  3  0  0  0  0  0  0
  189.2030  176.5760  141.7980 C   0  0  0  0  0  3  0  0  0  0  0  0
  190.7680  177.3740  140.1050 C   0  0  1  0  0  3  0  0  0  0  0  0
  190.6990  178.1970  142.9700 C   0  0  0  0  0  0  0  0  0  0  0  0
  189.9830  177.2150  137.7270 C   0  0  0  0  0  2  0  0  0  0  0  0
  189.6630  175.8580  137.2210 C   0  0  0  0  0  0  0  0  0  0  0  0
  191.1590  176.9970  138.6740 C   0  0  2  0  0  3  0  0  0  0  0  0
  191.5740  175.5270  138.5490 C   0  0  0  0  0  3  0  0  0  0  0  0
  188.6870  175.5490  136.3340 C   0  0  0  0  0  0  0  0  0  0  0  0
  190.5670  174.8910  137.7250 N   0  0  0  0  0  0  0  0  0  0  0  0
  188.7030  171.7650  134.8870 S   0  0  0  0  0  0  0  0  0  0  0  0
  186.0440  171.6860  135.5510 C   0  0  0  0  0  1  0  0  0  0  0  0
  189.1990  173.4670  135.0950 C   0  0  0  0  0  3  0  0  0  0  0  0
  187.4340  173.3780  136.5290 O   0  0  0  0  0  0  0  0  0  0  0  0
  188.4460  174.1310  135.9540 C   0  0  0  0  0  0  0  0  0  0  0  0
  187.3980  172.0130  136.1440 C   0  0  2  0  0  3  0  0  0  0  0  0
  188.3350  177.3630  134.8310 O   0  0  0  0  0  0  0  0  0  0  0  0
  187.8290  176.5830  135.6870 C   0  0  0  0  0  0  0  0  0  0  0  0
  186.4320  176.6860  135.9850 N   0  0  0  0  0  0  0  0  0  0  0  0
  185.9850  176.7090  137.2030 C   0  0  0  0  0  3  0  0  0  0  0  0
  184.5280  176.8470  137.4660 C   0  0  0  0  0  2  0  0  0  0  0  0
  184.2970  177.8470  138.5800 C   0  0  0  0  0  2  0  0  0  0  0  0
  181.8470  180.8600  138.3970 C   0  0  0  0  0  2  0  0  0  0  0  0
  183.1040  180.0600  138.5440 C   0  0  0  0  0  0  0  0  0  0  0  0
  180.8760  180.2050  137.4170 C   0  0  0  0  0  2  0  0  0  0  0  0
  182.0370  178.0130  137.5250 C   0  0  0  0  0  2  0  0  0  0  0  0
  180.7050  178.7290  137.7490 C   0  0  0  0  0  2  0  0  0  0  0  0
  184.1470  180.6400  138.9540 O   0  0  0  0  0  0  0  0  0  0  0  0
  183.1000  178.6350  138.3080 N   0  0  0  0  0  0  0  0  0  0  0  0
  188.2680  177.6870  144.9460 C   0  0  0  0  0  0  0  0  0  0  0  0
  188.4230  178.0420  143.7020 N   0  0  0  0  0  0  0  0  0  0  0  0
  187.1160  178.2540  145.7080 C   0  0  0  0  0  2  0  0  0  0  0  0
  185.8390  177.5390  145.3200 C   0  0  0  0  0  2  0  0  0  0  0  0
  184.7730  178.5170  145.1670 N   0  0  0  0  0  2  0  0  0  0  0  0
  185.1120  180.0930  143.0490 O   0  0  0  0  0  0  0  0  0  0  0  0
  185.1870  177.6680  142.6890 O   0  0  0  0  0  0  0  0  0  0  0  0
  184.5240  178.7720  143.4680 S   0  0  0  0  0  0  0  0  0  0  0  0
  182.3250  178.7400  141.7560 C   0  0  0  0  0  3  0  0  0  0  0  0
  180.4610  178.7090  143.9420 C   0  0  0  0  0  2  0  0  0  0  0  0
  179.9830  179.8650  142.6210 S   0  0  0  0  0  0  0  0  0  0  0  0
  181.0910  179.1120  141.4210 C   0  0  0  0  0  3  0  0  0  0  0  0
  182.7980  178.7780  143.1510 C   0  0  0  0  0  0  0  0  0  0  0  0
  181.9370  178.7880  144.1710 C   0  0  0  0  0  3  0  0  0  0  0  0
  189.1480  176.7900  145.5640 O   0  0  0  0  0  0  0  0  0  0  0  0
  189.8960  178.1770  148.9420 O   0  0  0  0  0  0  0  0  0  0  0  0
  188.6190  178.2430  148.4440 C   0  0  0  0  0  2  0  0  0  0  0  0
  189.7910  178.0130  147.5350 C   0  0  1  0  0  0  0  0  0  0  0  0
  190.6620  176.7600  147.3770 C   0  0  0  0  0  2  0  0  0  0  0  0
  189.2530  176.6830  146.9760 C   0  0  2  0  0  3  0  0  0  0  0  0
  1  6  2  0  0  0  0
  2  8  2  0  0  0  0
  2 35  1  0  0  0  0
  4  8  1  0  0  0  0
  5  4  2  0  0  0  0
  6  2  1  0  0  0  0
  7  1  1  0  0  0  0
  7  5  1  1  0  0  0
  8  3  1  0  0  0  0
 10 14  1  0  0  0  0
 10  9  1  0  0  0  0
 11  9  1  6  0  0  0
 11  7  1  0  0  0  0
 12 11  1  0  0  0  0
 13 10  2  0  0  0  0
 14 12  2  0  0  0  0
 15 17  1  0  0  0  0
 15 20  1  0  0  0  0
 17 19  2  0  0  0  0
 19 13  1  0  0  0  0
 19 18  1  0  0  0  0
 20 16  1  6  0  0  0
 20 18  1  0  0  0  0
 21 22  2  0  0  0  0
 22 23  1  0  0  0  0
 22 13  1  0  0  0  0
 23 24  2  0  0  0  0
 24 25  1  0  0  0  0
 25 26  1  0  0  0  0
 27 28  1  0  0  0  0
 28 32  2  0  0  0  0
 29 31  1  0  0  0  0
 29 27  1  0  0  0  0
 30 31  1  0  0  0  0
 30 33  1  0  0  0  0
 33 28  1  0  0  0  0
 33 26  1  0  0  0  0
 34 48  1  0  0  0  0
 34 36  1  0  0  0  0
 35 34  2  0  0  0  0
 37 36  1  0  0  0  0
 38 37  1  0  0  0  0
 39 41  2  0  0  0  0
 40 41  2  0  0  0  0
 41 38  1  0  0  0  0
 42 46  1  0  0  0  0
 43 47  1  0  0  0  0
 44 43  1  0  0  0  0
 45 42  2  0  0  0  0
 45 44  1  0  0  0  0
 46 41  1  0  0  0  0
 46 47  2  0  0  0  0
 50 49  1  0  0  0  0
 51 52  1  6  0  0  0
 51 50  1  0  0  0  0
 51 49  1  0  0  0  0
 53 48  1  6  0  0  0
 53 52  1  0  0  0  0
 53 51  1  0  0  0  0
M  END
>  <MODEL>
3

>  <REMARK>
 VINA RESULT:      -7.9      1.946      2.562
  Name = 
  15 active torsions:
  status: ('A' for Active; 'I' for Inactive)
    1  A    between atoms: C_10  and  N_32
    2  A    between atoms: C_14  and  C_47
    3  A    between atoms: N_15  and  S_52
    4  A    between atoms: N_15  and  C_53
    5  A    between atoms: C_20  and  C_39
    6  A    between atoms: C_20  and  O_44
    7  A    between atoms: C_26  and  S_52
    8  A    between atoms: C_27  and  C_33
    9  A    between atoms: C_27  and  C_34
   10  A    between atoms: C_33  and  N_38
   11  A    between atoms: C_39  and  C_53
   12  A    between atoms: C_40  and  C_41
   13  A    between atoms: C_40  and  C_48
   14  A    between atoms: O_44  and  C_49
   15  A    between atoms: C_48  and  N_51
                            x       y       z     vdW  Elec       q    Type
                         _______ _______ _______ _____ _____    ______ ____

>  <TORSDO>
F 15

$$$$
=
 OpenBabel10232409323D

 53 59  0  0  1  0  0  0  0  0999 V2000
  188.1230  178.5850  136.7600 N   0  0  0  0  0  0  0  0  0  0  0  0
  190.0630  177.3910  137.7410 C   0  0  0  0  0  0  0  0  0  0  0  0
  190.4600  176.3900  139.9610 C   0  0  0  0  0  1  0  0  0  0  0  0
  188.5300  177.9530  139.6560 C   0  0  0  0  0  3  0  0  0  0  0  0
  187.4050  178.3110  139.0480 C   0  0  0  0  0  3  0  0  0  0  0  0
  189.3940  178.3220  136.7920 C   0  0  0  0  0  3  0  0  0  0  0  0
  187.1290  177.9680  137.6270 C   0  0  1  0  0  3  0  0  0  0  0  0
  189.6580  177.2360  139.0260 C   0  0  0  0  0  0  0  0  0  0  0  0
  184.8890  178.6930  138.4940 C   0  0  0  0  0  2  0  0  0  0  0  0
  183.8030  177.6840  138.4590 C   0  0  0  0  0  0  0  0  0  0  0  0
  185.7130  178.4040  137.2440 C   0  0  2  0  0  3  0  0  0  0  0  0
  184.9650  177.3290  136.4480 C   0  0  0  0  0  2  0  0  0  0  0  0
  182.8070  177.5550  139.3690 C   0  0  2  0  0  3  0  0  0  0  0  0
  183.8750  176.8860  137.2920 N   0  0  0  0  0  0  0  0  0  0  0  0
  180.2440  174.4440  139.7710 S   0  0  0  0  0  0  0  0  0  0  0  0
  180.3150  174.2580  137.0370 C   0  0  0  0  0  1  0  0  0  0  0  0
  181.5230  175.6110  140.2050 C   0  0  0  0  0  3  0  0  0  0  0  0
  181.0610  176.2840  138.0810 O   0  0  0  0  0  0  0  0  0  0  0  0
  181.8110  176.4580  139.2340 C   0  0  0  0  0  0  0  0  0  0  0  0
  180.0790  175.2630  138.1450 C   0  0  2  0  0  3  0  0  0  0  0  0
  181.5180  179.0310  140.7230 O   0  0  0  0  0  0  0  0  0  0  0  0
  182.6410  178.4880  140.5210 C   0  0  0  0  0  0  0  0  0  0  0  0
  183.7170  178.7520  141.4270 N   0  0  0  0  0  0  0  0  0  0  0  0
  183.5130  179.1020  142.6600 C   0  0  0  0  0  3  0  0  0  0  0  0
  184.6620  179.3370  143.5740 C   0  0  0  0  0  2  0  0  0  0  0  0
  184.5750  178.4020  144.7620 C   0  0  0  0  0  2  0  0  0  0  0  0
  187.5790  178.2880  147.2290 C   0  0  0  0  0  2  0  0  0  0  0  0
  186.1870  178.4170  146.6930 C   0  0  0  0  0  0  0  0  0  0  0  0
  188.4040  177.2930  146.4150 C   0  0  0  0  0  2  0  0  0  0  0  0
  186.8280  177.3520  144.4970 C   0  0  0  0  0  2  0  0  0  0  0  0
  188.2740  177.5920  144.9270 C   0  0  0  0  0  2  0  0  0  0  0  0
  185.2790  178.8400  147.4600 O   0  0  0  0  0  0  0  0  0  0  0  0
  185.9070  178.1490  145.3010 N   0  0  0  0  0  0  0  0  0  0  0  0
  191.4520  175.8000  136.4570 C   0  0  0  0  0  0  0  0  0  0  0  0
  191.2880  176.7430  137.3410 N   0  0  0  0  0  0  0  0  0  0  0  0
  192.8370  175.3120  136.1880 C   0  0  0  0  0  2  0  0  0  0  0  0
  193.3540  174.5430  137.3850 C   0  0  0  0  0  2  0  0  0  0  0  0
  194.2800  175.3840  138.1280 N   0  0  0  0  0  2  0  0  0  0  0  0
  196.1900  174.9410  139.9280 O   0  0  0  0  0  0  0  0  0  0  0  0
  195.1020  172.9890  138.9160 O   0  0  0  0  0  0  0  0  0  0  0  0
  195.5980  174.3870  138.6590 S   0  0  0  0  0  0  0  0  0  0  0  0
  196.6750  175.2530  136.2390 C   0  0  0  0  0  3  0  0  0  0  0  0
  199.0000  173.5920  136.5310 C   0  0  0  0  0  2  0  0  0  0  0  0
  198.3040  173.5450  134.8510 S   0  0  0  0  0  0  0  0  0  0  0  0
  197.3330  175.0380  135.1020 C   0  0  0  0  0  3  0  0  0  0  0  0
  196.8260  174.3670  137.4060 C   0  0  0  0  0  0  0  0  0  0  0  0
  197.8920  173.5750  137.5360 C   0  0  0  0  0  3  0  0  0  0  0  0
  190.3640  175.2420  135.7730 O   0  0  0  0  0  0  0  0  0  0  0  0
  188.0860  172.3050  135.4930 O   0  0  0  0  0  0  0  0  0  0  0  0
  188.7240  172.7840  134.3770 C   0  0  0  0  0  2  0  0  0  0  0  0
  188.5840  173.6310  135.6080 C   0  0  1  0  0  0  0  0  0  0  0  0
  189.2990  173.4990  136.9590 C   0  0  0  0  0  2  0  0  0  0  0  0
  190.0990  173.8480  135.7800 C   0  0  2  0  0  3  0  0  0  0  0  0
  1  6  2  0  0  0  0
  1  7  1  0  0  0  0
  2  8  2  0  0  0  0
  5  4  2  0  0  0  0
  6  2  1  0  0  0  0
  7  5  1  1  0  0  0
  8  4  1  0  0  0  0
  8  3  1  0  0  0  0
 10  9  1  0  0  0  0
 10 13  1  0  0  0  0
 11 12  1  1  0  0  0
 11  7  1  0  0  0  0
 11  9  1  0  0  0  0
 12 14  1  0  0  0  0
 13 22  1  6  0  0  0
 14 10  2  0  0  0  0
 15 17  1  0  0  0  0
 18 20  1  0  0  0  0
 18 19  1  0  0  0  0
 19 13  1  0  0  0  0
 19 17  2  0  0  0  0
 20 16  1  6  0  0  0
 20 15  1  0  0  0  0
 22 21  2  0  0  0  0
 22 23  1  0  0  0  0
 23 24  2  0  0  0  0
 24 25  1  0  0  0  0
 25 26  1  0  0  0  0
 26 33  1  0  0  0  0
 28 27  1  0  0  0  0
 28 32  2  0  0  0  0
 29 27  1  0  0  0  0
 30 31  1  0  0  0  0
 30 33  1  0  0  0  0
 31 29  1  0  0  0  0
 33 28  1  0  0  0  0
 34 35  2  0  0  0  0
 35  2  1  0  0  0  0
 36 34  1  0  0  0  0
 36 37  1  0  0  0  0
 37 38  1  0  0  0  0
 38 41  1  0  0  0  0
 41 40  2  0  0  0  0
 41 39  2  0  0  0  0
 42 46  1  0  0  0  0
 43 47  1  0  0  0  0
 44 45  1  0  0  0  0
 44 43  1  0  0  0  0
 45 42  2  0  0  0  0
 46 47  2  0  0  0  0
 46 41  1  0  0  0  0
 48 34  1  0  0  0  0
 49 51  1  0  0  0  0
 50 49  1  0  0  0  0
 51 50  1  6  0  0  0
 51 53  1  0  0  0  0
 51 52  1  0  0  0  0
 53 48  1  1  0  0  0
 53 52  1  0  0  0  0
M  END
>  <MODEL>
4

>  <REMARK>
 VINA RESULT:      -7.5      4.392      9.988
  Name = 
  15 active torsions:
  status: ('A' for Active; 'I' for Inactive)
    1  A    between atoms: C_10  and  N_32
    2  A    between atoms: C_14  and  C_47
    3  A    between atoms: N_15  and  S_52
    4  A    between atoms: N_15  and  C_53
    5  A    between atoms: C_20  and  C_39
    6  A    between atoms: C_20  and  O_44
    7  A    between atoms: C_26  and  S_52
    8  A    between atoms: C_27  and  C_33
    9  A    between atoms: C_27  and  C_34
   10  A    between atoms: C_33  and  N_38
   11  A    between atoms: C_39  and  C_53
   12  A    between atoms: C_40  and  C_41
   13  A    between atoms: C_40  and  C_48
   14  A    between atoms: O_44  and  C_49
   15  A    between atoms: C_48  and  N_51
                            x       y       z     vdW  Elec       q    Type
                         _______ _______ _______ _____ _____    ______ ____

>  <TORSDO>
F 15

$$$$
=
 OpenBabel10232409323D

 53 59  0  0  1  0  0  0  0  0999 V2000
  189.8380  176.3720  141.0330 N   0  0  0  0  0  0  0  0  0  0  0  0
  189.9540  177.4320  143.2720 C   0  0  0  0  0  0  0  0  0  0  0  0
  191.4630  179.1260  144.2420 C   0  0  0  0  0  1  0  0  0  0  0  0
  192.1080  178.0000  142.1030 C   0  0  0  0  0  3  0  0  0  0  0  0
  191.8640  177.6680  140.8400 C   0  0  0  0  0  3  0  0  0  0  0  0
  189.5880  176.3600  142.3070 C   0  0  0  0  0  3  0  0  0  0  0  0
  190.4820  177.4700  140.3270 C   0  0  1  0  0  3  0  0  0  0  0  0
  191.0920  178.1620  143.1620 C   0  0  0  0  0  0  0  0  0  0  0  0
  189.1760  177.6030  138.1890 C   0  0  0  0  0  2  0  0  0  0  0  0
  188.6380  176.3280  137.6560 C   0  0  0  0  0  0  0  0  0  0  0  0
  190.5110  177.2170  138.8180 C   0  0  2  0  0  3  0  0  0  0  0  0
  190.7620  175.7440  138.4760 C   0  0  0  0  0  3  0  0  0  0  0  0
  187.4660  176.1730  136.9940 C   0  0  0  0  0  0  0  0  0  0  0  0
  189.5470  175.2600  137.8550 N   0  0  0  0  0  0  0  0  0  0  0  0
  186.6940  172.6440  135.1620 S   0  0  0  0  0  0  0  0  0  0  0  0
  184.6060  172.3870  136.9200 C   0  0  0  0  0  1  0  0  0  0  0  0
  187.2950  174.3110  135.3710 C   0  0  0  0  0  3  0  0  0  0  0  0
  186.3490  173.9590  137.4110 O   0  0  0  0  0  0  0  0  0  0  0  0
  187.0280  174.8190  136.5610 C   0  0  0  0  0  0  0  0  0  0  0  0
  186.0940  172.6650  136.8890 C   0  0  2  0  0  3  0  0  0  0  0  0
  187.0770  178.3660  136.1530 O   0  0  0  0  0  0  0  0  0  0  0  0
  186.5760  177.3190  136.6520 C   0  0  0  0  0  0  0  0  0  0  0  0
  185.1590  177.2450  136.8410 N   0  0  0  0  0  0  0  0  0  0  0  0
  184.3420  177.0080  135.8610 C   0  0  0  0  0  3  0  0  0  0  0  0
  182.8790  176.9090  136.1090 C   0  0  0  0  0  2  0  0  0  0  0  0
  182.4380  178.0150  137.0440 C   0  0  0  0  0  2  0  0  0  0  0  0
  180.3180  177.7830  140.2950 C   0  0  0  0  0  2  0  0  0  0  0  0
  180.9570  178.3220  139.0530 C   0  0  0  0  0  0  0  0  0  0  0  0
  180.0050  176.2940  140.1640 C   0  0  0  0  0  2  0  0  0  0  0  0
  181.5270  176.0080  138.2230 C   0  0  0  0  0  2  0  0  0  0  0  0
  181.2240  175.5410  139.6460 C   0  0  0  0  0  2  0  0  0  0  0  0
  180.8880  179.5610  138.8250 O   0  0  0  0  0  0  0  0  0  0  0  0
  181.7130  177.4550  138.1790 N   0  0  0  0  0  0  0  0  0  0  0  0
  189.3580  177.0950  145.6470 C   0  0  0  0  0  0  0  0  0  0  0  0
  189.1590  177.6040  144.4640 N   0  0  0  0  0  0  0  0  0  0  0  0
  188.4090  177.4530  146.7420 C   0  0  0  0  0  2  0  0  0  0  0  0
  187.3390  178.3860  146.2130 C   0  0  0  0  0  2  0  0  0  0  0  0
  186.3200  177.6030  145.5320 N   0  0  0  0  0  2  0  0  0  0  0  0
  183.7950  178.4450  145.4570 O   0  0  0  0  0  0  0  0  0  0  0  0
  185.5650  180.1220  145.1820 O   0  0  0  0  0  0  0  0  0  0  0  0
  185.1560  178.7070  144.8680 S   0  0  0  0  0  0  0  0  0  0  0  0
  186.3450  178.4790  142.3570 C   0  0  0  0  0  3  0  0  0  0  0  0
  183.8260  177.9780  141.0690 C   0  0  0  0  0  2  0  0  0  0  0  0
  184.8690  179.1520  140.1500 S   0  0  0  0  0  0  0  0  0  0  0  0
  186.3590  178.6820  141.0410 C   0  0  0  0  0  3  0  0  0  0  0  0
  185.0910  178.4730  143.1300 C   0  0  0  0  0  0  0  0  0  0  0  0
  183.9140  178.2640  142.5340 C   0  0  0  0  0  3  0  0  0  0  0  0
  190.4270  176.2260  145.8980 O   0  0  0  0  0  0  0  0  0  0  0  0
  192.9250  176.4030  148.6590 O   0  0  0  0  0  0  0  0  0  0  0  0
  191.9460  177.3580  148.5620 C   0  0  0  0  0  2  0  0  0  0  0  0
  192.2990  176.4940  147.3870 C   0  0  1  0  0  0  0  0  0  0  0  0
  192.0070  175.0040  147.1590 C   0  0  0  0  0  2  0  0  0  0  0  0
  190.8740  175.9350  147.2140 C   0  0  2  0  0  3  0  0  0  0  0  0
  1  6  2  0  0  0  0
  2 35  1  0  0  0  0
  4  8  1  0  0  0  0
  5  4  2  0  0  0  0
  6  2  1  0  0  0  0
  7  5  1  1  0  0  0
  7  1  1  0  0  0  0
  8  2  2  0  0  0  0
  8  3  1  0  0  0  0
 10 14  1  0  0  0  0
 10  9  1  0  0  0  0
 11  9  1  1  0  0  0
 11  7  1  0  0  0  0
 12 11  1  0  0  0  0
 13 10  2  0  0  0  0
 14 12  2  0  0  0  0
 15 17  1  0  0  0  0
 15 20  1  0  0  0  0
 17 19  2  0  0  0  0
 19 13  1  0  0  0  0
 19 18  1  0  0  0  0
 20 16  1  6  0  0  0
 20 18  1  0  0  0  0
 21 22  2  0  0  0  0
 22 23  1  0  0  0  0
 22 13  1  0  0  0  0
 24 25  1  0  0  0  0
 24 23  2  0  0  0  0
 25 26  1  0  0  0  0
 26 33  1  0  0  0  0
 28 27  1  0  0  0  0
 29 27  1  0  0  0  0
 30 31  1  0  0  0  0
 31 29  1  0  0  0  0
 32 28  2  0  0  0  0
 33 30  1  0  0  0  0
 33 28  1  0  0  0  0
 34 48  1  0  0  0  0
 34 36  1  0  0  0  0
 35 34  2  0  0  0  0
 37 36  1  0  0  0  0
 38 37  1  0  0  0  0
 41 40  2  0  0  0  0
 41 39  2  0  0  0  0
 41 38  1  0  0  0  0
 42 46  1  0  0  0  0
 43 47  1  0  0  0  0
 44 45  1  0  0  0  0
 44 43  1  0  0  0  0
 45 42  2  0  0  0  0
 46 41  1  0  0  0  0
 47 46  2  0  0  0  0
 50 49  1  0  0  0  0
 51 52  1  6  0  0  0
 51 50  1  0  0  0  0
 51 49  1  0  0  0  0
 52 53  1  0  0  0  0
 53 48  1  6  0  0  0
 53 51  1  0  0  0  0
M  END
>  <MODEL>
5

>  <REMARK>
 VINA RESULT:      -7.5      1.524      2.211
  Name = 
  15 active torsions:
  status: ('A' for Active; 'I' for Inactive)
    1  A    between atoms: C_10  and  N_32
    2  A    between atoms: C_14  and  C_47
    3  A    between atoms: N_15  and  S_52
    4  A    between atoms: N_15  and  C_53
    5  A    between atoms: C_20  and  C_39
    6  A    between atoms: C_20  and  O_44
    7  A    between atoms: C_26  and  S_52
    8  A    between atoms: C_27  and  C_33
    9  A    between atoms: C_27  and  C_34
   10  A    between atoms: C_33  and  N_38
   11  A    between atoms: C_39  and  C_53
   12  A    between atoms: C_40  and  C_41
   13  A    between atoms: C_40  and  C_48
   14  A    between atoms: O_44  and  C_49
   15  A    between atoms: C_48  and  N_51
                            x       y       z     vdW  Elec       q    Type
                         _______ _______ _______ _____ _____    ______ ____

>  <TORSDO>
F 15

$$$$
=
 OpenBabel10232409323D

 53 59  0  0  1  0  0  0  0  0999 V2000
  187.7180  176.9580  137.5430 N   0  0  0  0  0  0  0  0  0  0  0  0
  189.6790  175.4470  137.4000 C   0  0  0  0  0  0  0  0  0  0  0  0
  189.9950  173.2090  136.4090 C   0  0  0  0  0  1  0  0  0  0  0  0
  187.6720  174.0720  136.7570 C   0  0  0  0  0  3  0  0  0  0  0  0
  186.7270  174.9850  136.5670 C   0  0  0  0  0  3  0  0  0  0  0  0
  188.8690  176.5500  137.9830 C   0  0  0  0  0  3  0  0  0  0  0  0
  187.0470  176.4240  136.3660 C   0  0  1  0  0  3  0  0  0  0  0  0
  189.1220  174.3390  136.8500 C   0  0  0  0  0  0  0  0  0  0  0  0
  185.4580  178.1870  137.1820 C   0  0  0  0  0  2  0  0  0  0  0  0
  184.1620  177.7150  137.7270 C   0  0  0  0  0  0  0  0  0  0  0  0
  185.7710  177.2100  136.0530 C   0  0  2  0  0  3  0  0  0  0  0  0
  184.5480  176.3000  135.8910 C   0  0  0  0  0  2  0  0  0  0  0  0
  183.4730  178.2820  138.7460 C   0  0  2  0  0  3  0  0  0  0  0  0
  183.6640  176.6100  136.9950 N   0  0  0  0  0  0  0  0  0  0  0  0
  179.9820  177.2440  140.5190 S   0  0  0  0  0  0  0  0  0  0  0  0
  180.4680  174.7090  139.5950 C   0  0  0  0  0  1  0  0  0  0  0  0
  181.4810  178.1620  140.2120 C   0  0  0  0  0  3  0  0  0  0  0  0
  181.6580  176.5470  138.6170 O   0  0  0  0  0  0  0  0  0  0  0  0
  182.2060  177.6670  139.2240 C   0  0  0  0  0  0  0  0  0  0  0  0
  180.3940  176.1440  139.1180 C   0  0  2  0  0  3  0  0  0  0  0  0
  183.5410  180.6520  138.9730 O   0  0  0  0  0  0  0  0  0  0  0  0
  183.9210  179.5340  139.4230 C   0  0  0  0  0  0  0  0  0  0  0  0
  184.7400  179.4950  140.5970 N   0  0  0  0  0  0  0  0  0  0  0  0
  184.9840  178.3910  141.2330 C   0  0  0  0  0  3  0  0  0  0  0  0
  185.8660  178.3930  142.4300 C   0  0  0  0  0  2  0  0  0  0  0  0
  185.0600  178.0550  143.6660 C   0  0  0  0  0  2  0  0  0  0  0  0
  186.2280  178.9500  147.2650 C   0  0  0  0  0  2  0  0  0  0  0  0
  185.3500  178.7110  146.0770 C   0  0  0  0  0  0  0  0  0  0  0  0
  187.4350  178.0140  147.2690 C   0  0  0  0  0  2  0  0  0  0  0  0
  187.1620  177.4380  144.8690 C   0  0  0  0  0  2  0  0  0  0  0  0
  188.1170  178.0260  145.9070 C   0  0  0  0  0  2  0  0  0  0  0  0
  184.1420  179.0710  146.1340 O   0  0  0  0  0  0  0  0  0  0  0  0
  185.8950  178.1620  144.8570 N   0  0  0  0  0  0  0  0  0  0  0  0
  191.8160  176.1190  138.4450 C   0  0  0  0  0  0  0  0  0  0  0  0
  191.1120  175.4650  137.5640 N   0  0  0  0  0  0  0  0  0  0  0  0
  193.2990  175.9460  138.4380 C   0  0  0  0  0  2  0  0  0  0  0  0
  193.6640  174.6500  137.7450 C   0  0  0  0  0  2  0  0  0  0  0  0
  194.8600  174.8590  136.9440 N   0  0  0  0  0  2  0  0  0  0  0  0
  195.7170  172.7870  138.3780 O   0  0  0  0  0  0  0  0  0  0  0  0
  195.2870  172.4210  135.9900 O   0  0  0  0  0  0  0  0  0  0  0  0
  195.8040  173.4040  137.0070 S   0  0  0  0  0  0  0  0  0  0  0  0
  197.7690  174.9080  135.7230 C   0  0  0  0  0  3  0  0  0  0  0  0
  199.8940  173.5000  137.0490 C   0  0  0  0  0  2  0  0  0  0  0  0
  200.2110  173.7510  135.2750 S   0  0  0  0  0  0  0  0  0  0  0  0
  198.9540  175.0290  135.1280 C   0  0  0  0  0  3  0  0  0  0  0  0
  197.4760  173.8060  136.6570 C   0  0  0  0  0  0  0  0  0  0  0  0
  198.4590  173.1320  137.2580 C   0  0  0  0  0  3  0  0  0  0  0  0
  191.2110  176.9730  139.3760 O   0  0  0  0  0  0  0  0  0  0  0  0
  189.8270  177.4730  142.8000 O   0  0  0  0  0  0  0  0  0  0  0  0
  189.1960  176.6260  141.9260 C   0  0  0  0  0  2  0  0  0  0  0  0
  190.1680  177.6570  141.4340 C   0  0  1  0  0  0  0  0  0  0  0  0
  191.6960  177.6910  141.5730 C   0  0  0  0  0  2  0  0  0  0  0  0
  191.0950  176.6360  140.7500 C   0  0  2  0  0  3  0  0  0  0  0  0
  1  6  2  0  0  0  0
  2 35  1  0  0  0  0
  2  6  1  0  0  0  0
  3  8  1  0  0  0  0
  4  8  1  0  0  0  0
  5  4  2  0  0  0  0
  7  5  1  1  0  0  0
  7  1  1  0  0  0  0
  8  2  2  0  0  0  0
  9 10  1  0  0  0  0
 10 13  1  0  0  0  0
 11 12  1  1  0  0  0
 11  7  1  0  0  0  0
 11  9  1  0  0  0  0
 12 14  1  0  0  0  0
 13 19  1  0  0  0  0
 13 22  1  6  0  0  0
 14 10  2  0  0  0  0
 17 15  1  0  0  0  0
 18 20  1  0  0  0  0
 18 19  1  0  0  0  0
 19 17  2  0  0  0  0
 20 16  1  1  0  0  0
 20 15  1  0  0  0  0
 21 22  2  0  0  0  0
 22 23  1  0  0  0  0
 23 24  2  0  0  0  0
 24 25  1  0  0  0  0
 25 26  1  0  0  0  0
 26 33  1  0  0  0  0
 27 29  1  0  0  0  0
 28 32  2  0  0  0  0
 28 27  1  0  0  0  0
 30 31  1  0  0  0  0
 31 29  1  0  0  0  0
 33 30  1  0  0  0  0
 33 28  1  0  0  0  0
 34 48  1  0  0  0  0
 35 34  2  0  0  0  0
 36 34  1  0  0  0  0
 37 36  1  0  0  0  0
 38 41  1  0  0  0  0
 38 37  1  0  0  0  0
 40 41  2  0  0  0  0
 41 39  2  0  0  0  0
 42 46  1  0  0  0  0
 43 47  1  0  0  0  0
 44 43  1  0  0  0  0
 45 44  1  0  0  0  0
 45 42  2  0  0  0  0
 46 41  1  0  0  0  0
 46 47  2  0  0  0  0
 50 49  1  0  0  0  0
 51 52  1  6  0  0  0
 51 50  1  0  0  0  0
 51 49  1  0  0  0  0
 53 48  1  6  0  0  0
 53 51  1  0  0  0  0
 53 52  1  0  0  0  0
M  END
>  <MODEL>
6

>  <REMARK>
 VINA RESULT:      -7.4      4.618      9.737
  Name = 
  15 active torsions:
  status: ('A' for Active; 'I' for Inactive)
    1  A    between atoms: C_10  and  N_32
    2  A    between atoms: C_14  and  C_47
    3  A    between atoms: N_15  and  S_52
    4  A    between atoms: N_15  and  C_53
    5  A    between atoms: C_20  and  C_39
    6  A    between atoms: C_20  and  O_44
    7  A    between atoms: C_26  and  S_52
    8  A    between atoms: C_27  and  C_33
    9  A    between atoms: C_27  and  C_34
   10  A    between atoms: C_33  and  N_38
   11  A    between atoms: C_39  and  C_53
   12  A    between atoms: C_40  and  C_41
   13  A    between atoms: C_40  and  C_48
   14  A    between atoms: O_44  and  C_49
   15  A    between atoms: C_48  and  N_51
                            x       y       z     vdW  Elec       q    Type
                         _______ _______ _______ _____ _____    ______ ____

>  <TORSDO>
F 15

$$$$
=
 OpenBabel10232409323D

 53 59  0  0  1  0  0  0  0  0999 V2000
  190.0440  176.6910  137.2760 N   0  0  0  0  0  0  0  0  0  0  0  0
  187.9220  177.6460  138.1320 C   0  0  0  0  0  0  0  0  0  0  0  0
  185.5600  177.3010  137.5030 C   0  0  0  0  0  1  0  0  0  0  0  0
  187.3620  176.4990  135.9630 C   0  0  0  0  0  3  0  0  0  0  0  0
  188.4470  175.7740  135.7160 C   0  0  0  0  0  3  0  0  0  0  0  0
  189.3890  177.6320  137.8850 C   0  0  0  0  0  3  0  0  0  0  0  0
  189.4480  175.4620  136.7710 C   0  0  1  0  0  3  0  0  0  0  0  0
  187.0240  177.1290  137.2560 C   0  0  0  0  0  0  0  0  0  0  0  0
  191.7190  174.4690  137.1590 C   0  0  0  0  0  2  0  0  0  0  0  0
  192.8350  175.0210  136.3520 C   0  0  0  0  0  0  0  0  0  0  0  0
  190.5170  174.5140  136.2220 C   0  0  2  0  0  3  0  0  0  0  0  0
  191.0330  174.9480  134.8450 C   0  0  0  0  0  2  0  0  0  0  0  0
  194.1170  175.1680  136.7630 C   0  0  2  0  0  3  0  0  0  0  0  0
  192.4190  175.3210  135.0320 N   0  0  0  0  0  0  0  0  0  0  0  0
  197.2160  176.1510  134.3460 S   0  0  0  0  0  0  0  0  0  0  0  0
  196.5300  178.7630  134.8190 C   0  0  0  0  0  1  0  0  0  0  0  0
  196.2360  175.1850  135.4820 C   0  0  0  0  0  3  0  0  0  0  0  0
  194.9310  177.0400  135.2930 O   0  0  0  0  0  0  0  0  0  0  0  0
  195.1230  175.7890  135.8590 C   0  0  0  0  0  0  0  0  0  0  0  0
  195.9270  177.4480  134.3700 C   0  0  2  0  0  3  0  0  0  0  0  0
  194.5420  175.5140  139.0800 O   0  0  0  0  0  0  0  0  0  0  0  0
  194.5920  174.7160  138.1020 C   0  0  0  0  0  0  0  0  0  0  0  0
  195.0660  173.3810  138.3130 N   0  0  0  0  0  0  0  0  0  0  0  0
  194.7920  172.4120  137.4950 C   0  0  0  0  0  3  0  0  0  0  0  0
  195.3320  171.0490  137.7380 C   0  0  0  0  0  2  0  0  0  0  0  0
  196.1000  170.5730  136.5230 C   0  0  0  0  0  2  0  0  0  0  0  0
  198.8450  168.4610  138.2910 C   0  0  0  0  0  2  0  0  0  0  0  0
  197.5150  168.9070  137.7670 C   0  0  0  0  0  0  0  0  0  0  0  0
  199.9850  168.8990  137.3740 C   0  0  0  0  0  2  0  0  0  0  0  0
  198.5800  170.5830  136.2100 C   0  0  0  0  0  2  0  0  0  0  0  0
  199.8510  170.3770  137.0330 C   0  0  0  0  0  2  0  0  0  0  0  0
  196.4790  168.2920  138.1410 O   0  0  0  0  0  0  0  0  0  0  0  0
  197.4120  170.0730  136.9210 N   0  0  0  0  0  0  0  0  0  0  0  0
  187.8580  178.3950  140.4870 C   0  0  0  0  0  0  0  0  0  0  0  0
  187.4080  178.3780  139.2640 N   0  0  0  0  0  0  0  0  0  0  0  0
  187.1720  179.2690  141.4840 C   0  0  0  0  0  2  0  0  0  0  0  0
  185.6870  178.9710  141.4970 C   0  0  0  0  0  2  0  0  0  0  0  0
  185.4120  177.9720  142.5170 N   0  0  0  0  0  2  0  0  0  0  0  0
  184.8530  180.2800  143.7190 O   0  0  0  0  0  0  0  0  0  0  0  0
  183.2900  178.4170  144.0460 O   0  0  0  0  0  0  0  0  0  0  0  0
  184.7410  178.7890  143.8950 S   0  0  0  0  0  0  0  0  0  0  0  0
  185.2650  178.8720  146.6310 C   0  0  0  0  0  3  0  0  0  0  0  0
  187.3530  176.9100  146.4210 C   0  0  0  0  0  2  0  0  0  0  0  0
  187.8040  178.3120  147.4900 S   0  0  0  0  0  0  0  0  0  0  0  0
  186.0990  178.8560  147.6690 C   0  0  0  0  0  3  0  0  0  0  0  0
  185.6370  178.3040  145.3240 C   0  0  0  0  0  0  0  0  0  0  0  0
  186.6230  177.4100  145.2160 C   0  0  0  0  0  3  0  0  0  0  0  0
  188.9520  177.6110  140.8730 O   0  0  0  0  0  0  0  0  0  0  0  0
  191.2660  176.4680  143.5620 O   0  0  0  0  0  0  0  0  0  0  0  0
  191.7130  177.3380  142.6020 C   0  0  0  0  0  2  0  0  0  0  0  0
  190.4750  176.5190  142.3840 C   0  0  1  0  0  0  0  0  0  0  0  0
  189.0920  176.6640  143.0330 C   0  0  0  0  0  2  0  0  0  0  0  0
  189.5620  177.7360  142.1490 C   0  0  2  0  0  3  0  0  0  0  0  0
  1  6  2  0  0  0  0
  2 35  1  0  0  0  0
  4  8  1  0  0  0  0
  5  4  2  0  0  0  0
  6  2  1  0  0  0  0
  7  5  1  6  0  0  0
  7  1  1  0  0  0  0
  8  3  1  0  0  0  0
  8  2  2  0  0  0  0
 10 13  1  0  0  0  0
 10  9  1  0  0  0  0
 11 12  1  6  0  0  0
 11  7  1  0  0  0  0
 11  9  1  0  0  0  0
 12 14  1  0  0  0  0
 13 22  1  6  0  0  0
 14 10  2  0  0  0  0
 15 20  1  0  0  0  0
 15 17  1  0  0  0  0
 17 19  2  0  0  0  0
 18 19  1  0  0  0  0
 19 13  1  0  0  0  0
 20 16  1  1  0  0  0
 20 18  1  0  0  0  0
 22 23  1  0  0  0  0
 22 21  2  0  0  0  0
 24 25  1  0  0  0  0
 24 23  2  0  0  0  0
 26 33  1  0  0  0  0
 26 25  1  0  0  0  0
 28 32  2  0  0  0  0
 28 27  1  0  0  0  0
 29 27  1  0  0  0  0
 30 33  1  0  0  0  0
 30 31  1  0  0  0  0
 31 29  1  0  0  0  0
 33 28  1  0  0  0  0
 34 48  1  0  0  0  0
 34 36  1  0  0  0  0
 35 34  2  0  0  0  0
 36 37  1  0  0  0  0
 37 38  1  0  0  0  0
 38 41  1  0  0  0  0
 39 41  2  0  0  0  0
 41 40  2  0  0  0  0
 41 46  1  0  0  0  0
 42 45  2  0  0  0  0
 43 44  1  0  0  0  0
 44 45  1  0  0  0  0
 46 42  1  0  0  0  0
 47 46  2  0  0  0  0
 47 43  1  0  0  0  0
 50 49  1  0  0  0  0
 51 50  1  6  0  0  0
 51 52  1  0  0  0  0
 51 49  1  0  0  0  0
 53 48  1  6  0  0  0
 53 51  1  0  0  0  0
 53 52  1  0  0  0  0
M  END
>  <MODEL>
7

>  <REMARK>
 VINA RESULT:      -7.4      5.595     10.312
  Name = 
  15 active torsions:
  status: ('A' for Active; 'I' for Inactive)
    1  A    between atoms: C_10  and  N_32
    2  A    between atoms: C_14  and  C_47
    3  A    between atoms: N_15  and  S_52
    4  A    between atoms: N_15  and  C_53
    5  A    between atoms: C_20  and  C_39
    6  A    between atoms: C_20  and  O_44
    7  A    between atoms: C_26  and  S_52
    8  A    between atoms: C_27  and  C_33
    9  A    between atoms: C_27  and  C_34
   10  A    between atoms: C_33  and  N_38
   11  A    between atoms: C_39  and  C_53
   12  A    between atoms: C_40  and  C_41
   13  A    between atoms: C_40  and  C_48
   14  A    between atoms: O_44  and  C_49
   15  A    between atoms: C_48  and  N_51
                            x       y       z     vdW  Elec       q    Type
                         _______ _______ _______ _____ _____    ______ ____

>  <TORSDO>
F 15

$$$$
=
 OpenBabel10232409323D

 53 59  0  0  1  0  0  0  0  0999 V2000
  185.3950  178.9010  139.3330 N   0  0  0  0  0  0  0  0  0  0  0  0
  183.9780  178.8180  141.3660 C   0  0  0  0  0  0  0  0  0  0  0  0
  181.5910  178.3050  141.7200 C   0  0  0  0  0  1  0  0  0  0  0  0
  182.4060  178.7780  139.4020 C   0  0  0  0  0  3  0  0  0  0  0  0
  183.2110  178.5270  138.3760 C   0  0  0  0  0  3  0  0  0  0  0  0
  185.1490  179.2540  140.5580 C   0  0  0  0  0  3  0  0  0  0  0  0
  184.5800  177.9750  138.5590 C   0  0  1  0  0  3  0  0  0  0  0  0
  182.7510  178.6060  140.8280 C   0  0  0  0  0  0  0  0  0  0  0  0
  185.5020  176.1880  137.0590 C   0  0  0  0  0  2  0  0  0  0  0  0
  186.9790  176.1040  136.9520 C   0  0  0  0  0  0  0  0  0  0  0  0
  185.2170  177.6790  137.2000 C   0  0  2  0  0  3  0  0  0  0  0  0
  186.5480  178.4140  137.0050 C   0  0  0  0  0  3  0  0  0  0  0  0
  187.7030  174.9690  136.7980 C   0  0  0  0  0  0  0  0  0  0  0  0
  187.5710  177.3900  136.9530 N   0  0  0  0  0  0  0  0  0  0  0  0
  191.6880  175.2350  137.4750 S   0  0  0  0  0  0  0  0  0  0  0  0
  191.9310  175.7640  134.7960 C   0  0  0  0  0  1  0  0  0  0  0  0
  189.9370  175.2870  137.8160 C   0  0  0  0  0  3  0  0  0  0  0  0
  189.9050  174.7660  135.6010 O   0  0  0  0  0  0  0  0  0  0  0  0
  189.1890  175.0320  136.7580 C   0  0  0  0  0  0  0  0  0  0  0  0
  191.3150  174.7610  135.7480 C   0  0  2  0  0  3  0  0  0  0  0  0
  187.3010  172.7330  137.5130 O   0  0  0  0  0  0  0  0  0  0  0  0
  187.0730  173.6260  136.6480 C   0  0  0  0  0  0  0  0  0  0  0  0
  186.1830  173.3370  135.5640 N   0  0  0  0  0  0  0  0  0  0  0  0
  185.1880  172.5130  135.6870 C   0  0  0  0  0  3  0  0  0  0  0  0
  184.2710  172.2670  134.5430 C   0  0  0  0  0  2  0  0  0  0  0  0
  182.8780  171.9610  135.0540 C   0  0  0  0  0  2  0  0  0  0  0  0
  180.9520  174.1910  137.5910 C   0  0  0  0  0  2  0  0  0  0  0  0
  181.6570  173.0200  136.9810 C   0  0  0  0  0  0  0  0  0  0  0  0
  181.5350  175.5150  137.1000 C   0  0  0  0  0  2  0  0  0  0  0  0
  182.6750  174.4500  135.1680 C   0  0  0  0  0  2  0  0  0  0  0  0
  181.6550  175.5100  135.5820 C   0  0  0  0  0  2  0  0  0  0  0  0
  181.6050  171.9060  137.5710 O   0  0  0  0  0  0  0  0  0  0  0  0
  182.3080  173.1400  135.6970 N   0  0  0  0  0  0  0  0  0  0  0  0
  184.9920  178.1530  143.5210 C   0  0  0  0  0  0  0  0  0  0  0  0
  184.0970  178.7710  142.8040 N   0  0  0  0  0  0  0  0  0  0  0  0
  184.9270  178.2860  145.0060 C   0  0  0  0  0  2  0  0  0  0  0  0
  186.3210  178.4690  145.5690 C   0  0  0  0  0  2  0  0  0  0  0  0
  186.6940  177.2760  146.3140 N   0  0  0  0  0  2  0  0  0  0  0  0
  187.7790  179.1590  147.8510 O   0  0  0  0  0  0  0  0  0  0  0  0
  187.8500  176.8450  148.6620 O   0  0  0  0  0  0  0  0  0  0  0  0
  187.9390  177.7190  147.4400 S   0  0  0  0  0  0  0  0  0  0  0  0
  189.8780  178.4060  145.5590 C   0  0  0  0  0  3  0  0  0  0  0  0
  191.7000  176.4020  146.5170 C   0  0  0  0  0  2  0  0  0  0  0  0
  191.6070  176.4630  144.7010 S   0  0  0  0  0  0  0  0  0  0  0  0
  190.8390  178.0900  144.6930 C   0  0  0  0  0  3  0  0  0  0  0  0
  189.4980  177.5080  146.6630 C   0  0  0  0  0  0  0  0  0  0  0  0
  190.3310  176.5590  147.0970 C   0  0  0  0  0  3  0  0  0  0  0  0
  185.9910  177.3720  142.9270 O   0  0  0  0  0  0  0  0  0  0  0  0
  189.4500  177.6020  141.5550 O   0  0  0  0  0  0  0  0  0  0  0  0
  188.5950  178.6680  141.4340 C   0  0  0  0  0  2  0  0  0  0  0  0
  188.0740  177.2910  141.7230 C   0  0  1  0  0  0  0  0  0  0  0  0
  188.1720  176.4700  143.0160 C   0  0  0  0  0  2  0  0  0  0  0  0
  187.3700  177.6970  143.0300 C   0  0  2  0  0  3  0  0  0  0  0  0
  1  6  2  0  0  0  0
  2 35  1  0  0  0  0
  4  8  1  0  0  0  0
  5  4  2  0  0  0  0
  6  2  1  0  0  0  0
  7  5  1  6  0  0  0
  7  1  1  0  0  0  0
  8  2  2  0  0  0  0
  8  3  1  0  0  0  0
  9 11  1  0  0  0  0
 10 14  1  0  0  0  0
 10  9  1  0  0  0  0
 11 12  1  1  0  0  0
 11  7  1  0  0  0  0
 13 10  2  0  0  0  0
 14 12  2  0  0  0  0
 15 17  1  0  0  0  0
 18 20  1  0  0  0  0
 18 19  1  0  0  0  0
 19 13  1  0  0  0  0
 19 17  2  0  0  0  0
 20 16  1  6  0  0  0
 20 15  1  0  0  0  0
 22 13  1  0  0  0  0
 22 21  2  0  0  0  0
 23 24  2  0  0  0  0
 23 22  1  0  0  0  0
 25 26  1  0  0  0  0
 25 24  1  0  0  0  0
 26 33  1  0  0  0  0
 28 32  2  0  0  0  0
 28 27  1  0  0  0  0
 29 27  1  0  0  0  0
 30 31  1  0  0  0  0
 30 33  1  0  0  0  0
 31 29  1  0  0  0  0
 33 28  1  0  0  0  0
 34 36  1  0  0  0  0
 35 34  2  0  0  0  0
 36 37  1  0  0  0  0
 37 38  1  0  0  0  0
 38 41  1  0  0  0  0
 41 39  2  0  0  0  0
 41 40  2  0  0  0  0
 42 46  1  0  0  0  0
 43 47  1  0  0  0  0
 44 43  1  0  0  0  0
 45 44  1  0  0  0  0
 45 42  2  0  0  0  0
 46 47  2  0  0  0  0
 46 41  1  0  0  0  0
 48 34  1  0  0  0  0
 49 51  1  0  0  0  0
 50 49  1  0  0  0  0
 51 50  1  6  0  0  0
 51 52  1  0  0  0  0
 51 53  1  0  0  0  0
 52 53  1  0  0  0  0
 53 48  1  6  0  0  0
M  END
>  <MODEL>
8

>  <REMARK>
 VINA RESULT:      -7.3      3.063      6.123
  Name = 
  15 active torsions:
  status: ('A' for Active; 'I' for Inactive)
    1  A    between atoms: C_10  and  N_32
    2  A    between atoms: C_14  and  C_47
    3  A    between atoms: N_15  and  S_52
    4  A    between atoms: N_15  and  C_53
    5  A    between atoms: C_20  and  C_39
    6  A    between atoms: C_20  and  O_44
    7  A    between atoms: C_26  and  S_52
    8  A    between atoms: C_27  and  C_33
    9  A    between atoms: C_27  and  C_34
   10  A    between atoms: C_33  and  N_38
   11  A    between atoms: C_39  and  C_53
   12  A    between atoms: C_40  and  C_41
   13  A    between atoms: C_40  and  C_48
   14  A    between atoms: O_44  and  C_49
   15  A    between atoms: C_48  and  N_51
                            x       y       z     vdW  Elec       q    Type
                         _______ _______ _______ _____ _____    ______ ____

>  <TORSDO>
F 15

$$$$
=
 OpenBabel10232409323D

 53 59  0  0  1  0  0  0  0  0999 V2000
  189.8870  176.4000  140.7940 N   0  0  0  0  0  0  0  0  0  0  0  0
  189.5360  177.6030  142.9340 C   0  0  0  0  0  0  0  0  0  0  0  0
  190.8410  179.3370  144.1090 C   0  0  0  0  0  1  0  0  0  0  0  0
  191.9100  178.0660  142.2390 C   0  0  0  0  0  3  0  0  0  0  0  0
  191.9400  177.6550  140.9760 C   0  0  0  0  0  3  0  0  0  0  0  0
  189.3630  176.4750  141.9800 C   0  0  0  0  0  3  0  0  0  0  0  0
  190.7000  177.4420  140.1830 C   0  0  1  0  0  3  0  0  0  0  0  0
  190.6900  178.3100  143.0350 C   0  0  0  0  0  0  0  0  0  0  0  0
  189.8390  177.2810  137.8320 C   0  0  0  0  0  2  0  0  0  0  0  0
  189.5430  175.9200  137.3220 C   0  0  0  0  0  0  0  0  0  0  0  0
  191.0530  177.0900  138.7350 C   0  0  2  0  0  3  0  0  0  0  0  0
  191.5070  175.6340  138.5810 C   0  0  0  0  0  3  0  0  0  0  0  0
  188.5470  175.5900  136.4650 C   0  0  0  0  0  0  0  0  0  0  0  0
  190.4920  174.9760  137.7850 N   0  0  0  0  0  0  0  0  0  0  0  0
  188.5960  171.8380  134.9400 S   0  0  0  0  0  0  0  0  0  0  0  0
  186.0210  171.6190  135.8560 C   0  0  0  0  0  1  0  0  0  0  0  0
  189.0300  173.5570  135.1370 C   0  0  0  0  0  3  0  0  0  0  0  0
  187.4190  173.3580  136.7330 O   0  0  0  0  0  0  0  0  0  0  0  0
  188.3350  174.1690  136.0800 C   0  0  0  0  0  0  0  0  0  0  0  0
  187.4100  172.0010  136.3220 C   0  0  2  0  0  3  0  0  0  0  0  0
  188.1090  177.4650  135.0640 O   0  0  0  0  0  0  0  0  0  0  0  0
  187.6360  176.6040  135.8590 C   0  0  0  0  0  0  0  0  0  0  0  0
  186.2300  176.5980  136.1260 N   0  0  0  0  0  0  0  0  0  0  0  0
  185.6990  177.3370  137.0510 C   0  0  0  0  0  3  0  0  0  0  0  0
  184.2290  177.3210  137.2730 C   0  0  0  0  0  2  0  0  0  0  0  0
  183.8330  176.0690  138.0270 C   0  0  0  0  0  2  0  0  0  0  0  0
  180.1030  175.0060  137.7610 C   0  0  0  0  0  2  0  0  0  0  0  0
  181.3590  175.6680  138.2340 C   0  0  0  0  0  0  0  0  0  0  0  0
  180.1140  174.7970  136.2470 C   0  0  0  0  0  2  0  0  0  0  0  0
  182.5690  175.1310  136.0850 C   0  0  0  0  0  2  0  0  0  0  0  0
  181.4250  174.1560  135.8120 C   0  0  0  0  0  2  0  0  0  0  0  0
  181.3420  176.2850  139.3340 O   0  0  0  0  0  0  0  0  0  0  0  0
  182.5890  175.5290  137.4900 N   0  0  0  0  0  0  0  0  0  0  0  0
  188.4180  177.4210  145.1320 C   0  0  0  0  0  0  0  0  0  0  0  0
  188.5040  177.8630  143.9090 N   0  0  0  0  0  0  0  0  0  0  0  0
  187.2630  177.8650  145.9670 C   0  0  0  0  0  2  0  0  0  0  0  0
  186.3720  178.7900  145.1650 C   0  0  0  0  0  2  0  0  0  0  0  0
  185.2470  178.0310  144.6410 N   0  0  0  0  0  2  0  0  0  0  0  0
  185.5570  179.9670  142.8400 O   0  0  0  0  0  0  0  0  0  0  0  0
  185.4100  177.6590  142.0200 O   0  0  0  0  0  0  0  0  0  0  0  0
  184.8960  178.6300  143.0500 S   0  0  0  0  0  0  0  0  0  0  0  0
  182.3410  178.9920  144.1020 C   0  0  0  0  0  3  0  0  0  0  0  0
  181.1360  179.0450  141.4950 C   0  0  0  0  0  2  0  0  0  0  0  0
  180.2010  178.0360  142.6860 S   0  0  0  0  0  0  0  0  0  0  0  0
  181.0290  178.7640  144.1070 C   0  0  0  0  0  3  0  0  0  0  0  0
  183.1580  178.8110  142.8900 C   0  0  0  0  0  0  0  0  0  0  0  0
  182.6010  178.8100  141.6770 C   0  0  0  0  0  3  0  0  0  0  0  0
  189.3740  176.5440  145.6600 O   0  0  0  0  0  0  0  0  0  0  0  0
  192.2000  176.1740  148.0620 O   0  0  0  0  0  0  0  0  0  0  0  0
  192.3470  175.7530  146.7640 C   0  0  0  0  0  2  0  0  0  0  0  0
  190.9850  175.9730  147.3550 C   0  0  1  0  0  0  0  0  0  0  0  0
  190.2840  177.2910  147.7080 C   0  0  0  0  0  2  0  0  0  0  0  0
  190.5570  177.0050  146.2950 C   0  0  2  0  0  3  0  0  0  0  0  0
  1  6  2  0  0  0  0
  2  8  2  0  0  0  0
  2 35  1  0  0  0  0
  4  8  1  0  0  0  0
  5  4  2  0  0  0  0
  6  2  1  0  0  0  0
  7  1  1  0  0  0  0
  7  5  1  1  0  0  0
  8  3  1  0  0  0  0
 10 14  1  0  0  0  0
 10  9  1  0  0  0  0
 11  9  1  6  0  0  0
 11  7  1  0  0  0  0
 12 11  1  0  0  0  0
 13 10  2  0  0  0  0
 14 12  2  0  0  0  0
 15 17  1  0  0  0  0
 15 20  1  0  0  0  0
 17 19  2  0  0  0  0
 19 13  1  0  0  0  0
 19 18  1  0  0  0  0
 20 16  1  6  0  0  0
 20 18  1  0  0  0  0
 21 22  2  0  0  0  0
 22 23  1  0  0  0  0
 22 13  1  0  0  0  0
 23 24  2  0  0  0  0
 24 25  1  0  0  0  0
 25 26  1  0  0  0  0
 27 28  1  0  0  0  0
 28 32  2  0  0  0  0
 29 27  1  0  0  0  0
 30 33  1  0  0  0  0
 31 30  1  0  0  0  0
 31 29  1  0  0  0  0
 33 26  1  0  0  0  0
 33 28  1  0  0  0  0
 34 48  1  0  0  0  0
 34 36  1  0  0  0  0
 35 34  2  0  0  0  0
 37 36  1  0  0  0  0
 38 37  1  0  0  0  0
 39 41  2  0  0  0  0
 40 41  2  0  0  0  0
 41 38  1  0  0  0  0
 42 45  2  0  0  0  0
 43 47  1  0  0  0  0
 43 44  1  0  0  0  0
 44 45  1  0  0  0  0
 46 41  1  0  0  0  0
 46 42  1  0  0  0  0
 47 46  2  0  0  0  0
 50 49  1  0  0  0  0
 51 50  1  1  0  0  0
 51 52  1  0  0  0  0
 51 49  1  0  0  0  0
 53 48  1  6  0  0  0
 53 51  1  0  0  0  0
 53 52  1  0  0  0  0
M  END
>  <MODEL>
9

>  <REMARK>
 VINA RESULT:      -7.3      2.344      2.960
  Name = 
  15 active torsions:
  status: ('A' for Active; 'I' for Inactive)
    1  A    between atoms: C_10  and  N_32
    2  A    between atoms: C_14  and  C_47
    3  A    between atoms: N_15  and  S_52
    4  A    between atoms: N_15  and  C_53
    5  A    between atoms: C_20  and  C_39
    6  A    between atoms: C_20  and  O_44
    7  A    between atoms: C_26  and  S_52
    8  A    between atoms: C_27  and  C_33
    9  A    between atoms: C_27  and  C_34
   10  A    between atoms: C_33  and  N_38
   11  A    between atoms: C_39  and  C_53
   12  A    between atoms: C_40  and  C_41
   13  A    between atoms: C_40  and  C_48
   14  A    between atoms: O_44  and  C_49
   15  A    between atoms: C_48  and  N_51
                            x       y       z     vdW  Elec       q    Type
                         _______ _______ _______ _____ _____    ______ ____

>  <TORSDO>
F 15

$$$$
