=
 OpenBabel10232409513D

 59 64  0  0  1  0  0  0  0  0999 V2000
  189.2590  176.6390  135.0230 C   0  0  1  0  0  3  0  0  0  0  0  0
  188.7220  177.5290  136.1740 C   0  0  2  0  0  3  0  0  0  0  0  0
  193.9910  174.4950  136.5340 C   0  0  2  0  0  3  0  0  0  0  0  0
  189.5330  173.5200  137.0550 C   0  0  0  0  0  1  0  0  0  0  0  0
  191.2830  176.8800  138.7850 C   0  0  0  0  0  0  0  0  0  0  0  0
  189.7520  177.9440  137.1240 N   0  0  0  0  0  2  0  0  0  0  0  0
  193.4750  176.2830  138.0180 O   0  0  0  0  0  0  0  0  0  0  0  0
  194.2380  175.8830  136.9510 N   0  0  0  0  0  0  0  0  0  0  0  0
  188.9550  177.1520  139.1710 O   0  0  0  0  0  0  0  0  0  0  0  0
  192.5140  174.2400  136.2520 C   0  0  0  0  0  2  0  0  0  0  0  0
  189.9930  175.3200  135.3430 C   0  0  2  0  0  3  0  0  0  0  0  0
  188.5430  175.3060  134.9070 C   0  0  0  0  0  2  0  0  0  0  0  0
  192.1050  176.2930  137.6630 C   0  0  1  0  0  3  0  0  0  0  0  0
  190.1320  174.8980  136.8180 C   0  0  2  0  0  3  0  0  0  0  0  0
  189.9420  177.3700  138.4200 C   0  0  0  0  0  0  0  0  0  0  0  0
  191.6020  174.8870  137.2970 C   0  0  1  0  0  3  0  0  0  0  0  0
  191.7160  176.7670  140.0520 C   0  0  0  0  0  3  0  0  0  0  0  0
  192.1580  178.8230  144.2630 O   0  0  0  0  0  0  0  0  0  0  0  0
  189.0600  177.9930  142.4750 C   0  0  0  0  0  0  0  0  0  0  0  0
  189.6320  177.4790  141.3840 C   0  0  0  0  0  3  0  0  0  0  0  0
  189.8840  178.3980  143.6760 C   0  0  0  0  0  2  0  0  0  0  0  0
  191.3610  178.3530  143.4110 C   0  0  0  0  0  0  0  0  0  0  0  0
  191.0960  177.3100  141.2740 C   0  0  0  0  0  0  0  0  0  0  0  0
  191.8720  177.7620  142.2100 N   0  0  0  0  0  0  0  0  0  0  0  0
  187.6380  178.1140  142.5050 N   0  0  0  0  0  2  0  0  0  0  0  0
  187.5010  176.1830  143.7990 O   0  0  0  0  0  1  0  0  0  0  0  0
  186.3160  178.1010  144.5360 C   0  0  0  0  0  1  0  0  0  0  0  0
  186.7850  177.2900  143.3470 C   0  0  1  0  0  3  0  0  0  0  0  0
  186.2660  177.8530  135.8080 C   0  0  0  0  0  1  0  0  0  0  0  0
  187.3160  177.2960  136.7590 C   0  0  1  0  0  3  0  0  0  0  0  0
  187.0780  175.9280  136.9210 O   0  0  0  0  0  0  0  0  0  0  0  0
  185.7090  175.8260  137.1820 C   0  0  0  0  0  2  0  0  0  0  0  0
  186.1980  173.4840  136.5090 C   0  0  0  0  0  3  0  0  0  0  0  0
  185.8110  172.1720  136.2340 C   0  0  0  0  0  3  0  0  0  0  0  0
  183.8970  174.0620  137.0420 C   0  0  0  0  0  0  0  0  0  0  0  0
  183.5140  172.7300  136.7770 C   0  0  0  0  0  0  0  0  0  0  0  0
  184.4740  171.7980  136.3700 C   0  0  0  0  0  3  0  0  0  0  0  0
  185.2530  174.4290  136.9230 C   0  0  0  0  0  0  0  0  0  0  0  0
  182.0910  172.2850  136.8940 C   0  0  0  0  0  2  0  0  0  0  0  0
  181.8960  170.9640  136.1750 C   0  0  0  0  0  1  0  0  0  0  0  0
  182.8790  175.0680  137.4900 C   0  0  0  0  0  2  0  0  0  0  0  0
  183.0620  175.3510  138.8440 O   0  0  0  0  0  1  0  0  0  0  0  0
  194.4460  173.6190  137.5230 O   0  0  0  0  0  0  0  0  0  0  0  0
  194.9520  172.5220  136.8250 C   0  0  0  0  0  2  0  0  0  0  0  0
  195.2940  171.5080  137.7210 O   0  0  0  0  0  0  0  0  0  0  0  0
  196.3470  170.8370  137.1020 C   0  0  0  0  0  2  0  0  0  0  0  0
  197.0220  171.7510  136.0940 C   0  0  0  0  0  2  0  0  0  0  0  0
  199.0330  172.2910  135.1710 O   0  0  0  0  0  0  0  0  0  0  0  0
  198.8810  173.1360  136.2220 C   0  0  1  0  0  3  0  0  0  0  0  0
  198.4580  171.7610  136.3160 N   0  0  0  0  0  0  0  0  0  0  0  0
  200.2100  173.3100  136.9300 C   0  0  0  0  0  2  0  0  0  0  0  0
  200.0140  173.2900  138.3110 O   0  0  0  0  0  0  0  0  0  0  0  0
  200.2300  174.6060  138.7190 C   0  0  0  0  0  2  0  0  0  0  0  0
  197.9030  175.0250  138.7950 F   0  0  0  0  0  0  0  0  0  0  0  0
  199.0580  175.0770  139.5530 C   0  0  0  0  0  2  0  0  0  0  0  0
  194.3460  176.8930  135.8820 C   0  0  0  0  0  2  0  0  0  0  0  0
  196.1010  178.1620  134.6730 C   0  0  0  0  0  1  0  0  0  0  0  0
  196.6910  176.0610  135.8310 C   0  0  0  0  0  1  0  0  0  0  0  0
  195.6140  176.7800  135.0440 C   0  0  0  0  0  3  0  0  0  0  0  0
  1 12  1  6  0  0  0
  1 11  1  0  0  0  0
  1  2  1  0  0  0  0
  2 30  1  1  0  0  0
  2  6  1  0  0  0  0
  3  8  1  0  0  0  0
  3 43  1  1  0  0  0
  5 17  2  0  0  0  0
  6 15  1  0  0  0  0
  8  7  1  0  0  0  0
 10  3  1  0  0  0  0
 11 12  1  6  0  0  0
 11 14  1  0  0  0  0
 13  7  1  1  0  0  0
 13  5  1  0  0  0  0
 14  4  1  6  0  0  0
 14 16  1  0  0  0  0
 15  5  1  0  0  0  0
 15  9  2  0  0  0  0
 16 10  1  6  0  0  0
 16 13  1  0  0  0  0
 17 23  1  0  0  0  0
 19 25  1  0  0  0  0
 19 21  1  0  0  0  0
 20 19  2  0  0  0  0
 22 21  1  0  0  0  0
 22 18  2  0  0  0  0
 23 20  1  0  0  0  0
 23 24  2  0  0  0  0
 24 22  1  0  0  0  0
 25 28  1  0  0  0  0
 28 26  1  0  0  0  0
 28 27  1  1  0  0  0
 30 29  1  6  0  0  0
 30 31  1  0  0  0  0
 31 32  1  0  0  0  0
 33 38  1  0  0  0  0
 34 37  1  0  0  0  0
 34 33  2  0  0  0  0
 35 41  1  0  0  0  0
 36 39  1  0  0  0  0
 36 35  1  0  0  0  0
 37 36  2  0  0  0  0
 38 35  2  0  0  0  0
 38 32  1  0  0  0  0
 40 39  1  0  0  0  0
 41 42  1  0  0  0  0
 44 43  1  0  0  0  0
 44 45  1  0  0  0  0
 46 45  1  0  0  0  0
 47 50  1  0  0  0  0
 47 46  1  0  0  0  0
 48 49  1  0  0  0  0
 48 50  1  0  0  0  0
 49 50  1  0  0  0  0
 49 51  1  1  0  0  0
 51 52  1  0  0  0  0
 52 53  1  0  0  0  0
 53 55  1  0  0  0  0
 54 55  1  0  0  0  0
 56  8  1  0  0  0  0
 57 59  1  0  0  0  0
 59 58  1  0  0  0  0
 59 56  1  0  0  0  0
M  END
>  <MODEL>
1

>  <REMARK>
 VINA RESULT:      -6.3      0.000      0.000
  Name = 
  21 active torsions:
  status: ('A' for Active; 'I' for Inactive)
    1  A    between atoms: C_4  and  C_9
    2  A    between atoms: O_5  and  C_25
    3  A    between atoms: O_5  and  C_41
    4  A    between atoms: C_9  and  O_17
    5  A    between atoms: O_11  and  C_15
    6  A    between atoms: O_11  and  C_26
    7  A    between atoms: C_12  and  C_48
    8  A    between atoms: O_17  and  C_24
    9  A    between atoms: C_18  and  N_38
   10  A    between atoms: C_21  and  C_47
   11  A    between atoms: C_23  and  O_29
   12  A    between atoms: C_23  and  C_56
   13  A    between atoms: C_24  and  C_52
   14  A    between atoms: C_25  and  C_39
   15  A    between atoms: C_26  and  O_29
   16  A    between atoms: N_32  and  C_48
   17  A    between atoms: C_35  and  C_36
   18  A    between atoms: N_38  and  C_58
   19  A    between atoms: C_41  and  C_42
   20  A    between atoms: C_45  and  C_57
   21  A    between atoms: N_50  and  C_56
                            x       y       z     vdW  Elec       q    Type
                         _______ _______ _______ _____ _____    ______ ____

>  <TORSDO>
F 21

$$$$
=
 OpenBabel10232409513D

 59 64  0  0  1  0  0  0  0  0999 V2000
  185.0980  179.2430  142.0150 C   0  0  1  0  0  3  0  0  0  0  0  0
  186.3310  178.8440  141.1630 C   0  0  2  0  0  3  0  0  0  0  0  0
  180.7820  179.6240  138.7730 C   0  0  2  0  0  3  0  0  0  0  0  0
  183.0050  176.3080  141.0470 C   0  0  0  0  0  1  0  0  0  0  0  0
  184.7320  178.3420  137.8490 C   0  0  0  0  0  0  0  0  0  0  0  0
  186.1710  179.1160  139.7360 N   0  0  0  0  0  2  0  0  0  0  0  0
  182.7360  179.6000  137.4140 O   0  0  0  0  0  0  0  0  0  0  0  0
  181.7400  180.3760  137.9500 N   0  0  0  0  0  0  0  0  0  0  0  0
  186.4950  177.0270  138.7440 O   0  0  0  0  0  0  0  0  0  0  0  0
  181.4800  178.8270  139.8710 C   0  0  0  0  0  2  0  0  0  0  0  0
  183.7110  178.6450  141.6970 C   0  0  2  0  0  3  0  0  0  0  0  0
  184.5400  178.0990  142.8410 C   0  0  0  0  0  2  0  0  0  0  0  0
  183.5480  179.0650  138.4430 C   0  0  1  0  0  3  0  0  0  0  0  0
  183.6010  177.6180  140.5540 C   0  0  2  0  0  3  0  0  0  0  0  0
  185.8790  178.1260  138.7470 C   0  0  0  0  0  0  0  0  0  0  0  0
  182.7500  178.1340  139.3710 C   0  0  1  0  0  3  0  0  0  0  0  0
  184.6220  177.7840  136.6310 C   0  0  0  0  0  3  0  0  0  0  0  0
  188.8120  177.8370  134.4870 O   0  0  0  0  0  0  0  0  0  0  0  0
  186.5540  174.9790  134.9490 C   0  0  0  0  0  0  0  0  0  0  0  0
  185.6040  175.6270  135.6260 C   0  0  0  0  0  3  0  0  0  0  0  0
  187.7300  175.7160  134.3470 C   0  0  0  0  0  2  0  0  0  0  0  0
  187.7970  177.1530  134.7750 C   0  0  0  0  0  0  0  0  0  0  0  0
  185.6640  177.0850  135.8570 C   0  0  0  0  0  0  0  0  0  0  0  0
  186.7110  177.7570  135.4870 N   0  0  0  0  0  0  0  0  0  0  0  0
  186.4160  173.5700  134.7620 N   0  0  0  0  0  2  0  0  0  0  0  0
  187.2380  172.8920  136.8330 O   0  0  0  0  0  1  0  0  0  0  0  0
  186.6260  171.2110  135.2750 C   0  0  0  0  0  1  0  0  0  0  0  0
  187.2210  172.5890  135.4730 C   0  0  1  0  0  3  0  0  0  0  0  0
  188.6090  177.8090  141.0740 C   0  0  0  0  0  1  0  0  0  0  0  0
  187.1700  177.6040  141.5250 C   0  0  1  0  0  3  0  0  0  0  0  0
  187.1700  177.4050  142.9090 O   0  0  0  0  0  0  0  0  0  0  0  0
  188.2590  178.1430  143.3820 C   0  0  0  0  0  2  0  0  0  0  0  0
  187.7270  177.8030  145.7860 C   0  0  0  0  0  3  0  0  0  0  0  0
  188.0530  177.3800  147.0750 C   0  0  0  0  0  3  0  0  0  0  0  0
  189.9120  177.0930  144.9890 C   0  0  0  0  0  0  0  0  0  0  0  0
  190.2300  176.6530  146.2910 C   0  0  0  0  0  0  0  0  0  0  0  0
  189.3000  176.8050  147.3240 C   0  0  0  0  0  3  0  0  0  0  0  0
  188.6430  177.6540  144.7390 C   0  0  0  0  0  0  0  0  0  0  0  0
  191.5590  176.0450  146.6100 C   0  0  0  0  0  2  0  0  0  0  0  0
  192.0320  176.5100  147.9740 C   0  0  0  0  0  1  0  0  0  0  0  0
  190.8960  176.9250  143.8700 C   0  0  0  0  0  2  0  0  0  0  0  0
  191.8730  177.9170  143.9490 O   0  0  0  0  0  1  0  0  0  0  0  0
  180.0370  178.7660  137.9610 O   0  0  0  0  0  0  0  0  0  0  0  0
  180.4440  179.0600  136.6590 C   0  0  0  0  0  2  0  0  0  0  0  0
  179.9830  178.0740  135.7860 O   0  0  0  0  0  0  0  0  0  0  0  0
  180.9770  177.0960  135.8120 C   0  0  0  0  0  2  0  0  0  0  0  0
  180.6680  176.0710  136.8890 C   0  0  0  0  0  2  0  0  0  0  0  0
  181.5930  174.4000  138.1280 O   0  0  0  0  0  0  0  0  0  0  0  0
  181.0070  173.7820  137.0720 C   0  0  1  0  0  3  0  0  0  0  0  0
  181.6910  175.0400  136.9020 N   0  0  0  0  0  0  0  0  0  0  0  0
  181.8940  172.6510  136.5900 C   0  0  0  0  0  2  0  0  0  0  0  0
  181.9340  172.6460  135.1950 O   0  0  0  0  0  0  0  0  0  0  0  0
  183.0780  171.9160  134.8760 C   0  0  0  0  0  2  0  0  0  0  0  0
  181.5700  170.0980  135.0100 F   0  0  0  0  0  0  0  0  0  0  0  0
  182.8780  170.4660  135.2630 C   0  0  0  0  0  2  0  0  0  0  0  0
  182.2110  181.6670  138.4830 C   0  0  0  0  0  2  0  0  0  0  0  0
  182.2560  183.9640  137.5480 C   0  0  0  0  0  1  0  0  0  0  0  0
  180.3900  182.4480  136.9780 C   0  0  0  0  0  1  0  0  0  0  0  0
  181.3610  182.8610  138.0650 C   0  0  0  0  0  3  0  0  0  0  0  0
  1 12  1  1  0  0  0
  2 30  1  6  0  0  0
  2  1  1  0  0  0  0
  3 43  1  6  0  0  0
  3 10  1  0  0  0  0
  5 13  1  0  0  0  0
  5 15  1  0  0  0  0
  6  2  1  0  0  0  0
  7  8  1  0  0  0  0
  8 56  1  0  0  0  0
  8  3  1  0  0  0  0
  9 15  2  0  0  0  0
 11  1  1  0  0  0  0
 11 12  1  1  0  0  0
 13  7  1  6  0  0  0
 13 16  1  0  0  0  0
 14  4  1  1  0  0  0
 14 11  1  0  0  0  0
 15  6  1  0  0  0  0
 16 10  1  1  0  0  0
 16 14  1  0  0  0  0
 17  5  2  0  0  0  0
 18 22  2  0  0  0  0
 19 20  2  0  0  0  0
 20 23  1  0  0  0  0
 21 22  1  0  0  0  0
 21 19  1  0  0  0  0
 22 24  1  0  0  0  0
 23 17  1  0  0  0  0
 24 23  2  0  0  0  0
 25 19  1  0  0  0  0
 25 28  1  0  0  0  0
 28 27  1  1  0  0  0
 28 26  1  0  0  0  0
 30 29  1  1  0  0  0
 30 31  1  0  0  0  0
 31 32  1  0  0  0  0
 32 38  1  0  0  0  0
 33 34  1  0  0  0  0
 34 37  2  0  0  0  0
 35 36  2  0  0  0  0
 36 39  1  0  0  0  0
 36 37  1  0  0  0  0
 38 35  1  0  0  0  0
 38 33  2  0  0  0  0
 39 40  1  0  0  0  0
 41 42  1  0  0  0  0
 41 35  1  0  0  0  0
 44 43  1  0  0  0  0
 45 46  1  0  0  0  0
 45 44  1  0  0  0  0
 46 47  1  0  0  0  0
 47 50  1  0  0  0  0
 49 51  1  6  0  0  0
 49 48  1  0  0  0  0
 50 49  1  0  0  0  0
 50 48  1  0  0  0  0
 52 51  1  0  0  0  0
 53 52  1  0  0  0  0
 53 55  1  0  0  0  0
 54 55  1  0  0  0  0
 57 59  1  0  0  0  0
 58 59  1  0  0  0  0
 59 56  1  0  0  0  0
M  END
>  <MODEL>
2

>  <REMARK>
 VINA RESULT:      -4.8      6.185     12.175
  Name = 
  21 active torsions:
  status: ('A' for Active; 'I' for Inactive)
    1  A    between atoms: C_4  and  C_9
    2  A    between atoms: O_5  and  C_25
    3  A    between atoms: O_5  and  C_41
    4  A    between atoms: C_9  and  O_17
    5  A    between atoms: O_11  and  C_15
    6  A    between atoms: O_11  and  C_26
    7  A    between atoms: C_12  and  C_48
    8  A    between atoms: O_17  and  C_24
    9  A    between atoms: C_18  and  N_38
   10  A    between atoms: C_21  and  C_47
   11  A    between atoms: C_23  and  O_29
   12  A    between atoms: C_23  and  C_56
   13  A    between atoms: C_24  and  C_52
   14  A    between atoms: C_25  and  C_39
   15  A    between atoms: C_26  and  O_29
   16  A    between atoms: N_32  and  C_48
   17  A    between atoms: C_35  and  C_36
   18  A    between atoms: N_38  and  C_58
   19  A    between atoms: C_41  and  C_42
   20  A    between atoms: C_45  and  C_57
   21  A    between atoms: N_50  and  C_56
                            x       y       z     vdW  Elec       q    Type
                         _______ _______ _______ _____ _____    ______ ____

>  <TORSDO>
F 21

$$$$
=
 OpenBabel10232409513D

 59 64  0  0  1  0  0  0  0  0999 V2000
  191.4010  174.7400  135.3430 C   0  0  1  0  0  3  0  0  0  0  0  0
  191.9790  174.8140  136.7810 C   0  0  2  0  0  3  0  0  0  0  0  0
  186.1410  175.9940  135.5080 C   0  0  2  0  0  3  0  0  0  0  0  0
  190.1350  178.2500  135.2640 C   0  0  0  0  0  1  0  0  0  0  0  0
  189.0200  176.0760  138.6370 C   0  0  0  0  0  0  0  0  0  0  0  0
  190.9620  174.7330  137.8270 N   0  0  0  0  0  2  0  0  0  0  0  0
  186.8670  175.5370  137.7280 O   0  0  0  0  0  0  0  0  0  0  0  0
  186.1770  175.0600  136.6430 N   0  0  0  0  0  0  0  0  0  0  0  0
  191.2760  176.7000  139.0460 O   0  0  0  0  0  0  0  0  0  0  0  0
  187.5400  176.4370  135.0910 C   0  0  0  0  0  2  0  0  0  0  0  0
  190.3400  175.7620  134.8820 C   0  0  2  0  0  3  0  0  0  0  0  0
  191.7910  175.9220  134.4750 C   0  0  0  0  0  2  0  0  0  0  0  0
  188.2360  175.7020  137.4030 C   0  0  1  0  0  3  0  0  0  0  0  0
  189.9150  176.8700  135.8640 C   0  0  2  0  0  3  0  0  0  0  0  0
  190.4740  175.8480  138.5760 C   0  0  0  0  0  0  0  0  0  0  0  0
  188.4350  176.7470  136.2940 C   0  0  1  0  0  3  0  0  0  0  0  0
  188.4110  176.7460  139.6300 C   0  0  0  0  0  3  0  0  0  0  0  0
  192.0220  178.4280  142.1370 O   0  0  0  0  0  0  0  0  0  0  0  0
  188.6300  177.6590  143.3110 C   0  0  0  0  0  0  0  0  0  0  0  0
  188.1350  177.2640  142.1360 C   0  0  0  0  0  3  0  0  0  0  0  0
  190.0980  177.9810  143.4750 C   0  0  0  0  0  2  0  0  0  0  0  0
  190.8370  178.0100  142.1690 C   0  0  0  0  0  0  0  0  0  0  0  0
  188.9780  177.1560  140.9280 C   0  0  0  0  0  0  0  0  0  0  0  0
  190.2150  177.5470  140.9650 N   0  0  0  0  0  0  0  0  0  0  0  0
  187.7490  177.7280  144.4320 N   0  0  0  0  0  2  0  0  0  0  0  0
  187.0850  178.4280  146.5520 O   0  0  0  0  0  1  0  0  0  0  0  0
  188.9030  176.9100  146.4010 C   0  0  0  0  0  1  0  0  0  0  0  0
  188.1890  178.0880  145.7710 C   0  0  1  0  0  3  0  0  0  0  0  0
  193.7580  175.3390  138.4640 C   0  0  0  0  0  1  0  0  0  0  0  0
  193.2020  175.6980  137.0930 C   0  0  1  0  0  3  0  0  0  0  0  0
  194.2070  175.4900  136.1450 O   0  0  0  0  0  0  0  0  0  0  0  0
  195.2410  174.8610  136.8440 C   0  0  0  0  0  2  0  0  0  0  0  0
  195.0700  172.9190  135.3020 C   0  0  0  0  0  3  0  0  0  0  0  0
  195.6330  171.9320  134.4920 C   0  0  0  0  0  3  0  0  0  0  0  0
  197.2880  173.7560  135.8430 C   0  0  0  0  0  0  0  0  0  0  0  0
  197.8510  172.7660  135.0100 C   0  0  0  0  0  0  0  0  0  0  0  0
  197.0180  171.8590  134.3460 C   0  0  0  0  0  3  0  0  0  0  0  0
  195.8860  173.8380  135.9690 C   0  0  0  0  0  0  0  0  0  0  0  0
  199.3300  172.6370  134.8350 C   0  0  0  0  0  2  0  0  0  0  0  0
  199.8950  171.6680  135.8550 C   0  0  0  0  0  1  0  0  0  0  0  0
  198.1690  174.7410  136.5510 C   0  0  0  0  0  2  0  0  0  0  0  0
  197.7680  176.0400  136.2400 O   0  0  0  0  0  1  0  0  0  0  0  0
  185.3670  177.1090  135.8410 O   0  0  0  0  0  0  0  0  0  0  0  0
  184.0760  176.6080  136.0200 C   0  0  0  0  0  2  0  0  0  0  0  0
  183.1470  177.6410  135.8900 O   0  0  0  0  0  0  0  0  0  0  0  0
  182.1130  177.2900  136.7570 C   0  0  0  0  0  2  0  0  0  0  0  0
  181.9370  178.3650  137.8160 C   0  0  0  0  0  2  0  0  0  0  0  0
  183.2030  177.3370  139.4050 O   0  0  0  0  0  0  0  0  0  0  0  0
  182.8250  178.5190  139.9540 C   0  0  1  0  0  3  0  0  0  0  0  0
  181.9110  177.7620  139.1370 N   0  0  0  0  0  0  0  0  0  0  0  0
  182.4900  178.3130  141.4190 C   0  0  0  0  0  2  0  0  0  0  0  0
  183.1610  179.2610  142.1930 O   0  0  0  0  0  0  0  0  0  0  0  0
  184.0230  178.5160  142.9960 C   0  0  0  0  0  2  0  0  0  0  0  0
  183.9550  179.3510  145.2080 F   0  0  0  0  0  0  0  0  0  0  0  0
  184.6660  179.4210  144.0250 C   0  0  0  0  0  2  0  0  0  0  0  0
  186.4520  173.6450  136.3350 C   0  0  0  0  0  2  0  0  0  0  0  0
  187.9800  172.7960  134.5750 C   0  0  0  0  0  1  0  0  0  0  0  0
  185.5580  172.3330  134.4180 C   0  0  0  0  0  1  0  0  0  0  0  0
  186.5990  173.3470  134.8480 C   0  0  0  0  0  3  0  0  0  0  0  0
  1 12  1  6  0  0  0
  1  2  1  0  0  0  0
  2 30  1  6  0  0  0
  2  6  1  0  0  0  0
  3 43  1  1  0  0  0
  3  8  1  0  0  0  0
  5 17  2  0  0  0  0
  6 15  1  0  0  0  0
  8  7  1  0  0  0  0
 10  3  1  0  0  0  0
 11 12  1  6  0  0  0
 11  1  1  0  0  0  0
 11 14  1  0  0  0  0
 13  7  1  1  0  0  0
 13  5  1  0  0  0  0
 14  4  1  6  0  0  0
 14 16  1  0  0  0  0
 15  5  1  0  0  0  0
 15  9  2  0  0  0  0
 16 10  1  6  0  0  0
 16 13  1  0  0  0  0
 17 23  1  0  0  0  0
 18 22  2  0  0  0  0
 19 21  1  0  0  0  0
 19 25  1  0  0  0  0
 20 19  2  0  0  0  0
 22 21  1  0  0  0  0
 23 24  2  0  0  0  0
 23 20  1  0  0  0  0
 24 22  1  0  0  0  0
 25 28  1  0  0  0  0
 28 27  1  1  0  0  0
 28 26  1  0  0  0  0
 30 29  1  1  0  0  0
 31 32  1  0  0  0  0
 31 30  1  0  0  0  0
 33 38  1  0  0  0  0
 34 33  2  0  0  0  0
 35 38  2  0  0  0  0
 35 41  1  0  0  0  0
 36 35  1  0  0  0  0
 37 34  1  0  0  0  0
 37 36  2  0  0  0  0
 38 32  1  0  0  0  0
 39 36  1  0  0  0  0
 39 40  1  0  0  0  0
 42 41  1  0  0  0  0
 43 44  1  0  0  0  0
 45 44  1  0  0  0  0
 45 46  1  0  0  0  0
 46 47  1  0  0  0  0
 47 50  1  0  0  0  0
 48 49  1  0  0  0  0
 49 51  1  1  0  0  0
 50 48  1  0  0  0  0
 50 49  1  0  0  0  0
 51 52  1  0  0  0  0
 52 53  1  0  0  0  0
 53 55  1  0  0  0  0
 55 54  1  0  0  0  0
 56  8  1  0  0  0  0
 57 59  1  0  0  0  0
 58 59  1  0  0  0  0
 59 56  1  0  0  0  0
M  END
>  <MODEL>
3

>  <REMARK>
 VINA RESULT:      -4.6      3.287     10.352
  Name = 
  21 active torsions:
  status: ('A' for Active; 'I' for Inactive)
    1  A    between atoms: C_4  and  C_9
    2  A    between atoms: O_5  and  C_25
    3  A    between atoms: O_5  and  C_41
    4  A    between atoms: C_9  and  O_17
    5  A    between atoms: O_11  and  C_15
    6  A    between atoms: O_11  and  C_26
    7  A    between atoms: C_12  and  C_48
    8  A    between atoms: O_17  and  C_24
    9  A    between atoms: C_18  and  N_38
   10  A    between atoms: C_21  and  C_47
   11  A    between atoms: C_23  and  O_29
   12  A    between atoms: C_23  and  C_56
   13  A    between atoms: C_24  and  C_52
   14  A    between atoms: C_25  and  C_39
   15  A    between atoms: C_26  and  O_29
   16  A    between atoms: N_32  and  C_48
   17  A    between atoms: C_35  and  C_36
   18  A    between atoms: N_38  and  C_58
   19  A    between atoms: C_41  and  C_42
   20  A    between atoms: C_45  and  C_57
   21  A    between atoms: N_50  and  C_56
                            x       y       z     vdW  Elec       q    Type
                         _______ _______ _______ _____ _____    ______ ____

>  <TORSDO>
F 21

$$$$
=
 OpenBabel10232409513D

 59 64  0  0  1  0  0  0  0  0999 V2000
  186.2820  177.1530  137.6930 C   0  0  1  0  0  3  0  0  0  0  0  0
  186.9750  176.0770  136.8170 C   0  0  2  0  0  3  0  0  0  0  0  0
  189.5110  178.3570  141.8640 C   0  0  2  0  0  3  0  0  0  0  0  0
  189.0470  179.6520  137.4820 C   0  0  0  0  0  1  0  0  0  0  0  0
  190.2540  175.8090  138.5400 C   0  0  0  0  0  0  0  0  0  0  0  0
  188.0270  175.3410  137.5150 N   0  0  0  0  0  2  0  0  0  0  0  0
  190.2880  176.3330  140.8810 O   0  0  0  0  0  0  0  0  0  0  0  0
  189.6060  176.8910  141.9320 N   0  0  0  0  0  0  0  0  0  0  0  0
  189.9170  175.7040  136.1910 O   0  0  0  0  0  0  0  0  0  0  0  0
  188.9180  178.8280  140.5400 C   0  0  0  0  0  2  0  0  0  0  0  0
  187.1180  178.2720  138.3510 C   0  0  2  0  0  3  0  0  0  0  0  0
  186.3260  178.5440  137.0880 C   0  0  0  0  0  2  0  0  0  0  0  0
  189.5870  176.5550  139.6700 C   0  0  1  0  0  3  0  0  0  0  0  0
  188.6330  178.3140  138.0740 C   0  0  2  0  0  3  0  0  0  0  0  0
  189.4290  175.5660  137.3450 C   0  0  0  0  0  0  0  0  0  0  0  0
  189.4760  178.0520  139.3440 C   0  0  1  0  0  3  0  0  0  0  0  0
  191.5760  175.5710  138.5950 C   0  0  0  0  0  3  0  0  0  0  0  0
  192.0060  172.0930  135.4520 O   0  0  0  0  0  0  0  0  0  0  0  0
  194.4940  174.6400  136.3480 C   0  0  0  0  0  0  0  0  0  0  0  0
  193.7460  175.2950  137.2380 C   0  0  0  0  0  3  0  0  0  0  0  0
  194.0160  173.3510  135.7180 C   0  0  0  0  0  2  0  0  0  0  0  0
  192.5830  173.0420  136.0420 C   0  0  0  0  0  0  0  0  0  0  0  0
  192.4030  174.8220  137.6300 C   0  0  0  0  0  0  0  0  0  0  0  0
  191.8750  173.8000  137.0300 N   0  0  0  0  0  0  0  0  0  0  0  0
  195.7850  175.1600  136.0300 N   0  0  0  0  0  2  0  0  0  0  0  0
  198.0840  175.4050  136.3140 O   0  0  0  0  0  1  0  0  0  0  0  0
  196.9160  174.0180  137.8440 C   0  0  0  0  0  1  0  0  0  0  0  0
  197.0250  174.5040  136.4140 C   0  0  1  0  0  3  0  0  0  0  0  0
  188.4500  177.1590  135.1060 C   0  0  0  0  0  1  0  0  0  0  0  0
  187.2000  176.3140  135.3110 C   0  0  1  0  0  3  0  0  0  0  0  0
  187.3820  175.0960  134.6500 O   0  0  0  0  0  0  0  0  0  0  0  0
  186.1120  174.5140  134.6050 C   0  0  0  0  0  2  0  0  0  0  0  0
  187.5120  172.4790  134.8740 C   0  0  0  0  0  3  0  0  0  0  0  0
  187.6760  171.0960  134.9680 C   0  0  0  0  0  3  0  0  0  0  0  0
  185.1090  172.1890  134.6450 C   0  0  0  0  0  0  0  0  0  0  0  0
  185.2780  170.7930  134.7560 C   0  0  0  0  0  0  0  0  0  0  0  0
  186.5620  170.2580  134.9110 C   0  0  0  0  0  3  0  0  0  0  0  0
  186.2360  173.0320  134.7250 C   0  0  0  0  0  0  0  0  0  0  0  0
  184.1170  169.8540  134.6860 C   0  0  0  0  0  2  0  0  0  0  0  0
  184.0940  168.9580  135.9100 C   0  0  0  0  0  1  0  0  0  0  0  0
  183.7370  172.7760  134.4910 C   0  0  0  0  0  2  0  0  0  0  0  0
  183.2480  173.1650  135.7380 O   0  0  0  0  0  1  0  0  0  0  0  0
  190.7780  178.9180  142.0460 O   0  0  0  0  0  0  0  0  0  0  0  0
  191.0540  178.7470  143.4040 C   0  0  0  0  0  2  0  0  0  0  0  0
  192.0310  177.7640  143.5660 O   0  0  0  0  0  0  0  0  0  0  0  0
  191.4920  176.8920  144.5120 C   0  0  0  0  0  2  0  0  0  0  0  0
  191.2180  177.6380  145.8060 C   0  0  0  0  0  2  0  0  0  0  0  0
  190.3040  177.3050  147.8650 O   0  0  0  0  0  0  0  0  0  0  0  0
  189.3990  178.0540  147.1860 C   0  0  1  0  0  3  0  0  0  0  0  0
  190.1270  177.0020  146.5240 N   0  0  0  0  0  0  0  0  0  0  0  0
  187.9970  177.5770  147.5140 C   0  0  0  0  0  2  0  0  0  0  0  0
  187.0780  178.5890  147.2340 O   0  0  0  0  0  0  0  0  0  0  0  0
  185.8880  177.9200  146.9530 C   0  0  0  0  0  2  0  0  0  0  0  0
  184.3790  178.1710  145.1490 F   0  0  0  0  0  0  0  0  0  0  0  0
  184.9480  178.8460  146.2120 C   0  0  0  0  0  2  0  0  0  0  0  0
  188.3830  176.1580  142.3060 C   0  0  0  0  0  2  0  0  0  0  0  0
  186.4530  177.6520  142.7480 C   0  0  0  0  0  1  0  0  0  0  0  0
  186.9450  175.7990  144.3050 C   0  0  0  0  0  1  0  0  0  0  0  0
  187.5550  176.8400  143.3890 C   0  0  0  0  0  3  0  0  0  0  0  0
  1 12  1  6  0  0  0
  1 11  1  0  0  0  0
  2 30  1  6  0  0  0
  2  6  1  0  0  0  0
  2  1  1  0  0  0  0
  3  8  1  0  0  0  0
  3 43  1  6  0  0  0
  5 17  2  0  0  0  0
  7  8  1  0  0  0  0
  8 56  1  0  0  0  0
  9 15  2  0  0  0  0
 10  3  1  0  0  0  0
 11 12  1  6  0  0  0
 13  5  1  6  0  0  0
 13  7  1  0  0  0  0
 14  4  1  1  0  0  0
 14 11  1  0  0  0  0
 14 16  1  0  0  0  0
 15  6  1  0  0  0  0
 15  5  1  0  0  0  0
 16 13  1  0  0  0  0
 16 10  1  1  0  0  0
 18 22  2  0  0  0  0
 19 20  2  0  0  0  0
 20 23  1  0  0  0  0
 21 22  1  0  0  0  0
 21 19  1  0  0  0  0
 22 24  1  0  0  0  0
 23 17  1  0  0  0  0
 24 23  2  0  0  0  0
 25 19  1  0  0  0  0
 25 28  1  0  0  0  0
 26 28  1  0  0  0  0
 28 27  1  1  0  0  0
 30 29  1  1  0  0  0
 31 30  1  0  0  0  0
 32 31  1  0  0  0  0
 32 38  1  0  0  0  0
 33 34  1  0  0  0  0
 35 38  1  0  0  0  0
 35 36  2  0  0  0  0
 36 37  1  0  0  0  0
 37 34  2  0  0  0  0
 38 33  2  0  0  0  0
 39 36  1  0  0  0  0
 39 40  1  0  0  0  0
 41 35  1  0  0  0  0
 41 42  1  0  0  0  0
 43 44  1  0  0  0  0
 44 45  1  0  0  0  0
 45 46  1  0  0  0  0
 46 47  1  0  0  0  0
 47 50  1  0  0  0  0
 49 51  1  1  0  0  0
 49 48  1  0  0  0  0
 50 49  1  0  0  0  0
 50 48  1  0  0  0  0
 52 51  1  0  0  0  0
 53 52  1  0  0  0  0
 54 55  1  0  0  0  0
 55 53  1  0  0  0  0
 56 59  1  0  0  0  0
 57 59  1  0  0  0  0
 59 58  1  0  0  0  0
M  END
>  <MODEL>
4

>  <REMARK>
 VINA RESULT:      -4.4      3.153      8.917
  Name = 
  21 active torsions:
  status: ('A' for Active; 'I' for Inactive)
    1  A    between atoms: C_4  and  C_9
    2  A    between atoms: O_5  and  C_25
    3  A    between atoms: O_5  and  C_41
    4  A    between atoms: C_9  and  O_17
    5  A    between atoms: O_11  and  C_15
    6  A    between atoms: O_11  and  C_26
    7  A    between atoms: C_12  and  C_48
    8  A    between atoms: O_17  and  C_24
    9  A    between atoms: C_18  and  N_38
   10  A    between atoms: C_21  and  C_47
   11  A    between atoms: C_23  and  O_29
   12  A    between atoms: C_23  and  C_56
   13  A    between atoms: C_24  and  C_52
   14  A    between atoms: C_25  and  C_39
   15  A    between atoms: C_26  and  O_29
   16  A    between atoms: N_32  and  C_48
   17  A    between atoms: C_35  and  C_36
   18  A    between atoms: N_38  and  C_58
   19  A    between atoms: C_41  and  C_42
   20  A    between atoms: C_45  and  C_57
   21  A    between atoms: N_50  and  C_56
                            x       y       z     vdW  Elec       q    Type
                         _______ _______ _______ _____ _____    ______ ____

>  <TORSDO>
F 21

$$$$
=
 OpenBabel10232409513D

 59 64  0  0  1  0  0  0  0  0999 V2000
  185.3860  177.5380  136.5720 C   0  0  1  0  0  3  0  0  0  0  0  0
  185.5640  178.3060  137.9080 C   0  0  2  0  0  3  0  0  0  0  0  0
  189.7790  174.5020  135.7030 C   0  0  2  0  0  3  0  0  0  0  0  0
  185.8380  174.1320  138.0330 C   0  0  0  0  0  1  0  0  0  0  0  0
  188.7850  176.8810  139.0860 C   0  0  0  0  0  0  0  0  0  0  0  0
  186.9540  178.4080  138.3450 N   0  0  0  0  0  2  0  0  0  0  0  0
  190.2950  176.0910  137.3990 O   0  0  0  0  0  0  0  0  0  0  0  0
  190.4510  175.7550  136.0780 N   0  0  0  0  0  0  0  0  0  0  0  0
  186.9320  177.4320  140.4660 O   0  0  0  0  0  0  0  0  0  0  0  0
  188.2990  174.5180  136.0730 C   0  0  0  0  0  2  0  0  0  0  0  0
  185.9040  176.0900  136.4370 C   0  0  2  0  0  3  0  0  0  0  0  0
  184.4320  176.3610  136.6760 C   0  0  0  0  0  2  0  0  0  0  0  0
  188.9330  176.3610  137.6770 C   0  0  1  0  0  3  0  0  0  0  0  0
  186.5510  175.4250  137.6680 C   0  0  2  0  0  3  0  0  0  0  0  0
  187.5430  177.6150  139.3800 C   0  0  0  0  0  0  0  0  0  0  0  0
  188.0520  175.1210  137.4580 C   0  0  1  0  0  3  0  0  0  0  0  0
  189.6700  176.5060  140.0260 C   0  0  0  0  0  3  0  0  0  0  0  0
  191.9800  178.6610  143.5150 O   0  0  0  0  0  0  0  0  0  0  0  0
  188.5970  177.2360  143.5960 C   0  0  0  0  0  0  0  0  0  0  0  0
  188.5610  176.8260  142.3260 C   0  0  0  0  0  3  0  0  0  0  0  0
  189.8610  177.8040  144.2010 C   0  0  0  0  0  2  0  0  0  0  0  0
  190.9400  178.0370  143.1830 C   0  0  0  0  0  0  0  0  0  0  0  0
  189.7330  176.9370  141.4350 C   0  0  0  0  0  0  0  0  0  0  0  0
  190.8060  177.5390  141.8470 N   0  0  0  0  0  0  0  0  0  0  0  0
  187.4230  177.0840  144.3940 N   0  0  0  0  0  2  0  0  0  0  0  0
  185.5040  178.2170  143.7170 O   0  0  0  0  0  1  0  0  0  0  0  0
  185.8840  177.9660  146.0460 C   0  0  0  0  0  1  0  0  0  0  0  0
  186.5090  178.1780  144.6830 C   0  0  1  0  0  3  0  0  0  0  0  0
  184.4830  179.4850  139.8350 C   0  0  0  0  0  1  0  0  0  0  0  0
  184.5090  178.1950  139.0260 C   0  0  1  0  0  3  0  0  0  0  0  0
  183.2390  177.9970  138.4780 O   0  0  0  0  0  0  0  0  0  0  0  0
  182.5340  179.1690  138.7620 C   0  0  0  0  0  2  0  0  0  0  0  0
  181.6850  178.7310  136.4670 C   0  0  0  0  0  3  0  0  0  0  0  0
  181.0240  179.1170  135.3000 C   0  0  0  0  0  3  0  0  0  0  0  0
  181.2580  180.9160  137.4440 C   0  0  0  0  0  0  0  0  0  0  0  0
  180.5780  181.2950  136.2680 C   0  0  0  0  0  0  0  0  0  0  0  0
  180.4710  180.3940  135.2040 C   0  0  0  0  0  3  0  0  0  0  0  0
  181.7970  179.6170  137.5440 C   0  0  0  0  0  0  0  0  0  0  0  0
  179.9820  182.6580  136.1110 C   0  0  0  0  0  2  0  0  0  0  0  0
  180.7340  183.4380  135.0500 C   0  0  0  0  0  1  0  0  0  0  0  0
  181.3700  181.8700  138.5960 C   0  0  0  0  0  2  0  0  0  0  0  0
  182.4770  182.6990  138.4170 O   0  0  0  0  0  1  0  0  0  0  0  0
  190.4150  173.4240  136.3240 O   0  0  0  0  0  0  0  0  0  0  0  0
  191.3200  172.9470  135.3750 C   0  0  0  0  0  2  0  0  0  0  0  0
  192.3310  172.2240  136.0100 O   0  0  0  0  0  0  0  0  0  0  0  0
  193.5030  172.9070  135.6850 C   0  0  0  0  0  2  0  0  0  0  0  0
  194.0010  173.6830  136.8910 C   0  0  0  0  0  2  0  0  0  0  0  0
  195.4440  175.4150  137.2130 O   0  0  0  0  0  0  0  0  0  0  0  0
  195.9400  174.3920  137.9530 C   0  0  1  0  0  3  0  0  0  0  0  0
  195.3570  174.1480  136.6580 N   0  0  0  0  0  0  0  0  0  0  0  0
  197.4520  174.3730  137.8450 C   0  0  0  0  0  2  0  0  0  0  0  0
  197.9880  175.4510  138.5490 O   0  0  0  0  0  0  0  0  0  0  0  0
  198.6530  174.8730  139.6300 C   0  0  0  0  0  2  0  0  0  0  0  0
  197.6110  176.5300  140.9580 F   0  0  0  0  0  0  0  0  0  0  0  0
  197.9050  175.1810  140.9100 C   0  0  0  0  0  2  0  0  0  0  0  0
  190.3100  176.8930  135.1520 C   0  0  0  0  0  2  0  0  0  0  0  0
  189.8310  179.1820  135.9790 C   0  0  0  0  0  1  0  0  0  0  0  0
  188.3050  178.1270  134.3470 C   0  0  0  0  0  1  0  0  0  0  0  0
  189.2110  177.8760  135.5350 C   0  0  0  0  0  3  0  0  0  0  0  0
  1 12  1  1  0  0  0
  1  2  1  0  0  0  0
  2  6  1  0  0  0  0
  2 30  1  1  0  0  0
  3 10  1  0  0  0  0
  3  8  1  0  0  0  0
  3 43  1  1  0  0  0
  5 15  1  0  0  0  0
  5 17  2  0  0  0  0
  6 15  1  0  0  0  0
  8  7  1  0  0  0  0
 11  1  1  0  0  0  0
 11 12  1  1  0  0  0
 11 14  1  0  0  0  0
 13  7  1  1  0  0  0
 13  5  1  0  0  0  0
 14  4  1  6  0  0  0
 15  9  2  0  0  0  0
 16 10  1  6  0  0  0
 16 14  1  0  0  0  0
 16 13  1  0  0  0  0
 17 23  1  0  0  0  0
 19 21  1  0  0  0  0
 19 25  1  0  0  0  0
 20 19  2  0  0  0  0
 22 18  2  0  0  0  0
 22 21  1  0  0  0  0
 23 24  2  0  0  0  0
 23 20  1  0  0  0  0
 24 22  1  0  0  0  0
 25 28  1  0  0  0  0
 26 28  1  0  0  0  0
 28 27  1  1  0  0  0
 30 29  1  6  0  0  0
 31 32  1  0  0  0  0
 31 30  1  0  0  0  0
 33 38  1  0  0  0  0
 34 33  2  0  0  0  0
 35 38  2  0  0  0  0
 35 41  1  0  0  0  0
 36 35  1  0  0  0  0
 37 34  1  0  0  0  0
 37 36  2  0  0  0  0
 38 32  1  0  0  0  0
 39 36  1  0  0  0  0
 40 39  1  0  0  0  0
 42 41  1  0  0  0  0
 44 45  1  0  0  0  0
 44 43  1  0  0  0  0
 46 45  1  0  0  0  0
 46 47  1  0  0  0  0
 48 49  1  0  0  0  0
 49 51  1  6  0  0  0
 50 47  1  0  0  0  0
 50 48  1  0  0  0  0
 50 49  1  0  0  0  0
 51 52  1  0  0  0  0
 52 53  1  0  0  0  0
 53 55  1  0  0  0  0
 55 54  1  0  0  0  0
 56 59  1  0  0  0  0
 56  8  1  0  0  0  0
 58 59  1  0  0  0  0
 59 57  1  0  0  0  0
M  END
>  <MODEL>
5

>  <REMARK>
 VINA RESULT:      -4.4      3.283      4.918
  Name = 
  21 active torsions:
  status: ('A' for Active; 'I' for Inactive)
    1  A    between atoms: C_4  and  C_9
    2  A    between atoms: O_5  and  C_25
    3  A    between atoms: O_5  and  C_41
    4  A    between atoms: C_9  and  O_17
    5  A    between atoms: O_11  and  C_15
    6  A    between atoms: O_11  and  C_26
    7  A    between atoms: C_12  and  C_48
    8  A    between atoms: O_17  and  C_24
    9  A    between atoms: C_18  and  N_38
   10  A    between atoms: C_21  and  C_47
   11  A    between atoms: C_23  and  O_29
   12  A    between atoms: C_23  and  C_56
   13  A    between atoms: C_24  and  C_52
   14  A    between atoms: C_25  and  C_39
   15  A    between atoms: C_26  and  O_29
   16  A    between atoms: N_32  and  C_48
   17  A    between atoms: C_35  and  C_36
   18  A    between atoms: N_38  and  C_58
   19  A    between atoms: C_41  and  C_42
   20  A    between atoms: C_45  and  C_57
   21  A    between atoms: N_50  and  C_56
                            x       y       z     vdW  Elec       q    Type
                         _______ _______ _______ _____ _____    ______ ____

>  <TORSDO>
F 21

$$$$
=
 OpenBabel10232409513D

 59 64  0  0  1  0  0  0  0  0999 V2000
  188.5670  177.6490  135.7460 C   0  0  1  0  0  3  0  0  0  0  0  0
  188.2950  178.3950  137.0780 C   0  0  2  0  0  3  0  0  0  0  0  0
  192.8190  174.3710  136.4150 C   0  0  2  0  0  3  0  0  0  0  0  0
  188.2920  174.2120  137.1740 C   0  0  0  0  0  1  0  0  0  0  0  0
  190.8040  176.7760  139.2870 C   0  0  0  0  0  0  0  0  0  0  0  0
  189.4400  178.4120  137.9860 N   0  0  0  0  0  2  0  0  0  0  0  0
  192.7750  175.9130  138.2270 O   0  0  0  0  0  0  0  0  0  0  0  0
  193.3760  175.5800  137.0400 N   0  0  0  0  0  0  0  0  0  0  0  0
  188.6110  177.4220  139.9310 O   0  0  0  0  0  0  0  0  0  0  0  0
  191.3080  174.4700  136.2330 C   0  0  0  0  0  2  0  0  0  0  0  0
  189.0240  176.1750  135.7630 C   0  0  2  0  0  3  0  0  0  0  0  0
  187.5810  176.5290  135.4690 C   0  0  0  0  0  2  0  0  0  0  0  0
  191.4200  176.2590  138.0090 C   0  0  1  0  0  3  0  0  0  0  0  0
  189.1530  175.4640  137.1240 C   0  0  2  0  0  3  0  0  0  0  0  0
  189.5780  177.5790  139.1390 C   0  0  0  0  0  0  0  0  0  0  0  0
  190.6130  175.0750  137.4550 C   0  0  1  0  0  3  0  0  0  0  0  0
  191.2740  176.3430  140.4690 C   0  0  0  0  0  3  0  0  0  0  0  0
  192.1160  178.7390  144.4320 O   0  0  0  0  0  0  0  0  0  0  0  0
  189.0870  176.8690  143.5300 C   0  0  0  0  0  0  0  0  0  0  0  0
  189.4900  176.4770  142.3200 C   0  0  0  0  0  3  0  0  0  0  0  0
  190.0230  177.5940  144.4720 C   0  0  0  0  0  2  0  0  0  0  0  0
  191.3170  177.9850  143.8200 C   0  0  0  0  0  0  0  0  0  0  0  0
  190.8510  176.7580  141.8190 C   0  0  0  0  0  0  0  0  0  0  0  0
  191.6600  177.4930  142.5190 N   0  0  0  0  0  0  0  0  0  0  0  0
  187.7580  176.5500  143.9420 N   0  0  0  0  0  2  0  0  0  0  0  0
  186.6030  178.2570  145.0250 O   0  0  0  0  0  1  0  0  0  0  0  0
  186.8470  178.4000  142.6690 C   0  0  0  0  0  1  0  0  0  0  0  0
  186.6510  177.4890  143.8630 C   0  0  1  0  0  3  0  0  0  0  0  0
  186.0430  179.4800  137.2290 C   0  0  0  0  0  1  0  0  0  0  0  0
  186.9060  178.3370  137.7440 C   0  0  1  0  0  3  0  0  0  0  0  0
  186.2690  177.1330  137.4330 O   0  0  0  0  0  0  0  0  0  0  0  0
  184.9080  177.3770  137.6410 C   0  0  0  0  0  2  0  0  0  0  0  0
  183.9640  177.1350  135.3550 C   0  0  0  0  0  3  0  0  0  0  0  0
  183.2020  176.4620  134.3980 C   0  0  0  0  0  3  0  0  0  0  0  0
  183.4550  175.4080  136.9890 C   0  0  0  0  0  0  0  0  0  0  0  0
  182.7000  174.7240  136.0140 C   0  0  0  0  0  0  0  0  0  0  0  0
  182.5750  175.2610  134.7280 C   0  0  0  0  0  3  0  0  0  0  0  0
  184.1040  176.6110  136.6440 C   0  0  0  0  0  0  0  0  0  0  0  0
  181.9960  173.4420  136.3230 C   0  0  0  0  0  2  0  0  0  0  0  0
  182.0210  172.5270  135.1140 C   0  0  0  0  0  1  0  0  0  0  0  0
  183.6060  174.8380  138.3680 C   0  0  0  0  0  2  0  0  0  0  0  0
  184.7300  174.0130  138.4160 O   0  0  0  0  0  1  0  0  0  0  0  0
  193.1340  173.2530  137.1910 O   0  0  0  0  0  0  0  0  0  0  0  0
  194.1840  172.6310  136.5130 C   0  0  0  0  0  2  0  0  0  0  0  0
  193.9170  171.2670  136.3790 O   0  0  0  0  0  0  0  0  0  0  0  0
  193.1100  171.1820  135.2450 C   0  0  0  0  0  2  0  0  0  0  0  0
  192.7150  169.7360  134.9990 C   0  0  0  0  0  2  0  0  0  0  0  0
  190.9640  168.4200  134.3760 O   0  0  0  0  0  0  0  0  0  0  0  0
  190.9810  168.3790  135.7320 C   0  0  1  0  0  3  0  0  0  0  0  0
  191.2690  169.6040  135.0300 N   0  0  0  0  0  0  0  0  0  0  0  0
  189.5600  168.4140  136.2590 C   0  0  0  0  0  2  0  0  0  0  0  0
  188.6690  168.1080  135.2300 O   0  0  0  0  0  0  0  0  0  0  0  0
  187.4750  168.7260  135.6000 C   0  0  0  0  0  2  0  0  0  0  0  0
  188.1420  170.9620  135.9880 F   0  0  0  0  0  0  0  0  0  0  0  0
  187.4650  170.1530  135.0960 C   0  0  0  0  0  2  0  0  0  0  0  0
  193.6340  176.7310  136.1560 C   0  0  0  0  0  2  0  0  0  0  0  0
  195.4700  177.8400  134.9100 C   0  0  0  0  0  1  0  0  0  0  0  0
  195.7820  175.5400  135.7570 C   0  0  0  0  0  1  0  0  0  0  0  0
  194.7820  176.5200  135.1770 C   0  0  0  0  0  3  0  0  0  0  0  0
  1 12  1  6  0  0  0
  1 11  1  0  0  0  0
  1  2  1  0  0  0  0
  2 30  1  1  0  0  0
  2  6  1  0  0  0  0
  3  8  1  0  0  0  0
  3 43  1  1  0  0  0
  5 17  2  0  0  0  0
  6 15  1  0  0  0  0
  8  7  1  0  0  0  0
 10  3  1  0  0  0  0
 11 12  1  6  0  0  0
 11 14  1  0  0  0  0
 13  7  1  1  0  0  0
 13  5  1  0  0  0  0
 14  4  1  6  0  0  0
 14 16  1  0  0  0  0
 15  5  1  0  0  0  0
 15  9  2  0  0  0  0
 16 10  1  6  0  0  0
 16 13  1  0  0  0  0
 17 23  1  0  0  0  0
 19 25  1  0  0  0  0
 19 21  1  0  0  0  0
 20 19  2  0  0  0  0
 22 18  2  0  0  0  0
 22 21  1  0  0  0  0
 23 20  1  0  0  0  0
 23 24  2  0  0  0  0
 24 22  1  0  0  0  0
 28 27  1  6  0  0  0
 28 25  1  0  0  0  0
 28 26  1  0  0  0  0
 30 29  1  6  0  0  0
 31 32  1  0  0  0  0
 31 30  1  0  0  0  0
 33 38  1  0  0  0  0
 34 37  1  0  0  0  0
 34 33  2  0  0  0  0
 35 41  1  0  0  0  0
 36 39  1  0  0  0  0
 36 35  1  0  0  0  0
 37 36  2  0  0  0  0
 38 35  2  0  0  0  0
 38 32  1  0  0  0  0
 40 39  1  0  0  0  0
 41 42  1  0  0  0  0
 44 43  1  0  0  0  0
 45 44  1  0  0  0  0
 46 45  1  0  0  0  0
 47 50  1  0  0  0  0
 47 46  1  0  0  0  0
 48 50  1  0  0  0  0
 48 49  1  0  0  0  0
 49 51  1  1  0  0  0
 50 49  1  0  0  0  0
 52 53  1  0  0  0  0
 52 51  1  0  0  0  0
 55 53  1  0  0  0  0
 55 54  1  0  0  0  0
 56  8  1  0  0  0  0
 57 59  1  0  0  0  0
 59 58  1  0  0  0  0
 59 56  1  0  0  0  0
M  END
>  <MODEL>
6

>  <REMARK>
 VINA RESULT:      -4.2      2.846      4.560
  Name = 
  21 active torsions:
  status: ('A' for Active; 'I' for Inactive)
    1  A    between atoms: C_4  and  C_9
    2  A    between atoms: O_5  and  C_25
    3  A    between atoms: O_5  and  C_41
    4  A    between atoms: C_9  and  O_17
    5  A    between atoms: O_11  and  C_15
    6  A    between atoms: O_11  and  C_26
    7  A    between atoms: C_12  and  C_48
    8  A    between atoms: O_17  and  C_24
    9  A    between atoms: C_18  and  N_38
   10  A    between atoms: C_21  and  C_47
   11  A    between atoms: C_23  and  O_29
   12  A    between atoms: C_23  and  C_56
   13  A    between atoms: C_24  and  C_52
   14  A    between atoms: C_25  and  C_39
   15  A    between atoms: C_26  and  O_29
   16  A    between atoms: N_32  and  C_48
   17  A    between atoms: C_35  and  C_36
   18  A    between atoms: N_38  and  C_58
   19  A    between atoms: C_41  and  C_42
   20  A    between atoms: C_45  and  C_57
   21  A    between atoms: N_50  and  C_56
                            x       y       z     vdW  Elec       q    Type
                         _______ _______ _______ _____ _____    ______ ____

>  <TORSDO>
F 21

$$$$
=
 OpenBabel10232409513D

 59 64  0  0  1  0  0  0  0  0999 V2000
  187.4030  179.0320  135.8140 C   0  0  1  0  0  3  0  0  0  0  0  0
  187.3340  177.7790  134.9010 C   0  0  2  0  0  3  0  0  0  0  0  0
  183.6330  178.5960  139.6690 C   0  0  2  0  0  3  0  0  0  0  0  0
  187.9410  177.1530  138.9940 C   0  0  0  0  0  1  0  0  0  0  0  0
  184.7580  175.7840  136.6830 C   0  0  0  0  0  0  0  0  0  0  0  0
  186.0630  177.0630  134.9830 N   0  0  0  0  0  2  0  0  0  0  0  0
  183.1430  177.0080  137.9650 O   0  0  0  0  0  0  0  0  0  0  0  0
  182.8060  178.2200  138.5130 N   0  0  0  0  0  0  0  0  0  0  0  0
  186.6910  174.9060  135.6180 O   0  0  0  0  0  0  0  0  0  0  0  0
  185.1220  178.5610  139.3390 C   0  0  0  0  0  2  0  0  0  0  0  0
  187.1740  178.8950  137.3340 C   0  0  2  0  0  3  0  0  0  0  0  0
  188.5770  179.0130  136.7760 C   0  0  0  0  0  2  0  0  0  0  0  0
  184.4490  177.0630  137.4220 C   0  0  1  0  0  3  0  0  0  0  0  0
  186.9240  177.4900  137.9140 C   0  0  2  0  0  3  0  0  0  0  0  0
  185.8580  175.8470  135.7060 C   0  0  0  0  0  0  0  0  0  0  0  0
  185.5040  177.3350  138.5060 C   0  0  1  0  0  3  0  0  0  0  0  0
  184.1650  174.6400  137.0660 C   0  0  0  0  0  3  0  0  0  0  0  0
  186.8220  170.9320  135.9020 O   0  0  0  0  0  0  0  0  0  0  0  0
  183.1940  171.3220  135.4920 C   0  0  0  0  0  0  0  0  0  0  0  0
  183.0980  172.5410  136.0260 C   0  0  0  0  0  3  0  0  0  0  0  0
  184.5390  170.6720  135.2580 C   0  0  0  0  0  2  0  0  0  0  0  0
  185.6720  171.4400  135.8730 C   0  0  0  0  0  0  0  0  0  0  0  0
  184.2890  173.3050  136.4510 C   0  0  0  0  0  0  0  0  0  0  0  0
  185.4620  172.7530  136.4060 N   0  0  0  0  0  0  0  0  0  0  0  0
  181.9950  170.6540  135.0990 N   0  0  0  0  0  2  0  0  0  0  0  0
  180.4080  171.1370  136.7330 O   0  0  0  0  0  1  0  0  0  0  0  0
  180.5870  172.6150  134.8860 C   0  0  0  0  0  1  0  0  0  0  0  0
  180.6650  171.1810  135.3640 C   0  0  1  0  0  3  0  0  0  0  0  0
  189.7770  177.8050  134.3500 C   0  0  0  0  0  1  0  0  0  0  0  0
  188.5840  176.9120  134.6590 C   0  0  1  0  0  3  0  0  0  0  0  0
  188.8840  176.1620  135.8000 O   0  0  0  0  0  0  0  0  0  0  0  0
  190.2550  176.3440  136.0040 C   0  0  0  0  0  2  0  0  0  0  0  0
  190.1800  173.8740  135.7290 C   0  0  0  0  0  3  0  0  0  0  0  0
  190.7880  172.6190  135.6720 C   0  0  0  0  0  3  0  0  0  0  0  0
  192.3460  174.9180  136.0920 C   0  0  0  0  0  0  0  0  0  0  0  0
  192.9570  173.6480  136.0180 C   0  0  0  0  0  0  0  0  0  0  0  0
  192.1710  172.5090  135.8150 C   0  0  0  0  0  3  0  0  0  0  0  0
  190.9500  175.0250  135.9260 C   0  0  0  0  0  0  0  0  0  0  0  0
  194.4340  173.4770  136.1800 C   0  0  0  0  0  2  0  0  0  0  0  0
  194.7870  173.3500  137.6490 C   0  0  0  0  0  1  0  0  0  0  0  0
  193.1790  176.1480  136.2980 C   0  0  0  0  0  2  0  0  0  0  0  0
  193.1410  176.5220  137.6410 O   0  0  0  0  0  1  0  0  0  0  0  0
  183.3610  177.7400  140.7400 O   0  0  0  0  0  0  0  0  0  0  0  0
  183.7930  178.4330  141.8720 C   0  0  0  0  0  2  0  0  0  0  0  0
  182.6920  178.8150  142.6400 O   0  0  0  0  0  0  0  0  0  0  0  0
  183.1710  178.8280  143.9490 C   0  0  0  0  0  2  0  0  0  0  0  0
  184.2120  179.9220  144.1090 C   0  0  0  0  0  2  0  0  0  0  0  0
  184.4080  178.6400  145.9800 O   0  0  0  0  0  0  0  0  0  0  0  0
  185.4570  178.2910  145.1930 C   0  0  1  0  0  3  0  0  0  0  0  0
  185.0290  179.6640  145.2820 N   0  0  0  0  0  0  0  0  0  0  0  0
  186.6890  178.0850  146.0520 C   0  0  0  0  0  2  0  0  0  0  0  0
  187.7710  177.7290  145.2460 O   0  0  0  0  0  0  0  0  0  0  0  0
  188.8720  177.7480  146.1010 C   0  0  0  0  0  2  0  0  0  0  0  0
  188.9780  176.1810  147.8700 F   0  0  0  0  0  0  0  0  0  0  0  0
  188.4290  177.3960  147.5050 C   0  0  0  0  0  2  0  0  0  0  0  0
  182.5320  179.2710  137.5160 C   0  0  0  0  0  2  0  0  0  0  0  0
  180.1060  178.9000  137.8750 C   0  0  0  0  0  1  0  0  0  0  0  0
  181.2040  180.8690  138.8850 C   0  0  0  0  0  1  0  0  0  0  0  0
  181.1780  179.9490  137.6820 C   0  0  0  0  0  3  0  0  0  0  0  0
  1 12  1  1  0  0  0
  1 11  1  0  0  0  0
  2 30  1  1  0  0  0
  2  6  1  0  0  0  0
  2  1  1  0  0  0  0
  3 43  1  1  0  0  0
  5 17  2  0  0  0  0
  6 15  1  0  0  0  0
  7  8  1  0  0  0  0
  8  3  1  0  0  0  0
  9 15  2  0  0  0  0
 10  3  1  0  0  0  0
 11 12  1  1  0  0  0
 11 14  1  0  0  0  0
 13  5  1  1  0  0  0
 13  7  1  0  0  0  0
 13 16  1  0  0  0  0
 14 16  1  0  0  0  0
 14  4  1  1  0  0  0
 15  5  1  0  0  0  0
 16 10  1  6  0  0  0
 19 20  2  0  0  0  0
 20 23  1  0  0  0  0
 21 19  1  0  0  0  0
 21 22  1  0  0  0  0
 22 18  2  0  0  0  0
 22 24  1  0  0  0  0
 23 17  1  0  0  0  0
 24 23  2  0  0  0  0
 25 28  1  0  0  0  0
 25 19  1  0  0  0  0
 28 27  1  1  0  0  0
 28 26  1  0  0  0  0
 30 29  1  1  0  0  0
 30 31  1  0  0  0  0
 31 32  1  0  0  0  0
 33 38  1  0  0  0  0
 34 33  2  0  0  0  0
 34 37  1  0  0  0  0
 35 41  1  0  0  0  0
 36 35  1  0  0  0  0
 36 39  1  0  0  0  0
 37 36  2  0  0  0  0
 38 32  1  0  0  0  0
 38 35  2  0  0  0  0
 39 40  1  0  0  0  0
 41 42  1  0  0  0  0
 43 44  1  0  0  0  0
 44 45  1  0  0  0  0
 45 46  1  0  0  0  0
 46 47  1  0  0  0  0
 47 50  1  0  0  0  0
 49 50  1  0  0  0  0
 49 48  1  0  0  0  0
 49 51  1  1  0  0  0
 50 48  1  0  0  0  0
 52 51  1  0  0  0  0
 52 53  1  0  0  0  0
 53 55  1  0  0  0  0
 55 54  1  0  0  0  0
 56 59  1  0  0  0  0
 56  8  1  0  0  0  0
 59 57  1  0  0  0  0
 59 58  1  0  0  0  0
M  END
>  <MODEL>
7

>  <REMARK>
 VINA RESULT:      -4.2      4.113     11.087
  Name = 
  21 active torsions:
  status: ('A' for Active; 'I' for Inactive)
    1  A    between atoms: C_4  and  C_9
    2  A    between atoms: O_5  and  C_25
    3  A    between atoms: O_5  and  C_41
    4  A    between atoms: C_9  and  O_17
    5  A    between atoms: O_11  and  C_15
    6  A    between atoms: O_11  and  C_26
    7  A    between atoms: C_12  and  C_48
    8  A    between atoms: O_17  and  C_24
    9  A    between atoms: C_18  and  N_38
   10  A    between atoms: C_21  and  C_47
   11  A    between atoms: C_23  and  O_29
   12  A    between atoms: C_23  and  C_56
   13  A    between atoms: C_24  and  C_52
   14  A    between atoms: C_25  and  C_39
   15  A    between atoms: C_26  and  O_29
   16  A    between atoms: N_32  and  C_48
   17  A    between atoms: C_35  and  C_36
   18  A    between atoms: N_38  and  C_58
   19  A    between atoms: C_41  and  C_42
   20  A    between atoms: C_45  and  C_57
   21  A    between atoms: N_50  and  C_56
                            x       y       z     vdW  Elec       q    Type
                         _______ _______ _______ _____ _____    ______ ____

>  <TORSDO>
F 21

$$$$
=
 OpenBabel10232409513D

 59 64  0  0  1  0  0  0  0  0999 V2000
  184.7530  179.5350  142.5010 C   0  0  1  0  0  3  0  0  0  0  0  0
  186.0810  179.1160  141.8200 C   0  0  2  0  0  3  0  0  0  0  0  0
  180.7940  179.4480  138.8140 C   0  0  2  0  0  3  0  0  0  0  0  0
  182.8720  176.4400  141.5960 C   0  0  0  0  0  1  0  0  0  0  0  0
  184.8590  178.2590  138.4190 C   0  0  0  0  0  0  0  0  0  0  0  0
  186.0640  179.2550  140.3650 N   0  0  0  0  0  2  0  0  0  0  0  0
  182.8800  179.3890  137.6690 O   0  0  0  0  0  0  0  0  0  0  0  0
  181.8080  180.1660  138.0280 N   0  0  0  0  0  0  0  0  0  0  0  0
  186.5610  177.1030  139.6060 O   0  0  0  0  0  0  0  0  0  0  0  0
  181.3970  178.7800  140.0460 C   0  0  0  0  0  2  0  0  0  0  0  0
  183.4280  178.8530  142.0990 C   0  0  2  0  0  3  0  0  0  0  0  0
  184.1490  178.4440  143.3670 C   0  0  0  0  0  2  0  0  0  0  0  0
  183.5950  178.9810  138.8210 C   0  0  1  0  0  3  0  0  0  0  0  0
  183.4730  177.7260  141.0490 C   0  0  2  0  0  3  0  0  0  0  0  0
  185.9110  178.1710  139.4450 C   0  0  0  0  0  0  0  0  0  0  0  0
  182.7350  178.1020  139.7430 C   0  0  1  0  0  3  0  0  0  0  0  0
  184.8960  177.5930  137.2520 C   0  0  0  0  0  3  0  0  0  0  0  0
  186.5360  174.2630  134.3570 O   0  0  0  0  0  0  0  0  0  0  0  0
  188.4660  176.7120  136.2960 C   0  0  0  0  0  0  0  0  0  0  0  0
  187.4260  177.3380  136.8520 C   0  0  0  0  0  3  0  0  0  0  0  0
  188.2760  175.4640  135.4620 C   0  0  0  0  0  2  0  0  0  0  0  0
  186.8320  175.1690  135.1770 C   0  0  0  0  0  0  0  0  0  0  0  0
  186.0370  176.8740  136.6550 C   0  0  0  0  0  0  0  0  0  0  0  0
  185.7910  175.8940  135.8420 N   0  0  0  0  0  0  0  0  0  0  0  0
  189.7770  177.2190  136.5430 N   0  0  0  0  0  2  0  0  0  0  0  0
  192.0080  176.5970  136.7900 O   0  0  0  0  0  1  0  0  0  0  0  0
  190.8050  177.2210  138.7380 C   0  0  0  0  0  1  0  0  0  0  0  0
  190.7490  176.5410  137.3860 C   0  0  1  0  0  3  0  0  0  0  0  0
  188.2700  177.9060  141.6780 C   0  0  0  0  0  1  0  0  0  0  0  0
  186.9180  177.9480  142.3770 C   0  0  1  0  0  3  0  0  0  0  0  0
  187.1400  178.1210  143.7470 O   0  0  0  0  0  0  0  0  0  0  0  0
  188.5150  177.9370  143.9180 C   0  0  0  0  0  2  0  0  0  0  0  0
  187.7360  177.5830  146.2520 C   0  0  0  0  0  3  0  0  0  0  0  0
  187.9620  177.2990  147.6000 C   0  0  0  0  0  3  0  0  0  0  0  0
  190.1140  177.3620  145.7960 C   0  0  0  0  0  0  0  0  0  0  0  0
  190.3350  177.0600  147.1560 C   0  0  0  0  0  0  0  0  0  0  0  0
  189.2570  177.0370  148.0480 C   0  0  0  0  0  3  0  0  0  0  0  0
  188.8010  177.6050  145.3450 C   0  0  0  0  0  0  0  0  0  0  0  0
  191.7060  176.7870  147.6870 C   0  0  0  0  0  2  0  0  0  0  0  0
  191.9920  175.2980  147.6540 C   0  0  0  0  0  1  0  0  0  0  0  0
  191.2600  177.3780  144.8270 C   0  0  0  0  0  2  0  0  0  0  0  0
  191.1790  176.2710  143.9830 O   0  0  0  0  0  1  0  0  0  0  0  0
  180.1670  178.4920  138.0120 O   0  0  0  0  0  0  0  0  0  0  0  0
  180.7720  178.6220  136.7610 C   0  0  0  0  0  2  0  0  0  0  0  0
  179.9920  177.9880  135.7920 O   0  0  0  0  0  0  0  0  0  0  0  0
  180.2980  176.6350  135.9320 C   0  0  0  0  0  2  0  0  0  0  0  0
  181.8050  176.4450  135.9670 C   0  0  0  0  0  2  0  0  0  0  0  0
  181.1780  174.2940  136.3710 O   0  0  0  0  0  0  0  0  0  0  0  0
  182.3660  174.2060  135.7220 C   0  0  1  0  0  3  0  0  0  0  0  0
  182.1370  175.2370  136.7030 N   0  0  0  0  0  0  0  0  0  0  0  0
  183.1980  173.0960  136.3340 C   0  0  0  0  0  2  0  0  0  0  0  0
  182.4540  171.9160  136.3710 O   0  0  0  0  0  0  0  0  0  0  0  0
  182.9160  171.1710  135.2870 C   0  0  0  0  0  2  0  0  0  0  0  0
  184.6580  169.5790  135.1280 F   0  0  0  0  0  0  0  0  0  0  0  0
  183.4700  169.8510  135.7780 C   0  0  0  0  0  2  0  0  0  0  0  0
  182.1770  181.5170  138.4870 C   0  0  0  0  0  2  0  0  0  0  0  0
  180.0750  182.8130  138.2530 C   0  0  0  0  0  1  0  0  0  0  0  0
  182.2480  183.9380  137.9150 C   0  0  0  0  0  1  0  0  0  0  0  0
  181.4830  182.6430  137.7300 C   0  0  0  0  0  3  0  0  0  0  0  0
  1 12  1  1  0  0  0
  2 30  1  6  0  0  0
  2  1  1  0  0  0  0
  3 43  1  6  0  0  0
  3 10  1  0  0  0  0
  5 13  1  0  0  0  0
  5 15  1  0  0  0  0
  6  2  1  0  0  0  0
  7  8  1  0  0  0  0
  8 56  1  0  0  0  0
  8  3  1  0  0  0  0
 11  1  1  0  0  0  0
 11 12  1  1  0  0  0
 13  7  1  6  0  0  0
 13 16  1  0  0  0  0
 14  4  1  1  0  0  0
 14 11  1  0  0  0  0
 15  9  2  0  0  0  0
 15  6  1  0  0  0  0
 16 10  1  1  0  0  0
 16 14  1  0  0  0  0
 17  5  2  0  0  0  0
 18 22  2  0  0  0  0
 19 25  1  0  0  0  0
 19 20  2  0  0  0  0
 21 19  1  0  0  0  0
 22 21  1  0  0  0  0
 22 24  1  0  0  0  0
 23 20  1  0  0  0  0
 23 17  1  0  0  0  0
 24 23  2  0  0  0  0
 25 28  1  0  0  0  0
 26 28  1  0  0  0  0
 28 27  1  1  0  0  0
 30 29  1  6  0  0  0
 30 31  1  0  0  0  0
 31 32  1  0  0  0  0
 32 38  1  0  0  0  0
 33 34  1  0  0  0  0
 34 37  2  0  0  0  0
 35 36  2  0  0  0  0
 36 39  1  0  0  0  0
 36 37  1  0  0  0  0
 38 35  1  0  0  0  0
 38 33  2  0  0  0  0
 40 39  1  0  0  0  0
 41 35  1  0  0  0  0
 42 41  1  0  0  0  0
 44 43  1  0  0  0  0
 45 46  1  0  0  0  0
 45 44  1  0  0  0  0
 46 47  1  0  0  0  0
 47 50  1  0  0  0  0
 48 50  1  0  0  0  0
 49 51  1  1  0  0  0
 49 48  1  0  0  0  0
 49 50  1  0  0  0  0
 51 52  1  0  0  0  0
 53 55  1  0  0  0  0
 53 52  1  0  0  0  0
 54 55  1  0  0  0  0
 59 58  1  0  0  0  0
 59 57  1  0  0  0  0
 59 56  1  0  0  0  0
M  END
>  <MODEL>
8

>  <REMARK>
 VINA RESULT:      -4.2      4.826     12.012
  Name = 
  21 active torsions:
  status: ('A' for Active; 'I' for Inactive)
    1  A    between atoms: C_4  and  C_9
    2  A    between atoms: O_5  and  C_25
    3  A    between atoms: O_5  and  C_41
    4  A    between atoms: C_9  and  O_17
    5  A    between atoms: O_11  and  C_15
    6  A    between atoms: O_11  and  C_26
    7  A    between atoms: C_12  and  C_48
    8  A    between atoms: O_17  and  C_24
    9  A    between atoms: C_18  and  N_38
   10  A    between atoms: C_21  and  C_47
   11  A    between atoms: C_23  and  O_29
   12  A    between atoms: C_23  and  C_56
   13  A    between atoms: C_24  and  C_52
   14  A    between atoms: C_25  and  C_39
   15  A    between atoms: C_26  and  O_29
   16  A    between atoms: N_32  and  C_48
   17  A    between atoms: C_35  and  C_36
   18  A    between atoms: N_38  and  C_58
   19  A    between atoms: C_41  and  C_42
   20  A    between atoms: C_45  and  C_57
   21  A    between atoms: N_50  and  C_56
                            x       y       z     vdW  Elec       q    Type
                         _______ _______ _______ _____ _____    ______ ____

>  <TORSDO>
F 21

$$$$
=
 OpenBabel10232409513D

 59 64  0  0  1  0  0  0  0  0999 V2000
  187.4740  178.9820  135.6860 C   0  0  1  0  0  3  0  0  0  0  0  0
  187.3480  177.7570  134.7430 C   0  0  2  0  0  3  0  0  0  0  0  0
  183.9050  178.4590  139.7190 C   0  0  2  0  0  3  0  0  0  0  0  0
  188.1620  177.0090  138.7790 C   0  0  0  0  0  1  0  0  0  0  0  0
  184.8520  175.7270  136.5990 C   0  0  0  0  0  0  0  0  0  0  0  0
  186.0770  177.0470  134.8710 N   0  0  0  0  0  2  0  0  0  0  0  0
  183.3150  176.9240  137.9980 O   0  0  0  0  0  0  0  0  0  0  0  0
  183.0170  178.1210  138.5970 N   0  0  0  0  0  0  0  0  0  0  0  0
  186.7210  174.8680  135.4110 O   0  0  0  0  0  0  0  0  0  0  0  0
  185.3750  178.4240  139.3110 C   0  0  0  0  0  2  0  0  0  0  0  0
  187.3220  178.8040  137.2120 C   0  0  2  0  0  3  0  0  0  0  0  0
  188.6960  178.9280  136.5850 C   0  0  0  0  0  2  0  0  0  0  0  0
  184.5920  176.9860  137.3890 C   0  0  1  0  0  3  0  0  0  0  0  0
  187.0930  177.3840  137.7640 C   0  0  2  0  0  3  0  0  0  0  0  0
  185.9000  175.8120  135.5690 C   0  0  0  0  0  0  0  0  0  0  0  0
  185.7040  177.2210  138.4240 C   0  0  1  0  0  3  0  0  0  0  0  0
  184.2720  174.5760  136.9800 C   0  0  0  0  0  3  0  0  0  0  0  0
  182.2480  171.1790  134.4260 O   0  0  0  0  0  0  0  0  0  0  0  0
  185.7270  171.3560  135.5850 C   0  0  0  0  0  0  0  0  0  0  0  0
  185.6360  172.5370  136.2010 C   0  0  0  0  0  3  0  0  0  0  0  0
  184.5060  170.6750  135.0090 C   0  0  0  0  0  2  0  0  0  0  0  0
  183.2880  171.5530  135.0250 C   0  0  0  0  0  0  0  0  0  0  0  0
  184.3520  173.2590  136.3220 C   0  0  0  0  0  0  0  0  0  0  0  0
  183.2920  172.7990  135.7320 N   0  0  0  0  0  0  0  0  0  0  0  0
  187.0030  170.7200  135.5200 N   0  0  0  0  0  2  0  0  0  0  0  0
  188.5820  169.1200  134.9110 O   0  0  0  0  0  1  0  0  0  0  0  0
  186.3820  168.3800  135.4040 C   0  0  0  0  0  1  0  0  0  0  0  0
  187.2380  169.4760  134.8040 C   0  0  1  0  0  3  0  0  0  0  0  0
  189.8200  177.7640  134.3460 C   0  0  0  0  0  1  0  0  0  0  0  0
  188.5770  176.8890  134.4120 C   0  0  1  0  0  3  0  0  0  0  0  0
  188.7730  175.9250  135.4050 O   0  0  0  0  0  0  0  0  0  0  0  0
  190.1590  175.8510  135.5710 C   0  0  0  0  0  2  0  0  0  0  0  0
  189.6970  173.4340  135.2220 C   0  0  0  0  0  3  0  0  0  0  0  0
  190.0990  172.1290  134.9340 C   0  0  0  0  0  3  0  0  0  0  0  0
  191.9900  174.2060  134.9770 C   0  0  0  0  0  0  0  0  0  0  0  0
  192.3880  172.8870  134.6710 C   0  0  0  0  0  0  0  0  0  0  0  0
  191.4400  171.8590  134.6580 C   0  0  0  0  0  3  0  0  0  0  0  0
  190.6300  174.4760  135.2340 C   0  0  0  0  0  0  0  0  0  0  0  0
  193.8150  172.5460  134.3830 C   0  0  0  0  0  2  0  0  0  0  0  0
  194.3540  171.6110  135.4500 C   0  0  0  0  0  1  0  0  0  0  0  0
  192.9950  175.3190  134.9830 C   0  0  0  0  0  2  0  0  0  0  0  0
  193.5050  175.4850  136.2700 O   0  0  0  0  0  1  0  0  0  0  0  0
  183.6830  177.5740  140.7770 O   0  0  0  0  0  0  0  0  0  0  0  0
  184.3890  178.1170  141.8520 C   0  0  0  0  0  2  0  0  0  0  0  0
  183.6500  179.1510  142.4280 O   0  0  0  0  0  0  0  0  0  0  0  0
  184.3580  179.4820  143.5830 C   0  0  0  0  0  2  0  0  0  0  0  0
  184.9310  178.2260  144.2170 C   0  0  0  0  0  2  0  0  0  0  0  0
  186.4990  178.6030  145.8240 O   0  0  0  0  0  0  0  0  0  0  0  0
  186.7440  177.3490  145.3700 C   0  0  1  0  0  3  0  0  0  0  0  0
  186.3520  178.3970  144.4620 N   0  0  0  0  0  0  0  0  0  0  0  0
  188.2410  177.1260  145.2770 C   0  0  0  0  0  2  0  0  0  0  0  0
  188.5510  176.5200  144.0590 O   0  0  0  0  0  0  0  0  0  0  0  0
  189.1560  177.5260  143.3060 C   0  0  0  0  0  2  0  0  0  0  0  0
  190.8980  176.3360  142.2360 F   0  0  0  0  0  0  0  0  0  0  0  0
  190.6450  177.2700  143.2220 C   0  0  0  0  0  2  0  0  0  0  0  0
  182.7000  179.2020  137.6460 C   0  0  0  0  0  2  0  0  0  0  0  0
  181.3190  181.0250  138.6090 C   0  0  0  0  0  1  0  0  0  0  0  0
  180.7180  180.0660  136.4130 C   0  0  0  0  0  1  0  0  0  0  0  0
  181.2880  179.7590  137.7830 C   0  0  0  0  0  3  0  0  0  0  0  0
  1 12  1  1  0  0  0
  1 11  1  0  0  0  0
  2 30  1  1  0  0  0
  2  6  1  0  0  0  0
  2  1  1  0  0  0  0
  3 43  1  1  0  0  0
  5 17  2  0  0  0  0
  6 15  1  0  0  0  0
  7  8  1  0  0  0  0
  8  3  1  0  0  0  0
  9 15  2  0  0  0  0
 10  3  1  0  0  0  0
 11 12  1  1  0  0  0
 11 14  1  0  0  0  0
 13  5  1  1  0  0  0
 13  7  1  0  0  0  0
 13 16  1  0  0  0  0
 14 16  1  0  0  0  0
 14  4  1  1  0  0  0
 15  5  1  0  0  0  0
 16 10  1  6  0  0  0
 18 22  2  0  0  0  0
 19 20  2  0  0  0  0
 20 23  1  0  0  0  0
 21 22  1  0  0  0  0
 21 19  1  0  0  0  0
 22 24  1  0  0  0  0
 23 17  1  0  0  0  0
 24 23  2  0  0  0  0
 25 19  1  0  0  0  0
 28 26  1  0  0  0  0
 28 27  1  1  0  0  0
 28 25  1  0  0  0  0
 30 29  1  1  0  0  0
 30 31  1  0  0  0  0
 31 32  1  0  0  0  0
 33 38  1  0  0  0  0
 34 33  2  0  0  0  0
 35 41  1  0  0  0  0
 35 38  2  0  0  0  0
 36 35  1  0  0  0  0
 37 36  2  0  0  0  0
 37 34  1  0  0  0  0
 38 32  1  0  0  0  0
 39 36  1  0  0  0  0
 39 40  1  0  0  0  0
 41 42  1  0  0  0  0
 43 44  1  0  0  0  0
 44 45  1  0  0  0  0
 45 46  1  0  0  0  0
 46 47  1  0  0  0  0
 47 50  1  0  0  0  0
 49 51  1  6  0  0  0
 49 48  1  0  0  0  0
 50 49  1  0  0  0  0
 50 48  1  0  0  0  0
 52 51  1  0  0  0  0
 53 52  1  0  0  0  0
 54 55  1  0  0  0  0
 55 53  1  0  0  0  0
 56 59  1  0  0  0  0
 56  8  1  0  0  0  0
 58 59  1  0  0  0  0
 59 57  1  0  0  0  0
M  END
>  <MODEL>
9

>  <REMARK>
 VINA RESULT:      -4.1      3.736     10.610
  Name = 
  21 active torsions:
  status: ('A' for Active; 'I' for Inactive)
    1  A    between atoms: C_4  and  C_9
    2  A    between atoms: O_5  and  C_25
    3  A    between atoms: O_5  and  C_41
    4  A    between atoms: C_9  and  O_17
    5  A    between atoms: O_11  and  C_15
    6  A    between atoms: O_11  and  C_26
    7  A    between atoms: C_12  and  C_48
    8  A    between atoms: O_17  and  C_24
    9  A    between atoms: C_18  and  N_38
   10  A    between atoms: C_21  and  C_47
   11  A    between atoms: C_23  and  O_29
   12  A    between atoms: C_23  and  C_56
   13  A    between atoms: C_24  and  C_52
   14  A    between atoms: C_25  and  C_39
   15  A    between atoms: C_26  and  O_29
   16  A    between atoms: N_32  and  C_48
   17  A    between atoms: C_35  and  C_36
   18  A    between atoms: N_38  and  C_58
   19  A    between atoms: C_41  and  C_42
   20  A    between atoms: C_45  and  C_57
   21  A    between atoms: N_50  and  C_56
                            x       y       z     vdW  Elec       q    Type
                         _______ _______ _______ _____ _____    ______ ____

>  <TORSDO>
F 21

$$$$
