=
 OpenBabel10232412443D

 39 41  0  0  1  0  0  0  0  0999 V2000
  188.9830  175.6230  143.1480 O   0  0  0  0  0  0  0  0  0  0  0  0
  188.8750  176.8600  143.3790 C   0  0  0  0  0  0  0  0  0  0  0  0
  189.6860  177.1880  146.3780 C   0  0  0  0  0  3  0  0  0  0  0  0
  187.4730  177.9150  146.7410 C   0  0  0  0  0  0  0  0  0  0  0  0
  186.6310  177.6610  144.1110 C   0  0  0  0  0  3  0  0  0  0  0  0
  188.0810  177.9990  148.0840 C   0  0  0  0  0  3  0  0  0  0  0  0
  186.1590  178.2490  146.4220 C   0  0  0  0  0  3  0  0  0  0  0  0
  185.7320  178.1220  145.0930 C   0  0  0  0  0  0  0  0  0  0  0  0
  187.9580  177.3270  144.4410 C   0  0  0  0  0  0  0  0  0  0  0  0
  188.3550  177.4690  145.7860 C   0  0  0  0  0  0  0  0  0  0  0  0
  189.5130  177.4930  147.8710 C   0  0  0  0  0  2  0  0  0  0  0  0
  183.7110  179.1340  145.8100 O   0  0  0  0  0  1  0  0  0  0  0  0
  184.3250  178.4780  144.7400 C   0  0  1  0  0  3  0  0  0  0  0  0
  184.2850  179.3440  143.4880 C   0  0  0  0  0  2  0  0  0  0  0  0
  182.2080  178.8250  142.4450 O   0  0  0  0  0  0  0  0  0  0  0  0
  183.4630  178.6950  142.4280 C   0  0  0  0  0  0  0  0  0  0  0  0
  184.0980  177.9890  141.4040 O   0  0  0  0  0  0  0  0  0  0  0  0
  183.6030  177.9690  140.0720 C   0  0  0  0  0  2  0  0  0  0  0  0
  184.2190  179.1000  139.2670 C   0  0  0  0  0  2  0  0  0  0  0  0
  181.7850  179.4600  139.0260 C   0  0  0  0  0  1  0  0  0  0  0  0
  183.1480  180.1090  138.9150 C   0  0  0  0  0  2  0  0  0  0  0  0
  189.6060  177.7770  142.6160 O   0  0  0  0  0  0  0  0  0  0  0  0
  189.4860  177.8560  141.2020 C   0  0  0  0  0  2  0  0  0  0  0  0
  188.1470  178.4670  140.8240 C   0  0  0  0  0  2  0  0  0  0  0  0
  187.8020  178.1220  139.3870 C   0  0  0  0  0  2  0  0  0  0  0  0
  188.9870  178.2460  138.5400 N   0  0  0  0  0  2  0  0  0  0  0  0
  188.9370  177.2840  137.4330 C   0  0  1  0  0  3  0  0  0  0  0  0
  189.5020  175.9260  137.8370 C   0  0  2  0  0  3  0  0  0  0  0  0
  192.3690  176.9850  139.3200 O   0  0  0  0  0  0  0  0  0  0  0  0
  190.9900  175.9670  137.7510 N   0  0  0  0  0  0  0  0  0  0  0  0
  190.0950  175.3060  136.7550 C   0  0  1  0  0  3  0  0  0  0  0  0
  192.2740  176.3460  138.2390 C   0  0  0  0  0  0  0  0  0  0  0  0
  194.4650  175.4560  138.0820 O   0  0  0  0  0  0  0  0  0  0  0  0
  193.4860  175.9920  137.4980 C   0  0  0  0  0  3  0  0  0  0  0  0
  190.1420  173.8050  136.9690 C   0  0  0  0  0  2  0  0  0  0  0  0
  187.9970  172.5390  136.9850 C   0  0  0  0  0  1  0  0  0  0  0  0
  189.0950  173.1170  136.1120 C   0  0  0  0  0  2  0  0  0  0  0  0
  187.4770  177.7350  135.4560 C   0  0  0  0  0  1  0  0  0  0  0  0
  187.5320  177.1480  136.8520 C   0  0  0  0  0  2  0  0  0  0  0  0
  1  2  2  0  0  0  0
  2  9  1  0  0  0  0
  3 11  1  0  0  0  0
  4  6  2  0  0  0  0
  5  9  2  0  0  0  0
  5  8  1  0  0  0  0
  7  4  1  0  0  0  0
  8  7  2  0  0  0  0
  9 10  1  0  0  0  0
 10  3  2  0  0  0  0
 10  4  1  0  0  0  0
 11  6  1  0  0  0  0
 13  8  1  0  0  0  0
 13 12  1  1  0  0  0
 14 13  1  0  0  0  0
 16 15  2  0  0  0  0
 16 14  1  0  0  0  0
 17 16  1  0  0  0  0
 18 17  1  0  0  0  0
 19 18  1  0  0  0  0
 21 20  1  0  0  0  0
 21 19  1  0  0  0  0
 22  2  1  0  0  0  0
 23 22  1  0  0  0  0
 24 23  1  0  0  0  0
 25 24  1  0  0  0  0
 26 25  1  0  0  0  0
 27 39  1  1  0  0  0
 27 26  1  0  0  0  0
 28 27  1  6  0  0  0
 30 28  1  0  0  0  0
 30 32  1  0  0  0  0
 31 35  1  1  0  0  0
 31 30  1  0  0  0  0
 31 28  1  0  0  0  0
 32 29  2  0  0  0  0
 34 33  2  0  0  0  0
 34 32  1  0  0  0  0
 37 35  1  0  0  0  0
 37 36  1  0  0  0  0
 38 39  1  0  0  0  0
M  END
>  <MODEL>
1

>  <REMARK>
 VINA RESULT:      -7.4      0.000      0.000
  Name = 
  19 active torsions:
  status: ('A' for Active; 'I' for Inactive)
    1  A    between atoms: C_1  and  C_24
    2  A    between atoms: C_4  and  C_30
    3  A    between atoms: C_4  and  C_37
    4  A    between atoms: C_5  and  C_15
    5  A    between atoms: C_5  and  C_36
    6  A    between atoms: C_8  and  O_14
    7  A    between atoms: C_8  and  C_28
    8  A    between atoms: O_10  and  C_36
    9  A    between atoms: O_10  and  C_38
   10  A    between atoms: O_14  and  C_37
   11  A    between atoms: C_15  and  N_23
   12  A    between atoms: C_21  and  C_30
   13  A    between atoms: C_22  and  C_31
   14  A    between atoms: N_23  and  C_24
   15  A    between atoms: C_24  and  C_35
   16  A    between atoms: C_25  and  C_39
   17  A    between atoms: C_26  and  C_38
   18  A    between atoms: C_28  and  C_32
   19  A    between atoms: C_29  and  C_31
                            x       y       z     vdW  Elec       q    Type
                         _______ _______ _______ _____ _____    ______ ____

>  <TORSDO>
F 19

$$$$
=
 OpenBabel10232412443D

 39 41  0  0  1  0  0  0  0  0999 V2000
  185.4500  179.4850  140.5160 O   0  0  0  0  0  0  0  0  0  0  0  0
  184.8880  178.6720  141.3030 C   0  0  0  0  0  0  0  0  0  0  0  0
  183.6100  179.0360  144.1310 C   0  0  0  0  0  3  0  0  0  0  0  0
  185.6030  178.1110  144.9860 C   0  0  0  0  0  0  0  0  0  0  0  0
  186.8470  177.7430  142.5340 C   0  0  0  0  0  3  0  0  0  0  0  0
  184.8010  178.3670  146.1990 C   0  0  0  0  0  3  0  0  0  0  0  0
  186.8800  177.5540  144.9570 C   0  0  0  0  0  3  0  0  0  0  0  0
  187.5090  177.3670  143.7190 C   0  0  0  0  0  0  0  0  0  0  0  0
  185.5550  178.3030  142.5710 C   0  0  0  0  0  0  0  0  0  0  0  0
  184.9510  178.4760  143.8320 C   0  0  0  0  0  0  0  0  0  0  0  0
  183.5140  179.0040  145.6610 C   0  0  0  0  0  2  0  0  0  0  0  0
  188.9320  175.7550  142.7190 O   0  0  0  0  0  1  0  0  0  0  0  0
  188.8780  176.7700  143.6780 C   0  0  1  0  0  3  0  0  0  0  0  0
  189.9230  177.8370  143.3870 C   0  0  0  0  0  2  0  0  0  0  0  0
  192.0590  176.8910  142.9240 O   0  0  0  0  0  0  0  0  0  0  0  0
  191.2790  177.3680  143.7930 C   0  0  0  0  0  0  0  0  0  0  0  0
  191.6810  177.5040  145.1230 O   0  0  0  0  0  0  0  0  0  0  0  0
  191.6780  176.4140  146.0360 C   0  0  0  0  0  2  0  0  0  0  0  0
  191.1160  176.8550  147.3750 C   0  0  0  0  0  2  0  0  0  0  0  0
  189.0650  177.9910  148.1610 C   0  0  0  0  0  1  0  0  0  0  0  0
  189.6040  176.8630  147.3080 C   0  0  0  0  0  2  0  0  0  0  0  0
  183.6520  178.1140  140.9610 O   0  0  0  0  0  0  0  0  0  0  0  0
  183.4870  177.2690  139.8300 C   0  0  0  0  0  2  0  0  0  0  0  0
  183.0330  178.0840  138.6300 C   0  0  0  0  0  2  0  0  0  0  0  0
  183.8790  177.7430  137.4170 C   0  0  0  0  0  2  0  0  0  0  0  0
  185.0700  177.0000  137.8250 N   0  0  0  0  0  2  0  0  0  0  0  0
  185.2810  175.8380  136.9530 C   0  0  1  0  0  3  0  0  0  0  0  0
  186.7320  175.3700  136.9770 C   0  0  2  0  0  3  0  0  0  0  0  0
  187.9550  177.6040  139.2250 O   0  0  0  0  0  0  0  0  0  0  0  0
  187.6250  176.5460  137.1830 N   0  0  0  0  0  0  0  0  0  0  0  0
  187.4150  175.8510  135.8780 C   0  0  1  0  0  3  0  0  0  0  0  0
  188.2200  177.5550  137.9950 C   0  0  0  0  0  0  0  0  0  0  0  0
  188.8170  179.7450  137.3150 O   0  0  0  0  0  0  0  0  0  0  0  0
  189.1410  178.5320  137.4120 C   0  0  0  0  0  3  0  0  0  0  0  0
  188.6210  174.9790  135.5830 C   0  0  0  0  0  2  0  0  0  0  0  0
  189.2500  172.5700  135.4990 C   0  0  0  0  0  1  0  0  0  0  0  0
  188.1770  173.5880  135.1660 C   0  0  0  0  0  2  0  0  0  0  0  0
  185.1000  173.4320  137.6020 C   0  0  0  0  0  1  0  0  0  0  0  0
  184.3250  174.6940  137.2790 C   0  0  0  0  0  2  0  0  0  0  0  0
  1  2  2  0  0  0  0
  2  9  1  0  0  0  0
  3 11  1  0  0  0  0
  4  6  2  0  0  0  0
  5  9  2  0  0  0  0
  5  8  1  0  0  0  0
  7  4  1  0  0  0  0
  8  7  2  0  0  0  0
  9 10  1  0  0  0  0
 10  3  2  0  0  0  0
 10  4  1  0  0  0  0
 11  6  1  0  0  0  0
 13 12  1  6  0  0  0
 13  8  1  0  0  0  0
 14 13  1  0  0  0  0
 14 16  1  0  0  0  0
 15 16  2  0  0  0  0
 16 17  1  0  0  0  0
 17 18  1  0  0  0  0
 18 19  1  0  0  0  0
 21 19  1  0  0  0  0
 21 20  1  0  0  0  0
 22  2  1  0  0  0  0
 23 22  1  0  0  0  0
 24 23  1  0  0  0  0
 25 26  1  0  0  0  0
 25 24  1  0  0  0  0
 27 39  1  1  0  0  0
 27 26  1  0  0  0  0
 28 27  1  6  0  0  0
 28 30  1  0  0  0  0
 30 32  1  0  0  0  0
 31 35  1  1  0  0  0
 31 28  1  0  0  0  0
 31 30  1  0  0  0  0
 32 29  2  0  0  0  0
 33 34  2  0  0  0  0
 34 32  1  0  0  0  0
 37 36  1  0  0  0  0
 37 35  1  0  0  0  0
 39 38  1  0  0  0  0
M  END
>  <MODEL>
2

>  <REMARK>
 VINA RESULT:      -7.1      2.282      5.975
  Name = 
  19 active torsions:
  status: ('A' for Active; 'I' for Inactive)
    1  A    between atoms: C_1  and  C_24
    2  A    between atoms: C_4  and  C_30
    3  A    between atoms: C_4  and  C_37
    4  A    between atoms: C_5  and  C_15
    5  A    between atoms: C_5  and  C_36
    6  A    between atoms: C_8  and  O_14
    7  A    between atoms: C_8  and  C_28
    8  A    between atoms: O_10  and  C_36
    9  A    between atoms: O_10  and  C_38
   10  A    between atoms: O_14  and  C_37
   11  A    between atoms: C_15  and  N_23
   12  A    between atoms: C_21  and  C_30
   13  A    between atoms: C_22  and  C_31
   14  A    between atoms: N_23  and  C_24
   15  A    between atoms: C_24  and  C_35
   16  A    between atoms: C_25  and  C_39
   17  A    between atoms: C_26  and  C_38
   18  A    between atoms: C_28  and  C_32
   19  A    between atoms: C_29  and  C_31
                            x       y       z     vdW  Elec       q    Type
                         _______ _______ _______ _____ _____    ______ ____

>  <TORSDO>
F 19

$$$$
=
 OpenBabel10232412443D

 39 41  0  0  1  0  0  0  0  0999 V2000
  189.4270  175.7010  142.8620 O   0  0  0  0  0  0  0  0  0  0  0  0
  189.0850  176.8920  143.1120 C   0  0  0  0  0  0  0  0  0  0  0  0
  190.6760  176.9010  145.8010 C   0  0  0  0  0  3  0  0  0  0  0  0
  188.6500  177.5410  146.8230 C   0  0  0  0  0  0  0  0  0  0  0  0
  187.1300  177.5640  144.5040 C   0  0  0  0  0  3  0  0  0  0  0  0
  189.5980  177.4870  147.9550 C   0  0  0  0  0  3  0  0  0  0  0  0
  187.3020  177.8830  146.9070 C   0  0  0  0  0  3  0  0  0  0  0  0
  186.5330  177.8960  145.7360 C   0  0  0  0  0  0  0  0  0  0  0  0
  188.4930  177.2210  144.4270 C   0  0  0  0  0  0  0  0  0  0  0  0
  189.2380  177.2200  145.6230 C   0  0  0  0  0  0  0  0  0  0  0  0
  190.9140  177.0350  147.3100 C   0  0  0  0  0  2  0  0  0  0  0  0
  184.7750  178.7190  147.0980 O   0  0  0  0  0  1  0  0  0  0  0  0
  185.0870  178.2620  145.8150 C   0  0  1  0  0  3  0  0  0  0  0  0
  184.7390  179.3150  144.7720 C   0  0  0  0  0  2  0  0  0  0  0  0
  182.5360  178.7310  144.0830 O   0  0  0  0  0  0  0  0  0  0  0  0
  183.7610  178.7740  143.7870 C   0  0  0  0  0  0  0  0  0  0  0  0
  184.2100  178.3650  142.5290 O   0  0  0  0  0  0  0  0  0  0  0  0
  183.4880  178.6370  141.3360 C   0  0  0  0  0  2  0  0  0  0  0  0
  184.3760  178.4200  140.1240 C   0  0  0  0  0  2  0  0  0  0  0  0
  182.6900  179.6270  138.7780 C   0  0  0  0  0  1  0  0  0  0  0  0
  184.1590  179.5420  139.1330 C   0  0  0  0  0  2  0  0  0  0  0  0
  189.2520  177.8830  142.1390 O   0  0  0  0  0  0  0  0  0  0  0  0
  189.4550  177.5730  140.7660 C   0  0  0  0  0  2  0  0  0  0  0  0
  188.5530  178.4330  139.8970 C   0  0  0  0  0  2  0  0  0  0  0  0
  187.9190  177.5890  138.8060 C   0  0  0  0  0  2  0  0  0  0  0  0
  188.4090  178.0090  137.4950 N   0  0  0  0  0  2  0  0  0  0  0  0
  187.8830  177.1360  136.4390 C   0  0  1  0  0  3  0  0  0  0  0  0
  187.6730  175.7100  136.9360 C   0  0  2  0  0  3  0  0  0  0  0  0
  190.6950  175.2340  138.4140 O   0  0  0  0  0  0  0  0  0  0  0  0
  188.9690  174.9740  136.8800 N   0  0  0  0  0  0  0  0  0  0  0  0
  187.8500  174.8060  135.9060 C   0  0  1  0  0  3  0  0  0  0  0  0
  190.2710  174.6680  137.3720 C   0  0  0  0  0  0  0  0  0  0  0  0
  190.6410  172.9420  135.7910 O   0  0  0  0  0  0  0  0  0  0  0  0
  191.1190  173.6960  136.6800 C   0  0  0  0  0  3  0  0  0  0  0  0
  187.1200  173.5110  136.2110 C   0  0  0  0  0  2  0  0  0  0  0  0
  185.2680  172.9450  137.7770 C   0  0  0  0  0  1  0  0  0  0  0  0
  185.6780  173.7950  136.5900 C   0  0  0  0  0  2  0  0  0  0  0  0
  185.3880  177.2090  136.5690 C   0  0  0  0  0  1  0  0  0  0  0  0
  186.6080  177.6970  135.8130 C   0  0  0  0  0  2  0  0  0  0  0  0
  1  2  2  0  0  0  0
  2  9  1  0  0  0  0
  3 11  1  0  0  0  0
  4  7  1  0  0  0  0
  4  6  2  0  0  0  0
  5  8  1  0  0  0  0
  8 13  1  0  0  0  0
  8  7  2  0  0  0  0
  9  5  2  0  0  0  0
  9 10  1  0  0  0  0
 10  3  2  0  0  0  0
 10  4  1  0  0  0  0
 11  6  1  0  0  0  0
 13 12  1  1  0  0  0
 14 13  1  0  0  0  0
 16 15  2  0  0  0  0
 16 14  1  0  0  0  0
 17 16  1  0  0  0  0
 18 17  1  0  0  0  0
 19 18  1  0  0  0  0
 20 21  1  0  0  0  0
 21 19  1  0  0  0  0
 22  2  1  0  0  0  0
 23 22  1  0  0  0  0
 24 23  1  0  0  0  0
 25 24  1  0  0  0  0
 26 25  1  0  0  0  0
 27 39  1  1  0  0  0
 27 26  1  0  0  0  0
 28 27  1  6  0  0  0
 30 28  1  0  0  0  0
 30 32  1  0  0  0  0
 31 35  1  1  0  0  0
 31 30  1  0  0  0  0
 31 28  1  0  0  0  0
 32 29  2  0  0  0  0
 33 34  2  0  0  0  0
 34 32  1  0  0  0  0
 35 37  1  0  0  0  0
 37 36  1  0  0  0  0
 39 38  1  0  0  0  0
M  END
>  <MODEL>
3

>  <REMARK>
 VINA RESULT:      -7.0      1.555      1.919
  Name = 
  19 active torsions:
  status: ('A' for Active; 'I' for Inactive)
    1  A    between atoms: C_1  and  C_24
    2  A    between atoms: C_4  and  C_30
    3  A    between atoms: C_4  and  C_37
    4  A    between atoms: C_5  and  C_15
    5  A    between atoms: C_5  and  C_36
    6  A    between atoms: C_8  and  O_14
    7  A    between atoms: C_8  and  C_28
    8  A    between atoms: O_10  and  C_36
    9  A    between atoms: O_10  and  C_38
   10  A    between atoms: O_14  and  C_37
   11  A    between atoms: C_15  and  N_23
   12  A    between atoms: C_21  and  C_30
   13  A    between atoms: C_22  and  C_31
   14  A    between atoms: N_23  and  C_24
   15  A    between atoms: C_24  and  C_35
   16  A    between atoms: C_25  and  C_39
   17  A    between atoms: C_26  and  C_38
   18  A    between atoms: C_28  and  C_32
   19  A    between atoms: C_29  and  C_31
                            x       y       z     vdW  Elec       q    Type
                         _______ _______ _______ _____ _____    ______ ____

>  <TORSDO>
F 19

$$$$
=
 OpenBabel10232412443D

 39 41  0  0  1  0  0  0  0  0999 V2000
  188.8230  175.5310  142.9300 O   0  0  0  0  0  0  0  0  0  0  0  0
  188.7480  176.7680  143.1740 C   0  0  0  0  0  0  0  0  0  0  0  0
  189.8080  177.0410  146.1010 C   0  0  0  0  0  3  0  0  0  0  0  0
  187.6480  177.8060  146.6520 C   0  0  0  0  0  0  0  0  0  0  0  0
  186.5890  177.6030  144.0980 C   0  0  0  0  0  3  0  0  0  0  0  0
  188.3660  177.8610  147.9420 C   0  0  0  0  0  3  0  0  0  0  0  0
  186.3190  178.1700  146.4460 C   0  0  0  0  0  3  0  0  0  0  0  0
  185.7830  178.0680  145.1550 C   0  0  0  0  0  0  0  0  0  0  0  0
  187.9320  177.2390  144.3140 C   0  0  0  0  0  0  0  0  0  0  0  0
  188.4400  177.3550  145.6230 C   0  0  0  0  0  0  0  0  0  0  0  0
  189.7650  177.3300  147.6060 C   0  0  0  0  0  2  0  0  0  0  0  0
  183.8370  179.0770  146.0600 O   0  0  0  0  0  1  0  0  0  0  0  0
  184.3590  178.4560  144.9230 C   0  0  1  0  0  3  0  0  0  0  0  0
  184.2400  179.3710  143.7120 C   0  0  0  0  0  2  0  0  0  0  0  0
  182.0360  178.8370  142.9870 O   0  0  0  0  0  0  0  0  0  0  0  0
  183.2700  178.8140  142.7270 C   0  0  0  0  0  0  0  0  0  0  0  0
  183.7380  178.3160  141.5090 O   0  0  0  0  0  0  0  0  0  0  0  0
  184.6580  179.0330  140.6960 C   0  0  0  0  0  2  0  0  0  0  0  0
  184.1020  179.1920  139.2930 C   0  0  0  0  0  2  0  0  0  0  0  0
  184.1270  177.1700  137.8700 C   0  0  0  0  0  1  0  0  0  0  0  0
  184.9280  178.3700  138.3280 C   0  0  0  0  0  2  0  0  0  0  0  0
  189.4220  177.6810  142.3560 O   0  0  0  0  0  0  0  0  0  0  0  0
  188.7400  178.6860  141.6180 C   0  0  0  0  0  2  0  0  0  0  0  0
  187.9630  178.0590  140.4730 C   0  0  0  0  0  2  0  0  0  0  0  0
  188.8740  177.8510  139.2760 C   0  0  0  0  0  2  0  0  0  0  0  0
  188.3130  176.8360  138.3870 N   0  0  0  0  0  2  0  0  0  0  0  0
  188.8170  177.0080  137.0190 C   0  0  1  0  0  3  0  0  0  0  0  0
  189.0470  175.6680  136.3280 C   0  0  2  0  0  3  0  0  0  0  0  0
  185.8050  174.7340  135.9320 O   0  0  0  0  0  0  0  0  0  0  0  0
  187.9810  174.7120  136.7430 N   0  0  0  0  0  0  0  0  0  0  0  0
  189.3860  174.6980  137.2500 C   0  0  1  0  0  3  0  0  0  0  0  0
  186.6510  174.2030  136.6970 C   0  0  0  0  0  0  0  0  0  0  0  0
  185.0470  172.8040  137.7390 O   0  0  0  0  0  0  0  0  0  0  0  0
  186.2610  173.0620  137.5270 C   0  0  0  0  0  3  0  0  0  0  0  0
  190.1440  173.5710  136.5740 C   0  0  0  0  0  2  0  0  0  0  0  0
  192.5440  174.0220  137.0650 C   0  0  0  0  0  1  0  0  0  0  0  0
  191.4570  174.0830  136.0090 C   0  0  0  0  0  2  0  0  0  0  0  0
  188.0440  177.5770  134.7120 C   0  0  0  0  0  1  0  0  0  0  0  0
  187.9160  177.9140  136.1840 C   0  0  0  0  0  2  0  0  0  0  0  0
  1  2  2  0  0  0  0
  2  9  1  0  0  0  0
  3 11  1  0  0  0  0
  4  6  2  0  0  0  0
  5  9  2  0  0  0  0
  5  8  1  0  0  0  0
  7  4  1  0  0  0  0
  8  7  2  0  0  0  0
  9 10  1  0  0  0  0
 10  3  2  0  0  0  0
 10  4  1  0  0  0  0
 11  6  1  0  0  0  0
 13  8  1  0  0  0  0
 13 12  1  1  0  0  0
 14 13  1  0  0  0  0
 16 15  2  0  0  0  0
 16 14  1  0  0  0  0
 17 16  1  0  0  0  0
 18 17  1  0  0  0  0
 19 18  1  0  0  0  0
 20 21  1  0  0  0  0
 21 19  1  0  0  0  0
 22  2  1  0  0  0  0
 23 22  1  0  0  0  0
 24 23  1  0  0  0  0
 25 24  1  0  0  0  0
 26 25  1  0  0  0  0
 27 39  1  6  0  0  0
 27 26  1  0  0  0  0
 28 30  1  0  0  0  0
 28 27  1  1  0  0  0
 28 31  1  0  0  0  0
 29 32  2  0  0  0  0
 30 31  1  0  0  0  0
 31 35  1  6  0  0  0
 32 30  1  0  0  0  0
 32 34  1  0  0  0  0
 34 33  2  0  0  0  0
 37 35  1  0  0  0  0
 37 36  1  0  0  0  0
 38 39  1  0  0  0  0
M  END
>  <MODEL>
4

>  <REMARK>
 VINA RESULT:      -7.0      1.850      2.911
  Name = 
  19 active torsions:
  status: ('A' for Active; 'I' for Inactive)
    1  A    between atoms: C_1  and  C_24
    2  A    between atoms: C_4  and  C_30
    3  A    between atoms: C_4  and  C_37
    4  A    between atoms: C_5  and  C_15
    5  A    between atoms: C_5  and  C_36
    6  A    between atoms: C_8  and  O_14
    7  A    between atoms: C_8  and  C_28
    8  A    between atoms: O_10  and  C_36
    9  A    between atoms: O_10  and  C_38
   10  A    between atoms: O_14  and  C_37
   11  A    between atoms: C_15  and  N_23
   12  A    between atoms: C_21  and  C_30
   13  A    between atoms: C_22  and  C_31
   14  A    between atoms: N_23  and  C_24
   15  A    between atoms: C_24  and  C_35
   16  A    between atoms: C_25  and  C_39
   17  A    between atoms: C_26  and  C_38
   18  A    between atoms: C_28  and  C_32
   19  A    between atoms: C_29  and  C_31
                            x       y       z     vdW  Elec       q    Type
                         _______ _______ _______ _____ _____    ______ ____

>  <TORSDO>
F 19

$$$$
=
 OpenBabel10232412443D

 39 41  0  0  1  0  0  0  0  0999 V2000
  185.9740  179.5850  140.7010 O   0  0  0  0  0  0  0  0  0  0  0  0
  184.9590  178.8730  140.9430 C   0  0  0  0  0  0  0  0  0  0  0  0
  181.8990  178.8280  141.5710 C   0  0  0  0  0  3  0  0  0  0  0  0
  182.5180  178.8020  143.8450 C   0  0  0  0  0  0  0  0  0  0  0  0
  185.2580  178.8460  143.4180 C   0  0  0  0  0  3  0  0  0  0  0  0
  181.0420  178.7740  143.8960 C   0  0  0  0  0  3  0  0  0  0  0  0
  183.3700  178.7920  144.9480 C   0  0  0  0  0  3  0  0  0  0  0  0
  184.7540  178.8140  144.7330 C   0  0  0  0  0  0  0  0  0  0  0  0
  184.3910  178.8530  142.3090 C   0  0  0  0  0  0  0  0  0  0  0  0
  183.0040  178.8290  142.5600 C   0  0  1  0  0  3  0  0  0  0  0  0
  180.6230  178.8280  142.4220 C   0  0  0  0  0  3  0  0  0  0  0  0
  184.9470  178.9280  147.0940 O   0  0  0  0  0  1  0  0  0  0  0  0
  185.6760  178.8030  145.9090 C   0  0  1  0  0  3  0  0  0  0  0  0
  186.5120  177.5310  145.9270 C   0  0  0  0  0  2  0  0  0  0  0  0
  187.6120  177.8430  148.0160 O   0  0  0  0  0  0  0  0  0  0  0  0
  187.7290  177.7160  146.7670 C   0  0  0  0  0  0  0  0  0  0  0  0
  188.9880  177.7000  146.1620 O   0  0  0  0  0  0  0  0  0  0  0  0
  189.1570  177.7690  144.7520 C   0  0  0  0  0  2  0  0  0  0  0  0
  190.3460  176.9270  144.3260 C   0  0  0  0  0  2  0  0  0  0  0  0
  191.0860  179.2470  143.8990 C   0  0  0  0  0  1  0  0  0  0  0  0
  191.5480  177.8230  144.1180 C   0  0  0  0  0  2  0  0  0  0  0  0
  184.3950  178.0970  139.9260 O   0  0  0  0  0  0  0  0  0  0  0  0
  184.6300  178.3610  138.5490 C   0  0  0  0  0  2  0  0  0  0  0  0
  185.8030  177.5340  138.0510 C   0  0  0  0  0  2  0  0  0  0  0  0
  186.7640  178.4090  137.2670 C   0  0  0  0  0  2  0  0  0  0  0  0
  187.9380  178.7220  138.0790 N   0  0  0  0  0  2  0  0  0  0  0  0
  188.6260  177.4930  138.4930 C   0  0  1  0  0  3  0  0  0  0  0  0
  189.4030  176.8640  137.3420 C   0  0  2  0  0  3  0  0  0  0  0  0
  186.9210  174.9500  136.0320 O   0  0  0  0  0  0  0  0  0  0  0  0
  188.9080  175.4760  137.1140 N   0  0  0  0  0  0  0  0  0  0  0  0
  190.1890  175.8240  137.7980 C   0  0  1  0  0  3  0  0  0  0  0  0
  187.9520  174.5390  136.6250 C   0  0  0  0  0  0  0  0  0  0  0  0
  188.9200  172.4610  136.0250 O   0  0  0  0  0  0  0  0  0  0  0  0
  188.1620  173.1010  136.8010 C   0  0  0  0  0  3  0  0  0  0  0  0
  191.3420  175.5770  136.8430 C   0  0  0  0  0  2  0  0  0  0  0  0
  193.5890  175.1290  137.8190 C   0  0  0  0  0  1  0  0  0  0  0  0
  192.2690  174.5110  137.3990 C   0  0  0  0  0  2  0  0  0  0  0  0
  188.7380  177.5090  140.9890 C   0  0  0  0  0  1  0  0  0  0  0  0
  189.5220  177.7180  139.7080 C   0  0  0  0  0  2  0  0  0  0  0  0
  1  2  2  0  0  0  0
  2  9  1  0  0  0  0
  3 11  2  0  0  0  0
  4  6  2  0  0  0  0
  4  7  1  0  0  0  0
  5  8  1  0  0  0  0
  8  7  2  0  0  0  0
  8 13  1  0  0  0  0
  9 10  1  0  0  0  0
  9  5  2  0  0  0  0
 10  3  1  6  0  0  0
 10  4  1  0  0  0  0
 11  6  1  0  0  0  0
 13 14  1  0  0  0  0
 13 12  1  1  0  0  0
 14 16  1  0  0  0  0
 16 15  2  0  0  0  0
 17 16  1  0  0  0  0
 18 17  1  0  0  0  0
 19 18  1  0  0  0  0
 20 21  1  0  0  0  0
 21 19  1  0  0  0  0
 22  2  1  0  0  0  0
 23 22  1  0  0  0  0
 24 23  1  0  0  0  0
 25 24  1  0  0  0  0
 25 26  1  0  0  0  0
 26 27  1  0  0  0  0
 27 39  1  1  0  0  0
 28 31  1  0  0  0  0
 28 27  1  1  0  0  0
 29 32  2  0  0  0  0
 30 28  1  0  0  0  0
 30 31  1  0  0  0  0
 31 35  1  6  0  0  0
 32 34  1  0  0  0  0
 32 30  1  0  0  0  0
 33 34  2  0  0  0  0
 35 37  1  0  0  0  0
 37 36  1  0  0  0  0
 39 38  1  0  0  0  0
M  END
>  <MODEL>
5

>  <REMARK>
 VINA RESULT:      -7.0      2.375      5.725
  Name = 
  19 active torsions:
  status: ('A' for Active; 'I' for Inactive)
    1  A    between atoms: C_1  and  C_24
    2  A    between atoms: C_4  and  C_30
    3  A    between atoms: C_4  and  C_37
    4  A    between atoms: C_5  and  C_15
    5  A    between atoms: C_5  and  C_36
    6  A    between atoms: C_8  and  O_14
    7  A    between atoms: C_8  and  C_28
    8  A    between atoms: O_10  and  C_36
    9  A    between atoms: O_10  and  C_38
   10  A    between atoms: O_14  and  C_37
   11  A    between atoms: C_15  and  N_23
   12  A    between atoms: C_21  and  C_30
   13  A    between atoms: C_22  and  C_31
   14  A    between atoms: N_23  and  C_24
   15  A    between atoms: C_24  and  C_35
   16  A    between atoms: C_25  and  C_39
   17  A    between atoms: C_26  and  C_38
   18  A    between atoms: C_28  and  C_32
   19  A    between atoms: C_29  and  C_31
                            x       y       z     vdW  Elec       q    Type
                         _______ _______ _______ _____ _____    ______ ____

>  <TORSDO>
F 19

$$$$
=
 OpenBabel10232412443D

 39 41  0  0  1  0  0  0  0  0999 V2000
  185.1630  178.9490  145.5400 O   0  0  0  0  0  0  0  0  0  0  0  0
  185.7870  178.2870  144.6640 C   0  0  0  0  0  0  0  0  0  0  0  0
  187.1060  178.2440  147.4960 C   0  0  0  0  0  3  0  0  0  0  0  0
  189.0370  177.4260  146.4190 C   0  0  0  0  0  0  0  0  0  0  0  0
  187.9810  177.4230  143.8550 C   0  0  0  0  0  3  0  0  0  0  0  0
  189.4390  177.4840  147.8390 C   0  0  0  0  0  3  0  0  0  0  0  0
  189.8380  176.9950  145.3630 C   0  0  0  0  0  3  0  0  0  0  0  0
  189.3050  176.9930  144.0670 C   0  0  0  0  0  0  0  0  0  0  0  0
  187.1770  177.8560  144.9270 C   0  0  0  0  0  0  0  0  0  0  0  0
  187.7430  177.8440  146.2170 C   0  0  0  0  0  0  0  0  0  0  0  0
  188.2030  178.0500  148.5490 C   0  0  0  0  0  2  0  0  0  0  0  0
  190.2700  175.1400  142.9460 O   0  0  0  0  0  1  0  0  0  0  0  0
  190.1550  176.5320  142.9290 C   0  0  1  0  0  3  0  0  0  0  0  0
  189.5810  177.0050  141.6010 C   0  0  0  0  0  2  0  0  0  0  0  0
  191.7850  177.5790  140.9050 O   0  0  0  0  0  0  0  0  0  0  0  0
  190.6570  177.1200  140.5760 C   0  0  0  0  0  0  0  0  0  0  0  0
  190.4140  176.6750  139.2740 O   0  0  0  0  0  0  0  0  0  0  0  0
  191.4620  176.4050  138.3540 C   0  0  0  0  0  2  0  0  0  0  0  0
  191.2060  175.0890  137.6400 C   0  0  0  0  0  2  0  0  0  0  0  0
  189.4250  173.5070  136.9820 C   0  0  0  0  0  1  0  0  0  0  0  0
  189.7220  174.9340  137.3890 C   0  0  0  0  0  2  0  0  0  0  0  0
  185.1660  177.9850  143.4470 O   0  0  0  0  0  0  0  0  0  0  0  0
  184.7990  178.9890  142.5110 C   0  0  0  0  0  2  0  0  0  0  0  0
  185.5520  178.7900  141.2070 C   0  0  0  0  0  2  0  0  0  0  0  0
  184.6830  179.2040  140.0330 C   0  0  0  0  0  2  0  0  0  0  0  0
  183.9880  178.0410  139.4860 N   0  0  0  0  0  2  0  0  0  0  0  0
  184.2610  177.9000  138.0500 C   0  0  1  0  0  3  0  0  0  0  0  0
  185.3540  176.8730  137.7800 C   0  0  2  0  0  3  0  0  0  0  0  0
  188.0340  178.6980  138.7960 O   0  0  0  0  0  0  0  0  0  0  0  0
  186.5970  177.5780  137.3540 N   0  0  0  0  0  0  0  0  0  0  0  0
  185.6740  176.8460  136.4360 C   0  0  1  0  0  3  0  0  0  0  0  0
  187.7640  178.3540  137.6160 C   0  0  0  0  0  0  0  0  0  0  0  0
  189.3560  177.8920  135.9230 O   0  0  0  0  0  0  0  0  0  0  0  0
  188.6560  178.7490  136.5240 C   0  0  0  0  0  3  0  0  0  0  0  0
  186.2970  175.5130  136.0700 C   0  0  0  0  0  2  0  0  0  0  0  0
  185.7370  173.3180  137.1060 C   0  0  0  0  0  1  0  0  0  0  0  0
  185.2630  174.4050  136.1600 C   0  0  0  0  0  2  0  0  0  0  0  0
  182.3750  176.2900  137.7370 C   0  0  0  0  0  1  0  0  0  0  0  0
  182.9970  177.5860  137.2540 C   0  0  0  0  0  2  0  0  0  0  0  0
  2  9  1  0  0  0  0
  2  1  2  0  0  0  0
  3 11  1  0  0  0  0
  4  6  2  0  0  0  0
  5  8  1  0  0  0  0
  5  9  2  0  0  0  0
  6 11  1  0  0  0  0
  7  4  1  0  0  0  0
  8  7  2  0  0  0  0
  9 10  1  0  0  0  0
 10  4  1  0  0  0  0
 10  3  2  0  0  0  0
 13 12  1  6  0  0  0
 13  8  1  0  0  0  0
 14 13  1  0  0  0  0
 16 15  2  0  0  0  0
 16 14  1  0  0  0  0
 17 16  1  0  0  0  0
 18 17  1  0  0  0  0
 19 18  1  0  0  0  0
 20 21  1  0  0  0  0
 21 19  1  0  0  0  0
 22  2  1  0  0  0  0
 23 22  1  0  0  0  0
 24 23  1  0  0  0  0
 25 24  1  0  0  0  0
 26 25  1  0  0  0  0
 27 39  1  6  0  0  0
 27 26  1  0  0  0  0
 28 27  1  6  0  0  0
 30 32  1  0  0  0  0
 30 28  1  0  0  0  0
 31 35  1  1  0  0  0
 31 30  1  0  0  0  0
 31 28  1  0  0  0  0
 32 29  2  0  0  0  0
 33 34  2  0  0  0  0
 34 32  1  0  0  0  0
 35 37  1  0  0  0  0
 37 36  1  0  0  0  0
 39 38  1  0  0  0  0
M  END
>  <MODEL>
6

>  <REMARK>
 VINA RESULT:      -6.9      2.081      5.384
  Name = 
  19 active torsions:
  status: ('A' for Active; 'I' for Inactive)
    1  A    between atoms: C_1  and  C_24
    2  A    between atoms: C_4  and  C_30
    3  A    between atoms: C_4  and  C_37
    4  A    between atoms: C_5  and  C_15
    5  A    between atoms: C_5  and  C_36
    6  A    between atoms: C_8  and  O_14
    7  A    between atoms: C_8  and  C_28
    8  A    between atoms: O_10  and  C_36
    9  A    between atoms: O_10  and  C_38
   10  A    between atoms: O_14  and  C_37
   11  A    between atoms: C_15  and  N_23
   12  A    between atoms: C_21  and  C_30
   13  A    between atoms: C_22  and  C_31
   14  A    between atoms: N_23  and  C_24
   15  A    between atoms: C_24  and  C_35
   16  A    between atoms: C_25  and  C_39
   17  A    between atoms: C_26  and  C_38
   18  A    between atoms: C_28  and  C_32
   19  A    between atoms: C_29  and  C_31
                            x       y       z     vdW  Elec       q    Type
                         _______ _______ _______ _____ _____    ______ ____

>  <TORSDO>
F 19

$$$$
=
 OpenBabel10232412443D

 39 41  0  0  1  0  0  0  0  0999 V2000
  189.4370  175.7510  142.8500 O   0  0  0  0  0  0  0  0  0  0  0  0
  189.1800  176.9550  143.1320 C   0  0  0  0  0  0  0  0  0  0  0  0
  190.7380  176.9170  145.8410 C   0  0  0  0  0  3  0  0  0  0  0  0
  188.7120  177.5850  146.8430 C   0  0  0  0  0  0  0  0  0  0  0  0
  187.2200  177.6510  144.5060 C   0  0  0  0  0  3  0  0  0  0  0  0
  189.6450  177.5060  147.9850 C   0  0  0  0  0  3  0  0  0  0  0  0
  187.3690  177.9500  146.9140 C   0  0  0  0  0  3  0  0  0  0  0  0
  186.6150  177.9840  145.7340 C   0  0  0  0  0  0  0  0  0  0  0  0
  188.5780  177.2850  144.4430 C   0  0  0  0  0  0  0  0  0  0  0  0
  189.3090  177.2620  145.6480 C   0  0  0  0  0  0  0  0  0  0  0  0
  190.9610  177.0360  147.3530 C   0  0  0  0  0  2  0  0  0  0  0  0
  184.8440  178.7870  147.0920 O   0  0  0  0  0  1  0  0  0  0  0  0
  185.1740  178.3750  145.7980 C   0  0  1  0  0  3  0  0  0  0  0  0
  184.8680  179.4760  144.7920 C   0  0  0  0  0  2  0  0  0  0  0  0
  182.6560  178.6570  144.4680 O   0  0  0  0  0  0  0  0  0  0  0  0
  183.7110  179.0950  143.9340 C   0  0  0  0  0  0  0  0  0  0  0  0
  183.7960  179.2710  142.5510 O   0  0  0  0  0  0  0  0  0  0  0  0
  184.4000  178.3100  141.6960 C   0  0  0  0  0  2  0  0  0  0  0  0
  183.3520  177.6750  140.7990 C   0  0  0  0  0  2  0  0  0  0  0  0
  181.0120  178.3940  140.4530 C   0  0  0  0  0  1  0  0  0  0  0  0
  182.4630  178.7560  140.2210 C   0  0  0  0  0  2  0  0  0  0  0  0
  189.4490  177.9620  142.1990 O   0  0  0  0  0  0  0  0  0  0  0  0
  188.4800  178.4020  141.2570 C   0  0  0  0  0  2  0  0  0  0  0  0
  188.6530  177.6600  139.9420 C   0  0  0  0  0  2  0  0  0  0  0  0
  189.1520  178.6090  138.8680 C   0  0  0  0  0  2  0  0  0  0  0  0
  189.6930  177.8540  137.7400 N   0  0  0  0  0  2  0  0  0  0  0  0
  189.4950  176.4130  137.9370 C   0  0  1  0  0  3  0  0  0  0  0  0
  188.6490  175.8000  136.8270 C   0  0  2  0  0  3  0  0  0  0  0  0
  186.3960  178.3160  136.4540 O   0  0  0  0  0  0  0  0  0  0  0  0
  187.2280  176.2180  137.0040 N   0  0  0  0  0  0  0  0  0  0  0  0
  187.7700  174.8690  137.3440 C   0  0  1  0  0  3  0  0  0  0  0  0
  186.1700  177.1690  136.9190 C   0  0  0  0  0  0  0  0  0  0  0  0
  183.8620  177.6240  137.2060 O   0  0  0  0  0  0  0  0  0  0  0  0
  184.8190  176.8200  137.3630 C   0  0  0  0  0  3  0  0  0  0  0  0
  187.3530  173.8840  136.2680 C   0  0  0  0  0  2  0  0  0  0  0  0
  186.1250  171.7600  135.8340 C   0  0  0  0  0  1  0  0  0  0  0  0
  186.3530  172.8870  136.8250 C   0  0  0  0  0  2  0  0  0  0  0  0
  191.9700  176.5230  137.6070 C   0  0  0  0  0  1  0  0  0  0  0  0
  190.8190  175.6680  138.0990 C   0  0  0  0  0  2  0  0  0  0  0  0
  1  2  2  0  0  0  0
  2  9  1  0  0  0  0
  3 11  1  0  0  0  0
  4  7  1  0  0  0  0
  4  6  2  0  0  0  0
  5  8  1  0  0  0  0
  8 13  1  0  0  0  0
  8  7  2  0  0  0  0
  9  5  2  0  0  0  0
  9 10  1  0  0  0  0
 10  3  2  0  0  0  0
 10  4  1  0  0  0  0
 11  6  1  0  0  0  0
 13 12  1  1  0  0  0
 14 13  1  0  0  0  0
 16 15  2  0  0  0  0
 16 14  1  0  0  0  0
 17 16  1  0  0  0  0
 18 17  1  0  0  0  0
 19 18  1  0  0  0  0
 21 20  1  0  0  0  0
 21 19  1  0  0  0  0
 22  2  1  0  0  0  0
 23 22  1  0  0  0  0
 24 23  1  0  0  0  0
 25 24  1  0  0  0  0
 26 27  1  0  0  0  0
 26 25  1  0  0  0  0
 27 39  1  6  0  0  0
 28 30  1  0  0  0  0
 28 31  1  0  0  0  0
 28 27  1  1  0  0  0
 29 32  2  0  0  0  0
 30 31  1  0  0  0  0
 31 35  1  6  0  0  0
 32 30  1  0  0  0  0
 32 34  1  0  0  0  0
 33 34  2  0  0  0  0
 35 37  1  0  0  0  0
 36 37  1  0  0  0  0
 38 39  1  0  0  0  0
M  END
>  <MODEL>
7

>  <REMARK>
 VINA RESULT:      -6.8      1.827      3.279
  Name = 
  19 active torsions:
  status: ('A' for Active; 'I' for Inactive)
    1  A    between atoms: C_1  and  C_24
    2  A    between atoms: C_4  and  C_30
    3  A    between atoms: C_4  and  C_37
    4  A    between atoms: C_5  and  C_15
    5  A    between atoms: C_5  and  C_36
    6  A    between atoms: C_8  and  O_14
    7  A    between atoms: C_8  and  C_28
    8  A    between atoms: O_10  and  C_36
    9  A    between atoms: O_10  and  C_38
   10  A    between atoms: O_14  and  C_37
   11  A    between atoms: C_15  and  N_23
   12  A    between atoms: C_21  and  C_30
   13  A    between atoms: C_22  and  C_31
   14  A    between atoms: N_23  and  C_24
   15  A    between atoms: C_24  and  C_35
   16  A    between atoms: C_25  and  C_39
   17  A    between atoms: C_26  and  C_38
   18  A    between atoms: C_28  and  C_32
   19  A    between atoms: C_29  and  C_31
                            x       y       z     vdW  Elec       q    Type
                         _______ _______ _______ _____ _____    ______ ____

>  <TORSDO>
F 19

$$$$
=
 OpenBabel10232412443D

 39 41  0  0  1  0  0  0  0  0999 V2000
  184.7900  179.8150  139.8190 O   0  0  0  0  0  0  0  0  0  0  0  0
  184.2540  178.7950  140.3370 C   0  0  0  0  0  0  0  0  0  0  0  0
  181.3390  178.7960  141.4600 C   0  0  0  0  0  3  0  0  0  0  0  0
  182.3240  178.7910  143.6020 C   0  0  0  0  0  0  0  0  0  0  0  0
  184.9560  178.7960  142.7290 C   0  0  0  0  0  3  0  0  0  0  0  0
  180.8760  178.7830  143.8950 C   0  0  0  0  0  3  0  0  0  0  0  0
  183.3450  178.7860  144.5490 C   0  0  0  0  0  3  0  0  0  0  0  0
  184.6760  178.7870  144.1100 C   0  0  0  0  0  0  0  0  0  0  0  0
  183.9180  178.8000  141.7780 C   0  0  0  0  0  0  0  0  0  0  0  0
  182.5920  178.7960  142.2540 C   0  0  0  0  0  0  0  0  0  0  0  0
  180.2210  178.8230  142.5090 C   0  0  0  0  0  2  0  0  0  0  0  0
  185.3040  179.2230  146.3550 O   0  0  0  0  0  1  0  0  0  0  0  0
  185.7790  178.7800  145.1170 C   0  0  1  0  0  3  0  0  0  0  0  0
  186.3850  177.3900  145.2440 C   0  0  0  0  0  2  0  0  0  0  0  0
  187.6590  176.5810  143.4010 O   0  0  0  0  0  0  0  0  0  0  0  0
  187.6390  177.2900  144.4440 C   0  0  0  0  0  0  0  0  0  0  0  0
  188.7620  178.0210  144.8370 O   0  0  0  0  0  0  0  0  0  0  0  0
  189.8310  177.4400  145.5700 C   0  0  0  0  0  2  0  0  0  0  0  0
  189.3270  176.9100  146.9010 C   0  0  0  0  0  2  0  0  0  0  0  0
  188.0050  178.0480  148.6530 C   0  0  0  0  0  1  0  0  0  0  0  0
  189.3290  178.0280  147.9210 C   0  0  0  0  0  2  0  0  0  0  0  0
  184.0020  177.6660  139.5510 O   0  0  0  0  0  0  0  0  0  0  0  0
  183.8430  177.7420  138.1410 C   0  0  0  0  0  2  0  0  0  0  0  0
  185.1990  177.6940  137.4580 C   0  0  0  0  0  2  0  0  0  0  0  0
  185.4980  176.2810  136.9890 C   0  0  0  0  0  2  0  0  0  0  0  0
  186.4380  176.3100  135.8710 N   0  0  0  0  0  2  0  0  0  0  0  0
  187.7860  175.9350  136.3160 C   0  0  1  0  0  3  0  0  0  0  0  0
  188.5350  177.1210  136.9130 C   0  0  2  0  0  3  0  0  0  0  0  0
  191.6570  176.3630  135.8080 O   0  0  0  0  0  0  0  0  0  0  0  0
  189.9090  176.6890  137.3020 N   0  0  0  0  0  0  0  0  0  0  0  0
  188.7820  176.9130  138.2560 C   0  0  1  0  0  3  0  0  0  0  0  0
  191.2560  176.3350  137.0000 C   0  0  0  0  0  0  0  0  0  0  0  0
  193.2520  176.5760  138.2540 O   0  0  0  0  0  0  0  0  0  0  0  0
  192.1790  175.9440  138.0670 C   0  0  0  0  0  3  0  0  0  0  0  0
  188.9900  178.2390  138.9640 C   0  0  0  0  0  2  0  0  0  0  0  0
  190.1090  177.1930  140.9290 C   0  0  0  0  0  1  0  0  0  0  0  0
  188.9410  178.0450  140.4690 C   0  0  0  0  0  2  0  0  0  0  0  0
  187.4560  173.4670  136.5360 C   0  0  0  0  0  1  0  0  0  0  0  0
  187.7640  174.7520  137.2810 C   0  0  0  0  0  2  0  0  0  0  0  0
  1  2  2  0  0  0  0
  2  9  1  0  0  0  0
  3 10  2  0  0  0  0
  3 11  1  0  0  0  0
  4  6  2  0  0  0  0
  4  7  1  0  0  0  0
  5  8  1  0  0  0  0
  8  7  2  0  0  0  0
  8 13  1  0  0  0  0
  9 10  1  0  0  0  0
  9  5  2  0  0  0  0
 10  4  1  0  0  0  0
 11  6  1  0  0  0  0
 13 14  1  0  0  0  0
 13 12  1  1  0  0  0
 15 16  2  0  0  0  0
 16 17  1  0  0  0  0
 16 14  1  0  0  0  0
 17 18  1  0  0  0  0
 18 19  1  0  0  0  0
 19 21  1  0  0  0  0
 21 20  1  0  0  0  0
 22  2  1  0  0  0  0
 23 22  1  0  0  0  0
 24 23  1  0  0  0  0
 25 24  1  0  0  0  0
 26 27  1  0  0  0  0
 26 25  1  0  0  0  0
 27 39  1  1  0  0  0
 28 27  1  6  0  0  0
 28 30  1  0  0  0  0
 28 31  1  0  0  0  0
 29 32  2  0  0  0  0
 30 31  1  0  0  0  0
 31 35  1  1  0  0  0
 32 30  1  0  0  0  0
 32 34  1  0  0  0  0
 34 33  2  0  0  0  0
 35 37  1  0  0  0  0
 37 36  1  0  0  0  0
 38 39  1  0  0  0  0
M  END
>  <MODEL>
8

>  <REMARK>
 VINA RESULT:      -6.8      1.767      5.830
  Name = 
  19 active torsions:
  status: ('A' for Active; 'I' for Inactive)
    1  A    between atoms: C_1  and  C_24
    2  A    between atoms: C_4  and  C_30
    3  A    between atoms: C_4  and  C_37
    4  A    between atoms: C_5  and  C_15
    5  A    between atoms: C_5  and  C_36
    6  A    between atoms: C_8  and  O_14
    7  A    between atoms: C_8  and  C_28
    8  A    between atoms: O_10  and  C_36
    9  A    between atoms: O_10  and  C_38
   10  A    between atoms: O_14  and  C_37
   11  A    between atoms: C_15  and  N_23
   12  A    between atoms: C_21  and  C_30
   13  A    between atoms: C_22  and  C_31
   14  A    between atoms: N_23  and  C_24
   15  A    between atoms: C_24  and  C_35
   16  A    between atoms: C_25  and  C_39
   17  A    between atoms: C_26  and  C_38
   18  A    between atoms: C_28  and  C_32
   19  A    between atoms: C_29  and  C_31
                            x       y       z     vdW  Elec       q    Type
                         _______ _______ _______ _____ _____    ______ ____

>  <TORSDO>
F 19

$$$$
=
 OpenBabel10232412443D

 39 41  0  0  1  0  0  0  0  0999 V2000
  191.3120  178.3140  143.1020 O   0  0  0  0  0  0  0  0  0  0  0  0
  190.3460  177.5190  142.9240 C   0  0  0  0  0  0  0  0  0  0  0  0
  190.5270  177.1530  146.0220 C   0  0  0  0  0  3  0  0  0  0  0  0
  188.1910  177.4660  146.0440 C   0  0  0  0  0  0  0  0  0  0  0  0
  187.8990  177.8020  143.3070 C   0  0  0  0  0  3  0  0  0  0  0  0
  188.5200  177.2740  147.4710 C   0  0  0  0  0  3  0  0  0  0  0  0
  186.9180  177.6990  145.5280 C   0  0  0  0  0  3  0  0  0  0  0  0
  186.7690  177.8700  144.1450 C   0  0  0  0  0  0  0  0  0  0  0  0
  189.1830  177.5690  143.8360 C   0  0  0  0  0  0  0  0  0  0  0  0
  189.2970  177.4040  145.2310 C   0  0  0  0  0  0  0  0  0  0  0  0
  190.0340  177.0310  147.4690 C   0  0  0  0  0  2  0  0  0  0  0  0
  184.5140  178.4390  144.6060 O   0  0  0  0  0  1  0  0  0  0  0  0
  185.4090  178.1200  143.5820 C   0  0  1  0  0  3  0  0  0  0  0  0
  185.4510  179.2330  142.5440 C   0  0  0  0  0  2  0  0  0  0  0  0
  184.0000  177.8090  141.3050 O   0  0  0  0  0  0  0  0  0  0  0  0
  184.7730  178.8040  141.2880 C   0  0  0  0  0  0  0  0  0  0  0  0
  184.9700  179.5410  140.1170 O   0  0  0  0  0  0  0  0  0  0  0  0
  184.2820  179.2490  138.9090 C   0  0  0  0  0  2  0  0  0  0  0  0
  182.9780  180.0260  138.8480 C   0  0  0  0  0  2  0  0  0  0  0  0
  181.1110  179.2450  140.2670 C   0  0  0  0  0  1  0  0  0  0  0  0
  181.8140  179.0640  138.9390 C   0  0  0  0  0  2  0  0  0  0  0  0
  190.3940  176.5880  141.8820 O   0  0  0  0  0  0  0  0  0  0  0  0
  190.1490  176.9490  140.5290 C   0  0  0  0  0  2  0  0  0  0  0  0
  191.4630  177.1770  139.8010 C   0  0  0  0  0  2  0  0  0  0  0  0
  191.5380  176.2950  138.5680 C   0  0  0  0  0  2  0  0  0  0  0  0
  190.2560  175.6300  138.3460 N   0  0  0  0  0  2  0  0  0  0  0  0
  190.3820  174.5870  137.3200 C   0  0  1  0  0  3  0  0  0  0  0  0
  189.1420  174.5100  136.4360 C   0  0  2  0  0  3  0  0  0  0  0  0
  189.2420  177.6480  135.1380 O   0  0  0  0  0  0  0  0  0  0  0  0
  188.4840  175.8470  136.3940 N   0  0  0  0  0  0  0  0  0  0  0  0
  187.9980  174.6800  137.1900 C   0  0  1  0  0  3  0  0  0  0  0  0
  188.3900  177.1970  135.9460 C   0  0  0  0  0  0  0  0  0  0  0  0
  187.4860  178.8650  137.3660 O   0  0  0  0  0  0  0  0  0  0  0  0
  187.3050  178.0620  136.4130 C   0  0  0  0  0  3  0  0  0  0  0  0
  186.8050  174.0630  136.4830 C   0  0  0  0  0  2  0  0  0  0  0  0
  184.8110  173.1980  137.6990 C   0  0  0  0  0  1  0  0  0  0  0  0
  186.2460  172.9120  137.3000 C   0  0  0  0  0  2  0  0  0  0  0  0
  192.3010  173.4100  136.2360 C   0  0  0  0  0  1  0  0  0  0  0  0
  191.6490  174.7550  136.4840 C   0  0  0  0  0  2  0  0  0  0  0  0
  2  1  2  0  0  0  0
  2  9  1  0  0  0  0
  3 11  1  0  0  0  0
  4  6  2  0  0  0  0
  5  9  2  0  0  0  0
  5  8  1  0  0  0  0
  7  4  1  0  0  0  0
  8  7  2  0  0  0  0
  9 10  1  0  0  0  0
 10  3  2  0  0  0  0
 10  4  1  0  0  0  0
 11  6  1  0  0  0  0
 13  8  1  0  0  0  0
 13 12  1  1  0  0  0
 14 13  1  0  0  0  0
 16 15  2  0  0  0  0
 16 14  1  0  0  0  0
 17 16  1  0  0  0  0
 18 17  1  0  0  0  0
 19 18  1  0  0  0  0
 19 21  1  0  0  0  0
 21 20  1  0  0  0  0
 22  2  1  0  0  0  0
 23 22  1  0  0  0  0
 24 23  1  0  0  0  0
 25 24  1  0  0  0  0
 26 25  1  0  0  0  0
 27 39  1  6  0  0  0
 27 26  1  0  0  0  0
 28 31  1  0  0  0  0
 28 27  1  1  0  0  0
 29 32  2  0  0  0  0
 30 28  1  0  0  0  0
 30 31  1  0  0  0  0
 31 35  1  6  0  0  0
 32 30  1  0  0  0  0
 32 34  1  0  0  0  0
 34 33  2  0  0  0  0
 35 37  1  0  0  0  0
 37 36  1  0  0  0  0
 38 39  1  0  0  0  0
M  END
>  <MODEL>
9

>  <REMARK>
 VINA RESULT:      -6.8      1.902      3.130
  Name = 
  19 active torsions:
  status: ('A' for Active; 'I' for Inactive)
    1  A    between atoms: C_1  and  C_24
    2  A    between atoms: C_4  and  C_30
    3  A    between atoms: C_4  and  C_37
    4  A    between atoms: C_5  and  C_15
    5  A    between atoms: C_5  and  C_36
    6  A    between atoms: C_8  and  O_14
    7  A    between atoms: C_8  and  C_28
    8  A    between atoms: O_10  and  C_36
    9  A    between atoms: O_10  and  C_38
   10  A    between atoms: O_14  and  C_37
   11  A    between atoms: C_15  and  N_23
   12  A    between atoms: C_21  and  C_30
   13  A    between atoms: C_22  and  C_31
   14  A    between atoms: N_23  and  C_24
   15  A    between atoms: C_24  and  C_35
   16  A    between atoms: C_25  and  C_39
   17  A    between atoms: C_26  and  C_38
   18  A    between atoms: C_28  and  C_32
   19  A    between atoms: C_29  and  C_31
                            x       y       z     vdW  Elec       q    Type
                         _______ _______ _______ _____ _____    ______ ____

>  <TORSDO>
F 19

$$$$
