=
 OpenBabel10232409283D

 53 59  0  0  1  0  0  0  0  0999 V2000
  188.1670  176.1550  136.9220 C   0  0  2  0  0  3  0  0  0  0  0  0
  187.0310  175.1820  137.1130 C   0  0  0  0  0  0  0  0  0  0  0  0
  184.9370  173.3720  137.3660 C   0  0  0  0  0  3  0  0  0  0  0  0
  185.7080  175.6380  137.0560 C   0  0  0  0  0  3  0  0  0  0  0  0
  187.2730  173.8470  137.2670 N   0  0  0  0  0  0  0  0  0  0  0  0
  184.6500  174.7320  137.1930 C   0  0  0  0  0  0  0  0  0  0  0  0
  186.2660  172.9450  137.3980 C   0  0  0  0  0  3  0  0  0  0  0  0
  182.8890  176.5820  137.1750 C   0  0  1  0  0  3  0  0  0  0  0  0
  181.0130  175.3340  136.8280 C   0  0  0  0  0  3  0  0  0  0  0  0
  182.1550  174.3540  136.9180 C   0  0  0  0  0  3  0  0  0  0  0  0
  183.2890  175.1930  137.1660 N   0  0  0  0  0  0  0  0  0  0  0  0
  181.5220  176.6540  136.8310 O   0  0  0  0  0  0  0  0  0  0  0  0
  183.0840  177.1390  138.5040 N   0  0  0  0  0  2  0  0  0  0  0  0
  183.7370  178.4320  138.3350 C   0  0  0  0  0  2  0  0  0  0  0  0
  184.6570  178.6660  141.4810 N   0  0  0  0  0  0  0  0  0  0  0  0
  185.3320  179.3860  142.5460 C   0  0  0  0  0  1  0  0  0  0  0  0
  184.8100  179.4290  140.3080 N   0  0  0  0  0  2  0  0  0  0  0  0
  183.2880  178.6510  141.7990 N   0  0  0  0  0  2  0  0  0  0  0  0
  182.5900  178.6940  140.5320 C   0  0  0  0  0  2  0  0  0  0  0  0
  183.5640  179.3060  139.5750 C   0  0  2  0  0  3  0  0  0  0  0  0
  187.7000  177.6100  136.8820 C   0  0  0  0  0  2  0  0  0  0  0  0
  187.6740  177.7710  139.3860 C   0  0  0  0  0  2  0  0  0  0  0  0
  188.2070  178.3910  138.0850 C   0  0  1  0  0  3  0  0  0  0  0  0
  188.8750  177.3310  140.2210 C   0  0  1  0  0  3  0  0  0  0  0  0
  191.2220  177.4290  139.6490 O   0  0  0  0  0  0  0  0  0  0  0  0
  190.0220  177.6730  139.3540 C   0  0  0  0  0  0  0  0  0  0  0  0
  189.6530  178.2950  138.1430 N   0  0  0  0  0  2  0  0  0  0  0  0
  188.9190  178.1400  141.5060 C   0  0  0  0  0  2  0  0  0  0  0  0
  188.3550  177.3610  142.5970 N   0  0  0  0  0  2  0  0  0  0  0  0
  189.3250  177.3590  143.6790 C   0  0  1  0  0  3  0  0  0  0  0  0
  189.9640  178.6010  143.7340 O   0  0  0  0  0  1  0  0  0  0  0  0
  189.6610  176.9700  146.1450 C   0  0  0  0  0  2  0  0  0  0  0  0
  188.6350  177.0460  145.0080 C   0  0  1  0  0  3  0  0  0  0  0  0
  189.3260  178.6180  148.0050 C   0  0  0  0  0  1  0  0  0  0  0  0
  187.5710  176.8660  147.6140 C   0  0  0  0  0  2  0  0  0  0  0  0
  189.0640  177.1990  147.5420 C   0  0  1  0  0  3  0  0  0  0  0  0
  187.5230  178.0400  145.3280 C   0  0  0  0  0  2  0  0  0  0  0  0
  186.7210  177.5840  146.5510 C   0  0  2  0  0  3  0  0  0  0  0  0
  184.8210  179.0280  146.4670 O   0  0  0  0  0  1  0  0  0  0  0  0
  185.9940  178.7630  147.1730 C   0  0  0  0  0  2  0  0  0  0  0  0
  188.8910  175.8540  135.6940 N   0  0  0  0  0  2  0  0  0  0  0  0
  190.7230  175.0240  136.9270 C   0  0  0  0  0  2  0  0  0  0  0  0
  191.1950  174.8640  135.5070 C   0  0  1  0  0  0  0  0  0  0  0  0
  190.9760  176.0590  134.6210 C   0  0  0  0  0  2  0  0  0  0  0  0
  190.3010  176.0780  135.9540 C   0  0  1  0  0  0  0  0  0  0  0  0
  192.6940  174.9220  135.6900 C   0  0  0  0  0  2  0  0  0  0  0  0
  193.2880  173.5340  135.5200 C   0  0  0  0  0  2  0  0  0  0  0  0
  193.8940  173.0610  136.8290 C   0  0  0  0  0  2  0  0  0  0  0  0
  193.8960  174.1070  137.7560 O   0  0  0  0  0  0  0  0  0  0  0  0
  195.5080  174.2450  138.2700 P   0  0  0  0  0  0  0  0  0  0  0  0
  195.5500  175.0370  139.5600 O   0  0  0  0  0  1  0  0  0  0  0  0
  196.1600  172.7060  138.5390 O   0  0  0  0  0  1  0  0  0  0  0  0
  196.4240  175.0490  137.0970 O   0  0  0  0  0  0  0  0  0  0  0  0
  1 21  1  6  0  0  0
  1  2  1  0  0  0  0
  2  5  1  0  0  0  0
  3  7  1  0  0  0  0
  4  2  2  0  0  0  0
  4  6  1  0  0  0  0
  5  7  2  0  0  0  0
  6  3  2  0  0  0  0
  8 13  1  1  0  0  0
  9 12  1  0  0  0  0
  9 10  2  0  0  0  0
 10 11  1  0  0  0  0
 11  8  1  0  0  0  0
 11  6  1  0  0  0  0
 12  8  1  0  0  0  0
 14 13  1  0  0  0  0
 15 18  1  0  0  0  0
 15 16  1  0  0  0  0
 17 15  1  0  0  0  0
 19 18  1  0  0  0  0
 20 14  1  6  0  0  0
 20 17  1  0  0  0  0
 20 19  1  0  0  0  0
 22 24  1  0  0  0  0
 23 21  1  6  0  0  0
 23 27  1  0  0  0  0
 23 22  1  0  0  0  0
 24 28  1  1  0  0  0
 26 25  2  0  0  0  0
 26 24  1  0  0  0  0
 27 26  1  0  0  0  0
 28 29  1  0  0  0  0
 29 30  1  0  0  0  0
 30 31  1  1  0  0  0
 32 36  1  0  0  0  0
 33 30  1  6  0  0  0
 33 37  1  0  0  0  0
 33 32  1  0  0  0  0
 36 35  1  0  0  0  0
 36 34  1  6  0  0  0
 37 38  1  0  0  0  0
 38 40  1  1  0  0  0
 38 35  1  0  0  0  0
 39 40  1  0  0  0  0
 41  1  1  0  0  0  0
 43 46  1  1  0  0  0
 43 45  1  0  0  0  0
 43 42  1  0  0  0  0
 44 43  1  0  0  0  0
 44 45  1  0  0  0  0
 45 41  1  6  0  0  0
 45 42  1  0  0  0  0
 47 46  1  0  0  0  0
 47 48  1  0  0  0  0
 48 49  1  0  0  0  0
 49 50  1  0  0  0  0
 50 52  1  0  0  0  0
 50 51  1  0  0  0  0
 53 50  2  0  0  0  0
M  END
>  <MODEL>
1

>  <REMARK>
 VINA RESULT:      -7.4      0.000      0.000
  Name = 
  19 active torsions:
  status: ('A' for Active; 'I' for Inactive)
    1  A    between atoms: C_1  and  C_19
    2  A    between atoms: C_2  and  C_40
    3  A    between atoms: C_2  and  C_45
    4  A    between atoms: C_7  and  C_11
    5  A    between atoms: C_8  and  N_16
    6  A    between atoms: C_11  and  N_48
    7  A    between atoms: O_15  and  P_21
    8  A    between atoms: O_15  and  C_22
    9  A    between atoms: N_16  and  C_53
   10  A    between atoms: C_17  and  C_52
   11  A    between atoms: C_19  and  N_25
   12  A    between atoms: C_19  and  C_52
   13  A    between atoms: C_22  and  C_45
   14  A    between atoms: N_25  and  C_47
   15  A    between atoms: N_29  and  C_30
   16  A    between atoms: C_32  and  C_49
   17  A    between atoms: C_35  and  C_44
   18  A    between atoms: C_46  and  C_53
   19  A    between atoms: N_48  and  C_49
                            x       y       z     vdW  Elec       q    Type
                         _______ _______ _______ _____ _____    ______ ____

>  <TORSDO>
F 19

$$$$
=
 OpenBabel10232409283D

 53 59  0  0  1  0  0  0  0  0999 V2000
  189.6190  176.4110  138.1660 C   0  0  2  0  0  3  0  0  0  0  0  0
  188.5800  176.0730  137.1260 C   0  0  0  0  0  0  0  0  0  0  0  0
  186.6130  175.5300  135.2380 C   0  0  0  0  0  3  0  0  0  0  0  0
  187.4920  175.2590  137.4700 C   0  0  0  0  0  3  0  0  0  0  0  0
  188.6440  176.6090  135.8730 N   0  0  0  0  0  0  0  0  0  0  0  0
  186.5050  174.9740  136.5200 C   0  0  0  0  0  0  0  0  0  0  0  0
  187.6980  176.3540  134.9330 C   0  0  0  0  0  3  0  0  0  0  0  0
  184.0070  174.4860  136.7360 C   0  0  1  0  0  3  0  0  0  0  0  0
  184.0850  172.2670  137.2550 C   0  0  0  0  0  3  0  0  0  0  0  0
  185.5190  172.7210  137.1470 C   0  0  0  0  0  3  0  0  0  0  0  0
  185.4000  174.1170  136.8530 N   0  0  0  0  0  0  0  0  0  0  0  0
  183.2260  173.3160  136.8500 O   0  0  0  0  0  0  0  0  0  0  0  0
  183.6530  175.4090  137.8030 N   0  0  0  0  0  2  0  0  0  0  0  0
  182.8500  176.4680  137.2030 C   0  0  0  0  0  2  0  0  0  0  0  0
  183.9580  178.1960  139.7700 N   0  0  0  0  0  0  0  0  0  0  0  0
  185.0210  178.9330  140.4270 C   0  0  0  0  0  1  0  0  0  0  0  0
  184.4690  177.7470  138.5370 N   0  0  0  0  0  2  0  0  0  0  0  0
  182.9320  179.1150  139.4910 N   0  0  0  0  0  2  0  0  0  0  0  0
  182.3250  178.6650  138.2560 C   0  0  0  0  0  2  0  0  0  0  0  0
  183.3820  177.8480  137.5820 C   0  0  2  0  0  3  0  0  0  0  0  0
  189.1230  177.4320  139.1880 C   0  0  0  0  0  2  0  0  0  0  0  0
  189.4320  178.3120  141.5180 C   0  0  0  0  0  2  0  0  0  0  0  0
  190.1050  177.5910  140.3400 C   0  0  1  0  0  3  0  0  0  0  0  0
  189.4650  177.3720  142.7230 C   0  0  1  0  0  3  0  0  0  0  0  0
  190.2880  175.1020  142.8360 O   0  0  0  0  0  0  0  0  0  0  0  0
  190.1060  176.1580  142.1750 C   0  0  0  0  0  0  0  0  0  0  0  0
  190.4910  176.2800  140.8240 N   0  0  0  0  0  2  0  0  0  0  0  0
  190.3280  177.9830  143.8140 C   0  0  0  0  0  2  0  0  0  0  0  0
  189.4950  178.3510  144.9490 N   0  0  0  0  0  2  0  0  0  0  0  0
  188.8880  177.1330  145.4580 C   0  0  1  0  0  3  0  0  0  0  0  0
  189.5590  176.7260  146.6150 O   0  0  0  0  0  1  0  0  0  0  0  0
  187.2030  177.8730  147.1780 C   0  0  0  0  0  2  0  0  0  0  0  0
  187.4040  177.3620  145.7460 C   0  0  1  0  0  3  0  0  0  0  0  0
  186.1140  180.1240  147.3710 C   0  0  0  0  0  1  0  0  0  0  0  0
  184.7960  178.2260  146.3890 C   0  0  0  0  0  2  0  0  0  0  0  0
  185.8810  178.6260  147.3930 C   0  0  1  0  0  3  0  0  0  0  0  0
  186.7560  178.2950  144.7270 C   0  0  0  0  0  2  0  0  0  0  0  0
  185.2370  178.3390  144.9190 C   0  0  2  0  0  3  0  0  0  0  0  0
  183.2900  179.4620  144.1120 O   0  0  0  0  0  1  0  0  0  0  0  0
  184.6650  179.6010  144.2980 C   0  0  0  0  0  2  0  0  0  0  0  0
  190.8240  176.9220  137.5280 N   0  0  0  0  0  2  0  0  0  0  0  0
  192.0270  175.3980  136.1880 C   0  0  0  0  0  2  0  0  0  0  0  0
  193.1260  176.2370  136.7810 C   0  0  1  0  0  0  0  0  0  0  0  0
  193.0170  176.4800  138.2610 C   0  0  0  0  0  2  0  0  0  0  0  0
  191.8270  175.8740  137.5910 C   0  0  1  0  0  0  0  0  0  0  0  0
  194.2860  175.2690  136.7400 C   0  0  0  0  0  2  0  0  0  0  0  0
  195.3310  175.7570  135.7520 C   0  0  0  0  0  2  0  0  0  0  0  0
  196.6290  174.9950  135.9440 C   0  0  0  0  0  2  0  0  0  0  0  0
  197.4690  175.6990  136.8110 O   0  0  0  0  0  0  0  0  0  0  0  0
  198.0150  174.5510  137.9360 P   0  0  0  0  0  0  0  0  0  0  0  0
  198.8070  173.4840  137.2100 O   0  0  0  0  0  0  0  0  0  0  0  0
  199.0080  175.2980  139.0860 O   0  0  0  0  0  1  0  0  0  0  0  0
  196.6970  173.8280  138.7130 O   0  0  0  0  0  1  0  0  0  0  0  0
  1 21  1  1  0  0  0
  2  4  1  0  0  0  0
  2  1  1  0  0  0  0
  3  6  1  0  0  0  0
  5  2  2  0  0  0  0
  6 11  1  0  0  0  0
  6  4  2  0  0  0  0
  7  3  2  0  0  0  0
  7  5  1  0  0  0  0
  8 12  1  0  0  0  0
  8 11  1  0  0  0  0
  8 13  1  1  0  0  0
 10  9  2  0  0  0  0
 11 10  1  0  0  0  0
 12  9  1  0  0  0  0
 14 13  1  0  0  0  0
 15 16  1  0  0  0  0
 17 15  1  0  0  0  0
 18 15  1  0  0  0  0
 19 18  1  0  0  0  0
 20 14  1  1  0  0  0
 20 19  1  0  0  0  0
 20 17  1  0  0  0  0
 22 24  1  0  0  0  0
 23 21  1  6  0  0  0
 23 27  1  0  0  0  0
 23 22  1  0  0  0  0
 24 28  1  1  0  0  0
 26 24  1  0  0  0  0
 26 25  2  0  0  0  0
 27 26  1  0  0  0  0
 28 29  1  0  0  0  0
 29 30  1  0  0  0  0
 30 31  1  1  0  0  0
 32 36  1  0  0  0  0
 33 30  1  6  0  0  0
 33 32  1  0  0  0  0
 35 36  1  0  0  0  0
 36 34  1  6  0  0  0
 37 38  1  0  0  0  0
 37 33  1  0  0  0  0
 38 40  1  1  0  0  0
 38 35  1  0  0  0  0
 39 40  1  0  0  0  0
 41  1  1  0  0  0  0
 42 43  1  0  0  0  0
 42 45  1  0  0  0  0
 43 46  1  1  0  0  0
 43 45  1  0  0  0  0
 43 44  1  0  0  0  0
 45 41  1  6  0  0  0
 45 44  1  0  0  0  0
 47 48  1  0  0  0  0
 47 46  1  0  0  0  0
 48 49  1  0  0  0  0
 49 50  1  0  0  0  0
 50 53  1  0  0  0  0
 50 52  1  0  0  0  0
 51 50  2  0  0  0  0
M  END
>  <MODEL>
2

>  <REMARK>
 VINA RESULT:      -7.4      1.922      2.932
  Name = 
  19 active torsions:
  status: ('A' for Active; 'I' for Inactive)
    1  A    between atoms: C_1  and  C_19
    2  A    between atoms: C_2  and  C_40
    3  A    between atoms: C_2  and  C_45
    4  A    between atoms: C_7  and  C_11
    5  A    between atoms: C_8  and  N_16
    6  A    between atoms: C_11  and  N_48
    7  A    between atoms: O_15  and  P_21
    8  A    between atoms: O_15  and  C_22
    9  A    between atoms: N_16  and  C_53
   10  A    between atoms: C_17  and  C_52
   11  A    between atoms: C_19  and  N_25
   12  A    between atoms: C_19  and  C_52
   13  A    between atoms: C_22  and  C_45
   14  A    between atoms: N_25  and  C_47
   15  A    between atoms: N_29  and  C_30
   16  A    between atoms: C_32  and  C_49
   17  A    between atoms: C_35  and  C_44
   18  A    between atoms: C_46  and  C_53
   19  A    between atoms: N_48  and  C_49
                            x       y       z     vdW  Elec       q    Type
                         _______ _______ _______ _____ _____    ______ ____

>  <TORSDO>
F 19

$$$$
=
 OpenBabel10232409283D

 53 59  0  0  1  0  0  0  0  0999 V2000
  189.6040  177.4310  139.7160 C   0  0  2  0  0  3  0  0  0  0  0  0
  191.0460  177.1260  139.3960 C   0  0  0  0  0  0  0  0  0  0  0  0
  193.7130  176.6590  138.7710 C   0  0  0  0  0  3  0  0  0  0  0  0
  191.3850  176.6150  138.1360 C   0  0  0  0  0  3  0  0  0  0  0  0
  192.0360  177.4110  140.2910 N   0  0  0  0  0  0  0  0  0  0  0  0
  192.7260  176.3690  137.8200 C   0  0  0  0  0  0  0  0  0  0  0  0
  193.3460  177.1860  140.0100 C   0  0  0  0  0  3  0  0  0  0  0  0
  194.2260  174.9660  136.3020 C   0  0  1  0  0  3  0  0  0  0  0  0
  192.9970  175.0170  134.3820 C   0  0  0  0  0  3  0  0  0  0  0  0
  192.2500  175.8670  135.3780 C   0  0  0  0  0  3  0  0  0  0  0  0
  193.0830  175.8180  136.5420 N   0  0  0  0  0  0  0  0  0  0  0  0
  194.0830  174.3790  135.0260 O   0  0  0  0  0  0  0  0  0  0  0  0
  195.4450  175.7580  136.3360 N   0  0  0  0  0  2  0  0  0  0  0  0
  196.5250  174.9030  135.8580 C   0  0  0  0  0  2  0  0  0  0  0  0
  198.0820  175.4790  138.6950 N   0  0  0  0  0  0  0  0  0  0  0  0
  198.1680  175.3320  140.1360 C   0  0  0  0  0  1  0  0  0  0  0  0
  196.9080  174.8180  138.2840 N   0  0  0  0  0  2  0  0  0  0  0  0
  199.1710  174.7830  138.1450 N   0  0  0  0  0  2  0  0  0  0  0  0
  198.7060  174.2590  136.8780 C   0  0  0  0  0  2  0  0  0  0  0  0
  197.2170  174.1870  137.0150 C   0  0  2  0  0  3  0  0  0  0  0  0
  188.9610  178.3820  138.7070 C   0  0  0  0  0  2  0  0  0  0  0  0
  187.6850  178.1930  136.5550 C   0  0  0  0  0  2  0  0  0  0  0  0
  187.7630  177.7410  138.0220 C   0  0  1  0  0  3  0  0  0  0  0  0
  187.7930  176.9480  135.6750 C   0  0  1  0  0  3  0  0  0  0  0  0
  188.1480  174.6550  136.3530 O   0  0  0  0  0  0  0  0  0  0  0  0
  187.9710  175.8630  136.6630 C   0  0  0  0  0  0  0  0  0  0  0  0
  187.9360  176.3020  138.0020 N   0  0  0  0  0  2  0  0  0  0  0  0
  186.4970  176.7610  134.9060 C   0  0  0  0  0  2  0  0  0  0  0  0
  185.4670  177.6240  135.4630 N   0  0  0  0  0  2  0  0  0  0  0  0
  184.2960  176.8000  135.7120 C   0  0  1  0  0  3  0  0  0  0  0  0
  184.6990  175.5430  136.1690 O   0  0  0  0  0  1  0  0  0  0  0  0
  182.2540  176.5290  137.1620 C   0  0  0  0  0  2  0  0  0  0  0  0
  183.3790  177.4780  136.7320 C   0  0  1  0  0  3  0  0  0  0  0  0
  182.1870  175.9840  139.6090 C   0  0  0  0  0  1  0  0  0  0  0  0
  181.7880  178.3560  138.8900 C   0  0  0  0  0  2  0  0  0  0  0  0
  181.6270  176.8790  138.5210 C   0  0  1  0  0  3  0  0  0  0  0  0
  184.1490  178.0090  137.9370 C   0  0  0  0  0  2  0  0  0  0  0  0
  183.2420  178.8570  138.8330 C   0  0  2  0  0  3  0  0  0  0  0  0
  185.0940  179.5050  140.1930 O   0  0  0  0  0  1  0  0  0  0  0  0
  183.8190  178.9440  140.2340 C   0  0  0  0  0  2  0  0  0  0  0  0
  189.4920  178.0040  141.0500 N   0  0  0  0  0  2  0  0  0  0  0  0
  189.8310  176.6670  142.9630 C   0  0  0  0  0  2  0  0  0  0  0  0
  188.6620  177.5200  143.3730 C   0  0  1  0  0  0  0  0  0  0  0  0
  187.5650  177.6380  142.3520 C   0  0  0  0  0  2  0  0  0  0  0  0
  188.8450  177.0170  141.8950 C   0  0  1  0  0  0  0  0  0  0  0  0
  187.9960  176.6300  144.3980 C   0  0  0  0  0  2  0  0  0  0  0  0
  188.2510  177.1710  145.7940 C   0  0  0  0  0  2  0  0  0  0  0  0
  187.0310  177.9210  146.2960 C   0  0  0  0  0  2  0  0  0  0  0  0
  185.9170  177.5880  145.5200 O   0  0  0  0  0  0  0  0  0  0  0  0
  185.0310  179.0280  145.3690 P   0  0  0  0  0  0  0  0  0  0  0  0
  185.6210  180.0720  146.2920 O   0  0  0  0  0  1  0  0  0  0  0  0
  185.1080  179.5860  143.7720 O   0  0  0  0  0  0  0  0  0  0  0  0
  183.4150  178.7620  145.7960 O   0  0  0  0  0  1  0  0  0  0  0  0
  1 21  1  6  0  0  0
  1 41  1  0  0  0  0
  2  1  1  0  0  0  0
  2  5  1  0  0  0  0
  3  7  1  0  0  0  0
  4  2  2  0  0  0  0
  6  4  1  0  0  0  0
  6  3  2  0  0  0  0
  7  5  2  0  0  0  0
  8 13  1  6  0  0  0
  8 11  1  0  0  0  0
  9 12  1  0  0  0  0
  9 10  2  0  0  0  0
 10 11  1  0  0  0  0
 11  6  1  0  0  0  0
 12  8  1  0  0  0  0
 14 13  1  0  0  0  0
 15 16  1  0  0  0  0
 17 15  1  0  0  0  0
 18 15  1  0  0  0  0
 19 20  1  0  0  0  0
 19 18  1  0  0  0  0
 20 14  1  6  0  0  0
 20 17  1  0  0  0  0
 22 23  1  0  0  0  0
 23 21  1  6  0  0  0
 24 28  1  1  0  0  0
 24 22  1  0  0  0  0
 24 26  1  0  0  0  0
 25 26  2  0  0  0  0
 26 27  1  0  0  0  0
 27 23  1  0  0  0  0
 28 29  1  0  0  0  0
 29 30  1  0  0  0  0
 30 31  1  1  0  0  0
 32 36  1  0  0  0  0
 33 30  1  6  0  0  0
 33 32  1  0  0  0  0
 33 37  1  0  0  0  0
 36 35  1  0  0  0  0
 36 34  1  1  0  0  0
 37 38  1  0  0  0  0
 38 35  1  0  0  0  0
 38 40  1  1  0  0  0
 39 40  1  0  0  0  0
 42 43  1  0  0  0  0
 43 46  1  1  0  0  0
 44 43  1  0  0  0  0
 45 41  1  6  0  0  0
 45 44  1  0  0  0  0
 45 42  1  0  0  0  0
 45 43  1  0  0  0  0
 46 47  1  0  0  0  0
 47 48  1  0  0  0  0
 49 48  1  0  0  0  0
 50 49  1  0  0  0  0
 50 53  1  0  0  0  0
 50 51  1  0  0  0  0
 52 50  2  0  0  0  0
M  END
>  <MODEL>
3

>  <REMARK>
 VINA RESULT:      -7.4      3.856     10.207
  Name = 
  19 active torsions:
  status: ('A' for Active; 'I' for Inactive)
    1  A    between atoms: C_1  and  C_19
    2  A    between atoms: C_2  and  C_40
    3  A    between atoms: C_2  and  C_45
    4  A    between atoms: C_7  and  C_11
    5  A    between atoms: C_8  and  N_16
    6  A    between atoms: C_11  and  N_48
    7  A    between atoms: O_15  and  P_21
    8  A    between atoms: O_15  and  C_22
    9  A    between atoms: N_16  and  C_53
   10  A    between atoms: C_17  and  C_52
   11  A    between atoms: C_19  and  N_25
   12  A    between atoms: C_19  and  C_52
   13  A    between atoms: C_22  and  C_45
   14  A    between atoms: N_25  and  C_47
   15  A    between atoms: N_29  and  C_30
   16  A    between atoms: C_32  and  C_49
   17  A    between atoms: C_35  and  C_44
   18  A    between atoms: C_46  and  C_53
   19  A    between atoms: N_48  and  C_49
                            x       y       z     vdW  Elec       q    Type
                         _______ _______ _______ _____ _____    ______ ____

>  <TORSDO>
F 19

$$$$
=
 OpenBabel10232409283D

 53 59  0  0  1  0  0  0  0  0999 V2000
  188.7530  178.1830  140.6390 C   0  0  2  0  0  3  0  0  0  0  0  0
  187.2610  178.4070  140.6220 C   0  0  0  0  0  0  0  0  0  0  0  0
  184.5300  178.9180  140.5870 C   0  0  0  0  0  3  0  0  0  0  0  0
  186.5670  178.5580  141.8300 C   0  0  0  0  0  3  0  0  0  0  0  0
  186.5880  178.5380  139.4420 N   0  0  0  0  0  0  0  0  0  0  0  0
  185.1900  178.8050  141.8180 C   0  0  0  0  0  0  0  0  0  0  0  0
  185.2520  178.7830  139.4010 C   0  0  0  0  0  3  0  0  0  0  0  0
  183.1170  178.4530  143.2680 C   0  0  1  0  0  3  0  0  0  0  0  0
  183.9200  179.1620  145.2800 C   0  0  0  0  0  3  0  0  0  0  0  0
  185.0390  179.3650  144.2890 C   0  0  0  0  0  3  0  0  0  0  0  0
  184.4630  178.9330  143.0510 N   0  0  0  0  0  0  0  0  0  0  0  0
  182.8550  178.4740  144.6540 O   0  0  0  0  0  0  0  0  0  0  0  0
  182.1710  179.3200  142.5830 N   0  0  0  0  0  2  0  0  0  0  0  0
  180.8360  178.8120  142.8750 C   0  0  0  0  0  2  0  0  0  0  0  0
  181.1640  178.2940  139.6450 N   0  0  0  0  0  0  0  0  0  0  0  0
  180.9300  177.4720  138.4720 C   0  0  0  0  0  1  0  0  0  0  0  0
  180.5920  177.6180  140.7410 N   0  0  0  0  0  2  0  0  0  0  0  0
  180.4430  179.4860  139.4630 N   0  0  0  0  0  2  0  0  0  0  0  0
  180.0190  179.8960  140.7840 C   0  0  0  0  0  2  0  0  0  0  0  0
  180.0180  178.6390  141.5970 C   0  0  2  0  0  3  0  0  0  0  0  0
  189.1560  176.8310  140.0510 C   0  0  0  0  0  2  0  0  0  0  0  0
  191.2360  177.0230  138.6610 C   0  0  0  0  0  2  0  0  0  0  0  0
  189.7000  176.9780  138.6380 C   0  0  1  0  0  3  0  0  0  0  0  0
  191.7520  175.8430  137.8380 C   0  0  1  0  0  3  0  0  0  0  0  0
  190.4800  174.0950  136.7570 O   0  0  0  0  0  0  0  0  0  0  0  0
  190.5070  175.1620  137.4250 C   0  0  0  0  0  0  0  0  0  0  0  0
  189.3330  175.8110  137.8600 N   0  0  0  0  0  2  0  0  0  0  0  0
  192.5010  176.3660  136.6240 C   0  0  0  0  0  2  0  0  0  0  0  0
  193.9190  176.4750  136.9320 N   0  0  0  0  0  2  0  0  0  0  0  0
  194.6450  176.3950  135.6760 C   0  0  1  0  0  3  0  0  0  0  0  0
  195.3730  177.5720  135.4820 O   0  0  0  0  0  1  0  0  0  0  0  0
  197.0300  175.6120  135.8810 C   0  0  0  0  0  2  0  0  0  0  0  0
  195.5730  175.1790  135.6780 C   0  0  1  0  0  3  0  0  0  0  0  0
  198.1540  174.6740  137.9180 C   0  0  0  0  0  1  0  0  0  0  0  0
  197.4260  173.0950  136.1070 C   0  0  0  0  0  2  0  0  0  0  0  0
  197.9420  174.5010  136.4270 C   0  0  1  0  0  3  0  0  0  0  0  0
  195.1540  174.1360  136.7100 C   0  0  0  0  0  2  0  0  0  0  0  0
  195.9720  172.8510  136.5470 C   0  0  2  0  0  3  0  0  0  0  0  0
  195.3460  172.7840  138.8500 O   0  0  0  0  0  1  0  0  0  0  0  0
  195.9440  172.0430  137.8320 C   0  0  0  0  0  2  0  0  0  0  0  0
  189.2630  178.2820  142.0000 N   0  0  0  0  0  2  0  0  0  0  0  0
  191.4620  177.6610  142.5860 C   0  0  0  0  0  2  0  0  0  0  0  0
  190.6530  177.0670  143.7070 C   0  0  1  0  0  0  0  0  0  0  0  0
  189.4250  176.3130  143.2800 C   0  0  0  0  0  2  0  0  0  0  0  0
  190.1110  177.1270  142.2320 C   0  0  1  0  0  0  0  0  0  0  0  0
  191.5460  175.9260  144.1380 C   0  0  0  0  0  2  0  0  0  0  0  0
  191.9780  176.1260  145.5800 C   0  0  0  0  0  2  0  0  0  0  0  0
  191.0470  177.1030  146.2750 C   0  0  0  0  0  2  0  0  0  0  0  0
  190.3370  176.4470  147.2850 O   0  0  0  0  0  0  0  0  0  0  0  0
  188.9590  177.3990  147.5540 P   0  0  0  0  0  0  0  0  0  0  0  0
  187.8810  176.5440  148.1860 O   0  0  0  0  0  1  0  0  0  0  0  0
  189.3380  178.6790  148.5960 O   0  0  0  0  0  1  0  0  0  0  0  0
  188.3850  178.0170  146.0870 O   0  0  0  0  0  0  0  0  0  0  0  0
  1 21  1  1  0  0  0
  1 41  1  0  0  0  0
  2  1  1  0  0  0  0
  2  4  1  0  0  0  0
  3  6  1  0  0  0  0
  5  2  2  0  0  0  0
  6  4  2  0  0  0  0
  6 11  1  0  0  0  0
  7  5  1  0  0  0  0
  7  3  2  0  0  0  0
  8 13  1  6  0  0  0
  8 12  1  0  0  0  0
 10  9  2  0  0  0  0
 11  8  1  0  0  0  0
 11 10  1  0  0  0  0
 12  9  1  0  0  0  0
 13 14  1  0  0  0  0
 15 17  1  0  0  0  0
 16 15  1  0  0  0  0
 17 20  1  0  0  0  0
 18 15  1  0  0  0  0
 18 19  1  0  0  0  0
 19 20  1  0  0  0  0
 20 14  1  1  0  0  0
 23 22  1  0  0  0  0
 23 21  1  1  0  0  0
 24 28  1  6  0  0  0
 24 22  1  0  0  0  0
 25 26  2  0  0  0  0
 26 24  1  0  0  0  0
 26 27  1  0  0  0  0
 27 23  1  0  0  0  0
 28 29  1  0  0  0  0
 30 31  1  1  0  0  0
 30 29  1  0  0  0  0
 32 36  1  0  0  0  0
 33 30  1  1  0  0  0
 33 32  1  0  0  0  0
 33 37  1  0  0  0  0
 35 36  1  0  0  0  0
 35 38  1  0  0  0  0
 36 34  1  1  0  0  0
 38 37  1  0  0  0  0
 38 40  1  1  0  0  0
 40 39  1  0  0  0  0
 42 43  1  0  0  0  0
 43 46  1  6  0  0  0
 44 43  1  0  0  0  0
 45 41  1  1  0  0  0
 45 42  1  0  0  0  0
 45 44  1  0  0  0  0
 45 43  1  0  0  0  0
 46 47  1  0  0  0  0
 47 48  1  0  0  0  0
 48 49  1  0  0  0  0
 49 50  1  0  0  0  0
 50 51  1  0  0  0  0
 50 52  1  0  0  0  0
 53 50  2  0  0  0  0
M  END
>  <MODEL>
4

>  <REMARK>
 VINA RESULT:      -7.2      3.291      8.841
  Name = 
  19 active torsions:
  status: ('A' for Active; 'I' for Inactive)
    1  A    between atoms: C_1  and  C_19
    2  A    between atoms: C_2  and  C_40
    3  A    between atoms: C_2  and  C_45
    4  A    between atoms: C_7  and  C_11
    5  A    between atoms: C_8  and  N_16
    6  A    between atoms: C_11  and  N_48
    7  A    between atoms: O_15  and  P_21
    8  A    between atoms: O_15  and  C_22
    9  A    between atoms: N_16  and  C_53
   10  A    between atoms: C_17  and  C_52
   11  A    between atoms: C_19  and  N_25
   12  A    between atoms: C_19  and  C_52
   13  A    between atoms: C_22  and  C_45
   14  A    between atoms: N_25  and  C_47
   15  A    between atoms: N_29  and  C_30
   16  A    between atoms: C_32  and  C_49
   17  A    between atoms: C_35  and  C_44
   18  A    between atoms: C_46  and  C_53
   19  A    between atoms: N_48  and  C_49
                            x       y       z     vdW  Elec       q    Type
                         _______ _______ _______ _____ _____    ______ ____

>  <TORSDO>
F 19

$$$$
=
 OpenBabel10232409283D

 53 59  0  0  1  0  0  0  0  0999 V2000
  189.4620  176.1160  137.2560 C   0  0  2  0  0  3  0  0  0  0  0  0
  188.2280  175.2640  137.0960 C   0  0  0  0  0  0  0  0  0  0  0  0
  185.9680  173.6950  136.7010 C   0  0  0  0  0  3  0  0  0  0  0  0
  186.9800  175.8760  136.9150 C   0  0  0  0  0  3  0  0  0  0  0  0
  188.3190  173.9030  137.0510 N   0  0  0  0  0  0  0  0  0  0  0  0
  185.8380  175.0900  136.7260 C   0  0  0  0  0  0  0  0  0  0  0  0
  187.2280  173.1160  136.8640 C   0  0  0  0  0  3  0  0  0  0  0  0
  184.2610  177.0960  136.8390 C   0  0  1  0  0  3  0  0  0  0  0  0
  182.4050  176.1900  135.8750 C   0  0  0  0  0  3  0  0  0  0  0  0
  183.4280  175.0840  135.9290 C   0  0  0  0  0  3  0  0  0  0  0  0
  184.5490  175.7050  136.5680 N   0  0  0  0  0  0  0  0  0  0  0  0
  183.0010  177.4060  136.2860 O   0  0  0  0  0  0  0  0  0  0  0  0
  184.2270  177.3180  138.2760 N   0  0  0  0  0  2  0  0  0  0  0  0
  184.7760  178.6470  138.5170 C   0  0  0  0  0  2  0  0  0  0  0  0
  183.7810  178.3790  141.6380 N   0  0  0  0  0  0  0  0  0  0  0  0
  183.7800  178.8660  143.0060 C   0  0  0  0  0  1  0  0  0  0  0  0
  184.6080  179.2440  140.8950 N   0  0  0  0  0  2  0  0  0  0  0  0
  182.4720  178.5230  141.1490 N   0  0  0  0  0  2  0  0  0  0  0  0
  182.6090  178.8130  139.7370 C   0  0  0  0  0  2  0  0  0  0  0  0
  183.9840  179.3870  139.5930 C   0  0  2  0  0  3  0  0  0  0  0  0
  189.1520  177.6120  137.2670 C   0  0  0  0  0  2  0  0  0  0  0  0
  188.2030  178.1290  139.5320 C   0  0  0  0  0  2  0  0  0  0  0  0
  189.4410  178.2320  138.6270 C   0  0  1  0  0  3  0  0  0  0  0  0
  188.5880  177.3050  140.7600 C   0  0  1  0  0  3  0  0  0  0  0  0
  190.6900  176.2110  141.2380 O   0  0  0  0  0  0  0  0  0  0  0  0
  189.9940  176.9410  140.4840 C   0  0  0  0  0  0  0  0  0  0  0  0
  190.4940  177.4800  139.2810 N   0  0  0  0  0  2  0  0  0  0  0  0
  188.4960  178.1770  142.0000 C   0  0  0  0  0  2  0  0  0  0  0  0
  187.1950  178.0040  142.6270 N   0  0  0  0  0  2  0  0  0  0  0  0
  187.3530  177.0380  143.7010 C   0  0  1  0  0  3  0  0  0  0  0  0
  187.9790  175.8910  143.2070 O   0  0  0  0  0  1  0  0  0  0  0  0
  187.2920  177.8210  146.0940 C   0  0  0  0  0  2  0  0  0  0  0  0
  188.1640  177.6470  144.8450 C   0  0  1  0  0  3  0  0  0  0  0  0
  188.0640  176.5680  148.1250 C   0  0  0  0  0  1  0  0  0  0  0  0
  189.5260  178.3890  147.2030 C   0  0  0  0  0  2  0  0  0  0  0  0
  188.0880  177.9020  147.4070 C   0  0  1  0  0  3  0  0  0  0  0  0
  189.4220  176.8410  145.1540 C   0  0  0  0  0  2  0  0  0  0  0  0
  190.3130  177.5820  146.1550 C   0  0  2  0  0  3  0  0  0  0  0  0
  192.0070  175.9210  145.8950 O   0  0  0  0  0  1  0  0  0  0  0  0
  191.2530  176.6100  146.8440 C   0  0  0  0  0  2  0  0  0  0  0  0
  190.4130  175.8350  136.1890 N   0  0  0  0  0  2  0  0  0  0  0  0
  191.8610  174.3750  137.3460 C   0  0  0  0  0  2  0  0  0  0  0  0
  192.6460  174.6810  136.0990 C   0  0  1  0  0  0  0  0  0  0  0  0
  192.7000  176.1340  135.7170 C   0  0  0  0  0  2  0  0  0  0  0  0
  191.7320  175.7570  136.7910 C   0  0  1  0  0  0  0  0  0  0  0  0
  194.0610  174.4660  136.5840 C   0  0  0  0  0  2  0  0  0  0  0  0
  194.7660  173.4610  135.6890 C   0  0  0  0  0  2  0  0  0  0  0  0
  196.1830  173.9220  135.4010 C   0  0  0  0  0  2  0  0  0  0  0  0
  197.0120  173.6140  136.4840 O   0  0  0  0  0  0  0  0  0  0  0  0
  197.9610  175.0000  136.7280 P   0  0  0  0  0  0  0  0  0  0  0  0
  197.3010  176.1790  136.0440 O   0  0  0  0  0  0  0  0  0  0  0  0
  198.0970  175.3210  138.3850 O   0  0  0  0  0  1  0  0  0  0  0  0
  199.5020  174.7710  136.0690 O   0  0  0  0  0  1  0  0  0  0  0  0
  1 21  1  6  0  0  0
  2  1  1  0  0  0  0
  3  6  2  0  0  0  0
  3  7  1  0  0  0  0
  4  2  2  0  0  0  0
  5  2  1  0  0  0  0
  6  4  1  0  0  0  0
  7  5  2  0  0  0  0
  8 13  1  1  0  0  0
  9 10  2  0  0  0  0
  9 12  1  0  0  0  0
 10 11  1  0  0  0  0
 11  6  1  0  0  0  0
 11  8  1  0  0  0  0
 12  8  1  0  0  0  0
 13 14  1  0  0  0  0
 15 16  1  0  0  0  0
 17 15  1  0  0  0  0
 18 15  1  0  0  0  0
 19 18  1  0  0  0  0
 20 14  1  6  0  0  0
 20 19  1  0  0  0  0
 20 17  1  0  0  0  0
 22 24  1  0  0  0  0
 23 21  1  6  0  0  0
 23 27  1  0  0  0  0
 23 22  1  0  0  0  0
 24 28  1  1  0  0  0
 26 24  1  0  0  0  0
 26 25  2  0  0  0  0
 27 26  1  0  0  0  0
 28 29  1  0  0  0  0
 29 30  1  0  0  0  0
 30 31  1  6  0  0  0
 32 36  1  0  0  0  0
 33 30  1  6  0  0  0
 33 37  1  0  0  0  0
 33 32  1  0  0  0  0
 35 36  1  0  0  0  0
 36 34  1  6  0  0  0
 37 38  1  0  0  0  0
 38 40  1  1  0  0  0
 38 35  1  0  0  0  0
 39 40  1  0  0  0  0
 41  1  1  0  0  0  0
 43 46  1  1  0  0  0
 43 45  1  0  0  0  0
 43 42  1  0  0  0  0
 44 43  1  0  0  0  0
 44 45  1  0  0  0  0
 45 41  1  6  0  0  0
 45 42  1  0  0  0  0
 47 46  1  0  0  0  0
 48 47  1  0  0  0  0
 48 49  1  0  0  0  0
 49 50  1  0  0  0  0
 50 52  1  0  0  0  0
 51 50  2  0  0  0  0
 53 50  1  0  0  0  0
M  END
>  <MODEL>
5

>  <REMARK>
 VINA RESULT:      -7.2      1.697      2.312
  Name = 
  19 active torsions:
  status: ('A' for Active; 'I' for Inactive)
    1  A    between atoms: C_1  and  C_19
    2  A    between atoms: C_2  and  C_40
    3  A    between atoms: C_2  and  C_45
    4  A    between atoms: C_7  and  C_11
    5  A    between atoms: C_8  and  N_16
    6  A    between atoms: C_11  and  N_48
    7  A    between atoms: O_15  and  P_21
    8  A    between atoms: O_15  and  C_22
    9  A    between atoms: N_16  and  C_53
   10  A    between atoms: C_17  and  C_52
   11  A    between atoms: C_19  and  N_25
   12  A    between atoms: C_19  and  C_52
   13  A    between atoms: C_22  and  C_45
   14  A    between atoms: N_25  and  C_47
   15  A    between atoms: N_29  and  C_30
   16  A    between atoms: C_32  and  C_49
   17  A    between atoms: C_35  and  C_44
   18  A    between atoms: C_46  and  C_53
   19  A    between atoms: N_48  and  C_49
                            x       y       z     vdW  Elec       q    Type
                         _______ _______ _______ _____ _____    ______ ____

>  <TORSDO>
F 19

$$$$
=
 OpenBabel10232409283D

 53 59  0  0  1  0  0  0  0  0999 V2000
  187.0160  177.9900  141.6660 C   0  0  2  0  0  3  0  0  0  0  0  0
  187.9080  178.0280  140.4510 C   0  0  0  0  0  0  0  0  0  0  0  0
  189.5230  178.0020  138.1890 C   0  0  0  0  0  3  0  0  0  0  0  0
  189.2360  177.5910  140.5490 C   0  0  0  0  0  3  0  0  0  0  0  0
  187.4190  178.4120  139.2360 N   0  0  0  0  0  0  0  0  0  0  0  0
  190.0560  177.5860  139.4160 C   0  0  0  0  0  0  0  0  0  0  0  0
  188.1910  178.4120  138.1180 C   0  0  0  0  0  3  0  0  0  0  0  0
  192.2200  176.6810  138.4040 C   0  0  1  0  0  3  0  0  0  0  0  0
  193.6150  176.9130  140.1920 C   0  0  0  0  0  3  0  0  0  0  0  0
  192.2560  177.3660  140.6630 C   0  0  0  0  0  3  0  0  0  0  0  0
  191.4270  177.1670  139.5110 N   0  0  0  0  0  0  0  0  0  0  0  0
  193.5740  176.6630  138.8000 O   0  0  0  0  0  0  0  0  0  0  0  0
  191.8000  175.3330  138.0550 N   0  0  0  0  0  2  0  0  0  0  0  0
  192.0170  175.1750  136.6220 C   0  0  0  0  0  2  0  0  0  0  0  0
  188.8540  175.4380  135.7670 N   0  0  0  0  0  0  0  0  0  0  0  0
  187.8220  175.4440  134.7470 C   0  0  0  0  0  1  0  0  0  0  0  0
  190.0830  175.2400  135.1080 N   0  0  0  0  0  2  0  0  0  0  0  0
  188.6250  174.3130  136.5770 N   0  0  0  0  0  2  0  0  0  0  0  0
  189.9330  173.8630  137.0060 C   0  0  0  0  0  2  0  0  0  0  0  0
  190.8790  174.3910  135.9730 C   0  0  2  0  0  3  0  0  0  0  0  0
  186.6640  179.3830  142.1860 C   0  0  0  0  0  2  0  0  0  0  0  0
  184.5220  178.5890  141.1460 C   0  0  0  0  0  2  0  0  0  0  0  0
  185.1960  179.7110  141.9520 C   0  0  1  0  0  3  0  0  0  0  0  0
  183.3920  178.0150  141.9990 C   0  0  1  0  0  3  0  0  0  0  0  0
  182.7680  178.6010  144.2600 O   0  0  0  0  0  0  0  0  0  0  0  0
  183.4980  178.7920  143.2520 C   0  0  0  0  0  0  0  0  0  0  0  0
  184.5100  179.7730  143.2270 N   0  0  0  0  0  2  0  0  0  0  0  0
  182.0610  178.2820  141.3170 C   0  0  0  0  0  2  0  0  0  0  0  0
  182.1860  178.0450  139.8870 N   0  0  0  0  0  2  0  0  0  0  0  0
  181.9800  176.6250  139.6610 C   0  0  1  0  0  3  0  0  0  0  0  0
  180.6570  176.2910  139.9660 O   0  0  0  0  0  1  0  0  0  0  0  0
  182.8250  177.4960  137.4540 C   0  0  0  0  0  2  0  0  0  0  0  0
  182.3070  176.2670  138.2110 C   0  0  1  0  0  3  0  0  0  0  0  0
  185.1430  177.2840  136.5210 C   0  0  0  0  0  1  0  0  0  0  0  0
  183.3430  175.7770  135.6320 C   0  0  0  0  0  2  0  0  0  0  0  0
  183.6650  177.1570  136.2120 C   0  0  1  0  0  3  0  0  0  0  0  0
  183.2850  175.1000  138.1110 C   0  0  0  0  0  2  0  0  0  0  0  0
  183.4320  174.6340  136.6590 C   0  0  2  0  0  3  0  0  0  0  0  0
  185.2110  173.4460  137.7170 O   0  0  0  0  0  1  0  0  0  0  0  0
  184.7320  173.8710  136.4800 C   0  0  0  0  0  2  0  0  0  0  0  0
  187.6490  177.2290  142.7340 N   0  0  0  0  0  2  0  0  0  0  0  0
  186.5480  177.4220  144.8120 C   0  0  0  0  0  2  0  0  0  0  0  0
  187.9810  177.2260  145.2270 C   0  0  1  0  0  0  0  0  0  0  0  0
  188.9830  178.0650  144.4840 C   0  0  0  0  0  2  0  0  0  0  0  0
  187.5920  178.0390  143.9380 C   0  0  1  0  0  0  0  0  0  0  0  0
  187.9900  177.9070  146.5760 C   0  0  0  0  0  2  0  0  0  0  0  0
  188.3930  176.9150  147.6530 C   0  0  0  0  0  2  0  0  0  0  0  0
  189.9020  176.9060  147.8180 C   0  0  0  0  0  2  0  0  0  0  0  0
  190.4100  175.6500  147.4750 O   0  0  0  0  0  0  0  0  0  0  0  0
  191.9810  175.9440  146.9060 P   0  0  0  0  0  0  0  0  0  0  0  0
  191.9820  177.2200  146.0910 O   0  0  0  0  0  1  0  0  0  0  0  0
  193.0440  176.1150  148.2120 O   0  0  0  0  0  1  0  0  0  0  0  0
  192.4920  174.6620  145.9270 O   0  0  0  0  0  0  0  0  0  0  0  0
  1 21  1  1  0  0  0
  1 41  1  0  0  0  0
  2  4  1  0  0  0  0
  2  1  1  0  0  0  0
  3  6  1  0  0  0  0
  5  2  2  0  0  0  0
  6 11  1  0  0  0  0
  6  4  2  0  0  0  0
  7  3  2  0  0  0  0
  7  5  1  0  0  0  0
  8 13  1  1  0  0  0
  8 12  1  0  0  0  0
  8 11  1  0  0  0  0
  9 10  2  0  0  0  0
 11 10  1  0  0  0  0
 12  9  1  0  0  0  0
 14 13  1  0  0  0  0
 15 18  1  0  0  0  0
 16 15  1  0  0  0  0
 17 15  1  0  0  0  0
 17 20  1  0  0  0  0
 18 19  1  0  0  0  0
 20 14  1  1  0  0  0
 20 19  1  0  0  0  0
 22 23  1  0  0  0  0
 22 24  1  0  0  0  0
 23 21  1  1  0  0  0
 23 27  1  0  0  0  0
 24 28  1  6  0  0  0
 24 26  1  0  0  0  0
 26 25  2  0  0  0  0
 27 26  1  0  0  0  0
 29 28  1  0  0  0  0
 30 29  1  0  0  0  0
 30 31  1  6  0  0  0
 32 33  1  0  0  0  0
 33 30  1  1  0  0  0
 35 36  1  0  0  0  0
 35 38  1  0  0  0  0
 36 34  1  1  0  0  0
 36 32  1  0  0  0  0
 37 33  1  0  0  0  0
 38 40  1  1  0  0  0
 38 37  1  0  0  0  0
 40 39  1  0  0  0  0
 42 43  1  0  0  0  0
 43 46  1  1  0  0  0
 44 43  1  0  0  0  0
 45 41  1  6  0  0  0
 45 44  1  0  0  0  0
 45 42  1  0  0  0  0
 45 43  1  0  0  0  0
 46 47  1  0  0  0  0
 47 48  1  0  0  0  0
 49 48  1  0  0  0  0
 50 49  1  0  0  0  0
 50 52  1  0  0  0  0
 51 50  1  0  0  0  0
 53 50  2  0  0  0  0
M  END
>  <MODEL>
6

>  <REMARK>
 VINA RESULT:      -7.0      2.627      9.266
  Name = 
  19 active torsions:
  status: ('A' for Active; 'I' for Inactive)
    1  A    between atoms: C_1  and  C_19
    2  A    between atoms: C_2  and  C_40
    3  A    between atoms: C_2  and  C_45
    4  A    between atoms: C_7  and  C_11
    5  A    between atoms: C_8  and  N_16
    6  A    between atoms: C_11  and  N_48
    7  A    between atoms: O_15  and  P_21
    8  A    between atoms: O_15  and  C_22
    9  A    between atoms: N_16  and  C_53
   10  A    between atoms: C_17  and  C_52
   11  A    between atoms: C_19  and  N_25
   12  A    between atoms: C_19  and  C_52
   13  A    between atoms: C_22  and  C_45
   14  A    between atoms: N_25  and  C_47
   15  A    between atoms: N_29  and  C_30
   16  A    between atoms: C_32  and  C_49
   17  A    between atoms: C_35  and  C_44
   18  A    between atoms: C_46  and  C_53
   19  A    between atoms: N_48  and  C_49
                            x       y       z     vdW  Elec       q    Type
                         _______ _______ _______ _____ _____    ______ ____

>  <TORSDO>
F 19

$$$$
=
 OpenBabel10232409283D

 53 59  0  0  1  0  0  0  0  0999 V2000
  188.7270  177.0740  136.8120 C   0  0  2  0  0  3  0  0  0  0  0  0
  187.3750  176.8320  136.1880 C   0  0  0  0  0  0  0  0  0  0  0  0
  184.8430  176.4450  135.1090 C   0  0  0  0  0  3  0  0  0  0  0  0
  186.5870  175.7600  136.6300 C   0  0  0  0  0  3  0  0  0  0  0  0
  186.8750  177.6870  135.2500 N   0  0  0  0  0  0  0  0  0  0  0  0
  185.3160  175.5550  136.0830 C   0  0  0  0  0  0  0  0  0  0  0  0
  185.6420  177.5150  134.7050 C   0  0  0  0  0  3  0  0  0  0  0  0
  183.2000  174.5550  137.1050 C   0  0  1  0  0  3  0  0  0  0  0  0
  183.5900  172.3410  136.7250 C   0  0  0  0  0  3  0  0  0  0  0  0
  184.8050  173.0720  136.2130 C   0  0  0  0  0  3  0  0  0  0  0  0
  184.5120  174.4430  136.5080 N   0  0  0  0  0  0  0  0  0  0  0  0
  182.5990  173.2780  137.1030 O   0  0  0  0  0  0  0  0  0  0  0  0
  183.3230  175.0300  138.4750 N   0  0  0  0  0  2  0  0  0  0  0  0
  182.0160  175.5400  138.8700 C   0  0  0  0  0  2  0  0  0  0  0  0
  183.4490  178.3100  139.9110 N   0  0  0  0  0  0  0  0  0  0  0  0
  184.1940  179.5230  139.6320 C   0  0  0  0  0  1  0  0  0  0  0  0
  183.2740  177.6430  138.6830 N   0  0  0  0  0  2  0  0  0  0  0  0
  182.1770  178.7030  140.3610 N   0  0  0  0  0  2  0  0  0  0  0  0
  181.2610  177.6840  139.8930 C   0  0  0  0  0  2  0  0  0  0  0  0
  181.9470  177.0580  138.7200 C   0  0  2  0  0  3  0  0  0  0  0  0
  189.0070  178.5550  137.0630 C   0  0  0  0  0  2  0  0  0  0  0  0
  188.1460  178.3640  139.4130 C   0  0  0  0  0  2  0  0  0  0  0  0
  189.3170  178.8230  138.5290 C   0  0  1  0  0  3  0  0  0  0  0  0
  188.6720  177.2910  140.3650 C   0  0  1  0  0  3  0  0  0  0  0  0
  190.8850  176.3260  140.4690 O   0  0  0  0  0  0  0  0  0  0  0  0
  190.0860  177.1550  139.9580 C   0  0  0  0  0  0  0  0  0  0  0  0
  190.4680  178.0360  138.9260 N   0  0  0  0  0  2  0  0  0  0  0  0
  188.5750  177.7950  141.7950 C   0  0  0  0  0  2  0  0  0  0  0  0
  188.6760  176.6760  142.7180 N   0  0  0  0  0  2  0  0  0  0  0  0
  189.4790  177.1140  143.8480 C   0  0  1  0  0  3  0  0  0  0  0  0
  189.8340  178.4540  143.6750 O   0  0  0  0  0  1  0  0  0  0  0  0
  189.6580  176.9230  146.3530 C   0  0  0  0  0  2  0  0  0  0  0  0
  188.7040  176.9230  145.1530 C   0  0  1  0  0  3  0  0  0  0  0  0
  189.2480  178.7240  148.0500 C   0  0  0  0  0  1  0  0  0  0  0  0
  187.4820  176.9760  147.6950 C   0  0  0  0  0  2  0  0  0  0  0  0
  188.9830  177.2760  147.6880 C   0  0  1  0  0  3  0  0  0  0  0  0
  187.5970  177.9590  145.3230 C   0  0  0  0  0  2  0  0  0  0  0  0
  186.7130  177.6190  146.5270 C   0  0  2  0  0  3  0  0  0  0  0  0
  184.5990  178.6420  146.9580 O   0  0  0  0  0  1  0  0  0  0  0  0
  185.9760  178.8570  147.0060 C   0  0  0  0  0  2  0  0  0  0  0  0
  189.7790  176.5260  135.9670 N   0  0  0  0  0  2  0  0  0  0  0  0
  190.0900  174.1880  135.9130 C   0  0  0  0  0  2  0  0  0  0  0  0
  191.5030  174.7000  135.8520 C   0  0  1  0  0  0  0  0  0  0  0  0
  191.8350  175.7830  136.8390 C   0  0  0  0  0  2  0  0  0  0  0  0
  190.3910  175.4280  136.6920 C   0  0  1  0  0  0  0  0  0  0  0  0
  192.2610  173.5360  136.4480 C   0  0  0  0  0  2  0  0  0  0  0  0
  193.3450  173.0790  135.4870 C   0  0  0  0  0  2  0  0  0  0  0  0
  194.6950  173.0850  136.1800 C   0  0  0  0  0  2  0  0  0  0  0  0
  194.9740  174.3670  136.6640 O   0  0  0  0  0  0  0  0  0  0  0  0
  195.7620  174.1230  138.1470 P   0  0  0  0  0  0  0  0  0  0  0  0
  197.2590  174.1860  137.9290 O   0  0  0  0  0  0  0  0  0  0  0  0
  195.3070  175.3280  139.2460 O   0  0  0  0  0  1  0  0  0  0  0  0
  195.3580  172.6050  138.7760 O   0  0  0  0  0  1  0  0  0  0  0  0
  1 21  1  6  0  0  0
  2  4  1  0  0  0  0
  2  1  1  0  0  0  0
  3  6  1  0  0  0  0
  5  2  2  0  0  0  0
  6 11  1  0  0  0  0
  6  4  2  0  0  0  0
  7  3  2  0  0  0  0
  7  5  1  0  0  0  0
  8 13  1  1  0  0  0
  9 12  1  0  0  0  0
 10 11  1  0  0  0  0
 10  9  2  0  0  0  0
 11  8  1  0  0  0  0
 12  8  1  0  0  0  0
 13 14  1  0  0  0  0
 15 18  1  0  0  0  0
 16 15  1  0  0  0  0
 17 20  1  0  0  0  0
 17 15  1  0  0  0  0
 19 18  1  0  0  0  0
 20 14  1  1  0  0  0
 20 19  1  0  0  0  0
 22 24  1  0  0  0  0
 23 21  1  6  0  0  0
 23 27  1  0  0  0  0
 23 22  1  0  0  0  0
 24 28  1  1  0  0  0
 26 24  1  0  0  0  0
 26 25  2  0  0  0  0
 27 26  1  0  0  0  0
 28 29  1  0  0  0  0
 29 30  1  0  0  0  0
 30 31  1  6  0  0  0
 32 36  1  0  0  0  0
 33 30  1  6  0  0  0
 33 37  1  0  0  0  0
 33 32  1  0  0  0  0
 36 35  1  0  0  0  0
 36 34  1  6  0  0  0
 37 38  1  0  0  0  0
 38 40  1  1  0  0  0
 38 35  1  0  0  0  0
 39 40  1  0  0  0  0
 41  1  1  0  0  0  0
 42 45  1  0  0  0  0
 43 42  1  0  0  0  0
 43 46  1  1  0  0  0
 43 45  1  0  0  0  0
 43 44  1  0  0  0  0
 45 41  1  6  0  0  0
 45 44  1  0  0  0  0
 47 48  1  0  0  0  0
 47 46  1  0  0  0  0
 48 49  1  0  0  0  0
 49 50  1  0  0  0  0
 50 53  1  0  0  0  0
 50 52  1  0  0  0  0
 51 50  2  0  0  0  0
M  END
>  <MODEL>
7

>  <REMARK>
 VINA RESULT:      -7.0      1.334      2.034
  Name = 
  19 active torsions:
  status: ('A' for Active; 'I' for Inactive)
    1  A    between atoms: C_1  and  C_19
    2  A    between atoms: C_2  and  C_40
    3  A    between atoms: C_2  and  C_45
    4  A    between atoms: C_7  and  C_11
    5  A    between atoms: C_8  and  N_16
    6  A    between atoms: C_11  and  N_48
    7  A    between atoms: O_15  and  P_21
    8  A    between atoms: O_15  and  C_22
    9  A    between atoms: N_16  and  C_53
   10  A    between atoms: C_17  and  C_52
   11  A    between atoms: C_19  and  N_25
   12  A    between atoms: C_19  and  C_52
   13  A    between atoms: C_22  and  C_45
   14  A    between atoms: N_25  and  C_47
   15  A    between atoms: N_29  and  C_30
   16  A    between atoms: C_32  and  C_49
   17  A    between atoms: C_35  and  C_44
   18  A    between atoms: C_46  and  C_53
   19  A    between atoms: N_48  and  C_49
                            x       y       z     vdW  Elec       q    Type
                         _______ _______ _______ _____ _____    ______ ____

>  <TORSDO>
F 19

$$$$
=
 OpenBabel10232409283D

 53 59  0  0  1  0  0  0  0  0999 V2000
  187.4940  177.6810  141.8720 C   0  0  2  0  0  3  0  0  0  0  0  0
  188.7390  177.4910  141.0430 C   0  0  0  0  0  0  0  0  0  0  0  0
  191.0450  177.2410  139.5120 C   0  0  0  0  0  3  0  0  0  0  0  0
  188.6460  177.4700  139.6450 C   0  0  0  0  0  3  0  0  0  0  0  0
  189.9670  177.4140  141.6330 N   0  0  0  0  0  0  0  0  0  0  0  0
  189.8030  177.3340  138.8700 C   0  0  0  0  0  0  0  0  0  0  0  0
  191.1070  177.2860  140.9050 C   0  0  0  0  0  3  0  0  0  0  0  0
  190.1630  176.1730  136.6230 C   0  0  1  0  0  3  0  0  0  0  0  0
  189.0770  177.6330  135.2490 C   0  0  0  0  0  3  0  0  0  0  0  0
  188.9950  178.2240  136.6340 C   0  0  0  0  0  3  0  0  0  0  0  0
  189.7170  177.2820  137.4360 N   0  0  0  0  0  0  0  0  0  0  0  0
  189.6450  176.3390  135.3210 O   0  0  0  0  0  0  0  0  0  0  0  0
  191.6160  176.1590  136.5680 N   0  0  0  0  0  2  0  0  0  0  0  0
  192.0080  174.9020  135.9420 C   0  0  0  0  0  2  0  0  0  0  0  0
  194.7680  174.1170  137.5450 N   0  0  0  0  0  0  0  0  0  0  0  0
  195.5040  173.9680  138.7870 C   0  0  0  0  0  1  0  0  0  0  0  0
  193.4800  174.5760  137.8820 N   0  0  0  0  0  2  0  0  0  0  0  0
  194.6270  172.8320  136.9950 N   0  0  0  0  0  2  0  0  0  0  0  0
  193.3510  172.8350  136.3100 C   0  0  0  0  0  2  0  0  0  0  0  0
  192.5610  173.9190  136.9720 C   0  0  2  0  0  3  0  0  0  0  0  0
  187.1930  179.1510  142.1610 C   0  0  0  0  0  2  0  0  0  0  0  0
  185.1500  178.3630  140.9350 C   0  0  0  0  0  2  0  0  0  0  0  0
  185.8120  179.5470  141.6580 C   0  0  1  0  0  3  0  0  0  0  0  0
  183.8600  178.0210  141.6810 C   0  0  1  0  0  3  0  0  0  0  0  0
  182.9870  179.0100  143.7060 O   0  0  0  0  0  0  0  0  0  0  0  0
  183.8670  178.9800  142.8050 C   0  0  0  0  0  0  0  0  0  0  0  0
  184.9640  179.8660  142.7900 N   0  0  0  0  0  2  0  0  0  0  0  0
  182.6710  178.2740  140.7710 C   0  0  0  0  0  2  0  0  0  0  0  0
  182.4240  177.1000  139.9470 N   0  0  0  0  0  2  0  0  0  0  0  0
  182.1620  177.5630  138.5950 C   0  0  1  0  0  3  0  0  0  0  0  0
  182.8520  178.7570  138.3690 O   0  0  0  0  0  1  0  0  0  0  0  0
  183.3310  177.1340  136.4060 C   0  0  0  0  0  2  0  0  0  0  0  0
  182.5790  176.4970  137.5810 C   0  0  1  0  0  3  0  0  0  0  0  0
  185.6800  176.3210  136.0690 C   0  0  0  0  0  1  0  0  0  0  0  0
  183.7880  174.6970  135.7750 C   0  0  0  0  0  2  0  0  0  0  0  0
  184.2360  176.1560  135.6400 C   0  0  1  0  0  3  0  0  0  0  0  0
  183.3950  175.3790  138.2220 C   0  0  0  0  0  2  0  0  0  0  0  0
  183.6190  174.2310  137.2320 C   0  0  2  0  0  3  0  0  0  0  0  0
  185.3790  172.7720  136.5450 O   0  0  0  0  0  1  0  0  0  0  0  0
  184.8150  173.3970  137.6550 C   0  0  0  0  0  2  0  0  0  0  0  0
  187.6120  176.9620  143.1340 N   0  0  0  0  0  2  0  0  0  0  0  0
  186.2710  177.4180  145.0200 C   0  0  0  0  0  2  0  0  0  0  0  0
  187.6420  177.2950  145.6260 C   0  0  1  0  0  0  0  0  0  0  0  0
  188.7300  178.0390  144.9030 C   0  0  0  0  0  2  0  0  0  0  0  0
  187.4150  177.9250  144.2030 C   0  0  1  0  0  0  0  0  0  0  0  0
  187.4920  178.1500  146.8630 C   0  0  0  0  0  2  0  0  0  0  0  0
  188.0410  177.4110  148.0710 C   0  0  0  0  0  2  0  0  0  0  0  0
  189.5590  177.4330  148.0530 C   0  0  0  0  0  2  0  0  0  0  0  0
  190.0460  176.2070  147.5910 O   0  0  0  0  0  0  0  0  0  0  0  0
  191.6810  176.4840  147.2270 P   0  0  0  0  0  0  0  0  0  0  0  0
  192.3220  177.2390  148.3720 O   0  0  0  0  0  1  0  0  0  0  0  0
  192.4820  175.0080  147.0140 O   0  0  0  0  0  1  0  0  0  0  0  0
  191.8120  177.4060  145.8150 O   0  0  0  0  0  0  0  0  0  0  0  0
  1 21  1  1  0  0  0
  1 41  1  0  0  0  0
  2  5  1  0  0  0  0
  2  1  1  0  0  0  0
  3  7  1  0  0  0  0
  4  2  2  0  0  0  0
  6  3  2  0  0  0  0
  6  4  1  0  0  0  0
  7  5  2  0  0  0  0
  8 13  1  6  0  0  0
  8 11  1  0  0  0  0
  9 12  1  0  0  0  0
  9 10  2  0  0  0  0
 10 11  1  0  0  0  0
 11  6  1  0  0  0  0
 12  8  1  0  0  0  0
 14 13  1  0  0  0  0
 15 17  1  0  0  0  0
 15 16  1  0  0  0  0
 18 15  1  0  0  0  0
 19 20  1  0  0  0  0
 19 18  1  0  0  0  0
 20 14  1  6  0  0  0
 20 17  1  0  0  0  0
 22 23  1  0  0  0  0
 22 24  1  0  0  0  0
 23 21  1  1  0  0  0
 23 27  1  0  0  0  0
 24 28  1  6  0  0  0
 24 26  1  0  0  0  0
 26 25  2  0  0  0  0
 27 26  1  0  0  0  0
 29 28  1  0  0  0  0
 30 31  1  6  0  0  0
 30 29  1  0  0  0  0
 32 33  1  0  0  0  0
 33 37  1  0  0  0  0
 33 30  1  1  0  0  0
 35 38  1  0  0  0  0
 36 35  1  0  0  0  0
 36 34  1  1  0  0  0
 36 32  1  0  0  0  0
 38 40  1  1  0  0  0
 38 37  1  0  0  0  0
 39 40  1  0  0  0  0
 42 43  1  0  0  0  0
 43 46  1  1  0  0  0
 44 43  1  0  0  0  0
 45 41  1  6  0  0  0
 45 44  1  0  0  0  0
 45 42  1  0  0  0  0
 45 43  1  0  0  0  0
 46 47  1  0  0  0  0
 48 47  1  0  0  0  0
 49 48  1  0  0  0  0
 50 49  1  0  0  0  0
 50 51  1  0  0  0  0
 52 50  1  0  0  0  0
 53 50  2  0  0  0  0
M  END
>  <MODEL>
8

>  <REMARK>
 VINA RESULT:      -7.0      2.966      9.457
  Name = 
  19 active torsions:
  status: ('A' for Active; 'I' for Inactive)
    1  A    between atoms: C_1  and  C_19
    2  A    between atoms: C_2  and  C_40
    3  A    between atoms: C_2  and  C_45
    4  A    between atoms: C_7  and  C_11
    5  A    between atoms: C_8  and  N_16
    6  A    between atoms: C_11  and  N_48
    7  A    between atoms: O_15  and  P_21
    8  A    between atoms: O_15  and  C_22
    9  A    between atoms: N_16  and  C_53
   10  A    between atoms: C_17  and  C_52
   11  A    between atoms: C_19  and  N_25
   12  A    between atoms: C_19  and  C_52
   13  A    between atoms: C_22  and  C_45
   14  A    between atoms: N_25  and  C_47
   15  A    between atoms: N_29  and  C_30
   16  A    between atoms: C_32  and  C_49
   17  A    between atoms: C_35  and  C_44
   18  A    between atoms: C_46  and  C_53
   19  A    between atoms: N_48  and  C_49
                            x       y       z     vdW  Elec       q    Type
                         _______ _______ _______ _____ _____    ______ ____

>  <TORSDO>
F 19

$$$$
=
 OpenBabel10232409283D

 53 59  0  0  1  0  0  0  0  0999 V2000
  184.4860  179.1040  138.8040 C   0  0  2  0  0  3  0  0  0  0  0  0
  183.0670  178.7680  138.4180 C   0  0  0  0  0  0  0  0  0  0  0  0
  180.4480  178.0880  137.7860 C   0  0  0  0  0  3  0  0  0  0  0  0
  182.8170  177.6840  137.5660 C   0  0  0  0  0  3  0  0  0  0  0  0
  182.0170  179.4600  138.9470 N   0  0  0  0  0  0  0  0  0  0  0  0
  181.5000  177.3440  137.2370 C   0  0  0  0  0  0  0  0  0  0  0  0
  180.7280  179.1490  138.6490 C   0  0  0  0  0  3  0  0  0  0  0  0
  180.8140  174.9320  136.7530 C   0  0  1  0  0  3  0  0  0  0  0  0
  180.6860  175.0090  134.4780 C   0  0  0  0  0  3  0  0  0  0  0  0
  181.1440  176.3780  134.9170 C   0  0  0  0  0  3  0  0  0  0  0  0
  181.2330  176.2530  136.3410 N   0  0  0  0  0  0  0  0  0  0  0  0
  180.3550  174.2350  135.6150 O   0  0  0  0  0  0  0  0  0  0  0  0
  181.9410  174.2200  137.3350 N   0  0  0  0  0  2  0  0  0  0  0  0
  181.8200  172.8240  136.9320 C   0  0  0  0  0  2  0  0  0  0  0  0
  185.0000  173.2790  136.2360 N   0  0  0  0  0  0  0  0  0  0  0  0
  186.3840  173.3600  136.6670 C   0  0  0  0  0  1  0  0  0  0  0  0
  184.2270  173.0240  137.3860 N   0  0  0  0  0  2  0  0  0  0  0  0
  184.8950  172.1540  135.4010 N   0  0  0  0  0  2  0  0  0  0  0  0
  183.5660  171.6240  135.6180 C   0  0  0  0  0  2  0  0  0  0  0  0
  183.1720  172.1160  136.9760 C   0  0  2  0  0  3  0  0  0  0  0  0
  185.4190  177.8950  138.7430 C   0  0  0  0  0  2  0  0  0  0  0  0
  187.8840  177.5600  139.0670 C   0  0  0  0  0  2  0  0  0  0  0  0
  186.8040  178.2830  138.2480 C   0  0  1  0  0  3  0  0  0  0  0  0
  188.7000  176.6960  138.1060 C   0  0  1  0  0  3  0  0  0  0  0  0
  188.3660  176.3570  135.7360 O   0  0  0  0  0  0  0  0  0  0  0  0
  188.0310  176.9270  136.8090 C   0  0  0  0  0  0  0  0  0  0  0  0
  186.9620  177.8440  136.8760 N   0  0  0  0  0  2  0  0  0  0  0  0
  190.1310  177.2030  138.0660 C   0  0  0  0  0  2  0  0  0  0  0  0
  190.3980  178.0170  139.2420 N   0  0  0  0  0  2  0  0  0  0  0  0
  191.1900  177.2130  140.1580 C   0  0  1  0  0  3  0  0  0  0  0  0
  192.5380  177.2930  139.8010 O   0  0  0  0  0  1  0  0  0  0  0  0
  189.4940  177.9350  141.8750 C   0  0  0  0  0  2  0  0  0  0  0  0
  190.9820  177.6910  141.5960 C   0  0  1  0  0  3  0  0  0  0  0  0
  188.5050  176.5460  143.7150 C   0  0  0  0  0  1  0  0  0  0  0  0
  190.3030  178.2020  144.2870 C   0  0  0  0  0  2  0  0  0  0  0  0
  189.1210  177.8860  143.3650 C   0  0  1  0  0  3  0  0  0  0  0  0
  191.5880  176.7310  142.6150 C   0  0  0  0  0  2  0  0  0  0  0  0
  191.5470  177.3340  144.0230 C   0  0  2  0  0  3  0  0  0  0  0  0
  191.9740  176.7880  146.3080 O   0  0  0  0  0  1  0  0  0  0  0  0
  191.6490  176.2380  145.0680 C   0  0  0  0  0  2  0  0  0  0  0  0
  184.5250  179.6680  140.1460 N   0  0  0  0  0  2  0  0  0  0  0  0
  186.1040  179.1650  141.8250 C   0  0  0  0  0  2  0  0  0  0  0  0
  184.7990  179.0210  142.5610 C   0  0  1  0  0  0  0  0  0  0  0  0
  183.7410  178.2330  141.8400 C   0  0  0  0  0  2  0  0  0  0  0  0
  184.9510  178.6140  141.0490 C   0  0  1  0  0  0  0  0  0  0  0  0
  185.1840  178.0450  143.6490 C   0  0  0  0  0  2  0  0  0  0  0  0
  184.9580  178.6760  145.0120 C   0  0  0  0  0  2  0  0  0  0  0  0
  186.2580  178.7080  145.7950 C   0  0  0  0  0  2  0  0  0  0  0  0
  186.5290  177.4400  146.3180 O   0  0  0  0  0  0  0  0  0  0  0  0
  187.8490  177.6600  147.3610 P   0  0  0  0  0  0  0  0  0  0  0  0
  188.7070  178.7940  146.8420 O   0  0  0  0  0  0  0  0  0  0  0  0
  187.2980  178.0420  148.9150 O   0  0  0  0  0  1  0  0  0  0  0  0
  188.7800  176.2480  147.4240 O   0  0  0  0  0  1  0  0  0  0  0  0
  1 21  1  1  0  0  0
  1 41  1  0  0  0  0
  2  1  1  0  0  0  0
  2  5  1  0  0  0  0
  3  7  1  0  0  0  0
  4  2  2  0  0  0  0
  6  4  1  0  0  0  0
  6  3  2  0  0  0  0
  7  5  2  0  0  0  0
  8 13  1  6  0  0  0
  9 10  2  0  0  0  0
  9 12  1  0  0  0  0
 10 11  1  0  0  0  0
 11  8  1  0  0  0  0
 11  6  1  0  0  0  0
 12  8  1  0  0  0  0
 14 13  1  0  0  0  0
 15 16  1  0  0  0  0
 15 17  1  0  0  0  0
 18 19  1  0  0  0  0
 18 15  1  0  0  0  0
 19 20  1  0  0  0  0
 20 14  1  6  0  0  0
 20 17  1  0  0  0  0
 23 21  1  1  0  0  0
 23 22  1  0  0  0  0
 24 28  1  6  0  0  0
 24 22  1  0  0  0  0
 25 26  2  0  0  0  0
 26 27  1  0  0  0  0
 26 24  1  0  0  0  0
 27 23  1  0  0  0  0
 28 29  1  0  0  0  0
 29 30  1  0  0  0  0
 30 31  1  6  0  0  0
 32 36  1  0  0  0  0
 33 30  1  6  0  0  0
 33 32  1  0  0  0  0
 33 37  1  0  0  0  0
 36 34  1  1  0  0  0
 36 35  1  0  0  0  0
 37 38  1  0  0  0  0
 38 35  1  0  0  0  0
 38 40  1  1  0  0  0
 40 39  1  0  0  0  0
 42 43  1  0  0  0  0
 43 46  1  1  0  0  0
 44 43  1  0  0  0  0
 45 41  1  6  0  0  0
 45 42  1  0  0  0  0
 45 44  1  0  0  0  0
 45 43  1  0  0  0  0
 46 47  1  0  0  0  0
 47 48  1  0  0  0  0
 48 49  1  0  0  0  0
 49 50  1  0  0  0  0
 50 53  1  0  0  0  0
 50 52  1  0  0  0  0
 51 50  2  0  0  0  0
M  END
>  <MODEL>
9

>  <REMARK>
 VINA RESULT:      -6.9      3.161      7.260
  Name = 
  19 active torsions:
  status: ('A' for Active; 'I' for Inactive)
    1  A    between atoms: C_1  and  C_19
    2  A    between atoms: C_2  and  C_40
    3  A    between atoms: C_2  and  C_45
    4  A    between atoms: C_7  and  C_11
    5  A    between atoms: C_8  and  N_16
    6  A    between atoms: C_11  and  N_48
    7  A    between atoms: O_15  and  P_21
    8  A    between atoms: O_15  and  C_22
    9  A    between atoms: N_16  and  C_53
   10  A    between atoms: C_17  and  C_52
   11  A    between atoms: C_19  and  N_25
   12  A    between atoms: C_19  and  C_52
   13  A    between atoms: C_22  and  C_45
   14  A    between atoms: N_25  and  C_47
   15  A    between atoms: N_29  and  C_30
   16  A    between atoms: C_32  and  C_49
   17  A    between atoms: C_35  and  C_44
   18  A    between atoms: C_46  and  C_53
   19  A    between atoms: N_48  and  C_49
                            x       y       z     vdW  Elec       q    Type
                         _______ _______ _______ _____ _____    ______ ____

>  <TORSDO>
F 19

$$$$
