=
 OpenBabel10232409193D

 30 31  0  0  1  0  0  0  0  0999 V2000
  187.1020  178.6010  140.6100 C   0  0  0  0  0  2  0  0  0  0  0  0
  189.7240  177.1570  142.3540 C   0  0  0  0  0  0  0  0  0  0  0  0
  189.8570  177.5960  139.8610 C   0  0  0  0  0  0  0  0  0  0  0  0
  188.2110  178.7610  141.3100 C   0  0  0  0  0  2  0  0  0  0  0  0
  189.6540  178.4040  138.9120 O   0  0  0  0  0  0  0  0  0  0  0  0
  186.4990  177.5240  143.0930 C   0  0  0  0  0  0  0  0  0  0  0  0
  185.8630  179.0860  141.2760 C   0  0  0  0  0  2  0  0  0  0  0  0
  185.5380  178.1790  142.4600 C   0  0  0  0  0  0  0  0  0  0  0  0
  189.2930  177.8600  141.1640 N   0  0  0  0  0  0  0  0  0  0  0  0
  188.9200  176.7840  143.3850 C   0  0  0  0  0  3  0  0  0  0  0  0
  187.4610  176.8820  143.7170 C   0  0  0  0  0  3  0  0  0  0  0  0
  182.1340  178.7180  144.2480 C   0  0  0  0  0  1  0  0  0  0  0  0
  183.5340  178.9930  143.8310 C   0  0  0  0  0  0  0  0  0  0  0  0
  184.2010  178.0680  142.9650 N   0  0  0  0  0  2  0  0  0  0  0  0
  184.1060  180.0370  144.2400 O   0  0  0  0  0  0  0  0  0  0  0  0
  191.1780  176.8580  142.5290 C   0  0  0  0  0  2  0  0  0  0  0  0
  191.4810  176.5480  143.9570 C   0  0  0  0  0  0  0  0  0  0  0  0
  191.9240  175.3590  144.3910 N   0  0  0  0  0  0  0  0  0  0  0  0
  191.7560  176.6790  146.0970 C   0  0  0  0  0  3  0  0  0  0  0  0
  191.3550  177.4330  145.0060 C   0  0  0  0  0  3  0  0  0  0  0  0
  192.0770  175.4770  145.6740 O   0  0  0  0  0  0  0  0  0  0  0  0
  190.6130  176.3300  139.5850 C   0  0  0  0  0  2  0  0  0  0  0  0
  192.9360  176.9860  139.2370 N   0  0  0  0  0  1  0  0  0  0  0  0
  191.7230  176.5420  138.5680 C   0  0  1  0  0  3  0  0  0  0  0  0
  191.9890  175.2320  137.8440 C   0  0  0  0  0  2  0  0  0  0  0  0
  193.2750  175.3030  137.0370 C   0  0  0  0  0  2  0  0  0  0  0  0
  194.1970  174.2700  137.4800 N   0  0  0  0  0  2  0  0  0  0  0  0
  195.7820  174.2900  139.1350 C   0  0  0  0  0  1  0  0  0  0  0  0
  196.3910  174.6000  136.9090 C   0  0  0  0  0  1  0  0  0  0  0  0
  195.3700  174.9180  137.8910 N   0  0  0  0  0  0  0  0  0  0  0  0
  1  7  1  0  0  0  0
  1  4  1  0  0  0  0
  2 16  1  0  0  0  0
  2 10  2  0  0  0  0
  3  9  1  0  0  0  0
  5  3  2  0  0  0  0
  6 11  2  0  0  0  0
  7  8  1  0  0  0  0
  8 14  1  0  0  0  0
  8  6  2  0  0  0  0
  9  4  1  0  0  0  0
  9  2  1  0  0  0  0
 10 11  1  0  0  0  0
 13 15  2  0  0  0  0
 13 12  1  0  0  0  0
 14 13  1  0  0  0  0
 16 17  1  0  0  0  0
 17 18  2  0  0  0  0
 17 20  1  0  0  0  0
 18 21  1  0  0  0  0
 20 19  2  0  0  0  0
 21 19  1  0  0  0  0
 22  3  1  0  0  0  0
 24 23  1  1  0  0  0
 24 22  1  0  0  0  0
 25 24  1  0  0  0  0
 26 27  1  0  0  0  0
 26 25  1  0  0  0  0
 27 30  1  0  0  0  0
 29 30  1  0  0  0  0
 30 28  1  0  0  0  0
M  END
>  <MODEL>
1

>  <REMARK>
 VINA RESULT:      -7.4      0.000      0.000
  Name = 
  9 active torsions:
  status: ('A' for Active; 'I' for Inactive)
    1  A    between atoms: C_2  and  C_19
    2  A    between atoms: C_3  and  C_22
    3  A    between atoms: C_5  and  N_11
    4  A    between atoms: C_5  and  C_15
    5  A    between atoms: C_8  and  C_19
    6  A    between atoms: N_11  and  N_26
    7  A    between atoms: N_14  and  C_18
    8  A    between atoms: C_15  and  C_17
    9  A    between atoms: C_17  and  C_22
                            x       y       z     vdW  Elec       q    Type
                         _______ _______ _______ _____ _____    ______ ____

>  <TORSDO>
F 9

$$$$
=
 OpenBabel10232409193D

 30 31  0  0  1  0  0  0  0  0999 V2000
  187.0650  178.6070  140.6300 C   0  0  0  0  0  2  0  0  0  0  0  0
  189.6830  177.1920  142.4030 C   0  0  0  0  0  0  0  0  0  0  0  0
  189.8250  177.5980  139.9040 C   0  0  0  0  0  0  0  0  0  0  0  0
  188.1710  178.7790  141.3320 C   0  0  0  0  0  2  0  0  0  0  0  0
  189.6240  178.3920  138.9440 O   0  0  0  0  0  0  0  0  0  0  0  0
  186.4550  177.5630  143.1260 C   0  0  0  0  0  0  0  0  0  0  0  0
  185.8230  179.1000  141.2850 C   0  0  0  0  0  2  0  0  0  0  0  0
  185.4950  178.2080  142.4800 C   0  0  0  0  0  0  0  0  0  0  0  0
  189.2560  177.8780  141.2010 N   0  0  0  0  0  0  0  0  0  0  0  0
  188.8760  176.8320  143.4360 C   0  0  0  0  0  3  0  0  0  0  0  0
  187.4160  176.9320  143.7620 C   0  0  0  0  0  3  0  0  0  0  0  0
  182.0840  178.7640  144.2500 C   0  0  0  0  0  1  0  0  0  0  0  0
  183.4850  179.0370  143.8340 C   0  0  0  0  0  0  0  0  0  0  0  0
  184.1560  178.1010  142.9820 N   0  0  0  0  0  2  0  0  0  0  0  0
  184.0550  180.0850  144.2330 O   0  0  0  0  0  0  0  0  0  0  0  0
  191.1370  176.8980  142.5870 C   0  0  0  0  0  2  0  0  0  0  0  0
  191.4690  176.7880  144.0380 C   0  0  0  0  0  0  0  0  0  0  0  0
  191.5140  177.8310  144.8800 N   0  0  0  0  0  0  0  0  0  0  0  0
  191.9850  176.0390  145.9990 C   0  0  0  0  0  3  0  0  0  0  0  0
  191.7620  175.6150  144.6990 C   0  0  0  0  0  3  0  0  0  0  0  0
  191.8250  177.3430  146.0420 O   0  0  0  0  0  0  0  0  0  0  0  0
  190.5830  176.3290  139.6480 C   0  0  0  0  0  2  0  0  0  0  0  0
  192.8850  176.8100  139.0030 N   0  0  0  0  0  1  0  0  0  0  0  0
  191.5630  176.4770  138.4950 C   0  0  1  0  0  3  0  0  0  0  0  0
  191.6250  175.1680  137.7260 C   0  0  0  0  0  2  0  0  0  0  0  0
  190.4450  175.0320  136.7780 C   0  0  0  0  0  2  0  0  0  0  0  0
  190.1600  176.3120  136.1510 N   0  0  0  0  0  2  0  0  0  0  0  0
  188.0760  175.7570  136.9230 C   0  0  0  0  0  1  0  0  0  0  0  0
  188.3940  177.6850  135.6580 C   0  0  0  0  0  1  0  0  0  0  0  0
  188.8070  176.2990  135.7910 N   0  0  0  0  0  0  0  0  0  0  0  0
  1  7  1  0  0  0  0
  1  4  1  0  0  0  0
  2 16  1  0  0  0  0
  2 10  2  0  0  0  0
  3  9  1  0  0  0  0
  5  3  2  0  0  0  0
  6 11  2  0  0  0  0
  7  8  1  0  0  0  0
  8 14  1  0  0  0  0
  8  6  2  0  0  0  0
  9  4  1  0  0  0  0
  9  2  1  0  0  0  0
 10 11  1  0  0  0  0
 13 15  2  0  0  0  0
 13 12  1  0  0  0  0
 14 13  1  0  0  0  0
 16 17  1  0  0  0  0
 17 20  1  0  0  0  0
 17 18  2  0  0  0  0
 18 21  1  0  0  0  0
 19 21  1  0  0  0  0
 20 19  2  0  0  0  0
 22  3  1  0  0  0  0
 24 23  1  1  0  0  0
 24 22  1  0  0  0  0
 25 24  1  0  0  0  0
 26 25  1  0  0  0  0
 27 26  1  0  0  0  0
 29 30  1  0  0  0  0
 30 27  1  0  0  0  0
 30 28  1  0  0  0  0
M  END
>  <MODEL>
2

>  <REMARK>
 VINA RESULT:      -7.3      1.797      2.804
  Name = 
  9 active torsions:
  status: ('A' for Active; 'I' for Inactive)
    1  A    between atoms: C_2  and  C_19
    2  A    between atoms: C_3  and  C_22
    3  A    between atoms: C_5  and  N_11
    4  A    between atoms: C_5  and  C_15
    5  A    between atoms: C_8  and  C_19
    6  A    between atoms: N_11  and  N_26
    7  A    between atoms: N_14  and  C_18
    8  A    between atoms: C_15  and  C_17
    9  A    between atoms: C_17  and  C_22
                            x       y       z     vdW  Elec       q    Type
                         _______ _______ _______ _____ _____    ______ ____

>  <TORSDO>
F 9

$$$$
=
 OpenBabel10232409193D

 30 31  0  0  1  0  0  0  0  0999 V2000
  191.1060  176.2500  143.2430 C   0  0  0  0  0  2  0  0  0  0  0  0
  187.8650  177.4720  143.1640 C   0  0  0  0  0  0  0  0  0  0  0  0
  189.2160  177.1260  141.0460 C   0  0  0  0  0  0  0  0  0  0  0  0
  189.8100  176.0000  143.1790 C   0  0  0  0  0  2  0  0  0  0  0  0
  189.9810  176.3700  140.3870 O   0  0  0  0  0  0  0  0  0  0  0  0
  190.1000  177.2590  145.6220 C   0  0  0  0  0  0  0  0  0  0  0  0
  191.7690  175.8090  144.4990 C   0  0  0  0  0  2  0  0  0  0  0  0
  191.2930  176.6860  145.6550 C   0  0  0  0  0  0  0  0  0  0  0  0
  188.9480  176.8430  142.4370 N   0  0  0  0  0  0  0  0  0  0  0  0
  187.9050  177.8490  144.4700 C   0  0  0  0  0  3  0  0  0  0  0  0
  188.9120  177.8200  145.5790 C   0  0  0  0  0  3  0  0  0  0  0  0
  193.1610  176.2310  149.0290 C   0  0  0  0  0  1  0  0  0  0  0  0
  192.2920  175.8850  147.8740 C   0  0  0  0  0  0  0  0  0  0  0  0
  192.0880  176.8520  146.8370 N   0  0  0  0  0  2  0  0  0  0  0  0
  191.7550  174.7480  147.8240 O   0  0  0  0  0  0  0  0  0  0  0  0
  186.5570  177.6820  142.4710 C   0  0  0  0  0  2  0  0  0  0  0  0
  185.6140  178.4330  143.3500 C   0  0  0  0  0  0  0  0  0  0  0  0
  185.0760  179.6200  143.0340 N   0  0  0  0  0  0  0  0  0  0  0  0
  184.3260  179.0360  144.9790 C   0  0  0  0  0  3  0  0  0  0  0  0
  185.1690  178.0100  144.5840 C   0  0  0  0  0  3  0  0  0  0  0  0
  184.3120  179.9470  144.0310 O   0  0  0  0  0  0  0  0  0  0  0  0
  188.6700  178.3570  140.3870 C   0  0  0  0  0  2  0  0  0  0  0  0
  186.7050  178.6010  138.9640 N   0  0  0  0  0  1  0  0  0  0  0  0
  188.0480  178.0480  139.0340 C   0  0  1  0  0  3  0  0  0  0  0  0
  188.9100  178.6570  137.9410 C   0  0  0  0  0  2  0  0  0  0  0  0
  189.6070  177.5790  137.1260 C   0  0  0  0  0  2  0  0  0  0  0  0
  188.7680  176.3930  137.0500 N   0  0  0  0  0  2  0  0  0  0  0  0
  188.9430  174.1450  136.6470 C   0  0  0  0  0  1  0  0  0  0  0  0
  190.8090  175.5260  136.4760 C   0  0  0  0  0  1  0  0  0  0  0  0
  189.6050  175.2880  137.2510 N   0  0  0  0  0  0  0  0  0  0  0  0
  1  7  1  0  0  0  0
  2 10  2  0  0  0  0
  3  9  1  0  0  0  0
  4  1  1  0  0  0  0
  5  3  2  0  0  0  0
  6  8  2  0  0  0  0
  7  8  1  0  0  0  0
  8 14  1  0  0  0  0
  9  2  1  0  0  0  0
  9  4  1  0  0  0  0
 10 11  1  0  0  0  0
 11  6  2  0  0  0  0
 13 12  1  0  0  0  0
 14 13  1  0  0  0  0
 15 13  2  0  0  0  0
 16  2  1  0  0  0  0
 16 17  1  0  0  0  0
 17 20  1  0  0  0  0
 18 17  2  0  0  0  0
 18 21  1  0  0  0  0
 20 19  2  0  0  0  0
 21 19  1  0  0  0  0
 22  3  1  0  0  0  0
 24 23  1  1  0  0  0
 24 22  1  0  0  0  0
 25 24  1  0  0  0  0
 26 25  1  0  0  0  0
 27 26  1  0  0  0  0
 27 30  1  0  0  0  0
 28 30  1  0  0  0  0
 29 30  1  0  0  0  0
M  END
>  <MODEL>
3

>  <REMARK>
 VINA RESULT:      -7.2      2.657      6.298
  Name = 
  9 active torsions:
  status: ('A' for Active; 'I' for Inactive)
    1  A    between atoms: C_2  and  C_19
    2  A    between atoms: C_3  and  C_22
    3  A    between atoms: C_5  and  N_11
    4  A    between atoms: C_5  and  C_15
    5  A    between atoms: C_8  and  C_19
    6  A    between atoms: N_11  and  N_26
    7  A    between atoms: N_14  and  C_18
    8  A    between atoms: C_15  and  C_17
    9  A    between atoms: C_17  and  C_22
                            x       y       z     vdW  Elec       q    Type
                         _______ _______ _______ _____ _____    ______ ____

>  <TORSDO>
F 9

$$$$
=
 OpenBabel10232409193D

 30 31  0  0  1  0  0  0  0  0999 V2000
  188.7190  176.7680  142.0910 C   0  0  0  0  0  2  0  0  0  0  0  0
  189.9620  177.2190  145.2930 C   0  0  0  0  0  0  0  0  0  0  0  0
  187.4800  177.3390  144.7930 C   0  0  0  0  0  0  0  0  0  0  0  0
  189.0770  176.2330  143.2450 C   0  0  0  0  0  2  0  0  0  0  0  0
  186.4890  176.8260  144.2030 O   0  0  0  0  0  0  0  0  0  0  0  0
  191.4220  177.3530  142.3040 C   0  0  0  0  0  0  0  0  0  0  0  0
  189.5840  176.4050  140.9360 C   0  0  0  0  0  2  0  0  0  0  0  0
  190.9500  177.0670  141.1000 C   0  0  0  0  0  0  0  0  0  0  0  0
  188.8180  176.9070  144.4640 N   0  0  0  0  0  0  0  0  0  0  0  0
  191.2120  177.5040  144.8390 C   0  0  0  0  0  3  0  0  0  0  0  0
  191.8820  177.6290  143.5040 C   0  0  0  0  0  3  0  0  0  0  0  0
  192.8730  176.9290  137.7300 C   0  0  0  0  0  1  0  0  0  0  0  0
  191.9630  176.4890  138.8200 C   0  0  0  0  0  0  0  0  0  0  0  0
  191.7890  177.3280  139.9670 N   0  0  0  0  0  2  0  0  0  0  0  0
  191.3570  175.3910  138.7130 O   0  0  0  0  0  0  0  0  0  0  0  0
  189.8110  177.1720  146.7790 C   0  0  0  0  0  2  0  0  0  0  0  0
  191.0640  176.6720  147.4170 C   0  0  0  0  0  0  0  0  0  0  0  0
  191.8280  177.3990  148.2460 N   0  0  0  0  0  0  0  0  0  0  0  0
  192.7300  175.4430  148.0390 C   0  0  0  0  0  3  0  0  0  0  0  0
  191.5940  175.4100  147.2480 C   0  0  0  0  0  3  0  0  0  0  0  0
  192.8130  176.6300  148.5970 O   0  0  0  0  0  0  0  0  0  0  0  0
  187.2440  178.4550  145.7670 C   0  0  0  0  0  2  0  0  0  0  0  0
  185.7360  178.9110  147.6280 N   0  0  0  0  0  1  0  0  0  0  0  0
  185.7970  178.5060  146.2320 C   0  0  1  0  0  3  0  0  0  0  0  0
  185.0350  179.5040  145.3750 C   0  0  0  0  0  2  0  0  0  0  0  0
  183.8810  178.8340  144.6480 C   0  0  0  0  0  2  0  0  0  0  0  0
  183.7000  179.4390  143.3380 N   0  0  0  0  0  2  0  0  0  0  0  0
  183.1190  178.4080  141.3760 C   0  0  0  0  0  1  0  0  0  0  0  0
  185.3120  179.0970  141.7460 C   0  0  0  0  0  1  0  0  0  0  0  0
  184.1520  178.5090  142.3930 N   0  0  0  0  0  0  0  0  0  0  0  0
  1  4  1  0  0  0  0
  2 16  1  0  0  0  0
  3 22  1  0  0  0  0
  4  9  1  0  0  0  0
  5  3  2  0  0  0  0
  6 11  2  0  0  0  0
  7  8  1  0  0  0  0
  7  1  1  0  0  0  0
  8  6  2  0  0  0  0
  9  3  1  0  0  0  0
  9  2  1  0  0  0  0
 10  2  2  0  0  0  0
 11 10  1  0  0  0  0
 12 13  1  0  0  0  0
 13 14  1  0  0  0  0
 14  8  1  0  0  0  0
 15 13  2  0  0  0  0
 16 17  1  0  0  0  0
 17 18  2  0  0  0  0
 18 21  1  0  0  0  0
 19 21  1  0  0  0  0
 20 17  1  0  0  0  0
 20 19  2  0  0  0  0
 22 24  1  0  0  0  0
 24 23  1  1  0  0  0
 25 24  1  0  0  0  0
 26 25  1  0  0  0  0
 27 26  1  0  0  0  0
 28 30  1  0  0  0  0
 29 30  1  0  0  0  0
 30 27  1  0  0  0  0
M  END
>  <MODEL>
4

>  <REMARK>
 VINA RESULT:      -7.1      2.440      8.099
  Name = 
  9 active torsions:
  status: ('A' for Active; 'I' for Inactive)
    1  A    between atoms: C_2  and  C_19
    2  A    between atoms: C_3  and  C_22
    3  A    between atoms: C_5  and  N_11
    4  A    between atoms: C_5  and  C_15
    5  A    between atoms: C_8  and  C_19
    6  A    between atoms: N_11  and  N_26
    7  A    between atoms: N_14  and  C_18
    8  A    between atoms: C_15  and  C_17
    9  A    between atoms: C_17  and  C_22
                            x       y       z     vdW  Elec       q    Type
                         _______ _______ _______ _____ _____    ______ ____

>  <TORSDO>
F 9

$$$$
=
 OpenBabel10232409193D

 30 31  0  0  1  0  0  0  0  0999 V2000
  186.7790  178.2150  141.6770 C   0  0  0  0  0  2  0  0  0  0  0  0
  189.4440  177.4180  139.6120 C   0  0  0  0  0  0  0  0  0  0  0  0
  187.1420  177.9360  138.6840 C   0  0  0  0  0  0  0  0  0  0  0  0
  187.8190  178.6260  140.9720 C   0  0  0  0  0  2  0  0  0  0  0  0
  186.1320  178.6910  138.7120 O   0  0  0  0  0  0  0  0  0  0  0  0
  188.9460  176.9640  142.8720 C   0  0  0  0  0  0  0  0  0  0  0  0
  186.9200  178.3650  143.1500 C   0  0  0  0  0  2  0  0  0  0  0  0
  187.9660  177.3770  143.6600 C   0  0  0  0  0  0  0  0  0  0  0  0
  188.1340  178.0210  139.7310 N   0  0  0  0  0  0  0  0  0  0  0  0
  190.1400  176.8340  140.6240 C   0  0  0  0  0  3  0  0  0  0  0  0
  189.9170  176.5630  142.0810 C   0  0  0  0  0  3  0  0  0  0  0  0
  188.6900  176.7850  147.4290 C   0  0  0  0  0  1  0  0  0  0  0  0
  188.8480  177.3540  146.0650 C   0  0  0  0  0  0  0  0  0  0  0  0
  187.9630  176.9290  145.0220 N   0  0  0  0  0  2  0  0  0  0  0  0
  189.7530  178.2020  145.8510 O   0  0  0  0  0  0  0  0  0  0  0  0
  190.1510  177.4800  138.2960 C   0  0  0  0  0  2  0  0  0  0  0  0
  190.8980  176.2140  138.0420 C   0  0  0  0  0  0  0  0  0  0  0  0
  190.3170  175.0130  137.9050 N   0  0  0  0  0  0  0  0  0  0  0  0
  192.4540  174.7570  137.6810 C   0  0  0  0  0  3  0  0  0  0  0  0
  192.2660  176.1110  137.9080 C   0  0  0  0  0  3  0  0  0  0  0  0
  191.2790  174.1690  137.6900 O   0  0  0  0  0  0  0  0  0  0  0  0
  187.2440  176.9010  137.6030 C   0  0  0  0  0  2  0  0  0  0  0  0
  187.1740  177.0960  135.1740 N   0  0  0  0  0  1  0  0  0  0  0  0
  186.3970  177.2610  136.3920 C   0  0  1  0  0  3  0  0  0  0  0  0
  185.1800  176.3510  136.3510 C   0  0  0  0  0  2  0  0  0  0  0  0
  185.5610  174.9110  136.6500 C   0  0  0  0  0  2  0  0  0  0  0  0
  184.6130  174.3300  137.5870 N   0  0  0  0  0  2  0  0  0  0  0  0
  184.2530  172.1330  137.0420 C   0  0  0  0  0  1  0  0  0  0  0  0
  186.4150  172.9330  137.3650 C   0  0  0  0  0  1  0  0  0  0  0  0
  185.0530  173.0280  137.8600 N   0  0  0  0  0  0  0  0  0  0  0  0
  1  7  1  0  0  0  0
  2  9  1  0  0  0  0
  2 10  2  0  0  0  0
  3  5  2  0  0  0  0
  3  9  1  0  0  0  0
  4  1  1  0  0  0  0
  6  8  2  0  0  0  0
  7  8  1  0  0  0  0
  8 14  1  0  0  0  0
  9  4  1  0  0  0  0
 10 11  1  0  0  0  0
 11  6  2  0  0  0  0
 13 12  1  0  0  0  0
 14 13  1  0  0  0  0
 15 13  2  0  0  0  0
 16  2  1  0  0  0  0
 17 16  1  0  0  0  0
 18 17  2  0  0  0  0
 19 21  1  0  0  0  0
 19 20  2  0  0  0  0
 20 17  1  0  0  0  0
 21 18  1  0  0  0  0
 22  3  1  0  0  0  0
 24 23  1  6  0  0  0
 24 22  1  0  0  0  0
 25 24  1  0  0  0  0
 25 26  1  0  0  0  0
 26 27  1  0  0  0  0
 27 30  1  0  0  0  0
 28 30  1  0  0  0  0
 29 30  1  0  0  0  0
M  END
>  <MODEL>
5

>  <REMARK>
 VINA RESULT:      -6.9      3.819      6.246
  Name = 
  9 active torsions:
  status: ('A' for Active; 'I' for Inactive)
    1  A    between atoms: C_2  and  C_19
    2  A    between atoms: C_3  and  C_22
    3  A    between atoms: C_5  and  N_11
    4  A    between atoms: C_5  and  C_15
    5  A    between atoms: C_8  and  C_19
    6  A    between atoms: N_11  and  N_26
    7  A    between atoms: N_14  and  C_18
    8  A    between atoms: C_15  and  C_17
    9  A    between atoms: C_17  and  C_22
                            x       y       z     vdW  Elec       q    Type
                         _______ _______ _______ _____ _____    ______ ____

>  <TORSDO>
F 9

$$$$
=
 OpenBabel10232409193D

 30 31  0  0  1  0  0  0  0  0999 V2000
  190.6250  176.5780  140.1720 C   0  0  0  0  0  2  0  0  0  0  0  0
  187.6600  178.2960  140.6820 C   0  0  0  0  0  0  0  0  0  0  0  0
  189.0240  177.3800  142.6130 C   0  0  0  0  0  0  0  0  0  0  0  0
  190.0120  177.7340  140.3610 C   0  0  0  0  0  2  0  0  0  0  0  0
  190.1640  177.2410  143.1350 O   0  0  0  0  0  0  0  0  0  0  0  0
  188.9360  176.8190  137.9850 C   0  0  0  0  0  0  0  0  0  0  0  0
  191.2310  176.4040  138.8250 C   0  0  0  0  0  2  0  0  0  0  0  0
  190.1220  176.2660  137.7850 C   0  0  0  0  0  0  0  0  0  0  0  0
  188.9090  177.8280  141.2450 N   0  0  0  0  0  0  0  0  0  0  0  0
  187.2400  178.0840  139.4060 C   0  0  0  0  0  3  0  0  0  0  0  0
  187.7640  177.3760  138.1930 C   0  0  0  0  0  3  0  0  0  0  0  0
  190.5620  173.6770  134.9250 C   0  0  0  0  0  1  0  0  0  0  0  0
  190.3030  174.1900  136.2960 C   0  0  0  0  0  0  0  0  0  0  0  0
  190.3530  175.6010  136.5360 N   0  0  0  0  0  2  0  0  0  0  0  0
  190.0390  173.3770  137.2200 O   0  0  0  0  0  0  0  0  0  0  0  0
  186.7590  179.1400  141.5260 C   0  0  0  0  0  2  0  0  0  0  0  0
  185.3340  178.9430  141.1290 C   0  0  0  0  0  0  0  0  0  0  0  0
  184.7530  179.5530  140.0850 N   0  0  0  0  0  0  0  0  0  0  0  0
  183.2810  178.2760  141.0260 C   0  0  0  0  0  3  0  0  0  0  0  0
  184.4390  178.1130  141.7680 C   0  0  0  0  0  3  0  0  0  0  0  0
  183.5270  179.1290  140.0560 O   0  0  0  0  0  0  0  0  0  0  0  0
  187.8120  176.9880  143.4040 C   0  0  0  0  0  2  0  0  0  0  0  0
  186.2590  178.1510  144.8820 N   0  0  0  0  0  1  0  0  0  0  0  0
  187.6600  177.8290  144.6620 C   0  0  1  0  0  3  0  0  0  0  0  0
  188.1980  177.0470  145.8500 C   0  0  0  0  0  2  0  0  0  0  0  0
  189.5810  177.5340  146.2480 C   0  0  0  0  0  2  0  0  0  0  0  0
  190.2670  176.5100  147.0180 N   0  0  0  0  0  2  0  0  0  0  0  0
  192.3380  176.1060  147.9110 C   0  0  0  0  0  1  0  0  0  0  0  0
  191.9490  175.7940  145.6370 C   0  0  0  0  0  1  0  0  0  0  0  0
  191.6370  176.6560  146.7640 N   0  0  0  0  0  0  0  0  0  0  0  0
  1  4  1  0  0  0  0
  2  9  1  0  0  0  0
  2 16  1  0  0  0  0
  3  5  2  0  0  0  0
  3 22  1  0  0  0  0
  4  9  1  0  0  0  0
  6 11  2  0  0  0  0
  7  1  1  0  0  0  0
  8  6  2  0  0  0  0
  8  7  1  0  0  0  0
  9  3  1  0  0  0  0
 10  2  2  0  0  0  0
 11 10  1  0  0  0  0
 12 13  1  0  0  0  0
 13 14  1  0  0  0  0
 13 15  2  0  0  0  0
 14  8  1  0  0  0  0
 17 16  1  0  0  0  0
 17 20  1  0  0  0  0
 18 17  2  0  0  0  0
 19 20  2  0  0  0  0
 21 18  1  0  0  0  0
 21 19  1  0  0  0  0
 22 24  1  0  0  0  0
 24 23  1  1  0  0  0
 24 25  1  0  0  0  0
 25 26  1  0  0  0  0
 26 27  1  0  0  0  0
 29 30  1  0  0  0  0
 30 27  1  0  0  0  0
 30 28  1  0  0  0  0
M  END
>  <MODEL>
6

>  <REMARK>
 VINA RESULT:      -6.8      2.810      8.027
  Name = 
  9 active torsions:
  status: ('A' for Active; 'I' for Inactive)
    1  A    between atoms: C_2  and  C_19
    2  A    between atoms: C_3  and  C_22
    3  A    between atoms: C_5  and  N_11
    4  A    between atoms: C_5  and  C_15
    5  A    between atoms: C_8  and  C_19
    6  A    between atoms: N_11  and  N_26
    7  A    between atoms: N_14  and  C_18
    8  A    between atoms: C_15  and  C_17
    9  A    between atoms: C_17  and  C_22
                            x       y       z     vdW  Elec       q    Type
                         _______ _______ _______ _____ _____    ______ ____

>  <TORSDO>
F 9

$$$$
=
 OpenBabel10232409193D

 30 31  0  0  1  0  0  0  0  0999 V2000
  186.8170  178.2620  141.7440 C   0  0  0  0  0  2  0  0  0  0  0  0
  189.5240  177.5130  139.7160 C   0  0  0  0  0  0  0  0  0  0  0  0
  187.2370  178.0380  138.7550 C   0  0  0  0  0  0  0  0  0  0  0  0
  187.8680  178.6900  141.0670 C   0  0  0  0  0  2  0  0  0  0  0  0
  186.2230  178.7890  138.7770 O   0  0  0  0  0  0  0  0  0  0  0  0
  188.9670  176.9990  142.9580 C   0  0  0  0  0  0  0  0  0  0  0  0
  186.9300  178.3870  143.2220 C   0  0  0  0  0  2  0  0  0  0  0  0
  187.9700  177.3950  143.7350 C   0  0  0  0  0  0  0  0  0  0  0  0
  188.2090  178.1090  139.8210 N   0  0  0  0  0  0  0  0  0  0  0  0
  190.2030  176.9140  140.7310 C   0  0  0  0  0  3  0  0  0  0  0  0
  189.9540  176.6170  142.1790 C   0  0  0  0  0  3  0  0  0  0  0  0
  188.6530  176.7070  147.4950 C   0  0  0  0  0  1  0  0  0  0  0  0
  188.8400  177.2940  146.1420 C   0  0  0  0  0  0  0  0  0  0  0  0
  187.9430  176.9230  145.0880 N   0  0  0  0  0  2  0  0  0  0  0  0
  189.7770  178.1110  145.9470 O   0  0  0  0  0  0  0  0  0  0  0  0
  190.2550  177.6020  138.4150 C   0  0  0  0  0  2  0  0  0  0  0  0
  190.9830  176.3300  138.1360 C   0  0  0  0  0  0  0  0  0  0  0  0
  190.3900  175.1320  138.0280 N   0  0  0  0  0  0  0  0  0  0  0  0
  192.5150  174.8630  137.7170 C   0  0  0  0  0  3  0  0  0  0  0  0
  192.3440  176.2190  137.9450 C   0  0  0  0  0  3  0  0  0  0  0  0
  191.3380  174.2810  137.7770 O   0  0  0  0  0  0  0  0  0  0  0  0
  187.3640  177.0230  137.6580 C   0  0  0  0  0  2  0  0  0  0  0  0
  188.2010  177.5740  135.4350 N   0  0  0  0  0  1  0  0  0  0  0  0
  187.0310  177.6140  136.2970 C   0  0  1  0  0  3  0  0  0  0  0  0
  185.9050  176.8080  135.6690 C   0  0  0  0  0  2  0  0  0  0  0  0
  185.3600  175.7760  136.6410 C   0  0  0  0  0  2  0  0  0  0  0  0
  183.9260  175.9570  136.8070 N   0  0  0  0  0  2  0  0  0  0  0  0
  182.9570  177.8220  137.7190 C   0  0  0  0  0  1  0  0  0  0  0  0
  182.8960  175.7860  138.8460 C   0  0  0  0  0  1  0  0  0  0  0  0
  183.7370  176.6340  138.0190 N   0  0  0  0  0  0  0  0  0  0  0  0
  1  7  1  0  0  0  0
  2  9  1  0  0  0  0
  2 10  2  0  0  0  0
  3  5  2  0  0  0  0
  3  9  1  0  0  0  0
  4  1  1  0  0  0  0
  6  8  2  0  0  0  0
  7  8  1  0  0  0  0
  8 14  1  0  0  0  0
  9  4  1  0  0  0  0
 10 11  1  0  0  0  0
 11  6  2  0  0  0  0
 13 12  1  0  0  0  0
 14 13  1  0  0  0  0
 15 13  2  0  0  0  0
 16  2  1  0  0  0  0
 17 16  1  0  0  0  0
 18 17  2  0  0  0  0
 19 21  1  0  0  0  0
 19 20  2  0  0  0  0
 20 17  1  0  0  0  0
 21 18  1  0  0  0  0
 22  3  1  0  0  0  0
 24 23  1  6  0  0  0
 24 22  1  0  0  0  0
 25 24  1  0  0  0  0
 25 26  1  0  0  0  0
 26 27  1  0  0  0  0
 27 30  1  0  0  0  0
 28 30  1  0  0  0  0
 30 29  1  0  0  0  0
M  END
>  <MODEL>
7

>  <REMARK>
 VINA RESULT:      -6.7      3.409      6.604
  Name = 
  9 active torsions:
  status: ('A' for Active; 'I' for Inactive)
    1  A    between atoms: C_2  and  C_19
    2  A    between atoms: C_3  and  C_22
    3  A    between atoms: C_5  and  N_11
    4  A    between atoms: C_5  and  C_15
    5  A    between atoms: C_8  and  C_19
    6  A    between atoms: N_11  and  N_26
    7  A    between atoms: N_14  and  C_18
    8  A    between atoms: C_15  and  C_17
    9  A    between atoms: C_17  and  C_22
                            x       y       z     vdW  Elec       q    Type
                         _______ _______ _______ _____ _____    ______ ____

>  <TORSDO>
F 9

$$$$
=
 OpenBabel10232409193D

 30 31  0  0  1  0  0  0  0  0999 V2000
  185.7390  177.5580  138.4150 C   0  0  0  0  0  2  0  0  0  0  0  0
  185.1660  178.9230  141.5470 C   0  0  0  0  0  0  0  0  0  0  0  0
  187.5070  178.6600  140.6110 C   0  0  0  0  0  0  0  0  0  0  0  0
  185.4990  178.6310  139.1490 C   0  0  0  0  0  2  0  0  0  0  0  0
  188.2760  178.8000  139.6200 O   0  0  0  0  0  0  0  0  0  0  0  0
  183.2560  177.0670  139.5500 C   0  0  0  0  0  0  0  0  0  0  0  0
  184.6370  177.1700  137.4930 C   0  0  0  0  0  2  0  0  0  0  0  0
  183.4560  176.6500  138.3090 C   0  0  0  0  0  0  0  0  0  0  0  0
  186.0780  178.7700  140.4340 N   0  0  0  0  0  0  0  0  0  0  0  0
  183.9240  178.3750  141.6320 C   0  0  0  0  0  3  0  0  0  0  0  0
  183.0660  177.4900  140.7790 C   0  0  0  0  0  3  0  0  0  0  0  0
  181.5740  173.6120  136.7910 C   0  0  0  0  0  1  0  0  0  0  0  0
  182.7000  174.3900  137.3710 C   0  0  0  0  0  0  0  0  0  0  0  0
  182.4910  175.7600  137.7330 N   0  0  0  0  0  2  0  0  0  0  0  0
  183.8160  173.8310  137.5370 O   0  0  0  0  0  0  0  0  0  0  0  0
  185.5610  179.8030  142.6890 C   0  0  0  0  0  2  0  0  0  0  0  0
  184.9360  179.3290  143.9580 C   0  0  0  0  0  0  0  0  0  0  0  0
  183.7110  179.6860  144.3720 N   0  0  0  0  0  0  0  0  0  0  0  0
  184.5530  178.3350  145.8390 C   0  0  0  0  0  3  0  0  0  0  0  0
  185.5220  178.4640  144.8570 C   0  0  0  0  0  3  0  0  0  0  0  0
  183.5180  179.0720  145.4990 O   0  0  0  0  0  0  0  0  0  0  0  0
  188.0970  178.2950  141.9400 C   0  0  0  0  0  2  0  0  0  0  0  0
  190.0550  176.8750  141.6330 N   0  0  0  0  0  1  0  0  0  0  0  0
  188.6360  176.8730  141.9500 C   0  0  1  0  0  3  0  0  0  0  0  0
  188.4210  176.2710  143.3290 C   0  0  0  0  0  2  0  0  0  0  0  0
  189.3260  176.9250  144.3610 C   0  0  0  0  0  2  0  0  0  0  0  0
  188.6660  176.9500  145.6570 N   0  0  0  0  0  2  0  0  0  0  0  0
  188.8320  177.6990  147.8160 C   0  0  0  0  0  1  0  0  0  0  0  0
  190.7110  176.9090  146.6890 C   0  0  0  0  0  1  0  0  0  0  0  0
  189.4920  177.6800  146.5210 N   0  0  0  0  0  0  0  0  0  0  0  0
  1  4  1  0  0  0  0
  2 10  2  0  0  0  0
  2 16  1  0  0  0  0
  3 22  1  0  0  0  0
  4  9  1  0  0  0  0
  5  3  2  0  0  0  0
  6 11  2  0  0  0  0
  7  8  1  0  0  0  0
  7  1  1  0  0  0  0
  8  6  2  0  0  0  0
  9  3  1  0  0  0  0
  9  2  1  0  0  0  0
 11 10  1  0  0  0  0
 12 13  1  0  0  0  0
 13 15  2  0  0  0  0
 13 14  1  0  0  0  0
 14  8  1  0  0  0  0
 16 17  1  0  0  0  0
 17 18  2  0  0  0  0
 17 20  1  0  0  0  0
 18 21  1  0  0  0  0
 20 19  2  0  0  0  0
 21 19  1  0  0  0  0
 22 24  1  0  0  0  0
 24 23  1  1  0  0  0
 24 25  1  0  0  0  0
 25 26  1  0  0  0  0
 26 27  1  0  0  0  0
 27 30  1  0  0  0  0
 30 29  1  0  0  0  0
 30 28  1  0  0  0  0
M  END
>  <MODEL>
8

>  <REMARK>
 VINA RESULT:      -6.7      4.080      6.989
  Name = 
  9 active torsions:
  status: ('A' for Active; 'I' for Inactive)
    1  A    between atoms: C_2  and  C_19
    2  A    between atoms: C_3  and  C_22
    3  A    between atoms: C_5  and  N_11
    4  A    between atoms: C_5  and  C_15
    5  A    between atoms: C_8  and  C_19
    6  A    between atoms: N_11  and  N_26
    7  A    between atoms: N_14  and  C_18
    8  A    between atoms: C_15  and  C_17
    9  A    between atoms: C_17  and  C_22
                            x       y       z     vdW  Elec       q    Type
                         _______ _______ _______ _____ _____    ______ ____

>  <TORSDO>
F 9

$$$$
=
 OpenBabel10232409193D

 30 31  0  0  1  0  0  0  0  0999 V2000
  193.3620  175.8650  138.1390 C   0  0  0  0  0  2  0  0  0  0  0  0
  189.9130  176.0930  138.3760 C   0  0  0  0  0  0  0  0  0  0  0  0
  191.4440  177.1050  140.1250 C   0  0  0  0  0  0  0  0  0  0  0  0
  192.2550  176.5270  137.8500 C   0  0  0  0  0  2  0  0  0  0  0  0
  192.4770  177.7880  140.3650 O   0  0  0  0  0  0  0  0  0  0  0  0
  191.8900  174.0910  136.5970 C   0  0  0  0  0  0  0  0  0  0  0  0
  194.0490  175.2520  136.9710 C   0  0  0  0  0  2  0  0  0  0  0  0
  193.2050  174.0970  136.4370 C   0  0  0  0  0  0  0  0  0  0  0  0
  191.1990  176.6120  138.7900 N   0  0  0  0  0  0  0  0  0  0  0  0
  189.7190  175.0520  137.5230 C   0  0  0  0  0  3  0  0  0  0  0  0
  190.5860  174.0980  136.7570 C   0  0  0  0  0  3  0  0  0  0  0  0
  195.1000  170.9120  135.2780 C   0  0  0  0  0  1  0  0  0  0  0  0
  194.5690  171.9410  136.2110 C   0  0  0  0  0  0  0  0  0  0  0  0
  193.7970  173.0280  135.6870 N   0  0  0  0  0  2  0  0  0  0  0  0
  194.8010  171.8360  137.4440 O   0  0  0  0  0  0  0  0  0  0  0  0
  188.6710  176.7750  138.8540 C   0  0  0  0  0  2  0  0  0  0  0  0
  188.2190  177.7940  137.8620 C   0  0  0  0  0  0  0  0  0  0  0  0
  188.6950  179.0470  137.8010 N   0  0  0  0  0  0  0  0  0  0  0  0
  187.2180  178.8090  136.2370 C   0  0  0  0  0  3  0  0  0  0  0  0
  187.2710  177.5850  136.8840 C   0  0  0  0  0  3  0  0  0  0  0  0
  188.0730  179.6210  136.8180 O   0  0  0  0  0  0  0  0  0  0  0  0
  190.5330  176.7470  141.2620 C   0  0  0  0  0  2  0  0  0  0  0  0
  189.9710  178.3610  143.0010 N   0  0  0  0  0  1  0  0  0  0  0  0
  190.9690  177.3970  142.5650 C   0  0  1  0  0  3  0  0  0  0  0  0
  191.1380  176.3200  143.6250 C   0  0  0  0  0  2  0  0  0  0  0  0
  190.6690  176.8100  144.9850 C   0  0  0  0  0  2  0  0  0  0  0  0
  191.8030  177.2830  145.7620 N   0  0  0  0  0  2  0  0  0  0  0  0
  190.1560  176.6670  147.2310 C   0  0  0  0  0  1  0  0  0  0  0  0
  192.2180  175.5880  147.2450 C   0  0  0  0  0  1  0  0  0  0  0  0
  191.5850  176.8850  147.0870 N   0  0  0  0  0  0  0  0  0  0  0  0
  2  9  1  0  0  0  0
  2 16  1  0  0  0  0
  3  5  2  0  0  0  0
  3 22  1  0  0  0  0
  4  1  1  0  0  0  0
  4  9  1  0  0  0  0
  6 11  2  0  0  0  0
  7  1  1  0  0  0  0
  8  6  2  0  0  0  0
  8  7  1  0  0  0  0
  9  3  1  0  0  0  0
 10  2  2  0  0  0  0
 11 10  1  0  0  0  0
 12 13  1  0  0  0  0
 13 15  2  0  0  0  0
 14 13  1  0  0  0  0
 14  8  1  0  0  0  0
 17 16  1  0  0  0  0
 18 17  2  0  0  0  0
 19 21  1  0  0  0  0
 19 20  2  0  0  0  0
 20 17  1  0  0  0  0
 21 18  1  0  0  0  0
 22 24  1  0  0  0  0
 24 23  1  1  0  0  0
 24 25  1  0  0  0  0
 25 26  1  0  0  0  0
 26 27  1  0  0  0  0
 27 30  1  0  0  0  0
 30 28  1  0  0  0  0
 30 29  1  0  0  0  0
M  END
>  <MODEL>
9

>  <REMARK>
 VINA RESULT:      -6.5      3.803      9.099
  Name = 
  9 active torsions:
  status: ('A' for Active; 'I' for Inactive)
    1  A    between atoms: C_2  and  C_19
    2  A    between atoms: C_3  and  C_22
    3  A    between atoms: C_5  and  N_11
    4  A    between atoms: C_5  and  C_15
    5  A    between atoms: C_8  and  C_19
    6  A    between atoms: N_11  and  N_26
    7  A    between atoms: N_14  and  C_18
    8  A    between atoms: C_15  and  C_17
    9  A    between atoms: C_17  and  C_22
                            x       y       z     vdW  Elec       q    Type
                         _______ _______ _______ _____ _____    ______ ____

>  <TORSDO>
F 9

$$$$
