=
 OpenBabel10232411203D

 50 54  0  0  1  0  0  0  0  0999 V2000
  187.0640  177.7010  138.0510 N   0  0  0  0  0  0  0  0  0  0  0  0
  185.1030  178.3560  139.1410 C   0  0  0  0  0  0  0  0  0  0  0  0
  186.5120  178.2560  139.2060 N   0  0  0  0  0  0  0  0  0  0  0  0
  184.3370  178.7870  140.1600 C   0  0  1  0  0  3  0  0  0  0  0  0
  186.1040  177.3080  137.0260 C   0  0  0  0  0  2  0  0  0  0  0  0
  184.4250  177.7990  137.5800 S   0  0  0  0  0  0  0  0  0  0  0  0
  191.1610  176.3230  137.9650 C   0  0  1  0  0  3  0  0  0  0  0  0
  190.5880  177.0880  139.1360 C   0  0  0  0  0  0  0  0  0  0  0  0
  190.4350  176.6590  136.6460 C   0  0  1  0  0  3  0  0  0  0  0  0
  191.0630  176.9410  140.2510 O   0  0  0  0  0  0  0  0  0  0  0  0
  188.4760  177.4950  137.9090 C   0  0  0  0  0  0  0  0  0  0  0  0
  189.4280  178.0240  138.9490 C   0  0  0  0  0  2  0  0  0  0  0  0
  190.6660  175.5750  135.6110 C   0  0  0  0  0  1  0  0  0  0  0  0
  188.9580  176.8480  136.8400 C   0  0  0  0  0  3  0  0  0  0  0  0
  192.6460  176.6370  137.8310 C   0  0  0  0  0  2  0  0  0  0  0  0
  193.4080  175.5300  138.2110 O   0  0  0  0  0  0  0  0  0  0  0  0
  196.1770  174.4660  135.9580 S   0  0  0  0  0  0  0  0  0  0  0  0
  193.7230  174.8830  137.0140 C   0  0  2  0  0  3  0  0  0  0  0  0
  194.1850  173.4650  137.3110 C   0  0  1  0  0  3  0  0  0  0  0  0
  194.8390  175.6340  136.3110 C   0  0  2  0  0  3  0  0  0  0  0  0
  193.5760  172.4970  136.3120 C   0  0  0  0  0  1  0  0  0  0  0  0
  195.6380  173.3960  137.2590 N   0  0  0  0  0  2  0  0  0  0  0  0
  194.3200  176.2220  135.0120 C   0  0  0  0  0  1  0  0  0  0  0  0
  182.9150  178.8230  139.9660 N   0  0  0  0  0  0  0  0  0  0  0  0
  182.2830  179.8560  139.5090 C   0  0  0  0  0  3  0  0  0  0  0  0
  180.8030  179.8170  139.3290 C   0  0  0  0  0  2  0  0  0  0  0  0
  181.1930  179.7620  137.0620 N   0  0  0  0  0  2  0  0  0  0  0  0
  180.2940  181.6060  135.6450 C   0  0  0  0  0  2  0  0  0  0  0  0
  180.4360  180.4130  138.0540 N   0  0  0  0  0  0  0  0  0  0  0  0
  180.6350  180.1100  135.7510 C   0  0  0  0  0  2  0  0  0  0  0  0
  180.8610  181.8160  138.1090 C   0  0  0  0  0  2  0  0  0  0  0  0
  181.0330  182.4200  136.7050 C   0  0  2  0  0  3  0  0  0  0  0  0
  180.5930  183.8460  136.6850 C   0  0  0  0  0  0  0  0  0  0  0  0
  180.2760  184.4350  137.7530 O   0  0  0  0  0  1  0  0  0  0  0  0
  180.5250  184.5270  135.4770 O   0  0  0  0  0  0  0  0  0  0  0  0
  184.3780  178.9230  142.6640 C   0  0  0  0  0  3  0  0  0  0  0  0
  184.8890  179.2220  141.4730 C   0  0  0  0  0  3  0  0  0  0  0  0
  185.0240  179.4190  143.9100 C   0  0  0  0  0  2  0  0  0  0  0  0
  184.3330  178.8830  145.0780 N   0  0  0  0  0  2  0  0  0  0  0  0
  185.3080  178.4040  146.0580 C   0  0  2  0  0  3  0  0  0  0  0  0
  185.4430  179.3180  147.1070 O   0  0  0  0  0  1  0  0  0  0  0  0
  186.5490  178.1770  145.4550 O   0  0  0  0  0  0  0  0  0  0  0  0
  187.3960  177.8160  146.5050 C   0  0  0  0  0  2  0  0  0  0  0  0
  188.4940  177.1170  146.0020 O   0  0  0  0  0  0  0  0  0  0  0  0
  188.8090  177.7600  144.8000 C   0  0  2  0  0  3  0  0  0  0  0  0
  189.3890  176.7260  143.8140 C   0  0  0  0  0  0  0  0  0  0  0  0
  191.2150  177.1920  145.5400 C   0  0  0  0  0  1  0  0  0  0  0  0
  190.2210  177.7700  144.5440 C   0  0  2  0  0  0  0  0  0  0  0  0
  190.6720  178.7820  143.6980 O   0  0  0  0  0  1  0  0  0  0  0  0
  189.2710  175.7850  143.0470 O   0  0  0  0  0  0  0  0  0  0  0  0
  1  3  1  0  0  0  0
  2  3  2  0  0  0  0
  2  4  1  0  0  0  0
  4 37  1  1  0  0  0
  5  6  1  0  0  0  0
  5  1  1  0  0  0  0
  6  2  1  0  0  0  0
  7 15  1  6  0  0  0
  7  8  1  0  0  0  0
  8 10  2  0  0  0  0
  9 13  1  6  0  0  0
  9 14  1  0  0  0  0
  9  7  1  0  0  0  0
 11  1  1  0  0  0  0
 11 12  1  0  0  0  0
 12  8  1  0  0  0  0
 14 11  2  0  0  0  0
 15 16  1  0  0  0  0
 17 20  1  0  0  0  0
 17 22  1  0  0  0  0
 18 19  1  0  0  0  0
 18 16  1  1  0  0  0
 19 21  1  6  0  0  0
 20 23  1  6  0  0  0
 20 18  1  0  0  0  0
 22 19  1  0  0  0  0
 24  4  1  0  0  0  0
 25 24  2  0  0  0  0
 26 25  1  0  0  0  0
 27 29  1  0  0  0  0
 28 30  1  0  0  0  0
 28 32  1  0  0  0  0
 29 31  1  0  0  0  0
 29 26  1  0  0  0  0
 30 27  1  0  0  0  0
 32 33  1  1  0  0  0
 32 31  1  0  0  0  0
 33 34  1  0  0  0  0
 35 33  2  0  0  0  0
 36 38  1  0  0  0  0
 37 36  2  0  0  0  0
 38 39  1  0  0  0  0
 39 40  1  0  0  0  0
 40 41  1  1  0  0  0
 42 40  1  0  0  0  0
 42 43  1  0  0  0  0
 44 43  1  0  0  0  0
 45 44  1  1  0  0  0
 46 48  1  0  0  0  0
 46 45  1  0  0  0  0
 48 45  1  0  0  0  0
 48 47  1  1  0  0  0
 49 48  1  0  0  0  0
 50 46  2  0  0  0  0
M  END
>  <MODEL>
1

>  <REMARK>
 VINA RESULT:      -7.6      0.000      0.000
  Name = 
  16 active torsions:
  status: ('A' for Active; 'I' for Inactive)
    1  A    between atoms: C_1  and  C_11
    2  A    between atoms: N_2  and  C_25
    3  A    between atoms: N_4  and  C_5
    4  A    between atoms: N_4  and  C_18
    5  A    between atoms: C_5  and  O_29
    6  A    between atoms: C_6  and  O_39
    7  A    between atoms: C_7  and  C_18
    8  A    between atoms: N_8  and  C_40
    9  A    between atoms: C_11  and  O_48
   10  A    between atoms: C_13  and  C_45
   11  A    between atoms: C_16  and  O_29
   12  A    between atoms: C_16  and  O_39
   13  A    between atoms: C_19  and  C_25
   14  A    between atoms: C_22  and  O_48
   15  A    between atoms: C_23  and  N_32
   16  A    between atoms: C_23  and  C_43
                            x       y       z     vdW  Elec       q    Type
                         _______ _______ _______ _____ _____    ______ ____

>  <TORSDO>
F 16

$$$$
=
 OpenBabel10232411203D

 50 54  0  0  1  0  0  0  0  0999 V2000
  191.3330  176.8250  140.2670 N   0  0  0  0  0  0  0  0  0  0  0  0
  191.5050  175.8840  138.1340 C   0  0  0  0  0  0  0  0  0  0  0  0
  190.6820  176.1080  139.2620 N   0  0  0  0  0  0  0  0  0  0  0  0
  191.1290  175.1510  137.0690 C   0  0  1  0  0  3  0  0  0  0  0  0
  192.7220  177.1720  139.9870 C   0  0  0  0  0  2  0  0  0  0  0  0
  193.1290  176.6230  138.2840 S   0  0  0  0  0  0  0  0  0  0  0  0
  189.1880  176.9890  144.0170 C   0  0  1  0  0  3  0  0  0  0  0  0
  188.5130  177.2290  142.6860 C   0  0  0  0  0  0  0  0  0  0  0  0
  190.6890  177.3410  143.9740 C   0  0  1  0  0  3  0  0  0  0  0  0
  187.3180  177.0090  142.5600 O   0  0  0  0  0  0  0  0  0  0  0  0
  190.6880  177.1510  141.5050 C   0  0  0  0  0  0  0  0  0  0  0  0
  189.2970  177.7280  141.5050 C   0  0  0  0  0  2  0  0  0  0  0  0
  191.4370  176.6620  145.1050 C   0  0  0  0  0  1  0  0  0  0  0  0
  191.3260  176.9650  142.6670 C   0  0  0  0  0  3  0  0  0  0  0  0
  188.4950  177.8140  145.0940 C   0  0  0  0  0  2  0  0  0  0  0  0
  187.1720  177.3930  145.2450 O   0  0  0  0  0  0  0  0  0  0  0  0
  183.7610  178.8500  145.5850 S   0  0  0  0  0  0  0  0  0  0  0  0
  186.4470  178.5650  145.4770 C   0  0  2  0  0  3  0  0  0  0  0  0
  185.9830  178.5940  146.9250 C   0  0  1  0  0  3  0  0  0  0  0  0
  185.2350  178.5980  144.5650 C   0  0  2  0  0  3  0  0  0  0  0  0
  186.1670  179.9860  147.5040 C   0  0  0  0  0  1  0  0  0  0  0  0
  184.5850  178.1960  147.0060 N   0  0  0  0  0  2  0  0  0  0  0  0
  185.3720  179.7420  143.5760 C   0  0  0  0  0  1  0  0  0  0  0  0
  192.0710  174.9870  135.9980 N   0  0  0  0  0  0  0  0  0  0  0  0
  192.7170  173.8870  135.7770 C   0  0  0  0  0  3  0  0  0  0  0  0
  193.6770  173.7910  134.6410 C   0  0  0  0  0  2  0  0  0  0  0  0
  194.7370  172.2500  135.9820 N   0  0  0  0  0  2  0  0  0  0  0  0
  197.1570  172.5680  136.4920 C   0  0  0  0  0  2  0  0  0  0  0  0
  194.9740  173.3350  135.1160 N   0  0  0  0  0  0  0  0  0  0  0  0
  196.0130  171.5720  136.2350 C   0  0  0  0  0  2  0  0  0  0  0  0
  195.5430  174.4340  135.9030 C   0  0  0  0  0  2  0  0  0  0  0  0
  196.6190  173.9420  136.8860 C   0  0  2  0  0  3  0  0  0  0  0  0
  197.7270  174.9350  136.9990 C   0  0  0  0  0  0  0  0  0  0  0  0
  198.0630  175.3970  138.1230 O   0  0  0  0  0  1  0  0  0  0  0  0
  198.3890  175.3590  135.8550 O   0  0  0  0  0  0  0  0  0  0  0  0
  188.7290  175.0370  136.3540 C   0  0  0  0  0  3  0  0  0  0  0  0
  189.7930  174.5060  136.9500 C   0  0  0  0  0  3  0  0  0  0  0  0
  187.4410  174.2910  136.3000 C   0  0  0  0  0  2  0  0  0  0  0  0
  186.3210  175.2210  136.3860 N   0  0  0  0  0  2  0  0  0  0  0  0
  185.3070  174.6970  137.3010 C   0  0  2  0  0  3  0  0  0  0  0  0
  185.5070  173.3330  137.5320 O   0  0  0  0  0  1  0  0  0  0  0  0
  184.0210  174.9150  136.7960 O   0  0  0  0  0  0  0  0  0  0  0  0
  183.8360  176.2970  136.8720 C   0  0  0  0  0  2  0  0  0  0  0  0
  184.1460  176.7410  138.1590 O   0  0  0  0  0  0  0  0  0  0  0  0
  184.4790  178.0910  138.0030 C   0  0  2  0  0  3  0  0  0  0  0  0
  185.7780  178.3820  138.7810 C   0  0  0  0  0  0  0  0  0  0  0  0
  183.9210  178.1510  140.5210 C   0  0  0  0  0  1  0  0  0  0  0  0
  184.3930  178.8170  139.2370 C   0  0  2  0  0  0  0  0  0  0  0  0
  184.1970  180.1920  139.1160 O   0  0  0  0  0  1  0  0  0  0  0  0
  186.9870  178.3080  138.9250 O   0  0  0  0  0  0  0  0  0  0  0  0
  1 11  1  0  0  0  0
  2  6  1  0  0  0  0
  2  3  2  0  0  0  0
  3  1  1  0  0  0  0
  4 37  1  1  0  0  0
  4  2  1  0  0  0  0
  5  1  1  0  0  0  0
  6  5  1  0  0  0  0
  7 15  1  1  0  0  0
  8  7  1  0  0  0  0
  9  7  1  0  0  0  0
  9 13  1  1  0  0  0
 10  8  2  0  0  0  0
 11 14  2  0  0  0  0
 12 11  1  0  0  0  0
 12  8  1  0  0  0  0
 14  9  1  0  0  0  0
 15 16  1  0  0  0  0
 17 22  1  0  0  0  0
 18 16  1  1  0  0  0
 18 19  1  0  0  0  0
 19 22  1  0  0  0  0
 19 21  1  6  0  0  0
 20 23  1  6  0  0  0
 20 18  1  0  0  0  0
 20 17  1  0  0  0  0
 24  4  1  0  0  0  0
 25 24  2  0  0  0  0
 26 29  1  0  0  0  0
 26 25  1  0  0  0  0
 27 30  1  0  0  0  0
 28 32  1  0  0  0  0
 29 31  1  0  0  0  0
 29 27  1  0  0  0  0
 30 28  1  0  0  0  0
 31 32  1  0  0  0  0
 32 33  1  6  0  0  0
 33 34  1  0  0  0  0
 35 33  2  0  0  0  0
 36 37  2  0  0  0  0
 38 36  1  0  0  0  0
 38 39  1  0  0  0  0
 39 40  1  0  0  0  0
 40 41  1  6  0  0  0
 42 43  1  0  0  0  0
 42 40  1  0  0  0  0
 43 44  1  0  0  0  0
 45 44  1  1  0  0  0
 45 46  1  0  0  0  0
 45 48  1  0  0  0  0
 46 50  2  0  0  0  0
 46 48  1  0  0  0  0
 48 47  1  1  0  0  0
 49 48  1  0  0  0  0
M  END
>  <MODEL>
2

>  <REMARK>
 VINA RESULT:      -7.1      3.658     11.626
  Name = 
  16 active torsions:
  status: ('A' for Active; 'I' for Inactive)
    1  A    between atoms: C_1  and  C_11
    2  A    between atoms: N_2  and  C_25
    3  A    between atoms: N_4  and  C_5
    4  A    between atoms: N_4  and  C_18
    5  A    between atoms: C_5  and  O_29
    6  A    between atoms: C_6  and  O_39
    7  A    between atoms: C_7  and  C_18
    8  A    between atoms: N_8  and  C_40
    9  A    between atoms: C_11  and  O_48
   10  A    between atoms: C_13  and  C_45
   11  A    between atoms: C_16  and  O_29
   12  A    between atoms: C_16  and  O_39
   13  A    between atoms: C_19  and  C_25
   14  A    between atoms: C_22  and  O_48
   15  A    between atoms: C_23  and  N_32
   16  A    between atoms: C_23  and  C_43
                            x       y       z     vdW  Elec       q    Type
                         _______ _______ _______ _____ _____    ______ ____

>  <TORSDO>
F 16

$$$$
=
 OpenBabel10232411203D

 50 54  0  0  1  0  0  0  0  0999 V2000
  186.7830  177.3060  137.7400 N   0  0  0  0  0  0  0  0  0  0  0  0
  184.8260  178.1560  138.6950 C   0  0  0  0  0  0  0  0  0  0  0  0
  186.2130  177.9300  138.8510 N   0  0  0  0  0  0  0  0  0  0  0  0
  184.0410  178.6720  139.6590 C   0  0  1  0  0  3  0  0  0  0  0  0
  185.8560  176.9830  136.6620 C   0  0  0  0  0  2  0  0  0  0  0  0
  184.1980  177.6340  137.1020 S   0  0  0  0  0  0  0  0  0  0  0  0
  190.7350  175.5620  137.9340 C   0  0  1  0  0  3  0  0  0  0  0  0
  190.1630  176.4000  139.0540 C   0  0  0  0  0  0  0  0  0  0  0  0
  190.1240  175.9340  136.5670 C   0  0  1  0  0  3  0  0  0  0  0  0
  190.5530  176.2350  140.1990 O   0  0  0  0  0  0  0  0  0  0  0  0
  188.1760  176.9700  137.6910 C   0  0  0  0  0  0  0  0  0  0  0  0
  189.1060  177.4330  138.7800 C   0  0  0  0  0  2  0  0  0  0  0  0
  190.3170  174.8130  135.5650 C   0  0  0  0  0  1  0  0  0  0  0  0
  188.6620  176.2600  136.6640 C   0  0  0  0  0  3  0  0  0  0  0  0
  192.2470  175.7380  137.8890 C   0  0  0  0  0  2  0  0  0  0  0  0
  192.8730  174.4940  137.7910 O   0  0  0  0  0  0  0  0  0  0  0  0
  196.2610  173.0380  137.2630 S   0  0  0  0  0  0  0  0  0  0  0  0
  194.2210  174.7860  137.5690 C   0  0  2  0  0  3  0  0  0  0  0  0
  194.5410  174.6100  136.0930 C   0  0  1  0  0  3  0  0  0  0  0  0
  195.0840  173.8390  138.3820 C   0  0  2  0  0  3  0  0  0  0  0  0
  195.4250  175.7460  135.6110 C   0  0  0  0  0  1  0  0  0  0  0  0
  195.2020  173.3310  135.8770 N   0  0  0  0  0  2  0  0  0  0  0  0
  195.8390  174.6200  139.4420 C   0  0  0  0  0  1  0  0  0  0  0  0
  182.6430  178.8340  139.3750 N   0  0  0  0  0  0  0  0  0  0  0  0
  182.1000  179.9720  139.0830 C   0  0  0  0  0  3  0  0  0  0  0  0
  180.6400  180.0610  138.7940 C   0  0  0  0  0  2  0  0  0  0  0  0
  180.9270  180.3770  136.5330 N   0  0  0  0  0  2  0  0  0  0  0  0
  180.4980  182.6400  135.5750 C   0  0  0  0  0  2  0  0  0  0  0  0
  180.4010  180.9800  137.6920 N   0  0  0  0  0  0  0  0  0  0  0  0
  180.4370  181.1170  135.3650 C   0  0  0  0  0  2  0  0  0  0  0  0
  181.1820  182.1880  137.9760 C   0  0  0  0  0  2  0  0  0  0  0  0
  181.4610  183.0060  136.7040 C   0  0  2  0  0  3  0  0  0  0  0  0
  181.4100  184.4690  136.9920 C   0  0  0  0  0  0  0  0  0  0  0  0
  180.5260  185.1960  136.4660 O   0  0  0  0  0  0  0  0  0  0  0  0
  182.3500  185.0340  137.8430 O   0  0  0  0  0  1  0  0  0  0  0  0
  184.7720  178.2590  142.0220 C   0  0  0  0  0  3  0  0  0  0  0  0
  184.5490  179.0790  140.9980 C   0  0  0  0  0  3  0  0  0  0  0  0
  185.2830  178.7870  143.3170 C   0  0  0  0  0  2  0  0  0  0  0  0
  185.9390  177.7220  144.0670 N   0  0  0  0  0  2  0  0  0  0  0  0
  187.3090  177.5440  143.5850 C   0  0  2  0  0  3  0  0  0  0  0  0
  187.5750  176.1930  143.3430 O   0  0  0  0  0  1  0  0  0  0  0  0
  188.2300  178.0580  144.5030 O   0  0  0  0  0  0  0  0  0  0  0  0
  189.4160  177.3670  144.2440 C   0  0  0  0  0  2  0  0  0  0  0  0
  189.8210  176.6870  145.3930 O   0  0  0  0  0  0  0  0  0  0  0  0
  190.1520  177.6910  146.3090 C   0  0  2  0  0  3  0  0  0  0  0  0
  190.9890  177.0780  147.4490 C   0  0  0  0  0  0  0  0  0  0  0  0
  188.5750  176.3290  147.8300 C   0  0  0  0  0  1  0  0  0  0  0  0
  189.5300  177.4880  147.5850 C   0  0  2  0  0  0  0  0  0  0  0  0
  189.3660  178.6320  148.3650 O   0  0  0  0  0  1  0  0  0  0  0  0
  192.0240  176.6100  147.8950 O   0  0  0  0  0  0  0  0  0  0  0  0
  1  3  1  0  0  0  0
  2  3  2  0  0  0  0
  2  4  1  0  0  0  0
  4 37  1  1  0  0  0
  5  6  1  0  0  0  0
  5  1  1  0  0  0  0
  6  2  1  0  0  0  0
  7 15  1  6  0  0  0
  7  8  1  0  0  0  0
  8 10  2  0  0  0  0
  9 13  1  6  0  0  0
  9 14  1  0  0  0  0
  9  7  1  0  0  0  0
 11  1  1  0  0  0  0
 11 12  1  0  0  0  0
 12  8  1  0  0  0  0
 14 11  2  0  0  0  0
 16 15  1  0  0  0  0
 17 20  1  0  0  0  0
 18 16  1  6  0  0  0
 18 20  1  0  0  0  0
 19 21  1  1  0  0  0
 19 18  1  0  0  0  0
 20 23  1  1  0  0  0
 22 19  1  0  0  0  0
 22 17  1  0  0  0  0
 24  4  1  0  0  0  0
 25 24  2  0  0  0  0
 26 25  1  0  0  0  0
 27 29  1  0  0  0  0
 28 32  1  0  0  0  0
 29 31  1  0  0  0  0
 29 26  1  0  0  0  0
 30 28  1  0  0  0  0
 30 27  1  0  0  0  0
 32 33  1  1  0  0  0
 32 31  1  0  0  0  0
 33 35  1  0  0  0  0
 34 33  2  0  0  0  0
 36 38  1  0  0  0  0
 37 36  2  0  0  0  0
 38 39  1  0  0  0  0
 40 41  1  1  0  0  0
 40 39  1  0  0  0  0
 40 42  1  0  0  0  0
 43 42  1  0  0  0  0
 43 44  1  0  0  0  0
 45 44  1  6  0  0  0
 45 46  1  0  0  0  0
 45 48  1  0  0  0  0
 46 48  1  0  0  0  0
 46 50  2  0  0  0  0
 48 47  1  1  0  0  0
 48 49  1  0  0  0  0
M  END
>  <MODEL>
3

>  <REMARK>
 VINA RESULT:      -7.1      1.429      2.205
  Name = 
  16 active torsions:
  status: ('A' for Active; 'I' for Inactive)
    1  A    between atoms: C_1  and  C_11
    2  A    between atoms: N_2  and  C_25
    3  A    between atoms: N_4  and  C_5
    4  A    between atoms: N_4  and  C_18
    5  A    between atoms: C_5  and  O_29
    6  A    between atoms: C_6  and  O_39
    7  A    between atoms: C_7  and  C_18
    8  A    between atoms: N_8  and  C_40
    9  A    between atoms: C_11  and  O_48
   10  A    between atoms: C_13  and  C_45
   11  A    between atoms: C_16  and  O_29
   12  A    between atoms: C_16  and  O_39
   13  A    between atoms: C_19  and  C_25
   14  A    between atoms: C_22  and  O_48
   15  A    between atoms: C_23  and  N_32
   16  A    between atoms: C_23  and  C_43
                            x       y       z     vdW  Elec       q    Type
                         _______ _______ _______ _____ _____    ______ ____

>  <TORSDO>
F 16

$$$$
=
 OpenBabel10232411203D

 50 54  0  0  1  0  0  0  0  0999 V2000
  190.3550  175.5770  135.5070 N   0  0  0  0  0  0  0  0  0  0  0  0
  188.6000  176.6030  136.6590 C   0  0  0  0  0  0  0  0  0  0  0  0
  189.9900  176.3480  136.6110 N   0  0  0  0  0  0  0  0  0  0  0  0
  187.9950  177.2590  137.6680 C   0  0  1  0  0  3  0  0  0  0  0  0
  189.2560  175.1600  134.6450 C   0  0  0  0  0  2  0  0  0  0  0  0
  187.7050  175.9170  135.2680 S   0  0  0  0  0  0  0  0  0  0  0  0
  194.6000  174.7570  135.5480 C   0  0  1  0  0  3  0  0  0  0  0  0
  194.0250  176.0220  134.9540 C   0  0  0  0  0  0  0  0  0  0  0  0
  193.5920  173.5900  135.5050 C   0  0  1  0  0  3  0  0  0  0  0  0
  194.7050  177.0350  134.9030 O   0  0  0  0  0  0  0  0  0  0  0  0
  191.7150  175.1880  135.2700 C   0  0  0  0  0  0  0  0  0  0  0  0
  192.6160  176.0560  134.4320 C   0  0  0  0  0  2  0  0  0  0  0  0
  193.9690  172.5120  136.5030 C   0  0  0  0  0  1  0  0  0  0  0  0
  192.1860  174.0410  135.7760 C   0  0  0  0  0  3  0  0  0  0  0  0
  195.8670  174.3720  134.7940 C   0  0  0  0  0  2  0  0  0  0  0  0
  196.9820  174.9550  135.3990 O   0  0  0  0  0  0  0  0  0  0  0  0
  199.6400  174.0020  137.8280 S   0  0  0  0  0  0  0  0  0  0  0  0
  197.3220  174.0860  136.4380 C   0  0  2  0  0  3  0  0  0  0  0  0
  197.1590  174.8020  137.7700 C   0  0  1  0  0  3  0  0  0  0  0  0
  198.7670  173.6510  136.2810 C   0  0  2  0  0  3  0  0  0  0  0  0
  196.5030  173.8790  138.7820 C   0  0  0  0  0  1  0  0  0  0  0  0
  198.4580  175.2440  138.2590 N   0  0  0  0  0  2  0  0  0  0  0  0
  198.8230  172.1620  135.9900 C   0  0  0  0  0  1  0  0  0  0  0  0
  186.5720  177.4340  137.6000 N   0  0  0  0  0  0  0  0  0  0  0  0
  185.9130  178.2290  138.3810 C   0  0  0  0  0  3  0  0  0  0  0  0
  184.4340  178.3620  138.2480 C   0  0  0  0  0  2  0  0  0  0  0  0
  182.8190  179.2430  139.6300 N   0  0  0  0  0  2  0  0  0  0  0  0
  182.7620  178.5230  142.0180 C   0  0  0  0  0  2  0  0  0  0  0  0
  183.7980  178.2340  139.5500 N   0  0  0  0  0  0  0  0  0  0  0  0
  181.9550  178.9570  140.7820 C   0  0  0  0  0  2  0  0  0  0  0  0
  184.8320  178.5180  140.5520 C   0  0  0  0  0  2  0  0  0  0  0  0
  184.2260  178.9420  141.9000 C   0  0  2  0  0  3  0  0  0  0  0  0
  185.0280  178.3980  143.0360 C   0  0  0  0  0  0  0  0  0  0  0  0
  184.5350  178.3280  144.1930 O   0  0  0  0  0  1  0  0  0  0  0  0
  186.3300  177.9710  142.8140 O   0  0  0  0  0  0  0  0  0  0  0  0
  188.9960  177.1390  139.9640 C   0  0  0  0  0  3  0  0  0  0  0  0
  188.7270  177.8040  138.8440 C   0  0  0  0  0  3  0  0  0  0  0  0
  189.7380  177.7960  141.0750 C   0  0  0  0  0  2  0  0  0  0  0  0
  190.8530  176.9550  141.4960 N   0  0  0  0  0  2  0  0  0  0  0  0
  191.3120  177.3630  142.8240 C   0  0  2  0  0  3  0  0  0  0  0  0
  191.6240  176.2460  143.6040 O   0  0  0  0  0  1  0  0  0  0  0  0
  190.3460  178.1440  143.4660 O   0  0  0  0  0  0  0  0  0  0  0  0
  190.1260  177.5060  144.6880 C   0  0  0  0  0  2  0  0  0  0  0  0
  189.2410  178.2610  145.4590 O   0  0  0  0  0  0  0  0  0  0  0  0
  188.3970  177.3220  146.0630 C   0  0  2  0  0  3  0  0  0  0  0  0
  187.2870  178.0650  146.8330 C   0  0  0  0  0  0  0  0  0  0  0  0
  189.4240  178.3110  148.2130 C   0  0  0  0  0  1  0  0  0  0  0  0
  188.4690  177.3710  147.4940 C   0  0  2  0  0  0  0  0  0  0  0  0
  188.0990  176.2000  148.1560 O   0  0  0  0  0  1  0  0  0  0  0  0
  186.2580  178.7180  146.8760 O   0  0  0  0  0  0  0  0  0  0  0  0
  1  3  1  0  0  0  0
  2  4  1  0  0  0  0
  3  2  2  0  0  0  0
  4 37  1  1  0  0  0
  5  6  1  0  0  0  0
  5  1  1  0  0  0  0
  6  2  1  0  0  0  0
  7 15  1  6  0  0  0
  8  7  1  0  0  0  0
  9  7  1  0  0  0  0
  9 14  1  0  0  0  0
  9 13  1  1  0  0  0
 10  8  2  0  0  0  0
 11  1  1  0  0  0  0
 11 14  2  0  0  0  0
 12  8  1  0  0  0  0
 12 11  1  0  0  0  0
 15 16  1  0  0  0  0
 17 22  1  0  0  0  0
 18 16  1  6  0  0  0
 18 19  1  0  0  0  0
 19 22  1  0  0  0  0
 19 21  1  1  0  0  0
 20 23  1  1  0  0  0
 20 18  1  0  0  0  0
 20 17  1  0  0  0  0
 24  4  1  0  0  0  0
 24 25  2  0  0  0  0
 26 25  1  0  0  0  0
 26 29  1  0  0  0  0
 27 30  1  0  0  0  0
 29 27  1  0  0  0  0
 29 31  1  0  0  0  0
 30 28  1  0  0  0  0
 31 32  1  0  0  0  0
 32 28  1  0  0  0  0
 32 33  1  1  0  0  0
 33 34  1  0  0  0  0
 35 33  2  0  0  0  0
 36 38  1  0  0  0  0
 37 36  2  0  0  0  0
 38 39  1  0  0  0  0
 39 40  1  0  0  0  0
 40 42  1  0  0  0  0
 40 41  1  1  0  0  0
 42 43  1  0  0  0  0
 43 44  1  0  0  0  0
 45 44  1  6  0  0  0
 45 46  1  0  0  0  0
 45 48  1  0  0  0  0
 46 50  2  0  0  0  0
 46 48  1  0  0  0  0
 48 49  1  0  0  0  0
 48 47  1  1  0  0  0
M  END
>  <MODEL>
4

>  <REMARK>
 VINA RESULT:      -6.9      3.387      5.421
  Name = 
  16 active torsions:
  status: ('A' for Active; 'I' for Inactive)
    1  A    between atoms: C_1  and  C_11
    2  A    between atoms: N_2  and  C_25
    3  A    between atoms: N_4  and  C_5
    4  A    between atoms: N_4  and  C_18
    5  A    between atoms: C_5  and  O_29
    6  A    between atoms: C_6  and  O_39
    7  A    between atoms: C_7  and  C_18
    8  A    between atoms: N_8  and  C_40
    9  A    between atoms: C_11  and  O_48
   10  A    between atoms: C_13  and  C_45
   11  A    between atoms: C_16  and  O_29
   12  A    between atoms: C_16  and  O_39
   13  A    between atoms: C_19  and  C_25
   14  A    between atoms: C_22  and  O_48
   15  A    between atoms: C_23  and  N_32
   16  A    between atoms: C_23  and  C_43
                            x       y       z     vdW  Elec       q    Type
                         _______ _______ _______ _____ _____    ______ ____

>  <TORSDO>
F 16

$$$$
=
 OpenBabel10232411203D

 50 54  0  0  1  0  0  0  0  0999 V2000
  191.4720  176.4930  138.3760 N   0  0  0  0  0  0  0  0  0  0  0  0
  189.4500  177.5300  138.9220 C   0  0  0  0  0  0  0  0  0  0  0  0
  190.2140  176.8890  137.9200 N   0  0  0  0  0  0  0  0  0  0  0  0
  188.2360  178.0700  138.7050 C   0  0  1  0  0  3  0  0  0  0  0  0
  191.7700  176.8340  139.7620 C   0  0  0  0  0  2  0  0  0  0  0  0
  190.2810  177.6070  140.5070 S   0  0  0  0  0  0  0  0  0  0  0  0
  193.7930  174.7420  135.1760 C   0  0  1  0  0  3  0  0  0  0  0  0
  192.7350  173.9670  135.9280 C   0  0  0  0  0  0  0  0  0  0  0  0
  194.3960  175.8740  136.0330 C   0  0  1  0  0  3  0  0  0  0  0  0
  192.1700  173.0280  135.3900 O   0  0  0  0  0  0  0  0  0  0  0  0
  192.4170  175.8360  137.5200 C   0  0  0  0  0  0  0  0  0  0  0  0
  192.3590  174.3430  137.3330 C   0  0  0  0  0  2  0  0  0  0  0  0
  195.0650  176.9170  135.1580 C   0  0  0  0  0  1  0  0  0  0  0  0
  193.3680  176.5440  136.8990 C   0  0  0  0  0  3  0  0  0  0  0  0
  194.8960  173.7920  134.7270 C   0  0  0  0  0  2  0  0  0  0  0  0
  195.5310  173.2320  135.8380 O   0  0  0  0  0  0  0  0  0  0  0  0
  199.0620  173.2240  137.0250 S   0  0  0  0  0  0  0  0  0  0  0  0
  196.8650  173.0870  135.4540 C   0  0  2  0  0  3  0  0  0  0  0  0
  197.3440  171.6870  135.8070 C   0  0  1  0  0  3  0  0  0  0  0  0
  197.7180  174.1040  136.1880 C   0  0  2  0  0  3  0  0  0  0  0  0
  198.1760  171.1170  134.6720 C   0  0  0  0  0  1  0  0  0  0  0  0
  198.1260  171.7240  137.0350 N   0  0  0  0  0  2  0  0  0  0  0  0
  198.2980  175.0960  135.1960 C   0  0  0  0  0  1  0  0  0  0  0  0
  187.5750  178.7080  139.8080 N   0  0  0  0  0  0  0  0  0  0  0  0
  186.6460  178.1410  140.5080 C   0  0  0  0  0  3  0  0  0  0  0  0
  186.0080  178.8660  141.6450 C   0  0  0  0  0  2  0  0  0  0  0  0
  187.2510  177.2760  142.7490 N   0  0  0  0  0  2  0  0  0  0  0  0
  187.6730  177.5660  145.1900 C   0  0  0  0  0  2  0  0  0  0  0  0
  186.7040  178.5660  142.8860 N   0  0  0  0  0  0  0  0  0  0  0  0
  188.2090  177.0620  143.8390 C   0  0  0  0  0  2  0  0  0  0  0  0
  185.6840  178.5220  143.9390 C   0  0  0  0  0  2  0  0  0  0  0  0
  186.1530  177.7170  145.1620 C   0  0  2  0  0  3  0  0  0  0  0  0
  185.6570  178.3350  146.4270 C   0  0  0  0  0  0  0  0  0  0  0  0
  186.4340  178.5090  147.4040 O   0  0  0  0  0  1  0  0  0  0  0  0
  184.3260  178.7170  146.5280 O   0  0  0  0  0  0  0  0  0  0  0  0
  186.8650  177.0110  136.8910 C   0  0  0  0  0  3  0  0  0  0  0  0
  187.5510  178.0400  137.3830 C   0  0  0  0  0  3  0  0  0  0  0  0
  186.2230  177.1020  135.5510 C   0  0  0  0  0  2  0  0  0  0  0  0
  184.7900  176.8560  135.6670 N   0  0  0  0  0  2  0  0  0  0  0  0
  184.5460  175.7600  136.6040 C   0  0  2  0  0  3  0  0  0  0  0  0
  184.0320  174.6440  135.9360 O   0  0  0  0  0  1  0  0  0  0  0  0
  183.6690  176.1580  137.6180 O   0  0  0  0  0  0  0  0  0  0  0  0
  182.7230  176.9620  136.9780 C   0  0  0  0  0  2  0  0  0  0  0  0
  182.1630  177.8500  137.8970 O   0  0  0  0  0  0  0  0  0  0  0  0
  183.2530  178.3760  138.5990 C   0  0  2  0  0  3  0  0  0  0  0  0
  182.7890  178.7970  140.0070 C   0  0  0  0  0  0  0  0  0  0  0  0
  181.8850  180.5530  138.3840 C   0  0  0  0  0  1  0  0  0  0  0  0
  183.0940  179.7730  138.8800 C   0  0  2  0  0  0  0  0  0  0  0  0
  184.2740  180.4840  139.0920 O   0  0  0  0  0  1  0  0  0  0  0  0
  182.4360  178.5430  141.1470 O   0  0  0  0  0  0  0  0  0  0  0  0
  1  5  1  0  0  0  0
  2  6  1  0  0  0  0
  3  1  1  0  0  0  0
  3  2  2  0  0  0  0
  4 37  1  6  0  0  0
  4  2  1  0  0  0  0
  4 24  1  0  0  0  0
  5  6  1  0  0  0  0
  7 15  1  1  0  0  0
  7  8  1  0  0  0  0
  7  9  1  0  0  0  0
  8 12  1  0  0  0  0
  9 13  1  6  0  0  0
  9 14  1  0  0  0  0
 10  8  2  0  0  0  0
 11  1  1  0  0  0  0
 12 11  1  0  0  0  0
 14 11  2  0  0  0  0
 15 16  1  0  0  0  0
 17 22  1  0  0  0  0
 18 19  1  0  0  0  0
 18 16  1  1  0  0  0
 18 20  1  0  0  0  0
 19 21  1  6  0  0  0
 19 22  1  0  0  0  0
 20 23  1  6  0  0  0
 20 17  1  0  0  0  0
 24 25  2  0  0  0  0
 25 26  1  0  0  0  0
 26 29  1  0  0  0  0
 27 29  1  0  0  0  0
 27 30  1  0  0  0  0
 29 31  1  0  0  0  0
 30 28  1  0  0  0  0
 31 32  1  0  0  0  0
 32 28  1  0  0  0  0
 32 33  1  1  0  0  0
 33 35  2  0  0  0  0
 33 34  1  0  0  0  0
 36 37  2  0  0  0  0
 38 39  1  0  0  0  0
 38 36  1  0  0  0  0
 39 40  1  0  0  0  0
 40 41  1  6  0  0  0
 40 42  1  0  0  0  0
 43 42  1  0  0  0  0
 43 44  1  0  0  0  0
 45 44  1  6  0  0  0
 45 48  1  0  0  0  0
 45 46  1  0  0  0  0
 46 50  2  0  0  0  0
 48 47  1  6  0  0  0
 48 49  1  0  0  0  0
 48 46  1  0  0  0  0
M  END
>  <MODEL>
5

>  <REMARK>
 VINA RESULT:      -6.9      3.332      7.669
  Name = 
  16 active torsions:
  status: ('A' for Active; 'I' for Inactive)
    1  A    between atoms: C_1  and  C_11
    2  A    between atoms: N_2  and  C_25
    3  A    between atoms: N_4  and  C_5
    4  A    between atoms: N_4  and  C_18
    5  A    between atoms: C_5  and  O_29
    6  A    between atoms: C_6  and  O_39
    7  A    between atoms: C_7  and  C_18
    8  A    between atoms: N_8  and  C_40
    9  A    between atoms: C_11  and  O_48
   10  A    between atoms: C_13  and  C_45
   11  A    between atoms: C_16  and  O_29
   12  A    between atoms: C_16  and  O_39
   13  A    between atoms: C_19  and  C_25
   14  A    between atoms: C_22  and  O_48
   15  A    between atoms: C_23  and  N_32
   16  A    between atoms: C_23  and  C_43
                            x       y       z     vdW  Elec       q    Type
                         _______ _______ _______ _____ _____    ______ ____

>  <TORSDO>
F 16

$$$$
=
 OpenBabel10232411203D

 50 54  0  0  1  0  0  0  0  0999 V2000
  191.1220  176.8160  140.4130 N   0  0  0  0  0  0  0  0  0  0  0  0
  191.3640  175.7860  138.3290 C   0  0  0  0  0  0  0  0  0  0  0  0
  190.5510  175.9560  139.4740 N   0  0  0  0  0  0  0  0  0  0  0  0
  191.0660  174.9460  137.3200 C   0  0  1  0  0  3  0  0  0  0  0  0
  192.4360  177.3410  140.0620 C   0  0  0  0  0  2  0  0  0  0  0  0
  192.8670  176.7580  138.3760 S   0  0  0  0  0  0  0  0  0  0  0  0
  189.3990  176.9460  144.3770 C   0  0  1  0  0  3  0  0  0  0  0  0
  188.6160  176.4890  143.1670 C   0  0  0  0  0  0  0  0  0  0  0  0
  190.5270  177.9260  143.9960 C   0  0  1  0  0  3  0  0  0  0  0  0
  187.6790  175.7180  143.3030 O   0  0  0  0  0  0  0  0  0  0  0  0
  190.4730  177.1190  141.6560 C   0  0  0  0  0  0  0  0  0  0  0  0
  188.9820  176.9650  141.7900 C   0  0  0  0  0  2  0  0  0  0  0  0
  191.5780  177.9920  145.0880 C   0  0  0  0  0  1  0  0  0  0  0  0
  191.1890  177.5600  142.6990 C   0  0  0  0  0  3  0  0  0  0  0  0
  188.4550  177.6080  145.3730 C   0  0  0  0  0  2  0  0  0  0  0  0
  187.1320  177.2760  145.0750 O   0  0  0  0  0  0  0  0  0  0  0  0
  183.7300  178.7840  145.2520 S   0  0  0  0  0  0  0  0  0  0  0  0
  186.4150  178.4600  145.2580 C   0  0  2  0  0  3  0  0  0  0  0  0
  185.8920  178.5190  146.6850 C   0  0  1  0  0  3  0  0  0  0  0  0
  185.2420  178.4960  144.2970 C   0  0  2  0  0  3  0  0  0  0  0  0
  186.0720  179.9170  147.2500 C   0  0  0  0  0  1  0  0  0  0  0  0
  184.4860  178.1410  146.7150 N   0  0  0  0  0  2  0  0  0  0  0  0
  185.4350  179.6220  143.2970 C   0  0  0  0  0  1  0  0  0  0  0  0
  191.9880  174.8560  136.2240 N   0  0  0  0  0  0  0  0  0  0  0  0
  192.9270  173.9680  136.1520 C   0  0  0  0  0  3  0  0  0  0  0  0
  193.8460  173.9330  134.9780 C   0  0  0  0  0  2  0  0  0  0  0  0
  196.0480  174.1880  134.3630 N   0  0  0  0  0  2  0  0  0  0  0  0
  197.5870  175.4170  135.8920 C   0  0  0  0  0  2  0  0  0  0  0  0
  195.0840  174.6310  135.2880 N   0  0  0  0  0  0  0  0  0  0  0  0
  197.2090  175.0820  134.4400 C   0  0  0  0  0  2  0  0  0  0  0  0
  195.4930  174.1860  136.6240 C   0  0  0  0  0  2  0  0  0  0  0  0
  196.9960  174.4010  136.8680 C   0  0  2  0  0  3  0  0  0  0  0  0
  197.2510  174.8100  138.2810 C   0  0  0  0  0  0  0  0  0  0  0  0
  198.3240  175.3900  138.5970 O   0  0  0  0  0  0  0  0  0  0  0  0
  196.3000  174.5410  139.2550 O   0  0  0  0  0  1  0  0  0  0  0  0
  188.8360  174.2380  136.4160 C   0  0  0  0  0  3  0  0  0  0  0  0
  189.8340  174.1100  137.2870 C   0  0  0  0  0  3  0  0  0  0  0  0
  187.6520  173.3390  136.4860 C   0  0  0  0  0  2  0  0  0  0  0  0
  186.5040  173.9730  135.8460 N   0  0  0  0  0  2  0  0  0  0  0  0
  185.3060  173.7760  136.6610 C   0  0  2  0  0  3  0  0  0  0  0  0
  184.3220  173.0980  135.9360 O   0  0  0  0  0  1  0  0  0  0  0  0
  184.8080  175.0010  137.1170 O   0  0  0  0  0  0  0  0  0  0  0  0
  184.7540  175.8110  135.9820 C   0  0  0  0  0  2  0  0  0  0  0  0
  185.0130  177.1350  136.3380 O   0  0  0  0  0  0  0  0  0  0  0  0
  185.6860  177.0530  137.5620 C   0  0  2  0  0  3  0  0  0  0  0  0
  185.6170  178.4230  138.2660 C   0  0  0  0  0  0  0  0  0  0  0  0
  187.3120  178.6630  136.3680 C   0  0  0  0  0  1  0  0  0  0  0  0
  186.8640  177.8720  137.5880 C   0  0  2  0  0  0  0  0  0  0  0  0
  187.8440  177.4880  138.5020 O   0  0  0  0  0  1  0  0  0  0  0  0
  185.0190  179.2880  138.8830 O   0  0  0  0  0  0  0  0  0  0  0  0
  1 11  1  0  0  0  0
  2  6  1  0  0  0  0
  2  3  2  0  0  0  0
  3  1  1  0  0  0  0
  4 37  1  1  0  0  0
  4  2  1  0  0  0  0
  5  1  1  0  0  0  0
  6  5  1  0  0  0  0
  7 15  1  1  0  0  0
  8 10  2  0  0  0  0
  8  7  1  0  0  0  0
  9  7  1  0  0  0  0
  9 13  1  1  0  0  0
 11 12  1  0  0  0  0
 11 14  2  0  0  0  0
 12  8  1  0  0  0  0
 14  9  1  0  0  0  0
 16 15  1  0  0  0  0
 17 22  1  0  0  0  0
 18 16  1  1  0  0  0
 18 19  1  0  0  0  0
 19 22  1  0  0  0  0
 19 21  1  6  0  0  0
 20 23  1  6  0  0  0
 20 17  1  0  0  0  0
 20 18  1  0  0  0  0
 24  4  1  0  0  0  0
 25 24  2  0  0  0  0
 26 29  1  0  0  0  0
 26 25  1  0  0  0  0
 27 30  1  0  0  0  0
 27 29  1  0  0  0  0
 28 32  1  0  0  0  0
 29 31  1  0  0  0  0
 30 28  1  0  0  0  0
 31 32  1  0  0  0  0
 32 33  1  1  0  0  0
 33 34  2  0  0  0  0
 33 35  1  0  0  0  0
 36 38  1  0  0  0  0
 36 37  2  0  0  0  0
 39 38  1  0  0  0  0
 39 40  1  0  0  0  0
 40 41  1  6  0  0  0
 40 42  1  0  0  0  0
 43 44  1  0  0  0  0
 43 42  1  0  0  0  0
 45 44  1  6  0  0  0
 45 48  1  0  0  0  0
 45 46  1  0  0  0  0
 46 50  2  0  0  0  0
 48 47  1  6  0  0  0
 48 46  1  0  0  0  0
 48 49  1  0  0  0  0
M  END
>  <MODEL>
6

>  <REMARK>
 VINA RESULT:      -6.9      4.023     11.660
  Name = 
  16 active torsions:
  status: ('A' for Active; 'I' for Inactive)
    1  A    between atoms: C_1  and  C_11
    2  A    between atoms: N_2  and  C_25
    3  A    between atoms: N_4  and  C_5
    4  A    between atoms: N_4  and  C_18
    5  A    between atoms: C_5  and  O_29
    6  A    between atoms: C_6  and  O_39
    7  A    between atoms: C_7  and  C_18
    8  A    between atoms: N_8  and  C_40
    9  A    between atoms: C_11  and  O_48
   10  A    between atoms: C_13  and  C_45
   11  A    between atoms: C_16  and  O_29
   12  A    between atoms: C_16  and  O_39
   13  A    between atoms: C_19  and  C_25
   14  A    between atoms: C_22  and  O_48
   15  A    between atoms: C_23  and  N_32
   16  A    between atoms: C_23  and  C_43
                            x       y       z     vdW  Elec       q    Type
                         _______ _______ _______ _____ _____    ______ ____

>  <TORSDO>
F 16

$$$$
=
 OpenBabel10232411203D

 50 54  0  0  1  0  0  0  0  0999 V2000
  190.4120  176.3430  136.0760 N   0  0  0  0  0  0  0  0  0  0  0  0
  188.9760  177.4620  137.5410 C   0  0  0  0  0  0  0  0  0  0  0  0
  190.2160  176.8010  137.3790 N   0  0  0  0  0  0  0  0  0  0  0  0
  188.5250  177.9250  138.7230 C   0  0  1  0  0  3  0  0  0  0  0  0
  189.3130  176.5980  135.1520 C   0  0  0  0  0  2  0  0  0  0  0  0
  188.0310  177.5780  136.0250 S   0  0  0  0  0  0  0  0  0  0  0  0
  193.9390  173.8710  135.6980 C   0  0  1  0  0  3  0  0  0  0  0  0
  193.9990  175.2980  136.1920 C   0  0  0  0  0  0  0  0  0  0  0  0
  192.7300  173.6320  134.7720 C   0  0  1  0  0  3  0  0  0  0  0  0
  194.9070  175.6520  136.9270 O   0  0  0  0  0  0  0  0  0  0  0  0
  191.5970  175.6310  135.6920 C   0  0  0  0  0  0  0  0  0  0  0  0
  192.9450  176.2940  135.7960 C   0  0  0  0  0  2  0  0  0  0  0  0
  192.4000  172.1540  134.6820 C   0  0  0  0  0  1  0  0  0  0  0  0
  191.5090  174.3810  135.2210 C   0  0  0  0  0  3  0  0  0  0  0  0
  195.2290  173.5330  134.9610 C   0  0  0  0  0  2  0  0  0  0  0  0
  195.5560  172.1900  135.1560 O   0  0  0  0  0  0  0  0  0  0  0  0
  197.9930  170.4070  137.3370 S   0  0  0  0  0  0  0  0  0  0  0  0
  196.1260  172.1400  136.4300 C   0  0  2  0  0  3  0  0  0  0  0  0
  197.5020  172.7880  136.3940 C   0  0  1  0  0  3  0  0  0  0  0  0
  196.2680  170.6940  136.8640 C   0  0  2  0  0  3  0  0  0  0  0  0
  197.7000  173.6620  137.6190 C   0  0  0  0  0  1  0  0  0  0  0  0
  198.5330  171.7610  136.3360 N   0  0  0  0  0  2  0  0  0  0  0  0
  195.3630  170.4260  138.0530 C   0  0  0  0  0  1  0  0  0  0  0  0
  187.2400  178.5620  138.7510 N   0  0  0  0  0  0  0  0  0  0  0  0
  186.3750  178.3860  139.6980 C   0  0  0  0  0  3  0  0  0  0  0  0
  185.0600  179.0870  139.6610 C   0  0  0  0  0  2  0  0  0  0  0  0
  185.4610  178.6780  141.8890 N   0  0  0  0  0  2  0  0  0  0  0  0
  183.7310  179.3370  143.5600 C   0  0  0  0  0  2  0  0  0  0  0  0
  184.6010  179.3660  141.0120 N   0  0  0  0  0  0  0  0  0  0  0  0
  185.2290  179.1750  143.2500 C   0  0  0  0  0  2  0  0  0  0  0  0
  183.2620  178.7800  141.1300 C   0  0  0  0  0  2  0  0  0  0  0  0
  182.8730  178.5210  142.5950 C   0  0  2  0  0  3  0  0  0  0  0  0
  181.4220  178.7910  142.8150 C   0  0  0  0  0  0  0  0  0  0  0  0
  180.9370  178.7850  143.9780 O   0  0  0  0  0  1  0  0  0  0  0  0
  180.5990  179.0460  141.7270 O   0  0  0  0  0  0  0  0  0  0  0  0
  189.3660  176.7130  140.7510 C   0  0  0  0  0  3  0  0  0  0  0  0
  189.2910  177.8050  139.9950 C   0  0  0  0  0  3  0  0  0  0  0  0
  190.1660  176.7160  142.0060 C   0  0  0  0  0  2  0  0  0  0  0  0
  190.9950  177.9150  142.0660 N   0  0  0  0  0  2  0  0  0  0  0  0
  191.4430  178.1440  143.4400 C   0  0  2  0  0  3  0  0  0  0  0  0
  191.7980  176.9380  144.0510 O   0  0  0  0  0  1  0  0  0  0  0  0
  190.4500  178.7860  144.1870 O   0  0  0  0  0  0  0  0  0  0  0  0
  190.3380  178.0330  145.3560 C   0  0  0  0  0  2  0  0  0  0  0  0
  189.0520  177.4980  145.4490 O   0  0  0  0  0  0  0  0  0  0  0  0
  188.3680  178.3540  146.3180 C   0  0  2  0  0  3  0  0  0  0  0  0
  187.8680  177.5450  147.5320 C   0  0  0  0  0  0  0  0  0  0  0  0
  186.3540  176.9270  145.5670 C   0  0  0  0  0  1  0  0  0  0  0  0
  186.9720  178.0370  146.4050 C   0  0  2  0  0  0  0  0  0  0  0  0
  186.1400  179.0830  146.8010 O   0  0  0  0  0  1  0  0  0  0  0  0
  188.0530  176.9540  148.5820 O   0  0  0  0  0  0  0  0  0  0  0  0
  1  3  1  0  0  0  0
  2  4  1  0  0  0  0
  3  2  2  0  0  0  0
  4 24  1  0  0  0  0
  4 37  1  1  0  0  0
  5  6  1  0  0  0  0
  5  1  1  0  0  0  0
  6  2  1  0  0  0  0
  7 15  1  6  0  0  0
  7  8  1  0  0  0  0
  8 10  2  0  0  0  0
  9 13  1  1  0  0  0
  9 14  1  0  0  0  0
  9  7  1  0  0  0  0
 11 12  1  0  0  0  0
 11  1  1  0  0  0  0
 12  8  1  0  0  0  0
 14 11  2  0  0  0  0
 15 16  1  0  0  0  0
 18 16  1  6  0  0  0
 18 20  1  0  0  0  0
 19 18  1  0  0  0  0
 19 21  1  1  0  0  0
 20 17  1  0  0  0  0
 20 23  1  1  0  0  0
 22 19  1  0  0  0  0
 22 17  1  0  0  0  0
 24 25  2  0  0  0  0
 26 25  1  0  0  0  0
 26 29  1  0  0  0  0
 27 30  1  0  0  0  0
 29 31  1  0  0  0  0
 29 27  1  0  0  0  0
 30 28  1  0  0  0  0
 31 32  1  0  0  0  0
 32 33  1  6  0  0  0
 32 28  1  0  0  0  0
 33 34  1  0  0  0  0
 35 33  2  0  0  0  0
 36 38  1  0  0  0  0
 37 36  2  0  0  0  0
 38 39  1  0  0  0  0
 39 40  1  0  0  0  0
 40 41  1  1  0  0  0
 40 42  1  0  0  0  0
 42 43  1  0  0  0  0
 43 44  1  0  0  0  0
 45 44  1  6  0  0  0
 45 48  1  0  0  0  0
 45 46  1  0  0  0  0
 46 50  2  0  0  0  0
 48 47  1  6  0  0  0
 48 49  1  0  0  0  0
 48 46  1  0  0  0  0
M  END
>  <MODEL>
7

>  <REMARK>
 VINA RESULT:      -6.4      3.259      5.351
  Name = 
  16 active torsions:
  status: ('A' for Active; 'I' for Inactive)
    1  A    between atoms: C_1  and  C_11
    2  A    between atoms: N_2  and  C_25
    3  A    between atoms: N_4  and  C_5
    4  A    between atoms: N_4  and  C_18
    5  A    between atoms: C_5  and  O_29
    6  A    between atoms: C_6  and  O_39
    7  A    between atoms: C_7  and  C_18
    8  A    between atoms: N_8  and  C_40
    9  A    between atoms: C_11  and  O_48
   10  A    between atoms: C_13  and  C_45
   11  A    between atoms: C_16  and  O_29
   12  A    between atoms: C_16  and  O_39
   13  A    between atoms: C_19  and  C_25
   14  A    between atoms: C_22  and  O_48
   15  A    between atoms: C_23  and  N_32
   16  A    between atoms: C_23  and  C_43
                            x       y       z     vdW  Elec       q    Type
                         _______ _______ _______ _____ _____    ______ ____

>  <TORSDO>
F 16

$$$$
=
 OpenBabel10232411203D

 50 54  0  0  1  0  0  0  0  0999 V2000
  191.1320  177.0860  140.4160 N   0  0  0  0  0  0  0  0  0  0  0  0
  191.3220  176.6070  138.1370 C   0  0  0  0  0  0  0  0  0  0  0  0
  190.4530  176.7630  139.2410 N   0  0  0  0  0  0  0  0  0  0  0  0
  190.9130  176.2210  136.9130 C   0  0  1  0  0  3  0  0  0  0  0  0
  192.5830  177.1700  140.2970 C   0  0  0  0  0  2  0  0  0  0  0  0
  193.0390  176.9210  138.5360 S   0  0  0  0  0  0  0  0  0  0  0  0
  189.4110  176.9150  144.3790 C   0  0  1  0  0  3  0  0  0  0  0  0
  188.7050  176.3570  143.1640 C   0  0  0  0  0  0  0  0  0  0  0  0
  190.3780  178.0580  144.0090 C   0  0  1  0  0  3  0  0  0  0  0  0
  187.8950  175.4520  143.2920 O   0  0  0  0  0  0  0  0  0  0  0  0
  190.4460  177.2750  141.6610 C   0  0  0  0  0  0  0  0  0  0  0  0
  188.9940  176.8960  141.7920 C   0  0  0  0  0  2  0  0  0  0  0  0
  191.4070  178.2710  145.1030 C   0  0  0  0  0  1  0  0  0  0  0  0
  191.0870  177.8090  142.7090 C   0  0  0  0  0  3  0  0  0  0  0  0
  188.3780  177.4160  145.3810 C   0  0  0  0  0  2  0  0  0  0  0  0
  187.0890  177.1840  144.8980 O   0  0  0  0  0  0  0  0  0  0  0  0
  183.7350  178.7800  145.1910 S   0  0  0  0  0  0  0  0  0  0  0  0
  186.4090  178.3880  145.0960 C   0  0  2  0  0  3  0  0  0  0  0  0
  185.9450  178.4760  146.5410 C   0  0  1  0  0  3  0  0  0  0  0  0
  185.2000  178.4430  144.1810 C   0  0  2  0  0  3  0  0  0  0  0  0
  186.1810  179.8760  147.0820 C   0  0  0  0  0  1  0  0  0  0  0  0
  184.5320  178.1340  146.6310 N   0  0  0  0  0  2  0  0  0  0  0  0
  185.3820  179.5520  143.1610 C   0  0  0  0  0  1  0  0  0  0  0  0
  191.9040  176.0860  135.8830 N   0  0  0  0  0  0  0  0  0  0  0  0
  192.3380  174.9440  135.4560 C   0  0  0  0  0  3  0  0  0  0  0  0
  193.3670  174.8820  134.3780 C   0  0  0  0  0  2  0  0  0  0  0  0
  194.0560  173.0860  135.6400 N   0  0  0  0  0  2  0  0  0  0  0  0
  196.4800  172.8610  136.1840 C   0  0  0  0  0  2  0  0  0  0  0  0
  194.5310  174.1400  134.8370 N   0  0  0  0  0  0  0  0  0  0  0  0
  195.1580  172.1430  135.8640 C   0  0  0  0  0  2  0  0  0  0  0  0
  195.3030  175.0530  135.6870 C   0  0  0  0  0  2  0  0  0  0  0  0
  196.2340  174.2960  136.6490 C   0  0  2  0  0  3  0  0  0  0  0  0
  197.5230  175.0270  136.8240 C   0  0  0  0  0  0  0  0  0  0  0  0
  198.2530  175.2860  135.8300 O   0  0  0  0  0  0  0  0  0  0  0  0
  197.9230  175.4180  138.0940 O   0  0  0  0  0  1  0  0  0  0  0  0
  188.6960  176.6970  135.8420 C   0  0  0  0  0  3  0  0  0  0  0  0
  189.4920  175.9270  136.5800 C   0  0  0  0  0  3  0  0  0  0  0  0
  187.2880  176.2940  135.5780 C   0  0  0  0  0  2  0  0  0  0  0  0
  186.4400  177.4780  135.4790 N   0  0  0  0  0  2  0  0  0  0  0  0
  185.2200  177.2840  136.2610 C   0  0  2  0  0  3  0  0  0  0  0  0
  185.4270  177.6460  137.5960 O   0  0  0  0  0  1  0  0  0  0  0  0
  184.7850  175.9570  136.1860 O   0  0  0  0  0  0  0  0  0  0  0  0
  184.3190  175.6600  137.4680 C   0  0  0  0  0  2  0  0  0  0  0  0
  184.4750  174.2960  137.7190 O   0  0  0  0  0  0  0  0  0  0  0  0
  184.4790  173.6960  136.4550 C   0  0  2  0  0  3  0  0  0  0  0  0
  184.2800  172.1760  136.6190 C   0  0  0  0  0  0  0  0  0  0  0  0
  186.6800  172.6800  137.3380 C   0  0  0  0  0  1  0  0  0  0  0  0
  185.6080  172.8310  136.2700 C   0  0  2  0  0  0  0  0  0  0  0  0
  185.9840  172.6060  134.9460 O   0  0  0  0  0  1  0  0  0  0  0  0
  183.5890  171.1990  136.8590 O   0  0  0  0  0  0  0  0  0  0  0  0
  1 11  1  0  0  0  0
  2  6  1  0  0  0  0
  2  3  2  0  0  0  0
  3  1  1  0  0  0  0
  4 37  1  1  0  0  0
  4  2  1  0  0  0  0
  5  1  1  0  0  0  0
  6  5  1  0  0  0  0
  7 15  1  1  0  0  0
  8 10  2  0  0  0  0
  8  7  1  0  0  0  0
  9  7  1  0  0  0  0
  9 13  1  1  0  0  0
 11 12  1  0  0  0  0
 11 14  2  0  0  0  0
 12  8  1  0  0  0  0
 14  9  1  0  0  0  0
 16 15  1  0  0  0  0
 17 22  1  0  0  0  0
 18 16  1  1  0  0  0
 18 19  1  0  0  0  0
 19 22  1  0  0  0  0
 19 21  1  6  0  0  0
 20 23  1  6  0  0  0
 20 18  1  0  0  0  0
 20 17  1  0  0  0  0
 24  4  1  0  0  0  0
 25 24  2  0  0  0  0
 26 29  1  0  0  0  0
 26 25  1  0  0  0  0
 27 30  1  0  0  0  0
 28 32  1  0  0  0  0
 29 27  1  0  0  0  0
 29 31  1  0  0  0  0
 30 28  1  0  0  0  0
 31 32  1  0  0  0  0
 32 33  1  6  0  0  0
 33 35  1  0  0  0  0
 34 33  2  0  0  0  0
 36 37  2  0  0  0  0
 38 36  1  0  0  0  0
 39 38  1  0  0  0  0
 39 40  1  0  0  0  0
 40 41  1  1  0  0  0
 42 40  1  0  0  0  0
 42 43  1  0  0  0  0
 43 44  1  0  0  0  0
 45 46  1  0  0  0  0
 45 44  1  1  0  0  0
 46 50  2  0  0  0  0
 48 45  1  0  0  0  0
 48 46  1  0  0  0  0
 48 47  1  1  0  0  0
 49 48  1  0  0  0  0
M  END
>  <MODEL>
8

>  <REMARK>
 VINA RESULT:      -6.4      4.016     11.643
  Name = 
  16 active torsions:
  status: ('A' for Active; 'I' for Inactive)
    1  A    between atoms: C_1  and  C_11
    2  A    between atoms: N_2  and  C_25
    3  A    between atoms: N_4  and  C_5
    4  A    between atoms: N_4  and  C_18
    5  A    between atoms: C_5  and  O_29
    6  A    between atoms: C_6  and  O_39
    7  A    between atoms: C_7  and  C_18
    8  A    between atoms: N_8  and  C_40
    9  A    between atoms: C_11  and  O_48
   10  A    between atoms: C_13  and  C_45
   11  A    between atoms: C_16  and  O_29
   12  A    between atoms: C_16  and  O_39
   13  A    between atoms: C_19  and  C_25
   14  A    between atoms: C_22  and  O_48
   15  A    between atoms: C_23  and  N_32
   16  A    between atoms: C_23  and  C_43
                            x       y       z     vdW  Elec       q    Type
                         _______ _______ _______ _____ _____    ______ ____

>  <TORSDO>
F 16

$$$$
=
 OpenBabel10232411203D

 50 54  0  0  1  0  0  0  0  0999 V2000
  189.9800  176.3520  135.7470 N   0  0  0  0  0  0  0  0  0  0  0  0
  188.4250  177.5320  137.0320 C   0  0  0  0  0  0  0  0  0  0  0  0
  189.7370  177.0110  136.9540 N   0  0  0  0  0  0  0  0  0  0  0  0
  187.9270  178.1410  138.1250 C   0  0  1  0  0  3  0  0  0  0  0  0
  188.8510  176.2980  134.8260 C   0  0  0  0  0  2  0  0  0  0  0  0
  187.4610  177.2540  135.5490 S   0  0  0  0  0  0  0  0  0  0  0  0
  193.9790  174.7100  135.6800 C   0  0  1  0  0  3  0  0  0  0  0  0
  193.6780  176.1280  135.2520 C   0  0  0  0  0  0  0  0  0  0  0  0
  192.7630  173.7810  135.4910 C   0  0  1  0  0  3  0  0  0  0  0  0
  194.5440  176.9860  135.3280 O   0  0  0  0  0  0  0  0  0  0  0  0
  191.2430  175.7350  135.4620 C   0  0  0  0  0  0  0  0  0  0  0  0
  192.3160  176.5040  134.7400 C   0  0  0  0  0  2  0  0  0  0  0  0
  192.8980  172.5340  136.3440 C   0  0  0  0  0  1  0  0  0  0  0  0
  191.4660  174.4630  135.8190 C   0  0  0  0  0  3  0  0  0  0  0  0
  195.1640  174.1800  134.8820 C   0  0  0  0  0  2  0  0  0  0  0  0
  196.3550  174.7100  135.3800 O   0  0  0  0  0  0  0  0  0  0  0  0
  199.0730  173.7250  137.7290 S   0  0  0  0  0  0  0  0  0  0  0  0
  196.6930  173.8860  136.4560 C   0  0  2  0  0  3  0  0  0  0  0  0
  196.6530  174.6940  137.7440 C   0  0  1  0  0  3  0  0  0  0  0  0
  198.0940  173.3400  136.2540 C   0  0  2  0  0  3  0  0  0  0  0  0
  195.9940  173.8850  138.8470 C   0  0  0  0  0  1  0  0  0  0  0  0
  198.0030  175.0720  138.1360 N   0  0  0  0  0  2  0  0  0  0  0  0
  198.0330  171.8360  136.0610 C   0  0  0  0  0  1  0  0  0  0  0  0
  186.5710  178.6100  138.0770 N   0  0  0  0  0  0  0  0  0  0  0  0
  185.6130  178.0950  138.7790 C   0  0  0  0  0  3  0  0  0  0  0  0
  184.2280  178.6390  138.6800 C   0  0  0  0  0  2  0  0  0  0  0  0
  182.9800  177.0240  139.7420 N   0  0  0  0  0  2  0  0  0  0  0  0
  181.8840  175.2570  138.3660 C   0  0  0  0  0  2  0  0  0  0  0  0
  183.2770  177.5570  138.4730 N   0  0  0  0  0  0  0  0  0  0  0  0
  181.8060  176.1520  139.6130 C   0  0  0  0  0  2  0  0  0  0  0  0
  183.9740  176.5280  137.6950 C   0  0  0  0  0  2  0  0  0  0  0  0
  183.3180  175.1460  137.8500 C   0  0  2  0  0  3  0  0  0  0  0  0
  183.3640  174.3900  136.5640 C   0  0  0  0  0  0  0  0  0  0  0  0
  183.3820  173.1300  136.5610 O   0  0  0  0  0  1  0  0  0  0  0  0
  183.3930  175.0830  135.3610 O   0  0  0  0  0  0  0  0  0  0  0  0
  188.8360  177.4670  140.3630 C   0  0  0  0  0  3  0  0  0  0  0  0
  188.7110  178.3490  139.3740 C   0  0  0  0  0  3  0  0  0  0  0  0
  189.6500  177.7920  141.5670 C   0  0  0  0  0  2  0  0  0  0  0  0
  190.9260  177.0870  141.5120 N   0  0  0  0  0  2  0  0  0  0  0  0
  191.5770  177.1310  142.8210 C   0  0  2  0  0  3  0  0  0  0  0  0
  191.4050  175.9200  143.4980 O   0  0  0  0  0  1  0  0  0  0  0  0
  191.0780  178.1870  143.5900 O   0  0  0  0  0  0  0  0  0  0  0  0
  190.8700  177.6390  144.8570 C   0  0  0  0  0  2  0  0  0  0  0  0
  189.8120  178.2980  145.4850 O   0  0  0  0  0  0  0  0  0  0  0  0
  188.9450  177.2790  145.8930 C   0  0  2  0  0  3  0  0  0  0  0  0
  187.6010  177.9030  146.3190 C   0  0  0  0  0  0  0  0  0  0  0  0
  189.2680  178.4110  148.1890 C   0  0  0  0  0  1  0  0  0  0  0  0
  188.6360  177.3570  147.2910 C   0  0  2  0  0  0  0  0  0  0  0  0
  188.2330  176.1630  147.8870 O   0  0  0  0  0  1  0  0  0  0  0  0
  186.5330  178.4360  146.0680 O   0  0  0  0  0  0  0  0  0  0  0  0
  1  3  1  0  0  0  0
  2  4  1  0  0  0  0
  3  2  2  0  0  0  0
  4 37  1  1  0  0  0
  5  6  1  0  0  0  0
  5  1  1  0  0  0  0
  6  2  1  0  0  0  0
  7 15  1  6  0  0  0
  8 10  2  0  0  0  0
  8  7  1  0  0  0  0
  9  7  1  0  0  0  0
  9 14  1  0  0  0  0
  9 13  1  1  0  0  0
 11  1  1  0  0  0  0
 11 14  2  0  0  0  0
 12  8  1  0  0  0  0
 12 11  1  0  0  0  0
 15 16  1  0  0  0  0
 17 22  1  0  0  0  0
 18 16  1  6  0  0  0
 18 19  1  0  0  0  0
 19 22  1  0  0  0  0
 19 21  1  1  0  0  0
 20 23  1  1  0  0  0
 20 18  1  0  0  0  0
 20 17  1  0  0  0  0
 24  4  1  0  0  0  0
 24 25  2  0  0  0  0
 26 25  1  0  0  0  0
 28 30  1  0  0  0  0
 29 26  1  0  0  0  0
 29 27  1  0  0  0  0
 30 27  1  0  0  0  0
 31 32  1  0  0  0  0
 31 29  1  0  0  0  0
 32 33  1  6  0  0  0
 32 28  1  0  0  0  0
 34 33  1  0  0  0  0
 35 33  2  0  0  0  0
 36 38  1  0  0  0  0
 37 36  2  0  0  0  0
 39 38  1  0  0  0  0
 39 40  1  0  0  0  0
 40 41  1  1  0  0  0
 40 42  1  0  0  0  0
 42 43  1  0  0  0  0
 43 44  1  0  0  0  0
 45 44  1  1  0  0  0
 45 46  1  0  0  0  0
 45 48  1  0  0  0  0
 46 48  1  0  0  0  0
 48 49  1  0  0  0  0
 48 47  1  1  0  0  0
 50 46  2  0  0  0  0
M  END
>  <MODEL>
9

>  <REMARK>
 VINA RESULT:      -6.4      3.466      5.238
  Name = 
  16 active torsions:
  status: ('A' for Active; 'I' for Inactive)
    1  A    between atoms: C_1  and  C_11
    2  A    between atoms: N_2  and  C_25
    3  A    between atoms: N_4  and  C_5
    4  A    between atoms: N_4  and  C_18
    5  A    between atoms: C_5  and  O_29
    6  A    between atoms: C_6  and  O_39
    7  A    between atoms: C_7  and  C_18
    8  A    between atoms: N_8  and  C_40
    9  A    between atoms: C_11  and  O_48
   10  A    between atoms: C_13  and  C_45
   11  A    between atoms: C_16  and  O_29
   12  A    between atoms: C_16  and  O_39
   13  A    between atoms: C_19  and  C_25
   14  A    between atoms: C_22  and  O_48
   15  A    between atoms: C_23  and  N_32
   16  A    between atoms: C_23  and  C_43
                            x       y       z     vdW  Elec       q    Type
                         _______ _______ _______ _____ _____    ______ ____

>  <TORSDO>
F 16

$$$$
