=
 OpenBabel10232411023D

 26 28  0  0  1  0  0  0  0  0999 V2000
  189.9720  177.5900  145.4660 N   0  0  0  0  0  2  0  0  0  0  0  0
  189.8470  177.5450  144.0410 C   0  0  0  0  0  0  0  0  0  0  0  0
  189.1820  176.7990  147.4950 O   0  0  0  0  0  0  0  0  0  0  0  0
  188.9080  177.3550  146.3980 C   0  0  0  0  0  0  0  0  0  0  0  0
  188.8360  177.0230  143.4980 O   0  0  0  0  0  0  0  0  0  0  0  0
  185.6820  178.2110  144.6210 C   0  0  0  0  0  0  0  0  0  0  0  0
  184.9240  178.7030  145.7010 C   0  0  0  0  0  0  0  0  0  0  0  0
  187.5210  177.7960  146.1380 C   0  0  0  0  0  0  0  0  0  0  0  0
  183.0890  179.1180  144.2560 C   0  0  0  0  0  3  0  0  0  0  0  0
  183.6540  179.1430  145.4930 N   0  0  0  0  0  0  0  0  0  0  0  0
  183.8120  178.6370  143.1590 C   0  0  0  0  0  3  0  0  0  0  0  0
  186.7350  178.3070  147.1820 C   0  0  0  0  0  3  0  0  0  0  0  0
  185.4680  178.7410  146.9470 N   0  0  0  0  0  0  0  0  0  0  0  0
  185.1180  178.1810  143.3450 C   0  0  0  0  0  3  0  0  0  0  0  0
  186.9820  177.7630  144.8450 C   0  0  0  0  0  3  0  0  0  0  0  0
  190.9420  178.1020  143.1970 C   0  0  1  0  0  3  0  0  0  0  0  0
  191.9700  178.5620  144.0030 F   0  0  0  0  0  0  0  0  0  0  0  0
  191.4510  177.0330  142.2410 C   0  0  0  0  0  2  0  0  0  0  0  0
  191.3460  177.4980  140.7990 C   0  0  0  0  0  2  0  0  0  0  0  0
  190.0020  177.0780  140.1960 C   0  0  0  0  0  2  0  0  0  0  0  0
  189.2200  178.2030  139.6650 N   0  0  0  0  0  0  0  0  0  0  0  0
  188.6410  177.8430  138.3740 C   0  0  0  0  0  3  0  0  0  0  0  0
  189.7430  177.4090  137.4230 C   0  0  0  0  0  2  0  0  0  0  0  0
  189.1480  178.7940  137.3030 C   0  0  0  0  0  2  0  0  0  0  0  0
  186.8700  178.5290  139.8690 N   0  0  0  0  0  1  0  0  0  0  0  0
  188.1330  178.5190  140.5860 C   0  0  0  0  0  2  0  0  0  0  0  0
  1  4  1  0  0  0  0
  2  1  1  0  0  0  0
  4  3  2  0  0  0  0
  5  2  2  0  0  0  0
  6 15  1  0  0  0  0
  6  7  1  0  0  0  0
  7 13  1  0  0  0  0
  8  4  1  0  0  0  0
  8 12  1  0  0  0  0
  9 10  1  0  0  0  0
 10  7  2  0  0  0  0
 11 14  1  0  0  0  0
 11  9  2  0  0  0  0
 13 12  2  0  0  0  0
 14  6  2  0  0  0  0
 15  8  2  0  0  0  0
 16 17  1  1  0  0  0
 16  2  1  0  0  0  0
 18 16  1  0  0  0  0
 19 18  1  0  0  0  0
 20 19  1  0  0  0  0
 21 20  1  0  0  0  0
 21 26  1  0  0  0  0
 22 21  1  0  0  0  0
 23 22  1  0  0  0  0
 24 23  1  0  0  0  0
 24 22  1  0  0  0  0
 25 26  1  0  0  0  0
M  END
>  <MODEL>
1

>  <REMARK>
 VINA RESULT:      -8.4      0.000      0.000
  Name = 
  8 active torsions:
  status: ('A' for Active; 'I' for Inactive)
    1  A    between atoms: C_1  and  C_10
    2  A    between atoms: C_1  and  C_21
    3  A    between atoms: C_3  and  C_21
    4  A    between atoms: C_3  and  C_23
    5  A    between atoms: C_5  and  N_18
    6  A    between atoms: C_8  and  C_14
    7  A    between atoms: N_18  and  C_23
    8  A    between atoms: N_18  and  C_24
                            x       y       z     vdW  Elec       q    Type
                         _______ _______ _______ _____ _____    ______ ____

>  <TORSDO>
F 8

$$$$
=
 OpenBabel10232411023D

 26 28  0  0  1  0  0  0  0  0999 V2000
  184.4600  178.9740  145.4590 N   0  0  0  0  0  2  0  0  0  0  0  0
  185.7460  178.3520  145.5490 C   0  0  0  0  0  0  0  0  0  0  0  0
  182.3340  178.8800  144.5450 O   0  0  0  0  0  0  0  0  0  0  0  0
  183.5760  178.8900  144.3340 C   0  0  0  0  0  0  0  0  0  0  0  0
  186.0840  177.4490  144.7360 O   0  0  0  0  0  0  0  0  0  0  0  0
  183.9130  178.1170  140.6480 C   0  0  0  0  0  0  0  0  0  0  0  0
  185.0930  178.8260  140.3500 C   0  0  0  0  0  0  0  0  0  0  0  0
  184.0720  178.8740  142.9410 C   0  0  0  0  0  0  0  0  0  0  0  0
  184.9760  178.1190  138.0880 C   0  0  0  0  0  3  0  0  0  0  0  0
  185.5920  178.8090  139.0860 N   0  0  0  0  0  0  0  0  0  0  0  0
  183.8030  177.4020  138.3470 C   0  0  0  0  0  3  0  0  0  0  0  0
  185.2510  179.5550  142.6030 C   0  0  0  0  0  3  0  0  0  0  0  0
  185.7300  179.5210  141.3300 N   0  0  0  0  0  0  0  0  0  0  0  0
  183.2700  177.4020  139.6380 C   0  0  0  0  0  3  0  0  0  0  0  0
  183.4110  178.1400  141.9470 C   0  0  0  0  0  3  0  0  0  0  0  0
  186.6810  178.7650  146.6330 C   0  0  1  0  0  3  0  0  0  0  0  0
  186.0080  179.5370  147.5650 F   0  0  0  0  0  0  0  0  0  0  0  0
  187.2820  177.5340  147.2940 C   0  0  0  0  0  2  0  0  0  0  0  0
  188.7900  177.6620  147.4170 C   0  0  0  0  0  2  0  0  0  0  0  0
  189.4310  177.7990  146.0320 C   0  0  0  0  0  2  0  0  0  0  0  0
  190.5860  176.9130  145.8300 N   0  0  0  0  0  0  0  0  0  0  0  0
  191.5730  177.5670  144.9740 C   0  0  0  0  0  3  0  0  0  0  0  0
  190.8680  178.2730  143.8290 C   0  0  0  0  0  2  0  0  0  0  0  0
  191.5420  176.9410  143.5900 C   0  0  0  0  0  2  0  0  0  0  0  0
  192.2670  175.6440  146.9410 N   0  0  0  0  0  1  0  0  0  0  0  0
  191.2110  176.6250  147.1180 C   0  0  0  0  0  2  0  0  0  0  0  0
  1  2  1  0  0  0  0
  2 16  1  0  0  0  0
  4  3  2  0  0  0  0
  4  1  1  0  0  0  0
  5  2  2  0  0  0  0
  6 15  1  0  0  0  0
  7  6  1  0  0  0  0
  7 13  1  0  0  0  0
  8  4  1  0  0  0  0
  9 11  2  0  0  0  0
  9 10  1  0  0  0  0
 10  7  2  0  0  0  0
 11 14  1  0  0  0  0
 12  8  1  0  0  0  0
 13 12  2  0  0  0  0
 14  6  2  0  0  0  0
 15  8  2  0  0  0  0
 16 18  1  0  0  0  0
 16 17  1  1  0  0  0
 18 19  1  0  0  0  0
 20 19  1  0  0  0  0
 21 20  1  0  0  0  0
 21 26  1  0  0  0  0
 22 21  1  0  0  0  0
 23 22  1  0  0  0  0
 24 23  1  0  0  0  0
 24 22  1  0  0  0  0
 25 26  1  0  0  0  0
M  END
>  <MODEL>
2

>  <REMARK>
 VINA RESULT:      -8.4      2.866      6.115
  Name = 
  8 active torsions:
  status: ('A' for Active; 'I' for Inactive)
    1  A    between atoms: C_1  and  C_10
    2  A    between atoms: C_1  and  C_21
    3  A    between atoms: C_3  and  C_21
    4  A    between atoms: C_3  and  C_23
    5  A    between atoms: C_5  and  N_18
    6  A    between atoms: C_8  and  C_14
    7  A    between atoms: N_18  and  C_23
    8  A    between atoms: N_18  and  C_24
                            x       y       z     vdW  Elec       q    Type
                         _______ _______ _______ _____ _____    ______ ____

>  <TORSDO>
F 8

$$$$
=
 OpenBabel10232411023D

 26 28  0  0  1  0  0  0  0  0999 V2000
  185.7570  178.7760  145.8440 N   0  0  0  0  0  2  0  0  0  0  0  0
  186.8690  177.9150  145.5780 C   0  0  0  0  0  0  0  0  0  0  0  0
  183.4960  179.1620  145.5130 O   0  0  0  0  0  0  0  0  0  0  0  0
  184.6220  178.9520  144.9870 C   0  0  0  0  0  0  0  0  0  0  0  0
  186.8000  177.0320  144.6810 O   0  0  0  0  0  0  0  0  0  0  0  0
  183.9380  178.2930  141.3260 C   0  0  0  0  0  0  0  0  0  0  0  0
  185.0530  178.9280  140.7450 C   0  0  0  0  0  0  0  0  0  0  0  0
  184.7400  178.9520  143.5130 C   0  0  0  0  0  0  0  0  0  0  0  0
  184.3040  178.3150  138.5790 C   0  0  0  0  0  3  0  0  0  0  0  0
  185.2080  178.9230  139.3940 N   0  0  0  0  0  0  0  0  0  0  0  0
  183.1850  177.6730  139.1200 C   0  0  0  0  0  3  0  0  0  0  0  0
  185.8420  179.5600  142.8920 C   0  0  0  0  0  3  0  0  0  0  0  0
  185.9730  179.5400  141.5380 N   0  0  0  0  0  0  0  0  0  0  0  0
  183.0030  177.6630  140.5050 C   0  0  0  0  0  3  0  0  0  0  0  0
  183.7900  178.3040  142.7110 C   0  0  0  0  0  3  0  0  0  0  0  0
  188.1090  178.0550  146.3930 C   0  0  1  0  0  3  0  0  0  0  0  0
  187.7780  178.2440  147.7240 F   0  0  0  0  0  0  0  0  0  0  0  0
  188.9760  176.8160  146.2300 C   0  0  0  0  0  2  0  0  0  0  0  0
  190.3160  176.9940  146.9230 C   0  0  0  0  0  2  0  0  0  0  0  0
  191.4580  176.9470  145.9030 C   0  0  0  0  0  2  0  0  0  0  0  0
  190.9980  176.9570  144.5070 N   0  0  0  0  0  0  0  0  0  0  0  0
  191.6020  178.0770  143.7900 C   0  0  0  0  0  3  0  0  0  0  0  0
  191.2140  179.3830  144.4620 C   0  0  0  0  0  2  0  0  0  0  0  0
  190.5110  178.9500  143.1950 C   0  0  0  0  0  2  0  0  0  0  0  0
  190.4800  175.4090  142.7730 N   0  0  0  0  0  1  0  0  0  0  0  0
  191.4030  175.7170  143.8510 C   0  0  0  0  0  2  0  0  0  0  0  0
  2  1  1  0  0  0  0
  2 16  1  0  0  0  0
  4  3  2  0  0  0  0
  4  1  1  0  0  0  0
  5  2  2  0  0  0  0
  6 15  1  0  0  0  0
  7  6  1  0  0  0  0
  7 13  1  0  0  0  0
  8  4  1  0  0  0  0
  9 11  2  0  0  0  0
  9 10  1  0  0  0  0
 10  7  2  0  0  0  0
 11 14  1  0  0  0  0
 12  8  1  0  0  0  0
 13 12  2  0  0  0  0
 14  6  2  0  0  0  0
 15  8  2  0  0  0  0
 16 17  1  1  0  0  0
 18 16  1  0  0  0  0
 18 19  1  0  0  0  0
 20 19  1  0  0  0  0
 21 20  1  0  0  0  0
 22 23  1  0  0  0  0
 22 21  1  0  0  0  0
 24 22  1  0  0  0  0
 24 23  1  0  0  0  0
 25 26  1  0  0  0  0
 26 21  1  0  0  0  0
M  END
>  <MODEL>
3

>  <REMARK>
 VINA RESULT:      -8.3      2.794      5.152
  Name = 
  8 active torsions:
  status: ('A' for Active; 'I' for Inactive)
    1  A    between atoms: C_1  and  C_10
    2  A    between atoms: C_1  and  C_21
    3  A    between atoms: C_3  and  C_21
    4  A    between atoms: C_3  and  C_23
    5  A    between atoms: C_5  and  N_18
    6  A    between atoms: C_8  and  C_14
    7  A    between atoms: N_18  and  C_23
    8  A    between atoms: N_18  and  C_24
                            x       y       z     vdW  Elec       q    Type
                         _______ _______ _______ _____ _____    ______ ____

>  <TORSDO>
F 8

$$$$
=
 OpenBabel10232411023D

 26 28  0  0  1  0  0  0  0  0999 V2000
  184.1920  178.2140  140.6230 N   0  0  0  0  0  2  0  0  0  0  0  0
  185.4960  178.7710  140.4250 C   0  0  0  0  0  0  0  0  0  0  0  0
  182.1120  178.4800  141.6070 O   0  0  0  0  0  0  0  0  0  0  0  0
  183.3620  178.4370  141.7690 C   0  0  0  0  0  0  0  0  0  0  0  0
  185.9020  179.7290  141.1370 O   0  0  0  0  0  0  0  0  0  0  0  0
  185.6510  178.1070  144.7600 C   0  0  0  0  0  0  0  0  0  0  0  0
  184.8800  178.7630  145.7390 C   0  0  0  0  0  0  0  0  0  0  0  0
  183.9170  178.5590  143.1330 C   0  0  1  0  0  3  0  0  0  0  0  0
  186.5550  178.3530  147.3680 C   0  0  0  0  0  3  0  0  0  0  0  0
  185.3470  178.8680  147.0120 N   0  0  0  0  0  0  0  0  0  0  0  0
  187.3490  177.6950  146.4230 C   0  0  0  0  0  3  0  0  0  0  0  0
  183.1760  179.1910  144.1440 C   0  0  0  0  0  3  0  0  0  0  0  0
  183.6670  179.2820  145.4090 N   0  0  0  0  0  0  0  0  0  0  0  0
  186.8910  177.5720  145.1090 C   0  0  0  0  0  2  0  0  0  0  0  0
  185.1620  178.0040  143.4600 C   0  0  0  0  0  3  0  0  0  0  0  0
  186.3660  178.2220  139.3470 C   0  0  1  0  0  3  0  0  0  0  0  0
  186.0640  178.8330  138.1420 F   0  0  0  0  0  0  0  0  0  0  0  0
  187.8290  178.4400  139.7030 C   0  0  0  0  0  2  0  0  0  0  0  0
  188.2870  177.4470  140.7580 C   0  0  0  0  0  2  0  0  0  0  0  0
  188.9070  178.1800  141.9510 C   0  0  0  0  0  2  0  0  0  0  0  0
  190.3450  177.9250  142.1140 N   0  0  0  0  0  0  0  0  0  0  0  0
  190.6250  177.4980  143.4820 C   0  0  0  0  0  3  0  0  0  0  0  0
  190.2650  178.6120  144.4490 C   0  0  0  0  0  2  0  0  0  0  0  0
  191.7120  178.3750  144.0790 C   0  0  0  0  0  2  0  0  0  0  0  0
  191.7700  177.3630  140.2910 N   0  0  0  0  0  1  0  0  0  0  0  0
  190.7580  176.8620  141.2040 C   0  0  0  0  0  2  0  0  0  0  0  0
  1  4  1  0  0  0  0
  2  1  1  0  0  0  0
  2  5  2  0  0  0  0
  3  4  2  0  0  0  0
  6 14  1  0  0  0  0
  6  7  1  0  0  0  0
  7 10  2  0  0  0  0
  8  4  1  1  0  0  0
  8 15  1  0  0  0  0
  8 12  1  0  0  0  0
 10  9  1  0  0  0  0
 11  9  2  0  0  0  0
 12 13  2  0  0  0  0
 13  7  1  0  0  0  0
 14 11  1  0  0  0  0
 15  6  2  0  0  0  0
 16 17  1  6  0  0  0
 16 18  1  0  0  0  0
 16  2  1  0  0  0  0
 18 19  1  0  0  0  0
 19 20  1  0  0  0  0
 20 21  1  0  0  0  0
 21 22  1  0  0  0  0
 22 24  1  0  0  0  0
 22 23  1  0  0  0  0
 24 23  1  0  0  0  0
 25 26  1  0  0  0  0
 26 21  1  0  0  0  0
M  END
>  <MODEL>
4

>  <REMARK>
 VINA RESULT:      -8.3      2.822      5.137
  Name = 
  8 active torsions:
  status: ('A' for Active; 'I' for Inactive)
    1  A    between atoms: C_1  and  C_10
    2  A    between atoms: C_1  and  C_21
    3  A    between atoms: C_3  and  C_21
    4  A    between atoms: C_3  and  C_23
    5  A    between atoms: C_5  and  N_18
    6  A    between atoms: C_8  and  C_14
    7  A    between atoms: N_18  and  C_23
    8  A    between atoms: N_18  and  C_24
                            x       y       z     vdW  Elec       q    Type
                         _______ _______ _______ _____ _____    ______ ____

>  <TORSDO>
F 8

$$$$
=
 OpenBabel10232411023D

 26 28  0  0  1  0  0  0  0  0999 V2000
  189.4540  177.6130  142.3800 N   0  0  0  0  0  2  0  0  0  0  0  0
  190.0350  176.5640  143.1620 C   0  0  0  0  0  0  0  0  0  0  0  0
  188.4970  178.2020  140.3540 O   0  0  0  0  0  0  0  0  0  0  0  0
  189.4850  177.6940  140.9500 C   0  0  0  0  0  0  0  0  0  0  0  0
  190.3890  175.4800  142.6250 O   0  0  0  0  0  0  0  0  0  0  0  0
  191.6280  175.9820  138.3470 C   0  0  0  0  0  0  0  0  0  0  0  0
  192.9060  176.4100  138.7540 C   0  0  0  0  0  0  0  0  0  0  0  0
  190.6560  177.2560  140.1610 C   0  0  1  0  0  3  0  0  0  0  0  0
  193.9070  175.1850  136.9850 C   0  0  0  0  0  3  0  0  0  0  0  0
  194.0080  176.0020  138.0690 N   0  0  0  0  0  0  0  0  0  0  0  0
  192.6540  174.7400  136.5510 C   0  0  0  0  0  3  0  0  0  0  0  0
  191.9490  177.6450  140.5400 C   0  0  0  0  0  3  0  0  0  0  0  0
  193.0340  177.2230  139.8360 N   0  0  0  0  0  0  0  0  0  0  0  0
  191.5070  175.1430  137.2390 C   0  0  0  0  0  2  0  0  0  0  0  0
  190.5070  176.4040  139.0570 C   0  0  0  0  0  3  0  0  0  0  0  0
  190.1960  176.7550  144.6310 C   0  0  1  0  0  3  0  0  0  0  0  0
  191.5410  176.8250  144.9520 F   0  0  0  0  0  0  0  0  0  0  0  0
  189.4770  178.0220  145.0690 C   0  0  0  0  0  2  0  0  0  0  0  0
  188.2840  177.6950  145.9520 C   0  0  0  0  0  2  0  0  0  0  0  0
  187.0450  177.4130  145.0960 C   0  0  0  0  0  2  0  0  0  0  0  0
  186.0810  178.5220  145.0780 N   0  0  0  0  0  0  0  0  0  0  0  0
  185.0930  178.3070  144.0240 C   0  0  0  0  0  3  0  0  0  0  0  0
  185.8000  178.0170  142.7120 C   0  0  0  0  0  2  0  0  0  0  0  0
  185.2260  179.3920  142.9700 C   0  0  0  0  0  2  0  0  0  0  0  0
  183.9760  178.8650  146.1380 N   0  0  0  0  0  1  0  0  0  0  0  0
  185.3840  178.5850  146.3590 C   0  0  0  0  0  2  0  0  0  0  0  0
  1  2  1  0  0  0  0
  2 16  1  0  0  0  0
  3  4  2  0  0  0  0
  4  1  1  0  0  0  0
  5  2  2  0  0  0  0
  6  7  1  0  0  0  0
  6 15  2  0  0  0  0
  7 13  1  0  0  0  0
  8 12  1  0  0  0  0
  8  4  1  1  0  0  0
  9 10  1  0  0  0  0
 10  7  2  0  0  0  0
 11  9  2  0  0  0  0
 11 14  1  0  0  0  0
 13 12  2  0  0  0  0
 14  6  1  0  0  0  0
 15  8  1  0  0  0  0
 16 17  1  6  0  0  0
 16 18  1  0  0  0  0
 18 19  1  0  0  0  0
 20 19  1  0  0  0  0
 21 20  1  0  0  0  0
 21 26  1  0  0  0  0
 22 21  1  0  0  0  0
 23 24  1  0  0  0  0
 23 22  1  0  0  0  0
 24 22  1  0  0  0  0
 25 26  1  0  0  0  0
M  END
>  <MODEL>
5

>  <REMARK>
 VINA RESULT:      -8.2      2.429      7.620
  Name = 
  8 active torsions:
  status: ('A' for Active; 'I' for Inactive)
    1  A    between atoms: C_1  and  C_10
    2  A    between atoms: C_1  and  C_21
    3  A    between atoms: C_3  and  C_21
    4  A    between atoms: C_3  and  C_23
    5  A    between atoms: C_5  and  N_18
    6  A    between atoms: C_8  and  C_14
    7  A    between atoms: N_18  and  C_23
    8  A    between atoms: N_18  and  C_24
                            x       y       z     vdW  Elec       q    Type
                         _______ _______ _______ _____ _____    ______ ____

>  <TORSDO>
F 8

$$$$
=
 OpenBabel10232411023D

 26 28  0  0  1  0  0  0  0  0999 V2000
  189.5270  176.9080  141.3040 N   0  0  0  0  0  2  0  0  0  0  0  0
  188.3090  177.4390  141.8370 C   0  0  0  0  0  0  0  0  0  0  0  0
  191.3550  177.2840  139.9320 O   0  0  0  0  0  0  0  0  0  0  0  0
  190.1000  177.2600  140.0390 C   0  0  0  0  0  0  0  0  0  0  0  0
  187.7840  178.4720  141.3400 O   0  0  0  0  0  0  0  0  0  0  0  0
  187.7900  176.7950  137.0800 C   0  0  0  0  0  0  0  0  0  0  0  0
  187.7770  178.1060  136.5650 C   0  0  0  0  0  0  0  0  0  0  0  0
  189.2690  177.5360  138.8470 C   0  0  0  0  0  0  0  0  0  0  0  0
  186.3190  177.4310  134.8190 C   0  0  0  0  0  3  0  0  0  0  0  0
  187.0470  178.3890  135.4530 N   0  0  0  0  0  0  0  0  0  0  0  0
  186.3080  176.1180  135.3020 C   0  0  0  0  0  3  0  0  0  0  0  0
  189.2380  178.8240  138.2910 C   0  0  0  0  0  3  0  0  0  0  0  0
  188.5000  179.0810  137.1780 N   0  0  0  0  0  0  0  0  0  0  0  0
  187.0510  175.8000  136.4410 C   0  0  0  0  0  3  0  0  0  0  0  0
  188.5420  176.5160  138.2190 C   0  0  0  0  0  3  0  0  0  0  0  0
  187.6750  176.7710  143.0090 C   0  0  1  0  0  3  0  0  0  0  0  0
  188.5100  175.7780  143.4930 F   0  0  0  0  0  0  0  0  0  0  0  0
  187.3830  177.7980  144.0930 C   0  0  0  0  0  2  0  0  0  0  0  0
  187.7850  177.2750  145.4620 C   0  0  0  0  0  2  0  0  0  0  0  0
  189.1060  177.9080  145.9110 C   0  0  0  0  0  2  0  0  0  0  0  0
  190.2460  176.9810  145.8660 N   0  0  0  0  0  0  0  0  0  0  0  0
  191.4140  177.6530  145.3030 C   0  0  0  0  0  3  0  0  0  0  0  0
  190.9810  178.5630  144.1670 C   0  0  0  0  0  2  0  0  0  0  0  0
  191.6050  177.2200  143.8590 C   0  0  0  0  0  2  0  0  0  0  0  0
  191.9280  176.9470  147.5510 N   0  0  0  0  0  1  0  0  0  0  0  0
  190.5730  176.5440  147.2200 C   0  0  0  0  0  2  0  0  0  0  0  0
  1  2  1  0  0  0  0
  2 16  1  0  0  0  0
  3  4  2  0  0  0  0
  4  1  1  0  0  0  0
  5  2  2  0  0  0  0
  6 15  1  0  0  0  0
  7  6  1  0  0  0  0
  7 13  1  0  0  0  0
  8  4  1  0  0  0  0
  9 11  2  0  0  0  0
  9 10  1  0  0  0  0
 10  7  2  0  0  0  0
 11 14  1  0  0  0  0
 12  8  1  0  0  0  0
 13 12  2  0  0  0  0
 14  6  2  0  0  0  0
 15  8  2  0  0  0  0
 16 17  1  1  0  0  0
 16 18  1  0  0  0  0
 18 19  1  0  0  0  0
 19 20  1  0  0  0  0
 21 20  1  0  0  0  0
 21 26  1  0  0  0  0
 22 21  1  0  0  0  0
 23 22  1  0  0  0  0
 24 23  1  0  0  0  0
 24 22  1  0  0  0  0
 26 25  1  0  0  0  0
M  END
>  <MODEL>
6

>  <REMARK>
 VINA RESULT:      -8.0      3.017      7.319
  Name = 
  8 active torsions:
  status: ('A' for Active; 'I' for Inactive)
    1  A    between atoms: C_1  and  C_10
    2  A    between atoms: C_1  and  C_21
    3  A    between atoms: C_3  and  C_21
    4  A    between atoms: C_3  and  C_23
    5  A    between atoms: C_5  and  N_18
    6  A    between atoms: C_8  and  C_14
    7  A    between atoms: N_18  and  C_23
    8  A    between atoms: N_18  and  C_24
                            x       y       z     vdW  Elec       q    Type
                         _______ _______ _______ _____ _____    ______ ____

>  <TORSDO>
F 8

$$$$
=
 OpenBabel10232411023D

 26 28  0  0  1  0  0  0  0  0999 V2000
  187.1300  178.4050  145.4120 N   0  0  0  0  0  2  0  0  0  0  0  0
  187.5080  177.3010  144.5840 C   0  0  0  0  0  0  0  0  0  0  0  0
  185.4890  179.3280  146.7630 O   0  0  0  0  0  0  0  0  0  0  0  0
  185.7870  178.8530  145.6340 C   0  0  0  0  0  0  0  0  0  0  0  0
  186.6490  176.4630  144.1960 O   0  0  0  0  0  0  0  0  0  0  0  0
  184.1370  178.8870  142.2320 C   0  0  0  0  0  0  0  0  0  0  0  0
  182.7810  178.8460  142.6110 C   0  0  0  0  0  0  0  0  0  0  0  0
  184.7610  178.8280  144.5690 C   0  0  0  0  0  0  0  0  0  0  0  0
  182.1180  178.8920  140.3330 C   0  0  0  0  0  3  0  0  0  0  0  0
  181.8100  178.8510  141.6580 N   0  0  0  0  0  0  0  0  0  0  0  0
  183.4530  178.9340  139.9190 C   0  0  0  0  0  3  0  0  0  0  0  0
  183.3980  178.8020  144.9020 C   0  0  0  0  0  3  0  0  0  0  0  0
  182.4480  178.8080  143.9290 N   0  0  0  0  0  0  0  0  0  0  0  0
  184.4690  178.9310  140.8780 C   0  0  0  0  0  3  0  0  0  0  0  0
  185.1220  178.8820  143.2160 C   0  0  0  0  0  3  0  0  0  0  0  0
  188.9380  177.1350  144.2000 C   0  0  1  0  0  3  0  0  0  0  0  0
  189.7040  176.9000  145.3300 F   0  0  0  0  0  0  0  0  0  0  0  0
  189.0780  175.9860  143.2130 C   0  0  0  0  0  2  0  0  0  0  0  0
  190.4160  176.0440  142.4950 C   0  0  0  0  0  2  0  0  0  0  0  0
  190.4880  177.2810  141.5950 C   0  0  0  0  0  2  0  0  0  0  0  0
  189.9640  177.0530  140.2410 N   0  0  0  0  0  0  0  0  0  0  0  0
  189.2610  178.2440  139.7700 C   0  0  0  0  0  3  0  0  0  0  0  0
  188.1540  178.6020  140.7450 C   0  0  0  0  0  2  0  0  0  0  0  0
  187.8180  177.8930  139.4530 C   0  0  0  0  0  2  0  0  0  0  0  0
  190.8160  175.5460  138.6060 N   0  0  0  0  0  1  0  0  0  0  0  0
  191.0710  176.7790  139.3290 C   0  0  0  0  0  2  0  0  0  0  0  0
  1  4  1  0  0  0  0
  2  1  1  0  0  0  0
  4  3  2  0  0  0  0
  5  2  2  0  0  0  0
  6  7  1  0  0  0  0
  6 15  1  0  0  0  0
  7 13  1  0  0  0  0
  8 12  1  0  0  0  0
  8  4  1  0  0  0  0
  9 10  1  0  0  0  0
 10  7  2  0  0  0  0
 11  9  2  0  0  0  0
 11 14  1  0  0  0  0
 13 12  2  0  0  0  0
 14  6  2  0  0  0  0
 15  8  2  0  0  0  0
 16  2  1  0  0  0  0
 16 17  1  1  0  0  0
 18 16  1  0  0  0  0
 19 18  1  0  0  0  0
 20 19  1  0  0  0  0
 21 20  1  0  0  0  0
 22 21  1  0  0  0  0
 22 23  1  0  0  0  0
 24 22  1  0  0  0  0
 24 23  1  0  0  0  0
 25 26  1  0  0  0  0
 26 21  1  0  0  0  0
M  END
>  <MODEL>
7

>  <REMARK>
 VINA RESULT:      -8.0      2.181      3.277
  Name = 
  8 active torsions:
  status: ('A' for Active; 'I' for Inactive)
    1  A    between atoms: C_1  and  C_10
    2  A    between atoms: C_1  and  C_21
    3  A    between atoms: C_3  and  C_21
    4  A    between atoms: C_3  and  C_23
    5  A    between atoms: C_5  and  N_18
    6  A    between atoms: C_8  and  C_14
    7  A    between atoms: N_18  and  C_23
    8  A    between atoms: N_18  and  C_24
                            x       y       z     vdW  Elec       q    Type
                         _______ _______ _______ _____ _____    ______ ____

>  <TORSDO>
F 8

$$$$
=
 OpenBabel10232411023D

 26 28  0  0  1  0  0  0  0  0999 V2000
  183.8770  178.4030  142.3560 N   0  0  0  0  0  2  0  0  0  0  0  0
  184.9880  179.0560  141.7330 C   0  0  0  0  0  0  0  0  0  0  0  0
  182.3660  178.4260  144.1120 O   0  0  0  0  0  0  0  0  0  0  0  0
  183.5750  178.4380  143.7560 C   0  0  0  0  0  0  0  0  0  0  0  0
  185.6390  179.9460  142.3450 O   0  0  0  0  0  0  0  0  0  0  0  0
  186.8590  177.8480  145.5360 C   0  0  0  0  0  0  0  0  0  0  0  0
  186.5570  178.3830  146.8030 C   0  0  0  0  0  0  0  0  0  0  0  0
  184.6310  178.4300  144.7910 C   0  0  1  0  0  3  0  0  0  0  0  0
  188.7330  177.8410  147.5770 C   0  0  0  0  0  3  0  0  0  0  0  0
  187.4960  178.3660  147.7870 N   0  0  0  0  0  0  0  0  0  0  0  0
  189.0690  177.3000  146.3320 C   0  0  0  0  0  3  0  0  0  0  0  0
  184.3690  178.9390  146.0720 C   0  0  0  0  0  3  0  0  0  0  0  0
  185.3260  178.9090  147.0390 N   0  0  0  0  0  0  0  0  0  0  0  0
  188.1230  177.3040  145.3050 C   0  0  0  0  0  2  0  0  0  0  0  0
  185.8900  177.8700  144.5350 C   0  0  0  0  0  3  0  0  0  0  0  0
  185.3550  178.6930  140.3350 C   0  0  1  0  0  3  0  0  0  0  0  0
  184.7980  179.6000  139.4510 F   0  0  0  0  0  0  0  0  0  0  0  0
  186.8690  178.6670  140.1890 C   0  0  0  0  0  2  0  0  0  0  0  0
  187.5150  177.9110  141.3380 C   0  0  0  0  0  2  0  0  0  0  0  0
  189.0160  178.2090  141.3990 C   0  0  0  0  0  2  0  0  0  0  0  0
  189.8570  177.0070  141.3080 N   0  0  0  0  0  0  0  0  0  0  0  0
  190.8510  177.1720  140.2510 C   0  0  0  0  0  3  0  0  0  0  0  0
  190.1700  177.6460  138.9790 C   0  0  0  0  0  2  0  0  0  0  0  0
  190.5650  176.1940  139.1240 C   0  0  0  0  0  2  0  0  0  0  0  0
  190.4650  175.4100  142.9670 N   0  0  0  0  0  1  0  0  0  0  0  0
  190.5580  176.8050  142.5730 C   0  0  0  0  0  2  0  0  0  0  0  0
  1  4  1  0  0  0  0
  2  5  2  0  0  0  0
  2  1  1  0  0  0  0
  4  3  2  0  0  0  0
  6  7  1  0  0  0  0
  7 13  1  0  0  0  0
  7 10  2  0  0  0  0
  8  4  1  1  0  0  0
  8 12  1  0  0  0  0
  9 10  1  0  0  0  0
 11  9  2  0  0  0  0
 12 13  2  0  0  0  0
 14  6  1  0  0  0  0
 14 11  1  0  0  0  0
 15  8  1  0  0  0  0
 15  6  2  0  0  0  0
 16 17  1  6  0  0  0
 16  2  1  0  0  0  0
 18 16  1  0  0  0  0
 18 19  1  0  0  0  0
 19 20  1  0  0  0  0
 21 20  1  0  0  0  0
 21 26  1  0  0  0  0
 22 21  1  0  0  0  0
 23 24  1  0  0  0  0
 23 22  1  0  0  0  0
 24 22  1  0  0  0  0
 26 25  1  0  0  0  0
M  END
>  <MODEL>
8

>  <REMARK>
 VINA RESULT:      -7.9      2.788      4.693
  Name = 
  8 active torsions:
  status: ('A' for Active; 'I' for Inactive)
    1  A    between atoms: C_1  and  C_10
    2  A    between atoms: C_1  and  C_21
    3  A    between atoms: C_3  and  C_21
    4  A    between atoms: C_3  and  C_23
    5  A    between atoms: C_5  and  N_18
    6  A    between atoms: C_8  and  C_14
    7  A    between atoms: N_18  and  C_23
    8  A    between atoms: N_18  and  C_24
                            x       y       z     vdW  Elec       q    Type
                         _______ _______ _______ _____ _____    ______ ____

>  <TORSDO>
F 8

$$$$
=
 OpenBabel10232411023D

 26 28  0  0  1  0  0  0  0  0999 V2000
  190.2680  176.7810  141.1350 N   0  0  0  0  0  2  0  0  0  0  0  0
  189.1650  177.2960  141.8870 C   0  0  0  0  0  0  0  0  0  0  0  0
  191.8240  177.1920  139.4690 O   0  0  0  0  0  0  0  0  0  0  0  0
  190.6070  177.1620  139.7960 C   0  0  0  0  0  0  0  0  0  0  0  0
  188.5600  178.3380  141.5130 O   0  0  0  0  0  0  0  0  0  0  0  0
  187.9050  176.7410  137.1850 C   0  0  0  0  0  0  0  0  0  0  0  0
  187.7040  178.0850  136.8140 C   0  0  0  0  0  0  0  0  0  0  0  0
  189.5790  177.4620  138.7770 C   0  0  0  0  0  0  0  0  0  0  0  0
  186.0470  177.4300  135.2470 C   0  0  0  0  0  3  0  0  0  0  0  0
  186.7860  178.3940  135.8590 N   0  0  0  0  0  0  0  0  0  0  0  0
  186.2200  176.0840  135.5890 C   0  0  0  0  0  3  0  0  0  0  0  0
  189.3560  178.7850  138.3660 C   0  0  0  0  0  3  0  0  0  0  0  0
  188.4330  179.0670  137.4080 N   0  0  0  0  0  0  0  0  0  0  0  0
  187.1570  175.7400  136.5660 C   0  0  0  0  0  3  0  0  0  0  0  0
  188.8480  176.4350  138.1640 C   0  0  0  0  0  3  0  0  0  0  0  0
  188.7480  176.6010  143.1370 C   0  0  1  0  0  3  0  0  0  0  0  0
  189.3070  175.3350  143.1810 F   0  0  0  0  0  0  0  0  0  0  0  0
  189.1770  177.4150  144.3490 C   0  0  0  0  0  2  0  0  0  0  0  0
  188.1600  177.2990  145.4710 C   0  0  0  0  0  2  0  0  0  0  0  0
  186.7360  177.2890  144.9060 C   0  0  0  0  0  2  0  0  0  0  0  0
  186.0720  178.5990  144.9680 N   0  0  0  0  0  0  0  0  0  0  0  0
  184.8110  178.5540  144.2330 C   0  0  0  0  0  3  0  0  0  0  0  0
  185.0590  178.0460  142.8230 C   0  0  0  0  0  2  0  0  0  0  0  0
  184.8650  179.5250  143.0660 C   0  0  0  0  0  2  0  0  0  0  0  0
  184.4790  178.4140  146.7290 N   0  0  0  0  0  1  0  0  0  0  0  0
  185.7830  178.9350  146.3590 C   0  0  0  0  0  2  0  0  0  0  0  0
  1  2  1  0  0  0  0
  2 16  1  0  0  0  0
  3  4  2  0  0  0  0
  4  1  1  0  0  0  0
  5  2  2  0  0  0  0
  6 15  1  0  0  0  0
  7  6  1  0  0  0  0
  7 13  1  0  0  0  0
  8  4  1  0  0  0  0
  9 11  2  0  0  0  0
  9 10  1  0  0  0  0
 10  7  2  0  0  0  0
 11 14  1  0  0  0  0
 12  8  1  0  0  0  0
 13 12  2  0  0  0  0
 14  6  2  0  0  0  0
 15  8  2  0  0  0  0
 16 17  1  1  0  0  0
 16 18  1  0  0  0  0
 18 19  1  0  0  0  0
 20 21  1  0  0  0  0
 20 19  1  0  0  0  0
 21 26  1  0  0  0  0
 22 21  1  0  0  0  0
 23 24  1  0  0  0  0
 23 22  1  0  0  0  0
 24 22  1  0  0  0  0
 26 25  1  0  0  0  0
M  END
>  <MODEL>
9

>  <REMARK>
 VINA RESULT:      -7.9      2.391      7.059
  Name = 
  8 active torsions:
  status: ('A' for Active; 'I' for Inactive)
    1  A    between atoms: C_1  and  C_10
    2  A    between atoms: C_1  and  C_21
    3  A    between atoms: C_3  and  C_21
    4  A    between atoms: C_3  and  C_23
    5  A    between atoms: C_5  and  N_18
    6  A    between atoms: C_8  and  C_14
    7  A    between atoms: N_18  and  C_23
    8  A    between atoms: N_18  and  C_24
                            x       y       z     vdW  Elec       q    Type
                         _______ _______ _______ _____ _____    ______ ____

>  <TORSDO>
F 8

$$$$
