=
 OpenBabel10232411263D

 36 38  0  0  1  0  0  0  0  0999 V2000
  185.9260  178.3680  146.7520 C   0  0  0  0  0  0  0  0  0  0  0  0
  188.7270  178.3770  149.0150 C   0  0  0  0  0  1  0  0  0  0  0  0
  188.0470  177.4730  148.0040 C   0  0  1  0  0  3  0  0  0  0  0  0
  186.8230  177.3960  145.9820 C   0  0  1  0  0  3  0  0  0  0  0  0
  189.7700  177.8280  145.3040 C   0  0  2  0  0  3  0  0  0  0  0  0
  187.3300  177.7940  144.6070 C   0  0  1  0  0  3  0  0  0  0  0  0
  190.1850  177.0060  146.5430 C   0  0  0  0  0  2  0  0  0  0  0  0
  184.8350  178.8320  147.0370 O   0  0  0  0  0  0  0  0  0  0  0  0
  188.7130  177.1520  144.4150 C   0  0  0  0  0  2  0  0  0  0  0  0
  187.4470  178.3100  146.8890 C   0  0  1  0  0  3  0  0  0  0  0  0
  189.0540  176.4460  147.4340 C   0  0  0  0  0  2  0  0  0  0  0  0
  191.0080  178.1590  144.4920 C   0  0  0  0  0  2  0  0  0  0  0  0
  190.6480  178.3380  143.0260 C   0  0  0  0  0  2  0  0  0  0  0  0
  191.4830  177.4110  142.1560 C   0  0  0  0  0  2  0  0  0  0  0  0
  190.7310  177.0080  140.8960 C   0  0  2  0  0  3  0  0  0  0  0  0
  191.0800  177.8640  139.8680 F   0  0  0  0  0  0  0  0  0  0  0  0
  189.2320  177.0840  141.1350 C   0  0  0  0  0  2  0  0  0  0  0  0
  188.6390  178.2390  140.3520 C   0  0  0  0  0  1  0  0  0  0  0  0
  186.3920  177.2740  143.5330 C   0  0  0  0  0  2  0  0  0  0  0  0
  185.8530  178.4220  142.7010 C   0  0  0  0  0  2  0  0  0  0  0  0
  184.3490  178.3030  142.5880 C   0  0  0  0  0  2  0  0  0  0  0  0
  183.9610  178.2250  141.1270 C   0  0  0  0  0  2  0  0  0  0  0  0
  184.9460  179.0240  140.3000 C   0  0  0  0  0  2  0  0  0  0  0  0
  184.5440  178.9630  138.8430 C   0  0  0  0  0  2  0  0  0  0  0  0
  184.7390  177.5510  138.3240 C   0  0  0  0  0  2  0  0  0  0  0  0
  185.5180  177.5730  137.1340 O   0  0  0  0  0  0  0  0  0  0  0  0
  189.6660  176.8300  136.9720 C   0  0  0  0  0  0  0  0  0  0  0  0
  187.3760  176.0440  137.1620 C   0  0  0  0  0  0  0  0  0  0  0  0
  187.8400  178.4210  136.9170 C   0  0  0  0  0  0  0  0  0  0  0  0
  186.9080  177.3670  137.0740 C   0  0  0  0  0  0  0  0  0  0  0  0
  191.0280  176.5640  136.9290 O   0  0  0  0  0  1  0  0  0  0  0  0
  187.4320  179.7440  136.7900 O   0  0  0  0  0  1  0  0  0  0  0  0
  188.7550  175.7850  137.1140 C   0  0  0  0  0  3  0  0  0  0  0  0
  189.2090  178.1430  136.8730 C   0  0  0  0  0  3  0  0  0  0  0  0
  186.4520  175.0030  137.3050 O   0  0  0  0  0  0  0  0  0  0  0  0
  186.4730  173.8350  136.4950 C   0  0  0  0  0  1  0  0  0  0  0  0
  1  8  2  0  0  0  0
  3  2  1  1  0  0  0
  4  1  1  6  0  0  0
  4 10  1  0  0  0  0
  5 12  1  6  0  0  0
  5  7  1  0  0  0  0
  6 19  1  6  0  0  0
  6  4  1  0  0  0  0
  7 11  1  0  0  0  0
  9  6  1  0  0  0  0
  9  5  1  0  0  0  0
 10  1  1  1  0  0  0
 10  3  1  0  0  0  0
 11  3  1  0  0  0  0
 13 12  1  0  0  0  0
 14 13  1  0  0  0  0
 15 16  1  6  0  0  0
 15 17  1  0  0  0  0
 15 14  1  0  0  0  0
 18 17  1  0  0  0  0
 20 19  1  0  0  0  0
 21 20  1  0  0  0  0
 22 21  1  0  0  0  0
 23 22  1  0  0  0  0
 24 23  1  0  0  0  0
 25 24  1  0  0  0  0
 26 25  1  0  0  0  0
 27 33  1  0  0  0  0
 28 35  1  0  0  0  0
 29 30  2  0  0  0  0
 30 26  1  0  0  0  0
 30 28  1  0  0  0  0
 31 27  1  0  0  0  0
 32 29  1  0  0  0  0
 33 28  2  0  0  0  0
 34 29  1  0  0  0  0
 34 27  2  0  0  0  0
 36 35  1  0  0  0  0
M  END
>  <MODEL>
1

>  <REMARK>
 VINA RESULT:      -7.9      0.000      0.000
  Name = 
  15 active torsions:
  status: ('A' for Active; 'I' for Inactive)
    1  A    between atoms: C_2  and  C_13
    2  A    between atoms: C_3  and  C_14
    3  A    between atoms: C_3  and  C_24
    4  A    between atoms: C_6  and  C_26
    5  A    between atoms: C_6  and  C_32
    6  A    between atoms: C_7  and  O_33
    7  A    between atoms: C_10  and  O_21
    8  A    between atoms: C_11  and  C_26
    9  A    between atoms: C_11  and  C_29
   10  A    between atoms: C_13  and  C_24
   11  A    between atoms: C_14  and  C_15
   12  A    between atoms: C_16  and  C_27
   13  A    between atoms: C_18  and  C_27
   14  A    between atoms: C_18  and  C_29
   15  A    between atoms: O_21  and  C_32
                            x       y       z     vdW  Elec       q    Type
                         _______ _______ _______ _____ _____    ______ ____

>  <TORSDO>
F 15

$$$$
=
 OpenBabel10232411263D

 36 38  0  0  1  0  0  0  0  0999 V2000
  186.0030  178.4750  146.5400 C   0  0  0  0  0  0  0  0  0  0  0  0
  188.6770  178.3950  148.9500 C   0  0  0  0  0  1  0  0  0  0  0  0
  188.0090  177.5060  147.9190 C   0  0  1  0  0  3  0  0  0  0  0  0
  186.8920  177.4480  145.8350 C   0  0  1  0  0  3  0  0  0  0  0  0
  189.8890  177.7300  145.3100 C   0  0  2  0  0  3  0  0  0  0  0  0
  187.4900  177.7970  144.4830 C   0  0  1  0  0  3  0  0  0  0  0  0
  190.1980  176.9120  146.5830 C   0  0  0  0  0  2  0  0  0  0  0  0
  184.9210  178.9950  146.7580 O   0  0  0  0  0  0  0  0  0  0  0  0
  188.8500  177.0870  144.3760 C   0  0  0  0  0  2  0  0  0  0  0  0
  187.5100  178.3490  146.7590 C   0  0  1  0  0  3  0  0  0  0  0  0
  188.9950  176.4230  147.4200 C   0  0  0  0  0  2  0  0  0  0  0  0
  191.1820  177.9880  144.5610 C   0  0  0  0  0  2  0  0  0  0  0  0
  191.4030  176.9210  143.5010 C   0  0  0  0  0  2  0  0  0  0  0  0
  191.6070  177.5600  142.1360 C   0  0  0  0  0  2  0  0  0  0  0  0
  190.7190  176.9110  141.0840 C   0  0  2  0  0  3  0  0  0  0  0  0
  191.4010  176.8680  139.8820 F   0  0  0  0  0  0  0  0  0  0  0  0
  189.4370  177.7100  140.9150 C   0  0  0  0  0  2  0  0  0  0  0  0
  188.8120  177.4090  139.5670 C   0  0  0  0  0  1  0  0  0  0  0  0
  186.5860  177.3010  143.3690 C   0  0  0  0  0  2  0  0  0  0  0  0
  186.1780  178.4520  142.4690 C   0  0  0  0  0  2  0  0  0  0  0  0
  184.9070  179.0810  142.9970 C   0  0  0  0  0  2  0  0  0  0  0  0
  183.7280  178.1990  142.6480 C   0  0  0  0  0  2  0  0  0  0  0  0
  182.4410  178.9500  142.9140 C   0  0  0  0  0  2  0  0  0  0  0  0
  181.7440  179.2330  141.6010 C   0  0  0  0  0  2  0  0  0  0  0  0
  181.8220  178.0060  140.7130 C   0  0  0  0  0  2  0  0  0  0  0  0
  182.1310  178.3910  139.3780 O   0  0  0  0  0  0  0  0  0  0  0  0
  185.6100  177.2800  137.2710 C   0  0  0  0  0  0  0  0  0  0  0  0
  183.2680  176.9510  137.8210 C   0  0  0  0  0  0  0  0  0  0  0  0
  184.5200  178.7780  138.8320 C   0  0  0  0  0  0  0  0  0  0  0  0
  183.3110  178.0540  138.6920 C   0  0  0  0  0  0  0  0  0  0  0  0
  186.7470  176.8930  136.5730 O   0  0  0  0  0  1  0  0  0  0  0  0
  184.6110  179.8960  139.6520 O   0  0  0  0  0  1  0  0  0  0  0  0
  184.4210  176.5700  137.1170 C   0  0  0  0  0  3  0  0  0  0  0  0
  185.6580  178.3820  138.1240 C   0  0  0  0  0  3  0  0  0  0  0  0
  182.0680  176.2450  137.6760 O   0  0  0  0  0  0  0  0  0  0  0  0
  181.8490  174.9690  138.2640 C   0  0  0  0  0  1  0  0  0  0  0  0
  1  8  2  0  0  0  0
  3  2  1  1  0  0  0
  4  1  1  6  0  0  0
  4 10  1  0  0  0  0
  5 12  1  6  0  0  0
  5  7  1  0  0  0  0
  6 19  1  6  0  0  0
  6  4  1  0  0  0  0
  7 11  1  0  0  0  0
  9  6  1  0  0  0  0
  9  5  1  0  0  0  0
 10  1  1  1  0  0  0
 10  3  1  0  0  0  0
 11  3  1  0  0  0  0
 13 12  1  0  0  0  0
 14 13  1  0  0  0  0
 15 16  1  6  0  0  0
 15 14  1  0  0  0  0
 17 15  1  0  0  0  0
 18 17  1  0  0  0  0
 20 21  1  0  0  0  0
 20 19  1  0  0  0  0
 22 23  1  0  0  0  0
 22 21  1  0  0  0  0
 24 23  1  0  0  0  0
 25 24  1  0  0  0  0
 26 25  1  0  0  0  0
 27 34  1  0  0  0  0
 28 30  2  0  0  0  0
 29 32  1  0  0  0  0
 30 29  1  0  0  0  0
 30 26  1  0  0  0  0
 31 27  1  0  0  0  0
 33 27  2  0  0  0  0
 33 28  1  0  0  0  0
 34 29  2  0  0  0  0
 35 28  1  0  0  0  0
 35 36  1  0  0  0  0
M  END
>  <MODEL>
2

>  <REMARK>
 VINA RESULT:      -7.7      1.628      2.640
  Name = 
  15 active torsions:
  status: ('A' for Active; 'I' for Inactive)
    1  A    between atoms: C_2  and  C_13
    2  A    between atoms: C_3  and  C_14
    3  A    between atoms: C_3  and  C_24
    4  A    between atoms: C_6  and  C_26
    5  A    between atoms: C_6  and  C_32
    6  A    between atoms: C_7  and  O_33
    7  A    between atoms: C_10  and  O_21
    8  A    between atoms: C_11  and  C_26
    9  A    between atoms: C_11  and  C_29
   10  A    between atoms: C_13  and  C_24
   11  A    between atoms: C_14  and  C_15
   12  A    between atoms: C_16  and  C_27
   13  A    between atoms: C_18  and  C_27
   14  A    between atoms: C_18  and  C_29
   15  A    between atoms: O_21  and  C_32
                            x       y       z     vdW  Elec       q    Type
                         _______ _______ _______ _____ _____    ______ ____

>  <TORSDO>
F 15

$$$$
=
 OpenBabel10232411263D

 36 38  0  0  1  0  0  0  0  0999 V2000
  190.8910  176.6260  147.3050 C   0  0  0  0  0  0  0  0  0  0  0  0
  187.7290  176.9800  148.9890 C   0  0  0  0  0  1  0  0  0  0  0  0
  188.6570  177.7570  148.0760 C   0  0  1  0  0  3  0  0  0  0  0  0
  190.2380  177.6010  146.3230 C   0  0  1  0  0  3  0  0  0  0  0  0
  187.4420  177.3320  145.1220 C   0  0  2  0  0  3  0  0  0  0  0  0
  189.9630  177.1410  144.9020 C   0  0  1  0  0  3  0  0  0  0  0  0
  186.8740  178.2690  146.2100 C   0  0  0  0  0  2  0  0  0  0  0  0
  191.8680  176.1070  147.8190 O   0  0  0  0  0  0  0  0  0  0  0  0
  188.6980  177.8650  144.4130 C   0  0  0  0  0  2  0  0  0  0  0  0
  189.3820  176.8010  147.1460 C   0  0  1  0  0  3  0  0  0  0  0  0
  187.8630  178.8090  147.2660 C   0  0  0  0  0  2  0  0  0  0  0  0
  186.3530  177.0310  144.1090 C   0  0  0  0  0  2  0  0  0  0  0  0
  186.2870  178.1290  143.0600 C   0  0  0  0  0  2  0  0  0  0  0  0
  184.8480  178.3690  142.6300 C   0  0  0  0  0  2  0  0  0  0  0  0
  184.1850  179.4340  143.4910 C   0  0  2  0  0  3  0  0  0  0  0  0
  185.1610  180.1450  144.1640 F   0  0  0  0  0  0  0  0  0  0  0  0
  183.2440  178.7860  144.4940 C   0  0  0  0  0  2  0  0  0  0  0  0
  181.8400  178.7240  143.9240 C   0  0  0  0  0  1  0  0  0  0  0  0
  191.1250  177.5140  143.9990 C   0  0  0  0  0  2  0  0  0  0  0  0
  191.1420  176.6290  142.7680 C   0  0  0  0  0  2  0  0  0  0  0  0
  191.5640  177.4440  141.5650 C   0  0  0  0  0  2  0  0  0  0  0  0
  190.6570  177.1210  140.3970 C   0  0  0  0  0  2  0  0  0  0  0  0
  189.2150  177.1370  140.8590 C   0  0  0  0  0  2  0  0  0  0  0  0
  188.5200  178.3570  140.2960 C   0  0  0  0  0  2  0  0  0  0  0  0
  189.0700  178.6590  138.9150 C   0  0  0  0  0  2  0  0  0  0  0  0
  188.0010  178.8050  137.9880 O   0  0  0  0  0  0  0  0  0  0  0  0
  185.1140  175.8690  137.0770 C   0  0  0  0  0  0  0  0  0  0  0  0
  185.7260  178.0220  138.0200 C   0  0  0  0  0  0  0  0  0  0  0  0
  187.4200  176.6070  136.9940 C   0  0  0  0  0  0  0  0  0  0  0  0
  187.0680  177.8030  137.6650 C   0  0  0  0  0  0  0  0  0  0  0  0
  184.1490  174.9120  136.7930 O   0  0  0  0  0  1  0  0  0  0  0  0
  188.7250  176.3540  136.5880 O   0  0  0  0  0  1  0  0  0  0  0  0
  184.7570  177.0500  137.7260 C   0  0  0  0  0  3  0  0  0  0  0  0
  186.4410  175.6500  136.7110 C   0  0  0  0  0  3  0  0  0  0  0  0
  185.3790  179.2110  138.6720 O   0  0  0  0  0  0  0  0  0  0  0  0
  184.0610  179.4820  139.1330 C   0  0  0  0  0  1  0  0  0  0  0  0
  1  8  2  0  0  0  0
  3  2  1  6  0  0  0
  4 10  1  0  0  0  0
  4  1  1  1  0  0  0
  5 12  1  6  0  0  0
  5  7  1  0  0  0  0
  6 19  1  6  0  0  0
  6  4  1  0  0  0  0
  7 11  1  0  0  0  0
  9  6  1  0  0  0  0
  9  5  1  0  0  0  0
 10  1  1  1  0  0  0
 10  3  1  0  0  0  0
 11  3  1  0  0  0  0
 13 12  1  0  0  0  0
 14 13  1  0  0  0  0
 14 15  1  0  0  0  0
 15 16  1  1  0  0  0
 15 17  1  0  0  0  0
 18 17  1  0  0  0  0
 20 19  1  0  0  0  0
 21 20  1  0  0  0  0
 22 23  1  0  0  0  0
 22 21  1  0  0  0  0
 24 23  1  0  0  0  0
 25 24  1  0  0  0  0
 26 25  1  0  0  0  0
 27 33  1  0  0  0  0
 28 35  1  0  0  0  0
 29 30  2  0  0  0  0
 30 26  1  0  0  0  0
 30 28  1  0  0  0  0
 31 27  1  0  0  0  0
 32 29  1  0  0  0  0
 33 28  2  0  0  0  0
 34 29  1  0  0  0  0
 34 27  2  0  0  0  0
 35 36  1  0  0  0  0
M  END
>  <MODEL>
3

>  <REMARK>
 VINA RESULT:      -7.7      2.188      4.910
  Name = 
  15 active torsions:
  status: ('A' for Active; 'I' for Inactive)
    1  A    between atoms: C_2  and  C_13
    2  A    between atoms: C_3  and  C_14
    3  A    between atoms: C_3  and  C_24
    4  A    between atoms: C_6  and  C_26
    5  A    between atoms: C_6  and  C_32
    6  A    between atoms: C_7  and  O_33
    7  A    between atoms: C_10  and  O_21
    8  A    between atoms: C_11  and  C_26
    9  A    between atoms: C_11  and  C_29
   10  A    between atoms: C_13  and  C_24
   11  A    between atoms: C_14  and  C_15
   12  A    between atoms: C_16  and  C_27
   13  A    between atoms: C_18  and  C_27
   14  A    between atoms: C_18  and  C_29
   15  A    between atoms: O_21  and  C_32
                            x       y       z     vdW  Elec       q    Type
                         _______ _______ _______ _____ _____    ______ ____

>  <TORSDO>
F 15

$$$$
=
 OpenBabel10232411263D

 36 38  0  0  1  0  0  0  0  0999 V2000
  191.1190  176.5660  147.2430 C   0  0  0  0  0  0  0  0  0  0  0  0
  187.8700  176.9030  148.7570 C   0  0  0  0  0  1  0  0  0  0  0  0
  188.8380  177.6820  147.8870 C   0  0  1  0  0  3  0  0  0  0  0  0
  190.5080  177.5260  146.2200 C   0  0  1  0  0  3  0  0  0  0  0  0
  187.7810  177.2200  144.8770 C   0  0  2  0  0  3  0  0  0  0  0  0
  190.3120  177.0520  144.7900 C   0  0  1  0  0  3  0  0  0  0  0  0
  187.1490  178.1600  145.9260 C   0  0  0  0  0  2  0  0  0  0  0  0
  192.0730  176.0620  147.8120 O   0  0  0  0  0  0  0  0  0  0  0  0
  189.0680  177.7590  144.2300 C   0  0  0  0  0  2  0  0  0  0  0  0
  189.6190  176.7250  147.0040 C   0  0  1  0  0  3  0  0  0  0  0  0
  188.0770  178.7190  147.0270 C   0  0  0  0  0  2  0  0  0  0  0  0
  186.7500  176.9000  143.8120 C   0  0  0  0  0  2  0  0  0  0  0  0
  186.2560  178.1770  143.1510 C   0  0  0  0  0  2  0  0  0  0  0  0
  184.7610  178.0950  142.8840 C   0  0  0  0  0  2  0  0  0  0  0  0
  184.0310  179.3000  143.4560 C   0  0  2  0  0  3  0  0  0  0  0  0
  184.9590  180.2040  143.9400 F   0  0  0  0  0  0  0  0  0  0  0  0
  183.1060  178.8670  144.5820 C   0  0  0  0  0  2  0  0  0  0  0  0
  181.7080  178.6330  144.0450 C   0  0  0  0  0  1  0  0  0  0  0  0
  191.5160  177.4290  143.9460 C   0  0  0  0  0  2  0  0  0  0  0  0
  191.4940  176.6760  142.6290 C   0  0  0  0  0  2  0  0  0  0  0  0
  191.5910  177.6590  141.4830 C   0  0  0  0  0  2  0  0  0  0  0  0
  190.7330  177.1750  140.3340 C   0  0  0  0  0  2  0  0  0  0  0  0
  189.2740  177.2450  140.7290 C   0  0  0  0  0  2  0  0  0  0  0  0
  188.5940  178.3490  139.9500 C   0  0  0  0  0  2  0  0  0  0  0  0
  188.1960  177.8310  138.5810 C   0  0  0  0  0  2  0  0  0  0  0  0
  187.1120  178.5960  138.0680 O   0  0  0  0  0  0  0  0  0  0  0  0
  183.0880  177.3350  138.0230 C   0  0  0  0  0  0  0  0  0  0  0  0
  185.3500  177.2440  137.1430 C   0  0  0  0  0  0  0  0  0  0  0  0
  184.8210  178.7090  139.0140 C   0  0  0  0  0  0  0  0  0  0  0  0
  185.7630  178.2000  138.0870 C   0  0  0  0  0  0  0  0  0  0  0  0
  181.7660  176.9120  137.9870 O   0  0  0  0  0  1  0  0  0  0  0  0
  185.1810  179.6300  139.9900 O   0  0  0  0  0  1  0  0  0  0  0  0
  184.0120  176.8190  137.1160 C   0  0  0  0  0  3  0  0  0  0  0  0
  183.4930  178.2750  138.9700 C   0  0  0  0  0  3  0  0  0  0  0  0
  186.2860  176.7340  136.2360 O   0  0  0  0  0  0  0  0  0  0  0  0
  186.5730  175.3460  136.1220 C   0  0  0  0  0  1  0  0  0  0  0  0
  1  8  2  0  0  0  0
  3  2  1  6  0  0  0
  4 10  1  0  0  0  0
  4  1  1  1  0  0  0
  5 12  1  6  0  0  0
  5  7  1  0  0  0  0
  6 19  1  6  0  0  0
  6  4  1  0  0  0  0
  7 11  1  0  0  0  0
  9  6  1  0  0  0  0
  9  5  1  0  0  0  0
 10  1  1  1  0  0  0
 10  3  1  0  0  0  0
 11  3  1  0  0  0  0
 13 12  1  0  0  0  0
 14 13  1  0  0  0  0
 14 15  1  0  0  0  0
 15 16  1  1  0  0  0
 15 17  1  0  0  0  0
 18 17  1  0  0  0  0
 20 19  1  0  0  0  0
 21 20  1  0  0  0  0
 22 23  1  0  0  0  0
 22 21  1  0  0  0  0
 24 23  1  0  0  0  0
 25 24  1  0  0  0  0
 26 30  1  0  0  0  0
 26 25  1  0  0  0  0
 27 34  1  0  0  0  0
 28 30  2  0  0  0  0
 29 32  1  0  0  0  0
 30 29  1  0  0  0  0
 31 27  1  0  0  0  0
 33 28  1  0  0  0  0
 33 27  2  0  0  0  0
 34 29  2  0  0  0  0
 35 28  1  0  0  0  0
 36 35  1  0  0  0  0
M  END
>  <MODEL>
4

>  <REMARK>
 VINA RESULT:      -7.6      2.345      5.055
  Name = 
  15 active torsions:
  status: ('A' for Active; 'I' for Inactive)
    1  A    between atoms: C_2  and  C_13
    2  A    between atoms: C_3  and  C_14
    3  A    between atoms: C_3  and  C_24
    4  A    between atoms: C_6  and  C_26
    5  A    between atoms: C_6  and  C_32
    6  A    between atoms: C_7  and  O_33
    7  A    between atoms: C_10  and  O_21
    8  A    between atoms: C_11  and  C_26
    9  A    between atoms: C_11  and  C_29
   10  A    between atoms: C_13  and  C_24
   11  A    between atoms: C_14  and  C_15
   12  A    between atoms: C_16  and  C_27
   13  A    between atoms: C_18  and  C_27
   14  A    between atoms: C_18  and  C_29
   15  A    between atoms: O_21  and  C_32
                            x       y       z     vdW  Elec       q    Type
                         _______ _______ _______ _____ _____    ______ ____

>  <TORSDO>
F 15

$$$$
=
 OpenBabel10232411263D

 36 38  0  0  1  0  0  0  0  0999 V2000
  189.2030  177.7580  146.5070 C   0  0  0  0  0  0  0  0  0  0  0  0
  191.9500  177.3900  144.2090 C   0  0  0  0  0  1  0  0  0  0  0  0
  190.6360  176.7260  144.5710 C   0  0  1  0  0  3  0  0  0  0  0  0
  188.4370  177.0770  145.3710 C   0  0  1  0  0  3  0  0  0  0  0  0
  188.5240  177.8690  142.4220 C   0  0  2  0  0  3  0  0  0  0  0  0
  187.3340  177.8430  144.6630 C   0  0  1  0  0  3  0  0  0  0  0  0
  189.5970  176.7920  142.1540 C   0  0  0  0  0  2  0  0  0  0  0  0
  189.3490  178.0590  147.6800 O   0  0  0  0  0  0  0  0  0  0  0  0
  187.2970  177.3670  143.2020 C   0  0  0  0  0  2  0  0  0  0  0  0
  189.6440  177.7740  145.0440 C   0  0  1  0  0  3  0  0  0  0  0  0
  190.0700  175.9490  143.3590 C   0  0  0  0  0  2  0  0  0  0  0  0
  188.0940  178.4800  141.1010 C   0  0  0  0  0  2  0  0  0  0  0  0
  188.7840  177.7780  139.9420 C   0  0  0  0  0  2  0  0  0  0  0  0
  188.9820  178.7380  138.7800 C   0  0  0  0  0  2  0  0  0  0  0  0
  189.2920  177.9900  137.4920 C   0  0  2  0  0  3  0  0  0  0  0  0
  188.1430  177.3680  137.0420 F   0  0  0  0  0  0  0  0  0  0  0  0
  190.3730  176.9500  137.7370 C   0  0  0  0  0  2  0  0  0  0  0  0
  190.8010  176.3260  136.4240 C   0  0  0  0  0  1  0  0  0  0  0  0
  185.9940  177.5470  145.3120 C   0  0  0  0  0  2  0  0  0  0  0  0
  185.4540  178.7870  145.9980 C   0  0  0  0  0  2  0  0  0  0  0  0
  183.9610  178.8830  145.7670 C   0  0  0  0  0  2  0  0  0  0  0  0
  183.7020  179.4680  144.3960 C   0  0  0  0  0  2  0  0  0  0  0  0
  182.9540  178.4600  143.5500 C   0  0  0  0  0  2  0  0  0  0  0  0
  181.8030  179.1480  142.8480 C   0  0  0  0  0  2  0  0  0  0  0  0
  181.8130  178.7740  141.3780 C   0  0  0  0  0  2  0  0  0  0  0  0
  182.8960  177.8930  141.1070 O   0  0  0  0  0  0  0  0  0  0  0  0
  184.6630  177.2840  137.3270 C   0  0  0  0  0  0  0  0  0  0  0  0
  183.1010  176.6310  139.0680 C   0  0  0  0  0  0  0  0  0  0  0  0
  184.4920  178.6090  139.3480 C   0  0  0  0  0  0  0  0  0  0  0  0
  183.5080  177.7260  139.8520 C   0  0  0  0  0  0  0  0  0  0  0  0
  185.2380  177.0610  136.0830 O   0  0  0  0  0  1  0  0  0  0  0  0
  184.9070  179.7260  140.0640 O   0  0  0  0  0  1  0  0  0  0  0  0
  183.6850  176.4160  137.8100 C   0  0  0  0  0  3  0  0  0  0  0  0
  185.0630  178.3770  138.0930 C   0  0  0  0  0  3  0  0  0  0  0  0
  182.1190  175.7660  139.5640 O   0  0  0  0  0  0  0  0  0  0  0  0
  180.8150  175.6770  139.0040 C   0  0  0  0  0  1  0  0  0  0  0  0
  1  8  2  0  0  0  0
  3  2  1  6  0  0  0
  3 10  1  0  0  0  0
  4  1  1  1  0  0  0
  5 12  1  6  0  0  0
  5  9  1  0  0  0  0
  6 19  1  1  0  0  0
  6  4  1  0  0  0  0
  7  5  1  0  0  0  0
  7 11  1  0  0  0  0
  9  6  1  0  0  0  0
 10  4  1  0  0  0  0
 10  1  1  1  0  0  0
 11  3  1  0  0  0  0
 13 12  1  0  0  0  0
 14 13  1  0  0  0  0
 15 16  1  1  0  0  0
 15 17  1  0  0  0  0
 15 14  1  0  0  0  0
 18 17  1  0  0  0  0
 19 20  1  0  0  0  0
 21 20  1  0  0  0  0
 22 21  1  0  0  0  0
 23 22  1  0  0  0  0
 24 23  1  0  0  0  0
 25 24  1  0  0  0  0
 26 25  1  0  0  0  0
 27 33  2  0  0  0  0
 27 34  1  0  0  0  0
 28 35  1  0  0  0  0
 28 30  2  0  0  0  0
 29 30  1  0  0  0  0
 29 32  1  0  0  0  0
 30 26  1  0  0  0  0
 31 27  1  0  0  0  0
 33 28  1  0  0  0  0
 34 29  2  0  0  0  0
 36 35  1  0  0  0  0
M  END
>  <MODEL>
5

>  <REMARK>
 VINA RESULT:      -7.3      2.226      4.199
  Name = 
  15 active torsions:
  status: ('A' for Active; 'I' for Inactive)
    1  A    between atoms: C_2  and  C_13
    2  A    between atoms: C_3  and  C_14
    3  A    between atoms: C_3  and  C_24
    4  A    between atoms: C_6  and  C_26
    5  A    between atoms: C_6  and  C_32
    6  A    between atoms: C_7  and  O_33
    7  A    between atoms: C_10  and  O_21
    8  A    between atoms: C_11  and  C_26
    9  A    between atoms: C_11  and  C_29
   10  A    between atoms: C_13  and  C_24
   11  A    between atoms: C_14  and  C_15
   12  A    between atoms: C_16  and  C_27
   13  A    between atoms: C_18  and  C_27
   14  A    between atoms: C_18  and  C_29
   15  A    between atoms: O_21  and  C_32
                            x       y       z     vdW  Elec       q    Type
                         _______ _______ _______ _____ _____    ______ ____

>  <TORSDO>
F 15

$$$$
=
 OpenBabel10232411263D

 36 38  0  0  1  0  0  0  0  0999 V2000
  188.4090  177.6500  148.1640 C   0  0  0  0  0  0  0  0  0  0  0  0
  191.9770  177.1630  148.1780 C   0  0  0  0  0  1  0  0  0  0  0  0
  190.7220  176.5780  147.5580 C   0  0  1  0  0  3  0  0  0  0  0  0
  188.5460  177.0530  146.7620 C   0  0  1  0  0  3  0  0  0  0  0  0
  190.5580  177.9200  144.6320 C   0  0  2  0  0  3  0  0  0  0  0  0
  188.1950  177.9110  145.5590 C   0  0  1  0  0  3  0  0  0  0  0  0
  191.5100  176.7810  145.0550 C   0  0  0  0  0  2  0  0  0  0  0  0
  187.7660  177.9070  149.1680 O   0  0  0  0  0  0  0  0  0  0  0  0
  189.1030  177.4800  144.3960 C   0  0  0  0  0  2  0  0  0  0  0  0
  189.6960  177.6770  147.3420 C   0  0  1  0  0  3  0  0  0  0  0  0
  191.0570  175.8750  146.2210 C   0  0  0  0  0  2  0  0  0  0  0  0
  191.1120  178.5950  143.3920 C   0  0  0  0  0  2  0  0  0  0  0  0
  191.7790  177.5730  142.4850 C   0  0  0  0  0  2  0  0  0  0  0  0
  191.4790  177.8810  141.0260 C   0  0  0  0  0  2  0  0  0  0  0  0
  190.3600  176.9970  140.4940 C   0  0  2  0  0  3  0  0  0  0  0  0
  190.0660  176.0250  141.4320 F   0  0  0  0  0  0  0  0  0  0  0  0
  190.7880  176.3360  139.1940 C   0  0  0  0  0  2  0  0  0  0  0  0
  190.1130  177.0160  138.0190 C   0  0  0  0  0  1  0  0  0  0  0  0
  186.7470  177.6880  145.1630 C   0  0  0  0  0  2  0  0  0  0  0  0
  185.8390  178.6360  145.9220 C   0  0  0  0  0  2  0  0  0  0  0  0
  184.4270  178.5180  145.3920 C   0  0  0  0  0  2  0  0  0  0  0  0
  184.2270  179.5180  144.2730 C   0  0  0  0  0  2  0  0  0  0  0  0
  183.5330  178.8420  143.1100 C   0  0  0  0  0  2  0  0  0  0  0  0
  184.5690  178.2210  142.1990 C   0  0  0  0  0  2  0  0  0  0  0  0
  185.4020  179.3160  141.5610 C   0  0  0  0  0  2  0  0  0  0  0  0
  184.9680  179.5410  140.2250 O   0  0  0  0  0  0  0  0  0  0  0  0
  184.6960  176.6030  137.2130 C   0  0  0  0  0  0  0  0  0  0  0  0
  183.6550  178.0800  138.8350 C   0  0  0  0  0  0  0  0  0  0  0  0
  186.0740  178.0640  138.5660 C   0  0  0  0  0  0  0  0  0  0  0  0
  184.9200  178.5640  139.2150 C   0  0  0  0  0  0  0  0  0  0  0  0
  184.5850  175.6300  136.2280 O   0  0  0  0  0  1  0  0  0  0  0  0
  187.3460  178.5320  138.8770 O   0  0  0  0  0  1  0  0  0  0  0  0
  183.5520  177.0980  137.8370 C   0  0  0  0  0  3  0  0  0  0  0  0
  185.9520  177.0860  137.5750 C   0  0  0  0  0  3  0  0  0  0  0  0
  182.5150  178.5840  139.4700 O   0  0  0  0  0  0  0  0  0  0  0  0
  181.2990  178.8440  138.7800 C   0  0  0  0  0  1  0  0  0  0  0  0
  1  8  2  0  0  0  0
  3  2  1  6  0  0  0
  4 10  1  0  0  0  0
  4  1  1  1  0  0  0
  5 12  1  6  0  0  0
  5  7  1  0  0  0  0
  6 19  1  6  0  0  0
  6  4  1  0  0  0  0
  7 11  1  0  0  0  0
  9  5  1  0  0  0  0
  9  6  1  0  0  0  0
 10  3  1  0  0  0  0
 10  1  1  1  0  0  0
 11  3  1  0  0  0  0
 13 12  1  0  0  0  0
 14 13  1  0  0  0  0
 15 14  1  0  0  0  0
 15 16  1  1  0  0  0
 17 15  1  0  0  0  0
 18 17  1  0  0  0  0
 19 20  1  0  0  0  0
 21 20  1  0  0  0  0
 22 21  1  0  0  0  0
 23 22  1  0  0  0  0
 24 23  1  0  0  0  0
 25 24  1  0  0  0  0
 26 25  1  0  0  0  0
 27 34  2  0  0  0  0
 27 33  1  0  0  0  0
 28 30  1  0  0  0  0
 28 35  1  0  0  0  0
 29 32  1  0  0  0  0
 29 30  2  0  0  0  0
 30 26  1  0  0  0  0
 31 27  1  0  0  0  0
 33 28  2  0  0  0  0
 34 29  1  0  0  0  0
 36 35  1  0  0  0  0
M  END
>  <MODEL>
6

>  <REMARK>
 VINA RESULT:      -7.2      1.809      3.408
  Name = 
  15 active torsions:
  status: ('A' for Active; 'I' for Inactive)
    1  A    between atoms: C_2  and  C_13
    2  A    between atoms: C_3  and  C_14
    3  A    between atoms: C_3  and  C_24
    4  A    between atoms: C_6  and  C_26
    5  A    between atoms: C_6  and  C_32
    6  A    between atoms: C_7  and  O_33
    7  A    between atoms: C_10  and  O_21
    8  A    between atoms: C_11  and  C_26
    9  A    between atoms: C_11  and  C_29
   10  A    between atoms: C_13  and  C_24
   11  A    between atoms: C_14  and  C_15
   12  A    between atoms: C_16  and  C_27
   13  A    between atoms: C_18  and  C_27
   14  A    between atoms: C_18  and  C_29
   15  A    between atoms: O_21  and  C_32
                            x       y       z     vdW  Elec       q    Type
                         _______ _______ _______ _____ _____    ______ ____

>  <TORSDO>
F 15

$$$$
=
 OpenBabel10232411263D

 36 38  0  0  1  0  0  0  0  0999 V2000
  186.1010  178.7010  141.9530 C   0  0  0  0  0  0  0  0  0  0  0  0
  183.9170  180.6100  144.0850 C   0  0  0  0  0  1  0  0  0  0  0  0
  184.2910  179.1700  143.7880 C   0  0  1  0  0  3  0  0  0  0  0  0
  186.0310  177.7140  143.1200 C   0  0  1  0  0  3  0  0  0  0  0  0
  186.4290  178.3950  146.0710 C   0  0  2  0  0  3  0  0  0  0  0  0
  187.2960  177.4050  143.9010 C   0  0  1  0  0  3  0  0  0  0  0  0
  184.9010  178.5080  146.2610 C   0  0  0  0  0  2  0  0  0  0  0  0
  186.2900  178.9690  140.7780 O   0  0  0  0  0  0  0  0  0  0  0  0
  186.8890  177.1140  145.3540 C   0  0  0  0  0  2  0  0  0  0  0  0
  185.7530  179.0920  143.3880 C   0  0  1  0  0  3  0  0  0  0  0  0
  184.0130  178.2740  145.0180 C   0  0  0  0  0  2  0  0  0  0  0  0
  187.1060  178.5130  147.4230 C   0  0  0  0  0  2  0  0  0  0  0  0
  187.9620  177.2870  147.6970 C   0  0  0  0  0  2  0  0  0  0  0  0
  189.3150  177.6980  148.2580 C   0  0  0  0  0  2  0  0  0  0  0  0
  190.4190  177.5180  147.2260 C   0  0  2  0  0  3  0  0  0  0  0  0
  189.9960  178.0390  146.0170 F   0  0  0  0  0  0  0  0  0  0  0  0
  190.7460  176.0440  147.0600 C   0  0  0  0  0  2  0  0  0  0  0  0
  192.1820  175.7810  147.4690 C   0  0  0  0  0  1  0  0  0  0  0  0
  187.9790  176.1790  143.3240 C   0  0  0  0  0  2  0  0  0  0  0  0
  189.4840  176.3640  143.3220 C   0  0  0  0  0  2  0  0  0  0  0  0
  189.8420  177.5870  142.5070 C   0  0  0  0  0  2  0  0  0  0  0  0
  191.3460  177.7520  142.4840 C   0  0  0  0  0  2  0  0  0  0  0  0
  191.8850  177.2850  141.1480 C   0  0  0  0  0  2  0  0  0  0  0  0
  190.7690  177.2880  140.1270 C   0  0  0  0  0  2  0  0  0  0  0  0
  191.2020  176.5040  138.9030 C   0  0  0  0  0  2  0  0  0  0  0  0
  190.5840  177.0400  137.7390 O   0  0  0  0  0  0  0  0  0  0  0  0
  186.4310  177.0410  137.0060 C   0  0  0  0  0  0  0  0  0  0  0  0
  188.5660  175.8880  137.1140 C   0  0  0  0  0  0  0  0  0  0  0  0
  188.4220  178.2560  137.6610 C   0  0  0  0  0  0  0  0  0  0  0  0
  189.1970  177.0810  137.5060 C   0  0  0  0  0  0  0  0  0  0  0  0
  185.0660  177.0210  136.7520 O   0  0  0  0  0  1  0  0  0  0  0  0
  188.9880  179.4540  138.0800 O   0  0  0  0  0  1  0  0  0  0  0  0
  187.1840  175.8770  136.8630 C   0  0  0  0  0  3  0  0  0  0  0  0
  187.0480  178.2250  137.4050 C   0  0  0  0  0  3  0  0  0  0  0  0
  189.3330  174.7260  136.9730 O   0  0  0  0  0  0  0  0  0  0  0  0
  188.7630  173.4240  136.9520 C   0  0  0  0  0  1  0  0  0  0  0  0
  3  2  1  1  0  0  0
  3 11  1  0  0  0  0
  4  1  1  6  0  0  0
  4 10  1  0  0  0  0
  4  6  1  0  0  0  0
  5  7  1  0  0  0  0
  5 12  1  1  0  0  0
  6 19  1  6  0  0  0
  6  9  1  0  0  0  0
  8  1  2  0  0  0  0
  9  5  1  0  0  0  0
 10  1  1  6  0  0  0
 10  3  1  0  0  0  0
 11  7  1  0  0  0  0
 12 13  1  0  0  0  0
 13 14  1  0  0  0  0
 15 16  1  6  0  0  0
 15 14  1  0  0  0  0
 17 15  1  0  0  0  0
 17 18  1  0  0  0  0
 20 19  1  0  0  0  0
 21 20  1  0  0  0  0
 22 21  1  0  0  0  0
 23 22  1  0  0  0  0
 24 23  1  0  0  0  0
 25 24  1  0  0  0  0
 26 25  1  0  0  0  0
 27 34  1  0  0  0  0
 28 30  2  0  0  0  0
 29 32  1  0  0  0  0
 30 29  1  0  0  0  0
 30 26  1  0  0  0  0
 31 27  1  0  0  0  0
 33 27  2  0  0  0  0
 33 28  1  0  0  0  0
 34 29  2  0  0  0  0
 35 28  1  0  0  0  0
 36 35  1  0  0  0  0
M  END
>  <MODEL>
7

>  <REMARK>
 VINA RESULT:      -7.2      2.074      4.986
  Name = 
  15 active torsions:
  status: ('A' for Active; 'I' for Inactive)
    1  A    between atoms: C_2  and  C_13
    2  A    between atoms: C_3  and  C_14
    3  A    between atoms: C_3  and  C_24
    4  A    between atoms: C_6  and  C_26
    5  A    between atoms: C_6  and  C_32
    6  A    between atoms: C_7  and  O_33
    7  A    between atoms: C_10  and  O_21
    8  A    between atoms: C_11  and  C_26
    9  A    between atoms: C_11  and  C_29
   10  A    between atoms: C_13  and  C_24
   11  A    between atoms: C_14  and  C_15
   12  A    between atoms: C_16  and  C_27
   13  A    between atoms: C_18  and  C_27
   14  A    between atoms: C_18  and  C_29
   15  A    between atoms: O_21  and  C_32
                            x       y       z     vdW  Elec       q    Type
                         _______ _______ _______ _____ _____    ______ ____

>  <TORSDO>
F 15

$$$$
=
 OpenBabel10232411263D

 36 38  0  0  1  0  0  0  0  0999 V2000
  186.1410  178.3490  146.7300 C   0  0  0  0  0  0  0  0  0  0  0  0
  188.9580  178.4140  148.9710 C   0  0  0  0  0  1  0  0  0  0  0  0
  188.2610  177.4800  148.0010 C   0  0  1  0  0  3  0  0  0  0  0  0
  187.0210  177.3390  145.9910 C   0  0  1  0  0  3  0  0  0  0  0  0
  189.9680  177.7120  145.2770 C   0  0  2  0  0  3  0  0  0  0  0  0
  187.5230  177.6790  144.5980 C   0  0  1  0  0  3  0  0  0  0  0  0
  190.3830  176.9330  146.5430 C   0  0  0  0  0  2  0  0  0  0  0  0
  185.0570  178.8360  147.0040 O   0  0  0  0  0  0  0  0  0  0  0  0
  188.8980  177.0140  144.4220 C   0  0  0  0  0  2  0  0  0  0  0  0
  187.6620  178.2800  146.8580 C   0  0  1  0  0  3  0  0  0  0  0  0
  189.2520  176.4210  147.4630 C   0  0  0  0  0  2  0  0  0  0  0  0
  191.2030  177.9980  144.4440 C   0  0  0  0  0  2  0  0  0  0  0  0
  191.3520  176.9610  143.3420 C   0  0  0  0  0  2  0  0  0  0  0  0
  191.6910  177.6340  142.0210 C   0  0  0  0  0  2  0  0  0  0  0  0
  190.7590  177.1710  140.9110 C   0  0  2  0  0  3  0  0  0  0  0  0
  191.2670  177.5830  139.6930 F   0  0  0  0  0  0  0  0  0  0  0  0
  189.3730  177.7610  141.1100 C   0  0  0  0  0  2  0  0  0  0  0  0
  188.5800  177.6730  139.8210 C   0  0  0  0  0  1  0  0  0  0  0  0
  186.5710  177.1280  143.5520 C   0  0  0  0  0  2  0  0  0  0  0  0
  185.8810  178.2620  142.8180 C   0  0  0  0  0  2  0  0  0  0  0  0
  184.5410  178.5420  143.4640 C   0  0  0  0  0  2  0  0  0  0  0  0
  183.5060  178.7850  142.3870 C   0  0  0  0  0  2  0  0  0  0  0  0
  184.1040  178.4700  141.0320 C   0  0  0  0  0  2  0  0  0  0  0  0
  183.3380  177.3300  140.3970 C   0  0  0  0  0  2  0  0  0  0  0  0
  182.6260  177.8300  139.1540 C   0  0  0  0  0  2  0  0  0  0  0  0
  183.4860  177.7200  138.0250 O   0  0  0  0  0  0  0  0  0  0  0  0
  185.8020  174.3610  136.9640 C   0  0  0  0  0  0  0  0  0  0  0  0
  185.5750  176.7510  137.3300 C   0  0  0  0  0  0  0  0  0  0  0  0
  183.6760  175.2700  137.6840 C   0  0  0  0  0  0  0  0  0  0  0  0
  184.2250  176.5750  137.6800 C   0  0  0  0  0  0  0  0  0  0  0  0
  186.5810  173.2680  136.6040 O   0  0  0  0  0  1  0  0  0  0  0  0
  182.3570  175.0340  138.0550 O   0  0  0  0  0  1  0  0  0  0  0  0
  186.3550  175.6400  136.9700 C   0  0  0  0  0  3  0  0  0  0  0  0
  184.4670  174.1770  137.3220 C   0  0  0  0  0  3  0  0  0  0  0  0
  186.1180  178.0400  137.3380 O   0  0  0  0  0  0  0  0  0  0  0  0
  187.1680  178.4410  136.4670 C   0  0  0  0  0  1  0  0  0  0  0  0
  1  8  2  0  0  0  0
  3  2  1  1  0  0  0
  4  1  1  6  0  0  0
  4 10  1  0  0  0  0
  5 12  1  6  0  0  0
  5  7  1  0  0  0  0
  6 19  1  6  0  0  0
  6  4  1  0  0  0  0
  7 11  1  0  0  0  0
  9  6  1  0  0  0  0
  9  5  1  0  0  0  0
 10  1  1  1  0  0  0
 10  3  1  0  0  0  0
 11  3  1  0  0  0  0
 13 12  1  0  0  0  0
 14 13  1  0  0  0  0
 15 16  1  6  0  0  0
 15 17  1  0  0  0  0
 15 14  1  0  0  0  0
 18 17  1  0  0  0  0
 20 21  1  0  0  0  0
 20 19  1  0  0  0  0
 22 21  1  0  0  0  0
 23 22  1  0  0  0  0
 24 23  1  0  0  0  0
 25 24  1  0  0  0  0
 26 25  1  0  0  0  0
 27 33  2  0  0  0  0
 27 34  1  0  0  0  0
 28 35  1  0  0  0  0
 28 30  2  0  0  0  0
 29 32  1  0  0  0  0
 30 29  1  0  0  0  0
 30 26  1  0  0  0  0
 31 27  1  0  0  0  0
 33 28  1  0  0  0  0
 34 29  2  0  0  0  0
 36 35  1  0  0  0  0
M  END
>  <MODEL>
8

>  <REMARK>
 VINA RESULT:      -7.2      1.423      2.594
  Name = 
  15 active torsions:
  status: ('A' for Active; 'I' for Inactive)
    1  A    between atoms: C_2  and  C_13
    2  A    between atoms: C_3  and  C_14
    3  A    between atoms: C_3  and  C_24
    4  A    between atoms: C_6  and  C_26
    5  A    between atoms: C_6  and  C_32
    6  A    between atoms: C_7  and  O_33
    7  A    between atoms: C_10  and  O_21
    8  A    between atoms: C_11  and  C_26
    9  A    between atoms: C_11  and  C_29
   10  A    between atoms: C_13  and  C_24
   11  A    between atoms: C_14  and  C_15
   12  A    between atoms: C_16  and  C_27
   13  A    between atoms: C_18  and  C_27
   14  A    between atoms: C_18  and  C_29
   15  A    between atoms: O_21  and  C_32
                            x       y       z     vdW  Elec       q    Type
                         _______ _______ _______ _____ _____    ______ ____

>  <TORSDO>
F 15

$$$$
=
 OpenBabel10232411263D

 36 38  0  0  1  0  0  0  0  0999 V2000
  188.3530  177.5730  147.9860 C   0  0  0  0  0  0  0  0  0  0  0  0
  191.9390  177.2540  148.0000 C   0  0  0  0  0  1  0  0  0  0  0  0
  190.7090  176.5680  147.4370 C   0  0  1  0  0  3  0  0  0  0  0  0
  188.5080  176.8810  146.6300 C   0  0  1  0  0  3  0  0  0  0  0  0
  190.4630  177.6800  144.4220 C   0  0  2  0  0  3  0  0  0  0  0  0
  188.1100  177.6310  145.3710 C   0  0  1  0  0  3  0  0  0  0  0  0
  191.4700  176.6210  144.9180 C   0  0  0  0  0  2  0  0  0  0  0  0
  187.7050  177.8740  148.9750 O   0  0  0  0  0  0  0  0  0  0  0  0
  189.0290  177.1570  144.2340 C   0  0  0  0  0  2  0  0  0  0  0  0
  189.6320  177.5980  147.1510 C   0  0  1  0  0  3  0  0  0  0  0  0
  191.0680  175.7830  146.1530 C   0  0  0  0  0  2  0  0  0  0  0  0
  190.9770  178.2860  143.1300 C   0  0  0  0  0  2  0  0  0  0  0  0
  191.8660  177.2950  142.3960 C   0  0  0  0  0  2  0  0  0  0  0  0
  191.8060  177.5370  140.8950 C   0  0  0  0  0  2  0  0  0  0  0  0
  190.6070  176.8390  140.2710 C   0  0  2  0  0  3  0  0  0  0  0  0
  191.0420  176.0310  139.2370 F   0  0  0  0  0  0  0  0  0  0  0  0
  189.6230  177.8670  139.7360 C   0  0  0  0  0  2  0  0  0  0  0  0
  188.5850  177.1880  138.8640 C   0  0  0  0  0  1  0  0  0  0  0  0
  186.6710  177.3120  145.0070 C   0  0  0  0  0  2  0  0  0  0  0  0
  185.8750  178.5910  144.8300 C   0  0  0  0  0  2  0  0  0  0  0  0
  184.9310  178.7660  146.0000 C   0  0  0  0  0  2  0  0  0  0  0  0
  183.5050  178.7920  145.4940 C   0  0  0  0  0  2  0  0  0  0  0  0
  183.5070  178.9380  143.9870 C   0  0  0  0  0  2  0  0  0  0  0  0
  182.0800  179.0100  143.4880 C   0  0  0  0  0  2  0  0  0  0  0  0
  182.0650  178.8530  141.9790 C   0  0  0  0  0  2  0  0  0  0  0  0
  183.2520  178.2010  141.5460 O   0  0  0  0  0  0  0  0  0  0  0  0
  184.3610  177.5050  137.5370 C   0  0  0  0  0  0  0  0  0  0  0  0
  184.7400  178.5640  139.6900 C   0  0  0  0  0  0  0  0  0  0  0  0
  182.8350  177.0820  139.3710 C   0  0  0  0  0  0  0  0  0  0  0  0
  183.5890  177.9420  140.2050 C   0  0  0  0  0  0  0  0  0  0  0  0
  184.7390  177.2950  136.2180 O   0  0  0  0  0  1  0  0  0  0  0  0
  181.7090  176.4140  139.8380 O   0  0  0  0  0  1  0  0  0  0  0  0
  185.1160  178.3430  138.3550 C   0  0  0  0  0  3  0  0  0  0  0  0
  183.2250  176.8760  138.0450 C   0  0  0  0  0  3  0  0  0  0  0  0
  185.4900  179.4040  140.5200 O   0  0  0  0  0  0  0  0  0  0  0  0
  186.4880  178.9190  141.4090 C   0  0  0  0  0  1  0  0  0  0  0  0
  1  8  2  0  0  0  0
  3  2  1  6  0  0  0
  4 10  1  0  0  0  0
  4  1  1  1  0  0  0
  5 12  1  6  0  0  0
  5  7  1  0  0  0  0
  6 19  1  6  0  0  0
  6  4  1  0  0  0  0
  7 11  1  0  0  0  0
  9  5  1  0  0  0  0
  9  6  1  0  0  0  0
 10  3  1  0  0  0  0
 10  1  1  1  0  0  0
 11  3  1  0  0  0  0
 13 12  1  0  0  0  0
 14 13  1  0  0  0  0
 15 16  1  6  0  0  0
 15 14  1  0  0  0  0
 17 15  1  0  0  0  0
 18 17  1  0  0  0  0
 20 19  1  0  0  0  0
 20 21  1  0  0  0  0
 22 21  1  0  0  0  0
 23 22  1  0  0  0  0
 24 23  1  0  0  0  0
 25 24  1  0  0  0  0
 26 25  1  0  0  0  0
 27 34  2  0  0  0  0
 27 33  1  0  0  0  0
 28 30  1  0  0  0  0
 28 35  1  0  0  0  0
 29 32  1  0  0  0  0
 29 30  2  0  0  0  0
 30 26  1  0  0  0  0
 31 27  1  0  0  0  0
 33 28  2  0  0  0  0
 34 29  1  0  0  0  0
 35 36  1  0  0  0  0
M  END
>  <MODEL>
9

>  <REMARK>
 VINA RESULT:      -7.2      2.117      3.897
  Name = 
  15 active torsions:
  status: ('A' for Active; 'I' for Inactive)
    1  A    between atoms: C_2  and  C_13
    2  A    between atoms: C_3  and  C_14
    3  A    between atoms: C_3  and  C_24
    4  A    between atoms: C_6  and  C_26
    5  A    between atoms: C_6  and  C_32
    6  A    between atoms: C_7  and  O_33
    7  A    between atoms: C_10  and  O_21
    8  A    between atoms: C_11  and  C_26
    9  A    between atoms: C_11  and  C_29
   10  A    between atoms: C_13  and  C_24
   11  A    between atoms: C_14  and  C_15
   12  A    between atoms: C_16  and  C_27
   13  A    between atoms: C_18  and  C_27
   14  A    between atoms: C_18  and  C_29
   15  A    between atoms: O_21  and  C_32
                            x       y       z     vdW  Elec       q    Type
                         _______ _______ _______ _____ _____    ______ ____

>  <TORSDO>
F 15

$$$$
