=
 OpenBabel10232409463D

 25 28  0  0  1  0  0  0  0  0999 V2000
  188.2210  177.9070  145.9870 C   0  0  1  0  0  3  0  0  0  0  0  0
  189.9520  176.9600  144.3380 N   0  0  0  0  0  0  0  0  0  0  0  0
  188.6100  177.3710  144.6310 C   0  0  0  0  0  0  0  0  0  0  0  0
  191.7230  178.6140  144.7070 C   0  0  0  0  0  1  0  0  0  0  0  0
  192.0630  176.9440  147.3130 O   0  0  0  0  0  1  0  0  0  0  0  0
  191.1540  177.2680  145.1230 C   0  0  1  0  0  3  0  0  0  0  0  0
  190.8290  176.8920  142.0550 C   0  0  0  0  0  2  0  0  0  0  0  0
  188.5740  176.7040  142.4510 N   0  0  0  0  0  0  0  0  0  0  0  0
  190.0880  177.0870  140.8080 C   0  0  0  0  0  0  0  0  0  0  0  0
  190.6230  177.2760  139.6850 O   0  0  0  0  0  0  0  0  0  0  0  0
  189.7780  176.3030  147.0380 C   0  0  0  0  0  2  0  0  0  0  0  0
  187.8350  177.2560  143.5410 C   0  0  0  0  0  0  0  0  0  0  0  0
  189.8880  176.6450  142.9530 C   0  0  2  0  0  3  0  0  0  0  0  0
  186.8950  178.3430  146.0210 O   0  0  0  0  0  1  0  0  0  0  0  0
  190.8900  177.2770  146.6360 C   0  0  1  0  0  3  0  0  0  0  0  0
  188.6150  177.1060  141.0580 C   0  0  0  0  0  2  0  0  0  0  0  0
  188.4430  176.9260  147.0570 N   0  0  0  0  0  2  0  0  0  0  0  0
  186.4900  177.6220  143.4770 O   0  0  0  0  0  0  0  0  0  0  0  0
  185.9950  178.4860  142.4660 C   0  0  0  0  0  2  0  0  0  0  0  0
  183.6740  178.5600  141.5410 C   0  0  0  0  0  3  0  0  0  0  0  0
  181.8180  178.9340  142.9330 N   0  0  0  0  0  0  0  0  0  0  0  0
  183.9900  178.8990  143.9000 C   0  0  0  0  0  3  0  0  0  0  0  0
  182.3340  178.7010  141.7240 N   0  0  0  0  0  0  0  0  0  0  0  0
  182.6090  179.0370  144.0330 C   0  0  0  0  0  3  0  0  0  0  0  0
  184.5280  178.6660  142.6370 C   0  0  0  0  0  0  0  0  0  0  0  0
  1 14  1  6  0  0  0
  1 17  1  0  0  0  0
  2  3  1  0  0  0  0
  2  6  1  0  0  0  0
  3  1  1  0  0  0  0
  6  4  1  6  0  0  0
  6 15  1  0  0  0  0
  8 13  1  0  0  0  0
  8 12  1  0  0  0  0
  9 16  1  0  0  0  0
  9  7  1  0  0  0  0
 10  9  2  0  0  0  0
 11 17  1  0  0  0  0
 12  3  2  0  0  0  0
 13  7  1  6  0  0  0
 13  2  1  0  0  0  0
 15 11  1  0  0  0  0
 15  5  1  1  0  0  0
 16  8  1  0  0  0  0
 18 12  1  0  0  0  0
 19 25  1  0  0  0  0
 19 18  1  0  0  0  0
 20 23  2  0  0  0  0
 20 25  1  0  0  0  0
 21 24  2  0  0  0  0
 22 24  1  0  0  0  0
 23 21  1  0  0  0  0
 25 22  2  0  0  0  0
M  END
>  <MODEL>
1

>  <REMARK>
 VINA RESULT:      -7.9      0.000      0.000
  Name = 
  3 active torsions:
  status: ('A' for Active; 'I' for Inactive)
    1  A    between atoms: O_6  and  C_17
    2  A    between atoms: O_6  and  C_19
    3  A    between atoms: C_19  and  C_24
                            x       y       z     vdW  Elec       q    Type
                         _______ _______ _______ _____ _____    ______ ____

>  <TORSDO>
F 3

$$$$
=
 OpenBabel10232409463D

 25 28  0  0  1  0  0  0  0  0999 V2000
  190.1480  176.2520  144.1010 C   0  0  1  0  0  3  0  0  0  0  0  0
  188.8930  177.6200  145.8810 N   0  0  0  0  0  0  0  0  0  0  0  0
  188.9960  177.1220  144.5390 C   0  0  0  0  0  0  0  0  0  0  0  0
  188.9320  175.9620  147.6840 C   0  0  0  0  0  1  0  0  0  0  0  0
  191.8900  176.9210  147.8400 O   0  0  0  0  0  1  0  0  0  0  0  0
  189.6400  177.1470  147.0510 C   0  0  1  0  0  3  0  0  0  0  0  0
  186.7530  178.2820  146.8670 C   0  0  0  0  0  2  0  0  0  0  0  0
  187.0570  178.3200  144.5890 N   0  0  0  0  0  0  0  0  0  0  0  0
  185.4580  178.3960  146.1950 C   0  0  0  0  0  0  0  0  0  0  0  0
  184.3560  178.5080  146.7920 O   0  0  0  0  0  0  0  0  0  0  0  0
  191.6560  177.5670  145.5510 C   0  0  0  0  0  2  0  0  0  0  0  0
  187.9280  177.4950  143.8160 C   0  0  0  0  0  0  0  0  0  0  0  0
  187.6310  178.2750  145.8750 C   0  0  2  0  0  3  0  0  0  0  0  0
  189.9970  175.7970  142.7910 O   0  0  0  0  0  1  0  0  0  0  0  0
  191.0860  176.7490  146.7130 C   0  0  1  0  0  3  0  0  0  0  0  0
  185.6110  178.2860  144.7140 C   0  0  0  0  0  2  0  0  0  0  0  0
  191.4420  176.9340  144.2380 N   0  0  0  0  0  2  0  0  0  0  0  0
  187.6980  177.1310  142.4890 O   0  0  0  0  0  0  0  0  0  0  0  0
  188.1990  177.8940  141.4040 C   0  0  0  0  0  2  0  0  0  0  0  0
  187.1770  178.2550  139.1520 C   0  0  0  0  0  3  0  0  0  0  0  0
  184.9890  179.0830  138.9240 N   0  0  0  0  0  0  0  0  0  0  0  0
  185.8860  178.7910  141.1080 C   0  0  0  0  0  3  0  0  0  0  0  0
  186.1240  178.6370  138.3810 N   0  0  0  0  0  0  0  0  0  0  0  0
  184.8370  179.1720  140.2720 C   0  0  0  0  0  3  0  0  0  0  0  0
  187.0720  178.3350  140.5390 C   0  0  0  0  0  0  0  0  0  0  0  0
  1 14  1  6  0  0  0
  1 17  1  0  0  0  0
  1  3  1  0  0  0  0
  2  6  1  0  0  0  0
  3  2  1  0  0  0  0
  6  4  1  6  0  0  0
  8 16  1  0  0  0  0
  8 13  1  0  0  0  0
  9 10  2  0  0  0  0
  9  7  1  0  0  0  0
 11 15  1  0  0  0  0
 12  3  2  0  0  0  0
 12  8  1  0  0  0  0
 13  2  1  0  0  0  0
 13  7  1  1  0  0  0
 15  6  1  0  0  0  0
 15  5  1  1  0  0  0
 16  9  1  0  0  0  0
 17 11  1  0  0  0  0
 18 12  1  0  0  0  0
 19 18  1  0  0  0  0
 20 25  1  0  0  0  0
 21 24  2  0  0  0  0
 23 21  1  0  0  0  0
 23 20  2  0  0  0  0
 24 22  1  0  0  0  0
 25 22  2  0  0  0  0
 25 19  1  0  0  0  0
M  END
>  <MODEL>
2

>  <REMARK>
 VINA RESULT:      -7.8      2.161      4.245
  Name = 
  3 active torsions:
  status: ('A' for Active; 'I' for Inactive)
    1  A    between atoms: O_6  and  C_17
    2  A    between atoms: O_6  and  C_19
    3  A    between atoms: C_19  and  C_24
                            x       y       z     vdW  Elec       q    Type
                         _______ _______ _______ _____ _____    ______ ____

>  <TORSDO>
F 3

$$$$
=
 OpenBabel10232409463D

 25 28  0  0  1  0  0  0  0  0999 V2000
  185.5640  177.8010  144.3530 C   0  0  1  0  0  3  0  0  0  0  0  0
  185.4570  178.7610  141.9690 N   0  0  0  0  0  0  0  0  0  0  0  0
  186.2090  178.1740  143.0410 C   0  0  0  0  0  0  0  0  0  0  0  0
  183.4940  177.5210  141.1850 C   0  0  0  0  0  1  0  0  0  0  0  0
  182.0590  179.6170  142.9850 O   0  0  0  0  0  1  0  0  0  0  0  0
  183.9950  178.7960  141.8410 C   0  0  1  0  0  3  0  0  0  0  0  0
  186.1770  178.6160  139.6350 C   0  0  0  0  0  2  0  0  0  0  0  0
  187.7050  178.4700  141.3460 N   0  0  0  0  0  0  0  0  0  0  0  0
  187.4480  178.0990  139.1240 C   0  0  0  0  0  0  0  0  0  0  0  0
  187.6700  177.8300  137.9160 O   0  0  0  0  0  0  0  0  0  0  0  0
  184.1200  179.7980  144.1790 C   0  0  0  0  0  2  0  0  0  0  0  0
  187.4830  177.9780  142.6670 C   0  0  0  0  0  0  0  0  0  0  0  0
  186.4130  178.8360  140.9200 C   0  0  2  0  0  3  0  0  0  0  0  0
  186.4530  177.1530  145.2120 O   0  0  0  0  0  1  0  0  0  0  0  0
  183.2840  178.9820  143.1900 C   0  0  1  0  0  3  0  0  0  0  0  0
  188.4170  177.8640  140.2360 C   0  0  0  0  0  2  0  0  0  0  0  0
  184.9810  178.9640  145.0360 N   0  0  0  0  0  2  0  0  0  0  0  0
  188.4620  177.3780  143.4600 O   0  0  0  0  0  0  0  0  0  0  0  0
  189.6800  178.0340  143.7750 C   0  0  0  0  0  2  0  0  0  0  0  0
  191.4820  177.0130  145.1740 C   0  0  0  0  0  3  0  0  0  0  0  0
  191.1880  176.6700  147.4800 N   0  0  0  0  0  0  0  0  0  0  0  0
  189.4090  177.6300  146.2270 C   0  0  0  0  0  3  0  0  0  0  0  0
  191.9420  176.5900  146.3810 N   0  0  0  0  0  0  0  0  0  0  0  0
  189.9290  177.1810  147.4390 C   0  0  0  0  0  3  0  0  0  0  0  0
  190.1940  177.5370  145.0790 C   0  0  0  0  0  0  0  0  0  0  0  0
  1 17  1  0  0  0  0
  1 14  1  1  0  0  0
  2  3  1  0  0  0  0
  3  1  1  0  0  0  0
  6  4  1  1  0  0  0
  6  2  1  0  0  0  0
  6 15  1  0  0  0  0
  8 12  1  0  0  0  0
  9  7  1  0  0  0  0
  9 16  1  0  0  0  0
 10  9  2  0  0  0  0
 11 17  1  0  0  0  0
 12  3  2  0  0  0  0
 12 18  1  0  0  0  0
 13  7  1  6  0  0  0
 13  8  1  0  0  0  0
 13  2  1  0  0  0  0
 15  5  1  6  0  0  0
 15 11  1  0  0  0  0
 16  8  1  0  0  0  0
 18 19  1  0  0  0  0
 19 25  1  0  0  0  0
 20 23  1  0  0  0  0
 22 24  2  0  0  0  0
 23 21  2  0  0  0  0
 24 21  1  0  0  0  0
 25 20  2  0  0  0  0
 25 22  1  0  0  0  0
M  END
>  <MODEL>
3

>  <REMARK>
 VINA RESULT:      -7.8      2.199      6.392
  Name = 
  3 active torsions:
  status: ('A' for Active; 'I' for Inactive)
    1  A    between atoms: O_6  and  C_17
    2  A    between atoms: O_6  and  C_19
    3  A    between atoms: C_19  and  C_24
                            x       y       z     vdW  Elec       q    Type
                         _______ _______ _______ _____ _____    ______ ____

>  <TORSDO>
F 3

$$$$
=
 OpenBabel10232409463D

 25 28  0  0  1  0  0  0  0  0999 V2000
  187.6040  176.9170  143.2110 C   0  0  1  0  0  3  0  0  0  0  0  0
  189.9870  177.3230  144.0890 N   0  0  0  0  0  0  0  0  0  0  0  0
  188.5740  177.2380  144.3210 C   0  0  0  0  0  0  0  0  0  0  0  0
  191.0650  175.3660  143.0830 C   0  0  0  0  0  1  0  0  0  0  0  0
  190.8080  177.1430  140.5390 O   0  0  0  0  0  1  0  0  0  0  0  0
  190.7130  176.8330  142.9110 C   0  0  1  0  0  3  0  0  0  0  0  0
  191.6270  177.0020  145.8770 C   0  0  0  0  0  2  0  0  0  0  0  0
  189.4920  177.7050  146.3560 N   0  0  0  0  0  0  0  0  0  0  0  0
  191.3680  176.8640  147.3110 C   0  0  0  0  0  0  0  0  0  0  0  0
  192.2170  176.4670  148.1510 O   0  0  0  0  0  0  0  0  0  0  0  0
  188.9970  178.2340  141.6520 C   0  0  0  0  0  2  0  0  0  0  0  0
  188.3000  177.4210  145.6230 C   0  0  0  0  0  0  0  0  0  0  0  0
  190.5080  177.5240  145.3970 C   0  0  2  0  0  3  0  0  0  0  0  0
  186.2960  176.7820  143.6770 O   0  0  0  0  0  1  0  0  0  0  0  0
  189.9210  177.0130  141.6070 C   0  0  1  0  0  3  0  0  0  0  0  0
  189.9450  177.1840  147.6320 C   0  0  0  0  0  2  0  0  0  0  0  0
  187.6420  177.9170  142.1360 N   0  0  0  0  0  2  0  0  0  0  0  0
  187.0260  177.3490  146.1870 O   0  0  0  0  0  0  0  0  0  0  0  0
  186.3590  178.4970  146.6840 C   0  0  0  0  0  2  0  0  0  0  0  0
  185.5970  179.6990  144.6290 C   0  0  0  0  0  3  0  0  0  0  0  0
  183.3540  179.6220  143.9330 N   0  0  0  0  0  0  0  0  0  0  0  0
  183.9820  178.4620  145.9120 C   0  0  0  0  0  3  0  0  0  0  0  0
  184.6100  180.0380  143.7570 N   0  0  0  0  0  0  0  0  0  0  0  0
  183.0080  178.8390  144.9880 C   0  0  0  0  0  3  0  0  0  0  0  0
  185.2900  178.9050  145.7330 C   0  0  0  0  0  0  0  0  0  0  0  0
  1 14  1  1  0  0  0
  1  3  1  0  0  0  0
  2  3  1  0  0  0  0
  2 13  1  0  0  0  0
  3 12  2  0  0  0  0
  6  4  1  1  0  0  0
  6  2  1  0  0  0  0
  7  9  1  0  0  0  0
  8 16  1  0  0  0  0
  9 16  1  0  0  0  0
  9 10  2  0  0  0  0
 11 17  1  0  0  0  0
 12 18  1  0  0  0  0
 12  8  1  0  0  0  0
 13  7  1  1  0  0  0
 13  8  1  0  0  0  0
 15  5  1  6  0  0  0
 15 11  1  0  0  0  0
 15  6  1  0  0  0  0
 17  1  1  0  0  0  0
 18 19  1  0  0  0  0
 20 25  1  0  0  0  0
 21 24  2  0  0  0  0
 23 21  1  0  0  0  0
 23 20  2  0  0  0  0
 24 22  1  0  0  0  0
 25 22  2  0  0  0  0
 25 19  1  0  0  0  0
M  END
>  <MODEL>
4

>  <REMARK>
 VINA RESULT:      -7.7      1.508      4.234
  Name = 
  3 active torsions:
  status: ('A' for Active; 'I' for Inactive)
    1  A    between atoms: O_6  and  C_17
    2  A    between atoms: O_6  and  C_19
    3  A    between atoms: C_19  and  C_24
                            x       y       z     vdW  Elec       q    Type
                         _______ _______ _______ _____ _____    ______ ____

>  <TORSDO>
F 3

$$$$
=
 OpenBabel10232409463D

 25 28  0  0  1  0  0  0  0  0999 V2000
  185.4840  179.1610  141.6930 C   0  0  1  0  0  3  0  0  0  0  0  0
  185.8920  177.8970  143.8950 N   0  0  0  0  0  0  0  0  0  0  0  0
  186.3430  178.3150  142.6000 C   0  0  0  0  0  0  0  0  0  0  0  0
  185.1820  179.6590  145.4430 C   0  0  0  0  0  1  0  0  0  0  0  0
  182.3820  178.7200  144.4570 O   0  0  0  0  0  1  0  0  0  0  0  0
  184.7520  178.4410  144.6440 C   0  0  1  0  0  3  0  0  0  0  0  0
  187.4430  177.2870  145.6870 C   0  0  0  0  0  2  0  0  0  0  0  0
  188.0700  177.1160  143.4830 N   0  0  0  0  0  0  0  0  0  0  0  0
  188.8950  177.1300  145.5940 C   0  0  0  0  0  0  0  0  0  0  0  0
  189.6650  177.0490  146.5860 O   0  0  0  0  0  0  0  0  0  0  0  0
  183.4900  177.9390  142.4890 C   0  0  0  0  0  2  0  0  0  0  0  0
  187.6010  177.8960  142.3840 C   0  0  0  0  0  0  0  0  0  0  0  0
  187.0340  177.2380  144.4280 C   0  0  2  0  0  3  0  0  0  0  0  0
  186.1570  179.5380  140.5300 O   0  0  0  0  0  1  0  0  0  0  0  0
  183.5720  178.8230  143.7370 C   0  0  1  0  0  3  0  0  0  0  0  0
  189.3470  177.1520  144.1710 C   0  0  0  0  0  2  0  0  0  0  0  0
  184.2250  178.4930  141.3380 N   0  0  0  0  0  2  0  0  0  0  0  0
  188.3500  178.1800  141.2410 O   0  0  0  0  0  0  0  0  0  0  0  0
  189.0010  177.1630  140.4980 C   0  0  0  0  0  2  0  0  0  0  0  0
  188.9950  178.8690  138.6720 C   0  0  0  0  0  3  0  0  0  0  0  0
  189.1170  178.2370  136.4120 N   0  0  0  0  0  0  0  0  0  0  0  0
  189.1090  176.5410  138.0800 C   0  0  0  0  0  3  0  0  0  0  0  0
  189.0420  179.1840  137.3500 N   0  0  0  0  0  0  0  0  0  0  0  0
  189.1540  176.9180  136.7380 C   0  0  0  0  0  3  0  0  0  0  0  0
  189.0210  177.5300  139.0570 C   0  0  0  0  0  0  0  0  0  0  0  0
  1 14  1  6  0  0  0
  1  3  1  0  0  0  0
  2 13  1  0  0  0  0
  2  6  1  0  0  0  0
  3  2  1  0  0  0  0
  6  4  1  6  0  0  0
  8 16  1  0  0  0  0
  8 13  1  0  0  0  0
  9  7  1  0  0  0  0
  9 10  2  0  0  0  0
 11 15  1  0  0  0  0
 12  3  2  0  0  0  0
 12  8  1  0  0  0  0
 13  7  1  1  0  0  0
 15  5  1  1  0  0  0
 15  6  1  0  0  0  0
 16  9  1  0  0  0  0
 17  1  1  0  0  0  0
 17 11  1  0  0  0  0
 18 12  1  0  0  0  0
 19 18  1  0  0  0  0
 20 25  1  0  0  0  0
 21 24  2  0  0  0  0
 21 23  1  0  0  0  0
 22 25  2  0  0  0  0
 23 20  2  0  0  0  0
 24 22  1  0  0  0  0
 25 19  1  0  0  0  0
M  END
>  <MODEL>
5

>  <REMARK>
 VINA RESULT:      -7.6      2.746      6.333
  Name = 
  3 active torsions:
  status: ('A' for Active; 'I' for Inactive)
    1  A    between atoms: O_6  and  C_17
    2  A    between atoms: O_6  and  C_19
    3  A    between atoms: C_19  and  C_24
                            x       y       z     vdW  Elec       q    Type
                         _______ _______ _______ _____ _____    ______ ____

>  <TORSDO>
F 3

$$$$
=
 OpenBabel10232409463D

 25 28  0  0  1  0  0  0  0  0999 V2000
  191.5440  177.2750  139.5480 C   0  0  1  0  0  3  0  0  0  0  0  0
  188.9990  177.4270  139.2070 N   0  0  0  0  0  0  0  0  0  0  0  0
  190.1360  177.3700  140.0810 C   0  0  0  0  0  0  0  0  0  0  0  0
  188.9800  179.2130  137.5290 C   0  0  0  0  0  1  0  0  0  0  0  0
  189.9170  176.8560  135.7230 O   0  0  0  0  0  1  0  0  0  0  0  0
  189.0140  177.7130  137.7670 C   0  0  1  0  0  3  0  0  0  0  0  0
  186.8620  178.3940  139.9040 C   0  0  0  0  0  2  0  0  0  0  0  0
  188.3250  177.5400  141.4560 N   0  0  0  0  0  0  0  0  0  0  0  0
  186.4790  178.8380  141.2450 C   0  0  0  0  0  0  0  0  0  0  0  0
  185.4650  179.5390  141.4980 O   0  0  0  0  0  0  0  0  0  0  0  0
  190.7250  175.8270  137.7210 C   0  0  0  0  0  2  0  0  0  0  0  0
  189.7480  177.4710  141.3620 C   0  0  0  0  0  0  0  0  0  0  0  0
  187.9190  177.6230  140.1100 C   0  0  2  0  0  3  0  0  0  0  0  0
  192.4980  177.3370  140.5650 O   0  0  0  0  0  1  0  0  0  0  0  0
  190.2370  177.1160  137.0550 C   0  0  1  0  0  3  0  0  0  0  0  0
  187.4880  178.4110  142.2600 C   0  0  0  0  0  2  0  0  0  0  0  0
  191.7550  176.0600  138.7500 N   0  0  0  0  0  2  0  0  0  0  0  0
  190.6130  177.5010  142.4560 O   0  0  0  0  0  0  0  0  0  0  0  0
  190.8870  176.3430  143.2290 C   0  0  0  0  0  2  0  0  0  0  0  0
  191.7380  176.5220  145.5720 C   0  0  0  0  0  3  0  0  0  0  0  0
  190.3480  177.2490  147.3220 N   0  0  0  0  0  0  0  0  0  0  0  0
  189.4440  177.0920  145.1270 C   0  0  0  0  0  3  0  0  0  0  0  0
  191.5360  176.8290  146.8810 N   0  0  0  0  0  0  0  0  0  0  0  0
  189.2900  177.3920  146.4800 C   0  0  0  0  0  3  0  0  0  0  0  0
  190.6810  176.6440  144.6710 C   0  0  0  0  0  0  0  0  0  0  0  0
  1  3  1  0  0  0  0
  1 14  1  1  0  0  0
  2  3  1  0  0  0  0
  2 13  1  0  0  0  0
  3 12  2  0  0  0  0
  6  4  1  1  0  0  0
  6  2  1  0  0  0  0
  7  9  1  0  0  0  0
  8 16  1  0  0  0  0
  9 10  2  0  0  0  0
  9 16  1  0  0  0  0
 11 17  1  0  0  0  0
 12  8  1  0  0  0  0
 12 18  1  0  0  0  0
 13  7  1  1  0  0  0
 13  8  1  0  0  0  0
 15  5  1  6  0  0  0
 15 11  1  0  0  0  0
 15  6  1  0  0  0  0
 17  1  1  0  0  0  0
 18 19  1  0  0  0  0
 19 25  1  0  0  0  0
 20 23  1  0  0  0  0
 22 24  2  0  0  0  0
 23 21  2  0  0  0  0
 24 21  1  0  0  0  0
 25 22  1  0  0  0  0
 25 20  2  0  0  0  0
M  END
>  <MODEL>
6

>  <REMARK>
 VINA RESULT:      -7.5      3.056      7.103
  Name = 
  3 active torsions:
  status: ('A' for Active; 'I' for Inactive)
    1  A    between atoms: O_6  and  C_17
    2  A    between atoms: O_6  and  C_19
    3  A    between atoms: C_19  and  C_24
                            x       y       z     vdW  Elec       q    Type
                         _______ _______ _______ _____ _____    ______ ____

>  <TORSDO>
F 3

$$$$
=
 OpenBabel10232409463D

 25 28  0  0  1  0  0  0  0  0999 V2000
  190.1450  176.1840  144.0970 C   0  0  1  0  0  3  0  0  0  0  0  0
  188.8600  177.6490  145.7760 N   0  0  0  0  0  0  0  0  0  0  0  0
  189.0060  177.1060  144.4560 C   0  0  0  0  0  0  0  0  0  0  0  0
  188.7620  176.0480  147.6280 C   0  0  0  0  0  1  0  0  0  0  0  0
  191.7410  176.9130  147.8880 O   0  0  0  0  0  1  0  0  0  0  0  0
  189.5380  177.1880  146.9930 C   0  0  1  0  0  3  0  0  0  0  0  0
  186.7030  178.4130  146.6440 C   0  0  0  0  0  2  0  0  0  0  0  0
  187.1080  178.3680  144.3820 N   0  0  0  0  0  0  0  0  0  0  0  0
  185.4440  178.5480  145.9100 C   0  0  0  0  0  0  0  0  0  0  0  0
  184.3210  178.7160  146.4530 O   0  0  0  0  0  0  0  0  0  0  0  0
  191.6320  177.4930  145.5730 C   0  0  0  0  0  2  0  0  0  0  0  0
  187.9840  177.4910  143.6750 C   0  0  0  0  0  0  0  0  0  0  0  0
  187.6230  178.3450  145.6930 C   0  0  2  0  0  3  0  0  0  0  0  0
  190.0360  175.6930  142.7950 O   0  0  0  0  0  1  0  0  0  0  0  0
  190.9830  176.7320  146.7320 C   0  0  1  0  0  3  0  0  0  0  0  0
  185.6590  178.3860  144.4420 C   0  0  0  0  0  2  0  0  0  0  0  0
  191.4540  176.8270  144.2710 N   0  0  0  0  0  2  0  0  0  0  0  0
  187.8000  177.0930  142.3500 O   0  0  0  0  0  0  0  0  0  0  0  0
  187.7360  178.0290  141.2860 C   0  0  0  0  0  2  0  0  0  0  0  0
  188.2630  177.3600  138.9370 C   0  0  0  0  0  3  0  0  0  0  0  0
  190.4780  177.0050  138.2380 N   0  0  0  0  0  0  0  0  0  0  0  0
  190.0730  177.6220  140.4990 C   0  0  0  0  0  3  0  0  0  0  0  0
  189.1700  177.0420  137.9750 N   0  0  0  0  0  0  0  0  0  0  0  0
  190.9600  177.2880  139.4760 C   0  0  0  0  0  3  0  0  0  0  0  0
  188.7070  177.6490  140.2260 C   0  0  0  0  0  0  0  0  0  0  0  0
  1 14  1  6  0  0  0
  1 17  1  0  0  0  0
  1  3  1  0  0  0  0
  2  6  1  0  0  0  0
  3  2  1  0  0  0  0
  6  4  1  6  0  0  0
  8 16  1  0  0  0  0
  8 13  1  0  0  0  0
  9 10  2  0  0  0  0
  9  7  1  0  0  0  0
 11 15  1  0  0  0  0
 12  8  1  0  0  0  0
 12  3  2  0  0  0  0
 13  2  1  0  0  0  0
 13  7  1  1  0  0  0
 15  6  1  0  0  0  0
 15  5  1  1  0  0  0
 16  9  1  0  0  0  0
 17 11  1  0  0  0  0
 18 12  1  0  0  0  0
 19 18  1  0  0  0  0
 20 25  1  0  0  0  0
 21 24  2  0  0  0  0
 23 21  1  0  0  0  0
 23 20  2  0  0  0  0
 24 22  1  0  0  0  0
 25 22  2  0  0  0  0
 25 19  1  0  0  0  0
M  END
>  <MODEL>
7

>  <REMARK>
 VINA RESULT:      -7.4      2.385      5.251
  Name = 
  3 active torsions:
  status: ('A' for Active; 'I' for Inactive)
    1  A    between atoms: O_6  and  C_17
    2  A    between atoms: O_6  and  C_19
    3  A    between atoms: C_19  and  C_24
                            x       y       z     vdW  Elec       q    Type
                         _______ _______ _______ _____ _____    ______ ____

>  <TORSDO>
F 3

$$$$
=
 OpenBabel10232409463D

 25 28  0  0  1  0  0  0  0  0999 V2000
  186.8410  178.2950  138.2220 C   0  0  1  0  0  3  0  0  0  0  0  0
  189.1520  177.6390  139.1420 N   0  0  0  0  0  0  0  0  0  0  0  0
  187.8280  178.1500  139.3540 C   0  0  0  0  0  0  0  0  0  0  0  0
  189.3330  175.4360  138.0850 C   0  0  0  0  0  1  0  0  0  0  0  0
  189.9090  177.2180  135.5980 O   0  0  0  0  0  1  0  0  0  0  0  0
  189.6340  176.9190  137.9580 C   0  0  1  0  0  3  0  0  0  0  0  0
  190.4600  176.6150  140.9380 C   0  0  0  0  0  2  0  0  0  0  0  0
  188.8070  178.1380  141.4130 N   0  0  0  0  0  0  0  0  0  0  0  0
  190.1310  176.5630  142.3630 C   0  0  0  0  0  0  0  0  0  0  0  0
  190.7140  175.8260  143.2000 O   0  0  0  0  0  0  0  0  0  0  0  0
  188.6970  178.9420  136.7240 C   0  0  0  0  0  2  0  0  0  0  0  0
  187.6250  178.4000  140.6570 C   0  0  0  0  0  0  0  0  0  0  0  0
  189.6750  177.5700  140.4620 C   0  0  2  0  0  3  0  0  0  0  0  0
  185.5860  178.7110  138.6670 O   0  0  0  0  0  1  0  0  0  0  0  0
  189.0230  177.4470  136.6500 C   0  0  1  0  0  3  0  0  0  0  0  0
  188.9670  177.4440  142.6770 C   0  0  0  0  0  2  0  0  0  0  0  0
  187.3220  179.2130  137.1800 N   0  0  0  0  0  2  0  0  0  0  0  0
  186.4240  178.8560  141.2030 O   0  0  0  0  0  0  0  0  0  0  0  0
  185.4160  177.9640  141.6500 C   0  0  0  0  0  2  0  0  0  0  0  0
  183.6180  178.7830  143.1810 C   0  0  0  0  0  3  0  0  0  0  0  0
  184.0200  179.0970  145.4750 N   0  0  0  0  0  0  0  0  0  0  0  0
  185.7980  178.3320  144.0920 C   0  0  0  0  0  3  0  0  0  0  0  0
  183.1970  179.1340  144.4250 N   0  0  0  0  0  0  0  0  0  0  0  0
  185.3150  178.7030  145.3460 C   0  0  0  0  0  3  0  0  0  0  0  0
  184.9400  178.3810  142.9960 C   0  0  0  0  0  0  0  0  0  0  0  0
  1 14  1  1  0  0  0
  1  3  1  0  0  0  0
  2  3  1  0  0  0  0
  2 13  1  0  0  0  0
  3 12  2  0  0  0  0
  6  4  1  1  0  0  0
  6  2  1  0  0  0  0
  7  9  1  0  0  0  0
  8 16  1  0  0  0  0
  9 16  1  0  0  0  0
  9 10  2  0  0  0  0
 11 17  1  0  0  0  0
 12 18  1  0  0  0  0
 12  8  1  0  0  0  0
 13  7  1  1  0  0  0
 13  8  1  0  0  0  0
 15  5  1  6  0  0  0
 15 11  1  0  0  0  0
 15  6  1  0  0  0  0
 17  1  1  0  0  0  0
 18 19  1  0  0  0  0
 19 25  1  0  0  0  0
 20 23  1  0  0  0  0
 22 24  2  0  0  0  0
 23 21  2  0  0  0  0
 24 21  1  0  0  0  0
 25 20  2  0  0  0  0
 25 22  1  0  0  0  0
M  END
>  <MODEL>
8

>  <REMARK>
 VINA RESULT:      -7.4      2.977      5.788
  Name = 
  3 active torsions:
  status: ('A' for Active; 'I' for Inactive)
    1  A    between atoms: O_6  and  C_17
    2  A    between atoms: O_6  and  C_19
    3  A    between atoms: C_19  and  C_24
                            x       y       z     vdW  Elec       q    Type
                         _______ _______ _______ _____ _____    ______ ____

>  <TORSDO>
F 3

$$$$
=
 OpenBabel10232409463D

 25 28  0  0  1  0  0  0  0  0999 V2000
  185.9760  178.9340  141.4540 C   0  0  1  0  0  3  0  0  0  0  0  0
  186.0890  177.8930  143.8030 N   0  0  0  0  0  0  0  0  0  0  0  0
  186.7030  178.1770  142.5380 C   0  0  0  0  0  0  0  0  0  0  0  0
  185.2280  179.8040  145.0710 C   0  0  0  0  0  1  0  0  0  0  0  0
  182.5530  178.7880  143.8450 O   0  0  0  0  0  1  0  0  0  0  0  0
  184.8770  178.5150  144.3490 C   0  0  1  0  0  3  0  0  0  0  0  0
  187.4000  177.4560  145.8220 C   0  0  0  0  0  2  0  0  0  0  0  0
  188.2880  177.0620  143.7400 N   0  0  0  0  0  0  0  0  0  0  0  0
  188.8500  177.2820  145.9250 C   0  0  0  0  0  0  0  0  0  0  0  0
  189.4920  177.2960  147.0070 O   0  0  0  0  0  0  0  0  0  0  0  0
  183.8780  177.8090  142.1150 C   0  0  0  0  0  2  0  0  0  0  0  0
  187.9690  177.7320  142.5200 C   0  0  0  0  0  0  0  0  0  0  0  0
  187.1460  177.2840  144.5340 C   0  0  2  0  0  3  0  0  0  0  0  0
  186.7920  179.1900  140.3510 O   0  0  0  0  0  1  0  0  0  0  0  0
  183.8230  178.8120  143.2710 C   0  0  1  0  0  3  0  0  0  0  0  0
  189.4720  177.1600  144.5730 C   0  0  0  0  0  2  0  0  0  0  0  0
  184.7580  178.2410  141.0140 N   0  0  0  0  0  2  0  0  0  0  0  0
  188.8570  177.8970  141.4560 O   0  0  0  0  0  0  0  0  0  0  0  0
  189.0190  176.9070  140.4530 C   0  0  0  0  0  2  0  0  0  0  0  0
  190.7380  176.5190  138.6810 C   0  0  0  0  0  3  0  0  0  0  0  0
  193.0190  176.9140  139.0870 N   0  0  0  0  0  0  0  0  0  0  0  0
  191.4570  177.2930  140.8410 C   0  0  0  0  0  3  0  0  0  0  0  0
  192.0330  176.5390  138.2680 N   0  0  0  0  0  0  0  0  0  0  0  0
  192.7690  177.2940  140.3680 C   0  0  0  0  0  3  0  0  0  0  0  0
  190.4310  176.8920  139.9890 C   0  0  0  0  0  0  0  0  0  0  0  0
  1 14  1  6  0  0  0
  1  3  1  0  0  0  0
  2  6  1  0  0  0  0
  2 13  1  0  0  0  0
  3  2  1  0  0  0  0
  6  4  1  6  0  0  0
  7  9  1  0  0  0  0
  8 13  1  0  0  0  0
  8 16  1  0  0  0  0
  9 10  2  0  0  0  0
 11 15  1  0  0  0  0
 12  3  2  0  0  0  0
 12  8  1  0  0  0  0
 13  7  1  1  0  0  0
 15  5  1  1  0  0  0
 15  6  1  0  0  0  0
 16  9  1  0  0  0  0
 17  1  1  0  0  0  0
 17 11  1  0  0  0  0
 18 12  1  0  0  0  0
 19 18  1  0  0  0  0
 20 25  1  0  0  0  0
 21 24  2  0  0  0  0
 23 20  2  0  0  0  0
 23 21  1  0  0  0  0
 24 22  1  0  0  0  0
 25 19  1  0  0  0  0
 25 22  2  0  0  0  0
M  END
>  <MODEL>
9

>  <REMARK>
 VINA RESULT:      -7.2      2.449      6.820
  Name = 
  3 active torsions:
  status: ('A' for Active; 'I' for Inactive)
    1  A    between atoms: O_6  and  C_17
    2  A    between atoms: O_6  and  C_19
    3  A    between atoms: C_19  and  C_24
                            x       y       z     vdW  Elec       q    Type
                         _______ _______ _______ _____ _____    ______ ____

>  <TORSDO>
F 3

$$$$
