=
 OpenBabel10232411523D

 31 34  0  0  1  0  0  0  0  0999 V2000
  187.8230  177.8370  145.4320 C   0  0  0  0  0  0  0  0  0  0  0  0
  185.5560  178.3620  144.8360 N   0  0  0  0  0  0  0  0  0  0  0  0
  188.5380  178.8120  147.6800 C   0  0  0  0  0  2  0  0  0  0  0  0
  186.5010  178.1840  145.7880 C   0  0  0  0  0  0  0  0  0  0  0  0
  188.5750  176.0250  148.1290 O   0  0  0  0  0  1  0  0  0  0  0  0
  191.3840  177.1120  145.0730 N   0  0  0  0  0  2  0  0  0  0  0  0
  185.8320  178.2710  143.5090 C   0  0  0  0  0  0  0  0  0  0  0  0
  190.2820  176.4960  144.4690 N   0  0  0  0  0  2  0  0  0  0  0  0
  187.1320  177.9380  143.0870 C   0  0  0  0  0  0  0  0  0  0  0  0
  188.7010  177.5120  141.2880 C   0  0  0  0  0  3  0  0  0  0  0  0
  191.7140  176.7920  146.4300 C   0  0  0  0  0  3  0  0  0  0  0  0
  189.6840  177.1500  142.2100 C   0  0  0  0  0  0  0  0  0  0  0  0
  189.4030  177.1870  143.5870 C   0  0  0  0  0  0  0  0  0  0  0  0
  190.7780  176.4560  147.3310 C   0  0  0  0  0  3  0  0  0  0  0  0
  186.1500  178.4430  147.1940 C   0  0  0  0  0  3  0  0  0  0  0  0
  189.3060  176.4480  147.0180 C   0  0  2  0  0  3  0  0  0  0  0  0
  187.1000  178.6950  148.0960 C   0  0  0  0  0  3  0  0  0  0  0  0
  187.4350  177.8850  141.7210 C   0  0  0  0  0  3  0  0  0  0  0  0
  188.1370  177.6490  144.0510 C   0  0  0  0  0  0  0  0  0  0  0  0
  188.8720  177.8420  146.5350 C   0  0  1  0  0  3  0  0  0  0  0  0
  185.0430  179.5510  141.6500 O   0  0  0  0  0  1  0  0  0  0  0  0
  184.7250  178.5040  142.5170 C   0  0  2  0  0  3  0  0  0  0  0  0
  183.3730  178.7380  143.1960 C   0  0  0  0  0  2  0  0  0  0  0  0
  182.2040  178.8080  142.2160 C   0  0  0  0  0  2  0  0  0  0  0  0
  180.1100  179.7340  141.7600 C   0  0  0  0  0  1  0  0  0  0  0  0
  181.0770  179.5020  142.8180 N   0  0  0  0  0  0  0  0  0  0  0  0
  180.4610  178.5710  143.7460 C   0  0  0  0  0  1  0  0  0  0  0  0
  190.9590  176.6880  141.7560 N   0  0  0  0  0  2  0  0  0  0  0  0
  191.8780  177.5470  141.1380 N   0  0  0  0  0  2  0  0  0  0  0  0
  191.9150  177.2030  139.8310 O   0  0  0  0  0  0  0  0  0  0  0  0
  193.2740  177.1260  139.5300 C   0  0  0  0  0  1  0  0  0  0  0  0
  1  4  1  0  0  0  0
  1 20  1  0  0  0  0
  2  4  2  0  0  0  0
  3 17  1  0  0  0  0
  4 15  1  0  0  0  0
  6 11  1  0  0  0  0
  7  2  1  0  0  0  0
  8  6  1  0  0  0  0
  9  7  2  0  0  0  0
  9 19  1  0  0  0  0
 10 18  2  0  0  0  0
 10 12  1  0  0  0  0
 11 14  2  0  0  0  0
 12 13  2  0  0  0  0
 13 19  1  0  0  0  0
 13  8  1  0  0  0  0
 15 17  2  0  0  0  0
 16 14  1  0  0  0  0
 16  5  1  1  0  0  0
 18  9  1  0  0  0  0
 19  1  2  0  0  0  0
 20 16  1  0  0  0  0
 20  3  1  1  0  0  0
 22 21  1  1  0  0  0
 22 23  1  0  0  0  0
 22  7  1  0  0  0  0
 24 26  1  0  0  0  0
 24 23  1  0  0  0  0
 25 26  1  0  0  0  0
 26 27  1  0  0  0  0
 28 12  1  0  0  0  0
 29 28  1  0  0  0  0
 30 29  1  0  0  0  0
 31 30  1  0  0  0  0
M  END
>  <MODEL>
1

>  <REMARK>
 VINA RESULT:      -8.1      0.000      0.000
  Name = 
  7 active torsions:
  status: ('A' for Active; 'I' for Inactive)
    1  A    between atoms: C_7  and  C_10
    2  A    between atoms: C_7  and  C_11
    3  A    between atoms: N_9  and  N_15
    4  A    between atoms: N_9  and  O_25
    5  A    between atoms: C_11  and  C_13
    6  A    between atoms: C_13  and  N_18
    7  A    between atoms: N_15  and  C_20
                            x       y       z     vdW  Elec       q    Type
                         _______ _______ _______ _____ _____    ______ ____

>  <TORSDO>
F 7

$$$$
=
 OpenBabel10232411523D

 31 34  0  0  1  0  0  0  0  0999 V2000
  187.7530  177.9750  145.3740 C   0  0  0  0  0  0  0  0  0  0  0  0
  185.4660  178.5630  144.9320 N   0  0  0  0  0  0  0  0  0  0  0  0
  188.5830  178.7510  147.6600 C   0  0  0  0  0  2  0  0  0  0  0  0
  186.4530  178.2990  145.8200 C   0  0  0  0  0  0  0  0  0  0  0  0
  188.6110  175.9360  147.8700 O   0  0  0  0  0  1  0  0  0  0  0  0
  191.2860  177.2600  144.7860 N   0  0  0  0  0  2  0  0  0  0  0  0
  185.6790  178.5830  143.5910 C   0  0  0  0  0  0  0  0  0  0  0  0
  190.1500  176.7050  144.1860 N   0  0  0  0  0  2  0  0  0  0  0  0
  186.9550  178.2790  143.0810 C   0  0  0  0  0  0  0  0  0  0  0  0
  188.4330  177.9970  141.1800 C   0  0  0  0  0  3  0  0  0  0  0  0
  191.6760  176.8240  146.0940 C   0  0  0  0  0  3  0  0  0  0  0  0
  189.4540  177.5520  142.0210 C   0  0  0  0  0  0  0  0  0  0  0  0
  189.2390  177.4740  143.4070 C   0  0  0  0  0  0  0  0  0  0  0  0
  190.7790  176.4200  147.0070 C   0  0  0  0  0  3  0  0  0  0  0  0
  186.1710  178.4400  147.2580 C   0  0  0  0  0  3  0  0  0  0  0  0
  189.2940  176.4470  146.7650 C   0  0  2  0  0  3  0  0  0  0  0  0
  187.1640  178.6080  148.1320 C   0  0  0  0  0  3  0  0  0  0  0  0
  187.1930  178.3400  141.7030 C   0  0  0  0  0  3  0  0  0  0  0  0
  188.0000  177.9030  143.9680 C   0  0  0  0  0  0  0  0  0  0  0  0
  188.8520  177.8790  146.4230 C   0  0  1  0  0  3  0  0  0  0  0  0
  183.4210  179.3500  143.4000 O   0  0  0  0  0  1  0  0  0  0  0  0
  184.5290  178.9070  142.6750 C   0  0  2  0  0  3  0  0  0  0  0  0
  184.1620  177.7320  141.7650 C   0  0  0  0  0  2  0  0  0  0  0  0
  183.4290  178.1540  140.4930 C   0  0  0  0  0  2  0  0  0  0  0  0
  184.9970  178.4760  138.7950 C   0  0  0  0  0  1  0  0  0  0  0  0
  184.1880  179.1680  139.7810 N   0  0  0  0  0  0  0  0  0  0  0  0
  183.2270  179.9660  139.0420 C   0  0  0  0  0  1  0  0  0  0  0  0
  190.7020  177.1220  141.4690 N   0  0  0  0  0  2  0  0  0  0  0  0
  190.9820  177.2350  140.1000 N   0  0  0  0  0  2  0  0  0  0  0  0
  190.7290  176.0260  139.5500 O   0  0  0  0  0  0  0  0  0  0  0  0
  190.3520  176.3130  138.2390 C   0  0  0  0  0  1  0  0  0  0  0  0
  1  4  1  0  0  0  0
  1 20  1  0  0  0  0
  2  4  2  0  0  0  0
  3 17  1  0  0  0  0
  4 15  1  0  0  0  0
  6 11  1  0  0  0  0
  7  2  1  0  0  0  0
  8  6  1  0  0  0  0
  9  7  2  0  0  0  0
  9 19  1  0  0  0  0
 10 18  2  0  0  0  0
 10 12  1  0  0  0  0
 11 14  2  0  0  0  0
 12 13  2  0  0  0  0
 13 19  1  0  0  0  0
 13  8  1  0  0  0  0
 15 17  2  0  0  0  0
 16 14  1  0  0  0  0
 16  5  1  1  0  0  0
 18  9  1  0  0  0  0
 19  1  2  0  0  0  0
 20 16  1  0  0  0  0
 20  3  1  1  0  0  0
 22 21  1  1  0  0  0
 22  7  1  0  0  0  0
 23 22  1  0  0  0  0
 24 23  1  0  0  0  0
 25 26  1  0  0  0  0
 26 24  1  0  0  0  0
 27 26  1  0  0  0  0
 28 12  1  0  0  0  0
 29 28  1  0  0  0  0
 30 29  1  0  0  0  0
 31 30  1  0  0  0  0
M  END
>  <MODEL>
2

>  <REMARK>
 VINA RESULT:      -7.9      1.629      1.948
  Name = 
  7 active torsions:
  status: ('A' for Active; 'I' for Inactive)
    1  A    between atoms: C_7  and  C_10
    2  A    between atoms: C_7  and  C_11
    3  A    between atoms: N_9  and  N_15
    4  A    between atoms: N_9  and  O_25
    5  A    between atoms: C_11  and  C_13
    6  A    between atoms: C_13  and  N_18
    7  A    between atoms: N_15  and  C_20
                            x       y       z     vdW  Elec       q    Type
                         _______ _______ _______ _____ _____    ______ ____

>  <TORSDO>
F 7

$$$$
=
 OpenBabel10232411523D

 31 34  0  0  1  0  0  0  0  0999 V2000
  182.8070  178.7700  142.2150 C   0  0  0  0  0  0  0  0  0  0  0  0
  183.0540  178.7330  144.6050 N   0  0  0  0  0  0  0  0  0  0  0  0
  180.5410  177.9140  141.4100 C   0  0  0  0  0  2  0  0  0  0  0  0
  182.2540  178.7890  143.5140 C   0  0  0  0  0  0  0  0  0  0  0  0
  180.5050  180.6460  140.6970 O   0  0  0  0  0  1  0  0  0  0  0  0
  183.6800  178.5850  138.6740 N   0  0  0  0  0  2  0  0  0  0  0  0
  184.4030  178.6060  144.5130 C   0  0  0  0  0  0  0  0  0  0  0  0
  184.2330  179.3720  139.6900 N   0  0  0  0  0  2  0  0  0  0  0  0
  185.0170  178.5710  143.2470 C   0  0  0  0  0  0  0  0  0  0  0  0
  187.0290  178.4060  141.9040 C   0  0  0  0  0  3  0  0  0  0  0  0
  182.4300  178.9690  138.0860 C   0  0  0  0  0  3  0  0  0  0  0  0
  186.2890  178.6270  140.7410 C   0  0  0  0  0  0  0  0  0  0  0  0
  184.8990  178.8130  140.8190 C   0  0  0  0  0  0  0  0  0  0  0  0
  181.4840  179.6170  138.7830 C   0  0  0  0  0  3  0  0  0  0  0  0
  180.7940  178.7820  143.7040 C   0  0  0  0  0  3  0  0  0  0  0  0
  181.6220  179.9380  140.2470 C   0  0  2  0  0  3  0  0  0  0  0  0
  179.9820  178.4160  142.7110 C   0  0  0  0  0  3  0  0  0  0  0  0
  186.4020  178.3960  143.1440 C   0  0  0  0  0  3  0  0  0  0  0  0
  184.2280  178.7210  142.0740 C   0  0  0  0  0  0  0  0  0  0  0  0
  181.8450  178.6420  141.0430 C   0  0  1  0  0  3  0  0  0  0  0  0
  185.6780  179.7940  146.1500 O   0  0  0  0  0  1  0  0  0  0  0  0
  185.2160  178.5310  145.7770 C   0  0  2  0  0  3  0  0  0  0  0  0
  186.3680  177.5280  145.6700 C   0  0  0  0  0  2  0  0  0  0  0  0
  187.3130  177.5560  146.8690 C   0  0  0  0  0  2  0  0  0  0  0  0
  189.0780  177.9230  145.3870 C   0  0  0  0  0  1  0  0  0  0  0  0
  188.6340  177.0870  146.4870 N   0  0  0  0  0  0  0  0  0  0  0  0
  189.5160  177.3690  147.6040 C   0  0  0  0  0  1  0  0  0  0  0  0
  186.9510  178.7190  139.4760 N   0  0  0  0  0  2  0  0  0  0  0  0
  188.2480  178.2240  139.2840 N   0  0  0  0  0  2  0  0  0  0  0  0
  188.9570  179.2120  138.6900 O   0  0  0  0  0  0  0  0  0  0  0  0
  188.9520  178.8770  137.3370 C   0  0  0  0  0  1  0  0  0  0  0  0
  1  4  1  0  0  0  0
  3 17  1  0  0  0  0
  4 15  1  0  0  0  0
  4  2  2  0  0  0  0
  6  8  1  0  0  0  0
  7  2  1  0  0  0  0
  7 22  1  0  0  0  0
  8 13  1  0  0  0  0
  9  7  2  0  0  0  0
 10 18  2  0  0  0  0
 11  6  1  0  0  0  0
 11 14  2  0  0  0  0
 12 13  2  0  0  0  0
 12 10  1  0  0  0  0
 13 19  1  0  0  0  0
 14 16  1  0  0  0  0
 16  5  1  1  0  0  0
 16 20  1  0  0  0  0
 17 15  2  0  0  0  0
 18  9  1  0  0  0  0
 19  1  2  0  0  0  0
 19  9  1  0  0  0  0
 20  3  1  1  0  0  0
 20  1  1  0  0  0  0
 22 21  1  6  0  0  0
 23 22  1  0  0  0  0
 23 24  1  0  0  0  0
 25 26  1  0  0  0  0
 26 24  1  0  0  0  0
 26 27  1  0  0  0  0
 28 12  1  0  0  0  0
 29 28  1  0  0  0  0
 30 29  1  0  0  0  0
 31 30  1  0  0  0  0
M  END
>  <MODEL>
3

>  <REMARK>
 VINA RESULT:      -7.8      2.742      7.328
  Name = 
  7 active torsions:
  status: ('A' for Active; 'I' for Inactive)
    1  A    between atoms: C_7  and  C_10
    2  A    between atoms: C_7  and  C_11
    3  A    between atoms: N_9  and  N_15
    4  A    between atoms: N_9  and  O_25
    5  A    between atoms: C_11  and  C_13
    6  A    between atoms: C_13  and  N_18
    7  A    between atoms: N_15  and  C_20
                            x       y       z     vdW  Elec       q    Type
                         _______ _______ _______ _____ _____    ______ ____

>  <TORSDO>
F 7

$$$$
=
 OpenBabel10232411523D

 31 34  0  0  1  0  0  0  0  0999 V2000
  188.4160  177.8090  142.3910 C   0  0  0  0  0  0  0  0  0  0  0  0
  187.0080  178.4720  140.5610 N   0  0  0  0  0  0  0  0  0  0  0  0
  190.3850  176.3470  141.6860 C   0  0  0  0  0  2  0  0  0  0  0  0
  188.2190  178.0740  141.0180 C   0  0  0  0  0  0  0  0  0  0  0  0
  191.6180  178.7210  142.5900 O   0  0  0  0  0  1  0  0  0  0  0  0
  189.4270  176.8390  145.7630 N   0  0  0  0  0  2  0  0  0  0  0  0
  185.9250  178.5860  141.3710 C   0  0  0  0  0  0  0  0  0  0  0  0
  188.7150  177.9630  145.3340 N   0  0  0  0  0  2  0  0  0  0  0  0
  186.0520  178.3270  142.7480 C   0  0  0  0  0  0  0  0  0  0  0  0
  185.0470  178.1930  144.9510 C   0  0  0  0  0  3  0  0  0  0  0  0
  190.8500  176.8000  145.5980 C   0  0  0  0  0  3  0  0  0  0  0  0
  186.2950  177.9430  145.5220 C   0  0  0  0  0  0  0  0  0  0  0  0
  187.4380  177.8720  144.7080 C   0  0  0  0  0  0  0  0  0  0  0  0
  191.4660  177.4180  144.5790 C   0  0  0  0  0  3  0  0  0  0  0  0
  189.3010  177.8370  140.0490 C   0  0  0  0  0  3  0  0  0  0  0  0
  190.7210  178.1460  143.4930 C   0  0  2  0  0  3  0  0  0  0  0  0
  190.3410  177.0660  140.3670 C   0  0  0  0  0  3  0  0  0  0  0  0
  184.9290  178.4000  143.5830 C   0  0  0  0  0  3  0  0  0  0  0  0
  187.3230  177.9970  143.2920 C   0  0  0  0  0  0  0  0  0  0  0  0
  189.7410  177.1840  142.8030 C   0  0  1  0  0  3  0  0  0  0  0  0
  183.6040  178.0940  141.0670 O   0  0  0  0  0  1  0  0  0  0  0  0
  184.6110  179.0160  140.7760 C   0  0  2  0  0  3  0  0  0  0  0  0
  184.7100  179.2710  139.2690 C   0  0  0  0  0  2  0  0  0  0  0  0
  183.7100  178.4610  138.4480 C   0  0  0  0  0  2  0  0  0  0  0  0
  183.6290  177.0310  136.6040 C   0  0  0  0  0  1  0  0  0  0  0  0
  184.3680  177.3280  137.8180 N   0  0  0  0  0  0  0  0  0  0  0  0
  185.6810  177.7870  137.4020 C   0  0  0  0  0  1  0  0  0  0  0  0
  186.4230  177.8130  146.9410 N   0  0  0  0  0  2  0  0  0  0  0  0
  186.5310  178.9330  147.7780 N   0  0  0  0  0  2  0  0  0  0  0  0
  187.7790  178.9100  148.3000 O   0  0  0  0  0  0  0  0  0  0  0  0
  187.9180  177.6210  148.8120 C   0  0  0  0  0  1  0  0  0  0  0  0
  1 20  1  0  0  0  0
  1 19  1  0  0  0  0
  2  4  1  0  0  0  0
  2  7  2  0  0  0  0
  4  1  2  0  0  0  0
  7  9  1  0  0  0  0
  8  6  1  0  0  0  0
  9 19  2  0  0  0  0
  9 18  1  0  0  0  0
 10 12  1  0  0  0  0
 11  6  1  0  0  0  0
 12 28  1  0  0  0  0
 13  8  1  0  0  0  0
 13 12  2  0  0  0  0
 14 11  2  0  0  0  0
 15 17  2  0  0  0  0
 15  4  1  0  0  0  0
 16  5  1  6  0  0  0
 16 14  1  0  0  0  0
 17  3  1  0  0  0  0
 18 10  2  0  0  0  0
 19 13  1  0  0  0  0
 20  3  1  6  0  0  0
 20 16  1  0  0  0  0
 22 21  1  6  0  0  0
 22  7  1  0  0  0  0
 23 22  1  0  0  0  0
 24 23  1  0  0  0  0
 25 26  1  0  0  0  0
 26 24  1  0  0  0  0
 27 26  1  0  0  0  0
 28 29  1  0  0  0  0
 29 30  1  0  0  0  0
 30 31  1  0  0  0  0
M  END
>  <MODEL>
4

>  <REMARK>
 VINA RESULT:      -7.8      2.693      5.494
  Name = 
  7 active torsions:
  status: ('A' for Active; 'I' for Inactive)
    1  A    between atoms: C_7  and  C_10
    2  A    between atoms: C_7  and  C_11
    3  A    between atoms: N_9  and  N_15
    4  A    between atoms: N_9  and  O_25
    5  A    between atoms: C_11  and  C_13
    6  A    between atoms: C_13  and  N_18
    7  A    between atoms: N_15  and  C_20
                            x       y       z     vdW  Elec       q    Type
                         _______ _______ _______ _____ _____    ______ ____

>  <TORSDO>
F 7

$$$$
=
 OpenBabel10232411523D

 31 34  0  0  1  0  0  0  0  0999 V2000
  188.3980  177.8010  141.8630 C   0  0  0  0  0  0  0  0  0  0  0  0
  187.6280  178.3530  139.6550 N   0  0  0  0  0  0  0  0  0  0  0  0
  190.4730  176.3150  141.8780 C   0  0  0  0  0  2  0  0  0  0  0  0
  188.6350  177.9880  140.4840 C   0  0  0  0  0  0  0  0  0  0  0  0
  191.3950  178.7430  142.9850 O   0  0  0  0  0  1  0  0  0  0  0  0
  188.3150  177.0270  145.4310 N   0  0  0  0  0  2  0  0  0  0  0  0
  186.3500  178.5050  140.0860 C   0  0  0  0  0  0  0  0  0  0  0  0
  187.7810  178.1210  144.7420 N   0  0  0  0  0  2  0  0  0  0  0  0
  186.0450  178.3240  141.4480 C   0  0  0  0  0  0  0  0  0  0  0  0
  184.4110  178.3060  143.2400 C   0  0  0  0  0  3  0  0  0  0  0  0
  189.7200  176.9880  145.7130 C   0  0  0  0  0  3  0  0  0  0  0  0
  185.4210  178.0960  144.1790 C   0  0  0  0  0  0  0  0  0  0  0  0
  186.7580  177.9870  143.7600 C   0  0  0  0  0  0  0  0  0  0  0  0
  190.6250  177.5530  144.9000 C   0  0  0  0  0  3  0  0  0  0  0  0
  189.9600  177.7050  139.9080 C   0  0  0  0  0  3  0  0  0  0  0  0
  190.2580  178.2140  143.5990 C   0  0  2  0  0  3  0  0  0  0  0  0
  190.8440  176.9590  140.5720 C   0  0  0  0  0  3  0  0  0  0  0  0
  184.7210  178.4360  141.8920 C   0  0  0  0  0  3  0  0  0  0  0  0
  187.0840  178.0330  142.3730 C   0  0  0  0  0  0  0  0  0  0  0  0
  189.5270  177.2090  142.6950 C   0  0  1  0  0  3  0  0  0  0  0  0
  184.4760  179.9100  139.6010 O   0  0  0  0  0  1  0  0  0  0  0  0
  185.2870  178.8930  139.0930 C   0  0  2  0  0  3  0  0  0  0  0  0
  184.4520  177.6940  138.6360 C   0  0  0  0  0  2  0  0  0  0  0  0
  184.5880  177.3910  137.1460 C   0  0  0  0  0  2  0  0  0  0  0  0
  186.4420  175.9800  137.0040 C   0  0  0  0  0  1  0  0  0  0  0  0
  185.9890  177.3370  136.7620 N   0  0  0  0  0  0  0  0  0  0  0  0
  186.0370  177.5410  135.3260 C   0  0  0  0  0  1  0  0  0  0  0  0
  185.1050  178.0460  145.5740 N   0  0  0  0  0  2  0  0  0  0  0  0
  184.5720  179.1520  146.2490 N   0  0  0  0  0  2  0  0  0  0  0  0
  185.6070  179.7720  146.8610 O   0  0  0  0  0  0  0  0  0  0  0  0
  186.1520  178.7970  147.6950 C   0  0  0  0  0  1  0  0  0  0  0  0
  1 19  1  0  0  0  0
  1 20  1  0  0  0  0
  2  7  2  0  0  0  0
  2  4  1  0  0  0  0
  4  1  2  0  0  0  0
  6 11  1  0  0  0  0
  7  9  1  0  0  0  0
  8  6  1  0  0  0  0
  9 18  2  0  0  0  0
  9 19  1  0  0  0  0
 10 12  2  0  0  0  0
 12 28  1  0  0  0  0
 13 12  1  0  0  0  0
 13  8  1  0  0  0  0
 14 11  2  0  0  0  0
 15  4  1  0  0  0  0
 15 17  2  0  0  0  0
 16  5  1  6  0  0  0
 16 14  1  0  0  0  0
 17  3  1  0  0  0  0
 18 10  1  0  0  0  0
 19 13  2  0  0  0  0
 20  3  1  6  0  0  0
 20 16  1  0  0  0  0
 22 21  1  1  0  0  0
 22  7  1  0  0  0  0
 23 22  1  0  0  0  0
 24 23  1  0  0  0  0
 26 25  1  0  0  0  0
 26 24  1  0  0  0  0
 27 26  1  0  0  0  0
 28 29  1  0  0  0  0
 29 30  1  0  0  0  0
 30 31  1  0  0  0  0
M  END
>  <MODEL>
5

>  <REMARK>
 VINA RESULT:      -7.6      2.994      5.995
  Name = 
  7 active torsions:
  status: ('A' for Active; 'I' for Inactive)
    1  A    between atoms: C_7  and  C_10
    2  A    between atoms: C_7  and  C_11
    3  A    between atoms: N_9  and  N_15
    4  A    between atoms: N_9  and  O_25
    5  A    between atoms: C_11  and  C_13
    6  A    between atoms: C_13  and  N_18
    7  A    between atoms: N_15  and  C_20
                            x       y       z     vdW  Elec       q    Type
                         _______ _______ _______ _____ _____    ______ ____

>  <TORSDO>
F 7

$$$$
=
 OpenBabel10232411523D

 31 34  0  0  1  0  0  0  0  0999 V2000
  188.5430  177.7700  141.8720 C   0  0  0  0  0  0  0  0  0  0  0  0
  187.6140  178.3700  139.7390 N   0  0  0  0  0  0  0  0  0  0  0  0
  190.6010  176.2690  141.7020 C   0  0  0  0  0  2  0  0  0  0  0  0
  188.6770  177.9820  140.4830 C   0  0  0  0  0  0  0  0  0  0  0  0
  191.6230  178.6690  142.7820 O   0  0  0  0  0  1  0  0  0  0  0  0
  188.7220  176.9270  145.4210 N   0  0  0  0  0  2  0  0  0  0  0  0
  186.3730  178.5230  140.2680 C   0  0  0  0  0  0  0  0  0  0  0  0
  188.1470  178.0380  144.7950 N   0  0  0  0  0  2  0  0  0  0  0  0
  186.1700  178.3170  141.6450 C   0  0  0  0  0  0  0  0  0  0  0  0
  184.6750  178.2760  143.5550 C   0  0  0  0  0  3  0  0  0  0  0  0
  190.1440  176.8730  145.5960 C   0  0  0  0  0  3  0  0  0  0  0  0
  185.7510  178.0400  144.4110 C   0  0  0  0  0  0  0  0  0  0  0  0
  187.0520  177.9300  143.8910 C   0  0  0  0  0  0  0  0  0  0  0  0
  190.9900  177.4470  144.7270 C   0  0  0  0  0  3  0  0  0  0  0  0
  189.9530  177.7010  139.8030 C   0  0  0  0  0  3  0  0  0  0  0  0
  190.5320  178.1360  143.4700 C   0  0  2  0  0  3  0  0  0  0  0  0
  190.8770  176.9360  140.3850 C   0  0  0  0  0  3  0  0  0  0  0  0
  184.8840  178.4300  142.1900 C   0  0  0  0  0  3  0  0  0  0  0  0
  187.2730  178.0010  142.4840 C   0  0  0  0  0  0  0  0  0  0  0  0
  189.7260  177.1530  142.6060 C   0  0  1  0  0  3  0  0  0  0  0  0
  184.4510  179.9160  139.9720 O   0  0  0  0  0  1  0  0  0  0  0  0
  185.2420  178.9370  139.3660 C   0  0  2  0  0  3  0  0  0  0  0  0
  184.3950  177.7460  138.9090 C   0  0  0  0  0  2  0  0  0  0  0  0
  182.8920  177.9930  139.0110 C   0  0  0  0  0  2  0  0  0  0  0  0
  180.9240  177.5260  140.1750 C   0  0  0  0  0  1  0  0  0  0  0  0
  182.2910  177.0840  139.9730 N   0  0  0  0  0  0  0  0  0  0  0  0
  182.2160  175.7850  139.3290 C   0  0  0  0  0  1  0  0  0  0  0  0
  185.5410  177.9650  145.8240 N   0  0  0  0  0  2  0  0  0  0  0  0
  184.7760  178.9200  146.5080 N   0  0  0  0  0  2  0  0  0  0  0  0
  185.6090  179.5380  147.3760 O   0  0  0  0  0  0  0  0  0  0  0  0
  186.5120  178.5470  147.7560 C   0  0  0  0  0  1  0  0  0  0  0  0
  1 19  1  0  0  0  0
  1 20  1  0  0  0  0
  2  7  2  0  0  0  0
  2  4  1  0  0  0  0
  4  1  2  0  0  0  0
  6 11  1  0  0  0  0
  7  9  1  0  0  0  0
  8  6  1  0  0  0  0
  9 18  2  0  0  0  0
  9 19  1  0  0  0  0
 10 12  2  0  0  0  0
 12 28  1  0  0  0  0
 13 12  1  0  0  0  0
 13  8  1  0  0  0  0
 14 11  2  0  0  0  0
 15 17  2  0  0  0  0
 15  4  1  0  0  0  0
 16  5  1  6  0  0  0
 16 14  1  0  0  0  0
 17  3  1  0  0  0  0
 18 10  1  0  0  0  0
 19 13  2  0  0  0  0
 20  3  1  6  0  0  0
 20 16  1  0  0  0  0
 22 21  1  1  0  0  0
 22  7  1  0  0  0  0
 23 24  1  0  0  0  0
 23 22  1  0  0  0  0
 24 26  1  0  0  0  0
 26 25  1  0  0  0  0
 27 26  1  0  0  0  0
 28 29  1  0  0  0  0
 29 30  1  0  0  0  0
 30 31  1  0  0  0  0
M  END
>  <MODEL>
6

>  <REMARK>
 VINA RESULT:      -7.6      2.376      5.365
  Name = 
  7 active torsions:
  status: ('A' for Active; 'I' for Inactive)
    1  A    between atoms: C_7  and  C_10
    2  A    between atoms: C_7  and  C_11
    3  A    between atoms: N_9  and  N_15
    4  A    between atoms: N_9  and  O_25
    5  A    between atoms: C_11  and  C_13
    6  A    between atoms: C_13  and  N_18
    7  A    between atoms: N_15  and  C_20
                            x       y       z     vdW  Elec       q    Type
                         _______ _______ _______ _____ _____    ______ ____

>  <TORSDO>
F 7

$$$$
=
 OpenBabel10232411523D

 31 34  0  0  1  0  0  0  0  0999 V2000
  185.9420  178.4030  143.4700 C   0  0  0  0  0  0  0  0  0  0  0  0
  184.0850  178.7620  141.9890 N   0  0  0  0  0  0  0  0  0  0  0  0
  185.5980  179.3990  145.7960 C   0  0  0  0  0  2  0  0  0  0  0  0
  184.5680  178.6430  143.2480 C   0  0  0  0  0  0  0  0  0  0  0  0
  185.6580  176.6170  146.2720 O   0  0  0  0  0  1  0  0  0  0  0  0
  189.3810  177.9580  144.6130 N   0  0  0  0  0  2  0  0  0  0  0  0
  184.8850  178.7100  140.8940 C   0  0  0  0  0  0  0  0  0  0  0  0
  188.6730  177.2690  143.6230 N   0  0  0  0  0  2  0  0  0  0  0  0
  186.2650  178.4840  141.0470 C   0  0  0  0  0  0  0  0  0  0  0  0
  188.4610  178.2050  140.0550 C   0  0  0  0  0  3  0  0  0  0  0  0
  189.1500  177.6450  145.9920 C   0  0  0  0  0  3  0  0  0  0  0  0
  189.0040  177.9060  141.3050 C   0  0  0  0  0  0  0  0  0  0  0  0
  188.1830  177.9030  142.4450 C   0  0  0  0  0  0  0  0  0  0  0  0
  187.9560  177.2270  146.4370 C   0  0  0  0  0  3  0  0  0  0  0  0
  183.6530  178.8550  144.3820 C   0  0  0  0  0  3  0  0  0  0  0  0
  186.7460  177.1100  145.5500 C   0  0  2  0  0  3  0  0  0  0  0  0
  184.1280  179.1660  145.5890 C   0  0  0  0  0  3  0  0  0  0  0  0
  187.1040  178.4730  139.9250 C   0  0  0  0  0  3  0  0  0  0  0  0
  186.8060  178.2590  142.3420 C   0  0  0  0  0  0  0  0  0  0  0  0
  186.4430  178.4730  144.9060 C   0  0  1  0  0  3  0  0  0  0  0  0
  184.1070  180.2220  139.2110 O   0  0  0  0  0  1  0  0  0  0  0  0
  184.2670  178.8720  139.5310 C   0  0  2  0  0  3  0  0  0  0  0  0
  182.9470  178.1100  139.3960 C   0  0  0  0  0  2  0  0  0  0  0  0
  181.7610  179.0040  139.0410 C   0  0  0  0  0  2  0  0  0  0  0  0
  180.8010  177.3240  140.3460 C   0  0  0  0  0  1  0  0  0  0  0  0
  180.6140  178.6830  139.8730 N   0  0  0  0  0  0  0  0  0  0  0  0
  180.6900  179.5430  141.0390 C   0  0  0  0  0  1  0  0  0  0  0  0
  190.3850  177.5490  141.4210 N   0  0  0  0  0  2  0  0  0  0  0  0
  191.1870  177.3280  140.2930 N   0  0  0  0  0  2  0  0  0  0  0  0
  190.8600  176.1040  139.8180 O   0  0  0  0  0  0  0  0  0  0  0  0
  191.1480  176.1720  138.4560 C   0  0  0  0  0  1  0  0  0  0  0  0
  1 20  1  0  0  0  0
  2  4  2  0  0  0  0
  4  1  1  0  0  0  0
  4 15  1  0  0  0  0
  6 11  1  0  0  0  0
  7  9  2  0  0  0  0
  7  2  1  0  0  0  0
  8  6  1  0  0  0  0
  9 19  1  0  0  0  0
 10 12  1  0  0  0  0
 11 14  2  0  0  0  0
 12 28  1  0  0  0  0
 12 13  2  0  0  0  0
 13  8  1  0  0  0  0
 15 17  2  0  0  0  0
 16  5  1  1  0  0  0
 16 14  1  0  0  0  0
 17  3  1  0  0  0  0
 18 10  2  0  0  0  0
 18  9  1  0  0  0  0
 19 13  1  0  0  0  0
 19  1  2  0  0  0  0
 20 16  1  0  0  0  0
 20  3  1  1  0  0  0
 22 21  1  1  0  0  0
 22  7  1  0  0  0  0
 23 22  1  0  0  0  0
 24 23  1  0  0  0  0
 24 26  1  0  0  0  0
 26 25  1  0  0  0  0
 26 27  1  0  0  0  0
 29 28  1  0  0  0  0
 30 29  1  0  0  0  0
 31 30  1  0  0  0  0
M  END
>  <MODEL>
7

>  <REMARK>
 VINA RESULT:      -7.6      1.985      2.755
  Name = 
  7 active torsions:
  status: ('A' for Active; 'I' for Inactive)
    1  A    between atoms: C_7  and  C_10
    2  A    between atoms: C_7  and  C_11
    3  A    between atoms: N_9  and  N_15
    4  A    between atoms: N_9  and  O_25
    5  A    between atoms: C_11  and  C_13
    6  A    between atoms: C_13  and  N_18
    7  A    between atoms: N_15  and  C_20
                            x       y       z     vdW  Elec       q    Type
                         _______ _______ _______ _____ _____    ______ ____

>  <TORSDO>
F 7

$$$$
=
 OpenBabel10232411523D

 31 34  0  0  1  0  0  0  0  0999 V2000
  188.2020  177.8320  143.7870 C   0  0  0  0  0  0  0  0  0  0  0  0
  186.4380  178.1520  145.3870 N   0  0  0  0  0  0  0  0  0  0  0  0
  190.5390  178.0720  144.7840 C   0  0  0  0  0  2  0  0  0  0  0  0
  187.7200  177.8120  145.1140 C   0  0  0  0  0  0  0  0  0  0  0  0
  190.4110  175.3480  144.0530 O   0  0  0  0  0  1  0  0  0  0  0  0
  189.9960  177.8710  140.6070 N   0  0  0  0  0  2  0  0  0  0  0  0
  185.5760  178.5710  144.4260 C   0  0  0  0  0  0  0  0  0  0  0  0
  188.7440  177.3310  140.9190 N   0  0  0  0  0  2  0  0  0  0  0  0
  185.9960  178.6230  143.0840 C   0  0  0  0  0  0  0  0  0  0  0  0
  185.5100  179.1110  140.7590 C   0  0  0  0  0  3  0  0  0  0  0  0
  191.1830  177.1600  140.9780 C   0  0  0  0  0  3  0  0  0  0  0  0
  186.7590  178.6180  140.3790 C   0  0  0  0  0  0  0  0  0  0  0  0
  187.6470  178.1300  141.3520 C   0  0  0  0  0  0  0  0  0  0  0  0
  191.2360  176.3850  142.0720 C   0  0  0  0  0  3  0  0  0  0  0  0
  188.6270  177.5070  146.2340 C   0  0  0  0  0  3  0  0  0  0  0  0
  190.0860  176.2440  143.0330 C   0  0  2  0  0  3  0  0  0  0  0  0
  189.9490  177.5840  146.0760 C   0  0  0  0  0  3  0  0  0  0  0  0
  185.1260  179.0970  142.0940 C   0  0  0  0  0  3  0  0  0  0  0  0
  187.3030  178.1880  142.7340 C   0  0  0  0  0  0  0  0  0  0  0  0
  189.6950  177.6270  143.5790 C   0  0  1  0  0  3  0  0  0  0  0  0
  183.9200  178.6130  146.1510 O   0  0  0  0  0  1  0  0  0  0  0  0
  184.1730  178.9490  144.8200 C   0  0  2  0  0  3  0  0  0  0  0  0
  183.1230  178.3410  143.8860 C   0  0  0  0  0  2  0  0  0  0  0  0
  181.7480  178.9950  144.0090 C   0  0  0  0  0  2  0  0  0  0  0  0
  181.5270  178.7100  141.7030 C   0  0  0  0  0  1  0  0  0  0  0  0
  181.3980  179.6790  142.7750 N   0  0  0  0  0  0  0  0  0  0  0  0
  179.9880  180.0100  142.8680 C   0  0  0  0  0  1  0  0  0  0  0  0
  187.1160  178.5580  138.9950 N   0  0  0  0  0  2  0  0  0  0  0  0
  186.1480  178.5790  137.9810 N   0  0  0  0  0  2  0  0  0  0  0  0
  186.7820  178.9450  136.8440 O   0  0  0  0  0  0  0  0  0  0  0  0
  188.0980  178.5250  137.0300 C   0  0  0  0  0  1  0  0  0  0  0  0
  1  4  1  0  0  0  0
  3 17  1  0  0  0  0
  4  2  2  0  0  0  0
  4 15  1  0  0  0  0
  6  8  1  0  0  0  0
  6 11  1  0  0  0  0
  7 22  1  0  0  0  0
  7  2  1  0  0  0  0
  8 13  1  0  0  0  0
  9  7  2  0  0  0  0
 10 18  2  0  0  0  0
 11 14  2  0  0  0  0
 12 10  1  0  0  0  0
 12 13  2  0  0  0  0
 13 19  1  0  0  0  0
 14 16  1  0  0  0  0
 16 20  1  0  0  0  0
 16  5  1  1  0  0  0
 17 15  2  0  0  0  0
 18  9  1  0  0  0  0
 19  9  1  0  0  0  0
 19  1  2  0  0  0  0
 20  1  1  0  0  0  0
 20  3  1  1  0  0  0
 22 21  1  1  0  0  0
 23 24  1  0  0  0  0
 23 22  1  0  0  0  0
 25 26  1  0  0  0  0
 26 27  1  0  0  0  0
 26 24  1  0  0  0  0
 28 12  1  0  0  0  0
 29 28  1  0  0  0  0
 30 31  1  0  0  0  0
 30 29  1  0  0  0  0
M  END
>  <MODEL>
8

>  <REMARK>
 VINA RESULT:      -7.5      2.528      3.650
  Name = 
  7 active torsions:
  status: ('A' for Active; 'I' for Inactive)
    1  A    between atoms: C_7  and  C_10
    2  A    between atoms: C_7  and  C_11
    3  A    between atoms: N_9  and  N_15
    4  A    between atoms: N_9  and  O_25
    5  A    between atoms: C_11  and  C_13
    6  A    between atoms: C_13  and  N_18
    7  A    between atoms: N_15  and  C_20
                            x       y       z     vdW  Elec       q    Type
                         _______ _______ _______ _____ _____    ______ ____

>  <TORSDO>
F 7

$$$$
=
 OpenBabel10232411523D

 31 34  0  0  1  0  0  0  0  0999 V2000
  188.9580  177.6050  142.7070 C   0  0  0  0  0  0  0  0  0  0  0  0
  189.4830  177.8850  140.3800 N   0  0  0  0  0  0  0  0  0  0  0  0
  190.5570  176.0380  143.9320 C   0  0  0  0  0  2  0  0  0  0  0  0
  189.8810  177.5900  141.6390 C   0  0  0  0  0  0  0  0  0  0  0  0
  191.0520  178.5480  145.1250 O   0  0  0  0  0  1  0  0  0  0  0  0
  186.9880  177.3310  145.7700 N   0  0  0  0  0  2  0  0  0  0  0  0
  188.1890  178.1560  140.0700 C   0  0  0  0  0  0  0  0  0  0  0  0
  187.0040  178.3450  144.8060 N   0  0  0  0  0  2  0  0  0  0  0  0
  187.2160  178.1780  141.0870 C   0  0  0  0  0  0  0  0  0  0  0  0
  184.9090  178.4830  141.7660 C   0  0  0  0  0  3  0  0  0  0  0  0
  188.0400  177.2650  146.7410 C   0  0  0  0  0  3  0  0  0  0  0  0
  185.2710  178.3560  143.1080 C   0  0  0  0  0  0  0  0  0  0  0  0
  186.6130  178.1270  143.4540 C   0  0  0  0  0  0  0  0  0  0  0  0
  189.2890  177.6690  146.4660 C   0  0  0  0  0  3  0  0  0  0  0  0
  191.2740  177.1680  141.8620 C   0  0  0  0  0  3  0  0  0  0  0  0
  189.7100  178.1630  145.1080 C   0  0  2  0  0  3  0  0  0  0  0  0
  191.6080  176.4790  142.9540 C   0  0  0  0  0  3  0  0  0  0  0  0
  185.8730  178.4130  140.7690 C   0  0  0  0  0  3  0  0  0  0  0  0
  187.6020  177.9670  142.4390 C   0  0  0  0  0  0  0  0  0  0  0  0
  189.4330  177.0790  144.0540 C   0  0  1  0  0  3  0  0  0  0  0  0
  187.0120  177.4530  138.1100 O   0  0  0  0  0  1  0  0  0  0  0  0
  187.8290  178.4540  138.6390 C   0  0  2  0  0  3  0  0  0  0  0  0
  189.0630  178.6830  137.7630 C   0  0  0  0  0  2  0  0  0  0  0  0
  189.0730  177.8370  136.4930 C   0  0  0  0  0  2  0  0  0  0  0  0
  190.0550  176.0010  135.4370 C   0  0  0  0  0  1  0  0  0  0  0  0
  189.7300  176.5630  136.7350 N   0  0  0  0  0  0  0  0  0  0  0  0
  190.9920  176.8600  137.3860 C   0  0  0  0  0  1  0  0  0  0  0  0
  184.2870  178.5120  144.1350 N   0  0  0  0  0  2  0  0  0  0  0  0
  183.3030  179.5080  144.0680 N   0  0  0  0  0  2  0  0  0  0  0  0
  182.1080  178.8810  144.1610 O   0  0  0  0  0  0  0  0  0  0  0  0
  181.4760  179.1560  142.9490 C   0  0  0  0  0  1  0  0  0  0  0  0
  1 20  1  0  0  0  0
  2  4  1  0  0  0  0
  4 15  1  0  0  0  0
  4  1  2  0  0  0  0
  6 11  1  0  0  0  0
  7  2  2  0  0  0  0
  7  9  1  0  0  0  0
  8  6  1  0  0  0  0
  9 19  1  0  0  0  0
 10 12  2  0  0  0  0
 12 13  1  0  0  0  0
 12 28  1  0  0  0  0
 13  8  1  0  0  0  0
 14 11  2  0  0  0  0
 15 17  2  0  0  0  0
 16  5  1  1  0  0  0
 16 14  1  0  0  0  0
 17  3  1  0  0  0  0
 18  9  2  0  0  0  0
 18 10  1  0  0  0  0
 19  1  1  0  0  0  0
 19 13  2  0  0  0  0
 20  3  1  6  0  0  0
 20 16  1  0  0  0  0
 22 21  1  6  0  0  0
 22  7  1  0  0  0  0
 23 22  1  0  0  0  0
 24 26  1  0  0  0  0
 24 23  1  0  0  0  0
 25 26  1  0  0  0  0
 26 27  1  0  0  0  0
 29 28  1  0  0  0  0
 29 30  1  0  0  0  0
 31 30  1  0  0  0  0
M  END
>  <MODEL>
9

>  <REMARK>
 VINA RESULT:      -7.5      2.619      6.713
  Name = 
  7 active torsions:
  status: ('A' for Active; 'I' for Inactive)
    1  A    between atoms: C_7  and  C_10
    2  A    between atoms: C_7  and  C_11
    3  A    between atoms: N_9  and  N_15
    4  A    between atoms: N_9  and  O_25
    5  A    between atoms: C_11  and  C_13
    6  A    between atoms: C_13  and  N_18
    7  A    between atoms: N_15  and  C_20
                            x       y       z     vdW  Elec       q    Type
                         _______ _______ _______ _____ _____    ______ ____

>  <TORSDO>
F 7

$$$$
