=
 OpenBabel10232408123D

 32 36  0  0  0  0  0  0  0  0999 V2000
  188.9530  177.4010  141.0640 N   0  0  0  0  0  0  0  0  0  0  0  0
  189.3860  177.4370  146.8310 N   0  0  0  0  0  0  0  0  0  0  0  0
  186.3310  179.1380  142.3210 C   0  0  0  0  0  2  0  0  0  0  0  0
  191.1380  177.0390  145.0640 C   0  0  0  0  0  3  0  0  0  0  0  0
  186.5930  177.2870  143.7930 C   0  0  0  0  0  3  0  0  0  0  0  0
  191.4810  176.9740  143.6700 C   0  0  0  0  0  3  0  0  0  0  0  0
  185.9270  178.6680  146.0080 C   0  0  0  0  0  0  0  0  0  0  0  0
  185.8470  178.3920  143.5780 C   0  0  0  0  0  0  0  0  0  0  0  0
  187.4770  177.2440  144.8680 C   0  0  0  0  0  0  0  0  0  0  0  0
  189.2320  177.3070  138.8430 C   0  0  0  0  0  3  0  0  0  0  0  0
  187.0330  178.0430  139.8590 N   0  0  0  0  0  0  0  0  0  0  0  0
  185.2210  179.1030  147.1350 O   0  0  0  0  0  1  0  0  0  0  0  0
  188.3940  177.4900  139.9590 C   0  0  0  0  0  0  0  0  0  0  0  0
  188.0520  177.7020  147.1350 C   0  0  0  0  0  0  0  0  0  0  0  0
  189.7290  177.2300  145.5060 C   0  0  0  0  0  0  0  0  0  0  0  0
  191.1210  176.8440  140.3430 C   0  0  0  0  0  3  0  0  0  0  0  0
  190.3790  177.1450  142.7910 C   0  0  0  0  0  0  0  0  0  0  0  0
  190.2270  177.0950  141.3690 C   0  0  0  0  0  0  0  0  0  0  0  0
  189.1520  177.2280  143.3400 N   0  0  0  0  0  0  0  0  0  0  0  0
  187.6540  177.8830  148.5000 N   0  0  0  0  0  1  0  0  0  0  0  0
  186.0330  178.6490  140.8170 C   0  0  0  0  0  0  0  0  0  0  0  0
  190.6380  176.8840  138.9750 C   0  0  0  0  0  0  0  0  0  0  0  0
  187.1170  177.7790  146.0980 C   0  0  0  0  0  0  0  0  0  0  0  0
  188.7970  177.1940  144.5500 C   0  0  0  0  0  0  0  0  0  0  0  0
  185.4340  179.0290  144.7480 C   0  0  0  0  0  3  0  0  0  0  0  0
  183.5510  178.9250  140.9490 O   0  0  0  0  0  1  0  0  0  0  0  0
  184.7020  179.9820  139.2840 O   0  0  0  0  0  0  0  0  0  0  0  0
  184.6980  179.1010  140.2020 C   0  0  0  0  0  0  0  0  0  0  0  0
  191.6030  177.0350  137.8770 N   0  0  0  0  0  2  0  0  0  0  0  0
  192.6690  176.1810  137.5270 N   0  0  0  0  0  0  0  0  0  0  0  0
  193.7220  176.8810  137.3750 O   0  0  0  0  0  1  0  0  0  0  0  0
  192.4000  175.7970  136.0940 C   0  0  0  0  0  1  0  0  0  0  0  0
  1 18  1  0  0  0  0
  2 14  1  0  0  0  0
  3  8  1  0  0  0  0
  4 15  1  0  0  0  0
  5  9  1  0  0  0  0
  6  4  2  0  0  0  0
  7 23  1  0  0  0  0
  7 12  1  0  0  0  0
  8  5  2  0  0  0  0
  8 25  1  0  0  0  0
  9 23  1  0  0  0  0
 10 22  2  0  0  0  0
 10 13  1  0  0  0  0
 11 13  1  0  0  0  0
 11 21  2  0  0  0  0
 13  1  2  0  0  0  0
 14 20  1  0  0  0  0
 15  2  2  0  0  0  0
 16 18  2  0  0  0  0
 17 19  2  0  0  0  0
 17  6  1  0  0  0  0
 18 17  1  0  0  0  0
 19 24  1  0  0  0  0
 21  3  1  0  0  0  0
 22 16  1  0  0  0  0
 23 14  2  0  0  0  0
 24  9  2  0  0  0  0
 24 15  1  0  0  0  0
 25  7  2  0  0  0  0
 27 28  2  0  0  0  0
 28 21  1  0  0  0  0
 28 26  1  0  0  0  0
 29 22  1  0  0  0  0
 30 29  1  0  0  0  0
 31 30  1  0  0  0  0
 32 30  1  0  0  0  0
M  END
>  <MODEL>
1

>  <REMARK>
 VINA RESULT:     -11.0      0.000      0.000
  Name = 
  3 active torsions:
  status: ('A' for Active; 'I' for Inactive)
    1  A    between atoms: N_4  and  N_6
    2  A    between atoms: N_4  and  C_29
    3  A    between atoms: C_22  and  CA_28
                            x       y       z     vdW  Elec       q    Type
                         _______ _______ _______ _____ _____    ______ ____

>  <TORSDO>
F 3

$$$$
=
 OpenBabel10232408123D

 32 36  0  0  0  0  0  0  0  0999 V2000
  189.8000  177.0990  145.4080 N   0  0  0  0  0  0  0  0  0  0  0  0
  184.3610  179.0610  145.5030 N   0  0  0  0  0  0  0  0  0  0  0  0
  189.0510  178.3190  142.3390 C   0  0  0  0  0  2  0  0  0  0  0  0
  185.9800  178.6460  147.3890 C   0  0  0  0  0  3  0  0  0  0  0  0
  187.0820  177.1780  143.0340 C   0  0  0  0  0  3  0  0  0  0  0  0
  187.2950  178.2480  147.8100 C   0  0  0  0  0  3  0  0  0  0  0  0
  185.3910  178.9340  141.8870 C   0  0  0  0  0  0  0  0  0  0  0  0
  187.6040  177.9000  142.0190 C   0  0  0  0  0  0  0  0  0  0  0  0
  186.0840  177.7280  143.8350 C   0  0  0  0  0  0  0  0  0  0  0  0
  191.8870  176.3960  145.8210 C   0  0  0  0  0  3  0  0  0  0  0  0
  191.0680  176.7560  143.4530 N   0  0  0  0  0  0  0  0  0  0  0  0
  184.4310  179.4810  141.0280 O   0  0  0  0  0  1  0  0  0  0  0  0
  190.8530  176.6740  144.9070 C   0  0  0  0  0  0  0  0  0  0  0  0
  184.1020  179.0170  144.1340 C   0  0  0  0  0  0  0  0  0  0  0  0
  185.5660  178.5570  145.9620 C   0  0  0  0  0  0  0  0  0  0  0  0
  190.3940  176.9850  147.6800 C   0  0  0  0  0  3  0  0  0  0  0  0
  188.1390  177.8130  146.7540 C   0  0  0  0  0  0  0  0  0  0  0  0
  189.4640  177.2800  146.6980 C   0  0  0  0  0  0  0  0  0  0  0  0
  187.5950  177.7110  145.5260 N   0  0  0  0  0  0  0  0  0  0  0  0
  182.8490  179.4960  143.6290 N   0  0  0  0  0  1  0  0  0  0  0  0
  190.3110  177.3200  142.2720 C   0  0  0  0  0  0  0  0  0  0  0  0
  191.6840  176.4550  147.2800 C   0  0  0  0  0  0  0  0  0  0  0  0
  185.0730  178.4950  143.2730 C   0  0  0  0  0  0  0  0  0  0  0  0
  186.4230  177.9590  145.1300 C   0  0  0  0  0  0  0  0  0  0  0  0
  186.6800  178.7260  141.3800 C   0  0  0  0  0  3  0  0  0  0  0  0
  192.2730  177.6250  140.7520 O   0  0  0  0  0  1  0  0  0  0  0  0
  190.5660  176.2540  140.1050 O   0  0  0  0  0  0  0  0  0  0  0  0
  190.9830  177.1560  140.8990 C   0  0  0  0  0  0  0  0  0  0  0  0
  192.8120  176.5220  148.2200 N   0  0  0  0  0  2  0  0  0  0  0  0
  192.8040  176.9450  149.5650 N   0  0  0  0  0  0  0  0  0  0  0  0
  192.8610  178.2180  149.5940 O   0  0  0  0  0  1  0  0  0  0  0  0
  194.1790  176.6080  150.0830 C   0  0  0  0  0  1  0  0  0  0  0  0
  1 18  1  0  0  0  0
  2 15  1  0  0  0  0
  4  6  1  0  0  0  0
  5  9  1  0  0  0  0
  7 23  1  0  0  0  0
  8  3  1  0  0  0  0
  8  5  2  0  0  0  0
  9 24  1  0  0  0  0
 10 22  2  0  0  0  0
 11 13  1  0  0  0  0
 12  7  1  0  0  0  0
 13  1  2  0  0  0  0
 13 10  1  0  0  0  0
 14  2  2  0  0  0  0
 15  4  2  0  0  0  0
 17  6  2  0  0  0  0
 18 17  1  0  0  0  0
 18 16  2  0  0  0  0
 19 17  1  0  0  0  0
 20 14  1  0  0  0  0
 21  3  1  0  0  0  0
 21 11  2  0  0  0  0
 22 16  1  0  0  0  0
 22 29  1  0  0  0  0
 23  9  2  0  0  0  0
 23 14  1  0  0  0  0
 24 19  2  0  0  0  0
 24 15  1  0  0  0  0
 25  7  2  0  0  0  0
 25  8  1  0  0  0  0
 26 28  1  0  0  0  0
 27 28  2  0  0  0  0
 28 21  1  0  0  0  0
 29 30  1  0  0  0  0
 30 31  1  0  0  0  0
 30 32  1  0  0  0  0
M  END
>  <MODEL>
2

>  <REMARK>
 VINA RESULT:     -10.9      2.879      6.661
  Name = 
  3 active torsions:
  status: ('A' for Active; 'I' for Inactive)
    1  A    between atoms: N_4  and  N_6
    2  A    between atoms: N_4  and  C_29
    3  A    between atoms: C_22  and  CA_28
                            x       y       z     vdW  Elec       q    Type
                         _______ _______ _______ _____ _____    ______ ____

>  <TORSDO>
F 3

$$$$
=
 OpenBabel10232408123D

 32 36  0  0  0  0  0  0  0  0999 V2000
  187.2420  178.1150  141.6650 N   0  0  0  0  0  0  0  0  0  0  0  0
  191.5540  177.1260  145.3900 N   0  0  0  0  0  0  0  0  0  0  0  0
  186.2130  179.0340  144.7590 C   0  0  0  0  0  2  0  0  0  0  0  0
  191.5930  177.4240  142.8880 C   0  0  0  0  0  3  0  0  0  0  0  0
  187.4360  177.0220  145.1010 C   0  0  0  0  0  3  0  0  0  0  0  0
  190.8730  177.6960  141.6750 C   0  0  0  0  0  3  0  0  0  0  0  0
  188.4830  177.7960  147.4590 C   0  0  0  0  0  0  0  0  0  0  0  0
  186.7420  177.9810  145.7500 C   0  0  0  0  0  0  0  0  0  0  0  0
  188.8190  176.9460  145.2460 C   0  0  0  0  0  0  0  0  0  0  0  0
  185.9030  178.5050  139.9120 C   0  0  0  0  0  3  0  0  0  0  0  0
  185.0180  178.5900  142.2830 N   0  0  0  0  0  0  0  0  0  0  0  0
  188.7540  177.8610  148.8300 O   0  0  0  0  0  1  0  0  0  0  0  0
  186.0720  178.3040  141.2950 C   0  0  0  0  0  0  0  0  0  0  0  0
  190.8030  177.0640  146.5630 C   0  0  0  0  0  0  0  0  0  0  0  0
  190.8830  177.2490  144.1850 C   0  0  0  0  0  0  0  0  0  0  0  0
  188.3070  178.1390  139.5690 C   0  0  0  0  0  3  0  0  0  0  0  0
  189.4680  177.8140  141.8450 C   0  0  0  0  0  0  0  0  0  0  0  0
  188.3740  178.0100  140.9460 C   0  0  0  0  0  0  0  0  0  0  0  0
  188.9660  177.5500  143.0650 N   0  0  0  0  0  0  0  0  0  0  0  0
  191.4620  176.8980  147.8240 N   0  0  0  0  0  1  0  0  0  0  0  0
  184.9580  178.7940  143.7790 C   0  0  0  0  0  0  0  0  0  0  0  0
  187.0100  178.3470  138.9520 C   0  0  0  0  0  0  0  0  0  0  0  0
  189.4090  177.1540  146.4860 C   0  0  0  0  0  0  0  0  0  0  0  0
  189.5500  177.2160  144.1330 C   0  0  0  0  0  0  0  0  0  0  0  0
  187.2510  178.2890  147.0110 C   0  0  0  0  0  3  0  0  0  0  0  0
  182.4660  178.8390  143.5690 O   0  0  0  0  0  0  0  0  0  0  0  0
  183.4160  179.1120  145.6280 O   0  0  0  0  0  1  0  0  0  0  0  0
  183.5670  179.0870  144.3650 C   0  0  0  0  0  0  0  0  0  0  0  0
  186.9410  178.8900  137.5890 N   0  0  0  0  0  2  0  0  0  0  0  0
  186.7280  178.1950  136.3810 N   0  0  0  0  0  0  0  0  0  0  0  0
  186.2880  177.0300  136.6510 O   0  0  0  0  0  1  0  0  0  0  0  0
  188.1100  177.8450  135.8890 C   0  0  0  0  0  1  0  0  0  0  0  0
  2 14  1  0  0  0  0
  3  8  1  0  0  0  0
  4 15  1  0  0  0  0
  5  9  1  0  0  0  0
  5  8  2  0  0  0  0
  6 17  1  0  0  0  0
  6  4  2  0  0  0  0
  7 12  1  0  0  0  0
  8 25  1  0  0  0  0
  9 23  1  0  0  0  0
 10 13  1  0  0  0  0
 11 21  2  0  0  0  0
 13  1  2  0  0  0  0
 13 11  1  0  0  0  0
 14 20  1  0  0  0  0
 15  2  2  0  0  0  0
 16 18  2  0  0  0  0
 17 19  2  0  0  0  0
 18  1  1  0  0  0  0
 18 17  1  0  0  0  0
 19 24  1  0  0  0  0
 21 28  1  0  0  0  0
 21  3  1  0  0  0  0
 22 16  1  0  0  0  0
 22 10  2  0  0  0  0
 23 14  2  0  0  0  0
 23  7  1  0  0  0  0
 24 15  1  0  0  0  0
 24  9  2  0  0  0  0
 25  7  2  0  0  0  0
 26 28  2  0  0  0  0
 28 27  1  0  0  0  0
 29 22  1  0  0  0  0
 30 31  1  0  0  0  0
 30 29  1  0  0  0  0
 32 30  1  0  0  0  0
M  END
>  <MODEL>
3

>  <REMARK>
 VINA RESULT:     -10.4      2.696      3.507
  Name = 
  3 active torsions:
  status: ('A' for Active; 'I' for Inactive)
    1  A    between atoms: N_4  and  N_6
    2  A    between atoms: N_4  and  C_29
    3  A    between atoms: C_22  and  CA_28
                            x       y       z     vdW  Elec       q    Type
                         _______ _______ _______ _____ _____    ______ ____

>  <TORSDO>
F 3

$$$$
=
 OpenBabel10232408123D

 32 36  0  0  0  0  0  0  0  0999 V2000
  188.9000  177.7660  143.9170 N   0  0  0  0  0  0  0  0  0  0  0  0
  187.9460  177.5400  138.2180 N   0  0  0  0  0  0  0  0  0  0  0  0
  185.5540  177.7240  143.3960 C   0  0  0  0  0  2  0  0  0  0  0  0
  189.9880  176.9200  139.5580 C   0  0  0  0  0  3  0  0  0  0  0  0
  186.4130  179.1520  141.6970 C   0  0  0  0  0  3  0  0  0  0  0  0
  190.6150  176.7810  140.8430 C   0  0  0  0  0  3  0  0  0  0  0  0
  184.6440  178.3610  139.8250 C   0  0  0  0  0  0  0  0  0  0  0  0
  185.2680  178.6210  142.1760 C   0  0  0  0  0  0  0  0  0  0  0  0
  186.9210  178.7180  140.4750 C   0  0  0  0  0  0  0  0  0  0  0  0
  189.6760  177.6810  146.0170 C   0  0  0  0  0  3  0  0  0  0  0  0
  187.2570  178.2520  145.5340 N   0  0  0  0  0  0  0  0  0  0  0  0
  183.5850  178.3810  138.9120 O   0  0  0  0  0  1  0  0  0  0  0  0
  188.6420  177.9860  145.1120 C   0  0  0  0  0  0  0  0  0  0  0  0
  186.6440  178.0370  138.2070 C   0  0  0  0  0  0  0  0  0  0  0  0
  188.6330  177.5200  139.4200 C   0  0  0  0  0  0  0  0  0  0  0  0
  191.1330  177.0630  144.1400 C   0  0  0  0  0  3  0  0  0  0  0  0
  189.8180  177.2250  141.9310 C   0  0  0  0  0  0  0  0  0  0  0  0
  190.0380  177.3400  143.3400 C   0  0  0  0  0  0  0  0  0  0  0  0
  188.6460  177.8200  141.6400 N   0  0  0  0  0  0  0  0  0  0  0  0
  185.9170  178.1070  136.9740 N   0  0  0  0  0  1  0  0  0  0  0  0
  185.9030  178.2870  144.8620 C   0  0  0  0  0  0  0  0  0  0  0  0
  191.0220  177.2810  145.5700 C   0  0  0  0  0  0  0  0  0  0  0  0
  186.0680  178.4700  139.4070 C   0  0  0  0  0  0  0  0  0  0  0  0
  188.1010  178.0470  140.5250 C   0  0  0  0  0  0  0  0  0  0  0  0
  184.3320  178.3140  141.1890 C   0  0  0  0  0  3  0  0  0  0  0  0
  184.9480  178.7820  147.1200 O   0  0  0  0  0  1  0  0  0  0  0  0
  183.6740  179.1630  145.2630 O   0  0  0  0  0  0  0  0  0  0  0  0
  184.7080  178.6220  145.7700 C   0  0  0  0  0  0  0  0  0  0  0  0
  191.9790  176.6270  146.4730 N   0  0  0  0  0  2  0  0  0  0  0  0
  191.8260  176.3340  147.8440 N   0  0  0  0  0  0  0  0  0  0  0  0
  192.1620  177.3580  148.5220 O   0  0  0  0  0  1  0  0  0  0  0  0
  192.9770  175.4140  148.1710 C   0  0  0  0  0  1  0  0  0  0  0  0
  1 13  2  0  0  0  0
  2 15  1  0  0  0  0
  3 21  1  0  0  0  0
  4  6  1  0  0  0  0
  5  8  1  0  0  0  0
  6 17  2  0  0  0  0
  7 25  1  0  0  0  0
  8  3  1  0  0  0  0
  9 24  1  0  0  0  0
  9  5  2  0  0  0  0
 12  7  1  0  0  0  0
 13 11  1  0  0  0  0
 13 10  1  0  0  0  0
 14  2  2  0  0  0  0
 14 23  1  0  0  0  0
 15  4  2  0  0  0  0
 15 24  1  0  0  0  0
 16 22  1  0  0  0  0
 17 18  1  0  0  0  0
 18  1  1  0  0  0  0
 18 16  2  0  0  0  0
 19 17  1  0  0  0  0
 20 14  1  0  0  0  0
 21 11  2  0  0  0  0
 21 28  1  0  0  0  0
 22 10  2  0  0  0  0
 22 29  1  0  0  0  0
 23  7  2  0  0  0  0
 23  9  1  0  0  0  0
 24 19  2  0  0  0  0
 25  8  2  0  0  0  0
 27 28  2  0  0  0  0
 28 26  1  0  0  0  0
 29 30  1  0  0  0  0
 30 32  1  0  0  0  0
 30 31  1  0  0  0  0
M  END
>  <MODEL>
4

>  <REMARK>
 VINA RESULT:     -10.1      2.593      6.527
  Name = 
  3 active torsions:
  status: ('A' for Active; 'I' for Inactive)
    1  A    between atoms: N_4  and  N_6
    2  A    between atoms: N_4  and  C_29
    3  A    between atoms: C_22  and  CA_28
                            x       y       z     vdW  Elec       q    Type
                         _______ _______ _______ _____ _____    ______ ____

>  <TORSDO>
F 3

$$$$
=
 OpenBabel10232408123D

 32 36  0  0  0  0  0  0  0  0999 V2000
  187.7910  177.9380  140.5010 N   0  0  0  0  0  0  0  0  0  0  0  0
  189.3900  177.6400  146.0510 N   0  0  0  0  0  0  0  0  0  0  0  0
  185.3250  179.2790  142.3960 C   0  0  0  0  0  2  0  0  0  0  0  0
  190.7740  177.5620  143.9470 C   0  0  0  0  0  3  0  0  0  0  0  0
  186.0620  177.3760  143.6210 C   0  0  0  0  0  3  0  0  0  0  0  0
  190.8280  177.6290  142.5120 C   0  0  0  0  0  3  0  0  0  0  0  0
  185.7320  178.5230  146.0360 C   0  0  0  0  0  0  0  0  0  0  0  0
  185.1840  178.4010  143.6540 C   0  0  0  0  0  0  0  0  0  0  0  0
  187.1480  177.3620  144.4930 C   0  0  0  0  0  0  0  0  0  0  0  0
  187.6180  178.0230  138.2690 C   0  0  0  0  0  3  0  0  0  0  0  0
  185.6120  178.4360  139.7580 N   0  0  0  0  0  0  0  0  0  0  0  0
  185.2330  178.8000  147.3130 O   0  0  0  0  0  1  0  0  0  0  0  0
  187.0120  178.0360  139.5400 C   0  0  0  0  0  0  0  0  0  0  0  0
  188.1270  177.7320  146.6340 C   0  0  0  0  0  0  0  0  0  0  0  0
  189.4730  177.5630  144.6720 C   0  0  0  0  0  0  0  0  0  0  0  0
  189.8090  177.6790  139.3220 C   0  0  0  0  0  3  0  0  0  0  0  0
  189.5580  177.7310  141.8850 C   0  0  0  0  0  0  0  0  0  0  0  0
  189.1240  177.7590  140.5230 C   0  0  0  0  0  0  0  0  0  0  0  0
  188.4680  177.6380  142.6700 N   0  0  0  0  0  0  0  0  0  0  0  0
  188.0010  177.7760  148.0610 N   0  0  0  0  0  1  0  0  0  0  0  0
  184.7750  178.8600  140.9430 C   0  0  0  0  0  0  0  0  0  0  0  0
  189.0550  177.7550  138.0850 C   0  0  0  0  0  0  0  0  0  0  0  0
  186.9960  177.7700  145.8120 C   0  0  0  0  0  0  0  0  0  0  0  0
  188.3730  177.4840  143.9190 C   0  0  0  0  0  0  0  0  0  0  0  0
  184.9590  178.9080  144.9340 C   0  0  0  0  0  3  0  0  0  0  0  0
  182.9620  179.4920  139.3400 O   0  0  0  0  0  0  0  0  0  0  0  0
  182.3980  178.7870  141.4380 O   0  0  0  0  0  1  0  0  0  0  0  0
  183.3040  179.1970  140.6450 C   0  0  0  0  0  0  0  0  0  0  0  0
  189.7550  178.0870  136.8360 N   0  0  0  0  0  2  0  0  0  0  0  0
  189.7260  177.3940  135.6090 N   0  0  0  0  0  0  0  0  0  0  0  0
  188.6040  177.6060  135.0440 O   0  0  0  0  0  1  0  0  0  0  0  0
  189.5590  175.9440  135.9900 C   0  0  0  0  0  1  0  0  0  0  0  0
  1 18  1  0  0  0  0
  2 14  1  0  0  0  0
  3  8  1  0  0  0  0
  4 15  1  0  0  0  0
  5  8  2  0  0  0  0
  5  9  1  0  0  0  0
  6  4  2  0  0  0  0
  7 12  1  0  0  0  0
  8 25  1  0  0  0  0
  9 23  1  0  0  0  0
 10 13  1  0  0  0  0
 11 21  2  0  0  0  0
 13 11  1  0  0  0  0
 13  1  2  0  0  0  0
 14 20  1  0  0  0  0
 15  2  2  0  0  0  0
 16 18  2  0  0  0  0
 17  6  1  0  0  0  0
 17 19  2  0  0  0  0
 18 17  1  0  0  0  0
 19 24  1  0  0  0  0
 21  3  1  0  0  0  0
 22 10  2  0  0  0  0
 22 16  1  0  0  0  0
 23  7  1  0  0  0  0
 23 14  2  0  0  0  0
 24  9  2  0  0  0  0
 24 15  1  0  0  0  0
 25  7  2  0  0  0  0
 26 28  2  0  0  0  0
 28 21  1  0  0  0  0
 28 27  1  0  0  0  0
 29 22  1  0  0  0  0
 30 32  1  0  0  0  0
 30 29  1  0  0  0  0
 31 30  1  0  0  0  0
M  END
>  <MODEL>
5

>  <REMARK>
 VINA RESULT:      -9.9      1.636      1.855
  Name = 
  3 active torsions:
  status: ('A' for Active; 'I' for Inactive)
    1  A    between atoms: N_4  and  N_6
    2  A    between atoms: N_4  and  C_29
    3  A    between atoms: C_22  and  CA_28
                            x       y       z     vdW  Elec       q    Type
                         _______ _______ _______ _____ _____    ______ ____

>  <TORSDO>
F 3

$$$$
=
 OpenBabel10232408123D

 32 36  0  0  0  0  0  0  0  0999 V2000
  186.5730  178.3420  141.7120 N   0  0  0  0  0  0  0  0  0  0  0  0
  188.3120  177.3780  147.1420 N   0  0  0  0  0  0  0  0  0  0  0  0
  189.4660  176.5830  141.6110 C   0  0  0  0  0  2  0  0  0  0  0  0
  186.0310  177.9460  146.2340 C   0  0  0  0  0  3  0  0  0  0  0  0
  189.7790  178.1620  143.3630 C   0  0  0  0  0  3  0  0  0  0  0  0
  185.1960  178.2090  145.0950 C   0  0  0  0  0  3  0  0  0  0  0  0
  191.2130  176.4910  144.9160 C   0  0  0  0  0  0  0  0  0  0  0  0
  190.3860  177.1500  142.7090 C   0  0  0  0  0  0  0  0  0  0  0  0
  189.3570  177.9860  144.6780 C   0  0  0  0  0  0  0  0  0  0  0  0
  185.4910  178.7680  139.7970 C   0  0  0  0  0  3  0  0  0  0  0  0
  187.9060  178.0090  139.7980 N   0  0  0  0  0  0  0  0  0  0  0  0
  192.2840  175.9260  145.6160 O   0  0  0  0  0  1  0  0  0  0  0  0
  186.6820  178.4600  140.4800 C   0  0  0  0  0  0  0  0  0  0  0  0
  189.6620  177.1450  146.8880 C   0  0  0  0  0  0  0  0  0  0  0  0
  187.5020  177.7690  146.0900 C   0  0  0  0  0  0  0  0  0  0  0  0
  184.2960  178.8800  141.9390 C   0  0  0  0  0  3  0  0  0  0  0  0
  185.8920  178.2420  143.8580 C   0  0  0  0  0  0  0  0  0  0  0  0
  185.5060  178.5230  142.5090 C   0  0  0  0  0  0  0  0  0  0  0  0
  187.2340  178.1450  143.8970 N   0  0  0  0  0  0  0  0  0  0  0  0
  190.5370  176.7750  147.9610 N   0  0  0  0  0  1  0  0  0  0  0  0
  189.1870  177.3190  140.2060 C   0  0  0  0  0  0  0  0  0  0  0  0
  184.2360  179.0830  140.5040 C   0  0  0  0  0  0  0  0  0  0  0  0
  190.1450  177.2860  145.5830 C   0  0  0  0  0  0  0  0  0  0  0  0
  188.0130  178.0090  144.8800 C   0  0  0  0  0  0  0  0  0  0  0  0
  191.2000  176.3620  143.5210 C   0  0  0  0  0  3  0  0  0  0  0  0
  190.8480  175.8300  139.0760 O   0  0  0  0  0  1  0  0  0  0  0  0
  190.0980  177.6900  137.9860 O   0  0  0  0  0  0  0  0  0  0  0  0
  190.1960  177.0460  139.0780 C   0  0  0  0  0  0  0  0  0  0  0  0
  182.9320  179.0510  139.8270 N   0  0  0  0  0  2  0  0  0  0  0  0
  182.4780  179.8630  138.7680 N   0  0  0  0  0  0  0  0  0  0  0  0
  183.0700  180.9890  138.8320 O   0  0  0  0  0  1  0  0  0  0  0  0
  181.0840  180.2770  139.1710 C   0  0  0  0  0  1  0  0  0  0  0  0
  1 18  1  0  0  0  0
  3  8  1  0  0  0  0
  5  9  1  0  0  0  0
  6  4  2  0  0  0  0
  7 23  1  0  0  0  0
  7 12  1  0  0  0  0
  8  5  2  0  0  0  0
  8 25  1  0  0  0  0
  9 24  2  0  0  0  0
  9 23  1  0  0  0  0
 10 13  1  0  0  0  0
 10 22  2  0  0  0  0
 11 21  2  0  0  0  0
 11 13  1  0  0  0  0
 13  1  2  0  0  0  0
 14  2  1  0  0  0  0
 14 20  1  0  0  0  0
 15  4  1  0  0  0  0
 15  2  2  0  0  0  0
 16 18  2  0  0  0  0
 17 19  2  0  0  0  0
 17  6  1  0  0  0  0
 18 17  1  0  0  0  0
 19 24  1  0  0  0  0
 21  3  1  0  0  0  0
 22 16  1  0  0  0  0
 23 14  2  0  0  0  0
 24 15  1  0  0  0  0
 25  7  2  0  0  0  0
 26 28  1  0  0  0  0
 27 28  2  0  0  0  0
 28 21  1  0  0  0  0
 29 22  1  0  0  0  0
 30 31  1  0  0  0  0
 30 32  1  0  0  0  0
 30 29  1  0  0  0  0
M  END
>  <MODEL>
6

>  <REMARK>
 VINA RESULT:      -9.7      2.378      5.918
  Name = 
  3 active torsions:
  status: ('A' for Active; 'I' for Inactive)
    1  A    between atoms: N_4  and  N_6
    2  A    between atoms: N_4  and  C_29
    3  A    between atoms: C_22  and  CA_28
                            x       y       z     vdW  Elec       q    Type
                         _______ _______ _______ _____ _____    ______ ____

>  <TORSDO>
F 3

$$$$
=
 OpenBabel10232408123D

 32 36  0  0  0  0  0  0  0  0999 V2000
  188.2630  177.6550  144.0020 N   0  0  0  0  0  0  0  0  0  0  0  0
  182.6990  179.1460  144.5160 N   0  0  0  0  0  0  0  0  0  0  0  0
  187.2430  179.0040  141.0680 C   0  0  0  0  0  2  0  0  0  0  0  0
  184.4520  178.7470  146.2820 C   0  0  0  0  0  3  0  0  0  0  0  0
  185.4140  177.6600  141.7840 C   0  0  0  0  0  3  0  0  0  0  0  0
  185.8170  178.4330  146.6050 C   0  0  0  0  0  3  0  0  0  0  0  0
  183.5250  179.3390  140.8500 C   0  0  0  0  0  0  0  0  0  0  0  0
  185.8180  178.4870  140.7950 C   0  0  0  0  0  0  0  0  0  0  0  0
  184.4240  178.0720  142.6720 C   0  0  0  0  0  0  0  0  0  0  0  0
  190.4190  177.1040  144.2560 C   0  0  0  0  0  3  0  0  0  0  0  0
  189.4390  177.5460  141.9640 N   0  0  0  0  0  0  0  0  0  0  0  0
  182.4770  179.8580  140.0830 O   0  0  0  0  0  1  0  0  0  0  0  0
  189.3160  177.3530  143.4180 C   0  0  0  0  0  0  0  0  0  0  0  0
  182.3660  179.1690  143.1630 C   0  0  0  0  0  0  0  0  0  0  0  0
  183.9640  178.7160  144.8750 C   0  0  0  0  0  0  0  0  0  0  0  0
  188.9940  177.4450  146.2270 C   0  0  0  0  0  3  0  0  0  0  0  0
  186.6300  178.1400  145.4780 C   0  0  0  0  0  0  0  0  0  0  0  0
  187.9890  177.7240  145.3180 C   0  0  0  0  0  0  0  0  0  0  0  0
  186.0260  178.0720  144.2770 N   0  0  0  0  0  0  0  0  0  0  0  0
  181.0520  179.5730  142.7580 N   0  0  0  0  0  1  0  0  0  0  0  0
  188.5730  178.1200  140.8670 C   0  0  0  0  0  0  0  0  0  0  0  0
  190.2970  177.0520  145.7240 C   0  0  0  0  0  0  0  0  0  0  0  0
  183.3240  178.7870  142.2180 C   0  0  0  0  0  0  0  0  0  0  0  0
  184.8170  178.2460  143.9610 C   0  0  0  0  0  0  0  0  0  0  0  0
  184.7960  179.2720  140.2650 C   0  0  0  0  0  3  0  0  0  0  0  0
  189.9580  177.0220  139.0970 O   0  0  0  0  0  1  0  0  0  0  0  0
  188.6260  178.7880  138.5320 O   0  0  0  0  0  0  0  0  0  0  0  0
  189.1760  178.1020  139.4520 C   0  0  0  0  0  0  0  0  0  0  0  0
  191.4680  177.1520  146.6070 N   0  0  0  0  0  2  0  0  0  0  0  0
  191.6870  176.5100  147.8420 N   0  0  0  0  0  0  0  0  0  0  0  0
  192.3590  177.2870  148.5950 O   0  0  0  0  0  1  0  0  0  0  0  0
  192.7310  175.4600  147.5510 C   0  0  0  0  0  1  0  0  0  0  0  0
  1 18  1  0  0  0  0
  2 15  1  0  0  0  0
  4  6  1  0  0  0  0
  5  9  1  0  0  0  0
  7 23  1  0  0  0  0
  8  3  1  0  0  0  0
  8  5  2  0  0  0  0
  9 24  1  0  0  0  0
 10 22  2  0  0  0  0
 11 13  1  0  0  0  0
 12  7  1  0  0  0  0
 13  1  2  0  0  0  0
 13 10  1  0  0  0  0
 14  2  2  0  0  0  0
 15  4  2  0  0  0  0
 17  6  2  0  0  0  0
 18 17  1  0  0  0  0
 18 16  2  0  0  0  0
 19 17  1  0  0  0  0
 20 14  1  0  0  0  0
 21  3  1  0  0  0  0
 21 11  2  0  0  0  0
 22 16  1  0  0  0  0
 22 29  1  0  0  0  0
 23  9  2  0  0  0  0
 23 14  1  0  0  0  0
 24 19  2  0  0  0  0
 24 15  1  0  0  0  0
 25  8  1  0  0  0  0
 25  7  2  0  0  0  0
 26 28  1  0  0  0  0
 27 28  2  0  0  0  0
 28 21  1  0  0  0  0
 29 30  1  0  0  0  0
 30 31  1  0  0  0  0
 32 30  1  0  0  0  0
M  END
>  <MODEL>
7

>  <REMARK>
 VINA RESULT:      -9.4      2.848      6.225
  Name = 
  3 active torsions:
  status: ('A' for Active; 'I' for Inactive)
    1  A    between atoms: N_4  and  N_6
    2  A    between atoms: N_4  and  C_29
    3  A    between atoms: C_22  and  CA_28
                            x       y       z     vdW  Elec       q    Type
                         _______ _______ _______ _____ _____    ______ ____

>  <TORSDO>
F 3

$$$$
=
 OpenBabel10232408123D

 32 36  0  0  0  0  0  0  0  0999 V2000
  186.0440  178.6090  143.6250 N   0  0  0  0  0  0  0  0  0  0  0  0
  189.9280  176.7180  147.4700 N   0  0  0  0  0  0  0  0  0  0  0  0
  188.4570  176.9130  141.9600 C   0  0  0  0  0  2  0  0  0  0  0  0
  187.5290  177.4230  147.7840 C   0  0  0  0  0  3  0  0  0  0  0  0
  189.6270  178.1620  143.6140 C   0  0  0  0  0  3  0  0  0  0  0  0
  186.2980  177.8770  147.1970 C   0  0  0  0  0  3  0  0  0  0  0  0
  191.4720  176.2530  144.0710 C   0  0  0  0  0  0  0  0  0  0  0  0
  189.8060  177.2830  142.6040 C   0  0  0  0  0  0  0  0  0  0  0  0
  189.8180  177.7540  144.9310 C   0  0  0  0  0  0  0  0  0  0  0  0
  184.2610  179.3570  142.4940 C   0  0  0  0  0  3  0  0  0  0  0  0
  186.3650  178.6240  141.2910 N   0  0  0  0  0  0  0  0  0  0  0  0
  192.6980  175.5800  144.1170 O   0  0  0  0  0  1  0  0  0  0  0  0
  185.6060  178.9410  142.5120 C   0  0  0  0  0  0  0  0  0  0  0  0
  191.0060  176.5410  146.6040 C   0  0  0  0  0  0  0  0  0  0  0  0
  188.7680  177.2830  146.9700 C   0  0  0  0  0  0  0  0  0  0  0  0
  184.1480  179.0850  144.9320 C   0  0  0  0  0  3  0  0  0  0  0  0
  186.3760  178.1300  145.8030 C   0  0  0  0  0  0  0  0  0  0  0  0
  185.4550  178.6400  144.8340 C   0  0  0  0  0  0  0  0  0  0  0  0
  187.5860  178.0350  145.2200 N   0  0  0  0  0  0  0  0  0  0  0  0
  192.2350  175.9950  147.0970 N   0  0  0  0  0  1  0  0  0  0  0  0
  187.6400  177.8810  140.9670 C   0  0  0  0  0  0  0  0  0  0  0  0
  183.4750  179.5350  143.7280 C   0  0  0  0  0  0  0  0  0  0  0  0
  190.8710  176.9120  145.2620 C   0  0  0  0  0  0  0  0  0  0  0  0
  188.7070  177.7340  145.7140 C   0  0  0  0  0  0  0  0  0  0  0  0
  190.8360  176.3700  142.8290 C   0  0  0  0  0  3  0  0  0  0  0  0
  187.3980  178.6900  138.6130 O   0  0  0  0  0  0  0  0  0  0  0  0
  189.1510  177.3290  139.1480 O   0  0  0  0  0  1  0  0  0  0  0  0
  188.0240  177.8170  139.4790 C   0  0  0  0  0  0  0  0  0  0  0  0
  182.0080  179.6150  143.7120 N   0  0  0  0  0  2  0  0  0  0  0  0
  181.0950  178.7720  143.0450 N   0  0  0  0  0  0  0  0  0  0  0  0
  180.3970  179.4760  142.2440 O   0  0  0  0  0  1  0  0  0  0  0  0
  180.0510  178.4390  144.0810 C   0  0  0  0  0  1  0  0  0  0  0  0
  1 18  1  0  0  0  0
  3  8  1  0  0  0  0
  5  9  1  0  0  0  0
  6  4  1  0  0  0  0
  7 12  1  0  0  0  0
  7 23  1  0  0  0  0
  8 25  1  0  0  0  0
  8  5  2  0  0  0  0
  9 23  2  0  0  0  0
  9 24  1  0  0  0  0
 10 13  1  0  0  0  0
 10 22  2  0  0  0  0
 11 13  1  0  0  0  0
 13  1  2  0  0  0  0
 14 20  1  0  0  0  0
 14  2  2  0  0  0  0
 15  2  1  0  0  0  0
 15  4  2  0  0  0  0
 17  6  2  0  0  0  0
 18 16  2  0  0  0  0
 18 17  1  0  0  0  0
 19 24  2  0  0  0  0
 19 17  1  0  0  0  0
 21 11  2  0  0  0  0
 21  3  1  0  0  0  0
 22 16  1  0  0  0  0
 23 14  1  0  0  0  0
 24 15  1  0  0  0  0
 25  7  2  0  0  0  0
 26 28  2  0  0  0  0
 27 28  1  0  0  0  0
 28 21  1  0  0  0  0
 29 22  1  0  0  0  0
 30 29  1  0  0  0  0
 30 32  1  0  0  0  0
 31 30  1  0  0  0  0
M  END
>  <MODEL>
8

>  <REMARK>
 VINA RESULT:      -9.3      3.048      6.667
  Name = 
  3 active torsions:
  status: ('A' for Active; 'I' for Inactive)
    1  A    between atoms: N_4  and  N_6
    2  A    between atoms: N_4  and  C_29
    3  A    between atoms: C_22  and  CA_28
                            x       y       z     vdW  Elec       q    Type
                         _______ _______ _______ _____ _____    ______ ____

>  <TORSDO>
F 3

$$$$
=
 OpenBabel10232408123D

 32 36  0  0  0  0  0  0  0  0999 V2000
  187.1130  178.1650  141.7000 N   0  0  0  0  0  0  0  0  0  0  0  0
  188.2150  177.5440  147.3430 N   0  0  0  0  0  0  0  0  0  0  0  0
  190.0200  176.4610  142.0390 C   0  0  0  0  0  2  0  0  0  0  0  0
  186.0490  178.0160  146.1440 C   0  0  0  0  0  3  0  0  0  0  0  0
  190.1050  178.1420  143.7210 C   0  0  0  0  0  3  0  0  0  0  0  0
  185.3500  178.1970  144.9020 C   0  0  0  0  0  3  0  0  0  0  0  0
  191.3680  176.5900  145.5250 C   0  0  0  0  0  0  0  0  0  0  0  0
  190.7980  177.1060  143.2020 C   0  0  0  0  0  0  0  0  0  0  0  0
  189.5340  178.0320  144.9860 C   0  0  0  0  0  0  0  0  0  0  0  0
  186.2570  178.4600  139.6510 C   0  0  0  0  0  3  0  0  0  0  0  0
  188.6650  177.7500  139.9770 N   0  0  0  0  0  0  0  0  0  0  0  0
  192.3570  176.0870  146.3770 O   0  0  0  0  0  1  0  0  0  0  0  0
  187.3640  178.2150  140.4850 C   0  0  0  0  0  0  0  0  0  0  0  0
  189.5890  177.3240  147.2610 C   0  0  0  0  0  0  0  0  0  0  0  0
  187.5290  177.8600  146.1820 C   0  0  0  0  0  0  0  0  0  0  0  0
  184.8180  178.6700  141.6290 C   0  0  0  0  0  3  0  0  0  0  0  0
  186.1860  178.1740  143.7540 C   0  0  0  0  0  0  0  0  0  0  0  0
  185.9570  178.3700  142.3560 C   0  0  0  0  0  0  0  0  0  0  0  0
  187.5160  178.1050  143.9550 N   0  0  0  0  0  0  0  0  0  0  0  0
  190.3370  177.0330  148.4490 N   0  0  0  0  0  1  0  0  0  0  0  0
  189.8990  177.1100  140.5710 C   0  0  0  0  0  0  0  0  0  0  0  0
  184.9250  178.7900  140.1870 C   0  0  0  0  0  0  0  0  0  0  0  0
  190.2200  177.4000  146.0150 C   0  0  0  0  0  0  0  0  0  0  0  0
  188.1760  178.0400  145.0280 C   0  0  0  0  0  0  0  0  0  0  0  0
  191.5210  176.3820  144.1480 C   0  0  0  0  0  3  0  0  0  0  0  0
  192.2930  177.2890  139.8720 O   0  0  0  0  0  1  0  0  0  0  0  0
  190.9370  175.7800  138.8240 O   0  0  0  0  0  0  0  0  0  0  0  0
  191.0360  176.7940  139.5860 C   0  0  0  0  0  0  0  0  0  0  0  0
  183.7100  178.6950  139.3660 N   0  0  0  0  0  2  0  0  0  0  0  0
  183.2960  177.6300  138.5400 N   0  0  0  0  0  0  0  0  0  0  0  0
  182.3620  178.0420  137.7770 O   0  0  0  0  0  1  0  0  0  0  0  0
  182.5090  176.7190  139.4500 C   0  0  0  0  0  1  0  0  0  0  0  0
  1 18  1  0  0  0  0
  3  8  1  0  0  0  0
  4 15  1  0  0  0  0
  5  9  1  0  0  0  0
  6  4  2  0  0  0  0
  7 23  1  0  0  0  0
  7 12  1  0  0  0  0
  8  5  2  0  0  0  0
  8 25  1  0  0  0  0
  9 24  2  0  0  0  0
  9 23  1  0  0  0  0
 10 22  2  0  0  0  0
 10 13  1  0  0  0  0
 11 13  1  0  0  0  0
 11 21  2  0  0  0  0
 13  1  2  0  0  0  0
 14  2  1  0  0  0  0
 14 20  1  0  0  0  0
 15  2  2  0  0  0  0
 16 18  2  0  0  0  0
 17 19  2  0  0  0  0
 17  6  1  0  0  0  0
 18 17  1  0  0  0  0
 19 24  1  0  0  0  0
 21  3  1  0  0  0  0
 22 16  1  0  0  0  0
 23 14  2  0  0  0  0
 24 15  1  0  0  0  0
 25  7  2  0  0  0  0
 27 28  2  0  0  0  0
 28 26  1  0  0  0  0
 28 21  1  0  0  0  0
 29 22  1  0  0  0  0
 30 29  1  0  0  0  0
 30 32  1  0  0  0  0
 31 30  1  0  0  0  0
M  END
>  <MODEL>
9

>  <REMARK>
 VINA RESULT:      -9.3      2.338      5.721
  Name = 
  3 active torsions:
  status: ('A' for Active; 'I' for Inactive)
    1  A    between atoms: N_4  and  N_6
    2  A    between atoms: N_4  and  C_29
    3  A    between atoms: C_22  and  CA_28
                            x       y       z     vdW  Elec       q    Type
                         _______ _______ _______ _____ _____    ______ ____

>  <TORSDO>
F 3

$$$$
