=
 OpenBabel10232411013D

 42 44  0  0  1  0  0  0  0  0999 V2000
  187.9870  177.6940  140.4080 C   0  0  0  0  0  2  0  0  0  0  0  0
  187.9640  176.8580  135.8080 C   0  0  0  0  0  0  0  0  0  0  0  0
  186.1790  177.8550  137.7140 C   0  0  0  0  0  0  0  0  0  0  0  0
  189.7470  178.2820  138.7610 N   0  0  0  0  0  0  0  0  0  0  0  0
  189.8250  177.5880  137.4640 C   0  0  0  0  0  3  0  0  0  0  0  0
  188.4280  177.4030  137.0130 C   0  0  0  0  0  0  0  0  0  0  0  0
  185.2130  178.4010  138.7090 C   0  0  0  0  0  1  0  0  0  0  0  0
  186.5770  176.8120  135.6030 C   0  0  0  0  0  3  0  0  0  0  0  0
  187.5620  177.8970  137.9380 C   0  0  0  0  0  0  0  0  0  0  0  0
  185.7230  177.3060  136.5520 N   0  0  0  0  0  0  0  0  0  0  0  0
  188.3190  178.4290  139.1000 C   0  0  1  0  0  3  0  0  0  0  0  0
  188.8940  176.3460  134.7580 C   0  0  0  0  0  2  0  0  0  0  0  0
  189.2400  174.8890  135.0320 C   0  0  0  0  0  2  0  0  0  0  0  0
  189.9240  173.5060  137.4320 O   0  0  0  0  0  0  0  0  0  0  0  0
  190.8450  174.1360  136.8450 C   0  0  0  0  0  0  0  0  0  0  0  0
  193.2970  174.8550  136.9210 C   0  0  0  0  0  0  0  0  0  0  0  0
  190.5810  174.7840  135.5880 N   0  0  0  0  0  2  0  0  0  0  0  0
  192.1540  174.1550  137.4300 N   0  0  0  0  0  2  0  0  0  0  0  0
  193.1960  175.6420  135.9450 O   0  0  0  0  0  0  0  0  0  0  0  0
  194.6180  174.7210  137.6070 C   0  0  0  0  0  2  0  0  0  0  0  0
  194.6560  173.5170  138.3210 O   0  0  0  0  0  1  0  0  0  0  0  0
  189.2200  177.3560  141.2460 C   0  0  0  0  0  2  0  0  0  0  0  0
  189.4630  178.4190  142.3040 C   0  0  0  0  0  2  0  0  0  0  0  0
  191.3170  177.8510  144.1490 O   0  0  0  0  0  0  0  0  0  0  0  0
  189.5720  176.1780  143.7580 O   0  0  0  0  0  0  0  0  0  0  0  0
  189.8590  177.6490  143.8540 S   0  0  0  0  0  0  0  0  0  0  0  0
  188.8960  178.3700  145.1090 N   0  0  0  0  0  2  0  0  0  0  0  0
  187.8320  177.4390  145.4580 C   0  0  2  0  0  3  0  0  0  0  0  0
  186.5110  177.9080  144.9110 C   0  0  0  0  0  0  0  0  0  0  0  0
  184.1090  178.7820  143.7400 C   0  0  0  0  0  0  0  0  0  0  0  0
  182.9570  179.2230  143.1640 F   0  0  0  0  0  0  0  0  0  0  0  0
  185.8250  179.0030  147.0880 C   0  0  0  0  0  1  0  0  0  0  0  0
  186.2160  177.5930  143.5770 C   0  0  0  0  0  3  0  0  0  0  0  0
  185.0210  178.0240  142.9920 C   0  0  0  0  0  3  0  0  0  0  0  0
  184.3880  179.0910  145.0710 C   0  0  0  0  0  3  0  0  0  0  0  0
  185.5810  178.6580  145.6660 C   0  0  0  0  0  0  0  0  0  0  0  0
  187.7800  177.2050  146.9650 C   0  0  0  0  0  2  0  0  0  0  0  0
  189.3250  178.3280  148.3930 O   0  0  0  0  0  0  0  0  0  0  0  0
  189.1360  177.4000  147.5580 C   0  0  0  0  0  0  0  0  0  0  0  0
  190.2180  176.5570  147.1580 N   0  0  0  0  0  2  0  0  0  0  0  0
  192.4270  175.5230  147.2250 C   0  0  0  0  0  1  0  0  0  0  0  0
  191.5460  176.6400  147.7500 C   0  0  0  0  0  2  0  0  0  0  0  0
  1 22  1  0  0  0  0
  2  6  1  0  0  0  0
  3  9  1  0  0  0  0
  3  7  1  0  0  0  0
  4 11  1  0  0  0  0
  5  4  2  0  0  0  0
  6  5  1  0  0  0  0
  6  9  2  0  0  0  0
  8  2  2  0  0  0  0
  8 10  1  0  0  0  0
  9 11  1  0  0  0  0
 10  3  2  0  0  0  0
 11  1  1  1  0  0  0
 12 13  1  0  0  0  0
 12  2  1  0  0  0  0
 13 17  1  0  0  0  0
 15 18  1  0  0  0  0
 15 14  2  0  0  0  0
 16 18  1  0  0  0  0
 16 20  1  0  0  0  0
 17 15  1  0  0  0  0
 19 16  2  0  0  0  0
 20 21  1  0  0  0  0
 22 23  1  0  0  0  0
 23 26  1  0  0  0  0
 25 26  2  0  0  0  0
 26 24  2  0  0  0  0
 26 27  1  0  0  0  0
 27 28  1  0  0  0  0
 28 37  1  1  0  0  0
 29 28  1  0  0  0  0
 29 36  1  0  0  0  0
 30 35  1  0  0  0  0
 31 30  1  0  0  0  0
 33 29  2  0  0  0  0
 34 33  1  0  0  0  0
 34 30  2  0  0  0  0
 35 36  2  0  0  0  0
 36 32  1  0  0  0  0
 37 39  1  0  0  0  0
 39 38  2  0  0  0  0
 40 39  1  0  0  0  0
 40 42  1  0  0  0  0
 41 42  1  0  0  0  0
M  END
>  <MODEL>
1

>  <REMARK>
 VINA RESULT:      -8.2      0.000      0.000
  Name = 
  14 active torsions:
  status: ('A' for Active; 'I' for Inactive)
    1  A    between atoms: C_1  and  C_39
    2  A    between atoms: C_2  and  C_15
    3  A    between atoms: C_2  and  C_40
    4  A    between atoms: C_5  and  C_29
    5  A    between atoms: C_8  and  C_37
    6  A    between atoms: C_12  and  N_26
    7  A    between atoms: C_14  and  C_15
    8  A    between atoms: C_14  and  S_36
    9  A    between atoms: C_23  and  C_24
   10  A    between atoms: C_23  and  C_37
   11  A    between atoms: N_32  and  C_38
   12  A    between atoms: S_36  and  N_41
   13  A    between atoms: C_37  and  N_41
   14  A    between atoms: C_38  and  C_39
                            x       y       z     vdW  Elec       q    Type
                         _______ _______ _______ _____ _____    ______ ____

>  <TORSDO>
F 14

$$$$
=
 OpenBabel10232411013D

 42 44  0  0  1  0  0  0  0  0999 V2000
  185.9210  178.7830  145.6160 C   0  0  0  0  0  2  0  0  0  0  0  0
  190.0390  176.8970  144.4560 C   0  0  0  0  0  0  0  0  0  0  0  0
  188.7020  177.6020  146.8080 C   0  0  0  0  0  0  0  0  0  0  0  0
  186.3380  176.9690  143.9770 N   0  0  0  0  0  0  0  0  0  0  0  0
  187.6750  176.7790  143.3880 C   0  0  0  0  0  3  0  0  0  0  0  0
  188.6430  177.0190  144.4820 C   0  0  0  0  0  0  0  0  0  0  0  0
  188.0070  177.9590  148.0760 C   0  0  0  0  0  1  0  0  0  0  0  0
  190.7390  177.1600  145.6430 C   0  0  0  0  0  3  0  0  0  0  0  0
  187.9890  177.3540  145.6270 C   0  0  0  0  0  0  0  0  0  0  0  0
  190.0620  177.5050  146.7810 N   0  0  0  0  0  0  0  0  0  0  0  0
  186.5250  177.3910  145.3770 C   0  0  1  0  0  3  0  0  0  0  0  0
  190.7770  176.4910  143.2240 C   0  0  0  0  0  2  0  0  0  0  0  0
  190.9000  177.6760  142.2740 C   0  0  0  0  0  2  0  0  0  0  0  0
  188.6780  178.5350  140.7040 O   0  0  0  0  0  0  0  0  0  0  0  0
  189.4430  177.6690  140.1990 C   0  0  0  0  0  0  0  0  0  0  0  0
  189.8700  176.1310  138.2020 C   0  0  0  0  0  0  0  0  0  0  0  0
  190.6250  177.2580  140.9070 N   0  0  0  0  0  2  0  0  0  0  0  0
  189.1360  177.1460  138.9000 N   0  0  0  0  0  2  0  0  0  0  0  0
  190.8100  175.5090  138.7600 O   0  0  0  0  0  0  0  0  0  0  0  0
  189.4640  175.7370  136.8190 C   0  0  0  0  0  2  0  0  0  0  0  0
  188.2220  175.0920  136.8600 O   0  0  0  0  0  1  0  0  0  0  0  0
  184.3990  178.8180  145.4770 C   0  0  0  0  0  2  0  0  0  0  0  0
  183.9820  179.7020  144.3140 C   0  0  0  0  0  2  0  0  0  0  0  0
  181.7740  180.1550  142.8700 O   0  0  0  0  0  0  0  0  0  0  0  0
  181.6480  178.4300  144.6030 O   0  0  0  0  0  0  0  0  0  0  0  0
  182.5220  179.0430  143.5470 S   0  0  0  0  0  0  0  0  0  0  0  0
  182.9870  177.8450  142.3780 N   0  0  0  0  0  2  0  0  0  0  0  0
  183.2910  178.5240  141.1260 C   0  0  2  0  0  3  0  0  0  0  0  0
  182.5970  177.8550  139.9710 C   0  0  0  0  0  0  0  0  0  0  0  0
  181.4250  176.4990  137.8040 C   0  0  0  0  0  0  0  0  0  0  0  0
  180.8760  175.8470  136.7430 F   0  0  0  0  0  0  0  0  0  0  0  0
  181.3320  179.9490  139.3200 C   0  0  0  0  0  1  0  0  0  0  0  0
  182.8870  176.5030  139.7380 C   0  0  0  0  0  3  0  0  0  0  0  0
  182.3040  175.8250  138.6630 C   0  0  0  0  0  3  0  0  0  0  0  0
  181.1210  177.8410  138.0330 C   0  0  0  0  0  3  0  0  0  0  0  0
  181.6970  178.5260  139.1120 C   0  0  0  0  0  0  0  0  0  0  0  0
  184.7980  178.6260  140.9090 C   0  0  0  0  0  2  0  0  0  0  0  0
  184.7330  180.0310  138.9840 O   0  0  0  0  0  0  0  0  0  0  0  0
  185.0880  178.9240  139.4760 C   0  0  0  0  0  0  0  0  0  0  0  0
  185.7370  177.9460  138.6600 N   0  0  0  0  0  2  0  0  0  0  0  0
  185.2850  177.3440  136.3390 C   0  0  0  0  0  1  0  0  0  0  0  0
  186.1180  178.1970  137.2770 C   0  0  0  0  0  2  0  0  0  0  0  0
  2  6  2  0  0  0  0
  2  8  1  0  0  0  0
  3  7  1  0  0  0  0
  4 11  1  0  0  0  0
  5  4  2  0  0  0  0
  5  6  1  0  0  0  0
  6  9  1  0  0  0  0
  8 10  2  0  0  0  0
  9  3  2  0  0  0  0
 10  3  1  0  0  0  0
 11  1  1  6  0  0  0
 11  9  1  0  0  0  0
 12  2  1  0  0  0  0
 13 12  1  0  0  0  0
 15 14  2  0  0  0  0
 15 17  1  0  0  0  0
 16 19  2  0  0  0  0
 16 18  1  0  0  0  0
 17 13  1  0  0  0  0
 18 15  1  0  0  0  0
 20 21  1  0  0  0  0
 20 16  1  0  0  0  0
 22  1  1  0  0  0  0
 23 22  1  0  0  0  0
 24 26  2  0  0  0  0
 26 23  1  0  0  0  0
 26 25  2  0  0  0  0
 27 26  1  0  0  0  0
 28 37  1  6  0  0  0
 28 27  1  0  0  0  0
 29 28  1  0  0  0  0
 30 35  2  0  0  0  0
 30 34  1  0  0  0  0
 31 30  1  0  0  0  0
 33 29  1  0  0  0  0
 34 33  2  0  0  0  0
 35 36  1  0  0  0  0
 36 32  1  0  0  0  0
 36 29  2  0  0  0  0
 38 39  2  0  0  0  0
 39 37  1  0  0  0  0
 40 39  1  0  0  0  0
 41 42  1  0  0  0  0
 42 40  1  0  0  0  0
M  END
>  <MODEL>
2

>  <REMARK>
 VINA RESULT:      -8.0      3.673      7.835
  Name = 
  14 active torsions:
  status: ('A' for Active; 'I' for Inactive)
    1  A    between atoms: C_1  and  C_39
    2  A    between atoms: C_2  and  C_15
    3  A    between atoms: C_2  and  C_40
    4  A    between atoms: C_5  and  C_29
    5  A    between atoms: C_8  and  C_37
    6  A    between atoms: C_12  and  N_26
    7  A    between atoms: C_14  and  C_15
    8  A    between atoms: C_14  and  S_36
    9  A    between atoms: C_23  and  C_24
   10  A    between atoms: C_23  and  C_37
   11  A    between atoms: N_32  and  C_38
   12  A    between atoms: S_36  and  N_41
   13  A    between atoms: C_37  and  N_41
   14  A    between atoms: C_38  and  C_39
                            x       y       z     vdW  Elec       q    Type
                         _______ _______ _______ _____ _____    ______ ____

>  <TORSDO>
F 14

$$$$
=
 OpenBabel10232411013D

 42 44  0  0  1  0  0  0  0  0999 V2000
  184.3180  178.0520  142.0310 C   0  0  0  0  0  2  0  0  0  0  0  0
  182.9960  177.4620  137.5850 C   0  0  0  0  0  0  0  0  0  0  0  0
  181.7480  177.8770  140.0520 C   0  0  0  0  0  0  0  0  0  0  0  0
  185.2680  179.1480  140.0190 N   0  0  0  0  0  0  0  0  0  0  0  0
  185.0770  178.5620  138.6810 C   0  0  0  0  0  3  0  0  0  0  0  0
  183.6890  178.0480  138.6530 C   0  0  0  0  0  0  0  0  0  0  0  0
  181.0600  178.1090  141.3520 C   0  0  0  0  0  1  0  0  0  0  0  0
  181.6660  177.0740  137.8050 C   0  0  0  0  0  3  0  0  0  0  0  0
  183.0820  178.2590  139.8520 C   0  0  0  0  0  0  0  0  0  0  0  0
  181.0770  177.2870  139.0220 N   0  0  0  0  0  0  0  0  0  0  0  0
  184.0330  178.9090  140.7890 C   0  0  1  0  0  3  0  0  0  0  0  0
  183.6260  177.2560  136.2480 C   0  0  0  0  0  2  0  0  0  0  0  0
  183.9810  175.7880  136.0570 C   0  0  0  0  0  2  0  0  0  0  0  0
  185.3150  173.7410  137.5320 O   0  0  0  0  0  0  0  0  0  0  0  0
  186.0340  174.5970  136.9490 C   0  0  0  0  0  0  0  0  0  0  0  0
  188.4170  175.4290  136.5370 C   0  0  0  0  0  0  0  0  0  0  0  0
  185.4230  175.6040  136.1230 N   0  0  0  0  0  2  0  0  0  0  0  0
  187.4590  174.5180  137.0920 N   0  0  0  0  0  2  0  0  0  0  0  0
  188.0500  176.4860  135.9620 O   0  0  0  0  0  0  0  0  0  0  0  0
  189.8780  175.1740  136.7150 C   0  0  0  0  0  2  0  0  0  0  0  0
  190.0620  174.0990  137.5940 O   0  0  0  0  0  1  0  0  0  0  0  0
  185.3540  178.6670  142.9720 C   0  0  0  0  0  2  0  0  0  0  0  0
  186.7570  178.2170  142.6010 C   0  0  0  0  0  2  0  0  0  0  0  0
  187.8730  175.9000  143.3410 O   0  0  0  0  0  0  0  0  0  0  0  0
  186.3790  176.9900  144.9460 O   0  0  0  0  0  0  0  0  0  0  0  0
  187.4360  177.2210  143.9040 S   0  0  0  0  0  0  0  0  0  0  0  0
  188.7980  178.0460  144.5990 N   0  0  0  0  0  2  0  0  0  0  0  0
  190.0100  177.3520  144.1880 C   0  0  2  0  0  3  0  0  0  0  0  0
  190.7500  176.8150  145.3820 C   0  0  0  0  0  0  0  0  0  0  0  0
  192.1190  175.9590  147.6850 C   0  0  0  0  0  0  0  0  0  0  0  0
  192.7960  175.5610  148.7970 F   0  0  0  0  0  0  0  0  0  0  0  0
  191.9800  175.0670  144.0260 C   0  0  0  0  0  1  0  0  0  0  0  0
  190.5010  177.4200  146.6230 C   0  0  0  0  0  3  0  0  0  0  0  0
  191.1770  176.9950  147.7710 C   0  0  0  0  0  3  0  0  0  0  0  0
  192.3670  175.3440  146.4580 C   0  0  0  0  0  3  0  0  0  0  0  0
  191.6890  175.7610  145.3050 C   0  0  0  0  0  0  0  0  0  0  0  0
  190.8900  178.2490  143.3220 C   0  0  0  0  0  2  0  0  0  0  0  0
  191.9580  177.3370  141.3950 O   0  0  0  0  0  0  0  0  0  0  0  0
  190.8860  177.7570  141.9120 C   0  0  0  0  0  0  0  0  0  0  0  0
  189.6800  177.7920  141.1460 N   0  0  0  0  0  2  0  0  0  0  0  0
  189.2110  178.3610  138.8200 C   0  0  0  0  0  1  0  0  0  0  0  0
  189.5860  177.2590  139.7940 C   0  0  0  0  0  2  0  0  0  0  0  0
  1 22  1  0  0  0  0
  2  8  2  0  0  0  0
  2  6  1  0  0  0  0
  3  7  1  0  0  0  0
  4 11  1  0  0  0  0
  5  4  2  0  0  0  0
  6  5  1  0  0  0  0
  6  9  2  0  0  0  0
  8 10  1  0  0  0  0
  9  3  1  0  0  0  0
  9 11  1  0  0  0  0
 10  3  2  0  0  0  0
 11  1  1  1  0  0  0
 12  2  1  0  0  0  0
 13 17  1  0  0  0  0
 13 12  1  0  0  0  0
 15 18  1  0  0  0  0
 15 14  2  0  0  0  0
 16 20  1  0  0  0  0
 16 18  1  0  0  0  0
 17 15  1  0  0  0  0
 19 16  2  0  0  0  0
 20 21  1  0  0  0  0
 23 22  1  0  0  0  0
 23 26  1  0  0  0  0
 24 26  2  0  0  0  0
 26 27  1  0  0  0  0
 26 25  2  0  0  0  0
 28 37  1  1  0  0  0
 28 27  1  0  0  0  0
 28 29  1  0  0  0  0
 29 33  1  0  0  0  0
 30 34  1  0  0  0  0
 30 31  1  0  0  0  0
 32 36  1  0  0  0  0
 33 34  2  0  0  0  0
 35 30  2  0  0  0  0
 36 29  2  0  0  0  0
 36 35  1  0  0  0  0
 38 39  2  0  0  0  0
 39 37  1  0  0  0  0
 40 39  1  0  0  0  0
 41 42  1  0  0  0  0
 42 40  1  0  0  0  0
M  END
>  <MODEL>
3

>  <REMARK>
 VINA RESULT:      -7.9      3.122      5.827
  Name = 
  14 active torsions:
  status: ('A' for Active; 'I' for Inactive)
    1  A    between atoms: C_1  and  C_39
    2  A    between atoms: C_2  and  C_15
    3  A    between atoms: C_2  and  C_40
    4  A    between atoms: C_5  and  C_29
    5  A    between atoms: C_8  and  C_37
    6  A    between atoms: C_12  and  N_26
    7  A    between atoms: C_14  and  C_15
    8  A    between atoms: C_14  and  S_36
    9  A    between atoms: C_23  and  C_24
   10  A    between atoms: C_23  and  C_37
   11  A    between atoms: N_32  and  C_38
   12  A    between atoms: S_36  and  N_41
   13  A    between atoms: C_37  and  N_41
   14  A    between atoms: C_38  and  C_39
                            x       y       z     vdW  Elec       q    Type
                         _______ _______ _______ _____ _____    ______ ____

>  <TORSDO>
F 14

$$$$
=
 OpenBabel10232411013D

 42 44  0  0  1  0  0  0  0  0999 V2000
  189.2780  177.2170  138.1740 C   0  0  0  0  0  2  0  0  0  0  0  0
  191.5140  173.8360  135.8440 C   0  0  0  0  0  0  0  0  0  0  0  0
  189.9250  176.0480  135.2130 C   0  0  0  0  0  0  0  0  0  0  0  0
  191.5950  176.4130  138.5420 N   0  0  0  0  0  0  0  0  0  0  0  0
  192.0160  175.0850  138.0650 C   0  0  0  0  0  3  0  0  0  0  0  0
  191.3750  174.9030  136.7430 C   0  0  0  0  0  0  0  0  0  0  0  0
  189.0910  177.2280  134.8500 C   0  0  0  0  0  1  0  0  0  0  0  0
  190.8120  173.9090  134.6310 C   0  0  0  0  0  3  0  0  0  0  0  0
  190.6100  175.9840  136.4340 C   0  0  0  0  0  0  0  0  0  0  0  0
  190.0400  175.0020  134.3460 N   0  0  0  0  0  0  0  0  0  0  0  0
  190.6580  176.9670  137.5480 C   0  0  1  0  0  3  0  0  0  0  0  0
  192.3790  172.6570  136.1400 C   0  0  0  0  0  2  0  0  0  0  0  0
  193.7800  172.8830  135.5860 C   0  0  0  0  0  2  0  0  0  0  0  0
  195.0610  175.4310  135.5590 O   0  0  0  0  0  0  0  0  0  0  0  0
  195.3350  174.6560  136.5150 C   0  0  0  0  0  0  0  0  0  0  0  0
  196.7480  174.3080  138.6180 C   0  0  0  0  0  0  0  0  0  0  0  0
  194.6590  173.3920  136.6280 N   0  0  0  0  0  2  0  0  0  0  0  0
  196.2910  175.0780  137.4970 N   0  0  0  0  0  2  0  0  0  0  0  0
  196.4200  173.1020  138.7530 O   0  0  0  0  0  0  0  0  0  0  0  0
  197.6990  174.9130  139.5980 C   0  0  0  0  0  2  0  0  0  0  0  0
  197.0050  175.7810  140.4500 O   0  0  0  0  0  1  0  0  0  0  0  0
  189.3280  178.0850  139.4320 C   0  0  0  0  0  2  0  0  0  0  0  0
  188.2450  177.6760  140.4150 C   0  0  0  0  0  2  0  0  0  0  0  0
  189.5490  178.5710  142.5740 O   0  0  0  0  0  0  0  0  0  0  0  0
  190.0620  176.3010  141.8120 O   0  0  0  0  0  0  0  0  0  0  0  0
  188.9680  177.3130  141.9950 S   0  0  0  0  0  0  0  0  0  0  0  0
  187.7390  176.6880  143.0520 N   0  0  0  0  0  2  0  0  0  0  0  0
  187.0430  177.8150  143.6580 C   0  0  2  0  0  3  0  0  0  0  0  0
  187.3070  177.8740  145.1380 C   0  0  0  0  0  0  0  0  0  0  0  0
  187.8940  177.8500  147.8880 C   0  0  0  0  0  0  0  0  0  0  0  0
  188.1700  177.8190  149.2210 F   0  0  0  0  0  0  0  0  0  0  0  0
  185.1340  179.0740  145.6320 C   0  0  0  0  0  1  0  0  0  0  0  0
  188.5040  177.3090  145.6040 C   0  0  0  0  0  3  0  0  0  0  0  0
  188.8000  177.2990  146.9710 C   0  0  0  0  0  3  0  0  0  0  0  0
  186.7060  178.4230  147.4340 C   0  0  0  0  0  3  0  0  0  0  0  0
  186.4050  178.4430  146.0650 C   0  0  0  0  0  0  0  0  0  0  0  0
  185.5510  177.7730  143.3410 C   0  0  0  0  0  2  0  0  0  0  0  0
  185.7720  179.7990  142.1040 O   0  0  0  0  0  0  0  0  0  0  0  0
  185.2540  178.6500  142.1710 C   0  0  0  0  0  0  0  0  0  0  0  0
  184.3640  178.1980  141.1480 N   0  0  0  0  0  2  0  0  0  0  0  0
  185.0080  178.5290  138.8180 C   0  0  0  0  0  1  0  0  0  0  0  0
  184.0890  178.9680  139.9420 C   0  0  0  0  0  2  0  0  0  0  0  0
  1 22  1  0  0  0  0
  2 12  1  0  0  0  0
  2  6  1  0  0  0  0
  3  9  1  0  0  0  0
  5  4  2  0  0  0  0
  6  5  1  0  0  0  0
  7  3  1  0  0  0  0
  8  2  2  0  0  0  0
  9  6  2  0  0  0  0
  9 11  1  0  0  0  0
 10  8  1  0  0  0  0
 10  3  2  0  0  0  0
 11  1  1  1  0  0  0
 11  4  1  0  0  0  0
 13 12  1  0  0  0  0
 13 17  1  0  0  0  0
 14 15  2  0  0  0  0
 15 17  1  0  0  0  0
 15 18  1  0  0  0  0
 16 19  2  0  0  0  0
 16 20  1  0  0  0  0
 18 16  1  0  0  0  0
 20 21  1  0  0  0  0
 22 23  1  0  0  0  0
 23 26  1  0  0  0  0
 25 26  2  0  0  0  0
 26 24  2  0  0  0  0
 26 27  1  0  0  0  0
 27 28  1  0  0  0  0
 28 37  1  1  0  0  0
 28 29  1  0  0  0  0
 29 33  2  0  0  0  0
 29 36  1  0  0  0  0
 30 31  1  0  0  0  0
 32 36  1  0  0  0  0
 33 34  1  0  0  0  0
 34 30  2  0  0  0  0
 35 30  1  0  0  0  0
 36 35  2  0  0  0  0
 38 39  2  0  0  0  0
 39 37  1  0  0  0  0
 40 39  1  0  0  0  0
 41 42  1  0  0  0  0
 42 40  1  0  0  0  0
M  END
>  <MODEL>
4

>  <REMARK>
 VINA RESULT:      -7.9      2.625      4.999
  Name = 
  14 active torsions:
  status: ('A' for Active; 'I' for Inactive)
    1  A    between atoms: C_1  and  C_39
    2  A    between atoms: C_2  and  C_15
    3  A    between atoms: C_2  and  C_40
    4  A    between atoms: C_5  and  C_29
    5  A    between atoms: C_8  and  C_37
    6  A    between atoms: C_12  and  N_26
    7  A    between atoms: C_14  and  C_15
    8  A    between atoms: C_14  and  S_36
    9  A    between atoms: C_23  and  C_24
   10  A    between atoms: C_23  and  C_37
   11  A    between atoms: N_32  and  C_38
   12  A    between atoms: S_36  and  N_41
   13  A    between atoms: C_37  and  N_41
   14  A    between atoms: C_38  and  C_39
                            x       y       z     vdW  Elec       q    Type
                         _______ _______ _______ _____ _____    ______ ____

>  <TORSDO>
F 14

$$$$
=
 OpenBabel10232411013D

 42 44  0  0  1  0  0  0  0  0999 V2000
  187.3700  178.1660  138.6950 C   0  0  0  0  0  2  0  0  0  0  0  0
  189.2250  174.7390  136.1120 C   0  0  0  0  0  0  0  0  0  0  0  0
  186.6650  175.6700  136.7390 C   0  0  0  0  0  0  0  0  0  0  0  0
  189.2660  178.3360  137.1040 N   0  0  0  0  0  0  0  0  0  0  0  0
  190.0230  177.1370  136.7050 C   0  0  0  0  0  3  0  0  0  0  0  0
  189.0250  176.0560  136.5470 C   0  0  0  0  0  0  0  0  0  0  0  0
  185.2910  176.1550  137.0490 C   0  0  0  0  0  1  0  0  0  0  0  0
  188.1020  173.9020  136.0240 C   0  0  0  0  0  3  0  0  0  0  0  0
  187.7790  176.5140  136.8440 C   0  0  0  0  0  0  0  0  0  0  0  0
  186.8590  174.3820  136.3380 N   0  0  0  0  0  0  0  0  0  0  0  0
  187.8530  177.9400  137.2550 C   0  0  1  0  0  3  0  0  0  0  0  0
  190.5750  174.2220  135.7410 C   0  0  0  0  0  2  0  0  0  0  0  0
  191.3020  173.7180  136.9800 C   0  0  0  0  0  2  0  0  0  0  0  0
  193.3110  172.0170  135.8790 O   0  0  0  0  0  0  0  0  0  0  0  0
  193.6910  173.0990  136.4020 C   0  0  0  0  0  0  0  0  0  0  0  0
  195.6990  174.5480  137.0410 C   0  0  0  0  0  0  0  0  0  0  0  0
  192.7190  174.0360  136.8990 N   0  0  0  0  0  2  0  0  0  0  0  0
  195.0940  173.3910  136.4480 N   0  0  0  0  0  2  0  0  0  0  0  0
  195.0160  175.3680  137.7050 O   0  0  0  0  0  0  0  0  0  0  0  0
  197.1770  174.7470  136.9470 C   0  0  0  0  0  2  0  0  0  0  0  0
  197.4470  175.9690  136.3200 O   0  0  0  0  0  1  0  0  0  0  0  0
  188.5080  178.3740  139.6940 C   0  0  0  0  0  2  0  0  0  0  0  0
  188.8960  177.0630  140.3550 C   0  0  0  0  0  2  0  0  0  0  0  0
  189.2780  178.7840  142.3680 O   0  0  0  0  0  0  0  0  0  0  0  0
  190.4040  176.6150  142.5160 O   0  0  0  0  0  0  0  0  0  0  0  0
  189.1440  177.3130  142.0950 S   0  0  0  0  0  0  0  0  0  0  0  0
  187.7800  176.6730  142.9610 N   0  0  0  0  0  2  0  0  0  0  0  0
  187.0430  177.7880  143.5390 C   0  0  2  0  0  3  0  0  0  0  0  0
  187.2480  177.8500  145.0280 C   0  0  0  0  0  0  0  0  0  0  0  0
  187.7190  177.8290  147.8010 C   0  0  0  0  0  0  0  0  0  0  0  0
  187.9380  177.7990  149.1440 F   0  0  0  0  0  0  0  0  0  0  0  0
  185.1040  179.1380  145.4230 C   0  0  0  0  0  1  0  0  0  0  0  0
  188.4010  177.2440  145.5480 C   0  0  0  0  0  3  0  0  0  0  0  0
  188.6400  177.2350  146.9260 C   0  0  0  0  0  3  0  0  0  0  0  0
  186.5740  178.4430  147.2940 C   0  0  0  0  0  3  0  0  0  0  0  0
  186.3310  178.4620  145.9130 C   0  0  0  0  0  0  0  0  0  0  0  0
  185.5660  177.7230  143.1640 C   0  0  0  0  0  2  0  0  0  0  0  0
  185.9680  179.6670  141.8440 O   0  0  0  0  0  0  0  0  0  0  0  0
  185.2980  178.6080  141.9930 C   0  0  0  0  0  0  0  0  0  0  0  0
  184.2660  178.2700  141.0630 N   0  0  0  0  0  2  0  0  0  0  0  0
  182.9660  178.3450  138.9990 C   0  0  0  0  0  1  0  0  0  0  0  0
  184.0010  179.0460  139.8600 C   0  0  0  0  0  2  0  0  0  0  0  0
  1 22  1  0  0  0  0
  2  6  1  0  0  0  0
  3  9  1  0  0  0  0
  3  7  1  0  0  0  0
  4 11  1  0  0  0  0
  5  4  2  0  0  0  0
  6  5  1  0  0  0  0
  6  9  2  0  0  0  0
  8  2  2  0  0  0  0
  8 10  1  0  0  0  0
  9 11  1  0  0  0  0
 10  3  2  0  0  0  0
 11  1  1  1  0  0  0
 12  2  1  0  0  0  0
 12 13  1  0  0  0  0
 14 15  2  0  0  0  0
 15 18  1  0  0  0  0
 15 17  1  0  0  0  0
 16 19  2  0  0  0  0
 17 13  1  0  0  0  0
 18 16  1  0  0  0  0
 20 16  1  0  0  0  0
 21 20  1  0  0  0  0
 22 23  1  0  0  0  0
 23 26  1  0  0  0  0
 26 24  2  0  0  0  0
 26 25  2  0  0  0  0
 26 27  1  0  0  0  0
 27 28  1  0  0  0  0
 28 37  1  1  0  0  0
 28 29  1  0  0  0  0
 29 33  2  0  0  0  0
 29 36  1  0  0  0  0
 30 31  1  0  0  0  0
 32 36  1  0  0  0  0
 33 34  1  0  0  0  0
 34 30  2  0  0  0  0
 35 30  1  0  0  0  0
 36 35  2  0  0  0  0
 38 39  2  0  0  0  0
 39 37  1  0  0  0  0
 40 39  1  0  0  0  0
 41 42  1  0  0  0  0
 42 40  1  0  0  0  0
M  END
>  <MODEL>
5

>  <REMARK>
 VINA RESULT:      -7.9      2.466      4.436
  Name = 
  14 active torsions:
  status: ('A' for Active; 'I' for Inactive)
    1  A    between atoms: C_1  and  C_39
    2  A    between atoms: C_2  and  C_15
    3  A    between atoms: C_2  and  C_40
    4  A    between atoms: C_5  and  C_29
    5  A    between atoms: C_8  and  C_37
    6  A    between atoms: C_12  and  N_26
    7  A    between atoms: C_14  and  C_15
    8  A    between atoms: C_14  and  S_36
    9  A    between atoms: C_23  and  C_24
   10  A    between atoms: C_23  and  C_37
   11  A    between atoms: N_32  and  C_38
   12  A    between atoms: S_36  and  N_41
   13  A    between atoms: C_37  and  N_41
   14  A    between atoms: C_38  and  C_39
                            x       y       z     vdW  Elec       q    Type
                         _______ _______ _______ _____ _____    ______ ____

>  <TORSDO>
F 14

$$$$
=
 OpenBabel10232411013D

 42 44  0  0  1  0  0  0  0  0999 V2000
  189.3980  176.9420  138.6120 C   0  0  0  0  0  2  0  0  0  0  0  0
  191.9730  174.0450  135.9970 C   0  0  0  0  0  0  0  0  0  0  0  0
  189.7470  175.6960  135.6320 C   0  0  0  0  0  0  0  0  0  0  0  0
  191.8720  176.8060  138.5060 N   0  0  0  0  0  0  0  0  0  0  0  0
  192.5390  175.5920  138.0040 C   0  0  0  0  0  3  0  0  0  0  0  0
  191.7260  175.1210  136.8600 C   0  0  0  0  0  0  0  0  0  0  0  0
  188.5670  176.5780  135.4090 C   0  0  0  0  0  1  0  0  0  0  0  0
  191.0540  173.8140  134.9620 C   0  0  0  0  0  3  0  0  0  0  0  0
  190.6490  175.9320  136.6790 C   0  0  0  0  0  0  0  0  0  0  0  0
  189.9720  174.6360  134.8050 N   0  0  0  0  0  0  0  0  0  0  0  0
  190.6420  176.9970  137.7140 C   0  0  1  0  0  3  0  0  0  0  0  0
  193.1690  173.1650  136.1490 C   0  0  0  0  0  2  0  0  0  0  0  0
  194.3140  173.6860  135.2900 C   0  0  0  0  0  2  0  0  0  0  0  0
  195.5670  176.1880  135.8470 O   0  0  0  0  0  0  0  0  0  0  0  0
  196.1360  175.1470  136.2760 C   0  0  0  0  0  0  0  0  0  0  0  0
  198.1790  174.2010  137.4870 C   0  0  0  0  0  0  0  0  0  0  0  0
  195.5110  173.8640  136.0990 N   0  0  0  0  0  2  0  0  0  0  0  0
  197.3810  175.2770  136.9740 N   0  0  0  0  0  2  0  0  0  0  0  0
  197.8890  173.0030  137.2390 O   0  0  0  0  0  0  0  0  0  0  0  0
  199.4240  174.4990  138.2570 C   0  0  0  0  0  2  0  0  0  0  0  0
  199.1340  175.4010  139.2880 O   0  0  0  0  0  1  0  0  0  0  0  0
  189.3990  177.9940  139.7210 C   0  0  0  0  0  2  0  0  0  0  0  0
  188.4860  177.5780  140.8630 C   0  0  0  0  0  2  0  0  0  0  0  0
  190.8980  176.9740  141.8540 O   0  0  0  0  0  0  0  0  0  0  0  0
  188.9760  175.7520  142.7530 O   0  0  0  0  0  0  0  0  0  0  0  0
  189.4580  177.0880  142.2650 S   0  0  0  0  0  0  0  0  0  0  0  0
  189.2930  178.2830  143.5160 N   0  0  0  0  0  2  0  0  0  0  0  0
  188.8890  177.6070  144.7410 C   0  0  2  0  0  3  0  0  0  0  0  0
  187.4510  177.9040  145.0660 C   0  0  0  0  0  0  0  0  0  0  0  0
  184.7500  178.5370  145.5310 C   0  0  0  0  0  0  0  0  0  0  0  0
  183.4480  178.8650  145.7530 F   0  0  0  0  0  0  0  0  0  0  0  0
  187.8360  177.8040  147.5660 C   0  0  0  0  0  1  0  0  0  0  0  0
  186.5710  178.0970  143.9910 C   0  0  0  0  0  3  0  0  0  0  0  0
  185.2270  178.4090  144.2180 C   0  0  0  0  0  3  0  0  0  0  0  0
  185.6140  178.3370  146.6070 C   0  0  0  0  0  3  0  0  0  0  0  0
  186.9610  178.0190  146.3870 C   0  0  0  0  0  0  0  0  0  0  0  0
  189.8240  177.9570  145.8950 C   0  0  0  0  0  2  0  0  0  0  0  0
  191.4430  176.4760  144.9620 O   0  0  0  0  0  0  0  0  0  0  0  0
  190.9010  176.9300  146.0080 C   0  0  0  0  0  0  0  0  0  0  0  0
  191.2930  176.4440  147.2940 N   0  0  0  0  0  2  0  0  0  0  0  0
  193.1070  175.7870  148.7870 C   0  0  0  0  0  1  0  0  0  0  0  0
  192.3860  175.5010  147.4830 C   0  0  0  0  0  2  0  0  0  0  0  0
  1 22  1  0  0  0  0
  2 12  1  0  0  0  0
  2  6  1  0  0  0  0
  3  9  1  0  0  0  0
  5  4  2  0  0  0  0
  6  5  1  0  0  0  0
  7  3  1  0  0  0  0
  8  2  2  0  0  0  0
  9  6  2  0  0  0  0
  9 11  1  0  0  0  0
 10  8  1  0  0  0  0
 10  3  2  0  0  0  0
 11  4  1  0  0  0  0
 11  1  1  1  0  0  0
 13 17  1  0  0  0  0
 13 12  1  0  0  0  0
 14 15  2  0  0  0  0
 15 18  1  0  0  0  0
 16 20  1  0  0  0  0
 17 15  1  0  0  0  0
 18 16  1  0  0  0  0
 19 16  2  0  0  0  0
 20 21  1  0  0  0  0
 22 23  1  0  0  0  0
 23 26  1  0  0  0  0
 24 26  2  0  0  0  0
 26 25  2  0  0  0  0
 26 27  1  0  0  0  0
 27 28  1  0  0  0  0
 28 29  1  0  0  0  0
 28 37  1  1  0  0  0
 29 36  1  0  0  0  0
 30 31  1  0  0  0  0
 30 35  1  0  0  0  0
 33 34  1  0  0  0  0
 33 29  2  0  0  0  0
 34 30  2  0  0  0  0
 36 35  2  0  0  0  0
 36 32  1  0  0  0  0
 37 39  1  0  0  0  0
 38 39  2  0  0  0  0
 39 40  1  0  0  0  0
 40 42  1  0  0  0  0
 42 41  1  0  0  0  0
M  END
>  <MODEL>
6

>  <REMARK>
 VINA RESULT:      -7.8      2.203      3.670
  Name = 
  14 active torsions:
  status: ('A' for Active; 'I' for Inactive)
    1  A    between atoms: C_1  and  C_39
    2  A    between atoms: C_2  and  C_15
    3  A    between atoms: C_2  and  C_40
    4  A    between atoms: C_5  and  C_29
    5  A    between atoms: C_8  and  C_37
    6  A    between atoms: C_12  and  N_26
    7  A    between atoms: C_14  and  C_15
    8  A    between atoms: C_14  and  S_36
    9  A    between atoms: C_23  and  C_24
   10  A    between atoms: C_23  and  C_37
   11  A    between atoms: N_32  and  C_38
   12  A    between atoms: S_36  and  N_41
   13  A    between atoms: C_37  and  N_41
   14  A    between atoms: C_38  and  C_39
                            x       y       z     vdW  Elec       q    Type
                         _______ _______ _______ _____ _____    ______ ____

>  <TORSDO>
F 14

$$$$
=
 OpenBabel10232411013D

 42 44  0  0  1  0  0  0  0  0999 V2000
  190.7900  177.2620  138.9640 C   0  0  0  0  0  2  0  0  0  0  0  0
  187.5120  175.1580  136.3790 C   0  0  0  0  0  0  0  0  0  0  0  0
  188.4070  177.7690  136.8160 C   0  0  0  0  0  0  0  0  0  0  0  0
  191.0480  175.2270  137.5700 N   0  0  0  0  0  0  0  0  0  0  0  0
  189.8740  174.4300  137.1760 C   0  0  0  0  0  3  0  0  0  0  0  0
  188.8030  175.4040  136.8660 C   0  0  0  0  0  0  0  0  0  0  0  0
  188.8740  179.1690  137.0220 C   0  0  0  0  0  1  0  0  0  0  0  0
  186.6820  176.2640  136.1400 C   0  0  0  0  0  3  0  0  0  0  0  0
  189.2440  176.6740  137.0710 C   0  0  0  0  0  0  0  0  0  0  0  0
  187.1430  177.5320  136.3620 N   0  0  0  0  0  0  0  0  0  0  0  0
  190.6450  176.6460  137.5650 C   0  0  1  0  0  3  0  0  0  0  0  0
  187.0170  173.7760  136.1070 C   0  0  0  0  0  2  0  0  0  0  0  0
  186.2950  173.2280  137.3300 C   0  0  0  0  0  2  0  0  0  0  0  0
  183.8670  174.7270  137.3820 O   0  0  0  0  0  0  0  0  0  0  0  0
  183.7870  173.5060  137.0800 C   0  0  0  0  0  0  0  0  0  0  0  0
  182.2200  171.5670  136.5100 C   0  0  0  0  0  0  0  0  0  0  0  0
  184.9840  172.7180  136.9560 N   0  0  0  0  0  2  0  0  0  0  0  0
  182.4950  172.9400  136.8220 N   0  0  0  0  0  2  0  0  0  0  0  0
  183.1250  170.6950  136.5670 O   0  0  0  0  0  0  0  0  0  0  0  0
  180.8230  171.1400  136.1970 C   0  0  0  0  0  2  0  0  0  0  0  0
  179.9990  171.3850  137.3020 O   0  0  0  0  0  1  0  0  0  0  0  0
  189.7670  176.7360  139.9710 C   0  0  0  0  0  2  0  0  0  0  0  0
  190.2910  176.8620  141.3920 C   0  0  0  0  0  2  0  0  0  0  0  0
  188.5390  178.8860  141.3850 O   0  0  0  0  0  0  0  0  0  0  0  0
  190.0970  178.7540  143.2700 O   0  0  0  0  0  0  0  0  0  0  0  0
  189.2480  177.9530  142.3260 S   0  0  0  0  0  0  0  0  0  0  0  0
  188.0860  177.0110  143.2100 N   0  0  0  0  0  2  0  0  0  0  0  0
  187.1310  177.9230  143.8230 C   0  0  2  0  0  3  0  0  0  0  0  0
  187.3050  177.9560  145.3160 C   0  0  0  0  0  0  0  0  0  0  0  0
  187.7240  177.8850  148.0960 C   0  0  0  0  0  0  0  0  0  0  0  0
  187.9190  177.8290  149.4420 F   0  0  0  0  0  0  0  0  0  0  0  0
  185.1250  179.1850  145.6970 C   0  0  0  0  0  1  0  0  0  0  0  0
  188.4630  177.3660  145.8450 C   0  0  0  0  0  3  0  0  0  0  0  0
  188.6760  177.3320  147.2270 C   0  0  0  0  0  3  0  0  0  0  0  0
  186.5750  178.4830  147.5810 C   0  0  0  0  0  3  0  0  0  0  0  0
  186.3580  178.5260  146.1960 C   0  0  0  0  0  0  0  0  0  0  0  0
  185.7010  177.5740  143.4190 C   0  0  0  0  0  2  0  0  0  0  0  0
  185.6440  179.6910  142.3230 O   0  0  0  0  0  0  0  0  0  0  0  0
  185.2360  178.4960  142.3410 C   0  0  0  0  0  0  0  0  0  0  0  0
  184.3100  178.0340  141.3550 N   0  0  0  0  0  2  0  0  0  0  0  0
  184.8120  178.6740  139.0550 C   0  0  0  0  0  1  0  0  0  0  0  0
  183.8740  178.8540  140.2340 C   0  0  0  0  0  2  0  0  0  0  0  0
  1 22  1  0  0  0  0
  2  6  1  0  0  0  0
  3  7  1  0  0  0  0
  3  9  1  0  0  0  0
  5  4  2  0  0  0  0
  6  9  2  0  0  0  0
  6  5  1  0  0  0  0
  8 10  1  0  0  0  0
  8  2  2  0  0  0  0
  9 11  1  0  0  0  0
 10  3  2  0  0  0  0
 11  4  1  0  0  0  0
 11  1  1  1  0  0  0
 12  2  1  0  0  0  0
 12 13  1  0  0  0  0
 15 14  2  0  0  0  0
 16 19  2  0  0  0  0
 16 18  1  0  0  0  0
 17 15  1  0  0  0  0
 17 13  1  0  0  0  0
 18 15  1  0  0  0  0
 20 16  1  0  0  0  0
 20 21  1  0  0  0  0
 22 23  1  0  0  0  0
 23 26  1  0  0  0  0
 24 26  2  0  0  0  0
 26 27  1  0  0  0  0
 26 25  2  0  0  0  0
 27 28  1  0  0  0  0
 28 37  1  1  0  0  0
 28 29  1  0  0  0  0
 29 33  2  0  0  0  0
 29 36  1  0  0  0  0
 30 31  1  0  0  0  0
 32 36  1  0  0  0  0
 33 34  1  0  0  0  0
 34 30  2  0  0  0  0
 35 30  1  0  0  0  0
 36 35  2  0  0  0  0
 38 39  2  0  0  0  0
 39 37  1  0  0  0  0
 40 39  1  0  0  0  0
 41 42  1  0  0  0  0
 42 40  1  0  0  0  0
M  END
>  <MODEL>
7

>  <REMARK>
 VINA RESULT:      -7.7      3.751      6.275
  Name = 
  14 active torsions:
  status: ('A' for Active; 'I' for Inactive)
    1  A    between atoms: C_1  and  C_39
    2  A    between atoms: C_2  and  C_15
    3  A    between atoms: C_2  and  C_40
    4  A    between atoms: C_5  and  C_29
    5  A    between atoms: C_8  and  C_37
    6  A    between atoms: C_12  and  N_26
    7  A    between atoms: C_14  and  C_15
    8  A    between atoms: C_14  and  S_36
    9  A    between atoms: C_23  and  C_24
   10  A    between atoms: C_23  and  C_37
   11  A    between atoms: N_32  and  C_38
   12  A    between atoms: S_36  and  N_41
   13  A    between atoms: C_37  and  N_41
   14  A    between atoms: C_38  and  C_39
                            x       y       z     vdW  Elec       q    Type
                         _______ _______ _______ _____ _____    ______ ____

>  <TORSDO>
F 14

$$$$
=
 OpenBabel10232411013D

 42 44  0  0  1  0  0  0  0  0999 V2000
  191.0720  177.1730  139.0080 C   0  0  0  0  0  2  0  0  0  0  0  0
  187.8780  174.9400  136.4250 C   0  0  0  0  0  0  0  0  0  0  0  0
  188.6090  177.5900  136.9330 C   0  0  0  0  0  0  0  0  0  0  0  0
  191.4300  175.2070  137.5380 N   0  0  0  0  0  0  0  0  0  0  0  0
  190.3020  174.3470  137.1430 C   0  0  0  0  0  3  0  0  0  0  0  0
  189.1610  175.2560  136.8910 C   0  0  0  0  0  0  0  0  0  0  0  0
  188.9860  179.0100  137.1780 C   0  0  0  0  0  1  0  0  0  0  0  0
  186.9710  175.9950  136.2440 C   0  0  0  0  0  3  0  0  0  0  0  0
  189.5220  176.5460  137.1310 C   0  0  0  0  0  0  0  0  0  0  0  0
  187.3520  177.2840  136.5010 N   0  0  0  0  0  0  0  0  0  0  0  0
  190.9330  176.5950  137.5920 C   0  0  1  0  0  3  0  0  0  0  0  0
  187.4690  173.5380  136.1160 C   0  0  0  0  0  2  0  0  0  0  0  0
  186.8470  172.8910  137.3460 C   0  0  0  0  0  2  0  0  0  0  0  0
  184.4430  171.6640  136.4220 O   0  0  0  0  0  0  0  0  0  0  0  0
  184.3380  172.7780  137.0020 C   0  0  0  0  0  0  0  0  0  0  0  0
  182.7480  174.6490  137.7160 C   0  0  0  0  0  0  0  0  0  0  0  0
  185.5040  173.4070  137.5630 N   0  0  0  0  0  2  0  0  0  0  0  0
  183.0400  173.3740  137.1270 N   0  0  0  0  0  2  0  0  0  0  0  0
  183.6700  175.4280  138.0680 O   0  0  0  0  0  0  0  0  0  0  0  0
  181.3300  175.1060  137.8370 C   0  0  0  0  0  2  0  0  0  0  0  0
  180.9340  175.0540  139.1790 O   0  0  0  0  0  1  0  0  0  0  0  0
  190.3570  176.3450  140.0760 C   0  0  0  0  0  2  0  0  0  0  0  0
  190.2410  177.1230  141.3760 C   0  0  0  0  0  2  0  0  0  0  0  0
  187.9000  177.6800  140.2050 O   0  0  0  0  0  0  0  0  0  0  0  0
  188.7380  179.2810  141.8570 O   0  0  0  0  0  0  0  0  0  0  0  0
  188.6160  177.8240  141.5170 S   0  0  0  0  0  0  0  0  0  0  0  0
  187.7410  176.9850  142.7630 N   0  0  0  0  0  2  0  0  0  0  0  0
  186.9320  177.9560  143.4840 C   0  0  2  0  0  3  0  0  0  0  0  0
  187.2470  177.9290  144.9550 C   0  0  0  0  0  0  0  0  0  0  0  0
  187.9280  177.7460  147.6770 C   0  0  0  0  0  0  0  0  0  0  0  0
  188.2510  177.6370  148.9950 F   0  0  0  0  0  0  0  0  0  0  0  0
  185.1030  179.1150  145.5920 C   0  0  0  0  0  1  0  0  0  0  0  0
  188.4540  177.3320  145.3460 C   0  0  0  0  0  3  0  0  0  0  0  0
  188.7980  177.2420  146.6990 C   0  0  0  0  0  3  0  0  0  0  0  0
  186.7310  178.3520  147.2980 C   0  0  0  0  0  3  0  0  0  0  0  0
  186.3830  178.4510  145.9440 C   0  0  0  0  0  0  0  0  0  0  0  0
  185.4450  177.7430  143.2110 C   0  0  0  0  0  2  0  0  0  0  0  0
  185.5070  179.7060  141.8580 O   0  0  0  0  0  0  0  0  0  0  0  0
  185.0230  178.5530  142.0300 C   0  0  0  0  0  0  0  0  0  0  0  0
  184.0530  178.0330  141.1180 N   0  0  0  0  0  2  0  0  0  0  0  0
  184.7790  178.7140  138.8910 C   0  0  0  0  0  1  0  0  0  0  0  0
  183.6520  178.7340  139.9060 C   0  0  0  0  0  2  0  0  0  0  0  0
  1 22  1  0  0  0  0
  2  6  1  0  0  0  0
  3  9  1  0  0  0  0
  3  7  1  0  0  0  0
  4 11  1  0  0  0  0
  5  4  2  0  0  0  0
  6  9  2  0  0  0  0
  6  5  1  0  0  0  0
  8  2  2  0  0  0  0
  8 10  1  0  0  0  0
  9 11  1  0  0  0  0
 10  3  2  0  0  0  0
 11  1  1  1  0  0  0
 12  2  1  0  0  0  0
 12 13  1  0  0  0  0
 13 17  1  0  0  0  0
 14 15  2  0  0  0  0
 15 18  1  0  0  0  0
 15 17  1  0  0  0  0
 16 20  1  0  0  0  0
 16 19  2  0  0  0  0
 18 16  1  0  0  0  0
 20 21  1  0  0  0  0
 22 23  1  0  0  0  0
 23 26  1  0  0  0  0
 24 26  2  0  0  0  0
 26 25  2  0  0  0  0
 26 27  1  0  0  0  0
 27 28  1  0  0  0  0
 28 37  1  1  0  0  0
 28 29  1  0  0  0  0
 29 33  2  0  0  0  0
 29 36  1  0  0  0  0
 30 31  1  0  0  0  0
 32 36  1  0  0  0  0
 33 34  1  0  0  0  0
 34 30  2  0  0  0  0
 35 30  1  0  0  0  0
 36 35  2  0  0  0  0
 38 39  2  0  0  0  0
 39 37  1  0  0  0  0
 40 39  1  0  0  0  0
 41 42  1  0  0  0  0
 42 40  1  0  0  0  0
M  END
>  <MODEL>
8

>  <REMARK>
 VINA RESULT:      -7.7      3.466      6.124
  Name = 
  14 active torsions:
  status: ('A' for Active; 'I' for Inactive)
    1  A    between atoms: C_1  and  C_39
    2  A    between atoms: C_2  and  C_15
    3  A    between atoms: C_2  and  C_40
    4  A    between atoms: C_5  and  C_29
    5  A    between atoms: C_8  and  C_37
    6  A    between atoms: C_12  and  N_26
    7  A    between atoms: C_14  and  C_15
    8  A    between atoms: C_14  and  S_36
    9  A    between atoms: C_23  and  C_24
   10  A    between atoms: C_23  and  C_37
   11  A    between atoms: N_32  and  C_38
   12  A    between atoms: S_36  and  N_41
   13  A    between atoms: C_37  and  N_41
   14  A    between atoms: C_38  and  C_39
                            x       y       z     vdW  Elec       q    Type
                         _______ _______ _______ _____ _____    ______ ____

>  <TORSDO>
F 14

$$$$
=
 OpenBabel10232411013D

 42 44  0  0  1  0  0  0  0  0999 V2000
  185.1780  179.1520  144.4480 C   0  0  0  0  0  2  0  0  0  0  0  0
  189.4050  177.2550  145.0760 C   0  0  0  0  0  0  0  0  0  0  0  0
  187.2550  178.0350  146.6830 C   0  0  0  0  0  0  0  0  0  0  0  0
  186.1950  177.2830  143.1730 N   0  0  0  0  0  0  0  0  0  0  0  0
  187.6540  177.0820  143.1670 C   0  0  0  0  0  3  0  0  0  0  0  0
  188.1140  177.3680  144.5440 C   0  0  0  0  0  0  0  0  0  0  0  0
  186.1180  178.4320  147.5590 C   0  0  0  0  0  1  0  0  0  0  0  0
  189.5820  177.5660  146.4330 C   0  0  0  0  0  3  0  0  0  0  0  0
  187.0640  177.7390  145.3260 C   0  0  0  0  0  0  0  0  0  0  0  0
  188.5140  177.9470  147.1980 N   0  0  0  0  0  0  0  0  0  0  0  0
  185.8170  177.7570  144.5180 C   0  0  1  0  0  3  0  0  0  0  0  0
  190.5670  176.8110  144.2510 C   0  0  0  0  0  2  0  0  0  0  0  0
  191.0680  177.9630  143.3900 C   0  0  0  0  0  2  0  0  0  0  0  0
  192.2910  177.2710  140.9070 O   0  0  0  0  0  0  0  0  0  0  0  0
  191.0960  177.6710  140.8710 C   0  0  0  0  0  0  0  0  0  0  0  0
  189.1090  178.2680  139.3770 C   0  0  0  0  0  0  0  0  0  0  0  0
  190.3990  177.9550  142.0970 N   0  0  0  0  0  2  0  0  0  0  0  0
  190.4430  177.7900  139.6010 N   0  0  0  0  0  2  0  0  0  0  0  0
  188.4290  178.7570  140.3150 O   0  0  0  0  0  0  0  0  0  0  0  0
  188.5410  178.2690  137.9950 C   0  0  0  0  0  2  0  0  0  0  0  0
  188.9150  179.4460  137.3350 O   0  0  0  0  0  1  0  0  0  0  0  0
  183.9940  179.2320  143.4850 C   0  0  0  0  0  2  0  0  0  0  0  0
  182.6800  179.0520  144.2250 C   0  0  0  0  0  2  0  0  0  0  0  0
  180.5900  180.4550  143.3170 O   0  0  0  0  0  0  0  0  0  0  0  0
  180.3890  178.0150  143.3200 O   0  0  0  0  0  0  0  0  0  0  0  0
  181.3240  179.1660  143.0850 S   0  0  0  0  0  0  0  0  0  0  0  0
  181.9410  179.1210  141.4620 N   0  0  0  0  0  2  0  0  0  0  0  0
  181.2120  178.0970  140.7260 C   0  0  2  0  0  3  0  0  0  0  0  0
  182.1180  177.3870  139.7570 C   0  0  0  0  0  0  0  0  0  0  0  0
  183.8590  176.2070  137.8900 C   0  0  0  0  0  0  0  0  0  0  0  0
  184.6910  175.6470  136.9700 F   0  0  0  0  0  0  0  0  0  0  0  0
  180.6960  175.2930  139.7240 C   0  0  0  0  0  1  0  0  0  0  0  0
  183.2530  178.0790  139.3080 C   0  0  0  0  0  3  0  0  0  0  0  0
  184.1220  177.4940  138.3810 C   0  0  0  0  0  3  0  0  0  0  0  0
  182.7390  175.5070  138.3380 C   0  0  0  0  0  3  0  0  0  0  0  0
  181.8670  176.0850  139.2700 C   0  0  0  0  0  0  0  0  0  0  0  0
  179.9830  178.6850  140.0380 C   0  0  0  0  0  2  0  0  0  0  0  0
  180.2510  181.0520  140.1480 O   0  0  0  0  0  0  0  0  0  0  0  0
  180.3200  180.0100  139.4390 C   0  0  0  0  0  0  0  0  0  0  0  0
  180.6880  180.0970  138.0600 N   0  0  0  0  0  2  0  0  0  0  0  0
  180.4760  181.4690  136.0540 C   0  0  0  0  0  1  0  0  0  0  0  0
  181.1020  181.3430  137.4300 C   0  0  0  0  0  2  0  0  0  0  0  0
  2  8  1  0  0  0  0
  3 10  1  0  0  0  0
  3  7  1  0  0  0  0
  4 11  1  0  0  0  0
  5  4  2  0  0  0  0
  5  6  1  0  0  0  0
  6  2  2  0  0  0  0
  6  9  1  0  0  0  0
  8 10  2  0  0  0  0
  9  3  2  0  0  0  0
 11  1  1  6  0  0  0
 11  9  1  0  0  0  0
 12  2  1  0  0  0  0
 13 12  1  0  0  0  0
 15 14  2  0  0  0  0
 15 17  1  0  0  0  0
 16 18  1  0  0  0  0
 16 19  2  0  0  0  0
 17 13  1  0  0  0  0
 18 15  1  0  0  0  0
 20 16  1  0  0  0  0
 21 20  1  0  0  0  0
 22 23  1  0  0  0  0
 22  1  1  0  0  0  0
 26 24  2  0  0  0  0
 26 25  2  0  0  0  0
 26 23  1  0  0  0  0
 27 26  1  0  0  0  0
 28 37  1  6  0  0  0
 28 27  1  0  0  0  0
 29 28  1  0  0  0  0
 30 35  2  0  0  0  0
 30 34  1  0  0  0  0
 31 30  1  0  0  0  0
 33 29  1  0  0  0  0
 34 33  2  0  0  0  0
 35 36  1  0  0  0  0
 36 32  1  0  0  0  0
 36 29  2  0  0  0  0
 39 37  1  0  0  0  0
 39 38  2  0  0  0  0
 40 39  1  0  0  0  0
 41 42  1  0  0  0  0
 42 40  1  0  0  0  0
M  END
>  <MODEL>
9

>  <REMARK>
 VINA RESULT:      -7.6      4.560      8.879
  Name = 
  14 active torsions:
  status: ('A' for Active; 'I' for Inactive)
    1  A    between atoms: C_1  and  C_39
    2  A    between atoms: C_2  and  C_15
    3  A    between atoms: C_2  and  C_40
    4  A    between atoms: C_5  and  C_29
    5  A    between atoms: C_8  and  C_37
    6  A    between atoms: C_12  and  N_26
    7  A    between atoms: C_14  and  C_15
    8  A    between atoms: C_14  and  S_36
    9  A    between atoms: C_23  and  C_24
   10  A    between atoms: C_23  and  C_37
   11  A    between atoms: N_32  and  C_38
   12  A    between atoms: S_36  and  N_41
   13  A    between atoms: C_37  and  N_41
   14  A    between atoms: C_38  and  C_39
                            x       y       z     vdW  Elec       q    Type
                         _______ _______ _______ _____ _____    ______ ____

>  <TORSDO>
F 14

$$$$
