=
 OpenBabel10232410523D

 49 53  0  0  1  0  0  0  0  0999 V2000
  189.8360  177.7810  147.9660 N   0  0  0  0  0  0  0  0  0  0  0  0
  188.5370  177.8680  148.2200 C   0  0  0  0  0  0  0  0  0  0  0  0
  187.5320  177.6260  147.1970 N   0  0  0  0  0  0  0  0  0  0  0  0
  190.5250  176.3980  145.8150 C   0  0  2  0  0  0  0  0  0  0  0  0
  189.3060  177.2090  145.8260 N   0  0  0  0  0  0  0  0  0  0  0  0
  187.9170  177.2860  146.0080 C   0  0  0  0  0  0  0  0  0  0  0  0
  188.1110  178.1410  149.5450 N   0  0  0  0  0  1  0  0  0  0  0  0
  191.5500  176.1180  147.2490 S   0  0  0  0  0  0  0  0  0  0  0  0
  190.5100  177.5190  146.6650 C   0  0  2  0  0  0  0  0  0  0  0  0
  191.8360  175.5380  144.0150 O   0  0  0  0  0  0  0  0  0  0  0  0
  191.3780  176.7290  144.6000 C   0  0  1  0  0  3  0  0  0  0  0  0
  190.7690  176.1780  143.3610 C   0  0  1  0  0  3  0  0  0  0  0  0
  191.3550  178.4320  142.5390 C   0  0  0  0  0  1  0  0  0  0  0  0
  191.2930  176.9610  142.1600 C   0  0  2  0  0  3  0  0  0  0  0  0
  190.4370  176.8170  140.8960 C   0  0  2  0  0  3  0  0  0  0  0  0
  191.2350  176.6330  139.6440 C   0  0  0  0  0  0  0  0  0  0  0  0
  192.3930  176.2400  137.0120 O   0  0  0  0  0  0  0  0  0  0  0  0
  192.2520  177.3420  139.4650 O   0  0  0  0  0  0  0  0  0  0  0  0
  190.8650  175.6350  138.6910 N   0  0  0  0  0  2  0  0  0  0  0  0
  191.4640  175.4700  137.3980 C   0  0  0  0  0  0  0  0  0  0  0  0
  190.9910  174.3830  136.5000 C   0  0  0  0  0  1  0  0  0  0  0  0
  189.5400  178.0430  140.7610 C   0  0  0  0  0  2  0  0  0  0  0  0
  188.4830  177.8210  139.6820 C   0  0  0  0  0  2  0  0  0  0  0  0
  188.7600  178.6970  138.5550 N   0  0  0  0  0  2  0  0  0  0  0  0
  187.5830  178.9080  136.4440 C   0  0  0  0  0  2  0  0  0  0  0  0
  188.4990  178.3070  137.1960 C   0  0  0  0  0  3  0  0  0  0  0  0
  186.9560  176.9790  144.9100 C   0  0  0  0  0  2  0  0  0  0  0  0
  186.4290  178.0510  142.7950 C   0  0  0  0  0  0  0  0  0  0  0  0
  187.3290  177.7360  143.6870 C   0  0  0  0  0  3  0  0  0  0  0  0
  185.5560  178.3840  141.8780 C   0  0  0  0  0  3  0  0  0  0  0  0
  184.1050  178.0460  141.9960 C   0  0  1  0  0  3  0  0  0  0  0  0
  183.4960  178.6960  143.1680 C   0  0  0  0  0  0  0  0  0  0  0  0
  183.0120  179.2570  144.1270 C   0  0  0  0  0  3  0  0  0  0  0  0
  182.8540  179.5470  140.6550 O   0  0  0  0  0  0  0  0  0  0  0  0
  183.4000  178.4580  140.7350 C   0  0  0  0  0  0  0  0  0  0  0  0
  183.4380  177.5590  139.5430 C   0  0  0  0  0  2  0  0  0  0  0  0
  185.1940  178.9610  138.7490 O   0  0  0  0  0  0  0  0  0  0  0  0
  184.2870  178.1440  138.4550 C   0  0  0  0  0  0  0  0  0  0  0  0
  184.0690  177.8060  137.0800 N   0  0  0  0  0  2  0  0  0  0  0  0
  183.1390  176.7600  136.6500 C   0  0  1  0  0  3  0  0  0  0  0  0
  182.0700  177.2710  135.8740 O   0  0  0  0  0  0  0  0  0  0  0  0
  181.1190  177.8820  136.7150 C   0  0  0  0  0  2  0  0  0  0  0  0
  180.1440  176.3610  138.2860 O   0  0  0  0  0  1  0  0  0  0  0  0
  179.9830  176.9190  137.0160 C   0  0  0  0  0  2  0  0  0  0  0  0
  183.8470  175.5470  136.0270 C   0  0  0  0  0  2  0  0  0  0  0  0
  183.7820  174.3740  136.8880 N   0  0  0  0  0  2  0  0  0  0  0  0
  185.3660  172.6800  137.5190 C   0  0  0  0  0  2  0  0  0  0  0  0
  185.1150  174.1390  137.4100 C   0  0  1  0  0  3  0  0  0  0  0  0
  185.8680  173.4400  136.4490 O   0  0  0  0  0  0  0  0  0  0  0  0
  1  2  2  0  0  0  0
  2  7  1  0  0  0  0
  3  2  1  0  0  0  0
  4  5  1  0  0  0  0
  4  9  1  0  0  0  0
  4  8  1  1  0  0  0
  5  6  1  0  0  0  0
  5  9  1  0  0  0  0
  6  3  2  0  0  0  0
  9  8  1  1  0  0  0
  9  1  1  0  0  0  0
 11 10  1  1  0  0  0
 11  4  1  0  0  0  0
 12 14  1  6  0  0  0
 12 10  1  0  0  0  0
 12 11  1  0  0  0  0
 14 13  1  1  0  0  0
 15 22  1  6  0  0  0
 15 14  1  0  0  0  0
 16 15  1  0  0  0  0
 17 20  2  0  0  0  0
 18 16  2  0  0  0  0
 19 16  1  0  0  0  0
 20 19  1  0  0  0  0
 21 20  1  0  0  0  0
 23 22  1  0  0  0  0
 24 23  1  0  0  0  0
 25 26  2  0  0  0  0
 26 24  1  0  0  0  0
 27  6  1  0  0  0  0
 28 29  2  0  0  0  0
 29 27  1  0  0  0  0
 30 28  2  0  0  0  0
 31 30  1  6  0  0  0
 31 32  1  0  0  0  0
 32 33  3  0  0  0  0
 34 35  2  0  0  0  0
 35 31  1  0  0  0  0
 36 35  1  0  0  0  0
 38 37  2  0  0  0  0
 38 36  1  0  0  0  0
 39 38  1  0  0  0  0
 40 45  1  6  0  0  0
 40 39  1  0  0  0  0
 41 40  1  0  0  0  0
 41 42  1  0  0  0  0
 42 44  1  0  0  0  0
 44 43  1  0  0  0  0
 45 46  1  0  0  0  0
 48 46  1  6  0  0  0
 48 47  1  0  0  0  0
 49 48  1  0  0  0  0
 49 47  1  0  0  0  0
M  END
>  <MODEL>
1

>  <REMARK>
 VINA RESULT:      -6.3      0.000      0.000
  Name = 
  22 active torsions:
  status: ('A' for Active; 'I' for Inactive)
    1  A    between atoms: C_3  and  C_36
    2  A    between atoms: C_5  and  O_37
    3  A    between atoms: C_5  and  N_39
    4  A    between atoms: C_5  and  C_46
    5  A    between atoms: C_7  and  C_8
    6  A    between atoms: C_7  and  O_37
    7  A    between atoms: C_10  and  C_41
    8  A    between atoms: N_12  and  C_18
    9  A    between atoms: N_12  and  C_20
   10  A    between atoms: C_15  and  C_24
   11  A    between atoms: C_17  and  C_23
   12  A    between atoms: C_18  and  C_44
   13  A    between atoms: C_22  and  C_26
   14  A    between atoms: C_23  and  C_28
   15  A    between atoms: C_23  and  C_43
   16  A    between atoms: C_26  and  C_43
   17  A    between atoms: C_27  and  C_47
   18  A    between atoms: N_29  and  C_42
   19  A    between atoms: N_29  and  C_46
   20  A    between atoms: C_31  and  C_36
   21  A    between atoms: C_41  and  C_44
   22  A    between atoms: C_41  and  C_47
                            x       y       z     vdW  Elec       q    Type
                         _______ _______ _______ _____ _____    ______ ____

>  <TORSDO>
F 22

$$$$
=
 OpenBabel10232410523D

 49 53  0  0  1  0  0  0  0  0999 V2000
  190.2680  177.8780  146.2980 N   0  0  0  0  0  0  0  0  0  0  0  0
  189.2370  177.8330  147.1330 C   0  0  0  0  0  0  0  0  0  0  0  0
  187.8620  177.8080  146.6620 N   0  0  0  0  0  0  0  0  0  0  0  0
  189.7950  177.1220  143.8030 C   0  0  2  0  0  0  0  0  0  0  0  0
  188.7790  177.8420  144.5740 N   0  0  0  0  0  0  0  0  0  0  0  0
  187.6360  177.8010  145.3860 C   0  0  0  0  0  0  0  0  0  0  0  0
  189.4840  177.7380  148.5270 N   0  0  0  0  0  1  0  0  0  0  0  0
  191.3380  176.5400  144.4870 S   0  0  0  0  0  0  0  0  0  0  0  0
  190.2520  177.9890  144.8140 C   0  0  2  0  0  0  0  0  0  0  0  0
  191.1130  177.1880  141.8150 O   0  0  0  0  0  0  0  0  0  0  0  0
  190.0210  177.7940  142.4580 C   0  0  1  0  0  3  0  0  0  0  0  0
  189.8380  176.8240  141.3460 C   0  0  1  0  0  3  0  0  0  0  0  0
  188.0620  178.0230  140.1190 C   0  0  0  0  0  1  0  0  0  0  0  0
  189.5200  177.5910  140.0660 C   0  0  2  0  0  3  0  0  0  0  0  0
  189.7450  176.7860  138.7810 C   0  0  2  0  0  3  0  0  0  0  0  0
  191.1460  176.2850  138.6200 C   0  0  0  0  0  0  0  0  0  0  0  0
  193.7440  175.2130  137.8970 O   0  0  0  0  0  0  0  0  0  0  0  0
  192.0850  176.9440  139.1240 O   0  0  0  0  0  0  0  0  0  0  0  0
  191.4000  175.0540  137.9420 N   0  0  0  0  0  2  0  0  0  0  0  0
  192.7020  174.5560  137.6030 C   0  0  0  0  0  0  0  0  0  0  0  0
  192.8310  173.2510  136.9000 C   0  0  0  0  0  1  0  0  0  0  0  0
  189.3650  177.6480  137.5810 C   0  0  0  0  0  2  0  0  0  0  0  0
  188.2390  176.9950  136.7840 C   0  0  0  0  0  2  0  0  0  0  0  0
  188.3190  175.5520  136.9390 N   0  0  0  0  0  2  0  0  0  0  0  0
  186.3640  174.1490  137.2450 C   0  0  0  0  0  2  0  0  0  0  0  0
  187.2940  174.6680  136.4520 C   0  0  0  0  0  3  0  0  0  0  0  0
  186.2600  177.7350  144.8160 C   0  0  0  0  0  2  0  0  0  0  0  0
  184.4700  179.2920  144.2940 C   0  0  0  0  0  0  0  0  0  0  0  0
  185.6460  179.0880  144.8240 C   0  0  0  0  0  3  0  0  0  0  0  0
  183.2950  179.5360  143.7720 C   0  0  0  0  0  3  0  0  0  0  0  0
  182.4620  178.4670  143.1420 C   0  0  1  0  0  3  0  0  0  0  0  0
  181.1010  178.4460  143.7030 C   0  0  0  0  0  0  0  0  0  0  0  0
  179.9820  178.4600  144.1690 C   0  0  0  0  0  3  0  0  0  0  0  0
  181.7030  179.5470  141.1740 O   0  0  0  0  0  0  0  0  0  0  0  0
  182.4210  178.6860  141.6570 C   0  0  0  0  0  0  0  0  0  0  0  0
  183.3280  177.8970  140.7710 C   0  0  0  0  0  2  0  0  0  0  0  0
  184.9540  179.6330  140.6280 O   0  0  0  0  0  0  0  0  0  0  0  0
  184.2510  178.7970  140.0070 C   0  0  0  0  0  0  0  0  0  0  0  0
  184.3340  178.7380  138.5780 N   0  0  0  0  0  2  0  0  0  0  0  0
  183.6690  177.7050  137.7800 C   0  0  1  0  0  3  0  0  0  0  0  0
  184.1280  176.4020  138.0900 O   0  0  0  0  0  0  0  0  0  0  0  0
  183.0690  175.4820  137.9720 C   0  0  0  0  0  2  0  0  0  0  0  0
  182.9700  173.7600  136.3110 O   0  0  0  0  0  1  0  0  0  0  0  0
  182.8290  175.1340  136.5120 C   0  0  0  0  0  2  0  0  0  0  0  0
  182.1380  177.8480  137.7700 C   0  0  0  0  0  2  0  0  0  0  0  0
  181.6990  178.9650  136.9450 N   0  0  0  0  0  2  0  0  0  0  0  0
  181.5450  181.0880  138.0600 C   0  0  0  0  0  2  0  0  0  0  0  0
  180.8520  179.8100  137.7650 C   0  0  1  0  0  3  0  0  0  0  0  0
  180.5620  180.9920  137.0610 O   0  0  0  0  0  0  0  0  0  0  0  0
  1  2  2  0  0  0  0
  2  7  1  0  0  0  0
  3  2  1  0  0  0  0
  4  8  1  1  0  0  0
  4  5  1  0  0  0  0
  4  9  1  0  0  0  0
  5  9  1  0  0  0  0
  5  6  1  0  0  0  0
  6  3  2  0  0  0  0
  9  8  1  1  0  0  0
  9  1  1  0  0  0  0
 11 10  1  1  0  0  0
 11  4  1  0  0  0  0
 12 14  1  6  0  0  0
 12 10  1  0  0  0  0
 12 11  1  0  0  0  0
 14 13  1  1  0  0  0
 15 22  1  6  0  0  0
 15 14  1  0  0  0  0
 16 15  1  0  0  0  0
 16 18  2  0  0  0  0
 19 16  1  0  0  0  0
 20 17  2  0  0  0  0
 20 19  1  0  0  0  0
 21 20  1  0  0  0  0
 23 24  1  0  0  0  0
 23 22  1  0  0  0  0
 26 24  1  0  0  0  0
 26 25  2  0  0  0  0
 27 29  1  0  0  0  0
 27  6  1  0  0  0  0
 28 29  2  0  0  0  0
 30 28  2  0  0  0  0
 31 32  1  1  0  0  0
 31 30  1  0  0  0  0
 32 33  3  0  0  0  0
 34 35  2  0  0  0  0
 35 31  1  0  0  0  0
 36 35  1  0  0  0  0
 38 37  2  0  0  0  0
 38 36  1  0  0  0  0
 39 38  1  0  0  0  0
 40 45  1  1  0  0  0
 40 41  1  0  0  0  0
 40 39  1  0  0  0  0
 42 41  1  0  0  0  0
 43 44  1  0  0  0  0
 44 42  1  0  0  0  0
 46 45  1  0  0  0  0
 48 46  1  6  0  0  0
 48 47  1  0  0  0  0
 49 48  1  0  0  0  0
 49 47  1  0  0  0  0
M  END
>  <MODEL>
2

>  <REMARK>
 VINA RESULT:      -6.1      1.880      3.308
  Name = 
  22 active torsions:
  status: ('A' for Active; 'I' for Inactive)
    1  A    between atoms: C_3  and  C_36
    2  A    between atoms: C_5  and  O_37
    3  A    between atoms: C_5  and  N_39
    4  A    between atoms: C_5  and  C_46
    5  A    between atoms: C_7  and  C_8
    6  A    between atoms: C_7  and  O_37
    7  A    between atoms: C_10  and  C_41
    8  A    between atoms: N_12  and  C_18
    9  A    between atoms: N_12  and  C_20
   10  A    between atoms: C_15  and  C_24
   11  A    between atoms: C_17  and  C_23
   12  A    between atoms: C_18  and  C_44
   13  A    between atoms: C_22  and  C_26
   14  A    between atoms: C_23  and  C_28
   15  A    between atoms: C_23  and  C_43
   16  A    between atoms: C_26  and  C_43
   17  A    between atoms: C_27  and  C_47
   18  A    between atoms: N_29  and  C_42
   19  A    between atoms: N_29  and  C_46
   20  A    between atoms: C_31  and  C_36
   21  A    between atoms: C_41  and  C_44
   22  A    between atoms: C_41  and  C_47
                            x       y       z     vdW  Elec       q    Type
                         _______ _______ _______ _____ _____    ______ ____

>  <TORSDO>
F 22

$$$$
=
 OpenBabel10232410523D

 49 53  0  0  1  0  0  0  0  0999 V2000
  189.7450  177.6690  147.9030 N   0  0  0  0  0  0  0  0  0  0  0  0
  188.4330  177.7450  148.0880 C   0  0  0  0  0  0  0  0  0  0  0  0
  187.4870  177.5460  147.0020 N   0  0  0  0  0  0  0  0  0  0  0  0
  190.5550  176.3790  145.7360 C   0  0  2  0  0  0  0  0  0  0  0  0
  189.3350  177.1880  145.7150 N   0  0  0  0  0  0  0  0  0  0  0  0
  187.9380  177.2570  145.8230 C   0  0  0  0  0  0  0  0  0  0  0  0
  187.9340  177.9610  149.3980 N   0  0  0  0  0  1  0  0  0  0  0  0
  191.5000  176.0400  147.2120 S   0  0  0  0  0  0  0  0  0  0  0  0
  190.4890  177.4630  146.6310 C   0  0  2  0  0  0  0  0  0  0  0  0
  191.8470  175.6040  143.8850 O   0  0  0  0  0  0  0  0  0  0  0  0
  191.4720  176.7620  144.5860 C   0  0  1  0  0  3  0  0  0  0  0  0
  190.8600  176.4010  143.2800 C   0  0  1  0  0  3  0  0  0  0  0  0
  191.1940  178.7170  142.4920 C   0  0  0  0  0  1  0  0  0  0  0  0
  191.4880  177.2580  142.1840 C   0  0  2  0  0  3  0  0  0  0  0  0
  190.9770  176.9430  140.7730 C   0  0  2  0  0  3  0  0  0  0  0  0
  192.0550  176.9010  139.7360 C   0  0  0  0  0  0  0  0  0  0  0  0
  193.8300  176.9380  137.4400 O   0  0  0  0  0  0  0  0  0  0  0  0
  193.1880  177.3510  140.0230 O   0  0  0  0  0  0  0  0  0  0  0  0
  191.8050  176.3170  138.4570 N   0  0  0  0  0  2  0  0  0  0  0  0
  192.7100  176.3540  137.3440 C   0  0  0  0  0  0  0  0  0  0  0  0
  192.3310  175.6970  136.0640 C   0  0  0  0  0  1  0  0  0  0  0  0
  189.9260  177.9770  140.3830 C   0  0  0  0  0  2  0  0  0  0  0  0
  188.6120  177.2960  140.0120 C   0  0  0  0  0  2  0  0  0  0  0  0
  188.5110  177.2080  138.5640 N   0  0  0  0  0  2  0  0  0  0  0  0
  188.5200  178.3350  136.4160 C   0  0  0  0  0  2  0  0  0  0  0  0
  188.8510  178.3080  137.7010 C   0  0  0  0  0  3  0  0  0  0  0  0
  187.0390  176.9960  144.6620 C   0  0  0  0  0  2  0  0  0  0  0  0
  186.4380  178.2670  142.6810 C   0  0  0  0  0  0  0  0  0  0  0  0
  187.3460  177.9490  143.5640 C   0  0  0  0  0  3  0  0  0  0  0  0
  185.5550  178.6090  141.7770 C   0  0  0  0  0  3  0  0  0  0  0  0
  184.1550  178.0840  141.7880 C   0  0  1  0  0  3  0  0  0  0  0  0
  183.3660  178.6830  142.8770 C   0  0  0  0  0  0  0  0  0  0  0  0
  182.7300  179.1550  143.7950 C   0  0  0  0  0  3  0  0  0  0  0  0
  182.9380  179.4140  140.2500 O   0  0  0  0  0  0  0  0  0  0  0  0
  183.5170  178.3590  140.4570 C   0  0  0  0  0  0  0  0  0  0  0  0
  183.6600  177.3640  139.3520 C   0  0  0  0  0  2  0  0  0  0  0  0
  185.2550  178.8560  138.3980 O   0  0  0  0  0  0  0  0  0  0  0  0
  184.4080  177.9520  138.1930 C   0  0  0  0  0  0  0  0  0  0  0  0
  184.1600  177.5160  136.8510 N   0  0  0  0  0  2  0  0  0  0  0  0
  183.3030  176.3740  136.5260 C   0  0  1  0  0  3  0  0  0  0  0  0
  183.7650  175.1680  137.1080 O   0  0  0  0  0  0  0  0  0  0  0  0
  184.3410  174.3500  136.1180 C   0  0  0  0  0  2  0  0  0  0  0  0
  186.4420  174.6760  137.2190 O   0  0  0  0  0  1  0  0  0  0  0  0
  185.8220  174.6610  135.9690 C   0  0  0  0  0  2  0  0  0  0  0  0
  181.8110  176.6570  136.7600 C   0  0  0  0  0  2  0  0  0  0  0  0
  181.2610  177.5590  135.7580 N   0  0  0  0  0  2  0  0  0  0  0  0
  180.1280  179.6770  135.7220 C   0  0  0  0  0  2  0  0  0  0  0  0
  181.2230  178.8880  136.3370 C   0  0  1  0  0  3  0  0  0  0  0  0
  179.9880  179.0730  136.9820 O   0  0  0  0  0  0  0  0  0  0  0  0
  1  2  2  0  0  0  0
  2  7  1  0  0  0  0
  3  2  1  0  0  0  0
  4  9  1  0  0  0  0
  4  8  1  1  0  0  0
  5  4  1  0  0  0  0
  5  6  1  0  0  0  0
  5  9  1  0  0  0  0
  6  3  2  0  0  0  0
  9  8  1  1  0  0  0
  9  1  1  0  0  0  0
 11 10  1  1  0  0  0
 11  4  1  0  0  0  0
 12 14  1  6  0  0  0
 12 10  1  0  0  0  0
 12 11  1  0  0  0  0
 14 13  1  1  0  0  0
 15 22  1  6  0  0  0
 15 14  1  0  0  0  0
 16 18  2  0  0  0  0
 16 15  1  0  0  0  0
 19 16  1  0  0  0  0
 20 17  2  0  0  0  0
 20 19  1  0  0  0  0
 21 20  1  0  0  0  0
 23 22  1  0  0  0  0
 24 23  1  0  0  0  0
 25 26  2  0  0  0  0
 26 24  1  0  0  0  0
 27  6  1  0  0  0  0
 28 29  2  0  0  0  0
 29 27  1  0  0  0  0
 30 28  2  0  0  0  0
 31 30  1  6  0  0  0
 31 32  1  0  0  0  0
 32 33  3  0  0  0  0
 34 35  2  0  0  0  0
 35 31  1  0  0  0  0
 36 35  1  0  0  0  0
 38 37  2  0  0  0  0
 38 36  1  0  0  0  0
 39 38  1  0  0  0  0
 40 45  1  1  0  0  0
 40 39  1  0  0  0  0
 40 41  1  0  0  0  0
 42 41  1  0  0  0  0
 44 42  1  0  0  0  0
 44 43  1  0  0  0  0
 46 45  1  0  0  0  0
 47 48  1  0  0  0  0
 47 49  1  0  0  0  0
 48 46  1  6  0  0  0
 48 49  1  0  0  0  0
M  END
>  <MODEL>
3

>  <REMARK>
 VINA RESULT:      -6.0      1.139      2.649
  Name = 
  22 active torsions:
  status: ('A' for Active; 'I' for Inactive)
    1  A    between atoms: C_3  and  C_36
    2  A    between atoms: C_5  and  O_37
    3  A    between atoms: C_5  and  N_39
    4  A    between atoms: C_5  and  C_46
    5  A    between atoms: C_7  and  C_8
    6  A    between atoms: C_7  and  O_37
    7  A    between atoms: C_10  and  C_41
    8  A    between atoms: N_12  and  C_18
    9  A    between atoms: N_12  and  C_20
   10  A    between atoms: C_15  and  C_24
   11  A    between atoms: C_17  and  C_23
   12  A    between atoms: C_18  and  C_44
   13  A    between atoms: C_22  and  C_26
   14  A    between atoms: C_23  and  C_28
   15  A    between atoms: C_23  and  C_43
   16  A    between atoms: C_26  and  C_43
   17  A    between atoms: C_27  and  C_47
   18  A    between atoms: N_29  and  C_42
   19  A    between atoms: N_29  and  C_46
   20  A    between atoms: C_31  and  C_36
   21  A    between atoms: C_41  and  C_44
   22  A    between atoms: C_41  and  C_47
                            x       y       z     vdW  Elec       q    Type
                         _______ _______ _______ _____ _____    ______ ____

>  <TORSDO>
F 22

$$$$
=
 OpenBabel10232410523D

 49 53  0  0  1  0  0  0  0  0999 V2000
  190.8920  174.7970  137.7460 N   0  0  0  0  0  0  0  0  0  0  0  0
  189.9110  174.6220  136.8690 C   0  0  0  0  0  0  0  0  0  0  0  0
  188.6980  175.4230  136.8980 N   0  0  0  0  0  0  0  0  0  0  0  0
  190.9360  177.1210  139.0150 C   0  0  2  0  0  0  0  0  0  0  0  0
  189.6660  176.4780  138.6720 N   0  0  0  0  0  0  0  0  0  0  0  0
  188.5830  176.3550  137.7900 C   0  0  0  0  0  0  0  0  0  0  0  0
  190.0780  173.6720  135.8300 N   0  0  0  0  0  1  0  0  0  0  0  0
  192.5320  176.5240  138.4820 S   0  0  0  0  0  0  0  0  0  0  0  0
  190.9350  175.7170  138.9150 C   0  0  2  0  0  0  0  0  0  0  0  0
  189.7450  178.0930  140.8410 O   0  0  0  0  0  0  0  0  0  0  0  0
  190.9660  177.4960  140.4880 C   0  0  1  0  0  3  0  0  0  0  0  0
  189.9200  176.7580  141.2430 C   0  0  1  0  0  3  0  0  0  0  0  0
  190.4380  175.2490  143.1270 C   0  0  0  0  0  1  0  0  0  0  0  0
  190.3120  176.7080  142.7170 C   0  0  2  0  0  3  0  0  0  0  0  0
  189.3120  177.3960  143.6540 C   0  0  2  0  0  3  0  0  0  0  0  0
  189.8020  177.5350  145.0620 C   0  0  0  0  0  0  0  0  0  0  0  0
  190.4420  177.5090  147.8920 O   0  0  0  0  0  0  0  0  0  0  0  0
  191.0350  177.6170  145.2670 O   0  0  0  0  0  0  0  0  0  0  0  0
  188.8750  177.6180  146.1450 N   0  0  0  0  0  2  0  0  0  0  0  0
  189.2300  177.6040  147.5340 C   0  0  0  0  0  0  0  0  0  0  0  0
  188.1650  177.7040  148.5680 C   0  0  0  0  0  1  0  0  0  0  0  0
  188.0000  176.6180  143.6400 C   0  0  0  0  0  2  0  0  0  0  0  0
  186.8120  177.5680  143.5280 C   0  0  0  0  0  2  0  0  0  0  0  0
  186.1810  177.6990  144.8320 N   0  0  0  0  0  2  0  0  0  0  0  0
  184.0720  178.8980  144.8260 C   0  0  0  0  0  2  0  0  0  0  0  0
  185.3510  178.8230  145.1750 C   0  0  0  0  0  3  0  0  0  0  0  0
  187.3920  177.2500  137.8660 C   0  0  0  0  0  2  0  0  0  0  0  0
  186.0960  177.4830  135.8260 C   0  0  0  0  0  0  0  0  0  0  0  0
  187.1290  177.8520  136.5340 C   0  0  0  0  0  3  0  0  0  0  0  0
  185.0720  177.1380  135.0860 C   0  0  0  0  0  3  0  0  0  0  0  0
  184.0710  176.1210  135.5310 C   0  0  1  0  0  3  0  0  0  0  0  0
  184.7020  175.0660  136.3410 C   0  0  0  0  0  0  0  0  0  0  0  0
  185.2390  174.1900  136.9840 C   0  0  0  0  0  3  0  0  0  0  0  0
  181.9510  177.1550  135.7580 O   0  0  0  0  0  0  0  0  0  0  0  0
  182.9840  176.8080  136.3070 C   0  0  0  0  0  0  0  0  0  0  0  0
  183.1390  176.9960  137.7810 C   0  0  0  0  0  2  0  0  0  0  0  0
  181.9160  175.0300  138.3440 O   0  0  0  0  0  0  0  0  0  0  0  0
  182.0690  176.2620  138.5320 C   0  0  0  0  0  0  0  0  0  0  0  0
  181.2020  176.9430  139.4460 N   0  0  0  0  0  2  0  0  0  0  0  0
  181.3940  178.3410  139.8410 C   0  0  1  0  0  3  0  0  0  0  0  0
  180.2060  179.1030  139.7290 O   0  0  0  0  0  0  0  0  0  0  0  0
  180.5080  180.4750  139.8270 C   0  0  0  0  0  2  0  0  0  0  0  0
  181.8030  181.9310  138.4350 O   0  0  0  0  0  1  0  0  0  0  0  0
  180.7000  181.0740  138.4430 C   0  0  0  0  0  2  0  0  0  0  0  0
  182.1140  178.4890  141.1900 C   0  0  0  0  0  2  0  0  0  0  0  0
  183.4880  178.0100  141.1320 N   0  0  0  0  0  2  0  0  0  0  0  0
  185.6600  178.8610  140.5570 C   0  0  0  0  0  2  0  0  0  0  0  0
  184.3600  179.1660  141.2040 C   0  0  1  0  0  3  0  0  0  0  0  0
  184.6600  179.5980  139.9000 O   0  0  0  0  0  0  0  0  0  0  0  0
  2  3  1  0  0  0  0
  2  1  2  0  0  0  0
  3  6  2  0  0  0  0
  4  8  1  6  0  0  0
  4 11  1  0  0  0  0
  5  9  1  0  0  0  0
  5  4  1  0  0  0  0
  6 27  1  0  0  0  0
  6  5  1  0  0  0  0
  7  2  1  0  0  0  0
  8  9  1  0  0  0  0
  9  1  1  1  0  0  0
  9  4  1  0  0  0  0
 10 12  1  0  0  0  0
 11 10  1  6  0  0  0
 11 12  1  0  0  0  0
 12 14  1  1  0  0  0
 14 13  1  1  0  0  0
 14 15  1  0  0  0  0
 15 22  1  1  0  0  0
 15 16  1  0  0  0  0
 16 18  2  0  0  0  0
 16 19  1  0  0  0  0
 19 20  1  0  0  0  0
 20 17  2  0  0  0  0
 20 21  1  0  0  0  0
 23 22  1  0  0  0  0
 23 24  1  0  0  0  0
 24 26  1  0  0  0  0
 25 26  2  0  0  0  0
 28 29  2  0  0  0  0
 29 27  1  0  0  0  0
 30 28  2  0  0  0  0
 31 30  1  1  0  0  0
 31 35  1  0  0  0  0
 31 32  1  0  0  0  0
 32 33  3  0  0  0  0
 34 35  2  0  0  0  0
 35 36  1  0  0  0  0
 36 38  1  0  0  0  0
 37 38  2  0  0  0  0
 38 39  1  0  0  0  0
 39 40  1  0  0  0  0
 40 45  1  1  0  0  0
 41 42  1  0  0  0  0
 41 40  1  0  0  0  0
 43 44  1  0  0  0  0
 44 42  1  0  0  0  0
 46 45  1  0  0  0  0
 47 48  1  0  0  0  0
 48 46  1  6  0  0  0
 49 47  1  0  0  0  0
 49 48  1  0  0  0  0
M  END
>  <MODEL>
4

>  <REMARK>
 VINA RESULT:      -6.0      2.438      7.185
  Name = 
  22 active torsions:
  status: ('A' for Active; 'I' for Inactive)
    1  A    between atoms: C_3  and  C_36
    2  A    between atoms: C_5  and  O_37
    3  A    between atoms: C_5  and  N_39
    4  A    between atoms: C_5  and  C_46
    5  A    between atoms: C_7  and  C_8
    6  A    between atoms: C_7  and  O_37
    7  A    between atoms: C_10  and  C_41
    8  A    between atoms: N_12  and  C_18
    9  A    between atoms: N_12  and  C_20
   10  A    between atoms: C_15  and  C_24
   11  A    between atoms: C_17  and  C_23
   12  A    between atoms: C_18  and  C_44
   13  A    between atoms: C_22  and  C_26
   14  A    between atoms: C_23  and  C_28
   15  A    between atoms: C_23  and  C_43
   16  A    between atoms: C_26  and  C_43
   17  A    between atoms: C_27  and  C_47
   18  A    between atoms: N_29  and  C_42
   19  A    between atoms: N_29  and  C_46
   20  A    between atoms: C_31  and  C_36
   21  A    between atoms: C_41  and  C_44
   22  A    between atoms: C_41  and  C_47
                            x       y       z     vdW  Elec       q    Type
                         _______ _______ _______ _____ _____    ______ ____

>  <TORSDO>
F 22

$$$$
=
 OpenBabel10232410523D

 49 53  0  0  1  0  0  0  0  0999 V2000
  190.1610  177.5080  145.6830 N   0  0  0  0  0  0  0  0  0  0  0  0
  189.0690  177.4630  146.4360 C   0  0  0  0  0  0  0  0  0  0  0  0
  187.7350  177.5630  145.8680 N   0  0  0  0  0  0  0  0  0  0  0  0
  189.8370  176.9840  143.1070 C   0  0  2  0  0  0  0  0  0  0  0  0
  188.8090  177.7030  143.8610 N   0  0  0  0  0  0  0  0  0  0  0  0
  187.6070  177.6710  144.5830 C   0  0  0  0  0  0  0  0  0  0  0  0
  189.2030  177.2430  147.8310 N   0  0  0  0  0  1  0  0  0  0  0  0
  191.2870  176.2520  143.8470 S   0  0  0  0  0  0  0  0  0  0  0  0
  190.2650  177.7370  144.2160 C   0  0  2  0  0  0  0  0  0  0  0  0
  191.2160  177.0490  141.1600 O   0  0  0  0  0  0  0  0  0  0  0  0
  190.2030  177.7440  141.8420 C   0  0  1  0  0  3  0  0  0  0  0  0
  189.9180  176.9260  140.6330 C   0  0  1  0  0  3  0  0  0  0  0  0
  188.3240  178.3610  139.4110 C   0  0  0  0  0  1  0  0  0  0  0  0
  189.7570  177.8550  139.4330 C   0  0  2  0  0  3  0  0  0  0  0  0
  190.0640  177.1930  138.0840 C   0  0  2  0  0  3  0  0  0  0  0  0
  188.8440  176.7440  137.3410 C   0  0  0  0  0  0  0  0  0  0  0  0
  186.6940  176.0050  135.5380 O   0  0  0  0  0  0  0  0  0  0  0  0
  188.2820  175.6810  137.6890 O   0  0  0  0  0  0  0  0  0  0  0  0
  188.3090  177.5400  136.2830 N   0  0  0  0  0  2  0  0  0  0  0  0
  187.2420  177.1400  135.4120 C   0  0  0  0  0  0  0  0  0  0  0  0
  186.7700  178.0690  134.3490 C   0  0  0  0  0  1  0  0  0  0  0  0
  190.9950  176.0070  138.3120 C   0  0  0  0  0  2  0  0  0  0  0  0
  192.3510  176.2530  137.6560 C   0  0  0  0  0  2  0  0  0  0  0  0
  192.9370  174.9770  137.2790 N   0  0  0  0  0  2  0  0  0  0  0  0
  195.0320  173.7550  137.2180 C   0  0  0  0  0  2  0  0  0  0  0  0
  194.3260  174.8430  136.9300 C   0  0  0  0  0  3  0  0  0  0  0  0
  186.2760  177.7380  143.9130 C   0  0  0  0  0  2  0  0  0  0  0  0
  185.3700  178.7260  141.8870 C   0  0  0  0  0  0  0  0  0  0  0  0
  186.3400  178.6740  142.7600 C   0  0  0  0  0  3  0  0  0  0  0  0
  184.4190  178.8070  140.9910 C   0  0  0  0  0  3  0  0  0  0  0  0
  183.1790  177.9760  141.0650 C   0  0  1  0  0  3  0  0  0  0  0  0
  182.1770  178.5850  141.9550 C   0  0  0  0  0  0  0  0  0  0  0  0
  181.3430  179.0570  142.6960 C   0  0  0  0  0  3  0  0  0  0  0  0
  181.8940  178.6470  139.1900 O   0  0  0  0  0  0  0  0  0  0  0  0
  182.6230  177.7990  139.6810 C   0  0  0  0  0  0  0  0  0  0  0  0
  183.0300  176.6130  138.8700 C   0  0  0  0  0  2  0  0  0  0  0  0
  185.0400  177.5310  137.9780 O   0  0  0  0  0  0  0  0  0  0  0  0
  183.9190  177.0180  137.7340 C   0  0  0  0  0  0  0  0  0  0  0  0
  183.5080  176.8510  136.3720 N   0  0  0  0  0  2  0  0  0  0  0  0
  182.2910  176.1340  135.9850 C   0  0  1  0  0  3  0  0  0  0  0  0
  181.1910  177.0030  135.7860 O   0  0  0  0  0  0  0  0  0  0  0  0
  181.6250  178.1880  135.1620 C   0  0  0  0  0  2  0  0  0  0  0  0
  180.9400  180.4190  135.7020 O   0  0  0  0  0  1  0  0  0  0  0  0
  180.5060  179.2170  135.1400 C   0  0  0  0  0  2  0  0  0  0  0  0
  182.5210  175.1360  134.8400 C   0  0  0  0  0  2  0  0  0  0  0  0
  182.0290  173.8050  135.1670 N   0  0  0  0  0  2  0  0  0  0  0  0
  181.6780  172.2960  137.0030 C   0  0  0  0  0  2  0  0  0  0  0  0
  182.0040  173.6890  136.6120 C   0  0  1  0  0  3  0  0  0  0  0  0
  182.9960  172.7800  137.0180 O   0  0  0  0  0  0  0  0  0  0  0  0
  1  2  2  0  0  0  0
  2  7  1  0  0  0  0
  3  2  1  0  0  0  0
  4  8  1  1  0  0  0
  4  5  1  0  0  0  0
  4  9  1  0  0  0  0
  5  9  1  0  0  0  0
  5  6  1  0  0  0  0
  6  3  2  0  0  0  0
  9  8  1  1  0  0  0
  9  1  1  0  0  0  0
 11 10  1  1  0  0  0
 11  4  1  0  0  0  0
 12 14  1  6  0  0  0
 12 10  1  0  0  0  0
 12 11  1  0  0  0  0
 14 13  1  6  0  0  0
 15 22  1  1  0  0  0
 15 14  1  0  0  0  0
 16 18  2  0  0  0  0
 16 15  1  0  0  0  0
 19 16  1  0  0  0  0
 20 17  2  0  0  0  0
 20 19  1  0  0  0  0
 21 20  1  0  0  0  0
 23 22  1  0  0  0  0
 24 23  1  0  0  0  0
 26 25  2  0  0  0  0
 26 24  1  0  0  0  0
 27  6  1  0  0  0  0
 28 29  2  0  0  0  0
 29 27  1  0  0  0  0
 30 28  2  0  0  0  0
 31 30  1  6  0  0  0
 31 32  1  0  0  0  0
 32 33  3  0  0  0  0
 34 35  2  0  0  0  0
 35 31  1  0  0  0  0
 36 35  1  0  0  0  0
 38 37  2  0  0  0  0
 38 36  1  0  0  0  0
 39 38  1  0  0  0  0
 40 45  1  6  0  0  0
 40 39  1  0  0  0  0
 41 40  1  0  0  0  0
 42 41  1  0  0  0  0
 44 42  1  0  0  0  0
 44 43  1  0  0  0  0
 45 46  1  0  0  0  0
 47 49  1  0  0  0  0
 48 46  1  6  0  0  0
 48 47  1  0  0  0  0
 48 49  1  0  0  0  0
M  END
>  <MODEL>
5

>  <REMARK>
 VINA RESULT:      -5.9      2.002      3.409
  Name = 
  22 active torsions:
  status: ('A' for Active; 'I' for Inactive)
    1  A    between atoms: C_3  and  C_36
    2  A    between atoms: C_5  and  O_37
    3  A    between atoms: C_5  and  N_39
    4  A    between atoms: C_5  and  C_46
    5  A    between atoms: C_7  and  C_8
    6  A    between atoms: C_7  and  O_37
    7  A    between atoms: C_10  and  C_41
    8  A    between atoms: N_12  and  C_18
    9  A    between atoms: N_12  and  C_20
   10  A    between atoms: C_15  and  C_24
   11  A    between atoms: C_17  and  C_23
   12  A    between atoms: C_18  and  C_44
   13  A    between atoms: C_22  and  C_26
   14  A    between atoms: C_23  and  C_28
   15  A    between atoms: C_23  and  C_43
   16  A    between atoms: C_26  and  C_43
   17  A    between atoms: C_27  and  C_47
   18  A    between atoms: N_29  and  C_42
   19  A    between atoms: N_29  and  C_46
   20  A    between atoms: C_31  and  C_36
   21  A    between atoms: C_41  and  C_44
   22  A    between atoms: C_41  and  C_47
                            x       y       z     vdW  Elec       q    Type
                         _______ _______ _______ _____ _____    ______ ____

>  <TORSDO>
F 22

$$$$
=
 OpenBabel10232410523D

 49 53  0  0  1  0  0  0  0  0999 V2000
  190.0180  177.7910  145.9510 N   0  0  0  0  0  0  0  0  0  0  0  0
  188.8570  177.7060  146.5890 C   0  0  0  0  0  0  0  0  0  0  0  0
  187.5910  177.6170  145.8800 N   0  0  0  0  0  0  0  0  0  0  0  0
  190.0320  177.0000  143.4230 C   0  0  2  0  0  0  0  0  0  0  0  0
  188.8650  177.6790  143.9900 N   0  0  0  0  0  0  0  0  0  0  0  0
  187.5980  177.5930  144.5850 C   0  0  0  0  0  0  0  0  0  0  0  0
  188.8540  177.6300  148.0060 N   0  0  0  0  0  1  0  0  0  0  0  0
  191.4500  176.4900  144.3790 S   0  0  0  0  0  0  0  0  0  0  0  0
  190.2630  177.8920  144.4870 C   0  0  2  0  0  0  0  0  0  0  0  0
  191.6970  177.1340  141.7180 O   0  0  0  0  0  0  0  0  0  0  0  0
  190.4670  177.6720  142.1310 C   0  0  1  0  0  3  0  0  0  0  0  0
  190.5600  176.6830  141.0250 C   0  0  1  0  0  3  0  0  0  0  0  0
  189.0220  177.9430  139.5610 C   0  0  0  0  0  1  0  0  0  0  0  0
  190.4420  177.4160  139.6920 C   0  0  2  0  0  3  0  0  0  0  0  0
  190.7560  176.5450  138.4690 C   0  0  2  0  0  3  0  0  0  0  0  0
  192.2090  176.2240  138.3130 C   0  0  0  0  0  0  0  0  0  0  0  0
  194.9060  175.3890  137.6420 O   0  0  0  0  0  0  0  0  0  0  0  0
  193.0550  177.1100  138.5720 O   0  0  0  0  0  0  0  0  0  0  0  0
  192.6220  174.9150  137.9170 N   0  0  0  0  0  2  0  0  0  0  0  0
  193.9680  174.5390  137.5950 C   0  0  0  0  0  0  0  0  0  0  0  0
  194.2670  173.1360  137.2020 C   0  0  0  0  0  1  0  0  0  0  0  0
  190.2450  177.2470  137.2150 C   0  0  0  0  0  2  0  0  0  0  0  0
  190.4290  176.3590  135.9880 C   0  0  0  0  0  2  0  0  0  0  0  0
  189.1250  175.9250  135.5120 N   0  0  0  0  0  2  0  0  0  0  0  0
  187.8530  173.9300  134.9740 C   0  0  0  0  0  2  0  0  0  0  0  0
  188.5800  174.6340  135.8350 C   0  0  0  0  0  3  0  0  0  0  0  0
  186.3500  177.4630  143.7790 C   0  0  0  0  0  2  0  0  0  0  0  0
  185.4220  178.4370  141.7560 C   0  0  0  0  0  0  0  0  0  0  0  0
  186.4110  178.3750  142.6070 C   0  0  0  0  0  3  0  0  0  0  0  0
  184.4530  178.5250  140.8810 C   0  0  0  0  0  3  0  0  0  0  0  0
  183.1940  177.7290  141.0000 C   0  0  1  0  0  3  0  0  0  0  0  0
  182.0490  178.5840  141.3540 C   0  0  0  0  0  0  0  0  0  0  0  0
  181.1170  179.2890  141.6750 C   0  0  0  0  0  3  0  0  0  0  0  0
  182.5640  175.8510  139.6970 O   0  0  0  0  0  0  0  0  0  0  0  0
  182.9400  177.0130  139.7040 C   0  0  0  0  0  0  0  0  0  0  0  0
  183.0730  177.7550  138.4150 C   0  0  0  0  0  2  0  0  0  0  0  0
  180.7740  178.2550  138.0360 O   0  0  0  0  0  0  0  0  0  0  0  0
  181.8070  177.6770  137.6160 C   0  0  0  0  0  0  0  0  0  0  0  0
  181.7450  176.9370  136.3910 N   0  0  0  0  0  2  0  0  0  0  0  0
  182.9250  176.3550  135.7480 C   0  0  1  0  0  3  0  0  0  0  0  0
  183.9020  177.3270  135.4270 O   0  0  0  0  0  0  0  0  0  0  0  0
  185.1780  176.7310  135.4030 C   0  0  0  0  0  2  0  0  0  0  0  0
  186.3870  177.1710  137.4240 O   0  0  0  0  0  1  0  0  0  0  0  0
  186.1890  177.6150  136.1150 C   0  0  0  0  0  2  0  0  0  0  0  0
  183.4740  175.1310  136.4990 C   0  0  0  0  0  2  0  0  0  0  0  0
  182.7270  173.9200  136.1920 N   0  0  0  0  0  2  0  0  0  0  0  0
  183.8900  171.8630  135.7550 C   0  0  0  0  0  2  0  0  0  0  0  0
  183.4270  172.8060  136.8020 C   0  0  1  0  0  3  0  0  0  0  0  0
  184.7580  172.7940  136.3480 O   0  0  0  0  0  0  0  0  0  0  0  0
  1  2  2  0  0  0  0
  2  7  1  0  0  0  0
  3  2  1  0  0  0  0
  4  5  1  0  0  0  0
  4  8  1  1  0  0  0
  4  9  1  0  0  0  0
  5  9  1  0  0  0  0
  5  6  1  0  0  0  0
  6  3  2  0  0  0  0
  9  8  1  1  0  0  0
  9  1  1  0  0  0  0
 11 10  1  1  0  0  0
 11  4  1  0  0  0  0
 12 14  1  6  0  0  0
 12 10  1  0  0  0  0
 12 11  1  0  0  0  0
 14 13  1  6  0  0  0
 15 22  1  6  0  0  0
 15 14  1  0  0  0  0
 16 15  1  0  0  0  0
 16 18  2  0  0  0  0
 19 16  1  0  0  0  0
 20 17  2  0  0  0  0
 20 19  1  0  0  0  0
 21 20  1  0  0  0  0
 23 22  1  0  0  0  0
 24 26  1  0  0  0  0
 24 23  1  0  0  0  0
 25 26  2  0  0  0  0
 27  6  1  0  0  0  0
 28 29  2  0  0  0  0
 29 27  1  0  0  0  0
 30 28  2  0  0  0  0
 31 30  1  6  0  0  0
 31 32  1  0  0  0  0
 32 33  3  0  0  0  0
 34 35  2  0  0  0  0
 35 31  1  0  0  0  0
 36 35  1  0  0  0  0
 38 37  2  0  0  0  0
 38 36  1  0  0  0  0
 39 38  1  0  0  0  0
 40 39  1  0  0  0  0
 40 45  1  1  0  0  0
 41 40  1  0  0  0  0
 42 41  1  0  0  0  0
 42 44  1  0  0  0  0
 44 43  1  0  0  0  0
 46 45  1  0  0  0  0
 47 49  1  0  0  0  0
 47 48  1  0  0  0  0
 48 46  1  6  0  0  0
 49 48  1  0  0  0  0
M  END
>  <MODEL>
6

>  <REMARK>
 VINA RESULT:      -5.9      1.881      2.906
  Name = 
  22 active torsions:
  status: ('A' for Active; 'I' for Inactive)
    1  A    between atoms: C_3  and  C_36
    2  A    between atoms: C_5  and  O_37
    3  A    between atoms: C_5  and  N_39
    4  A    between atoms: C_5  and  C_46
    5  A    between atoms: C_7  and  C_8
    6  A    between atoms: C_7  and  O_37
    7  A    between atoms: C_10  and  C_41
    8  A    between atoms: N_12  and  C_18
    9  A    between atoms: N_12  and  C_20
   10  A    between atoms: C_15  and  C_24
   11  A    between atoms: C_17  and  C_23
   12  A    between atoms: C_18  and  C_44
   13  A    between atoms: C_22  and  C_26
   14  A    between atoms: C_23  and  C_28
   15  A    between atoms: C_23  and  C_43
   16  A    between atoms: C_26  and  C_43
   17  A    between atoms: C_27  and  C_47
   18  A    between atoms: N_29  and  C_42
   19  A    between atoms: N_29  and  C_46
   20  A    between atoms: C_31  and  C_36
   21  A    between atoms: C_41  and  C_44
   22  A    between atoms: C_41  and  C_47
                            x       y       z     vdW  Elec       q    Type
                         _______ _______ _______ _____ _____    ______ ____

>  <TORSDO>
F 22

$$$$
=
 OpenBabel10232410523D

 49 53  0  0  1  0  0  0  0  0999 V2000
  190.8860  177.4540  145.2180 N   0  0  0  0  0  0  0  0  0  0  0  0
  189.9880  177.3520  146.1910 C   0  0  0  0  0  0  0  0  0  0  0  0
  188.5590  177.4020  145.9310 N   0  0  0  0  0  0  0  0  0  0  0  0
  190.0260  176.9520  142.7640 C   0  0  2  0  0  0  0  0  0  0  0  0
  189.1600  177.6160  143.7410 N   0  0  0  0  0  0  0  0  0  0  0  0
  188.1480  177.5230  144.7080 C   0  0  0  0  0  0  0  0  0  0  0  0
  190.4340  177.1180  147.5170 N   0  0  0  0  0  1  0  0  0  0  0  0
  191.6300  176.2740  143.1530 S   0  0  0  0  0  0  0  0  0  0  0  0
  190.6570  177.7080  143.7700 C   0  0  2  0  0  0  0  0  0  0  0  0
  191.3440  177.5980  140.8820 O   0  0  0  0  0  0  0  0  0  0  0  0
  190.0760  177.7450  141.4680 C   0  0  1  0  0  3  0  0  0  0  0  0
  190.3060  176.8450  140.3070 C   0  0  1  0  0  3  0  0  0  0  0  0
  188.3160  177.2810  138.9130 C   0  0  0  0  0  1  0  0  0  0  0  0
  189.8100  177.5330  139.0390 C   0  0  2  0  0  3  0  0  0  0  0  0
  190.4970  177.0520  137.7550 C   0  0  2  0  0  3  0  0  0  0  0  0
  189.6140  176.2300  136.8690 C   0  0  0  0  0  0  0  0  0  0  0  0
  187.7130  174.4970  135.5260 O   0  0  0  0  0  0  0  0  0  0  0  0
  189.1810  176.7370  135.8090 O   0  0  0  0  0  0  0  0  0  0  0  0
  189.3070  174.8770  137.2090 N   0  0  0  0  0  2  0  0  0  0  0  0
  188.3610  174.0500  136.5190 C   0  0  0  0  0  0  0  0  0  0  0  0
  188.1390  172.6500  136.9700 C   0  0  0  0  0  1  0  0  0  0  0  0
  191.7420  176.2540  138.1260 C   0  0  0  0  0  2  0  0  0  0  0  0
  192.7030  176.1730  136.9430 C   0  0  0  0  0  2  0  0  0  0  0  0
  193.4120  174.9050  136.9890 N   0  0  0  0  0  0  0  0  0  0  0  0
  195.0390  173.4570  138.0590 C   0  0  0  0  0  1  0  0  0  0  0  0
  194.4790  174.6540  137.9200 C   0  0  0  0  0  3  0  0  0  0  0  0
  186.7020  177.5420  144.3460 C   0  0  0  0  0  2  0  0  0  0  0  0
  184.7040  178.7340  145.0440 C   0  0  0  0  0  0  0  0  0  0  0  0
  185.9770  178.5010  145.2190 C   0  0  0  0  0  3  0  0  0  0  0  0
  183.4290  178.9950  144.8990 C   0  0  0  0  0  3  0  0  0  0  0  0
  182.5920  178.3320  143.8540 C   0  0  1  0  0  3  0  0  0  0  0  0
  181.1570  178.5690  144.0860 C   0  0  0  0  0  0  0  0  0  0  0  0
  179.9820  178.7950  144.2780 C   0  0  0  0  0  3  0  0  0  0  0  0
  182.5630  179.8960  142.0730 O   0  0  0  0  0  0  0  0  0  0  0  0
  183.0020  178.8400  142.5010 C   0  0  0  0  0  0  0  0  0  0  0  0
  184.0160  178.0830  141.7070 C   0  0  0  0  0  2  0  0  0  0  0  0
  185.8360  179.5760  141.3340 O   0  0  0  0  0  0  0  0  0  0  0  0
  184.8260  179.0080  140.8490 C   0  0  0  0  0  0  0  0  0  0  0  0
  184.4590  179.2740  139.4900 N   0  0  0  0  0  2  0  0  0  0  0  0
  183.3920  178.5530  138.7940 C   0  0  1  0  0  3  0  0  0  0  0  0
  182.2700  179.3740  138.5240 O   0  0  0  0  0  0  0  0  0  0  0  0
  182.5820  180.7170  138.8140 C   0  0  0  0  0  2  0  0  0  0  0  0
  181.1980  181.9730  137.3160 O   0  0  0  0  0  1  0  0  0  0  0  0
  181.3500  181.5930  138.6510 C   0  0  0  0  0  2  0  0  0  0  0  0
  183.8980  177.7570  137.5800 C   0  0  0  0  0  2  0  0  0  0  0  0
  184.2430  176.3870  137.9300 N   0  0  0  0  0  2  0  0  0  0  0  0
  181.9250  175.7590  138.0100 C   0  0  0  0  0  2  0  0  0  0  0  0
  183.2330  175.5190  137.3530 C   0  0  1  0  0  3  0  0  0  0  0  0
  182.2350  176.3090  136.7560 O   0  0  0  0  0  0  0  0  0  0  0  0
  1  2  2  0  0  0  0
  2  7  1  0  0  0  0
  3  2  1  0  0  0  0
  4  8  1  6  0  0  0
  4  5  1  0  0  0  0
  4  9  1  0  0  0  0
  5  9  1  0  0  0  0
  5  6  1  0  0  0  0
  6  3  2  0  0  0  0
  9  8  1  1  0  0  0
  9  1  1  0  0  0  0
 11 10  1  1  0  0  0
 11  4  1  0  0  0  0
 12 14  1  6  0  0  0
 12 10  1  0  0  0  0
 12 11  1  0  0  0  0
 14 13  1  6  0  0  0
 15 22  1  1  0  0  0
 15 14  1  0  0  0  0
 16 19  1  0  0  0  0
 16 15  1  0  0  0  0
 17 20  2  0  0  0  0
 18 16  2  0  0  0  0
 20 21  1  0  0  0  0
 20 19  1  0  0  0  0
 23 24  1  0  0  0  0
 23 22  1  0  0  0  0
 24 26  2  0  0  0  0
 26 25  1  0  0  0  0
 27  6  1  0  0  0  0
 27 29  1  0  0  0  0
 28 29  2  0  0  0  0
 30 28  2  0  0  0  0
 31 32  1  1  0  0  0
 31 30  1  0  0  0  0
 32 33  3  0  0  0  0
 34 35  2  0  0  0  0
 35 31  1  0  0  0  0
 36 35  1  0  0  0  0
 38 37  2  0  0  0  0
 38 36  1  0  0  0  0
 39 38  1  0  0  0  0
 40 45  1  6  0  0  0
 40 39  1  0  0  0  0
 41 40  1  0  0  0  0
 41 42  1  0  0  0  0
 43 44  1  0  0  0  0
 44 42  1  0  0  0  0
 45 46  1  0  0  0  0
 48 46  1  1  0  0  0
 48 47  1  0  0  0  0
 49 48  1  0  0  0  0
 49 47  1  0  0  0  0
M  END
>  <MODEL>
7

>  <REMARK>
 VINA RESULT:      -5.9      2.185      3.778
  Name = 
  22 active torsions:
  status: ('A' for Active; 'I' for Inactive)
    1  A    between atoms: C_3  and  C_36
    2  A    between atoms: C_5  and  O_37
    3  A    between atoms: C_5  and  N_39
    4  A    between atoms: C_5  and  C_46
    5  A    between atoms: C_7  and  C_8
    6  A    between atoms: C_7  and  O_37
    7  A    between atoms: C_10  and  C_41
    8  A    between atoms: N_12  and  C_18
    9  A    between atoms: N_12  and  C_20
   10  A    between atoms: C_15  and  C_24
   11  A    between atoms: C_17  and  C_23
   12  A    between atoms: C_18  and  C_44
   13  A    between atoms: C_22  and  C_26
   14  A    between atoms: C_23  and  C_28
   15  A    between atoms: C_23  and  C_43
   16  A    between atoms: C_26  and  C_43
   17  A    between atoms: C_27  and  C_47
   18  A    between atoms: N_29  and  C_42
   19  A    between atoms: N_29  and  C_46
   20  A    between atoms: C_31  and  C_36
   21  A    between atoms: C_41  and  C_44
   22  A    between atoms: C_41  and  C_47
                            x       y       z     vdW  Elec       q    Type
                         _______ _______ _______ _____ _____    ______ ____

>  <TORSDO>
F 22

$$$$
=
 OpenBabel10232410523D

 49 53  0  0  1  0  0  0  0  0999 V2000
  191.3680  176.5290  137.0880 N   0  0  0  0  0  0  0  0  0  0  0  0
  192.0730  176.6400  138.2070 C   0  0  0  0  0  0  0  0  0  0  0  0
  191.4530  176.9650  139.4810 N   0  0  0  0  0  0  0  0  0  0  0  0
  188.7650  176.1250  137.3710 C   0  0  2  0  0  0  0  0  0  0  0  0
  189.4980  176.9810  138.3070 N   0  0  0  0  0  0  0  0  0  0  0  0
  190.1680  177.1230  139.5310 C   0  0  0  0  0  0  0  0  0  0  0  0
  193.4650  176.3670  138.1730 N   0  0  0  0  0  1  0  0  0  0  0  0
  189.5430  175.1540  136.0910 S   0  0  0  0  0  0  0  0  0  0  0  0
  189.9140  176.7740  136.8820 C   0  0  2  0  0  0  0  0  0  0  0  0
  186.8170  175.9770  136.0010 O   0  0  0  0  0  0  0  0  0  0  0  0
  187.5410  176.8470  136.8320 C   0  0  1  0  0  3  0  0  0  0  0  0
  186.2920  176.1840  137.2890 C   0  0  1  0  0  3  0  0  0  0  0  0
  185.3700  178.2400  138.2980 C   0  0  0  0  0  1  0  0  0  0  0  0
  185.1440  177.1880  137.2240 C   0  0  2  0  0  3  0  0  0  0  0  0
  183.7570  176.5670  137.4300 C   0  0  2  0  0  3  0  0  0  0  0  0
  183.4830  175.3930  136.5450 C   0  0  0  0  0  0  0  0  0  0  0  0
  182.7520  172.9390  135.1790 O   0  0  0  0  0  0  0  0  0  0  0  0
  183.1440  175.5970  135.3560 O   0  0  0  0  0  0  0  0  0  0  0  0
  183.6500  174.0620  137.0370 N   0  0  0  0  0  2  0  0  0  0  0  0
  183.2770  172.8710  136.3300 C   0  0  0  0  0  0  0  0  0  0  0  0
  183.5110  171.5410  136.9540 C   0  0  0  0  0  1  0  0  0  0  0  0
  182.6950  177.6390  137.2080 C   0  0  0  0  0  2  0  0  0  0  0  0
  181.7630  177.7310  138.4130 C   0  0  0  0  0  2  0  0  0  0  0  0
  180.9420  178.9250  138.2920 N   0  0  0  0  0  2  0  0  0  0  0  0
  182.1130  180.9960  138.7680 C   0  0  0  0  0  2  0  0  0  0  0  0
  181.4900  180.1990  137.9080 C   0  0  0  0  0  3  0  0  0  0  0  0
  189.4450  177.4170  140.8020 C   0  0  0  0  0  2  0  0  0  0  0  0
  187.4120  178.6560  141.2810 C   0  0  0  0  0  0  0  0  0  0  0  0
  188.5230  178.5650  140.6020 C   0  0  0  0  0  3  0  0  0  0  0  0
  186.2880  178.7800  141.9410 C   0  0  0  0  0  3  0  0  0  0  0  0
  185.8500  177.7860  142.9670 C   0  0  1  0  0  3  0  0  0  0  0  0
  186.9490  176.8810  143.3420 C   0  0  0  0  0  0  0  0  0  0  0  0
  187.8660  176.1590  143.6690 C   0  0  0  0  0  3  0  0  0  0  0  0
  184.1330  178.5790  144.3970 O   0  0  0  0  0  0  0  0  0  0  0  0
  185.3320  178.5190  144.1720 C   0  0  0  0  0  0  0  0  0  0  0  0
  186.2980  179.1110  145.1450 C   0  0  0  0  0  2  0  0  0  0  0  0
  184.9250  178.7150  147.0520 O   0  0  0  0  0  0  0  0  0  0  0  0
  186.0590  178.5840  146.5280 C   0  0  0  0  0  0  0  0  0  0  0  0
  187.1050  177.9510  147.2740 N   0  0  0  0  0  2  0  0  0  0  0  0
  188.4120  177.6230  146.7000 C   0  0  1  0  0  3  0  0  0  0  0  0
  188.8090  178.5410  145.6980 O   0  0  0  0  0  0  0  0  0  0  0  0
  190.0240  178.1230  145.1220 C   0  0  0  0  0  2  0  0  0  0  0  0
  191.8860  179.2290  144.1000 O   0  0  0  0  0  1  0  0  0  0  0  0
  190.4940  179.1300  144.0840 C   0  0  0  0  0  2  0  0  0  0  0  0
  189.4840  177.3500  147.7660 C   0  0  0  0  0  2  0  0  0  0  0  0
  190.2560  176.1510  147.4710 N   0  0  0  0  0  2  0  0  0  0  0  0
  192.5000  175.4360  147.9480 C   0  0  0  0  0  2  0  0  0  0  0  0
  191.6540  176.5310  147.4130 C   0  0  1  0  0  3  0  0  0  0  0  0
  192.3380  175.6410  146.5680 O   0  0  0  0  0  0  0  0  0  0  0  0
  1  2  2  0  0  0  0
  2  3  1  0  0  0  0
  3  6  2  0  0  0  0
  4  8  1  1  0  0  0
  4  5  1  0  0  0  0
  5  6  1  0  0  0  0
  6 27  1  0  0  0  0
  7  2  1  0  0  0  0
  9  8  1  1  0  0  0
  9  1  1  0  0  0  0
  9  4  1  0  0  0  0
  9  5  1  0  0  0  0
 10 12  1  0  0  0  0
 11 10  1  6  0  0  0
 11 12  1  0  0  0  0
 11  4  1  0  0  0  0
 12 14  1  6  0  0  0
 14 15  1  0  0  0  0
 14 13  1  1  0  0  0
 15 22  1  6  0  0  0
 16 19  1  0  0  0  0
 16 15  1  0  0  0  0
 17 20  2  0  0  0  0
 18 16  2  0  0  0  0
 20 21  1  0  0  0  0
 20 19  1  0  0  0  0
 22 23  1  0  0  0  0
 24 23  1  0  0  0  0
 26 24  1  0  0  0  0
 26 25  2  0  0  0  0
 28 30  2  0  0  0  0
 29 27  1  0  0  0  0
 29 28  2  0  0  0  0
 31 30  1  6  0  0  0
 31 32  1  0  0  0  0
 31 35  1  0  0  0  0
 32 33  3  0  0  0  0
 35 34  2  0  0  0  0
 35 36  1  0  0  0  0
 36 38  1  0  0  0  0
 38 37  2  0  0  0  0
 38 39  1  0  0  0  0
 40 39  1  0  0  0  0
 40 45  1  1  0  0  0
 41 40  1  0  0  0  0
 42 41  1  0  0  0  0
 44 43  1  0  0  0  0
 44 42  1  0  0  0  0
 46 45  1  0  0  0  0
 48 46  1  1  0  0  0
 48 47  1  0  0  0  0
 49 48  1  0  0  0  0
 49 47  1  0  0  0  0
M  END
>  <MODEL>
8

>  <REMARK>
 VINA RESULT:      -5.8      2.847      9.023
  Name = 
  22 active torsions:
  status: ('A' for Active; 'I' for Inactive)
    1  A    between atoms: C_3  and  C_36
    2  A    between atoms: C_5  and  O_37
    3  A    between atoms: C_5  and  N_39
    4  A    between atoms: C_5  and  C_46
    5  A    between atoms: C_7  and  C_8
    6  A    between atoms: C_7  and  O_37
    7  A    between atoms: C_10  and  C_41
    8  A    between atoms: N_12  and  C_18
    9  A    between atoms: N_12  and  C_20
   10  A    between atoms: C_15  and  C_24
   11  A    between atoms: C_17  and  C_23
   12  A    between atoms: C_18  and  C_44
   13  A    between atoms: C_22  and  C_26
   14  A    between atoms: C_23  and  C_28
   15  A    between atoms: C_23  and  C_43
   16  A    between atoms: C_26  and  C_43
   17  A    between atoms: C_27  and  C_47
   18  A    between atoms: N_29  and  C_42
   19  A    between atoms: N_29  and  C_46
   20  A    between atoms: C_31  and  C_36
   21  A    between atoms: C_41  and  C_44
   22  A    between atoms: C_41  and  C_47
                            x       y       z     vdW  Elec       q    Type
                         _______ _______ _______ _____ _____    ______ ____

>  <TORSDO>
F 22

$$$$
=
 OpenBabel10232410523D

 49 53  0  0  1  0  0  0  0  0999 V2000
  192.1120  174.4150  136.2510 N   0  0  0  0  0  0  0  0  0  0  0  0
  192.8040  174.7950  137.3170 C   0  0  0  0  0  0  0  0  0  0  0  0
  192.2070  175.5760  138.3880 N   0  0  0  0  0  0  0  0  0  0  0  0
  189.4740  174.4200  136.4970 C   0  0  2  0  0  0  0  0  0  0  0  0
  190.2910  175.4400  137.1580 N   0  0  0  0  0  0  0  0  0  0  0  0
  190.9520  175.8870  138.3120 C   0  0  0  0  0  0  0  0  0  0  0  0
  194.1510  174.3710  137.4500 N   0  0  0  0  0  1  0  0  0  0  0  0
  190.1470  173.0120  135.6320 S   0  0  0  0  0  0  0  0  0  0  0  0
  190.7050  174.7450  135.8950 C   0  0  2  0  0  0  0  0  0  0  0  0
  187.2240  174.2430  135.7210 O   0  0  0  0  0  0  0  0  0  0  0  0
  188.3610  175.0670  135.6900 C   0  0  1  0  0  3  0  0  0  0  0  0
  187.1910  175.3750  136.5540 C   0  0  1  0  0  3  0  0  0  0  0  0
  187.1730  177.7620  135.9260 C   0  0  0  0  0  1  0  0  0  0  0  0
  186.3630  176.4760  135.8970 C   0  0  2  0  0  3  0  0  0  0  0  0
  185.0120  176.7330  136.5750 C   0  0  2  0  0  3  0  0  0  0  0  0
  185.0780  177.7210  137.6970 C   0  0  0  0  0  0  0  0  0  0  0  0
  184.7890  179.5190  139.9560 O   0  0  0  0  0  0  0  0  0  0  0  0
  186.1230  177.7860  138.3850 O   0  0  0  0  0  0  0  0  0  0  0  0
  183.9840  178.6040  137.9480 N   0  0  0  0  0  2  0  0  0  0  0  0
  183.8770  179.4810  139.0780 C   0  0  0  0  0  0  0  0  0  0  0  0
  182.6840  180.3590  139.2190 C   0  0  0  0  0  1  0  0  0  0  0  0
  184.4520  175.4090  137.0850 C   0  0  0  0  0  2  0  0  0  0  0  0
  183.6530  175.6220  138.3680 C   0  0  0  0  0  2  0  0  0  0  0  0
  182.2500  175.3380  138.1100 N   0  0  0  0  0  2  0  0  0  0  0  0
  181.2380  176.7730  139.7830 C   0  0  0  0  0  2  0  0  0  0  0  0
  181.1930  176.1840  138.5930 C   0  0  0  0  0  3  0  0  0  0  0  0
  190.2480  176.6490  139.3840 C   0  0  0  0  0  2  0  0  0  0  0  0
  191.3860  177.4330  141.3810 C   0  0  0  0  0  0  0  0  0  0  0  0
  191.2130  177.5310  140.0910 C   0  0  0  0  0  3  0  0  0  0  0  0
  191.5860  177.3660  142.6740 C   0  0  0  0  0  3  0  0  0  0  0  0
  190.8720  176.3810  143.5420 C   0  0  1  0  0  3  0  0  0  0  0  0
  191.2640  176.5280  144.9540 C   0  0  0  0  0  0  0  0  0  0  0  0
  191.6110  176.6270  146.1110 C   0  0  0  0  0  3  0  0  0  0  0  0
  188.6490  175.6020  143.2790 O   0  0  0  0  0  0  0  0  0  0  0  0
  189.3900  176.5670  143.3820 C   0  0  0  0  0  0  0  0  0  0  0  0
  188.8120  177.9430  143.4280 C   0  0  0  0  0  2  0  0  0  0  0  0
  187.6360  177.7920  141.3610 O   0  0  0  0  0  0  0  0  0  0  0  0
  187.5710  178.0340  142.5920 C   0  0  0  0  0  0  0  0  0  0  0  0
  186.3140  178.4110  143.1650 N   0  0  0  0  0  2  0  0  0  0  0  0
  186.1060  178.5690  144.6060 C   0  0  1  0  0  3  0  0  0  0  0  0
  184.8620  179.1710  144.9110 O   0  0  0  0  0  0  0  0  0  0  0  0
  184.0820  179.2730  143.7430 C   0  0  0  0  0  2  0  0  0  0  0  0
  181.8330  179.1770  142.9260 O   0  0  0  0  0  1  0  0  0  0  0  0
  182.6330  178.9250  144.0420 C   0  0  0  0  0  2  0  0  0  0  0  0
  186.3960  177.2840  145.3980 C   0  0  0  0  0  2  0  0  0  0  0  0
  186.6700  177.5560  146.8020 N   0  0  0  0  0  2  0  0  0  0  0  0
  188.4400  178.0270  148.3570 C   0  0  0  0  0  2  0  0  0  0  0  0
  188.1040  177.7230  146.9450 C   0  0  1  0  0  3  0  0  0  0  0  0
  188.5960  176.7390  147.8200 O   0  0  0  0  0  0  0  0  0  0  0  0
  1  2  2  0  0  0  0
  2  7  1  0  0  0  0
  2  3  1  0  0  0  0
  4  8  1  1  0  0  0
  4  5  1  0  0  0  0
  5  6  1  0  0  0  0
  6  3  2  0  0  0  0
  6 27  1  0  0  0  0
  9  8  1  1  0  0  0
  9  1  1  0  0  0  0
  9  4  1  0  0  0  0
  9  5  1  0  0  0  0
 10 12  1  0  0  0  0
 11 10  1  6  0  0  0
 11  4  1  0  0  0  0
 11 12  1  0  0  0  0
 12 14  1  6  0  0  0
 14 13  1  1  0  0  0
 14 15  1  0  0  0  0
 15 22  1  1  0  0  0
 15 16  1  0  0  0  0
 16 19  1  0  0  0  0
 16 18  2  0  0  0  0
 19 20  1  0  0  0  0
 20 21  1  0  0  0  0
 20 17  2  0  0  0  0
 22 23  1  0  0  0  0
 24 23  1  0  0  0  0
 24 26  1  0  0  0  0
 26 25  2  0  0  0  0
 27 29  1  0  0  0  0
 28 30  2  0  0  0  0
 29 28  2  0  0  0  0
 31 30  1  6  0  0  0
 31 32  1  0  0  0  0
 32 33  3  0  0  0  0
 34 35  2  0  0  0  0
 35 36  1  0  0  0  0
 35 31  1  0  0  0  0
 37 38  2  0  0  0  0
 38 39  1  0  0  0  0
 38 36  1  0  0  0  0
 39 40  1  0  0  0  0
 40 41  1  0  0  0  0
 40 45  1  1  0  0  0
 42 44  1  0  0  0  0
 42 41  1  0  0  0  0
 43 44  1  0  0  0  0
 45 46  1  0  0  0  0
 48 46  1  1  0  0  0
 48 49  1  0  0  0  0
 48 47  1  0  0  0  0
 49 47  1  0  0  0  0
M  END
>  <MODEL>
9

>  <REMARK>
 VINA RESULT:      -5.8      2.882      8.690
  Name = 
  22 active torsions:
  status: ('A' for Active; 'I' for Inactive)
    1  A    between atoms: C_3  and  C_36
    2  A    between atoms: C_5  and  O_37
    3  A    between atoms: C_5  and  N_39
    4  A    between atoms: C_5  and  C_46
    5  A    between atoms: C_7  and  C_8
    6  A    between atoms: C_7  and  O_37
    7  A    between atoms: C_10  and  C_41
    8  A    between atoms: N_12  and  C_18
    9  A    between atoms: N_12  and  C_20
   10  A    between atoms: C_15  and  C_24
   11  A    between atoms: C_17  and  C_23
   12  A    between atoms: C_18  and  C_44
   13  A    between atoms: C_22  and  C_26
   14  A    between atoms: C_23  and  C_28
   15  A    between atoms: C_23  and  C_43
   16  A    between atoms: C_26  and  C_43
   17  A    between atoms: C_27  and  C_47
   18  A    between atoms: N_29  and  C_42
   19  A    between atoms: N_29  and  C_46
   20  A    between atoms: C_31  and  C_36
   21  A    between atoms: C_41  and  C_44
   22  A    between atoms: C_41  and  C_47
                            x       y       z     vdW  Elec       q    Type
                         _______ _______ _______ _____ _____    ______ ____

>  <TORSDO>
F 22

$$$$
