=
 OpenBabel10222421513D

 54 56  0  0  1  0  0  0  0  0999 V2000
  182.9700  179.0600  142.1200 C   0  0  0  0  0  2  0  0  0  0  0  0
  187.2470  177.8860  142.9310 N   0  0  0  0  0  0  0  0  0  0  0  0
  183.9840  178.8170  141.2940 C   0  0  0  0  0  0  0  0  0  0  0  0
  187.9710  177.5600  144.0330 C   0  0  0  0  0  0  0  0  0  0  0  0
  183.8950  178.7710  144.4420 C   0  0  0  0  0  3  0  0  0  0  0  0
  186.0210  177.9840  145.3850 C   0  0  0  0  0  0  0  0  0  0  0  0
  185.3200  178.5230  141.7120 N   0  0  0  0  0  0  0  0  0  0  0  0
  185.9370  178.2550  142.9750 C   0  0  0  0  0  0  0  0  0  0  0  0
  187.3550  177.6010  145.2810 C   0  0  0  0  0  3  0  0  0  0  0  0
  185.2830  178.3260  144.2280 C   0  0  0  0  0  0  0  0  0  0  0  0
  182.9390  179.0770  143.5780 C   0  0  0  0  0  3  0  0  0  0  0  0
  184.5770  179.3640  139.0720 O   0  0  0  0  0  0  0  0  0  0  0  0
  183.7190  178.8570  139.8450 C   0  0  0  0  0  0  0  0  0  0  0  0
  182.5030  178.3240  139.3120 N   0  0  0  0  0  2  0  0  0  0  0  0
  182.2520  178.2090  137.8820 C   0  0  0  0  0  2  0  0  0  0  0  0
  180.9980  177.3890  137.6290 C   0  0  0  0  0  2  0  0  0  0  0  0
  180.7230  176.2340  139.0080 S   0  0  0  0  0  0  0  0  0  0  0  0
  180.5140  173.8060  137.9070 N   0  0  0  0  0  2  0  0  0  0  0  0
  182.6290  174.8140  137.5660 N   0  0  0  0  0  2  0  0  0  0  0  0
  181.2880  174.8310  138.0590 C   0  0  0  0  0  0  0  0  0  0  0  0
  182.6820  174.0680  135.1980 C   0  0  0  0  0  0  0  0  0  0  0  0
  181.9410  175.1700  134.7880 O   0  0  0  0  0  1  0  0  0  0  0  0
  183.0210  173.2030  134.3490 O   0  0  0  0  0  0  0  0  0  0  0  0
  183.0840  173.9290  136.5730 N   0  0  0  0  0  0  0  0  0  0  0  0
  184.0890  172.9420  136.9460 C   0  0  0  0  0  2  0  0  0  0  0  0
  186.2110  172.6930  137.9970 O   0  0  0  0  0  1  0  0  0  0  0  0
  185.3520  173.6330  137.4260 C   0  0  1  0  0  3  0  0  0  0  0  0
  186.0550  174.3290  136.2680 C   0  0  0  0  0  2  0  0  0  0  0  0
  187.1620  175.2490  136.7750 C   0  0  0  0  0  2  0  0  0  0  0  0
  185.7150  177.0290  135.9860 C   0  0  0  0  0  0  0  0  0  0  0  0
  184.6610  177.3460  135.4210 O   0  0  0  0  0  0  0  0  0  0  0  0
  186.8270  176.6970  136.5850 C   0  0  0  0  0  0  0  0  0  0  0  0
  187.6830  177.7800  137.1610 C   0  0  0  0  0  2  0  0  0  0  0  0
  187.0830  179.0320  137.0190 O   0  0  0  0  0  1  0  0  0  0  0  0
  189.3920  177.1580  143.9040 C   0  0  0  0  0  0  0  0  0  0  0  0
  190.0500  176.7660  145.0090 C   0  0  0  0  0  3  0  0  0  0  0  0
  191.2890  177.1690  140.0610 C   0  0  0  0  0  0  0  0  0  0  0  0
  190.0350  177.1870  142.5740 C   0  0  0  0  0  0  0  0  0  0  0  0
  189.4670  176.4770  141.5080 C   0  0  0  0  0  3  0  0  0  0  0  0
  191.8610  177.8700  141.1280 C   0  0  0  0  0  3  0  0  0  0  0  0
  191.2400  177.8760  142.3810 C   0  0  0  0  0  3  0  0  0  0  0  0
  190.0870  176.4710  140.2560 C   0  0  0  0  0  3  0  0  0  0  0  0
  191.9430  177.1780  138.7870 N   0  0  0  0  0  2  0  0  0  0  0  0
  191.7720  176.1320  137.7870 C   0  0  0  0  0  2  0  0  0  0  0  0
  193.0480  175.9140  137.0480 C   0  0  0  0  0  0  0  0  0  0  0  0
  193.9980  176.7290  137.1760 O   0  0  0  0  0  1  0  0  0  0  0  0
  193.1810  174.8240  136.1970 O   0  0  0  0  0  0  0  0  0  0  0  0
  191.4710  176.3860  145.1210 C   0  0  0  0  0  0  0  0  0  0  0  0
  192.2370  176.9290  145.9590 O   0  0  0  0  0  0  0  0  0  0  0  0
  191.9790  175.3640  144.2720 N   0  0  0  0  0  1  0  0  0  0  0  0
  185.4050  177.9780  146.7510 C   0  0  0  0  0  2  0  0  0  0  0  0
  185.8290  180.0940  147.7690 O   0  0  0  0  0  0  0  0  0  0  0  0
  187.2520  178.4000  148.3690 O   0  0  0  0  0  1  0  0  0  0  0  0
  186.1590  178.8830  147.6640 C   0  0  0  0  0  0  0  0  0  0  0  0
  1 11  1  0  0  0  0
  2  8  2  0  0  0  0
  2  4  1  0  0  0  0
  3  7  2  0  0  0  0
  3  1  1  0  0  0  0
  4  9  2  0  0  0  0
  6 51  1  0  0  0  0
  7  8  1  0  0  0  0
  8 10  1  0  0  0  0
  9  6  1  0  0  0  0
 10  5  1  0  0  0  0
 10  6  2  0  0  0  0
 11  5  2  0  0  0  0
 12 13  2  0  0  0  0
 13  3  1  0  0  0  0
 14 13  1  0  0  0  0
 15 14  1  0  0  0  0
 16 15  1  0  0  0  0
 16 17  1  0  0  0  0
 18 20  2  0  0  0  0
 19 20  1  0  0  0  0
 20 17  1  0  0  0  0
 21 24  1  0  0  0  0
 22 21  1  0  0  0  0
 23 21  2  0  0  0  0
 24 25  1  0  0  0  0
 24 19  1  0  0  0  0
 25 27  1  0  0  0  0
 27 26  1  6  0  0  0
 28 29  1  0  0  0  0
 28 27  1  0  0  0  0
 30 32  2  0  0  0  0
 31 30  2  0  0  0  0
 32 29  1  0  0  0  0
 32 33  1  0  0  0  0
 34 33  1  0  0  0  0
 35  4  1  0  0  0  0
 35 36  2  0  0  0  0
 36 48  1  0  0  0  0
 37 42  2  0  0  0  0
 37 40  1  0  0  0  0
 38 35  1  0  0  0  0
 39 38  2  0  0  0  0
 40 41  2  0  0  0  0
 41 38  1  0  0  0  0
 42 39  1  0  0  0  0
 43 37  1  0  0  0  0
 44 43  1  0  0  0  0
 45 46  1  0  0  0  0
 45 44  1  0  0  0  0
 47 45  2  0  0  0  0
 48 49  2  0  0  0  0
 50 48  1  0  0  0  0
 51 54  1  0  0  0  0
 54 52  2  0  0  0  0
 54 53  1  0  0  0  0
M  END
>  <MODEL>
1

>  <REMARK>
 VINA RESULT:      -7.2      0.000      0.000
  Name = 
  20 active torsions:
  status: ('A' for Active; 'I' for Inactive)
    1  A    between atoms: C_2  and  C_27
    2  A    between atoms: C_2  and  C_54
    3  A    between atoms: C_4  and  C_48
    4  A    between atoms: C_5  and  C_52
    5  A    between atoms: C_6  and  C_50
    6  A    between atoms: C_8  and  N_13
    7  A    between atoms: C_9  and  C_25
    8  A    between atoms: C_12  and  C_25
    9  A    between atoms: N_13  and  C_52
   10  A    between atoms: C_16  and  C_19
   11  A    between atoms: C_16  and  C_37
   12  A    between atoms: N_17  and  N_51
   13  A    between atoms: C_18  and  C_46
   14  A    between atoms: C_18  and  N_51
   15  A    between atoms: C_19  and  C_46
   16  A    between atoms: S_20  and  C_35
   17  A    between atoms: S_20  and  C_41
   18  A    between atoms: C_26  and  C_37
   19  A    between atoms: C_41  and  C_49
   20  A    between atoms: C_49  and  N_53
                            x       y       z     vdW  Elec       q    Type
                         _______ _______ _______ _____ _____    ______ ____

>  <TORSDO>
F 20

$$$$
=
 OpenBabel10222421513D

 54 56  0  0  1  0  0  0  0  0999 V2000
  190.1590  177.3200  142.0880 C   0  0  0  0  0  2  0  0  0  0  0  0
  185.7090  178.0350  141.9860 N   0  0  0  0  0  0  0  0  0  0  0  0
  189.3170  177.4580  141.0680 C   0  0  0  0  0  0  0  0  0  0  0  0
  184.7440  178.2790  142.9110 C   0  0  0  0  0  0  0  0  0  0  0  0
  188.7520  177.5010  144.1660 C   0  0  0  0  0  3  0  0  0  0  0  0
  186.4080  178.0570  144.6410 C   0  0  0  0  0  0  0  0  0  0  0  0
  187.9010  177.6090  141.1980 N   0  0  0  0  0  0  0  0  0  0  0  0
  187.0130  177.8060  142.3040 C   0  0  0  0  0  0  0  0  0  0  0  0
  185.0920  178.2980  144.2590 C   0  0  0  0  0  3  0  0  0  0  0  0
  187.4000  177.7980  143.6660 C   0  0  0  0  0  0  0  0  0  0  0  0
  189.8920  177.3000  143.5220 C   0  0  0  0  0  3  0  0  0  0  0  0
  189.6910  178.4480  138.9540 O   0  0  0  0  0  0  0  0  0  0  0  0
  189.8760  177.4520  139.7050 C   0  0  0  0  0  0  0  0  0  0  0  0
  190.6280  176.3290  139.2310 N   0  0  0  0  0  2  0  0  0  0  0  0
  191.3200  176.3280  137.9500 C   0  0  0  0  0  2  0  0  0  0  0  0
  192.8250  176.3530  138.1620 C   0  0  0  0  0  2  0  0  0  0  0  0
  193.6790  176.1840  136.5650 S   0  0  0  0  0  0  0  0  0  0  0  0
  194.1960  174.0480  138.0880 N   0  0  0  0  0  2  0  0  0  0  0  0
  194.4280  173.6280  135.7700 N   0  0  0  0  0  2  0  0  0  0  0  0
  194.1000  174.4770  136.8720 C   0  0  0  0  0  0  0  0  0  0  0  0
  193.2790  171.4270  135.8130 C   0  0  0  0  0  0  0  0  0  0  0  0
  192.0470  172.0150  135.5490 O   0  0  0  0  0  0  0  0  0  0  0  0
  193.3410  170.1820  135.9920 O   0  0  0  0  0  1  0  0  0  0  0  0
  194.4750  172.2250  135.8530 N   0  0  0  0  0  0  0  0  0  0  0  0
  195.7840  171.5840  135.8420 C   0  0  0  0  0  2  0  0  0  0  0  0
  196.0020  170.5150  137.9580 O   0  0  0  0  0  1  0  0  0  0  0  0
  196.4050  171.6330  137.2260 C   0  0  1  0  0  3  0  0  0  0  0  0
  197.9240  171.6600  137.1310 C   0  0  0  0  0  2  0  0  0  0  0  0
  198.3850  172.6020  136.0220 C   0  0  0  0  0  2  0  0  0  0  0  0
  198.7010  174.4530  137.5580 C   0  0  0  0  0  0  0  0  0  0  0  0
  199.1370  174.8440  138.6480 O   0  0  0  0  0  0  0  0  0  0  0  0
  198.2420  174.0430  136.4070 C   0  0  0  0  0  0  0  0  0  0  0  0
  197.6810  175.0530  135.4560 C   0  0  0  0  0  2  0  0  0  0  0  0
  197.3690  176.2470  136.1100 O   0  0  0  0  0  1  0  0  0  0  0  0
  183.3460  178.5300  142.4860 C   0  0  0  0  0  0  0  0  0  0  0  0
  182.4830  179.0270  143.3890 C   0  0  0  0  0  3  0  0  0  0  0  0
  182.2660  177.6510  138.4330 C   0  0  0  0  0  0  0  0  0  0  0  0
  182.9500  178.2430  141.0920 C   0  0  0  0  0  0  0  0  0  0  0  0
  182.3300  177.0270  140.7790 C   0  0  0  0  0  3  0  0  0  0  0  0
  182.8940  178.8610  138.7460 C   0  0  0  0  0  3  0  0  0  0  0  0
  183.2390  179.1560  140.0680 C   0  0  0  0  0  3  0  0  0  0  0  0
  181.9850  176.7330  139.4580 C   0  0  0  0  0  3  0  0  0  0  0  0
  181.9200  177.3730  137.0730 N   0  0  0  0  0  2  0  0  0  0  0  0
  182.7800  177.6950  135.9410 C   0  0  0  0  0  2  0  0  0  0  0  0
  183.9010  176.7170  135.8510 C   0  0  0  0  0  0  0  0  0  0  0  0
  185.0050  176.9730  136.3970 O   0  0  0  0  0  1  0  0  0  0  0  0
  183.7360  175.5350  135.1420 O   0  0  0  0  0  0  0  0  0  0  0  0
  181.0440  179.2930  143.2030 C   0  0  0  0  0  0  0  0  0  0  0  0
  180.1620  178.5620  143.7240 O   0  0  0  0  0  0  0  0  0  0  0  0
  180.6460  180.4200  142.4310 N   0  0  0  0  0  1  0  0  0  0  0  0
  186.7270  178.1220  146.1040 C   0  0  0  0  0  2  0  0  0  0  0  0
  185.8950  179.9010  147.4560 O   0  0  0  0  0  1  0  0  0  0  0  0
  184.3660  178.2940  146.8800 O   0  0  0  0  0  0  0  0  0  0  0  0
  185.6440  178.8330  146.8400 C   0  0  0  0  0  0  0  0  0  0  0  0
  1 11  1  0  0  0  0
  2  8  2  0  0  0  0
  2  4  1  0  0  0  0
  3  7  2  0  0  0  0
  3  1  1  0  0  0  0
  4  9  2  0  0  0  0
  6 51  1  0  0  0  0
  7  8  1  0  0  0  0
  8 10  1  0  0  0  0
  9  6  1  0  0  0  0
 10  5  1  0  0  0  0
 10  6  2  0  0  0  0
 11  5  2  0  0  0  0
 12 13  2  0  0  0  0
 13  3  1  0  0  0  0
 14 13  1  0  0  0  0
 15 16  1  0  0  0  0
 15 14  1  0  0  0  0
 17 20  1  0  0  0  0
 17 16  1  0  0  0  0
 19 24  1  0  0  0  0
 19 20  1  0  0  0  0
 20 18  2  0  0  0  0
 21 24  1  0  0  0  0
 21 23  1  0  0  0  0
 22 21  2  0  0  0  0
 25 24  1  0  0  0  0
 25 27  1  0  0  0  0
 27 26  1  1  0  0  0
 28 27  1  0  0  0  0
 29 32  1  0  0  0  0
 29 28  1  0  0  0  0
 30 31  2  0  0  0  0
 32 30  2  0  0  0  0
 33 34  1  0  0  0  0
 33 32  1  0  0  0  0
 35  4  1  0  0  0  0
 35 36  2  0  0  0  0
 37 40  2  0  0  0  0
 37 42  1  0  0  0  0
 38 35  1  0  0  0  0
 39 38  1  0  0  0  0
 40 41  1  0  0  0  0
 41 38  2  0  0  0  0
 42 39  2  0  0  0  0
 43 37  1  0  0  0  0
 44 43  1  0  0  0  0
 45 44  1  0  0  0  0
 45 46  1  0  0  0  0
 47 45  2  0  0  0  0
 48 36  1  0  0  0  0
 48 49  2  0  0  0  0
 50 48  1  0  0  0  0
 51 54  1  0  0  0  0
 54 53  2  0  0  0  0
 54 52  1  0  0  0  0
M  END
>  <MODEL>
2

>  <REMARK>
 VINA RESULT:      -7.1      3.726      9.175
  Name = 
  20 active torsions:
  status: ('A' for Active; 'I' for Inactive)
    1  A    between atoms: C_2  and  C_27
    2  A    between atoms: C_2  and  C_54
    3  A    between atoms: C_4  and  C_48
    4  A    between atoms: C_5  and  C_52
    5  A    between atoms: C_6  and  C_50
    6  A    between atoms: C_8  and  N_13
    7  A    between atoms: C_9  and  C_25
    8  A    between atoms: C_12  and  C_25
    9  A    between atoms: N_13  and  C_52
   10  A    between atoms: C_16  and  C_19
   11  A    between atoms: C_16  and  C_37
   12  A    between atoms: N_17  and  N_51
   13  A    between atoms: C_18  and  C_46
   14  A    between atoms: C_18  and  N_51
   15  A    between atoms: C_19  and  C_46
   16  A    between atoms: S_20  and  C_35
   17  A    between atoms: S_20  and  C_41
   18  A    between atoms: C_26  and  C_37
   19  A    between atoms: C_41  and  C_49
   20  A    between atoms: C_49  and  N_53
                            x       y       z     vdW  Elec       q    Type
                         _______ _______ _______ _____ _____    ______ ____

>  <TORSDO>
F 20

$$$$
=
 OpenBabel10222421513D

 54 56  0  0  1  0  0  0  0  0999 V2000
  190.3120  177.1220  142.0800 C   0  0  0  0  0  2  0  0  0  0  0  0
  185.8880  177.9890  142.0060 N   0  0  0  0  0  0  0  0  0  0  0  0
  189.4660  177.2770  141.0650 C   0  0  0  0  0  0  0  0  0  0  0  0
  184.9390  178.2760  142.9350 C   0  0  0  0  0  0  0  0  0  0  0  0
  188.9290  177.3750  144.1670 C   0  0  0  0  0  3  0  0  0  0  0  0
  186.6100  178.0170  144.6540 C   0  0  0  0  0  0  0  0  0  0  0  0
  188.0570  177.4780  141.2050 N   0  0  0  0  0  0  0  0  0  0  0  0
  187.1860  177.7180  142.3150 C   0  0  0  0  0  0  0  0  0  0  0  0
  185.2990  178.2990  144.2800 C   0  0  0  0  0  3  0  0  0  0  0  0
  187.5840  177.7130  143.6740 C   0  0  0  0  0  0  0  0  0  0  0  0
  190.0560  177.1280  143.5160 C   0  0  0  0  0  3  0  0  0  0  0  0
  189.7380  178.1660  138.8920 O   0  0  0  0  0  0  0  0  0  0  0  0
  190.0130  177.2360  139.6980 C   0  0  0  0  0  0  0  0  0  0  0  0
  190.8530  176.1540  139.2820 N   0  0  0  0  0  2  0  0  0  0  0  0
  191.5330  176.1340  137.9940 C   0  0  0  0  0  2  0  0  0  0  0  0
  193.0380  176.2020  138.1900 C   0  0  0  0  0  2  0  0  0  0  0  0
  193.8860  175.7430  136.6470 S   0  0  0  0  0  0  0  0  0  0  0  0
  195.0070  174.3630  138.6440 N   0  0  0  0  0  2  0  0  0  0  0  0
  196.5620  175.0830  137.0110 N   0  0  0  0  0  2  0  0  0  0  0  0
  195.2320  174.9570  137.5180 C   0  0  0  0  0  0  0  0  0  0  0  0
  198.5380  174.6960  138.4640 C   0  0  0  0  0  0  0  0  0  0  0  0
  198.2890  175.8570  139.1860 O   0  0  0  0  0  1  0  0  0  0  0  0
  199.5490  174.0010  138.7450 O   0  0  0  0  0  0  0  0  0  0  0  0
  197.6350  174.2740  137.4260 N   0  0  0  0  0  0  0  0  0  0  0  0
  197.7330  172.9300  136.8710 C   0  0  0  0  0  2  0  0  0  0  0  0
  198.7420  173.1830  134.7300 O   0  0  0  0  0  1  0  0  0  0  0  0
  197.5200  172.9650  135.3690 C   0  0  1  0  0  3  0  0  0  0  0  0
  196.9160  171.6550  134.8830 C   0  0  0  0  0  2  0  0  0  0  0  0
  195.4360  171.8250  134.5520 C   0  0  0  0  0  2  0  0  0  0  0  0
  194.9020  170.2750  136.3400 C   0  0  0  0  0  0  0  0  0  0  0  0
  195.2370  169.2800  136.9960 O   0  0  0  0  0  0  0  0  0  0  0  0
  194.5490  171.3260  135.6520 C   0  0  0  0  0  0  0  0  0  0  0  0
  193.3140  172.0680  136.0560 C   0  0  0  0  0  2  0  0  0  0  0  0
  192.6730  172.6280  134.9490 O   0  0  0  0  0  1  0  0  0  0  0  0
  183.5470  178.5700  142.5190 C   0  0  0  0  0  0  0  0  0  0  0  0
  182.6720  178.9760  143.4550 C   0  0  0  0  0  3  0  0  0  0  0  0
  182.3840  178.1880  138.4120 C   0  0  0  0  0  0  0  0  0  0  0  0
  183.1700  178.4240  141.0980 C   0  0  0  0  0  0  0  0  0  0  0  0
  183.3780  179.4850  140.2080 C   0  0  0  0  0  3  0  0  0  0  0  0
  182.1680  177.1320  139.3040 C   0  0  0  0  0  3  0  0  0  0  0  0
  182.5550  177.2500  140.6430 C   0  0  0  0  0  3  0  0  0  0  0  0
  182.9920  179.3670  138.8700 C   0  0  0  0  0  3  0  0  0  0  0  0
  181.9810  178.0440  137.0460 N   0  0  0  0  0  2  0  0  0  0  0  0
  182.8550  177.5320  135.9980 C   0  0  0  0  0  2  0  0  0  0  0  0
  182.4820  176.1300  135.6560 C   0  0  0  0  0  0  0  0  0  0  0  0
  182.7020  175.2020  136.4760 O   0  0  0  0  0  1  0  0  0  0  0  0
  181.9140  175.8440  134.4210 O   0  0  0  0  0  0  0  0  0  0  0  0
  181.2360  179.2610  143.2770 C   0  0  0  0  0  0  0  0  0  0  0  0
  180.8340  180.3250  142.7370 O   0  0  0  0  0  0  0  0  0  0  0  0
  180.2830  178.2970  143.7090 N   0  0  0  0  0  1  0  0  0  0  0  0
  186.9430  178.0870  146.1130 C   0  0  0  0  0  2  0  0  0  0  0  0
  185.9590  179.9360  147.2550 O   0  0  0  0  0  1  0  0  0  0  0  0
  184.6910  178.0270  147.1770 O   0  0  0  0  0  0  0  0  0  0  0  0
  185.8380  178.7440  146.8670 C   0  0  0  0  0  0  0  0  0  0  0  0
  1 11  1  0  0  0  0
  2  8  2  0  0  0  0
  2  4  1  0  0  0  0
  3  7  2  0  0  0  0
  3  1  1  0  0  0  0
  4  9  2  0  0  0  0
  6 51  1  0  0  0  0
  7  8  1  0  0  0  0
  8 10  1  0  0  0  0
  9  6  1  0  0  0  0
 10  5  1  0  0  0  0
 10  6  2  0  0  0  0
 11  5  2  0  0  0  0
 12 13  2  0  0  0  0
 13  3  1  0  0  0  0
 14 13  1  0  0  0  0
 15 16  1  0  0  0  0
 15 14  1  0  0  0  0
 17 20  1  0  0  0  0
 17 16  1  0  0  0  0
 19 24  1  0  0  0  0
 19 20  1  0  0  0  0
 20 18  2  0  0  0  0
 21 23  2  0  0  0  0
 21 22  1  0  0  0  0
 24 21  1  0  0  0  0
 25 24  1  0  0  0  0
 27 26  1  6  0  0  0
 27 25  1  0  0  0  0
 28 27  1  0  0  0  0
 29 28  1  0  0  0  0
 29 32  1  0  0  0  0
 30 31  2  0  0  0  0
 32 33  1  0  0  0  0
 32 30  2  0  0  0  0
 34 33  1  0  0  0  0
 35  4  1  0  0  0  0
 35 36  2  0  0  0  0
 37 42  2  0  0  0  0
 37 40  1  0  0  0  0
 38 35  1  0  0  0  0
 39 38  2  0  0  0  0
 40 41  2  0  0  0  0
 41 38  1  0  0  0  0
 42 39  1  0  0  0  0
 43 37  1  0  0  0  0
 44 43  1  0  0  0  0
 45 44  1  0  0  0  0
 45 46  1  0  0  0  0
 47 45  2  0  0  0  0
 48 36  1  0  0  0  0
 48 50  1  0  0  0  0
 49 48  2  0  0  0  0
 51 54  1  0  0  0  0
 54 53  2  0  0  0  0
 54 52  1  0  0  0  0
M  END
>  <MODEL>
3

>  <REMARK>
 VINA RESULT:      -7.0      3.792      9.807
  Name = 
  20 active torsions:
  status: ('A' for Active; 'I' for Inactive)
    1  A    between atoms: C_2  and  C_27
    2  A    between atoms: C_2  and  C_54
    3  A    between atoms: C_4  and  C_48
    4  A    between atoms: C_5  and  C_52
    5  A    between atoms: C_6  and  C_50
    6  A    between atoms: C_8  and  N_13
    7  A    between atoms: C_9  and  C_25
    8  A    between atoms: C_12  and  C_25
    9  A    between atoms: N_13  and  C_52
   10  A    between atoms: C_16  and  C_19
   11  A    between atoms: C_16  and  C_37
   12  A    between atoms: N_17  and  N_51
   13  A    between atoms: C_18  and  C_46
   14  A    between atoms: C_18  and  N_51
   15  A    between atoms: C_19  and  C_46
   16  A    between atoms: S_20  and  C_35
   17  A    between atoms: S_20  and  C_41
   18  A    between atoms: C_26  and  C_37
   19  A    between atoms: C_41  and  C_49
   20  A    between atoms: C_49  and  N_53
                            x       y       z     vdW  Elec       q    Type
                         _______ _______ _______ _____ _____    ______ ____

>  <TORSDO>
F 20

$$$$
=
 OpenBabel10222421513D

 54 56  0  0  1  0  0  0  0  0999 V2000
  184.1550  178.3870  137.1120 C   0  0  0  0  0  3  0  0  0  0  0  0
  185.3950  178.4170  141.4470 N   0  0  0  0  0  0  0  0  0  0  0  0
  185.3570  178.3380  137.6800 C   0  0  0  0  0  0  0  0  0  0  0  0
  184.7490  178.3850  142.6410 C   0  0  0  0  0  0  0  0  0  0  0  0
  182.5090  178.5480  139.0080 C   0  0  0  0  0  3  0  0  0  0  0  0
  182.6500  178.4150  141.4550 C   0  0  0  0  0  0  0  0  0  0  0  0
  185.5950  178.4320  139.0870 N   0  0  0  0  0  2  0  0  0  0  0  0
  184.7550  178.4420  140.2460 C   0  0  0  0  0  0  0  0  0  0  0  0
  183.3560  178.3760  142.6540 C   0  0  0  0  0  3  0  0  0  0  0  0
  183.3390  178.4550  140.2200 C   0  0  0  0  0  0  0  0  0  0  0  0
  182.8390  178.5240  137.7250 C   0  0  0  0  0  3  0  0  0  0  0  0
  187.4310  179.0640  136.8090 O   0  0  0  0  0  0  0  0  0  0  0  0
  186.5300  178.1820  136.8030 C   0  0  0  0  0  0  0  0  0  0  0  0
  186.6550  177.0390  135.9500 N   0  0  0  0  0  2  0  0  0  0  0  0
  187.8540  176.7640  135.1710 C   0  0  0  0  0  2  0  0  0  0  0  0
  188.0330  175.2660  134.9870 C   0  0  0  0  0  2  0  0  0  0  0  0
  189.8020  174.8640  134.8520 S   0  0  0  0  0  0  0  0  0  0  0  0
  189.8200  174.2470  137.4540 N   0  0  0  0  0  2  0  0  0  0  0  0
  190.5250  176.4620  137.0090 N   0  0  0  0  0  2  0  0  0  0  0  0
  190.0920  175.1670  136.5880 C   0  0  0  0  0  0  0  0  0  0  0  0
  190.2370  177.1160  139.3870 C   0  0  0  0  0  0  0  0  0  0  0  0
  188.8520  177.1000  139.2690 O   0  0  0  0  0  0  0  0  0  0  0  0
  190.7580  177.4490  140.4830 O   0  0  0  0  0  1  0  0  0  0  0  0
  191.0680  176.7300  138.2780 N   0  0  0  0  0  0  0  0  0  0  0  0
  192.4880  176.4710  138.4820 C   0  0  0  0  0  2  0  0  0  0  0  0
  194.1820  176.9930  136.8930 O   0  0  0  0  0  1  0  0  0  0  0  0
  193.1480  176.0970  137.1670 C   0  0  1  0  0  3  0  0  0  0  0  0
  193.7030  174.6810  137.2310 C   0  0  0  0  0  2  0  0  0  0  0  0
  195.2240  174.6850  137.0980 C   0  0  0  0  0  2  0  0  0  0  0  0
  196.0630  172.5640  137.9250 C   0  0  0  0  0  0  0  0  0  0  0  0
  196.2340  171.3550  137.7180 O   0  0  0  0  0  0  0  0  0  0  0  0
  195.8860  173.8380  138.1430 C   0  0  0  0  0  0  0  0  0  0  0  0
  196.4490  174.4380  139.3930 C   0  0  0  0  0  2  0  0  0  0  0  0
  195.6200  175.4440  139.8920 O   0  0  0  0  0  1  0  0  0  0  0  0
  185.5180  178.3480  143.9080 C   0  0  0  0  0  0  0  0  0  0  0  0
  184.9160  178.7700  145.0340 C   0  0  0  0  0  3  0  0  0  0  0  0
  189.5440  176.8850  143.8000 C   0  0  0  0  0  0  0  0  0  0  0  0
  186.9050  177.8400  143.8990 C   0  0  0  0  0  0  0  0  0  0  0  0
  187.9780  178.7400  143.8570 C   0  0  0  0  0  3  0  0  0  0  0  0
  188.4720  175.9880  143.8320 C   0  0  0  0  0  3  0  0  0  0  0  0
  187.1570  176.4610  143.8770 C   0  0  0  0  0  3  0  0  0  0  0  0
  189.2910  178.2660  143.8130 C   0  0  0  0  0  3  0  0  0  0  0  0
  190.8820  176.3770  143.7560 N   0  0  0  0  0  2  0  0  0  0  0  0
  191.9240  176.7660  144.6980 C   0  0  0  0  0  2  0  0  0  0  0  0
  191.5590  176.3320  146.0770 C   0  0  0  0  0  0  0  0  0  0  0  0
  190.5950  176.8770  146.6740 O   0  0  0  0  0  0  0  0  0  0  0  0
  192.2990  175.3440  146.7120 O   0  0  0  0  0  1  0  0  0  0  0  0
  185.5070  178.8780  146.3810 C   0  0  0  0  0  0  0  0  0  0  0  0
  185.6610  179.9900  146.9500 O   0  0  0  0  0  0  0  0  0  0  0  0
  185.8920  177.6900  147.0610 N   0  0  0  0  0  1  0  0  0  0  0  0
  181.1540  178.3730  141.5320 C   0  0  0  0  0  2  0  0  0  0  0  0
  180.2250  180.4320  140.7670 O   0  0  0  0  0  0  0  0  0  0  0  0
  180.5570  180.2730  143.0290 O   0  0  0  0  0  1  0  0  0  0  0  0
  180.6070  179.7420  141.7480 C   0  0  0  0  0  0  0  0  0  0  0  0
  1  3  2  0  0  0  0
  1 11  1  0  0  0  0
  2  4  1  0  0  0  0
  3  7  1  0  0  0  0
  4  9  2  0  0  0  0
  4 35  1  0  0  0  0
  5 10  1  0  0  0  0
  6 51  1  0  0  0  0
  6  9  1  0  0  0  0
  7  8  1  0  0  0  0
  8  2  2  0  0  0  0
 10  8  1  0  0  0  0
 10  6  2  0  0  0  0
 11  5  2  0  0  0  0
 13 12  2  0  0  0  0
 13  3  1  0  0  0  0
 14 13  1  0  0  0  0
 15 14  1  0  0  0  0
 16 15  1  0  0  0  0
 17 16  1  0  0  0  0
 17 20  1  0  0  0  0
 19 24  1  0  0  0  0
 20 19  1  0  0  0  0
 20 18  2  0  0  0  0
 21 23  1  0  0  0  0
 22 21  2  0  0  0  0
 24 25  1  0  0  0  0
 24 21  1  0  0  0  0
 27 26  1  1  0  0  0
 27 28  1  0  0  0  0
 27 25  1  0  0  0  0
 29 28  1  0  0  0  0
 29 32  1  0  0  0  0
 30 32  2  0  0  0  0
 31 30  2  0  0  0  0
 32 33  1  0  0  0  0
 33 34  1  0  0  0  0
 35 36  2  0  0  0  0
 36 48  1  0  0  0  0
 37 42  2  0  0  0  0
 37 40  1  0  0  0  0
 38 35  1  0  0  0  0
 39 38  2  0  0  0  0
 40 41  2  0  0  0  0
 41 38  1  0  0  0  0
 42 39  1  0  0  0  0
 43 37  1  0  0  0  0
 43 44  1  0  0  0  0
 44 45  1  0  0  0  0
 45 46  2  0  0  0  0
 45 47  1  0  0  0  0
 48 49  2  0  0  0  0
 48 50  1  0  0  0  0
 51 54  1  0  0  0  0
 52 54  2  0  0  0  0
 54 53  1  0  0  0  0
M  END
>  <MODEL>
4

>  <REMARK>
 VINA RESULT:      -6.9      3.166      7.377
  Name = 
  20 active torsions:
  status: ('A' for Active; 'I' for Inactive)
    1  A    between atoms: C_2  and  C_27
    2  A    between atoms: C_2  and  C_54
    3  A    between atoms: C_4  and  C_48
    4  A    between atoms: C_5  and  C_52
    5  A    between atoms: C_6  and  C_50
    6  A    between atoms: C_8  and  N_13
    7  A    between atoms: C_9  and  C_25
    8  A    between atoms: C_12  and  C_25
    9  A    between atoms: N_13  and  C_52
   10  A    between atoms: C_16  and  C_19
   11  A    between atoms: C_16  and  C_37
   12  A    between atoms: N_17  and  N_51
   13  A    between atoms: C_18  and  C_46
   14  A    between atoms: C_18  and  N_51
   15  A    between atoms: C_19  and  C_46
   16  A    between atoms: S_20  and  C_35
   17  A    between atoms: S_20  and  C_41
   18  A    between atoms: C_26  and  C_37
   19  A    between atoms: C_41  and  C_49
   20  A    between atoms: C_49  and  N_53
                            x       y       z     vdW  Elec       q    Type
                         _______ _______ _______ _____ _____    ______ ____

>  <TORSDO>
F 20

$$$$
=
 OpenBabel10222421513D

 54 56  0  0  1  0  0  0  0  0999 V2000
  190.2200  177.0100  143.3920 C   0  0  0  0  0  2  0  0  0  0  0  0
  185.8980  177.9200  142.4860 N   0  0  0  0  0  0  0  0  0  0  0  0
  189.6030  177.2810  142.2450 C   0  0  0  0  0  0  0  0  0  0  0  0
  184.7730  178.1150  143.2210 C   0  0  0  0  0  0  0  0  0  0  0  0
  188.4280  177.0510  145.1580 C   0  0  0  0  0  3  0  0  0  0  0  0
  186.0500  177.6580  145.2140 C   0  0  0  0  0  0  0  0  0  0  0  0
  188.1940  177.4790  142.1070 N   0  0  0  0  0  0  0  0  0  0  0  0
  187.1060  177.6070  143.0290 C   0  0  0  0  0  0  0  0  0  0  0  0
  184.8430  177.9910  144.6060 C   0  0  0  0  0  3  0  0  0  0  0  0
  187.2110  177.4520  144.4330 C   0  0  0  0  0  0  0  0  0  0  0  0
  189.6690  176.8650  144.7350 C   0  0  0  0  0  3  0  0  0  0  0  0
  191.6590  177.6220  141.1270 O   0  0  0  0  0  0  0  0  0  0  0  0
  190.4250  177.3820  141.0260 C   0  0  0  0  0  0  0  0  0  0  0  0
  189.8340  177.2060  139.7330 N   0  0  0  0  0  2  0  0  0  0  0  0
  190.6200  177.1540  138.5080 C   0  0  0  0  0  2  0  0  0  0  0  0
  191.2310  175.7740  138.3300 C   0  0  0  0  0  2  0  0  0  0  0  0
  191.6610  175.5060  136.5830 S   0  0  0  0  0  0  0  0  0  0  0  0
  193.7550  176.6760  137.7640 N   0  0  0  0  0  2  0  0  0  0  0  0
  194.3670  175.1740  136.0410 N   0  0  0  0  0  2  0  0  0  0  0  0
  193.3960  175.8130  136.8720 C   0  0  0  0  0  0  0  0  0  0  0  0
  196.6770  176.0680  135.8680 C   0  0  0  0  0  0  0  0  0  0  0  0
  196.2370  177.1950  135.1830 O   0  0  0  0  0  0  0  0  0  0  0  0
  197.9090  175.9190  136.0800 O   0  0  0  0  0  1  0  0  0  0  0  0
  195.7350  175.0970  136.3560 N   0  0  0  0  0  0  0  0  0  0  0  0
  196.1600  174.0790  137.3100 C   0  0  0  0  0  2  0  0  0  0  0  0
  198.0660  172.6540  137.3340 O   0  0  0  0  0  1  0  0  0  0  0  0
  196.9260  172.9800  136.5980 C   0  0  1  0  0  3  0  0  0  0  0  0
  196.0550  171.7410  136.4320 C   0  0  0  0  0  2  0  0  0  0  0  0
  196.2910  170.7520  137.5690 C   0  0  0  0  0  2  0  0  0  0  0  0
  194.1540  169.8250  136.8900 C   0  0  0  0  0  0  0  0  0  0  0  0
  193.2150  169.8450  136.0840 O   0  0  0  0  0  0  0  0  0  0  0  0
  195.1440  169.8020  137.7400 C   0  0  0  0  0  0  0  0  0  0  0  0
  195.1540  168.7490  138.8020 C   0  0  0  0  0  2  0  0  0  0  0  0
  193.8570  168.3640  139.1480 O   0  0  0  0  0  1  0  0  0  0  0  0
  183.4950  178.4650  142.5560 C   0  0  0  0  0  0  0  0  0  0  0  0
  182.5000  178.9680  143.3070 C   0  0  0  0  0  3  0  0  0  0  0  0
  183.1630  177.8320  138.3310 C   0  0  0  0  0  0  0  0  0  0  0  0
  183.3580  178.2640  141.0990 C   0  0  0  0  0  0  0  0  0  0  0  0
  182.7070  177.1250  140.6090 C   0  0  0  0  0  3  0  0  0  0  0  0
  183.8210  178.9640  138.8210 C   0  0  0  0  0  3  0  0  0  0  0  0
  183.9230  179.1790  140.1990 C   0  0  0  0  0  3  0  0  0  0  0  0
  182.6050  176.9110  139.2320 C   0  0  0  0  0  3  0  0  0  0  0  0
  183.0690  177.6340  136.9160 N   0  0  0  0  0  2  0  0  0  0  0  0
  184.2090  177.2970  136.0720 C   0  0  0  0  0  2  0  0  0  0  0  0
  183.8910  176.1100  135.2280 C   0  0  0  0  0  0  0  0  0  0  0  0
  184.7220  175.1720  135.1210 O   0  0  0  0  0  1  0  0  0  0  0  0
  182.6870  176.0520  134.5380 O   0  0  0  0  0  0  0  0  0  0  0  0
  181.1370  179.3240  142.8690 C   0  0  0  0  0  0  0  0  0  0  0  0
  180.9020  180.3830  142.2300 O   0  0  0  0  0  0  0  0  0  0  0  0
  180.0660  178.4350  143.1590 N   0  0  0  0  0  1  0  0  0  0  0  0
  186.0700  177.5690  146.7100 C   0  0  0  0  0  2  0  0  0  0  0  0
  185.8050  179.9160  147.0460 O   0  0  0  0  0  0  0  0  0  0  0  0
  187.5990  178.9570  148.1030 O   0  0  0  0  0  1  0  0  0  0  0  0
  186.4690  178.8770  147.3020 C   0  0  0  0  0  0  0  0  0  0  0  0
  1 11  1  0  0  0  0
  2  8  2  0  0  0  0
  2  4  1  0  0  0  0
  3  1  1  0  0  0  0
  4  9  2  0  0  0  0
  6 51  1  0  0  0  0
  7  3  2  0  0  0  0
  7  8  1  0  0  0  0
  8 10  1  0  0  0  0
  9  6  1  0  0  0  0
 10  5  1  0  0  0  0
 10  6  2  0  0  0  0
 11  5  2  0  0  0  0
 13 12  2  0  0  0  0
 13  3  1  0  0  0  0
 14 13  1  0  0  0  0
 15 14  1  0  0  0  0
 16 15  1  0  0  0  0
 17 20  1  0  0  0  0
 17 16  1  0  0  0  0
 19 24  1  0  0  0  0
 19 20  1  0  0  0  0
 20 18  2  0  0  0  0
 21 23  1  0  0  0  0
 21 24  1  0  0  0  0
 22 21  2  0  0  0  0
 24 25  1  0  0  0  0
 27 25  1  0  0  0  0
 27 26  1  1  0  0  0
 28 27  1  0  0  0  0
 28 29  1  0  0  0  0
 29 32  1  0  0  0  0
 30 32  2  0  0  0  0
 31 30  2  0  0  0  0
 32 33  1  0  0  0  0
 33 34  1  0  0  0  0
 35  4  1  0  0  0  0
 35 36  2  0  0  0  0
 37 40  2  0  0  0  0
 37 42  1  0  0  0  0
 38 35  1  0  0  0  0
 39 38  1  0  0  0  0
 40 41  1  0  0  0  0
 41 38  2  0  0  0  0
 42 39  2  0  0  0  0
 43 37  1  0  0  0  0
 44 43  1  0  0  0  0
 45 44  1  0  0  0  0
 46 45  1  0  0  0  0
 47 45  2  0  0  0  0
 48 50  1  0  0  0  0
 48 36  1  0  0  0  0
 49 48  2  0  0  0  0
 51 54  1  0  0  0  0
 52 54  2  0  0  0  0
 54 53  1  0  0  0  0
M  END
>  <MODEL>
5

>  <REMARK>
 VINA RESULT:      -6.9      3.564      9.210
  Name = 
  20 active torsions:
  status: ('A' for Active; 'I' for Inactive)
    1  A    between atoms: C_2  and  C_27
    2  A    between atoms: C_2  and  C_54
    3  A    between atoms: C_4  and  C_48
    4  A    between atoms: C_5  and  C_52
    5  A    between atoms: C_6  and  C_50
    6  A    between atoms: C_8  and  N_13
    7  A    between atoms: C_9  and  C_25
    8  A    between atoms: C_12  and  C_25
    9  A    between atoms: N_13  and  C_52
   10  A    between atoms: C_16  and  C_19
   11  A    between atoms: C_16  and  C_37
   12  A    between atoms: N_17  and  N_51
   13  A    between atoms: C_18  and  C_46
   14  A    between atoms: C_18  and  N_51
   15  A    between atoms: C_19  and  C_46
   16  A    between atoms: S_20  and  C_35
   17  A    between atoms: S_20  and  C_41
   18  A    between atoms: C_26  and  C_37
   19  A    between atoms: C_41  and  C_49
   20  A    between atoms: C_49  and  N_53
                            x       y       z     vdW  Elec       q    Type
                         _______ _______ _______ _____ _____    ______ ____

>  <TORSDO>
F 20

$$$$
=
 OpenBabel10222421513D

 54 56  0  0  1  0  0  0  0  0999 V2000
  188.9800  177.8390  140.2230 C   0  0  0  0  0  2  0  0  0  0  0  0
  191.5090  174.9070  137.9120 N   0  0  0  0  0  0  0  0  0  0  0  0
  189.8100  176.8840  140.6330 C   0  0  0  0  0  0  0  0  0  0  0  0
  191.8010  174.6990  136.6020 C   0  0  0  0  0  0  0  0  0  0  0  0
  189.0060  177.7340  137.7090 C   0  0  0  0  0  3  0  0  0  0  0  0
  190.3030  176.4990  136.0290 C   0  0  0  0  0  0  0  0  0  0  0  0
  190.4940  175.9740  139.7670 N   0  0  0  0  0  0  0  0  0  0  0  0
  190.6520  175.8700  138.3480 C   0  0  0  0  0  0  0  0  0  0  0  0
  191.1990  175.5070  135.6410 C   0  0  0  0  0  3  0  0  0  0  0  0
  190.0050  176.6980  137.3980 C   0  0  0  0  0  0  0  0  0  0  0  0
  188.5780  178.2060  138.8700 C   0  0  0  0  0  3  0  0  0  0  0  0
  189.9300  175.6110  142.6220 O   0  0  0  0  0  0  0  0  0  0  0  0
  190.0430  176.7450  142.0810 C   0  0  0  0  0  0  0  0  0  0  0  0
  190.3970  177.8830  142.8740 N   0  0  0  0  0  2  0  0  0  0  0  0
  190.7750  177.7800  144.2770 C   0  0  0  0  0  2  0  0  0  0  0  0
  189.6810  178.3520  145.1630 C   0  0  0  0  0  2  0  0  0  0  0  0
  188.7420  177.0020  145.9400 S   0  0  0  0  0  0  0  0  0  0  0  0
  186.7890  176.4330  144.2050 N   0  0  0  0  0  2  0  0  0  0  0  0
  186.7270  178.6650  144.9910 N   0  0  0  0  0  2  0  0  0  0  0  0
  187.2790  177.3470  144.9760 C   0  0  0  0  0  0  0  0  0  0  0  0
  184.2850  178.8810  145.3880 C   0  0  0  0  0  0  0  0  0  0  0  0
  184.4380  178.6140  146.7440 O   0  0  0  0  0  1  0  0  0  0  0  0
  183.1300  179.0650  144.9230 O   0  0  0  0  0  0  0  0  0  0  0  0
  185.4350  178.9760  144.5290 N   0  0  0  0  0  0  0  0  0  0  0  0
  185.3040  179.5310  143.1880 C   0  0  0  0  0  2  0  0  0  0  0  0
  183.3840  178.7170  142.0400 O   0  0  0  0  0  1  0  0  0  0  0  0
  184.7460  178.4870  142.2390 C   0  0  1  0  0  3  0  0  0  0  0  0
  185.4730  178.5360  140.9020 C   0  0  0  0  0  2  0  0  0  0  0  0
  184.5740  179.1170  139.8140 C   0  0  0  0  0  2  0  0  0  0  0  0
  184.5390  177.7610  137.8020 C   0  0  0  0  0  0  0  0  0  0  0  0
  185.0710  177.4820  136.7200 O   0  0  0  0  0  0  0  0  0  0  0  0
  183.9770  178.0520  138.9440 C   0  0  0  0  0  0  0  0  0  0  0  0
  182.8110  177.2340  139.4000 C   0  0  0  0  0  2  0  0  0  0  0  0
  181.7600  177.2930  138.4830 O   0  0  0  0  0  1  0  0  0  0  0  0
  192.7540  173.6350  136.2060 C   0  0  0  0  0  0  0  0  0  0  0  0
  192.3230  172.6620  135.3850 C   0  0  0  0  0  3  0  0  0  0  0  0
  196.8060  173.7330  137.6010 C   0  0  0  0  0  0  0  0  0  0  0  0
  194.1420  173.6820  136.7110 C   0  0  0  0  0  0  0  0  0  0  0  0
  195.0210  174.6680  136.2450 C   0  0  0  0  0  3  0  0  0  0  0  0
  195.9300  172.7430  138.0580 C   0  0  0  0  0  3  0  0  0  0  0  0
  194.6050  172.7130  137.6120 C   0  0  0  0  0  3  0  0  0  0  0  0
  196.3450  174.6980  136.6910 C   0  0  0  0  0  3  0  0  0  0  0  0
  198.1570  173.7440  138.0720 N   0  0  0  0  0  2  0  0  0  0  0  0
  198.7930  174.9120  138.6690 C   0  0  0  0  0  2  0  0  0  0  0  0
  198.1860  175.2060  139.9980 C   0  0  0  0  0  0  0  0  0  0  0  0
  198.8390  174.9870  141.0510 O   0  0  0  0  0  1  0  0  0  0  0  0
  196.8900  175.6980  140.0760 O   0  0  0  0  0  0  0  0  0  0  0  0
  193.0750  171.4830  134.9170 C   0  0  0  0  0  0  0  0  0  0  0  0
  194.1920  171.5930  134.3480 O   0  0  0  0  0  0  0  0  0  0  0  0
  192.5310  170.1870  135.1370 N   0  0  0  0  0  1  0  0  0  0  0  0
  189.7110  177.3560  134.9520 C   0  0  0  0  0  2  0  0  0  0  0  0
  187.4100  177.8310  134.5390 O   0  0  0  0  0  0  0  0  0  0  0  0
  187.9630  175.6090  134.6390 O   0  0  0  0  0  1  0  0  0  0  0  0
  188.3010  176.9540  134.6850 C   0  0  0  0  0  0  0  0  0  0  0  0
  1  3  1  0  0  0  0
  2  8  2  0  0  0  0
  3 13  1  0  0  0  0
  4  2  1  0  0  0  0
  5 11  2  0  0  0  0
  6 10  2  0  0  0  0
  7  3  2  0  0  0  0
  8  7  1  0  0  0  0
  9  6  1  0  0  0  0
  9  4  2  0  0  0  0
 10  5  1  0  0  0  0
 10  8  1  0  0  0  0
 11  1  1  0  0  0  0
 13 12  2  0  0  0  0
 13 14  1  0  0  0  0
 14 15  1  0  0  0  0
 15 16  1  0  0  0  0
 16 17  1  0  0  0  0
 18 20  2  0  0  0  0
 20 19  1  0  0  0  0
 20 17  1  0  0  0  0
 21 22  1  0  0  0  0
 23 21  2  0  0  0  0
 24 19  1  0  0  0  0
 24 21  1  0  0  0  0
 25 24  1  0  0  0  0
 27 26  1  6  0  0  0
 27 25  1  0  0  0  0
 28 27  1  0  0  0  0
 29 28  1  0  0  0  0
 30 32  2  0  0  0  0
 31 30  2  0  0  0  0
 32 33  1  0  0  0  0
 32 29  1  0  0  0  0
 34 33  1  0  0  0  0
 35  4  1  0  0  0  0
 35 38  1  0  0  0  0
 36 35  2  0  0  0  0
 37 40  1  0  0  0  0
 37 43  1  0  0  0  0
 38 41  1  0  0  0  0
 39 42  1  0  0  0  0
 39 38  2  0  0  0  0
 41 40  2  0  0  0  0
 42 37  2  0  0  0  0
 43 44  1  0  0  0  0
 44 45  1  0  0  0  0
 45 47  2  0  0  0  0
 45 46  1  0  0  0  0
 48 50  1  0  0  0  0
 48 36  1  0  0  0  0
 49 48  2  0  0  0  0
 51  6  1  0  0  0  0
 52 54  2  0  0  0  0
 53 54  1  0  0  0  0
 54 51  1  0  0  0  0
M  END
>  <MODEL>
6

>  <REMARK>
 VINA RESULT:      -6.6      3.675      8.889
  Name = 
  20 active torsions:
  status: ('A' for Active; 'I' for Inactive)
    1  A    between atoms: C_2  and  C_27
    2  A    between atoms: C_2  and  C_54
    3  A    between atoms: C_4  and  C_48
    4  A    between atoms: C_5  and  C_52
    5  A    between atoms: C_6  and  C_50
    6  A    between atoms: C_8  and  N_13
    7  A    between atoms: C_9  and  C_25
    8  A    between atoms: C_12  and  C_25
    9  A    between atoms: N_13  and  C_52
   10  A    between atoms: C_16  and  C_19
   11  A    between atoms: C_16  and  C_37
   12  A    between atoms: N_17  and  N_51
   13  A    between atoms: C_18  and  C_46
   14  A    between atoms: C_18  and  N_51
   15  A    between atoms: C_19  and  C_46
   16  A    between atoms: S_20  and  C_35
   17  A    between atoms: S_20  and  C_41
   18  A    between atoms: C_26  and  C_37
   19  A    between atoms: C_41  and  C_49
   20  A    between atoms: C_49  and  N_53
                            x       y       z     vdW  Elec       q    Type
                         _______ _______ _______ _____ _____    ______ ____

>  <TORSDO>
F 20

$$$$
=
 OpenBabel10222421513D

 54 56  0  0  1  0  0  0  0  0999 V2000
  189.0840  177.2680  141.9600 C   0  0  0  0  0  2  0  0  0  0  0  0
  192.1020  176.1450  138.8040 N   0  0  0  0  0  0  0  0  0  0  0  0
  190.3040  176.7460  142.0600 C   0  0  0  0  0  0  0  0  0  0  0  0
  192.1880  176.2730  137.4550 C   0  0  0  0  0  0  0  0  0  0  0  0
  188.6530  177.5320  139.4960 C   0  0  0  0  0  3  0  0  0  0  0  0
  189.9890  177.2610  137.4530 C   0  0  0  0  0  0  0  0  0  0  0  0
  191.1210  176.3720  140.9480 N   0  0  0  0  0  0  0  0  0  0  0  0
  191.0230  176.5460  139.5300 C   0  0  0  0  0  0  0  0  0  0  0  0
  191.1230  176.8450  136.7630 C   0  0  0  0  0  3  0  0  0  0  0  0
  189.9130  177.1140  138.8580 C   0  0  0  0  0  0  0  0  0  0  0  0
  188.3050  177.5960  140.7720 C   0  0  0  0  0  3  0  0  0  0  0  0
  191.4220  175.4370  143.6800 O   0  0  0  0  0  0  0  0  0  0  0  0
  190.8550  176.5300  143.4090 C   0  0  0  0  0  0  0  0  0  0  0  0
  190.7540  177.5500  144.4090 N   0  0  0  0  0  2  0  0  0  0  0  0
  191.4010  177.4470  145.7090 C   0  0  0  0  0  2  0  0  0  0  0  0
  190.4780  176.7710  146.7080 C   0  0  0  0  0  2  0  0  0  0  0  0
  189.6870  178.0210  147.7670 S   0  0  0  0  0  0  0  0  0  0  0  0
  187.3550  176.7130  147.7080 N   0  0  0  0  0  2  0  0  0  0  0  0
  187.5860  178.3010  145.9670 N   0  0  0  0  0  2  0  0  0  0  0  0
  188.0560  177.6420  147.1450 C   0  0  0  0  0  0  0  0  0  0  0  0
  185.2370  179.0250  146.3140 C   0  0  0  0  0  0  0  0  0  0  0  0
  185.5990  179.8380  147.3820 O   0  0  0  0  0  1  0  0  0  0  0  0
  184.0230  178.9370  145.9920 O   0  0  0  0  0  0  0  0  0  0  0  0
  186.2380  178.3140  145.5660 N   0  0  0  0  0  0  0  0  0  0  0  0
  185.9000  177.7000  144.2880 C   0  0  0  0  0  2  0  0  0  0  0  0
  186.2970  179.4310  142.7020 O   0  0  0  0  0  1  0  0  0  0  0  0
  185.2840  178.7290  143.3570 C   0  0  1  0  0  3  0  0  0  0  0  0
  184.3860  178.0520  142.3310 C   0  0  0  0  0  2  0  0  0  0  0  0
  183.0640  178.8000  142.1850 C   0  0  0  0  0  2  0  0  0  0  0  0
  181.2030  178.3450  140.6960 C   0  0  0  0  0  0  0  0  0  0  0  0
  180.0030  178.0680  140.5780 O   0  0  0  0  0  0  0  0  0  0  0  0
  182.4690  178.6380  140.8190 C   0  0  0  0  0  0  0  0  0  0  0  0
  183.2660  178.9120  139.5830 C   0  0  0  0  0  2  0  0  0  0  0  0
  184.3750  179.7140  139.8610 O   0  0  0  0  0  1  0  0  0  0  0  0
  193.4030  175.8200  136.7350 C   0  0  0  0  0  0  0  0  0  0  0  0
  193.9900  176.6690  135.8740 C   0  0  0  0  0  3  0  0  0  0  0  0
  194.8850  171.8800  137.5380 C   0  0  0  0  0  0  0  0  0  0  0  0
  193.9350  174.4670  136.9940 C   0  0  0  0  0  0  0  0  0  0  0  0
  193.3930  173.3630  136.3240 C   0  0  0  0  0  3  0  0  0  0  0  0
  195.4190  172.9820  138.2140 C   0  0  0  0  0  3  0  0  0  0  0  0
  194.9440  174.2710  137.9480 C   0  0  0  0  0  3  0  0  0  0  0  0
  193.8680  172.0760  136.5900 C   0  0  0  0  0  3  0  0  0  0  0  0
  195.3880  170.5720  137.8260 N   0  0  0  0  0  2  0  0  0  0  0  0
  196.6840  170.0870  137.3660 C   0  0  0  0  0  2  0  0  0  0  0  0
  196.7360  168.5990  137.4500 C   0  0  0  0  0  0  0  0  0  0  0  0
  197.1690  167.9280  136.4790 O   0  0  0  0  0  0  0  0  0  0  0  0
  196.2840  167.9520  138.5930 O   0  0  0  0  0  1  0  0  0  0  0  0
  195.1590  176.4090  135.0140 C   0  0  0  0  0  0  0  0  0  0  0  0
  195.2680  175.3460  134.3480 O   0  0  0  0  0  0  0  0  0  0  0  0
  196.1780  177.3960  134.9190 N   0  0  0  0  0  1  0  0  0  0  0  0
  188.8890  177.8960  136.6580 C   0  0  0  0  0  2  0  0  0  0  0  0
  187.0750  176.3480  136.6990 O   0  0  0  0  0  1  0  0  0  0  0  0
  188.2910  176.4020  134.7560 O   0  0  0  0  0  0  0  0  0  0  0  0
  188.0240  176.8510  136.0420 C   0  0  0  0  0  0  0  0  0  0  0  0
  1  3  1  0  0  0  0
  2  8  2  0  0  0  0
  3 13  1  0  0  0  0
  4  2  1  0  0  0  0
  5 11  2  0  0  0  0
  6 10  2  0  0  0  0
  7  3  2  0  0  0  0
  8  7  1  0  0  0  0
  9  6  1  0  0  0  0
  9  4  2  0  0  0  0
 10  5  1  0  0  0  0
 10  8  1  0  0  0  0
 11  1  1  0  0  0  0
 13 12  2  0  0  0  0
 13 14  1  0  0  0  0
 14 15  1  0  0  0  0
 15 16  1  0  0  0  0
 16 17  1  0  0  0  0
 19 20  1  0  0  0  0
 20 18  2  0  0  0  0
 20 17  1  0  0  0  0
 21 22  1  0  0  0  0
 23 21  2  0  0  0  0
 24 19  1  0  0  0  0
 24 21  1  0  0  0  0
 25 24  1  0  0  0  0
 27 26  1  6  0  0  0
 27 25  1  0  0  0  0
 28 27  1  0  0  0  0
 29 28  1  0  0  0  0
 30 32  2  0  0  0  0
 31 30  2  0  0  0  0
 32 29  1  0  0  0  0
 33 34  1  0  0  0  0
 33 32  1  0  0  0  0
 35 38  1  0  0  0  0
 35  4  1  0  0  0  0
 36 35  2  0  0  0  0
 37 43  1  0  0  0  0
 37 40  1  0  0  0  0
 38 41  1  0  0  0  0
 39 42  1  0  0  0  0
 39 38  2  0  0  0  0
 41 40  2  0  0  0  0
 42 37  2  0  0  0  0
 44 45  1  0  0  0  0
 44 43  1  0  0  0  0
 45 47  1  0  0  0  0
 46 45  2  0  0  0  0
 48 36  1  0  0  0  0
 49 48  2  0  0  0  0
 50 48  1  0  0  0  0
 51  6  1  0  0  0  0
 53 54  2  0  0  0  0
 54 51  1  0  0  0  0
 54 52  1  0  0  0  0
M  END
>  <MODEL>
7

>  <REMARK>
 VINA RESULT:      -6.3      3.958      9.203
  Name = 
  20 active torsions:
  status: ('A' for Active; 'I' for Inactive)
    1  A    between atoms: C_2  and  C_27
    2  A    between atoms: C_2  and  C_54
    3  A    between atoms: C_4  and  C_48
    4  A    between atoms: C_5  and  C_52
    5  A    between atoms: C_6  and  C_50
    6  A    between atoms: C_8  and  N_13
    7  A    between atoms: C_9  and  C_25
    8  A    between atoms: C_12  and  C_25
    9  A    between atoms: N_13  and  C_52
   10  A    between atoms: C_16  and  C_19
   11  A    between atoms: C_16  and  C_37
   12  A    between atoms: N_17  and  N_51
   13  A    between atoms: C_18  and  C_46
   14  A    between atoms: C_18  and  N_51
   15  A    between atoms: C_19  and  C_46
   16  A    between atoms: S_20  and  C_35
   17  A    between atoms: S_20  and  C_41
   18  A    between atoms: C_26  and  C_37
   19  A    between atoms: C_41  and  C_49
   20  A    between atoms: C_49  and  N_53
                            x       y       z     vdW  Elec       q    Type
                         _______ _______ _______ _____ _____    ______ ____

>  <TORSDO>
F 20

$$$$
=
 OpenBabel10222421513D

 54 56  0  0  1  0  0  0  0  0999 V2000
  191.0030  177.3250  139.3730 C   0  0  0  0  0  3  0  0  0  0  0  0
  187.9650  177.9320  142.6490 N   0  0  0  0  0  0  0  0  0  0  0  0
  189.6910  177.5380  139.3230 C   0  0  0  0  0  0  0  0  0  0  0  0
  188.0090  178.0620  144.0010 C   0  0  0  0  0  0  0  0  0  0  0  0
  191.5950  177.2720  141.8180 C   0  0  0  0  0  3  0  0  0  0  0  0
  190.3930  177.7200  143.9120 C   0  0  0  0  0  0  0  0  0  0  0  0
  188.8400  177.6390  140.4680 N   0  0  0  0  0  2  0  0  0  0  0  0
  189.0660  177.7070  141.8800 C   0  0  0  0  0  0  0  0  0  0  0  0
  189.2380  177.9620  144.6480 C   0  0  0  0  0  3  0  0  0  0  0  0
  190.3300  177.5800  142.5060 C   0  0  0  0  0  0  0  0  0  0  0  0
  191.8780  177.1630  140.5290 C   0  0  0  0  0  3  0  0  0  0  0  0
  189.6220  177.1620  136.9900 O   0  0  0  0  0  0  0  0  0  0  0  0
  189.0630  177.6750  137.9970 C   0  0  0  0  0  0  0  0  0  0  0  0
  187.8260  178.3810  137.8470 N   0  0  0  0  0  2  0  0  0  0  0  0
  187.0930  178.4260  136.5900 C   0  0  0  0  0  2  0  0  0  0  0  0
  186.3790  177.1070  136.3460 C   0  0  0  0  0  2  0  0  0  0  0  0
  184.6150  177.2690  136.7620 S   0  0  0  0  0  0  0  0  0  0  0  0
  184.3410  175.5040  134.7720 N   0  0  0  0  0  2  0  0  0  0  0  0
  183.6500  174.6650  136.8750 N   0  0  0  0  0  2  0  0  0  0  0  0
  184.2110  175.6840  136.0460 C   0  0  0  0  0  0  0  0  0  0  0  0
  182.4860  172.8020  135.7170 C   0  0  0  0  0  0  0  0  0  0  0  0
  181.5430  173.6690  135.1780 O   0  0  0  0  0  0  0  0  0  0  0  0
  182.3920  171.5680  135.4870 O   0  0  0  0  0  1  0  0  0  0  0  0
  183.5770  173.3100  136.5050 N   0  0  0  0  0  0  0  0  0  0  0  0
  184.7110  172.4530  136.8260 C   0  0  0  0  0  2  0  0  0  0  0  0
  186.7660  173.1090  137.8340 O   0  0  0  0  0  1  0  0  0  0  0  0
  186.0110  173.2190  136.6650 C   0  0  1  0  0  3  0  0  0  0  0  0
  186.8110  172.6750  135.4890 C   0  0  0  0  0  2  0  0  0  0  0  0
  188.2250  172.2970  135.9190 C   0  0  0  0  0  2  0  0  0  0  0  0
  190.0480  173.6620  136.7560 C   0  0  0  0  0  0  0  0  0  0  0  0
  190.8740  173.8660  137.6540 O   0  0  0  0  0  0  0  0  0  0  0  0
  189.1790  173.4470  135.8050 C   0  0  0  0  0  0  0  0  0  0  0  0
  189.2350  174.2970  134.5750 C   0  0  0  0  0  2  0  0  0  0  0  0
  190.4960  174.8740  134.4140 O   0  0  0  0  0  1  0  0  0  0  0  0
  186.7670  178.3160  144.7690 C   0  0  0  0  0  0  0  0  0  0  0  0
  186.8540  178.4370  146.1050 C   0  0  0  0  0  3  0  0  0  0  0  0
  183.0720  178.7450  142.6400 C   0  0  0  0  0  0  0  0  0  0  0  0
  185.4830  178.4410  144.0490 C   0  0  0  0  0  0  0  0  0  0  0  0
  185.3580  177.9330  142.7500 C   0  0  0  0  0  3  0  0  0  0  0  0
  183.2010  179.2600  143.9340 C   0  0  0  0  0  3  0  0  0  0  0  0
  184.4020  179.1140  144.6360 C   0  0  0  0  0  3  0  0  0  0  0  0
  184.1580  178.0790  142.0500 C   0  0  0  0  0  3  0  0  0  0  0  0
  181.8330  178.9050  141.9430 N   0  0  0  0  0  2  0  0  0  0  0  0
  180.9440  177.7980  141.6140 C   0  0  0  0  0  2  0  0  0  0  0  0
  181.2580  177.2710  140.2560 C   0  0  0  0  0  0  0  0  0  0  0  0
  182.3100  177.6310  139.6680 O   0  0  0  0  0  1  0  0  0  0  0  0
  180.3770  176.4000  139.6270 O   0  0  0  0  0  0  0  0  0  0  0  0
  185.7500  178.6290  147.0640 C   0  0  0  0  0  0  0  0  0  0  0  0
  184.9130  177.7180  147.3000 O   0  0  0  0  0  0  0  0  0  0  0  0
  185.6430  179.8680  147.7530 N   0  0  0  0  0  1  0  0  0  0  0  0
  191.6900  177.6540  144.6610 C   0  0  0  0  0  2  0  0  0  0  0  0
  191.8870  175.4160  145.4630 O   0  0  0  0  0  0  0  0  0  0  0  0
  191.2180  176.9690  147.0100 O   0  0  0  0  0  1  0  0  0  0  0  0
  191.6190  176.6170  145.7300 C   0  0  0  0  0  0  0  0  0  0  0  0
  1 11  1  0  0  0  0
  2  4  1  0  0  0  0
  3  1  2  0  0  0  0
  3  7  1  0  0  0  0
  4  9  2  0  0  0  0
  4 35  1  0  0  0  0
  5 10  1  0  0  0  0
  6  9  1  0  0  0  0
  6 51  1  0  0  0  0
  7  8  1  0  0  0  0
  8 10  1  0  0  0  0
  8  2  2  0  0  0  0
 10  6  2  0  0  0  0
 11  5  2  0  0  0  0
 12 13  2  0  0  0  0
 13  3  1  0  0  0  0
 14 13  1  0  0  0  0
 15 14  1  0  0  0  0
 16 15  1  0  0  0  0
 16 17  1  0  0  0  0
 18 20  2  0  0  0  0
 20 17  1  0  0  0  0
 20 19  1  0  0  0  0
 21 24  1  0  0  0  0
 22 21  2  0  0  0  0
 23 21  1  0  0  0  0
 24 25  1  0  0  0  0
 24 19  1  0  0  0  0
 27 25  1  0  0  0  0
 27 26  1  1  0  0  0
 28 29  1  0  0  0  0
 28 27  1  0  0  0  0
 30 31  2  0  0  0  0
 32 29  1  0  0  0  0
 32 30  2  0  0  0  0
 33 32  1  0  0  0  0
 34 33  1  0  0  0  0
 35 36  2  0  0  0  0
 36 48  1  0  0  0  0
 37 40  1  0  0  0  0
 38 41  1  0  0  0  0
 38 35  1  0  0  0  0
 39 38  2  0  0  0  0
 40 41  2  0  0  0  0
 42 37  2  0  0  0  0
 42 39  1  0  0  0  0
 43 37  1  0  0  0  0
 44 43  1  0  0  0  0
 45 44  1  0  0  0  0
 46 45  1  0  0  0  0
 47 45  2  0  0  0  0
 48 49  2  0  0  0  0
 48 50  1  0  0  0  0
 51 54  1  0  0  0  0
 52 54  2  0  0  0  0
 54 53  1  0  0  0  0
M  END
>  <MODEL>
8

>  <REMARK>
 VINA RESULT:      -6.1      2.203      6.300
  Name = 
  20 active torsions:
  status: ('A' for Active; 'I' for Inactive)
    1  A    between atoms: C_2  and  C_27
    2  A    between atoms: C_2  and  C_54
    3  A    between atoms: C_4  and  C_48
    4  A    between atoms: C_5  and  C_52
    5  A    between atoms: C_6  and  C_50
    6  A    between atoms: C_8  and  N_13
    7  A    between atoms: C_9  and  C_25
    8  A    between atoms: C_12  and  C_25
    9  A    between atoms: N_13  and  C_52
   10  A    between atoms: C_16  and  C_19
   11  A    between atoms: C_16  and  C_37
   12  A    between atoms: N_17  and  N_51
   13  A    between atoms: C_18  and  C_46
   14  A    between atoms: C_18  and  N_51
   15  A    between atoms: C_19  and  C_46
   16  A    between atoms: S_20  and  C_35
   17  A    between atoms: S_20  and  C_41
   18  A    between atoms: C_26  and  C_37
   19  A    between atoms: C_41  and  C_49
   20  A    between atoms: C_49  and  N_53
                            x       y       z     vdW  Elec       q    Type
                         _______ _______ _______ _____ _____    ______ ____

>  <TORSDO>
F 20

$$$$
=
 OpenBabel10222421513D

 54 56  0  0  1  0  0  0  0  0999 V2000
  191.0980  177.5580  139.2900 C   0  0  0  0  0  3  0  0  0  0  0  0
  188.0730  178.0080  142.6030 N   0  0  0  0  0  0  0  0  0  0  0  0
  189.7910  177.8040  139.2560 C   0  0  0  0  0  0  0  0  0  0  0  0
  188.1180  178.0430  143.9600 C   0  0  0  0  0  0  0  0  0  0  0  0
  191.6860  177.3220  141.7250 C   0  0  0  0  0  3  0  0  0  0  0  0
  190.4940  177.6520  143.8460 C   0  0  0  0  0  0  0  0  0  0  0  0
  188.9420  177.8460  140.4060 N   0  0  0  0  0  2  0  0  0  0  0  0
  189.1680  177.8110  141.8190 C   0  0  0  0  0  0  0  0  0  0  0  0
  189.3440  177.8700  144.5980 C   0  0  0  0  0  3  0  0  0  0  0  0
  190.4290  177.6120  142.4330 C   0  0  0  0  0  0  0  0  0  0  0  0
  191.9680  177.2960  140.4310 C   0  0  0  0  0  3  0  0  0  0  0  0
  189.8430  177.8680  136.8930 O   0  0  0  0  0  0  0  0  0  0  0  0
  189.1680  178.0480  137.9430 C   0  0  0  0  0  0  0  0  0  0  0  0
  187.8060  178.4810  137.8530 N   0  0  0  0  0  2  0  0  0  0  0  0
  187.0990  178.6000  136.5860 C   0  0  0  0  0  2  0  0  0  0  0  0
  187.2080  177.3070  135.7960 C   0  0  0  0  0  2  0  0  0  0  0  0
  185.7630  176.2530  136.1270 S   0  0  0  0  0  0  0  0  0  0  0  0
  186.8460  174.5760  134.3480 N   0  0  0  0  0  2  0  0  0  0  0  0
  186.9350  173.7720  136.5720 N   0  0  0  0  0  2  0  0  0  0  0  0
  186.6130  174.7720  135.6040 C   0  0  0  0  0  0  0  0  0  0  0  0
  187.4930  171.5690  135.5730 C   0  0  0  0  0  0  0  0  0  0  0  0
  186.2710  171.5090  134.9140 O   0  0  0  0  0  0  0  0  0  0  0  0
  188.2970  170.6050  135.4690 O   0  0  0  0  0  1  0  0  0  0  0  0
  187.8510  172.7300  136.3430 N   0  0  0  0  0  0  0  0  0  0  0  0
  189.2250  172.9180  136.7910 C   0  0  0  0  0  2  0  0  0  0  0  0
  190.1200  174.7000  138.0910 O   0  0  0  0  0  1  0  0  0  0  0  0
  189.5620  174.3960  136.8480 C   0  0  1  0  0  3  0  0  0  0  0  0
  190.5440  174.7660  135.7450 C   0  0  0  0  0  2  0  0  0  0  0  0
  191.7970  173.8970  135.8160 C   0  0  0  0  0  2  0  0  0  0  0  0
  193.8560  173.8420  137.0990 C   0  0  0  0  0  0  0  0  0  0  0  0
  194.7570  173.1580  137.6000 O   0  0  0  0  0  0  0  0  0  0  0  0
  192.9070  174.5660  136.5700 C   0  0  0  0  0  0  0  0  0  0  0  0
  193.0170  176.0560  136.6400 C   0  0  0  0  0  2  0  0  0  0  0  0
  194.3260  176.4810  136.4090 O   0  0  0  0  0  1  0  0  0  0  0  0
  186.8820  178.2720  144.7450 C   0  0  0  0  0  0  0  0  0  0  0  0
  186.9770  178.3360  146.0850 C   0  0  0  0  0  3  0  0  0  0  0  0
  183.1830  178.8100  142.6490 C   0  0  0  0  0  0  0  0  0  0  0  0
  185.5950  178.4370  144.0380 C   0  0  0  0  0  0  0  0  0  0  0  0
  185.4100  177.8500  142.7800 C   0  0  0  0  0  3  0  0  0  0  0  0
  183.3730  179.4030  143.9010 C   0  0  0  0  0  3  0  0  0  0  0  0
  184.5750  179.2220  144.5930 C   0  0  0  0  0  3  0  0  0  0  0  0
  184.2090  178.0310  142.0900 C   0  0  0  0  0  3  0  0  0  0  0  0
  181.9440  179.0080  141.9610 N   0  0  0  0  0  2  0  0  0  0  0  0
  181.5150  178.2030  140.8240 C   0  0  0  0  0  2  0  0  0  0  0  0
  182.2250  178.6400  139.5880 C   0  0  0  0  0  0  0  0  0  0  0  0
  182.5730  177.7910  138.7280 O   0  0  0  0  0  0  0  0  0  0  0  0
  182.5230  179.9830  139.3960 O   0  0  0  0  0  1  0  0  0  0  0  0
  185.8790  178.4930  147.0560 C   0  0  0  0  0  0  0  0  0  0  0  0
  185.6040  179.6090  147.5710 O   0  0  0  0  0  0  0  0  0  0  0  0
  185.0970  177.3570  147.4020 N   0  0  0  0  0  1  0  0  0  0  0  0
  191.7880  177.5040  144.5880 C   0  0  0  0  0  2  0  0  0  0  0  0
  191.7500  175.2760  145.4400 O   0  0  0  0  0  0  0  0  0  0  0  0
  191.3550  176.9340  146.9740 O   0  0  0  0  0  1  0  0  0  0  0  0
  191.6450  176.5070  145.6860 C   0  0  0  0  0  0  0  0  0  0  0  0
  1 11  1  0  0  0  0
  2  4  1  0  0  0  0
  3  1  2  0  0  0  0
  3  7  1  0  0  0  0
  4  9  2  0  0  0  0
  4 35  1  0  0  0  0
  5 10  1  0  0  0  0
  6 51  1  0  0  0  0
  6  9  1  0  0  0  0
  7  8  1  0  0  0  0
  8 10  1  0  0  0  0
  8  2  2  0  0  0  0
 10  6  2  0  0  0  0
 11  5  2  0  0  0  0
 12 13  2  0  0  0  0
 13  3  1  0  0  0  0
 14 13  1  0  0  0  0
 15 14  1  0  0  0  0
 16 17  1  0  0  0  0
 16 15  1  0  0  0  0
 18 20  2  0  0  0  0
 20 17  1  0  0  0  0
 20 19  1  0  0  0  0
 21 24  1  0  0  0  0
 22 21  2  0  0  0  0
 23 21  1  0  0  0  0
 24 19  1  0  0  0  0
 24 25  1  0  0  0  0
 25 27  1  0  0  0  0
 27 26  1  1  0  0  0
 28 29  1  0  0  0  0
 28 27  1  0  0  0  0
 29 32  1  0  0  0  0
 30 31  2  0  0  0  0
 32 33  1  0  0  0  0
 32 30  2  0  0  0  0
 34 33  1  0  0  0  0
 35 36  2  0  0  0  0
 36 48  1  0  0  0  0
 37 40  1  0  0  0  0
 38 41  1  0  0  0  0
 38 35  1  0  0  0  0
 39 38  2  0  0  0  0
 40 41  2  0  0  0  0
 42 37  2  0  0  0  0
 42 39  1  0  0  0  0
 43 37  1  0  0  0  0
 44 43  1  0  0  0  0
 45 44  1  0  0  0  0
 46 45  2  0  0  0  0
 47 45  1  0  0  0  0
 48 50  1  0  0  0  0
 48 49  2  0  0  0  0
 51 54  1  0  0  0  0
 52 54  2  0  0  0  0
 54 53  1  0  0  0  0
M  END
>  <MODEL>
9

>  <REMARK>
 VINA RESULT:      -6.0      2.535      6.837
  Name = 
  20 active torsions:
  status: ('A' for Active; 'I' for Inactive)
    1  A    between atoms: C_2  and  C_27
    2  A    between atoms: C_2  and  C_54
    3  A    between atoms: C_4  and  C_48
    4  A    between atoms: C_5  and  C_52
    5  A    between atoms: C_6  and  C_50
    6  A    between atoms: C_8  and  N_13
    7  A    between atoms: C_9  and  C_25
    8  A    between atoms: C_12  and  C_25
    9  A    between atoms: N_13  and  C_52
   10  A    between atoms: C_16  and  C_19
   11  A    between atoms: C_16  and  C_37
   12  A    between atoms: N_17  and  N_51
   13  A    between atoms: C_18  and  C_46
   14  A    between atoms: C_18  and  N_51
   15  A    between atoms: C_19  and  C_46
   16  A    between atoms: S_20  and  C_35
   17  A    between atoms: S_20  and  C_41
   18  A    between atoms: C_26  and  C_37
   19  A    between atoms: C_41  and  C_49
   20  A    between atoms: C_49  and  N_53
                            x       y       z     vdW  Elec       q    Type
                         _______ _______ _______ _____ _____    ______ ____

>  <TORSDO>
F 20

$$$$
