=
 OpenBabel10222421353D

 43 46  0  0  1  0  0  0  0  0999 V2000
  190.1020  176.9760  139.6320 C   0  0  1  0  0  3  0  0  0  0  0  0
  190.3710  176.8510  141.0990 C   0  0  0  0  0  0  0  0  0  0  0  0
  190.9510  177.1960  143.2420 C   0  0  0  0  0  0  0  0  0  0  0  0
  191.0580  177.8840  141.9200 C   0  0  0  0  0  2  0  0  0  0  0  0
  189.9770  175.8500  141.8140 N   0  0  0  0  0  0  0  0  0  0  0  0
  190.3330  176.0690  143.1460 N   0  0  0  0  0  0  0  0  0  0  0  0
  191.3650  177.7760  144.5520 C   0  0  1  0  0  3  0  0  0  0  0  0
  191.7950  179.1520  144.3770 N   0  0  0  0  0  1  0  0  0  0  0  0
  190.2470  177.7220  145.4990 C   0  0  0  0  0  0  0  0  0  0  0  0
  189.3260  177.6860  146.2760 C   0  0  0  0  0  0  0  0  0  0  0  0
  188.2070  177.6460  147.2200 C   0  0  0  0  0  2  0  0  0  0  0  0
  185.4010  178.3970  145.0500 N   0  0  0  0  0  0  0  0  0  0  0  0
  186.6450  177.9090  145.2110 C   0  0  0  0  0  3  0  0  0  0  0  0
  184.6740  178.4340  143.8180 C   0  0  0  0  0  0  0  0  0  0  0  0
  185.8520  178.6510  147.1530 C   0  0  0  0  0  3  0  0  0  0  0  0
  184.1940  178.1740  141.7050 N   0  0  0  0  0  0  0  0  0  0  0  0
  183.1330  178.7270  142.1950 C   0  0  0  0  0  3  0  0  0  0  0  0
  183.2990  178.9780  143.6590 C   0  0  0  0  0  2  0  0  0  0  0  0
  185.1490  177.9910  142.7050 N   0  0  0  0  0  0  0  0  0  0  0  0
  184.9180  178.8410  146.2010 N   0  0  0  0  0  0  0  0  0  0  0  0
  186.9510  178.0730  146.5450 C   0  0  0  0  0  0  0  0  0  0  0  0
  188.0240  178.1140  139.7380 C   0  0  0  0  0  2  0  0  0  0  0  0
  188.9780  178.2090  137.9450 C   0  0  0  0  0  2  0  0  0  0  0  0
  189.4230  178.2400  139.3360 N   0  0  0  0  0  0  0  0  0  0  0  0
  187.5200  178.0920  138.3160 C   0  0  0  0  0  2  0  0  0  0  0  0
  191.3650  176.9000  138.9130 N   0  0  0  0  0  2  0  0  0  0  0  0
  191.3350  175.6650  138.1450 C   0  0  0  0  0  2  0  0  0  0  0  0
  191.7520  175.9060  136.6970 C   0  0  1  0  0  3  0  0  0  0  0  0
  193.2650  175.7490  136.4870 C   0  0  0  0  0  2  0  0  0  0  0  0
  195.2150  174.5750  137.5940 C   0  0  0  0  0  0  0  0  0  0  0  0
  196.0450  175.2310  136.9080 O   0  0  0  0  0  0  0  0  0  0  0  0
  193.8100  174.7750  137.4240 N   0  0  0  0  0  2  0  0  0  0  0  0
  195.7020  173.6070  138.6110 C   0  0  0  0  0  2  0  0  0  0  0  0
  195.2170  171.4710  137.4610 C   0  0  0  0  0  1  0  0  0  0  0  0
  196.3170  172.4040  137.9230 C   0  0  0  0  0  2  0  0  0  0  0  0
  190.9340  175.1060  135.7730 N   0  0  0  0  0  0  0  0  0  0  0  0
  189.9900  176.7290  134.6420 C   0  0  0  0  0  1  0  0  0  0  0  0
  189.7300  175.7060  135.5580 O   0  0  0  0  0  0  0  0  0  0  0  0
  190.7400  173.7650  136.3470 C   0  0  0  0  0  3  0  0  0  0  0  0
  189.2840  173.4710  136.7060 C   0  0  0  0  0  2  0  0  0  0  0  0
  188.8080  172.4080  135.9380 O   0  0  0  0  0  1  0  0  0  0  0  0
  192.0400  173.3000  134.3990 O   0  0  0  0  0  1  0  0  0  0  0  0
  191.2800  172.7010  135.4030 C   0  0  0  0  0  2  0  0  0  0  0  0
  1 26  1  6  0  0  0
  1  2  1  0  0  0  0
  2  5  2  0  0  0  0
  2  4  1  0  0  0  0
  3  7  1  0  0  0  0
  4  3  1  0  0  0  0
  5  6  1  0  0  0  0
  6  3  2  0  0  0  0
  7  8  1  6  0  0  0
  7  9  1  0  0  0  0
  9 10  3  0  0  0  0
 10 11  1  0  0  0  0
 12 13  1  0  0  0  0
 12 20  1  0  0  0  0
 13 21  2  0  0  0  0
 14 12  1  0  0  0  0
 16 17  2  0  0  0  0
 16 19  1  0  0  0  0
 17 18  1  0  0  0  0
 18 14  1  0  0  0  0
 19 14  2  0  0  0  0
 20 15  2  0  0  0  0
 21 15  1  0  0  0  0
 21 11  1  0  0  0  0
 23 25  1  0  0  0  0
 23 24  1  0  0  0  0
 24  1  1  0  0  0  0
 24 22  1  0  0  0  0
 25 22  1  0  0  0  0
 27 26  1  0  0  0  0
 28 29  1  1  0  0  0
 28 27  1  0  0  0  0
 29 32  1  0  0  0  0
 30 33  1  0  0  0  0
 31 30  2  0  0  0  0
 32 30  1  0  0  0  0
 34 35  1  0  0  0  0
 35 33  1  0  0  0  0
 36 39  1  0  0  0  0
 36 28  1  0  0  0  0
 37 38  1  0  0  0  0
 38 36  1  0  0  0  0
 39 40  1  0  0  0  0
 41 40  1  0  0  0  0
 42 43  1  0  0  0  0
 43 39  1  0  0  0  0
M  END
>  <MODEL>
1

>  <REMARK>
 VINA RESULT:      -7.1      0.000      0.000
  Name = 
  18 active torsions:
  status: ('A' for Active; 'I' for Inactive)
    1  A    between atoms: C_3  and  C_9
    2  A    between atoms: C_3  and  C_22
    3  A    between atoms: C_5  and  C_42
    4  A    between atoms: C_8  and  C_35
    5  A    between atoms: C_12  and  N_24
    6  A    between atoms: C_12  and  C_27
    7  A    between atoms: C_13  and  C_39
    8  A    between atoms: C_14  and  C_21
    9  A    between atoms: C_14  and  C_41
   10  A    between atoms: C_15  and  C_42
   11  A    between atoms: C_18  and  C_39
   12  A    between atoms: N_23  and  C_35
   13  A    between atoms: N_24  and  C_35
   14  A    between atoms: C_27  and  N_28
   15  A    between atoms: C_27  and  C_43
   16  A    between atoms: N_28  and  O_37
   17  A    between atoms: N_28  and  C_42
   18  A    between atoms: N_32  and  C_43
                            x       y       z     vdW  Elec       q    Type
                         _______ _______ _______ _____ _____    ______ ____

>  <TORSDO>
F 18

$$$$
=
 OpenBabel10222421353D

 43 46  0  0  1  0  0  0  0  0999 V2000
  190.3180  177.0070  139.4910 C   0  0  1  0  0  3  0  0  0  0  0  0
  190.4620  176.8840  140.9760 C   0  0  0  0  0  0  0  0  0  0  0  0
  190.9540  177.1870  143.1470 C   0  0  0  0  0  0  0  0  0  0  0  0
  191.2780  177.7960  141.8220 C   0  0  0  0  0  2  0  0  0  0  0  0
  189.8370  176.0010  141.6820 N   0  0  0  0  0  0  0  0  0  0  0  0
  190.1390  176.1940  143.0310 N   0  0  0  0  0  0  0  0  0  0  0  0
  191.3850  177.7220  144.4710 C   0  0  1  0  0  3  0  0  0  0  0  0
  191.8560  179.0890  144.3290 N   0  0  0  0  0  1  0  0  0  0  0  0
  190.2650  177.6790  145.4160 C   0  0  0  0  0  0  0  0  0  0  0  0
  189.3410  177.6520  146.1910 C   0  0  0  0  0  0  0  0  0  0  0  0
  188.2190  177.6230  147.1320 C   0  0  0  0  0  2  0  0  0  0  0  0
  185.4310  178.3650  144.9360 N   0  0  0  0  0  0  0  0  0  0  0  0
  186.6830  177.9020  145.1050 C   0  0  0  0  0  3  0  0  0  0  0  0
  184.7230  178.4180  143.6940 C   0  0  0  0  0  0  0  0  0  0  0  0
  185.8440  178.5760  147.0520 C   0  0  0  0  0  3  0  0  0  0  0  0
  184.2820  178.2020  141.5680 N   0  0  0  0  0  0  0  0  0  0  0  0
  183.2010  178.7180  142.0540 C   0  0  0  0  0  3  0  0  0  0  0  0
  183.3380  178.9350  143.5260 C   0  0  0  0  0  2  0  0  0  0  0  0
  185.2260  178.0150  142.5780 N   0  0  0  0  0  0  0  0  0  0  0  0
  184.9210  178.7690  146.0900 N   0  0  0  0  0  0  0  0  0  0  0  0
  186.9640  178.0390  146.4470 C   0  0  0  0  0  0  0  0  0  0  0  0
  188.1960  178.0510  139.6650 C   0  0  0  0  0  2  0  0  0  0  0  0
  189.0050  178.0280  137.7990 C   0  0  0  0  0  2  0  0  0  0  0  0
  189.5510  178.2060  139.1420 N   0  0  0  0  0  0  0  0  0  0  0  0
  187.5880  177.8760  138.2950 C   0  0  0  0  0  2  0  0  0  0  0  0
  191.6450  177.0640  138.8930 N   0  0  0  0  0  2  0  0  0  0  0  0
  191.7780  175.8800  138.0590 C   0  0  0  0  0  2  0  0  0  0  0  0
  193.1310  175.8500  137.3540 C   0  0  1  0  0  3  0  0  0  0  0  0
  194.2620  175.3700  138.2740 C   0  0  0  0  0  2  0  0  0  0  0  0
  195.9480  173.5270  137.8680 C   0  0  0  0  0  0  0  0  0  0  0  0
  195.6000  172.9270  138.9200 O   0  0  0  0  0  0  0  0  0  0  0  0
  195.3290  174.7590  137.4930 N   0  0  0  0  0  2  0  0  0  0  0  0
  196.9900  172.9300  136.9900 C   0  0  0  0  0  2  0  0  0  0  0  0
  198.8810  174.3600  136.2830 C   0  0  0  0  0  1  0  0  0  0  0  0
  198.3550  173.4600  137.3810 C   0  0  0  0  0  2  0  0  0  0  0  0
  193.0450  175.1220  136.0800 N   0  0  0  0  0  0  0  0  0  0  0  0
  193.9580  176.2510  134.4380 C   0  0  0  0  0  1  0  0  0  0  0  0
  192.7380  175.9730  135.0610 O   0  0  0  0  0  0  0  0  0  0  0  0
  192.0170  174.0760  136.1970 C   0  0  0  0  0  3  0  0  0  0  0  0
  190.9110  174.2020  135.1490 C   0  0  0  0  0  2  0  0  0  0  0  0
  190.4170  172.9390  134.8220 O   0  0  0  0  0  1  0  0  0  0  0  0
  193.7190  172.7070  135.2320 O   0  0  0  0  0  1  0  0  0  0  0  0
  192.6550  172.6960  136.1330 C   0  0  0  0  0  2  0  0  0  0  0  0
  1 26  1  6  0  0  0
  1  2  1  0  0  0  0
  2  5  2  0  0  0  0
  2  4  1  0  0  0  0
  3  7  1  0  0  0  0
  4  3  1  0  0  0  0
  5  6  1  0  0  0  0
  6  3  2  0  0  0  0
  7  8  1  6  0  0  0
  7  9  1  0  0  0  0
  9 10  3  0  0  0  0
 10 11  1  0  0  0  0
 12 13  1  0  0  0  0
 12 20  1  0  0  0  0
 13 21  2  0  0  0  0
 14 12  1  0  0  0  0
 16 17  2  0  0  0  0
 16 19  1  0  0  0  0
 17 18  1  0  0  0  0
 18 14  1  0  0  0  0
 19 14  2  0  0  0  0
 20 15  2  0  0  0  0
 21 15  1  0  0  0  0
 21 11  1  0  0  0  0
 23 25  1  0  0  0  0
 23 24  1  0  0  0  0
 24  1  1  0  0  0  0
 24 22  1  0  0  0  0
 25 22  1  0  0  0  0
 27 26  1  0  0  0  0
 28 27  1  1  0  0  0
 28 29  1  0  0  0  0
 30 31  2  0  0  0  0
 32 30  1  0  0  0  0
 32 29  1  0  0  0  0
 33 35  1  0  0  0  0
 33 30  1  0  0  0  0
 34 35  1  0  0  0  0
 36 39  1  0  0  0  0
 36 28  1  0  0  0  0
 37 38  1  0  0  0  0
 38 36  1  0  0  0  0
 40 39  1  0  0  0  0
 41 40  1  0  0  0  0
 42 43  1  0  0  0  0
 43 39  1  0  0  0  0
M  END
>  <MODEL>
2

>  <REMARK>
 VINA RESULT:      -7.0      1.227      1.544
  Name = 
  18 active torsions:
  status: ('A' for Active; 'I' for Inactive)
    1  A    between atoms: C_3  and  C_9
    2  A    between atoms: C_3  and  C_22
    3  A    between atoms: C_5  and  C_42
    4  A    between atoms: C_8  and  C_35
    5  A    between atoms: C_12  and  N_24
    6  A    between atoms: C_12  and  C_27
    7  A    between atoms: C_13  and  C_39
    8  A    between atoms: C_14  and  C_21
    9  A    between atoms: C_14  and  C_41
   10  A    between atoms: C_15  and  C_42
   11  A    between atoms: C_18  and  C_39
   12  A    between atoms: N_23  and  C_35
   13  A    between atoms: N_24  and  C_35
   14  A    between atoms: C_27  and  N_28
   15  A    between atoms: C_27  and  C_43
   16  A    between atoms: N_28  and  O_37
   17  A    between atoms: N_28  and  C_42
   18  A    between atoms: N_32  and  C_43
                            x       y       z     vdW  Elec       q    Type
                         _______ _______ _______ _____ _____    ______ ____

>  <TORSDO>
F 18

$$$$
=
 OpenBabel10222421353D

 43 46  0  0  1  0  0  0  0  0999 V2000
  190.5950  176.8150  139.5110 C   0  0  1  0  0  3  0  0  0  0  0  0
  190.6510  176.7700  141.0060 C   0  0  0  0  0  0  0  0  0  0  0  0
  191.0340  177.1770  143.1810 C   0  0  0  0  0  0  0  0  0  0  0  0
  191.4530  177.6990  141.8460 C   0  0  0  0  0  2  0  0  0  0  0  0
  189.9550  175.9500  141.7210 N   0  0  0  0  0  0  0  0  0  0  0  0
  190.1890  176.2080  143.0720 N   0  0  0  0  0  0  0  0  0  0  0  0
  191.4100  177.7700  144.4970 C   0  0  1  0  0  3  0  0  0  0  0  0
  191.7890  179.1620  144.3280 N   0  0  0  0  0  1  0  0  0  0  0  0
  190.2840  177.6730  145.4300 C   0  0  0  0  0  0  0  0  0  0  0  0
  189.3620  177.5950  146.2040 C   0  0  0  0  0  0  0  0  0  0  0  0
  188.2450  177.5010  147.1470 C   0  0  0  0  0  2  0  0  0  0  0  0
  185.4120  178.3830  145.0630 N   0  0  0  0  0  0  0  0  0  0  0  0
  186.6310  177.8260  145.1890 C   0  0  0  0  0  3  0  0  0  0  0  0
  184.6460  178.4460  143.8570 C   0  0  0  0  0  0  0  0  0  0  0  0
  185.9510  178.6400  147.1450 C   0  0  0  0  0  3  0  0  0  0  0  0
  184.0770  178.1860  141.7660 N   0  0  0  0  0  0  0  0  0  0  0  0
  183.0680  178.8060  142.2830 C   0  0  0  0  0  3  0  0  0  0  0  0
  183.2990  179.0670  143.7370 C   0  0  0  0  0  2  0  0  0  0  0  0
  185.0550  177.9610  142.7350 N   0  0  0  0  0  0  0  0  0  0  0  0
  184.9970  178.8710  146.2230 N   0  0  0  0  0  0  0  0  0  0  0  0
  186.9930  177.9910  146.5090 C   0  0  0  0  0  0  0  0  0  0  0  0
  188.5920  178.0740  139.6820 C   0  0  0  0  0  2  0  0  0  0  0  0
  189.2450  177.7300  137.7870 C   0  0  0  0  0  2  0  0  0  0  0  0
  189.9100  178.0270  139.0530 N   0  0  0  0  0  0  0  0  0  0  0  0
  187.8630  177.7830  138.3940 C   0  0  0  0  0  2  0  0  0  0  0  0
  191.9530  176.7740  138.9860 N   0  0  0  0  0  2  0  0  0  0  0  0
  191.8670  176.2080  137.6490 C   0  0  0  0  0  2  0  0  0  0  0  0
  192.4960  174.8190  137.5960 C   0  0  1  0  0  3  0  0  0  0  0  0
  191.6600  173.8260  136.7780 C   0  0  0  0  0  2  0  0  0  0  0  0
  189.1560  173.5900  136.4950 C   0  0  0  0  0  0  0  0  0  0  0  0
  189.2620  173.5780  135.2400 O   0  0  0  0  0  0  0  0  0  0  0  0
  190.3130  173.7240  137.3230 N   0  0  0  0  0  2  0  0  0  0  0  0
  187.8170  173.4300  137.1220 C   0  0  0  0  0  2  0  0  0  0  0  0
  185.8910  173.8980  135.6410 C   0  0  0  0  0  1  0  0  0  0  0  0
  186.8800  174.5070  136.6130 C   0  0  0  0  0  2  0  0  0  0  0  0
  193.9060  174.8950  137.1850 N   0  0  0  0  0  0  0  0  0  0  0  0
  194.6290  175.9450  135.4020 C   0  0  0  0  0  1  0  0  0  0  0  0
  194.0190  174.7630  135.8340 O   0  0  0  0  0  0  0  0  0  0  0  0
  194.6590  173.8280  137.8660 C   0  0  0  0  0  3  0  0  0  0  0  0
  195.1020  172.7110  136.9210 C   0  0  0  0  0  2  0  0  0  0  0  0
  194.2840  171.5930  137.0870 O   0  0  0  0  0  1  0  0  0  0  0  0
  195.4240  175.2510  139.6240 O   0  0  0  0  0  1  0  0  0  0  0  0
  195.8580  174.4110  138.5990 C   0  0  0  0  0  2  0  0  0  0  0  0
  1 26  1  6  0  0  0
  1  2  1  0  0  0  0
  2  5  2  0  0  0  0
  2  4  1  0  0  0  0
  3  7  1  0  0  0  0
  4  3  1  0  0  0  0
  5  6  1  0  0  0  0
  6  3  2  0  0  0  0
  7  8  1  6  0  0  0
  7  9  1  0  0  0  0
  9 10  3  0  0  0  0
 10 11  1  0  0  0  0
 12 13  1  0  0  0  0
 12 20  1  0  0  0  0
 13 21  2  0  0  0  0
 14 12  1  0  0  0  0
 16 17  2  0  0  0  0
 16 19  1  0  0  0  0
 17 18  1  0  0  0  0
 18 14  1  0  0  0  0
 19 14  2  0  0  0  0
 20 15  2  0  0  0  0
 21 15  1  0  0  0  0
 21 11  1  0  0  0  0
 23 25  1  0  0  0  0
 23 24  1  0  0  0  0
 24  1  1  0  0  0  0
 24 22  1  0  0  0  0
 25 22  1  0  0  0  0
 27 26  1  0  0  0  0
 28 29  1  6  0  0  0
 28 27  1  0  0  0  0
 29 32  1  0  0  0  0
 30 33  1  0  0  0  0
 30 32  1  0  0  0  0
 31 30  2  0  0  0  0
 34 35  1  0  0  0  0
 35 33  1  0  0  0  0
 36 28  1  0  0  0  0
 36 39  1  0  0  0  0
 37 38  1  0  0  0  0
 38 36  1  0  0  0  0
 39 43  1  0  0  0  0
 40 41  1  0  0  0  0
 40 39  1  0  0  0  0
 43 42  1  0  0  0  0
M  END
>  <MODEL>
3

>  <REMARK>
 VINA RESULT:      -7.0      1.281      3.690
  Name = 
  18 active torsions:
  status: ('A' for Active; 'I' for Inactive)
    1  A    between atoms: C_3  and  C_9
    2  A    between atoms: C_3  and  C_22
    3  A    between atoms: C_5  and  C_42
    4  A    between atoms: C_8  and  C_35
    5  A    between atoms: C_12  and  N_24
    6  A    between atoms: C_12  and  C_27
    7  A    between atoms: C_13  and  C_39
    8  A    between atoms: C_14  and  C_21
    9  A    between atoms: C_14  and  C_41
   10  A    between atoms: C_15  and  C_42
   11  A    between atoms: C_18  and  C_39
   12  A    between atoms: N_23  and  C_35
   13  A    between atoms: N_24  and  C_35
   14  A    between atoms: C_27  and  N_28
   15  A    between atoms: C_27  and  C_43
   16  A    between atoms: N_28  and  O_37
   17  A    between atoms: N_28  and  C_42
   18  A    between atoms: N_32  and  C_43
                            x       y       z     vdW  Elec       q    Type
                         _______ _______ _______ _____ _____    ______ ____

>  <TORSDO>
F 18

$$$$
=
 OpenBabel10222421353D

 43 46  0  0  1  0  0  0  0  0999 V2000
  182.5780  177.2600  138.8330 C   0  0  1  0  0  3  0  0  0  0  0  0
  182.8130  177.8330  140.1950 C   0  0  0  0  0  0  0  0  0  0  0  0
  182.6030  178.7110  142.2520 C   0  0  0  0  0  0  0  0  0  0  0  0
  181.7450  178.3790  141.0760 C   0  0  0  0  0  2  0  0  0  0  0  0
  183.9710  177.8550  140.7690 N   0  0  0  0  0  0  0  0  0  0  0  0
  183.8370  178.3960  142.0490 N   0  0  0  0  0  0  0  0  0  0  0  0
  182.1080  179.2100  143.5680 C   0  0  1  0  0  3  0  0  0  0  0  0
  180.8520  178.5650  143.9070 N   0  0  0  0  0  1  0  0  0  0  0  0
  183.1020  178.9410  144.6110 C   0  0  0  0  0  0  0  0  0  0  0  0
  183.9200  178.7110  145.4670 C   0  0  0  0  0  0  0  0  0  0  0  0
  184.9130  178.4300  146.5050 C   0  0  0  0  0  2  0  0  0  0  0  0
  188.2890  177.4580  145.6030 N   0  0  0  0  0  0  0  0  0  0  0  0
  187.4030  177.8410  146.5420 C   0  0  0  0  0  3  0  0  0  0  0  0
  189.6650  177.1460  145.8350 C   0  0  0  0  0  0  0  0  0  0  0  0
  186.4190  177.7480  144.5490 C   0  0  0  0  0  3  0  0  0  0  0  0
  191.5550  176.8340  146.8810 N   0  0  0  0  0  0  0  0  0  0  0  0
  191.8360  176.5580  145.6500 C   0  0  0  0  0  3  0  0  0  0  0  0
  190.6300  176.7250  144.7840 C   0  0  0  0  0  3  0  0  0  0  0  0
  190.2130  177.1980  147.0000 N   0  0  0  0  0  2  0  0  0  0  0  0
  187.7130  177.3990  144.4120 N   0  0  0  0  0  0  0  0  0  0  0  0
  186.2090  178.0390  145.8840 C   0  0  0  0  0  0  0  0  0  0  0  0
  180.5440  176.3430  138.0280 C   0  0  0  0  0  2  0  0  0  0  0  0
  181.3050  177.8720  136.9260 C   0  0  0  0  0  2  0  0  0  0  0  0
  181.2310  177.5890  138.3570 N   0  0  0  0  0  0  0  0  0  0  0  0
  180.5860  176.6020  136.5430 C   0  0  0  0  0  2  0  0  0  0  0  0
  183.5800  177.7890  137.9190 N   0  0  0  0  0  2  0  0  0  0  0  0
  184.4210  176.6690  137.5270 C   0  0  0  0  0  2  0  0  0  0  0  0
  185.7590  177.1500  136.9740 C   0  0  1  0  0  3  0  0  0  0  0  0
  186.5740  177.9370  138.0100 C   0  0  0  0  0  2  0  0  0  0  0  0
  189.0390  177.9970  138.5820 C   0  0  0  0  0  0  0  0  0  0  0  0
  189.0340  179.2560  138.6290 O   0  0  0  0  0  0  0  0  0  0  0  0
  187.8470  177.2750  138.2650 N   0  0  0  0  0  2  0  0  0  0  0  0
  190.2890  177.2530  138.8910 C   0  0  0  0  0  2  0  0  0  0  0  0
  189.3280  177.1130  141.1670 C   0  0  0  0  0  1  0  0  0  0  0  0
  190.5950  177.3550  140.3720 C   0  0  0  0  0  2  0  0  0  0  0  0
  186.4980  176.0450  136.3440 N   0  0  0  0  0  0  0  0  0  0  0  0
  188.1330  176.1800  134.8920 C   0  0  0  0  0  1  0  0  0  0  0  0
  186.7500  176.3230  135.0350 O   0  0  0  0  0  0  0  0  0  0  0  0
  185.7010  174.8130  136.4610 C   0  0  0  0  0  3  0  0  0  0  0  0
  185.1890  174.3010  135.1140 C   0  0  0  0  0  2  0  0  0  0  0  0
  185.8520  173.1230  134.7690 O   0  0  0  0  0  1  0  0  0  0  0  0
  185.6720  173.0260  138.0430 O   0  0  0  0  0  1  0  0  0  0  0  0
  186.5000  173.7310  137.1720 C   0  0  0  0  0  2  0  0  0  0  0  0
  1 26  1  6  0  0  0
  1  2  1  0  0  0  0
  2  5  2  0  0  0  0
  2  4  1  0  0  0  0
  3  7  1  0  0  0  0
  4  3  1  0  0  0  0
  5  6  1  0  0  0  0
  6  3  2  0  0  0  0
  7  8  1  1  0  0  0
  7  9  1  0  0  0  0
  9 10  3  0  0  0  0
 10 11  1  0  0  0  0
 12 14  1  0  0  0  0
 12 13  1  0  0  0  0
 14 19  1  0  0  0  0
 15 21  1  0  0  0  0
 16 19  1  0  0  0  0
 17 16  2  0  0  0  0
 18 17  1  0  0  0  0
 18 14  2  0  0  0  0
 20 15  2  0  0  0  0
 20 12  1  0  0  0  0
 21 11  1  0  0  0  0
 21 13  2  0  0  0  0
 22 24  1  0  0  0  0
 23 24  1  0  0  0  0
 24  1  1  0  0  0  0
 25 23  1  0  0  0  0
 25 22  1  0  0  0  0
 27 26  1  0  0  0  0
 28 27  1  1  0  0  0
 28 29  1  0  0  0  0
 29 32  1  0  0  0  0
 30 31  2  0  0  0  0
 30 33  1  0  0  0  0
 32 30  1  0  0  0  0
 33 35  1  0  0  0  0
 35 34  1  0  0  0  0
 36 39  1  0  0  0  0
 36 28  1  0  0  0  0
 37 38  1  0  0  0  0
 38 36  1  0  0  0  0
 39 43  1  0  0  0  0
 40 39  1  0  0  0  0
 41 40  1  0  0  0  0
 43 42  1  0  0  0  0
M  END
>  <MODEL>
4

>  <REMARK>
 VINA RESULT:      -6.8      3.615      6.789
  Name = 
  18 active torsions:
  status: ('A' for Active; 'I' for Inactive)
    1  A    between atoms: C_3  and  C_9
    2  A    between atoms: C_3  and  C_22
    3  A    between atoms: C_5  and  C_42
    4  A    between atoms: C_8  and  C_35
    5  A    between atoms: C_12  and  N_24
    6  A    between atoms: C_12  and  C_27
    7  A    between atoms: C_13  and  C_39
    8  A    between atoms: C_14  and  C_21
    9  A    between atoms: C_14  and  C_41
   10  A    between atoms: C_15  and  C_42
   11  A    between atoms: C_18  and  C_39
   12  A    between atoms: N_23  and  C_35
   13  A    between atoms: N_24  and  C_35
   14  A    between atoms: C_27  and  N_28
   15  A    between atoms: C_27  and  C_43
   16  A    between atoms: N_28  and  O_37
   17  A    between atoms: N_28  and  C_42
   18  A    between atoms: N_32  and  C_43
                            x       y       z     vdW  Elec       q    Type
                         _______ _______ _______ _____ _____    ______ ____

>  <TORSDO>
F 18

$$$$
=
 OpenBabel10222421353D

 43 46  0  0  1  0  0  0  0  0999 V2000
  188.6230  177.2010  139.0290 C   0  0  1  0  0  3  0  0  0  0  0  0
  189.4190  177.2460  140.2950 C   0  0  0  0  0  0  0  0  0  0  0  0
  190.1680  177.0360  142.4030 C   0  0  0  0  0  0  0  0  0  0  0  0
  188.9200  176.7890  141.6200 C   0  0  0  0  0  2  0  0  0  0  0  0
  190.6500  177.6360  140.3510 N   0  0  0  0  0  0  0  0  0  0  0  0
  191.1150  177.4990  141.6590 N   0  0  0  0  0  0  0  0  0  0  0  0
  190.3770  176.6700  143.8340 C   0  0  1  0  0  3  0  0  0  0  0  0
  191.6040  177.2680  144.3300 N   0  0  0  0  0  1  0  0  0  0  0  0
  189.2410  177.1300  144.6380 C   0  0  0  0  0  0  0  0  0  0  0  0
  188.3120  177.5100  145.3070 C   0  0  0  0  0  0  0  0  0  0  0  0
  187.1850  177.9710  146.1210 C   0  0  0  0  0  2  0  0  0  0  0  0
  184.6890  178.4220  143.5290 N   0  0  0  0  0  0  0  0  0  0  0  0
  185.9530  178.1230  143.8840 C   0  0  0  0  0  3  0  0  0  0  0  0
  184.1790  178.4300  142.1940 C   0  0  0  0  0  0  0  0  0  0  0  0
  184.7420  178.6030  145.6870 C   0  0  0  0  0  3  0  0  0  0  0  0
  184.1010  178.2400  140.0210 N   0  0  0  0  0  0  0  0  0  0  0  0
  182.8990  178.5880  140.3410 C   0  0  0  0  0  3  0  0  0  0  0  0
  182.7780  178.7630  141.8200 C   0  0  0  0  0  2  0  0  0  0  0  0
  184.8970  178.1400  141.1630 N   0  0  0  0  0  0  0  0  0  0  0  0
  183.9590  178.7090  144.5960 N   0  0  0  0  0  0  0  0  0  0  0  0
  186.0040  178.2440  145.2560 C   0  0  0  0  0  0  0  0  0  0  0  0
  186.9070  178.3690  137.8820 C   0  0  0  0  0  2  0  0  0  0  0  0
  188.8010  178.9880  137.4790 C   0  0  0  0  0  2  0  0  0  0  0  0
  188.1170  178.5320  138.6860 N   0  0  0  0  0  0  0  0  0  0  0  0
  187.5710  178.8470  136.6150 C   0  0  0  0  0  2  0  0  0  0  0  0
  189.4690  176.6910  137.9580 N   0  0  0  0  0  2  0  0  0  0  0  0
  188.9560  175.3750  137.6110 C   0  0  0  0  0  2  0  0  0  0  0  0
  190.0790  174.4490  137.1510 C   0  0  1  0  0  3  0  0  0  0  0  0
  189.6080  173.4310  136.1040 C   0  0  0  0  0  2  0  0  0  0  0  0
  187.3630  172.2630  136.1330 C   0  0  0  0  0  0  0  0  0  0  0  0
  187.9070  171.1440  136.3300 O   0  0  0  0  0  0  0  0  0  0  0  0
  188.1550  173.4440  135.9970 N   0  0  0  0  0  2  0  0  0  0  0  0
  185.8800  172.3600  136.0720 C   0  0  0  0  0  2  0  0  0  0  0  0
  184.8530  174.1590  137.4270 C   0  0  0  0  0  1  0  0  0  0  0  0
  185.3330  172.7220  137.4390 C   0  0  0  0  0  2  0  0  0  0  0  0
  191.2640  175.2200  136.7460 N   0  0  0  0  0  0  0  0  0  0  0  0
  191.3860  176.0990  134.7420 C   0  0  0  0  0  1  0  0  0  0  0  0
  191.6120  174.9230  135.4620 O   0  0  0  0  0  0  0  0  0  0  0  0
  192.3730  174.9040  137.6610 C   0  0  0  0  0  3  0  0  0  0  0  0
  193.3930  173.9390  137.0560 C   0  0  0  0  0  2  0  0  0  0  0  0
  194.3220  173.5580  138.0250 O   0  0  0  0  0  1  0  0  0  0  0  0
  193.8610  176.6850  137.1000 O   0  0  0  0  0  1  0  0  0  0  0  0
  193.0580  176.1820  138.1230 C   0  0  0  0  0  2  0  0  0  0  0  0
  1 26  1  6  0  0  0
  1  2  1  0  0  0  0
  2  5  2  0  0  0  0
  2  4  1  0  0  0  0
  3  7  1  0  0  0  0
  4  3  1  0  0  0  0
  5  6  1  0  0  0  0
  6  3  2  0  0  0  0
  7  8  1  1  0  0  0
  7  9  1  0  0  0  0
  9 10  3  0  0  0  0
 10 11  1  0  0  0  0
 12 13  1  0  0  0  0
 12 20  1  0  0  0  0
 13 21  2  0  0  0  0
 14 12  1  0  0  0  0
 16 17  2  0  0  0  0
 16 19  1  0  0  0  0
 17 18  1  0  0  0  0
 18 14  1  0  0  0  0
 19 14  2  0  0  0  0
 20 15  2  0  0  0  0
 21 15  1  0  0  0  0
 21 11  1  0  0  0  0
 22 24  1  0  0  0  0
 23 24  1  0  0  0  0
 24  1  1  0  0  0  0
 25 23  1  0  0  0  0
 25 22  1  0  0  0  0
 27 26  1  0  0  0  0
 28 29  1  6  0  0  0
 28 27  1  0  0  0  0
 30 31  2  0  0  0  0
 32 29  1  0  0  0  0
 32 30  1  0  0  0  0
 33 30  1  0  0  0  0
 33 35  1  0  0  0  0
 34 35  1  0  0  0  0
 36 28  1  0  0  0  0
 36 39  1  0  0  0  0
 37 38  1  0  0  0  0
 38 36  1  0  0  0  0
 39 43  1  0  0  0  0
 40 39  1  0  0  0  0
 40 41  1  0  0  0  0
 42 43  1  0  0  0  0
M  END
>  <MODEL>
5

>  <REMARK>
 VINA RESULT:      -6.7      1.910      4.178
  Name = 
  18 active torsions:
  status: ('A' for Active; 'I' for Inactive)
    1  A    between atoms: C_3  and  C_9
    2  A    between atoms: C_3  and  C_22
    3  A    between atoms: C_5  and  C_42
    4  A    between atoms: C_8  and  C_35
    5  A    between atoms: C_12  and  N_24
    6  A    between atoms: C_12  and  C_27
    7  A    between atoms: C_13  and  C_39
    8  A    between atoms: C_14  and  C_21
    9  A    between atoms: C_14  and  C_41
   10  A    between atoms: C_15  and  C_42
   11  A    between atoms: C_18  and  C_39
   12  A    between atoms: N_23  and  C_35
   13  A    between atoms: N_24  and  C_35
   14  A    between atoms: C_27  and  N_28
   15  A    between atoms: C_27  and  C_43
   16  A    between atoms: N_28  and  O_37
   17  A    between atoms: N_28  and  C_42
   18  A    between atoms: N_32  and  C_43
                            x       y       z     vdW  Elec       q    Type
                         _______ _______ _______ _____ _____    ______ ____

>  <TORSDO>
F 18

$$$$
=
 OpenBabel10222421353D

 43 46  0  0  1  0  0  0  0  0999 V2000
  188.8340  178.1430  140.9870 C   0  0  1  0  0  3  0  0  0  0  0  0
  187.3940  178.5050  141.1740 C   0  0  0  0  0  0  0  0  0  0  0  0
  185.3800  179.0580  142.0020 C   0  0  0  0  0  0  0  0  0  0  0  0
  186.7240  178.6350  142.4970 C   0  0  0  0  0  2  0  0  0  0  0  0
  186.6000  178.8010  140.1990 N   0  0  0  0  0  0  0  0  0  0  0  0
  185.3510  179.1510  140.7160 N   0  0  0  0  0  0  0  0  0  0  0  0
  184.2340  179.4720  142.8620 C   0  0  1  0  0  3  0  0  0  0  0  0
  182.9960  178.9070  142.3540 N   0  0  0  0  0  1  0  0  0  0  0  0
  184.4550  179.0220  144.2400 C   0  0  0  0  0  0  0  0  0  0  0  0
  184.6380  178.6590  145.3760 C   0  0  0  0  0  0  0  0  0  0  0  0
  184.8600  178.2230  146.7560 C   0  0  0  0  0  2  0  0  0  0  0  0
  188.4350  177.6260  146.8580 N   0  0  0  0  0  0  0  0  0  0  0  0
  187.2410  177.4210  146.2720 C   0  0  0  0  0  3  0  0  0  0  0  0
  189.6850  177.0940  146.4100 C   0  0  0  0  0  0  0  0  0  0  0  0
  187.0080  178.7300  148.0550 C   0  0  0  0  0  3  0  0  0  0  0  0
  191.1420  175.9990  145.2080 N   0  0  0  0  0  0  0  0  0  0  0  0
  191.8550  176.5330  146.1440 C   0  0  0  0  0  3  0  0  0  0  0  0
  190.9960  177.3310  147.0710 C   0  0  0  0  0  2  0  0  0  0  0  0
  189.7990  176.3430  145.3680 N   0  0  0  0  0  0  0  0  0  0  0  0
  188.3080  178.4050  147.9210 N   0  0  0  0  0  0  0  0  0  0  0  0
  186.3190  178.1100  147.0300 C   0  0  0  0  0  0  0  0  0  0  0  0
  190.4000  178.4490  142.7410 C   0  0  0  0  0  2  0  0  0  0  0  0
  190.4570  176.6320  141.8300 C   0  0  0  0  0  2  0  0  0  0  0  0
  189.3820  177.5460  142.2070 N   0  0  0  0  0  0  0  0  0  0  0  0
  191.5390  177.5280  142.3820 C   0  0  0  0  0  2  0  0  0  0  0  0
  188.9440  177.2090  139.8750 N   0  0  0  0  0  2  0  0  0  0  0  0
  189.3320  177.9900  138.7100 C   0  0  0  0  0  2  0  0  0  0  0  0
  189.9980  177.1130  137.6540 C   0  0  1  0  0  3  0  0  0  0  0  0
  190.6170  175.8420  138.2520 C   0  0  0  0  0  2  0  0  0  0  0  0
  192.7400  174.7660  137.3940 C   0  0  0  0  0  0  0  0  0  0  0  0
  192.1050  173.7620  136.9750 O   0  0  0  0  0  0  0  0  0  0  0  0
  192.0600  175.8360  138.0530 N   0  0  0  0  0  2  0  0  0  0  0  0
  194.2080  174.8550  137.1720 C   0  0  0  0  0  2  0  0  0  0  0  0
  195.4410  173.0940  138.3990 C   0  0  0  0  0  1  0  0  0  0  0  0
  194.9430  174.5230  138.4560 C   0  0  0  0  0  2  0  0  0  0  0  0
  189.0880  176.8620  136.5270 N   0  0  0  0  0  0  0  0  0  0  0  0
  187.4820  178.1640  135.7990 C   0  0  0  0  0  1  0  0  0  0  0  0
  187.8270  177.2820  136.8270 O   0  0  0  0  0  0  0  0  0  0  0  0
  189.0880  175.4220  136.2250 C   0  0  0  0  0  3  0  0  0  0  0  0
  187.7650  174.7380  136.5690 C   0  0  0  0  0  2  0  0  0  0  0  0
  188.0000  173.4300  136.9950 O   0  0  0  0  0  1  0  0  0  0  0  0
  190.7520  175.6060  134.5230 O   0  0  0  0  0  1  0  0  0  0  0  0
  189.4450  175.1860  134.7650 C   0  0  0  0  0  2  0  0  0  0  0  0
  1 26  1  6  0  0  0
  1  2  1  0  0  0  0
  1 24  1  0  0  0  0
  2  4  1  0  0  0  0
  3  4  1  0  0  0  0
  3  7  1  0  0  0  0
  5  6  1  0  0  0  0
  5  2  2  0  0  0  0
  6  3  2  0  0  0  0
  7  8  1  6  0  0  0
  7  9  1  0  0  0  0
  9 10  3  0  0  0  0
 10 11  1  0  0  0  0
 11 21  1  0  0  0  0
 12 20  1  0  0  0  0
 13 12  1  0  0  0  0
 13 21  2  0  0  0  0
 14 12  1  0  0  0  0
 14 18  1  0  0  0  0
 16 19  1  0  0  0  0
 16 17  2  0  0  0  0
 17 18  1  0  0  0  0
 19 14  2  0  0  0  0
 20 15  2  0  0  0  0
 21 15  1  0  0  0  0
 23 24  1  0  0  0  0
 23 25  1  0  0  0  0
 24 22  1  0  0  0  0
 25 22  1  0  0  0  0
 27 26  1  0  0  0  0
 28 29  1  1  0  0  0
 28 27  1  0  0  0  0
 30 32  1  0  0  0  0
 31 30  2  0  0  0  0
 32 29  1  0  0  0  0
 33 30  1  0  0  0  0
 33 35  1  0  0  0  0
 34 35  1  0  0  0  0
 36 38  1  0  0  0  0
 36 28  1  0  0  0  0
 37 38  1  0  0  0  0
 39 36  1  0  0  0  0
 39 40  1  0  0  0  0
 40 41  1  0  0  0  0
 42 43  1  0  0  0  0
 43 39  1  0  0  0  0
M  END
>  <MODEL>
6

>  <REMARK>
 VINA RESULT:      -6.5      1.923      4.536
  Name = 
  18 active torsions:
  status: ('A' for Active; 'I' for Inactive)
    1  A    between atoms: C_3  and  C_9
    2  A    between atoms: C_3  and  C_22
    3  A    between atoms: C_5  and  C_42
    4  A    between atoms: C_8  and  C_35
    5  A    between atoms: C_12  and  N_24
    6  A    between atoms: C_12  and  C_27
    7  A    between atoms: C_13  and  C_39
    8  A    between atoms: C_14  and  C_21
    9  A    between atoms: C_14  and  C_41
   10  A    between atoms: C_15  and  C_42
   11  A    between atoms: C_18  and  C_39
   12  A    between atoms: N_23  and  C_35
   13  A    between atoms: N_24  and  C_35
   14  A    between atoms: C_27  and  N_28
   15  A    between atoms: C_27  and  C_43
   16  A    between atoms: N_28  and  O_37
   17  A    between atoms: N_28  and  C_42
   18  A    between atoms: N_32  and  C_43
                            x       y       z     vdW  Elec       q    Type
                         _______ _______ _______ _____ _____    ______ ____

>  <TORSDO>
F 18

$$$$
=
 OpenBabel10222421353D

 43 46  0  0  1  0  0  0  0  0999 V2000
  185.9980  178.8610  143.8490 C   0  0  1  0  0  3  0  0  0  0  0  0
  185.5170  178.8290  142.4320 C   0  0  0  0  0  0  0  0  0  0  0  0
  184.3720  178.4800  140.5300 C   0  0  0  0  0  0  0  0  0  0  0  0
  184.3490  178.0380  141.9570 C   0  0  0  0  0  2  0  0  0  0  0  0
  186.0370  179.5380  141.4860 N   0  0  0  0  0  0  0  0  0  0  0  0
  185.3210  179.3250  140.3070 N   0  0  0  0  0  0  0  0  0  0  0  0
  183.3540  178.1240  139.5000 C   0  0  1  0  0  3  0  0  0  0  0  0
  182.5170  179.2730  139.2050 N   0  0  0  0  0  1  0  0  0  0  0  0
  184.0200  177.6690  138.2760 C   0  0  0  0  0  0  0  0  0  0  0  0
  184.5620  177.2990  137.2640 C   0  0  0  0  0  0  0  0  0  0  0  0
  185.2180  176.8510  136.0330 C   0  0  0  0  0  2  0  0  0  0  0  0
  184.4730  173.3090  135.8170 N   0  0  0  0  0  0  0  0  0  0  0  0
  184.0480  174.5760  135.9750 C   0  0  0  0  0  3  0  0  0  0  0  0
  183.6380  172.1480  135.7910 C   0  0  0  0  0  0  0  0  0  0  0  0
  186.2600  174.5300  135.7440 C   0  0  0  0  0  3  0  0  0  0  0  0
  181.8470  170.9010  135.8460 N   0  0  0  0  0  0  0  0  0  0  0  0
  182.8070  170.0520  135.6750 C   0  0  0  0  0  3  0  0  0  0  0  0
  184.1250  170.7540  135.6140 C   0  0  0  0  0  3  0  0  0  0  0  0
  182.3560  172.1980  135.9180 N   0  0  0  0  0  2  0  0  0  0  0  0
  185.7890  173.2690  135.6770 N   0  0  0  0  0  0  0  0  0  0  0  0
  185.1780  175.3660  135.9420 C   0  0  0  0  0  0  0  0  0  0  0  0
  184.1900  178.7030  145.3750 C   0  0  0  0  0  2  0  0  0  0  0  0
  185.9080  177.7870  145.9630 C   0  0  0  0  0  2  0  0  0  0  0  0
  185.2230  177.9370  144.6810 N   0  0  0  0  0  0  0  0  0  0  0  0
  184.8560  178.5610  146.7210 C   0  0  0  0  0  2  0  0  0  0  0  0
  187.4090  178.5020  143.8750 N   0  0  0  0  0  2  0  0  0  0  0  0
  187.4880  177.0920  143.5300 C   0  0  0  0  0  2  0  0  0  0  0  0
  188.9040  176.5550  143.7210 C   0  0  1  0  0  3  0  0  0  0  0  0
  189.5690  176.1680  142.3930 C   0  0  0  0  0  2  0  0  0  0  0  0
  189.8290  177.6640  140.3690 C   0  0  0  0  0  0  0  0  0  0  0  0
  191.0840  177.6630  140.4840 O   0  0  0  0  0  0  0  0  0  0  0  0
  189.0120  176.9480  141.2970 N   0  0  0  0  0  2  0  0  0  0  0  0
  189.1950  178.3900  139.2370 C   0  0  0  0  0  2  0  0  0  0  0  0
  188.5820  176.5540  137.6960 C   0  0  0  0  0  1  0  0  0  0  0  0
  188.0460  177.5720  138.6810 C   0  0  0  0  0  2  0  0  0  0  0  0
  189.7060  177.4690  144.5480 N   0  0  0  0  0  0  0  0  0  0  0  0
  190.8700  179.1920  143.8550 C   0  0  0  0  0  1  0  0  0  0  0  0
  190.8670  177.7960  143.9130 O   0  0  0  0  0  0  0  0  0  0  0  0
  189.9960  176.8160  145.8350 C   0  0  0  0  0  3  0  0  0  0  0  0
  191.4790  176.5050  146.0290 C   0  0  0  0  0  2  0  0  0  0  0  0
  191.8910  176.9130  147.2980 O   0  0  0  0  0  1  0  0  0  0  0  0
  188.6750  176.8860  147.8230 O   0  0  0  0  0  1  0  0  0  0  0  0
  189.4750  177.6630  146.9870 C   0  0  0  0  0  2  0  0  0  0  0  0
  1 26  1  6  0  0  0
  1 24  1  0  0  0  0
  2  1  1  0  0  0  0
  3  4  1  0  0  0  0
  4  2  1  0  0  0  0
  5  2  2  0  0  0  0
  6  3  2  0  0  0  0
  6  5  1  0  0  0  0
  7  8  1  6  0  0  0
  7  3  1  0  0  0  0
  9  7  1  0  0  0  0
 10  9  3  0  0  0  0
 11 10  1  0  0  0  0
 12 13  1  0  0  0  0
 14 12  1  0  0  0  0
 14 19  1  0  0  0  0
 15 21  1  0  0  0  0
 16 19  1  0  0  0  0
 17 16  2  0  0  0  0
 18 17  1  0  0  0  0
 18 14  2  0  0  0  0
 20 15  2  0  0  0  0
 20 12  1  0  0  0  0
 21 13  2  0  0  0  0
 21 11  1  0  0  0  0
 22 25  1  0  0  0  0
 23 25  1  0  0  0  0
 24 22  1  0  0  0  0
 24 23  1  0  0  0  0
 27 28  1  0  0  0  0
 27 26  1  0  0  0  0
 28 29  1  6  0  0  0
 28 36  1  0  0  0  0
 30 31  2  0  0  0  0
 30 32  1  0  0  0  0
 32 29  1  0  0  0  0
 33 30  1  0  0  0  0
 34 35  1  0  0  0  0
 35 33  1  0  0  0  0
 36 39  1  0  0  0  0
 37 38  1  0  0  0  0
 38 36  1  0  0  0  0
 39 40  1  0  0  0  0
 39 43  1  0  0  0  0
 40 41  1  0  0  0  0
 43 42  1  0  0  0  0
M  END
>  <MODEL>
7

>  <REMARK>
 VINA RESULT:      -6.3      4.641      9.295
  Name = 
  18 active torsions:
  status: ('A' for Active; 'I' for Inactive)
    1  A    between atoms: C_3  and  C_9
    2  A    between atoms: C_3  and  C_22
    3  A    between atoms: C_5  and  C_42
    4  A    between atoms: C_8  and  C_35
    5  A    between atoms: C_12  and  N_24
    6  A    between atoms: C_12  and  C_27
    7  A    between atoms: C_13  and  C_39
    8  A    between atoms: C_14  and  C_21
    9  A    between atoms: C_14  and  C_41
   10  A    between atoms: C_15  and  C_42
   11  A    between atoms: C_18  and  C_39
   12  A    between atoms: N_23  and  C_35
   13  A    between atoms: N_24  and  C_35
   14  A    between atoms: C_27  and  N_28
   15  A    between atoms: C_27  and  C_43
   16  A    between atoms: N_28  and  O_37
   17  A    between atoms: N_28  and  C_42
   18  A    between atoms: N_32  and  C_43
                            x       y       z     vdW  Elec       q    Type
                         _______ _______ _______ _____ _____    ______ ____

>  <TORSDO>
F 18

$$$$
=
 OpenBabel10222421353D

 43 46  0  0  1  0  0  0  0  0999 V2000
  183.9300  177.9480  138.8800 C   0  0  1  0  0  3  0  0  0  0  0  0
  184.2490  178.5490  140.2140 C   0  0  0  0  0  0  0  0  0  0  0  0
  184.2610  179.1720  142.3720 C   0  0  0  0  0  0  0  0  0  0  0  0
  183.3710  178.4540  141.4120 C   0  0  0  0  0  2  0  0  0  0  0  0
  185.3560  179.1620  140.4730 N   0  0  0  0  0  0  0  0  0  0  0  0
  185.3640  179.5440  141.8160 N   0  0  0  0  0  0  0  0  0  0  0  0
  184.0050  179.3300  143.8330 C   0  0  1  0  0  3  0  0  0  0  0  0
  182.7060  178.7800  144.1760 N   0  0  0  0  0  1  0  0  0  0  0  0
  185.0510  178.6470  144.6010 C   0  0  0  0  0  0  0  0  0  0  0  0
  185.9070  178.0870  145.2400 C   0  0  0  0  0  0  0  0  0  0  0  0
  186.9440  177.4070  146.0190 C   0  0  0  0  0  2  0  0  0  0  0  0
  189.6600  177.3380  143.6170 N   0  0  0  0  0  0  0  0  0  0  0  0
  188.3390  177.3250  143.8760 C   0  0  0  0  0  3  0  0  0  0  0  0
  190.2540  177.3080  142.3160 C   0  0  0  0  0  0  0  0  0  0  0  0
  189.4940  177.4130  145.7750 C   0  0  0  0  0  3  0  0  0  0  0  0
  190.4440  177.2470  140.1430 N   0  0  0  0  0  0  0  0  0  0  0  0
  191.6680  177.2790  140.5570 C   0  0  0  0  0  3  0  0  0  0  0  0
  191.7180  177.3230  142.0500 C   0  0  0  0  0  2  0  0  0  0  0  0
  189.5660  177.2650  141.2280 N   0  0  0  0  0  0  0  0  0  0  0  0
  190.3570  177.3920  144.7420 N   0  0  0  0  0  0  0  0  0  0  0  0
  188.2170  177.3620  145.2480 C   0  0  0  0  0  0  0  0  0  0  0  0
  182.4980  179.8340  139.0110 C   0  0  0  0  0  2  0  0  0  0  0  0
  181.7430  178.2350  138.0070 C   0  0  0  0  0  2  0  0  0  0  0  0
  183.0680  178.8410  138.1020 N   0  0  0  0  0  0  0  0  0  0  0  0
  181.1100  179.2480  138.9300 C   0  0  0  0  0  2  0  0  0  0  0  0
  185.1740  177.6990  138.1660 N   0  0  0  0  0  2  0  0  0  0  0  0
  185.0980  176.3390  137.6570 C   0  0  0  0  0  2  0  0  0  0  0  0
  186.3950  175.9370  136.9590 C   0  0  1  0  0  3  0  0  0  0  0  0
  186.1710  174.8900  135.8600 C   0  0  0  0  0  2  0  0  0  0  0  0
  185.1410  172.7890  136.8230 C   0  0  0  0  0  0  0  0  0  0  0  0
  186.2740  172.3290  137.1260 O   0  0  0  0  0  0  0  0  0  0  0  0
  185.0180  174.0570  136.1770 N   0  0  0  0  0  2  0  0  0  0  0  0
  183.9170  172.0200  137.1710 C   0  0  0  0  0  2  0  0  0  0  0  0
  184.2390  170.2700  135.4520 C   0  0  0  0  0  1  0  0  0  0  0  0
  183.3340  171.3890  135.9210 C   0  0  0  0  0  2  0  0  0  0  0  0
  187.1420  177.1230  136.5130 N   0  0  0  0  0  0  0  0  0  0  0  0
  186.6450  178.0690  134.6000 C   0  0  0  0  0  1  0  0  0  0  0  0
  187.4050  177.0490  135.1780 O   0  0  0  0  0  0  0  0  0  0  0  0
  188.3970  177.2100  137.2760 C   0  0  0  0  0  3  0  0  0  0  0  0
  189.3050  175.9970  137.0770 C   0  0  0  0  0  2  0  0  0  0  0  0
  190.5010  176.3890  136.4740 O   0  0  0  0  0  1  0  0  0  0  0  0
  188.6960  179.5320  137.7460 O   0  0  0  0  0  1  0  0  0  0  0  0
  189.1400  178.4920  136.9300 C   0  0  0  0  0  2  0  0  0  0  0  0
  1 26  1  6  0  0  0
  1  2  1  0  0  0  0
  2  5  2  0  0  0  0
  2  4  1  0  0  0  0
  3  7  1  0  0  0  0
  4  3  1  0  0  0  0
  5  6  1  0  0  0  0
  6  3  2  0  0  0  0
  7  8  1  6  0  0  0
  7  9  1  0  0  0  0
  9 10  3  0  0  0  0
 10 11  1  0  0  0  0
 12 13  1  0  0  0  0
 12 20  1  0  0  0  0
 13 21  2  0  0  0  0
 14 12  1  0  0  0  0
 16 17  2  0  0  0  0
 16 19  1  0  0  0  0
 17 18  1  0  0  0  0
 18 14  1  0  0  0  0
 19 14  2  0  0  0  0
 20 15  2  0  0  0  0
 21 15  1  0  0  0  0
 21 11  1  0  0  0  0
 23 24  1  0  0  0  0
 23 25  1  0  0  0  0
 24  1  1  0  0  0  0
 24 22  1  0  0  0  0
 25 22  1  0  0  0  0
 27 26  1  0  0  0  0
 28 29  1  6  0  0  0
 28 27  1  0  0  0  0
 29 32  1  0  0  0  0
 30 31  2  0  0  0  0
 30 33  1  0  0  0  0
 32 30  1  0  0  0  0
 34 35  1  0  0  0  0
 35 33  1  0  0  0  0
 36 28  1  0  0  0  0
 36 39  1  0  0  0  0
 37 38  1  0  0  0  0
 38 36  1  0  0  0  0
 40 39  1  0  0  0  0
 41 40  1  0  0  0  0
 43 39  1  0  0  0  0
 43 42  1  0  0  0  0
M  END
>  <MODEL>
8

>  <REMARK>
 VINA RESULT:      -6.3      3.096      6.868
  Name = 
  18 active torsions:
  status: ('A' for Active; 'I' for Inactive)
    1  A    between atoms: C_3  and  C_9
    2  A    between atoms: C_3  and  C_22
    3  A    between atoms: C_5  and  C_42
    4  A    between atoms: C_8  and  C_35
    5  A    between atoms: C_12  and  N_24
    6  A    between atoms: C_12  and  C_27
    7  A    between atoms: C_13  and  C_39
    8  A    between atoms: C_14  and  C_21
    9  A    between atoms: C_14  and  C_41
   10  A    between atoms: C_15  and  C_42
   11  A    between atoms: C_18  and  C_39
   12  A    between atoms: N_23  and  C_35
   13  A    between atoms: N_24  and  C_35
   14  A    between atoms: C_27  and  N_28
   15  A    between atoms: C_27  and  C_43
   16  A    between atoms: N_28  and  O_37
   17  A    between atoms: N_28  and  C_42
   18  A    between atoms: N_32  and  C_43
                            x       y       z     vdW  Elec       q    Type
                         _______ _______ _______ _____ _____    ______ ____

>  <TORSDO>
F 18

$$$$
=
 OpenBabel10222421353D

 43 46  0  0  1  0  0  0  0  0999 V2000
  187.9770  177.9550  137.9140 C   0  0  1  0  0  3  0  0  0  0  0  0
  188.2890  177.9490  139.3780 C   0  0  0  0  0  0  0  0  0  0  0  0
  189.1580  177.5750  141.4150 C   0  0  0  0  0  0  0  0  0  0  0  0
  189.2790  177.0460  140.0240 C   0  0  0  0  0  3  0  0  0  0  0  0
  187.7680  178.7770  140.2210 N   0  0  0  0  0  2  0  0  0  0  0  0
  188.3140  178.5470  141.4860 N   0  0  0  0  0  0  0  0  0  0  0  0
  189.9980  177.1560  142.5750 C   0  0  1  0  0  3  0  0  0  0  0  0
  191.2490  177.8940  142.5800 N   0  0  0  0  0  1  0  0  0  0  0  0
  189.2760  177.3950  143.8280 C   0  0  0  0  0  0  0  0  0  0  0  0
  188.6850  177.5850  144.8620 C   0  0  0  0  0  0  0  0  0  0  0  0
  187.9690  177.8120  146.1190 C   0  0  0  0  0  2  0  0  0  0  0  0
  184.6680  178.5890  144.8330 N   0  0  0  0  0  0  0  0  0  0  0  0
  185.9420  178.2150  144.6100 C   0  0  0  0  0  3  0  0  0  0  0  0
  183.6580  178.7390  143.8320 C   0  0  0  0  0  0  0  0  0  0  0  0
  185.6120  178.5630  146.7820 C   0  0  0  0  0  3  0  0  0  0  0  0
  182.6840  178.7570  141.8790 N   0  0  0  0  0  0  0  0  0  0  0  0
  181.7450  179.1140  142.6930 C   0  0  0  0  0  3  0  0  0  0  0  0
  182.2540  179.1530  144.0980 C   0  0  0  0  0  2  0  0  0  0  0  0
  183.8680  178.5240  142.5790 N   0  0  0  0  0  0  0  0  0  0  0  0
  184.4600  178.7980  146.1240 N   0  0  0  0  0  0  0  0  0  0  0  0
  186.5590  178.2040  145.8420 C   0  0  0  0  0  0  0  0  0  0  0  0
  189.0950  178.6450  135.9400 C   0  0  0  0  0  2  0  0  0  0  0  0
  189.0280  176.6360  136.2450 C   0  0  0  0  0  2  0  0  0  0  0  0
  189.1980  177.7910  137.1220 N   0  0  0  0  0  0  0  0  0  0  0  0
  188.9300  177.4790  134.9970 C   0  0  0  0  0  2  0  0  0  0  0  0
  187.0410  176.8760  137.6280 N   0  0  0  0  0  2  0  0  0  0  0  0
  185.7350  177.4910  137.4550 C   0  0  0  0  0  2  0  0  0  0  0  0
  184.9510  176.8170  136.3320 C   0  0  1  0  0  3  0  0  0  0  0  0
  185.6210  175.5250  135.8430 C   0  0  0  0  0  2  0  0  0  0  0  0
  184.8290  173.4300  137.0210 C   0  0  0  0  0  0  0  0  0  0  0  0
  185.7610  173.5100  137.8650 O   0  0  0  0  0  0  0  0  0  0  0  0
  184.7090  174.3970  135.9750 N   0  0  0  0  0  2  0  0  0  0  0  0
  183.8270  172.3380  137.1300 C   0  0  0  0  0  2  0  0  0  0  0  0
  181.4020  171.9490  137.4360 C   0  0  0  0  0  1  0  0  0  0  0  0
  182.4400  172.8820  136.8480 C   0  0  0  0  0  2  0  0  0  0  0  0
  183.5370  176.6550  136.7000 N   0  0  0  0  0  0  0  0  0  0  0  0
  181.8570  176.0760  135.4180 C   0  0  0  0  0  1  0  0  0  0  0  0
  182.7280  177.1290  135.7110 O   0  0  0  0  0  0  0  0  0  0  0  0
  183.2850  177.3810  137.9560 C   0  0  0  0  0  3  0  0  0  0  0  0
  182.1290  178.3750  137.8520 C   0  0  0  0  0  2  0  0  0  0  0  0
  182.6200  179.6810  137.8590 O   0  0  0  0  0  1  0  0  0  0  0  0
  181.6740  176.2050  139.2680 O   0  0  0  0  0  1  0  0  0  0  0  0
  183.0430  176.4010  139.0950 C   0  0  0  0  0  2  0  0  0  0  0  0
  1 26  1  1  0  0  0
  1  2  1  0  0  0  0
  2  4  2  0  0  0  0
  2  5  1  0  0  0  0
  3  6  2  0  0  0  0
  3  7  1  0  0  0  0
  4  3  1  0  0  0  0
  5  6  1  0  0  0  0
  7  8  1  1  0  0  0
  7  9  1  0  0  0  0
  9 10  3  0  0  0  0
 10 11  1  0  0  0  0
 12 20  1  0  0  0  0
 13 12  1  0  0  0  0
 13 21  2  0  0  0  0
 14 18  1  0  0  0  0
 14 12  1  0  0  0  0
 16 19  1  0  0  0  0
 16 17  2  0  0  0  0
 17 18  1  0  0  0  0
 19 14  2  0  0  0  0
 20 15  2  0  0  0  0
 21 11  1  0  0  0  0
 21 15  1  0  0  0  0
 22 24  1  0  0  0  0
 23 24  1  0  0  0  0
 24  1  1  0  0  0  0
 25 22  1  0  0  0  0
 25 23  1  0  0  0  0
 27 26  1  0  0  0  0
 28 29  1  1  0  0  0
 28 36  1  0  0  0  0
 28 27  1  0  0  0  0
 29 32  1  0  0  0  0
 30 33  1  0  0  0  0
 30 31  2  0  0  0  0
 32 30  1  0  0  0  0
 35 33  1  0  0  0  0
 35 34  1  0  0  0  0
 36 39  1  0  0  0  0
 37 38  1  0  0  0  0
 38 36  1  0  0  0  0
 39 43  1  0  0  0  0
 40 41  1  0  0  0  0
 40 39  1  0  0  0  0
 43 42  1  0  0  0  0
M  END
>  <MODEL>
9

>  <REMARK>
 VINA RESULT:      -6.2      3.845      6.434
  Name = 
  18 active torsions:
  status: ('A' for Active; 'I' for Inactive)
    1  A    between atoms: C_3  and  C_9
    2  A    between atoms: C_3  and  C_22
    3  A    between atoms: C_5  and  C_42
    4  A    between atoms: C_8  and  C_35
    5  A    between atoms: C_12  and  N_24
    6  A    between atoms: C_12  and  C_27
    7  A    between atoms: C_13  and  C_39
    8  A    between atoms: C_14  and  C_21
    9  A    between atoms: C_14  and  C_41
   10  A    between atoms: C_15  and  C_42
   11  A    between atoms: C_18  and  C_39
   12  A    between atoms: N_23  and  C_35
   13  A    between atoms: N_24  and  C_35
   14  A    between atoms: C_27  and  N_28
   15  A    between atoms: C_27  and  C_43
   16  A    between atoms: N_28  and  O_37
   17  A    between atoms: N_28  and  C_42
   18  A    between atoms: N_32  and  C_43
                            x       y       z     vdW  Elec       q    Type
                         _______ _______ _______ _____ _____    ______ ____

>  <TORSDO>
F 18

$$$$
