=
 OpenBabel10232412503D

 40 44  0  0  0  0  0  0  0  0999 V2000
  187.3770  176.9590  137.7270 C   0  0  0  0  0  0  0  0  0  0  0  0
  188.7790  177.2460  142.2170 C   0  0  0  0  0  2  0  0  0  0  0  0
  186.3290  176.6510  136.8540 C   0  0  0  0  0  3  0  0  0  0  0  0
  193.2600  176.6430  138.2680 C   0  0  0  0  0  2  0  0  0  0  0  0
  192.0640  176.7900  139.1150 C   0  0  0  0  0  0  0  0  0  0  0  0
  189.2960  177.4560  139.7560 N   0  0  0  0  0  0  0  0  0  0  0  0
  187.7790  177.7130  145.6390 C   0  0  0  0  0  3  0  0  0  0  0  0
  188.5920  175.0140  136.9440 C   0  0  0  0  0  3  0  0  0  0  0  0
  188.5680  177.5880  144.6080 C   0  0  0  0  0  0  0  0  0  0  0  0
  188.1650  178.3330  139.5800 C   0  0  0  0  0  3  0  0  0  0  0  0
  191.4260  175.5900  137.1980 C   0  0  0  0  0  2  0  0  0  0  0  0
  190.7920  177.2720  143.8000 C   0  0  0  0  0  3  0  0  0  0  0  0
  192.8850  175.7550  137.1630 N   0  0  0  0  0  0  0  0  0  0  0  0
  189.6320  176.5380  138.6950 C   0  0  0  0  0  0  0  0  0  0  0  0
  186.4130  175.5280  136.0270 C   0  0  0  0  0  3  0  0  0  0  0  0
  191.1230  177.1670  141.3630 C   0  0  0  0  0  0  0  0  0  0  0  0
  188.5300  176.1520  137.7640 C   0  0  0  0  0  0  0  0  0  0  0  0
  190.9190  176.2420  138.4370 C   0  0  0  0  0  0  0  0  0  0  0  0
  189.8010  177.2950  141.0940 C   0  0  0  0  0  0  0  0  0  0  0  0
  187.2590  178.1200  138.6220 C   0  0  0  0  0  3  0  0  0  0  0  0
  191.6070  177.1300  142.7590 C   0  0  0  0  0  3  0  0  0  0  0  0
  187.5450  174.7010  136.0730 C   0  0  0  0  0  0  0  0  0  0  0  0
  189.3600  177.4560  143.5820 C   0  0  0  0  0  0  0  0  0  0  0  0
  192.1460  177.1480  140.3600 N   0  0  0  0  0  0  0  0  0  0  0  0
  188.4180  177.4400  147.2890 S   0  0  0  0  0  0  0  0  0  0  0  0
  186.0000  178.6920  147.0670 C   0  0  0  0  0  1  0  0  0  0  0  0
  187.0990  178.4160  148.0720 C   0  0  0  0  0  2  0  0  0  0  0  0
  193.2080  176.4450  135.9240 C   0  0  0  0  0  2  0  0  0  0  0  0
  194.5440  175.9560  135.3910 C   0  0  0  0  0  2  0  0  0  0  0  0
  196.7610  176.9140  135.5830 N   0  0  0  0  0  0  0  0  0  0  0  0
  195.5050  177.0510  135.3910 N   0  0  0  0  0  0  0  0  0  0  0  0
  197.8720  174.9460  134.9110 O   0  0  0  0  0  0  0  0  0  0  0  0
  197.4500  175.6790  135.8490 C   0  0  0  0  0  0  0  0  0  0  0  0
  197.6490  175.2810  137.2080 N   0  0  0  0  0  2  0  0  0  0  0  0
  198.2920  174.0220  137.5750 C   0  0  0  0  0  2  0  0  0  0  0  0
  199.6860  174.2890  138.1180 C   0  0  0  0  0  1  0  0  0  0  0  0
  187.6530  173.5360  135.2470 N   0  0  0  0  0  2  0  0  0  0  0  0
  187.2960  172.1870  135.6700 C   0  0  0  0  0  3  0  0  0  0  0  0
  186.0400  172.1850  136.2490 F   0  0  0  0  0  0  0  0  0  0  0  0
  188.2310  171.7040  136.5690 F   0  0  0  0  0  0  0  0  0  0  0  0
  1 17  1  0  0  0  0
  1 20  1  0  0  0  0
  2 23  1  0  0  0  0
  3  1  2  0  0  0  0
  4  5  1  0  0  0  0
  5 24  2  0  0  0  0
  6 19  1  0  0  0  0
  7 25  1  0  0  0  0
  8 17  2  0  0  0  0
  9  7  2  0  0  0  0
 10  6  1  0  0  0  0
 11 18  1  0  0  0  0
 13 11  1  0  0  0  0
 13  4  1  0  0  0  0
 14  6  1  0  0  0  0
 15 22  2  0  0  0  0
 15  3  1  0  0  0  0
 16 21  1  0  0  0  0
 17 14  1  0  0  0  0
 18 14  2  0  0  0  0
 18  5  1  0  0  0  0
 19 16  2  0  0  0  0
 19  2  1  0  0  0  0
 20 10  2  0  0  0  0
 21 12  2  0  0  0  0
 22  8  1  0  0  0  0
 23 12  1  0  0  0  0
 23  9  2  0  0  0  0
 24 16  1  0  0  0  0
 25 27  1  0  0  0  0
 26 27  1  0  0  0  0
 28 13  1  0  0  0  0
 29 28  1  0  0  0  0
 30 33  1  0  0  0  0
 31 29  1  0  0  0  0
 31 30  2  0  0  0  0
 32 33  2  0  0  0  0
 33 34  1  0  0  0  0
 34 35  1  0  0  0  0
 35 36  1  0  0  0  0
 37 38  1  0  0  0  0
 37 22  1  0  0  0  0
 38 39  1  0  0  0  0
 38 40  1  0  0  0  0
M  END
>  <MODEL>
1

>  <REMARK>
 VINA RESULT:      -7.9      0.000      0.000
  Name = 
  9 active torsions:
  status: ('A' for Active; 'I' for Inactive)
    1  A    between atoms: C_1  and  C_19
    2  A    between atoms: C_1  and  N_25
    3  A    between atoms: N_2  and  C_21
    4  A    between atoms: C_6  and  N_30
    5  A    between atoms: C_11  and  S_15
    6  A    between atoms: S_15  and  C_39
    7  A    between atoms: N_18  and  C_19
    8  A    between atoms: C_26  and  N_40
    9  A    between atoms: N_30  and  C_32
                            x       y       z     vdW  Elec       q    Type
                         _______ _______ _______ _____ _____    ______ ____

>  <TORSDO>
F 9

$$$$
=
 OpenBabel10232412503D

 40 44  0  0  0  0  0  0  0  0999 V2000
  191.6910  177.4680  141.2670 C   0  0  0  0  0  0  0  0  0  0  0  0
  193.8090  174.7010  138.0950 C   0  0  0  0  0  2  0  0  0  0  0  0
  191.5980  177.8320  142.6130 C   0  0  0  0  0  3  0  0  0  0  0  0
  188.4350  176.7550  136.3790 C   0  0  0  0  0  2  0  0  0  0  0  0
  189.7340  176.3320  136.9310 C   0  0  0  0  0  0  0  0  0  0  0  0
  192.0930  176.4680  138.6430 N   0  0  0  0  0  0  0  0  0  0  0  0
  196.7580  172.8200  137.2590 C   0  0  0  0  0  3  0  0  0  0  0  0
  189.4750  176.4940  141.3840 C   0  0  0  0  0  3  0  0  0  0  0  0
  195.5940  173.3890  137.1080 C   0  0  0  0  0  0  0  0  0  0  0  0
  193.1040  177.2670  139.2910 C   0  0  0  0  0  3  0  0  0  0  0  0
  188.2850  176.7040  138.7440 C   0  0  0  0  0  2  0  0  0  0  0  0
  193.6310  173.6380  135.7710 C   0  0  0  0  0  3  0  0  0  0  0  0
  187.5010  176.8210  137.5070 N   0  0  0  0  0  0  0  0  0  0  0  0
  190.7570  176.4680  139.1870 C   0  0  0  0  0  0  0  0  0  0  0  0
  190.4460  177.5290  143.3440 C   0  0  0  0  0  3  0  0  0  0  0  0
  191.8730  175.1550  136.5850 C   0  0  0  0  0  0  0  0  0  0  0  0
  190.6180  176.8120  140.6330 C   0  0  0  0  0  0  0  0  0  0  0  0
  189.6910  176.3890  138.3680 C   0  0  0  0  0  0  0  0  0  0  0  0
  192.5430  175.4560  137.7250 C   0  0  0  0  0  0  0  0  0  0  0  0
  192.9250  177.7550  140.5210 C   0  0  0  0  0  3  0  0  0  0  0  0
  192.4370  174.1990  135.6100 C   0  0  0  0  0  3  0  0  0  0  0  0
  189.3800  176.8530  142.7320 C   0  0  0  0  0  0  0  0  0  0  0  0
  194.4280  173.9490  136.9550 C   0  0  0  0  0  0  0  0  0  0  0  0
  190.6450  175.7810  136.1900 N   0  0  0  0  0  0  0  0  0  0  0  0
  197.2640  171.5160  136.1430 S   0  0  0  0  0  0  0  0  0  0  0  0
  195.3050  169.7360  136.8220 C   0  0  0  0  0  1  0  0  0  0  0  0
  196.6820  170.1990  137.2530 C   0  0  0  0  0  2  0  0  0  0  0  0
  186.9080  178.1500  137.5020 C   0  0  0  0  0  2  0  0  0  0  0  0
  185.5440  178.1110  138.1680 C   0  0  0  0  0  2  0  0  0  0  0  0
  184.4710  179.8290  139.4970 N   0  0  0  0  0  0  0  0  0  0  0  0
  185.0870  179.4670  138.4370 N   0  0  0  0  0  0  0  0  0  0  0  0
  183.2280  178.0760  140.4670 O   0  0  0  0  0  0  0  0  0  0  0  0
  184.1020  178.9780  140.5970 C   0  0  0  0  0  0  0  0  0  0  0  0
  184.7430  179.1710  141.8610 N   0  0  0  0  0  2  0  0  0  0  0  0
  184.3990  178.3900  143.0460 C   0  0  0  0  0  2  0  0  0  0  0  0
  184.2920  179.3020  144.2570 C   0  0  0  0  0  1  0  0  0  0  0  0
  188.1920  176.5180  143.4580 N   0  0  0  0  0  2  0  0  0  0  0  0
  187.7380  177.2040  144.6620 C   0  0  0  0  0  3  0  0  0  0  0  0
  188.5670  176.8990  145.7260 F   0  0  0  0  0  0  0  0  0  0  0  0
  186.4370  176.8420  144.9580 F   0  0  0  0  0  0  0  0  0  0  0  0
  1  3  1  0  0  0  0
  3 15  2  0  0  0  0
  4  5  1  0  0  0  0
  4 13  1  0  0  0  0
  5 18  1  0  0  0  0
  6 14  1  0  0  0  0
  6 10  1  0  0  0  0
  8 22  2  0  0  0  0
  9  7  2  0  0  0  0
 10 20  2  0  0  0  0
 12 23  1  0  0  0  0
 13 11  1  0  0  0  0
 14 17  1  0  0  0  0
 16 19  2  0  0  0  0
 17  1  2  0  0  0  0
 17  8  1  0  0  0  0
 18 11  1  0  0  0  0
 18 14  2  0  0  0  0
 19  2  1  0  0  0  0
 19  6  1  0  0  0  0
 20  1  1  0  0  0  0
 21 12  2  0  0  0  0
 21 16  1  0  0  0  0
 22 15  1  0  0  0  0
 22 37  1  0  0  0  0
 23  9  2  0  0  0  0
 23  2  1  0  0  0  0
 24 16  1  0  0  0  0
 24  5  2  0  0  0  0
 25 27  1  0  0  0  0
 25  7  1  0  0  0  0
 26 27  1  0  0  0  0
 28 13  1  0  0  0  0
 28 29  1  0  0  0  0
 29 31  1  0  0  0  0
 30 33  1  0  0  0  0
 31 30  2  0  0  0  0
 32 33  2  0  0  0  0
 33 34  1  0  0  0  0
 34 35  1  0  0  0  0
 35 36  1  0  0  0  0
 37 38  1  0  0  0  0
 38 40  1  0  0  0  0
 38 39  1  0  0  0  0
M  END
>  <MODEL>
2

>  <REMARK>
 VINA RESULT:      -7.4      4.906      9.865
  Name = 
  9 active torsions:
  status: ('A' for Active; 'I' for Inactive)
    1  A    between atoms: C_1  and  C_19
    2  A    between atoms: C_1  and  N_25
    3  A    between atoms: N_2  and  C_21
    4  A    between atoms: C_6  and  N_30
    5  A    between atoms: C_11  and  S_15
    6  A    between atoms: S_15  and  C_39
    7  A    between atoms: N_18  and  C_19
    8  A    between atoms: C_26  and  N_40
    9  A    between atoms: N_30  and  C_32
                            x       y       z     vdW  Elec       q    Type
                         _______ _______ _______ _____ _____    ______ ____

>  <TORSDO>
F 9

$$$$
=
 OpenBabel10232412503D

 40 44  0  0  0  0  0  0  0  0999 V2000
  187.4620  176.6490  137.3900 C   0  0  0  0  0  0  0  0  0  0  0  0
  188.1220  177.3940  141.9960 C   0  0  0  0  0  2  0  0  0  0  0  0
  186.5830  176.1990  136.4000 C   0  0  0  0  0  3  0  0  0  0  0  0
  193.1950  176.7860  138.8430 C   0  0  0  0  0  2  0  0  0  0  0  0
  191.8740  176.9170  139.4830 C   0  0  0  0  0  0  0  0  0  0  0  0
  189.0070  177.4400  139.6330 N   0  0  0  0  0  0  0  0  0  0  0  0
  186.5730  178.0660  145.1710 C   0  0  0  0  0  3  0  0  0  0  0  0
  188.8910  174.7350  136.9800 C   0  0  0  0  0  3  0  0  0  0  0  0
  187.5190  177.9140  144.2870 C   0  0  0  0  0  0  0  0  0  0  0  0
  187.8710  178.2190  139.2090 C   0  0  0  0  0  3  0  0  0  0  0  0
  191.6140  175.5250  137.6080 C   0  0  0  0  0  2  0  0  0  0  0  0
  189.8570  177.6880  143.8570 C   0  0  0  0  0  3  0  0  0  0  0  0
  193.0490  175.7880  137.7800 N   0  0  0  0  0  0  0  0  0  0  0  0
  189.5560  176.4650  138.7230 C   0  0  0  0  0  0  0  0  0  0  0  0
  186.8580  175.0220  135.7010 C   0  0  0  0  0  3  0  0  0  0  0  0
  190.5730  177.4090  141.5190 C   0  0  0  0  0  0  0  0  0  0  0  0
  188.6380  175.9290  137.6750 C   0  0  0  0  0  0  0  0  0  0  0  0
  190.8830  176.2380  138.6910 C   0  0  0  0  0  0  0  0  0  0  0  0
  189.3040  177.4230  141.0410 C   0  0  0  0  0  0  0  0  0  0  0  0
  187.1400  177.8670  138.1480 C   0  0  0  0  0  3  0  0  0  0  0  0
  190.8320  177.5180  142.9690 C   0  0  0  0  0  3  0  0  0  0  0  0
  188.0130  174.2810  135.9930 C   0  0  0  0  0  0  0  0  0  0  0  0
  188.4690  177.7540  143.4090 C   0  0  0  0  0  0  0  0  0  0  0  0
  191.7400  177.3800  140.6880 N   0  0  0  0  0  0  0  0  0  0  0  0
  186.9580  177.9720  146.9160 S   0  0  0  0  0  0  0  0  0  0  0  0
  189.5160  177.3210  147.6240 C   0  0  0  0  0  1  0  0  0  0  0  0
  188.4280  176.9380  146.6400 C   0  0  0  0  0  2  0  0  0  0  0  0
  193.5230  176.3950  136.5470 C   0  0  0  0  0  2  0  0  0  0  0  0
  193.5740  175.3540  135.4420 C   0  0  0  0  0  2  0  0  0  0  0  0
  195.6210  174.0580  135.4610 N   0  0  0  0  0  0  0  0  0  0  0  0
  194.9590  175.0830  135.0820 N   0  0  0  0  0  0  0  0  0  0  0  0
  195.0700  173.1520  137.5670 O   0  0  0  0  0  0  0  0  0  0  0  0
  195.1390  173.0040  136.3140 C   0  0  0  0  0  0  0  0  0  0  0  0
  194.7370  171.7670  135.7200 N   0  0  0  0  0  2  0  0  0  0  0  0
  194.2820  170.6250  136.5080 C   0  0  0  0  0  2  0  0  0  0  0  0
  193.1860  169.8830  135.7630 C   0  0  0  0  0  1  0  0  0  0  0  0
  188.3150  173.0630  135.3010 N   0  0  0  0  0  2  0  0  0  0  0  0
  188.1300  171.7290  135.8590 C   0  0  0  0  0  3  0  0  0  0  0  0
  188.6640  170.7780  135.0090 F   0  0  0  0  0  0  0  0  0  0  0  0
  186.7850  171.4770  136.0630 F   0  0  0  0  0  0  0  0  0  0  0  0
  1 17  1  0  0  0  0
  1 20  1  0  0  0  0
  2 23  1  0  0  0  0
  3  1  2  0  0  0  0
  4  5  1  0  0  0  0
  5 24  2  0  0  0  0
  6 19  1  0  0  0  0
  7 25  1  0  0  0  0
  8 17  2  0  0  0  0
  9  7  2  0  0  0  0
 10  6  1  0  0  0  0
 11 13  1  0  0  0  0
 11 18  1  0  0  0  0
 13  4  1  0  0  0  0
 14  6  1  0  0  0  0
 15 22  2  0  0  0  0
 15  3  1  0  0  0  0
 16 21  1  0  0  0  0
 17 14  1  0  0  0  0
 18 14  2  0  0  0  0
 18  5  1  0  0  0  0
 19 16  2  0  0  0  0
 19  2  1  0  0  0  0
 20 10  2  0  0  0  0
 21 12  2  0  0  0  0
 22  8  1  0  0  0  0
 23 12  1  0  0  0  0
 23  9  2  0  0  0  0
 24 16  1  0  0  0  0
 27 25  1  0  0  0  0
 27 26  1  0  0  0  0
 28 13  1  0  0  0  0
 29 28  1  0  0  0  0
 30 33  1  0  0  0  0
 31 29  1  0  0  0  0
 31 30  2  0  0  0  0
 33 32  2  0  0  0  0
 34 33  1  0  0  0  0
 34 35  1  0  0  0  0
 36 35  1  0  0  0  0
 37 38  1  0  0  0  0
 37 22  1  0  0  0  0
 38 40  1  0  0  0  0
 39 38  1  0  0  0  0
M  END
>  <MODEL>
3

>  <REMARK>
 VINA RESULT:      -6.8      1.993      2.313
  Name = 
  9 active torsions:
  status: ('A' for Active; 'I' for Inactive)
    1  A    between atoms: C_1  and  C_19
    2  A    between atoms: C_1  and  N_25
    3  A    between atoms: N_2  and  C_21
    4  A    between atoms: C_6  and  N_30
    5  A    between atoms: C_11  and  S_15
    6  A    between atoms: S_15  and  C_39
    7  A    between atoms: N_18  and  C_19
    8  A    between atoms: C_26  and  N_40
    9  A    between atoms: N_30  and  C_32
                            x       y       z     vdW  Elec       q    Type
                         _______ _______ _______ _____ _____    ______ ____

>  <TORSDO>
F 9

$$$$
=
 OpenBabel10232412503D

 40 44  0  0  0  0  0  0  0  0999 V2000
  188.8070  177.8910  141.4470 C   0  0  0  0  0  0  0  0  0  0  0  0
  184.2410  178.1750  140.3190 C   0  0  0  0  0  2  0  0  0  0  0  0
  190.0780  177.4630  141.0510 C   0  0  0  0  0  3  0  0  0  0  0  0
  185.3520  178.5040  146.2100 C   0  0  0  0  0  2  0  0  0  0  0  0
  185.2330  178.4120  144.7440 C   0  0  0  0  0  0  0  0  0  0  0  0
  186.1080  178.5900  141.9660 N   0  0  0  0  0  0  0  0  0  0  0  0
  181.8160  178.3020  137.6660 C   0  0  0  0  0  3  0  0  0  0  0  0
  188.7910  176.2100  143.1920 C   0  0  0  0  0  3  0  0  0  0  0  0
  182.3010  178.3580  138.8760 C   0  0  0  0  0  0  0  0  0  0  0  0
  186.8670  179.2800  140.9520 C   0  0  0  0  0  3  0  0  0  0  0  0
  187.1610  177.2230  145.3700 C   0  0  0  0  0  2  0  0  0  0  0  0
  181.8590  178.4470  141.2210 C   0  0  0  0  0  3  0  0  0  0  0  0
  186.4580  177.6230  146.5960 N   0  0  0  0  0  0  0  0  0  0  0  0
  186.8160  177.7920  142.9370 C   0  0  0  0  0  0  0  0  0  0  0  0
  190.7040  176.4110  141.7240 C   0  0  0  0  0  3  0  0  0  0  0  0
  183.7870  178.5190  142.7500 C   0  0  0  0  0  0  0  0  0  0  0  0
  188.1600  177.2800  142.5380 C   0  0  0  0  0  0  0  0  0  0  0  0
  186.3760  177.7210  144.2070 C   0  0  0  0  0  0  0  0  0  0  0  0
  184.6930  178.4450  141.7440 C   0  0  0  0  0  0  0  0  0  0  0  0
  188.1420  178.9710  140.7040 C   0  0  0  0  0  3  0  0  0  0  0  0
  182.3380  178.4900  142.4610 C   0  0  0  0  0  3  0  0  0  0  0  0
  190.0600  175.7750  142.7960 C   0  0  0  0  0  0  0  0  0  0  0  0
  182.7790  178.4080  140.0870 C   0  0  0  0  0  0  0  0  0  0  0  0
  184.1330  178.7160  144.1260 N   0  0  0  0  0  0  0  0  0  0  0  0
  180.0610  178.0530  137.4190 S   0  0  0  0  0  0  0  0  0  0  0  0
  181.5760  176.2740  136.0020 C   0  0  0  0  0  1  0  0  0  0  0  0
  180.2850  176.3610  136.7920 C   0  0  0  0  0  2  0  0  0  0  0  0
  187.3900  178.4170  147.3820 C   0  0  0  0  0  2  0  0  0  0  0  0
  188.6780  177.6420  147.5990 C   0  0  0  0  0  2  0  0  0  0  0  0
  190.7370  177.3300  146.3610 N   0  0  0  0  0  0  0  0  0  0  0  0
  189.5860  177.8720  146.4830 N   0  0  0  0  0  0  0  0  0  0  0  0
  191.0260  175.2020  147.3330 O   0  0  0  0  0  0  0  0  0  0  0  0
  191.3510  176.4220  147.2920 C   0  0  0  0  0  0  0  0  0  0  0  0
  192.3460  176.9240  148.1880 N   0  0  0  0  0  2  0  0  0  0  0  0
  192.9890  176.0890  149.2000 C   0  0  0  0  0  2  0  0  0  0  0  0
  193.8860  176.9410  150.0830 C   0  0  0  0  0  1  0  0  0  0  0  0
  190.6710  174.6860  143.4970 N   0  0  0  0  0  2  0  0  0  0  0  0
  192.0310  174.7020  144.0230 C   0  0  0  0  0  3  0  0  0  0  0  0
  192.1570  173.7820  145.0470 F   0  0  0  0  0  0  0  0  0  0  0  0
  192.3520  175.9670  144.4830 F   0  0  0  0  0  0  0  0  0  0  0  0
  1 17  1  0  0  0  0
  2 19  1  0  0  0  0
  3  1  2  0  0  0  0
  3 15  1  0  0  0  0
  4 13  1  0  0  0  0
  5  4  1  0  0  0  0
  6 14  1  0  0  0  0
  7  9  2  0  0  0  0
  9 23  2  0  0  0  0
 10  6  1  0  0  0  0
 11 13  1  0  0  0  0
 12 21  2  0  0  0  0
 13 28  1  0  0  0  0
 14 18  2  0  0  0  0
 15 22  2  0  0  0  0
 16 24  1  0  0  0  0
 17 14  1  0  0  0  0
 17  8  2  0  0  0  0
 18  5  1  0  0  0  0
 18 11  1  0  0  0  0
 19  6  1  0  0  0  0
 19 16  2  0  0  0  0
 20 10  2  0  0  0  0
 20  1  1  0  0  0  0
 21 16  1  0  0  0  0
 22  8  1  0  0  0  0
 22 37  1  0  0  0  0
 23  2  1  0  0  0  0
 23 12  1  0  0  0  0
 24  5  2  0  0  0  0
 25  7  1  0  0  0  0
 26 27  1  0  0  0  0
 27 25  1  0  0  0  0
 28 29  1  0  0  0  0
 30 31  2  0  0  0  0
 30 33  1  0  0  0  0
 31 29  1  0  0  0  0
 33 32  2  0  0  0  0
 33 34  1  0  0  0  0
 34 35  1  0  0  0  0
 35 36  1  0  0  0  0
 37 38  1  0  0  0  0
 38 40  1  0  0  0  0
 38 39  1  0  0  0  0
M  END
>  <MODEL>
4

>  <REMARK>
 VINA RESULT:      -6.4      6.391      9.722
  Name = 
  9 active torsions:
  status: ('A' for Active; 'I' for Inactive)
    1  A    between atoms: C_1  and  C_19
    2  A    between atoms: C_1  and  N_25
    3  A    between atoms: N_2  and  C_21
    4  A    between atoms: C_6  and  N_30
    5  A    between atoms: C_11  and  S_15
    6  A    between atoms: S_15  and  C_39
    7  A    between atoms: N_18  and  C_19
    8  A    between atoms: C_26  and  N_40
    9  A    between atoms: N_30  and  C_32
                            x       y       z     vdW  Elec       q    Type
                         _______ _______ _______ _____ _____    ______ ____

>  <TORSDO>
F 9

$$$$
=
 OpenBabel10232412503D

 40 44  0  0  0  0  0  0  0  0999 V2000
  186.0180  177.3590  137.8510 C   0  0  0  0  0  0  0  0  0  0  0  0
  188.2420  177.1510  142.0000 C   0  0  0  0  0  2  0  0  0  0  0  0
  184.7980  177.2390  137.1780 C   0  0  0  0  0  3  0  0  0  0  0  0
  191.8120  176.3310  137.2430 C   0  0  0  0  0  2  0  0  0  0  0  0
  190.8190  176.5510  138.3100 C   0  0  0  0  0  0  0  0  0  0  0  0
  188.3220  177.4820  139.4990 N   0  0  0  0  0  0  0  0  0  0  0  0
  187.9520  177.4750  145.5690 C   0  0  0  0  0  3  0  0  0  0  0  0
  186.8130  175.3500  136.7520 C   0  0  0  0  0  3  0  0  0  0  0  0
  188.5170  177.3380  144.4020 C   0  0  0  0  0  0  0  0  0  0  0  0
  187.2980  178.4930  139.5870 C   0  0  0  0  0  3  0  0  0  0  0  0
  189.6950  175.5770  136.4900 C   0  0  0  0  0  2  0  0  0  0  0  0
  190.4980  176.8290  143.1690 C   0  0  0  0  0  3  0  0  0  0  0  0
  191.1330  175.5760  136.1870 N   0  0  0  0  0  0  0  0  0  0  0  0
  188.3400  176.6120  138.3480 C   0  0  0  0  0  0  0  0  0  0  0  0
  184.5850  176.1780  136.2950 C   0  0  0  0  0  3  0  0  0  0  0  0
  190.3620  176.8660  140.7120 C   0  0  0  0  0  0  0  0  0  0  0  0
  187.0470  176.4240  137.6260 C   0  0  0  0  0  0  0  0  0  0  0  0
  189.5100  176.1890  137.8350 C   0  0  0  0  0  0  0  0  0  0  0  0
  189.0390  177.1650  140.7060 C   0  0  0  0  0  0  0  0  0  0  0  0
  186.2130  178.4560  138.8090 C   0  0  0  0  0  3  0  0  0  0  0  0
  191.0840  176.6710  141.9860 C   0  0  0  0  0  3  0  0  0  0  0  0
  185.5930  175.2240  136.0820 C   0  0  0  0  0  0  0  0  0  0  0  0
  189.0850  177.1920  143.2380 C   0  0  0  0  0  0  0  0  0  0  0  0
  191.1730  176.8040  139.5320 N   0  0  0  0  0  0  0  0  0  0  0  0
  188.8420  177.0090  147.0510 S   0  0  0  0  0  0  0  0  0  0  0  0
  191.5010  176.4990  146.6860 C   0  0  0  0  0  1  0  0  0  0  0  0
  190.4450  177.5410  146.3790 C   0  0  0  0  0  2  0  0  0  0  0  0
  191.3080  176.3130  134.9450 C   0  0  0  0  0  2  0  0  0  0  0  0
  192.6690  176.0050  134.3470 C   0  0  0  0  0  2  0  0  0  0  0  0
  194.1750  174.3590  135.2920 N   0  0  0  0  0  0  0  0  0  0  0  0
  193.0750  174.6550  134.7130 N   0  0  0  0  0  0  0  0  0  0  0  0
  195.6520  175.3310  136.8520 O   0  0  0  0  0  0  0  0  0  0  0  0
  195.2100  175.2840  135.6700 C   0  0  0  0  0  0  0  0  0  0  0  0
  195.7390  176.1670  134.6780 N   0  0  0  0  0  2  0  0  0  0  0  0
  196.7550  177.1720  134.9780 C   0  0  0  0  0  2  0  0  0  0  0  0
  196.2480  178.5540  134.6020 C   0  0  0  0  0  1  0  0  0  0  0  0
  185.3990  174.1190  135.1920 N   0  0  0  0  0  2  0  0  0  0  0  0
  185.0120  172.7780  135.6120 C   0  0  0  0  0  3  0  0  0  0  0  0
  184.5960  172.7930  136.9310 F   0  0  0  0  0  0  0  0  0  0  0  0
  186.0740  171.9040  135.4630 F   0  0  0  0  0  0  0  0  0  0  0  0
  1 20  1  0  0  0  0
  2 23  1  0  0  0  0
  3  1  2  0  0  0  0
  4  5  1  0  0  0  0
  5 24  2  0  0  0  0
  6 10  1  0  0  0  0
  6 19  1  0  0  0  0
  7 25  1  0  0  0  0
  8 17  2  0  0  0  0
  9  7  2  0  0  0  0
 11 18  1  0  0  0  0
 12 23  1  0  0  0  0
 13 11  1  0  0  0  0
 13  4  1  0  0  0  0
 14  6  1  0  0  0  0
 15  3  1  0  0  0  0
 16 21  1  0  0  0  0
 17  1  1  0  0  0  0
 17 14  1  0  0  0  0
 18  5  1  0  0  0  0
 18 14  2  0  0  0  0
 19 16  2  0  0  0  0
 19  2  1  0  0  0  0
 20 10  2  0  0  0  0
 21 12  2  0  0  0  0
 22 15  2  0  0  0  0
 22  8  1  0  0  0  0
 23  9  2  0  0  0  0
 24 16  1  0  0  0  0
 27 26  1  0  0  0  0
 27 25  1  0  0  0  0
 28 13  1  0  0  0  0
 29 31  1  0  0  0  0
 29 28  1  0  0  0  0
 30 33  1  0  0  0  0
 31 30  2  0  0  0  0
 33 32  2  0  0  0  0
 34 35  1  0  0  0  0
 34 33  1  0  0  0  0
 36 35  1  0  0  0  0
 37 38  1  0  0  0  0
 37 22  1  0  0  0  0
 38 39  1  0  0  0  0
 40 38  1  0  0  0  0
M  END
>  <MODEL>
5

>  <REMARK>
 VINA RESULT:      -6.3      1.813      2.429
  Name = 
  9 active torsions:
  status: ('A' for Active; 'I' for Inactive)
    1  A    between atoms: C_1  and  C_19
    2  A    between atoms: C_1  and  N_25
    3  A    between atoms: N_2  and  C_21
    4  A    between atoms: C_6  and  N_30
    5  A    between atoms: C_11  and  S_15
    6  A    between atoms: S_15  and  C_39
    7  A    between atoms: N_18  and  C_19
    8  A    between atoms: C_26  and  N_40
    9  A    between atoms: N_30  and  C_32
                            x       y       z     vdW  Elec       q    Type
                         _______ _______ _______ _____ _____    ______ ____

>  <TORSDO>
F 9

$$$$
=
 OpenBabel10232412503D

 40 44  0  0  0  0  0  0  0  0999 V2000
  187.9600  178.2010  140.3630 C   0  0  0  0  0  0  0  0  0  0  0  0
  183.6240  177.2690  138.7720 C   0  0  0  0  0  2  0  0  0  0  0  0
  189.3310  177.9850  140.1960 C   0  0  0  0  0  3  0  0  0  0  0  0
  183.8250  178.9920  144.5200 C   0  0  0  0  0  2  0  0  0  0  0  0
  183.9290  178.5880  143.1070 C   0  0  0  0  0  0  0  0  0  0  0  0
  185.1320  178.3930  140.4550 N   0  0  0  0  0  0  0  0  0  0  0  0
  181.6100  176.3430  135.9400 C   0  0  0  0  0  3  0  0  0  0  0  0
  188.0200  176.9360  142.4300 C   0  0  0  0  0  3  0  0  0  0  0  0
  181.9030  176.7410  137.1470 C   0  0  0  0  0  0  0  0  0  0  0  0
  185.8790  179.0140  139.3900 C   0  0  0  0  0  3  0  0  0  0  0  0
  185.9420  177.9890  144.1620 C   0  0  0  0  0  2  0  0  0  0  0  0
  181.1320  177.1970  139.3610 C   0  0  0  0  0  3  0  0  0  0  0  0
  185.0130  178.4640  145.1960 N   0  0  0  0  0  0  0  0  0  0  0  0
  185.8360  177.9750  141.6430 C   0  0  0  0  0  0  0  0  0  0  0  0
  190.0450  177.2480  141.1420 C   0  0  0  0  0  3  0  0  0  0  0  0
  182.7800  177.9830  141.0110 C   0  0  0  0  0  0  0  0  0  0  0  0
  187.2950  177.6950  141.4970 C   0  0  0  0  0  0  0  0  0  0  0  0
  185.2450  178.0650  142.8480 C   0  0  0  0  0  0  0  0  0  0  0  0
  183.8140  177.9070  140.1380 C   0  0  0  0  0  0  0  0  0  0  0  0
  187.2110  178.9430  139.3390 C   0  0  0  0  0  3  0  0  0  0  0  0
  181.4170  177.5880  140.5990 C   0  0  0  0  0  3  0  0  0  0  0  0
  189.3900  176.7150  142.2630 C   0  0  0  0  0  0  0  0  0  0  0  0
  182.1900  177.1310  138.3560 C   0  0  0  0  0  0  0  0  0  0  0  0
  182.8880  178.5190  142.3360 N   0  0  0  0  0  0  0  0  0  0  0  0
  179.9860  175.6790  135.5890 S   0  0  0  0  0  0  0  0  0  0  0  0
  182.0330  174.1740  134.5840 C   0  0  0  0  0  1  0  0  0  0  0  0
  180.6370  174.0370  135.1580 C   0  0  0  0  0  2  0  0  0  0  0  0
  185.6600  179.5800  145.8700 C   0  0  0  0  0  2  0  0  0  0  0  0
  186.9300  179.1060  146.5530 C   0  0  0  0  0  2  0  0  0  0  0  0
  187.4900  177.3750  148.1540 N   0  0  0  0  0  0  0  0  0  0  0  0
  186.6210  178.0190  147.4730 N   0  0  0  0  0  0  0  0  0  0  0  0
  189.4590  178.4790  148.8350 O   0  0  0  0  0  0  0  0  0  0  0  0
  188.9130  177.5850  148.1300 C   0  0  0  0  0  0  0  0  0  0  0  0
  189.7160  176.7590  147.2820 N   0  0  0  0  0  2  0  0  0  0  0  0
  191.1600  176.9300  147.1530 C   0  0  0  0  0  2  0  0  0  0  0  0
  191.8670  175.6150  147.4350 C   0  0  0  0  0  1  0  0  0  0  0  0
  190.0940  175.9440  143.2440 N   0  0  0  0  0  2  0  0  0  0  0  0
  191.5330  176.0070  143.4670 C   0  0  0  0  0  3  0  0  0  0  0  0
  191.9350  174.9690  144.2890 F   0  0  0  0  0  0  0  0  0  0  0  0
  191.8770  177.2200  144.0370 F   0  0  0  0  0  0  0  0  0  0  0  0
  1 17  1  0  0  0  0
  2 19  1  0  0  0  0
  3  1  2  0  0  0  0
  3 15  1  0  0  0  0
  4 13  1  0  0  0  0
  5  4  1  0  0  0  0
  6 14  1  0  0  0  0
  7  9  2  0  0  0  0
  9 23  2  0  0  0  0
 10  6  1  0  0  0  0
 11 13  1  0  0  0  0
 12 21  2  0  0  0  0
 13 28  1  0  0  0  0
 14 18  2  0  0  0  0
 15 22  2  0  0  0  0
 16 24  1  0  0  0  0
 17 14  1  0  0  0  0
 17  8  2  0  0  0  0
 18  5  1  0  0  0  0
 18 11  1  0  0  0  0
 19  6  1  0  0  0  0
 19 16  2  0  0  0  0
 20 10  2  0  0  0  0
 20  1  1  0  0  0  0
 21 16  1  0  0  0  0
 22  8  1  0  0  0  0
 22 37  1  0  0  0  0
 23  2  1  0  0  0  0
 23 12  1  0  0  0  0
 24  5  2  0  0  0  0
 25  7  1  0  0  0  0
 26 27  1  0  0  0  0
 27 25  1  0  0  0  0
 28 29  1  0  0  0  0
 29 31  1  0  0  0  0
 31 30  2  0  0  0  0
 33 30  1  0  0  0  0
 33 32  2  0  0  0  0
 34 33  1  0  0  0  0
 35 34  1  0  0  0  0
 35 36  1  0  0  0  0
 37 38  1  0  0  0  0
 38 40  1  0  0  0  0
 38 39  1  0  0  0  0
M  END
>  <MODEL>
6

>  <REMARK>
 VINA RESULT:      -5.9      6.459     10.360
  Name = 
  9 active torsions:
  status: ('A' for Active; 'I' for Inactive)
    1  A    between atoms: C_1  and  C_19
    2  A    between atoms: C_1  and  N_25
    3  A    between atoms: N_2  and  C_21
    4  A    between atoms: C_6  and  N_30
    5  A    between atoms: C_11  and  S_15
    6  A    between atoms: S_15  and  C_39
    7  A    between atoms: N_18  and  C_19
    8  A    between atoms: C_26  and  N_40
    9  A    between atoms: N_30  and  C_32
                            x       y       z     vdW  Elec       q    Type
                         _______ _______ _______ _____ _____    ______ ____

>  <TORSDO>
F 9

$$$$
=
 OpenBabel10232412503D

 40 44  0  0  0  0  0  0  0  0999 V2000
  183.8660  178.5390  138.9470 C   0  0  0  0  0  0  0  0  0  0  0  0
  186.5010  177.8920  142.8000 C   0  0  0  0  0  2  0  0  0  0  0  0
  182.5830  178.4830  138.3940 C   0  0  0  0  0  3  0  0  0  0  0  0
  189.5640  177.6300  137.6440 C   0  0  0  0  0  2  0  0  0  0  0  0
  188.6870  177.7230  138.8230 C   0  0  0  0  0  0  0  0  0  0  0  0
  186.3270  178.4970  140.3560 N   0  0  0  0  0  0  0  0  0  0  0  0
  186.5790  177.8190  146.3940 C   0  0  0  0  0  3  0  0  0  0  0  0
  184.5380  176.6700  137.5590 C   0  0  0  0  0  3  0  0  0  0  0  0
  187.0210  177.8160  145.1670 C   0  0  0  0  0  0  0  0  0  0  0  0
  185.3210  179.4850  140.6580 C   0  0  0  0  0  3  0  0  0  0  0  0
  187.3790  176.9470  137.0310 C   0  0  0  0  0  2  0  0  0  0  0  0
  188.8630  177.4620  143.6910 C   0  0  0  0  0  3  0  0  0  0  0  0
  188.7780  176.9910  136.5850 N   0  0  0  0  0  0  0  0  0  0  0  0
  186.2240  177.7600  139.1210 C   0  0  0  0  0  0  0  0  0  0  0  0
  182.2780  177.5250  137.4250 C   0  0  0  0  0  3  0  0  0  0  0  0
  188.4780  177.7690  141.2800 C   0  0  0  0  0  0  0  0  0  0  0  0
  184.8630  177.6420  138.5170 C   0  0  0  0  0  0  0  0  0  0  0  0
  187.3340  177.4060  138.4470 C   0  0  0  0  0  0  0  0  0  0  0  0
  187.1620  178.0550  141.4420 C   0  0  0  0  0  0  0  0  0  0  0  0
  184.1620  179.5250  139.9960 C   0  0  0  0  0  3  0  0  0  0  0  0
  189.3250  177.4400  142.4440 C   0  0  0  0  0  3  0  0  0  0  0  0
  183.2550  176.6090  137.0070 C   0  0  0  0  0  0  0  0  0  0  0  0
  187.4660  177.8040  143.9430 C   0  0  0  0  0  0  0  0  0  0  0  0
  189.1640  177.8430  140.0240 N   0  0  0  0  0  0  0  0  0  0  0  0
  187.6130  177.2000  147.7170 S   0  0  0  0  0  0  0  0  0  0  0  0
  190.2590  176.9100  147.0990 C   0  0  0  0  0  1  0  0  0  0  0  0
  189.1260  177.9130  147.0050 C   0  0  0  0  0  2  0  0  0  0  0  0
  188.8280  177.8620  135.4210 C   0  0  0  0  0  2  0  0  0  0  0  0
  189.7730  177.2850  134.3820 C   0  0  0  0  0  2  0  0  0  0  0  0
  190.5510  175.0180  134.7400 N   0  0  0  0  0  0  0  0  0  0  0  0
  189.6470  175.8340  134.3510 N   0  0  0  0  0  0  0  0  0  0  0  0
  192.6220  176.1380  134.6170 O   0  0  0  0  0  0  0  0  0  0  0  0
  191.8470  175.3700  135.2550 C   0  0  0  0  0  0  0  0  0  0  0  0
  192.2590  174.8290  136.5120 N   0  0  0  0  0  2  0  0  0  0  0  0
  193.5740  175.0890  137.0910 C   0  0  0  0  0  2  0  0  0  0  0  0
  193.4940  176.2560  138.0610 C   0  0  0  0  0  1  0  0  0  0  0  0
  182.9690  175.6060  136.0240 N   0  0  0  0  0  2  0  0  0  0  0  0
  183.9310  174.6220  135.5440 C   0  0  0  0  0  3  0  0  0  0  0  0
  184.6280  175.1250  134.4610 F   0  0  0  0  0  0  0  0  0  0  0  0
  183.2820  173.4540  135.1850 F   0  0  0  0  0  0  0  0  0  0  0  0
  1 20  1  0  0  0  0
  2 23  1  0  0  0  0
  3  1  2  0  0  0  0
  4  5  1  0  0  0  0
  5 24  2  0  0  0  0
  6 10  1  0  0  0  0
  6 19  1  0  0  0  0
  7 25  1  0  0  0  0
  8 17  2  0  0  0  0
  9  7  2  0  0  0  0
 11 18  1  0  0  0  0
 12 23  1  0  0  0  0
 13 11  1  0  0  0  0
 13  4  1  0  0  0  0
 14  6  1  0  0  0  0
 15  3  1  0  0  0  0
 16 19  2  0  0  0  0
 16 21  1  0  0  0  0
 17  1  1  0  0  0  0
 17 14  1  0  0  0  0
 18  5  1  0  0  0  0
 18 14  2  0  0  0  0
 19  2  1  0  0  0  0
 20 10  2  0  0  0  0
 21 12  2  0  0  0  0
 22 15  2  0  0  0  0
 22  8  1  0  0  0  0
 23  9  2  0  0  0  0
 24 16  1  0  0  0  0
 27 26  1  0  0  0  0
 27 25  1  0  0  0  0
 28 13  1  0  0  0  0
 29 28  1  0  0  0  0
 30 33  1  0  0  0  0
 31 29  1  0  0  0  0
 31 30  2  0  0  0  0
 32 33  2  0  0  0  0
 33 34  1  0  0  0  0
 34 35  1  0  0  0  0
 35 36  1  0  0  0  0
 37 22  1  0  0  0  0
 38 37  1  0  0  0  0
 39 38  1  0  0  0  0
 40 38  1  0  0  0  0
M  END
>  <MODEL>
7

>  <REMARK>
 VINA RESULT:      -5.7      2.856      4.155
  Name = 
  9 active torsions:
  status: ('A' for Active; 'I' for Inactive)
    1  A    between atoms: C_1  and  C_19
    2  A    between atoms: C_1  and  N_25
    3  A    between atoms: N_2  and  C_21
    4  A    between atoms: C_6  and  N_30
    5  A    between atoms: C_11  and  S_15
    6  A    between atoms: S_15  and  C_39
    7  A    between atoms: N_18  and  C_19
    8  A    between atoms: C_26  and  N_40
    9  A    between atoms: N_30  and  C_32
                            x       y       z     vdW  Elec       q    Type
                         _______ _______ _______ _____ _____    ______ ____

>  <TORSDO>
F 9

$$$$
=
 OpenBabel10232412503D

 40 44  0  0  0  0  0  0  0  0999 V2000
  182.4100  178.0340  140.3730 C   0  0  0  0  0  0  0  0  0  0  0  0
  187.0680  178.0850  141.0830 C   0  0  0  0  0  2  0  0  0  0  0  0
  181.1510  177.7950  140.9340 C   0  0  0  0  0  3  0  0  0  0  0  0
  185.4550  177.5200  135.3270 C   0  0  0  0  0  2  0  0  0  0  0  0
  185.6990  177.6660  136.7730 C   0  0  0  0  0  0  0  0  0  0  0  0
  185.0960  178.3860  139.5360 N   0  0  0  0  0  0  0  0  0  0  0  0
  189.7260  178.4340  143.4790 C   0  0  0  0  0  3  0  0  0  0  0  0
  182.1380  176.0890  138.9530 C   0  0  0  0  0  3  0  0  0  0  0  0
  189.1390  178.3310  142.3190 C   0  0  0  0  0  0  0  0  0  0  0  0
  184.4880  179.3030  140.4680 C   0  0  0  0  0  3  0  0  0  0  0  0
  183.6370  176.5690  136.5140 C   0  0  0  0  0  2  0  0  0  0  0  0
  189.3720  177.9830  139.9680 C   0  0  0  0  0  3  0  0  0  0  0  0
  184.2540  176.6920  135.1860 N   0  0  0  0  0  0  0  0  0  0  0  0
  184.2440  177.5050  138.7750 C   0  0  0  0  0  0  0  0  0  0  0  0
  180.3870  176.7070  140.5050 C   0  0  0  0  0  3  0  0  0  0  0  0
  187.3250  177.9730  138.6020 C   0  0  0  0  0  0  0  0  0  0  0  0
  182.9060  177.1910  139.3600 C   0  0  0  0  0  0  0  0  0  0  0  0
  184.5610  177.1810  137.5080 C   0  0  0  0  0  0  0  0  0  0  0  0
  186.5100  178.1520  139.6710 C   0  0  0  0  0  0  0  0  0  0  0  0
  183.2210  179.1580  140.8630 C   0  0  0  0  0  3  0  0  0  0  0  0
  188.7870  177.8620  138.7800 C   0  0  0  0  0  3  0  0  0  0  0  0
  180.8820  175.8440  139.5140 C   0  0  0  0  0  0  0  0  0  0  0  0
  188.5580  178.2190  141.1580 C   0  0  0  0  0  0  0  0  0  0  0  0
  186.8710  177.9670  137.2420 N   0  0  0  0  0  0  0  0  0  0  0  0
  191.4710  178.0710  143.6320 S   0  0  0  0  0  0  0  0  0  0  0  0
  191.5730  176.8700  146.0840 C   0  0  0  0  0  1  0  0  0  0  0  0
  191.1800  176.5920  144.6470 C   0  0  0  0  0  2  0  0  0  0  0  0
  183.3180  177.4240  134.3470 C   0  0  0  0  0  2  0  0  0  0  0  0
  181.9930  177.5870  135.0680 C   0  0  0  0  0  2  0  0  0  0  0  0
  180.5810  179.5470  134.8750 N   0  0  0  0  0  0  0  0  0  0  0  0
  181.1510  178.5320  134.3470 N   0  0  0  0  0  0  0  0  0  0  0  0
  180.6890  179.0700  137.1820 O   0  0  0  0  0  0  0  0  0  0  0  0
  180.6470  179.9330  136.2600 C   0  0  0  0  0  0  0  0  0  0  0  0
  180.6600  181.3250  136.5870 N   0  0  0  0  0  2  0  0  0  0  0  0
  180.6750  181.8110  137.9640 C   0  0  0  0  0  2  0  0  0  0  0  0
  182.0930  181.7800  138.5110 C   0  0  0  0  0  1  0  0  0  0  0  0
  180.1270  174.7130  139.0640 N   0  0  0  0  0  2  0  0  0  0  0  0
  180.1280  174.2130  137.6940 C   0  0  0  0  0  3  0  0  0  0  0  0
  181.3040  173.5320  137.4360 F   0  0  0  0  0  0  0  0  0  0  0  0
  179.9820  175.2590  136.8010 F   0  0  0  0  0  0  0  0  0  0  0  0
  1 20  1  0  0  0  0
  1  3  1  0  0  0  0
  2 23  1  0  0  0  0
  4  5  1  0  0  0  0
  5 24  2  0  0  0  0
  5 18  1  0  0  0  0
  6 19  1  0  0  0  0
  6 10  1  0  0  0  0
  7 25  1  0  0  0  0
  8 17  1  0  0  0  0
  8 22  2  0  0  0  0
  9  7  2  0  0  0  0
 10 20  2  0  0  0  0
 11 18  1  0  0  0  0
 12 23  1  0  0  0  0
 13  4  1  0  0  0  0
 13 11  1  0  0  0  0
 14 17  1  0  0  0  0
 14  6  1  0  0  0  0
 15  3  2  0  0  0  0
 16 21  1  0  0  0  0
 16 19  2  0  0  0  0
 17  1  2  0  0  0  0
 18 14  2  0  0  0  0
 19  2  1  0  0  0  0
 21 12  2  0  0  0  0
 22 15  1  0  0  0  0
 23  9  2  0  0  0  0
 24 16  1  0  0  0  0
 25 27  1  0  0  0  0
 27 26  1  0  0  0  0
 28 29  1  0  0  0  0
 28 13  1  0  0  0  0
 30 33  1  0  0  0  0
 31 30  2  0  0  0  0
 31 29  1  0  0  0  0
 33 34  1  0  0  0  0
 33 32  2  0  0  0  0
 34 35  1  0  0  0  0
 35 36  1  0  0  0  0
 37 22  1  0  0  0  0
 38 37  1  0  0  0  0
 39 38  1  0  0  0  0
 40 38  1  0  0  0  0
M  END
>  <MODEL>
8

>  <REMARK>
 VINA RESULT:      -5.5      5.972      9.426
  Name = 
  9 active torsions:
  status: ('A' for Active; 'I' for Inactive)
    1  A    between atoms: C_1  and  C_19
    2  A    between atoms: C_1  and  N_25
    3  A    between atoms: N_2  and  C_21
    4  A    between atoms: C_6  and  N_30
    5  A    between atoms: C_11  and  S_15
    6  A    between atoms: S_15  and  C_39
    7  A    between atoms: N_18  and  C_19
    8  A    between atoms: C_26  and  N_40
    9  A    between atoms: N_30  and  C_32
                            x       y       z     vdW  Elec       q    Type
                         _______ _______ _______ _____ _____    ______ ____

>  <TORSDO>
F 9

$$$$
=
 OpenBabel10232412503D

 40 44  0  0  0  0  0  0  0  0999 V2000
  183.1730  178.5850  140.4180 C   0  0  0  0  0  0  0  0  0  0  0  0
  186.5020  177.8700  143.6750 C   0  0  0  0  0  2  0  0  0  0  0  0
  181.8210  178.4480  140.0880 C   0  0  0  0  0  3  0  0  0  0  0  0
  188.6010  178.3880  138.0740 C   0  0  0  0  0  2  0  0  0  0  0  0
  187.9450  178.2840  139.3890 C   0  0  0  0  0  0  0  0  0  0  0  0
  185.8410  178.6710  141.3740 N   0  0  0  0  0  0  0  0  0  0  0  0
  187.2300  177.4840  147.1750 C   0  0  0  0  0  3  0  0  0  0  0  0
  183.7420  176.9270  138.7440 C   0  0  0  0  0  3  0  0  0  0  0  0
  187.4430  177.6350  145.8970 C   0  0  0  0  0  0  0  0  0  0  0  0
  184.8250  179.5180  141.9470 C   0  0  0  0  0  3  0  0  0  0  0  0
  186.4080  177.5410  137.7730 C   0  0  0  0  0  2  0  0  0  0  0  0
  189.0140  177.6060  144.1000 C   0  0  0  0  0  3  0  0  0  0  0  0
  187.6950  177.7680  137.1030 N   0  0  0  0  0  0  0  0  0  0  0  0
  185.5820  178.0400  140.1030 C   0  0  0  0  0  0  0  0  0  0  0  0
  181.4300  177.5540  139.0890 C   0  0  0  0  0  3  0  0  0  0  0  0
  188.1770  178.0870  141.8360 C   0  0  0  0  0  0  0  0  0  0  0  0
  184.1500  177.8380  139.7310 C   0  0  0  0  0  0  0  0  0  0  0  0
  186.5790  177.8640  139.2170 C   0  0  0  0  0  0  0  0  0  0  0  0
  186.8930  178.2210  142.2490 C   0  0  0  0  0  0  0  0  0  0  0  0
  183.5670  179.4980  141.5000 C   0  0  0  0  0  3  0  0  0  0  0  0
  189.2450  177.7440  142.7970 C   0  0  0  0  0  3  0  0  0  0  0  0
  182.3910  176.7840  138.4150 C   0  0  0  0  0  0  0  0  0  0  0  0
  187.6610  177.7790  144.6210 C   0  0  0  0  0  0  0  0  0  0  0  0
  188.6180  178.3440  140.4970 N   0  0  0  0  0  0  0  0  0  0  0  0
  188.5340  176.8580  148.2290 S   0  0  0  0  0  0  0  0  0  0  0  0
  191.0080  176.8570  147.0680 C   0  0  0  0  0  1  0  0  0  0  0  0
  189.8300  177.7720  147.3400 C   0  0  0  0  0  2  0  0  0  0  0  0
  187.4610  178.7410  136.0460 C   0  0  0  0  0  2  0  0  0  0  0  0
  186.7570  178.0760  134.8760 C   0  0  0  0  0  2  0  0  0  0  0  0
  187.2010  175.7540  134.3460 N   0  0  0  0  0  0  0  0  0  0  0  0
  187.5690  176.9770  134.3710 N   0  0  0  0  0  0  0  0  0  0  0  0
  184.8490  175.7830  134.5110 O   0  0  0  0  0  0  0  0  0  0  0  0
  185.9450  175.2350  134.8190 C   0  0  0  0  0  0  0  0  0  0  0  0
  185.9510  174.0790  135.6600 N   0  0  0  0  0  2  0  0  0  0  0  0
  184.7310  173.5110  136.2280 C   0  0  0  0  0  2  0  0  0  0  0  0
  184.8950  173.3190  137.7260 C   0  0  0  0  0  1  0  0  0  0  0  0
  182.0190  175.8500  137.3950 N   0  0  0  0  0  2  0  0  0  0  0  0
  181.3560  176.2100  136.1470 C   0  0  0  0  0  3  0  0  0  0  0  0
  181.8560  177.4080  135.6700 F   0  0  0  0  0  0  0  0  0  0  0  0
  179.9900  176.3140  136.3430 F   0  0  0  0  0  0  0  0  0  0  0  0
  1 20  1  0  0  0  0
  2 23  1  0  0  0  0
  3  1  1  0  0  0  0
  4  5  1  0  0  0  0
  5 24  2  0  0  0  0
  6 10  1  0  0  0  0
  6 19  1  0  0  0  0
  7 25  1  0  0  0  0
  8 17  1  0  0  0  0
  9  7  2  0  0  0  0
 11 18  1  0  0  0  0
 12 23  1  0  0  0  0
 13 11  1  0  0  0  0
 13  4  1  0  0  0  0
 14  6  1  0  0  0  0
 15  3  2  0  0  0  0
 16 19  2  0  0  0  0
 16 21  1  0  0  0  0
 17 14  1  0  0  0  0
 17  1  2  0  0  0  0
 18  5  1  0  0  0  0
 18 14  2  0  0  0  0
 19  2  1  0  0  0  0
 20 10  2  0  0  0  0
 21 12  2  0  0  0  0
 22  8  2  0  0  0  0
 22 15  1  0  0  0  0
 23  9  2  0  0  0  0
 24 16  1  0  0  0  0
 26 27  1  0  0  0  0
 27 25  1  0  0  0  0
 28 13  1  0  0  0  0
 29 28  1  0  0  0  0
 30 31  2  0  0  0  0
 30 33  1  0  0  0  0
 31 29  1  0  0  0  0
 32 33  2  0  0  0  0
 33 34  1  0  0  0  0
 34 35  1  0  0  0  0
 35 36  1  0  0  0  0
 37 22  1  0  0  0  0
 38 40  1  0  0  0  0
 38 37  1  0  0  0  0
 39 38  1  0  0  0  0
M  END
>  <MODEL>
9

>  <REMARK>
 VINA RESULT:      -5.5      5.352      6.777
  Name = 
  9 active torsions:
  status: ('A' for Active; 'I' for Inactive)
    1  A    between atoms: C_1  and  C_19
    2  A    between atoms: C_1  and  N_25
    3  A    between atoms: N_2  and  C_21
    4  A    between atoms: C_6  and  N_30
    5  A    between atoms: C_11  and  S_15
    6  A    between atoms: S_15  and  C_39
    7  A    between atoms: N_18  and  C_19
    8  A    between atoms: C_26  and  N_40
    9  A    between atoms: N_30  and  C_32
                            x       y       z     vdW  Elec       q    Type
                         _______ _______ _______ _____ _____    ______ ____

>  <TORSDO>
F 9

$$$$
