=
 OpenBabel10232411143D

 33 37  0  0  1  0  0  0  0  0999 V2000
  187.8840  177.2060  144.2940 C   0  0  0  0  0  3  0  0  0  0  0  0
  187.6300  178.4380  140.2820 C   0  0  0  0  0  3  0  0  0  0  0  0
  186.5440  178.6370  141.1420 C   0  0  0  0  0  3  0  0  0  0  0  0
  190.4430  176.7680  142.5030 S   0  0  2  0  0  0  0  0  0  0  0  0
  186.6100  178.2110  142.4760 C   0  0  0  0  0  0  0  0  0  0  0  0
  188.7810  177.7880  140.7410 C   0  0  0  0  0  0  0  0  0  0  0  0
  189.8260  176.6880  138.6510 C   0  0  1  0  0  3  0  0  0  0  0  0
  188.8720  177.4150  142.0720 C   0  0  0  0  0  0  0  0  0  0  0  0
  191.0160  176.7730  137.6810 C   0  0  0  0  0  2  0  0  0  0  0  0
  185.6230  177.9740  144.6780 C   0  0  0  0  0  3  0  0  0  0  0  0
  185.5150  178.3910  143.3410 C   0  0  0  0  0  0  0  0  0  0  0  0
  187.7990  177.6080  142.9570 C   0  0  0  0  0  0  0  0  0  0  0  0
  192.5370  176.0060  138.3320 S   0  0  0  0  0  0  0  0  0  0  0  0
  192.4400  177.4340  140.7210 C   0  0  0  0  0  2  0  0  0  0  0  0
  191.0390  176.8410  140.8070 C   0  0  2  0  0  3  0  0  0  0  0  0
  192.9600  177.5020  139.2860 C   0  0  0  0  0  2  0  0  0  0  0  0
  186.7990  177.3900  145.1510 C   0  0  0  0  0  3  0  0  0  0  0  0
  190.1770  175.2820  142.7020 O   0  0  0  0  0  0  0  0  0  0  0  0
  190.0220  177.5650  139.9080 C   0  0  2  0  0  3  0  0  0  0  0  0
  183.1740  179.1340  143.6700 C   0  0  0  0  0  1  0  0  0  0  0  0
  184.3320  178.9690  142.8610 O   0  0  0  0  0  0  0  0  0  0  0  0
  188.4850  176.9070  137.9240 C   0  0  1  0  0  3  0  0  0  0  0  0
  188.6060  177.7260  136.6430 C   0  0  0  0  0  2  0  0  0  0  0  0
  187.3220  178.4810  136.3390 C   0  0  2  0  0  3  0  0  0  0  0  0
  186.2590  178.1510  137.3720 C   0  0  0  0  0  1  0  0  0  0  0  0
  185.7860  177.1580  135.0770 O   0  0  0  0  0  1  0  0  0  0  0  0
  186.8350  178.0710  134.9630 C   0  0  0  0  0  2  0  0  0  0  0  0
  187.7950  175.5780  137.6460 C   0  0  0  0  0  2  0  0  0  0  0  0
  188.4150  174.8990  136.4330 C   0  0  2  0  0  3  0  0  0  0  0  0
  187.9670  172.9950  135.9910 C   0  0  2  0  0  3  0  0  0  0  0  0
  187.4180  174.2540  135.6810 O   0  0  0  0  0  0  0  0  0  0  0  0
  189.0670  173.5960  136.8150 C   0  0  0  0  0  2  0  0  0  0  0  0
  188.5260  172.3500  134.7330 C   0  0  0  0  0  1  0  0  0  0  0  0
  1 17  1  0  0  0  0
  2  6  1  0  0  0  0
  2  3  2  0  0  0  0
  3  5  1  0  0  0  0
  4 18  2  6  0  0  0
  5 12  1  0  0  0  0
  5 11  2  0  0  0  0
  6  8  2  0  0  0  0
  7 22  1  6  0  0  0
  7 19  1  0  0  0  0
  8  4  1  0  0  0  0
  8 12  1  0  0  0  0
  9 13  1  0  0  0  0
  9  7  1  0  0  0  0
 10 17  2  0  0  0  0
 11 10  1  0  0  0  0
 12  1  2  0  0  0  0
 13 16  1  0  0  0  0
 15 14  1  1  0  0  0
 15  4  1  0  0  0  0
 16 14  1  0  0  0  0
 19  6  1  1  0  0  0
 19 15  1  0  0  0  0
 21 11  1  0  0  0  0
 21 20  1  0  0  0  0
 22 23  1  6  0  0  0
 24 23  1  0  0  0  0
 24 25  1  1  0  0  0
 27 26  1  0  0  0  0
 27 24  1  0  0  0  0
 28 22  1  0  0  0  0
 29 32  1  0  0  0  0
 29 28  1  1  0  0  0
 30 33  1  6  0  0  0
 30 32  1  0  0  0  0
 31 30  1  0  0  0  0
 31 29  1  0  0  0  0
M  END
>  <MODEL>
1

>  <REMARK>
 VINA RESULT:      -7.3      0.000      0.000
  Name = 
  7 active torsions:
  status: ('A' for Active; 'I' for Inactive)
    1  A    between atoms: C_4  and  C_7
    2  A    between atoms: C_4  and  C_10
    3  A    between atoms: C_8  and  C_23
    4  A    between atoms: C_10  and  C_24
    5  A    between atoms: O_16  and  C_22
    6  A    between atoms: C_18  and  C_24
    7  A    between atoms: C_23  and  C_24
                            x       y       z     vdW  Elec       q    Type
                         _______ _______ _______ _____ _____    ______ ____

>  <TORSDO>
F 7

$$$$
=
 OpenBabel10232411143D

 33 37  0  0  1  0  0  0  0  0999 V2000
  187.9120  177.3740  144.0680 C   0  0  0  0  0  3  0  0  0  0  0  0
  187.5340  178.2690  139.9770 C   0  0  0  0  0  3  0  0  0  0  0  0
  186.4680  178.5240  140.8470 C   0  0  0  0  0  3  0  0  0  0  0  0
  190.4290  176.8240  142.2500 S   0  0  2  0  0  0  0  0  0  0  0  0
  186.5750  178.2100  142.2090 C   0  0  0  0  0  0  0  0  0  0  0  0
  188.7070  177.6740  140.4560 C   0  0  0  0  0  0  0  0  0  0  0  0
  189.7130  176.4200  138.4350 C   0  0  1  0  0  3  0  0  0  0  0  0
  188.8380  177.4130  141.8100 C   0  0  0  0  0  0  0  0  0  0  0  0
  190.8770  176.4420  137.4300 C   0  0  0  0  0  2  0  0  0  0  0  0
  185.6500  178.1410  144.4490 C   0  0  0  0  0  3  0  0  0  0  0  0
  185.5000  178.4450  143.0860 C   0  0  0  0  0  0  0  0  0  0  0  0
  187.7860  177.6640  142.7050 C   0  0  0  0  0  0  0  0  0  0  0  0
  192.4250  175.7500  138.1000 S   0  0  0  0  0  0  0  0  0  0  0  0
  192.3690  177.3690  140.3660 C   0  0  0  0  0  2  0  0  0  0  0  0
  190.9800  176.7660  140.5380 C   0  0  2  0  0  3  0  0  0  0  0  0
  192.8500  177.3250  138.9160 C   0  0  0  0  0  2  0  0  0  0  0  0
  186.8460  177.6130  144.9360 C   0  0  0  0  0  3  0  0  0  0  0  0
  190.1910  175.3560  142.5760 O   0  0  0  0  0  0  0  0  0  0  0  0
  189.9290  177.4010  139.6110 C   0  0  2  0  0  3  0  0  0  0  0  0
  183.1030  179.0060  143.3650 C   0  0  0  0  0  1  0  0  0  0  0  0
  184.2970  178.9660  142.5930 O   0  0  0  0  0  0  0  0  0  0  0  0
  188.3510  176.5620  137.7300 C   0  0  1  0  0  3  0  0  0  0  0  0
  188.2620  177.7670  136.7980 C   0  0  0  0  0  2  0  0  0  0  0  0
  188.0490  177.3420  135.3540 C   0  0  2  0  0  3  0  0  0  0  0  0
  189.3120  177.5730  134.5440 C   0  0  0  0  0  1  0  0  0  0  0  0
  185.6900  177.5620  135.0560 O   0  0  0  0  0  1  0  0  0  0  0  0
  186.9160  178.1640  134.7720 C   0  0  0  0  0  2  0  0  0  0  0  0
  187.9900  175.2830  136.9850 C   0  0  0  0  0  2  0  0  0  0  0  0
  186.5980  174.8110  137.3810 C   0  0  2  0  0  3  0  0  0  0  0  0
  185.8910  173.0550  136.7200 C   0  0  2  0  0  3  0  0  0  0  0  0
  186.6510  173.4790  137.8260 O   0  0  0  0  0  0  0  0  0  0  0  0
  185.7840  174.4450  136.1670 C   0  0  0  0  0  2  0  0  0  0  0  0
  184.5340  172.5520  137.1860 C   0  0  0  0  0  1  0  0  0  0  0  0
  1 17  1  0  0  0  0
  2  6  1  0  0  0  0
  2  3  2  0  0  0  0
  3  5  1  0  0  0  0
  4 18  2  6  0  0  0
  5 12  1  0  0  0  0
  5 11  2  0  0  0  0
  6  8  2  0  0  0  0
  7 22  1  6  0  0  0
  7 19  1  0  0  0  0
  8  4  1  0  0  0  0
  8 12  1  0  0  0  0
  9 13  1  0  0  0  0
  9  7  1  0  0  0  0
 10 17  2  0  0  0  0
 11 10  1  0  0  0  0
 12  1  2  0  0  0  0
 13 16  1  0  0  0  0
 15 14  1  1  0  0  0
 15  4  1  0  0  0  0
 16 14  1  0  0  0  0
 19  6  1  1  0  0  0
 19 15  1  0  0  0  0
 21 11  1  0  0  0  0
 21 20  1  0  0  0  0
 22 23  1  6  0  0  0
 24 25  1  6  0  0  0
 24 23  1  0  0  0  0
 27 26  1  0  0  0  0
 27 24  1  0  0  0  0
 28 22  1  0  0  0  0
 29 28  1  6  0  0  0
 29 31  1  0  0  0  0
 30 33  1  1  0  0  0
 30 31  1  0  0  0  0
 32 30  1  0  0  0  0
 32 29  1  0  0  0  0
M  END
>  <MODEL>
2

>  <REMARK>
 VINA RESULT:      -7.1      1.146      1.482
  Name = 
  7 active torsions:
  status: ('A' for Active; 'I' for Inactive)
    1  A    between atoms: C_4  and  C_7
    2  A    between atoms: C_4  and  C_10
    3  A    between atoms: C_8  and  C_23
    4  A    between atoms: C_10  and  C_24
    5  A    between atoms: O_16  and  C_22
    6  A    between atoms: C_18  and  C_24
    7  A    between atoms: C_23  and  C_24
                            x       y       z     vdW  Elec       q    Type
                         _______ _______ _______ _____ _____    ______ ____

>  <TORSDO>
F 7

$$$$
=
 OpenBabel10232411143D

 33 37  0  0  1  0  0  0  0  0999 V2000
  186.0590  178.9540  146.8810 C   0  0  0  0  0  3  0  0  0  0  0  0
  187.4080  176.7940  143.5350 C   0  0  0  0  0  3  0  0  0  0  0  0
  188.0400  176.6280  144.7730 C   0  0  0  0  0  3  0  0  0  0  0  0
  184.4790  179.3700  144.1840 S   0  0  2  0  0  0  0  0  0  0  0  0
  187.6130  177.3590  145.8900 C   0  0  0  0  0  0  0  0  0  0  0  0
  186.3590  177.7110  143.3980 C   0  0  0  0  0  0  0  0  0  0  0  0
  186.4130  178.4470  140.9230 C   0  0  1  0  0  3  0  0  0  0  0  0
  185.8970  178.3950  144.5110 C   0  0  0  0  0  0  0  0  0  0  0  0
  185.6570  178.3310  139.5890 C   0  0  0  0  0  2  0  0  0  0  0  0
  187.7870  177.9410  148.2370 C   0  0  0  0  0  3  0  0  0  0  0  0
  188.2560  177.2120  147.1320 C   0  0  0  0  0  0  0  0  0  0  0  0
  186.5110  178.2420  145.7650 C   0  0  0  0  0  0  0  0  0  0  0  0
  184.2350  179.4660  139.4630 S   0  0  0  0  0  0  0  0  0  0  0  0
  183.1390  178.6390  141.8860 C   0  0  0  0  0  2  0  0  0  0  0  0
  184.5190  179.0010  142.4240 C   0  0  2  0  0  3  0  0  0  0  0  0
  183.1580  178.3230  140.3910 C   0  0  0  0  0  2  0  0  0  0  0  0
  186.6960  178.8020  148.1130 C   0  0  0  0  0  3  0  0  0  0  0  0
  185.0050  180.7980  144.2390 O   0  0  0  0  0  0  0  0  0  0  0  0
  185.5830  177.9310  142.1210 C   0  0  2  0  0  3  0  0  0  0  0  0
  190.6820  176.8280  147.4580 C   0  0  0  0  0  1  0  0  0  0  0  0
  189.3570  176.3530  147.2520 O   0  0  0  0  0  0  0  0  0  0  0  0
  187.8290  177.8490  140.8260 C   0  0  1  0  0  3  0  0  0  0  0  0
  188.2140  177.4010  139.4190 C   0  0  0  0  0  2  0  0  0  0  0  0
  189.4380  178.1450  138.9100 C   0  0  2  0  0  3  0  0  0  0  0  0
  189.0750  178.9960  137.7060 C   0  0  0  0  0  1  0  0  0  0  0  0
  190.4470  176.0310  139.3750 O   0  0  0  0  0  1  0  0  0  0  0  0
  190.4890  177.1280  138.5130 C   0  0  0  0  0  2  0  0  0  0  0  0
  188.8660  178.8190  141.3790 C   0  0  0  0  0  2  0  0  0  0  0  0
  189.6300  178.1810  142.5320 C   0  0  2  0  0  3  0  0  0  0  0  0
  191.3000  179.0330  143.2430 C   0  0  2  0  0  3  0  0  0  0  0  0
  189.9220  179.1480  143.5080 O   0  0  0  0  0  0  0  0  0  0  0  0
  191.0830  177.9950  142.1820 C   0  0  0  0  0  2  0  0  0  0  0  0
  192.0110  178.4350  144.4460 C   0  0  0  0  0  1  0  0  0  0  0  0
  1 17  1  0  0  0  0
  2  3  2  0  0  0  0
  3  5  1  0  0  0  0
  4 18  2  6  0  0  0
  4  8  1  0  0  0  0
  5 11  2  0  0  0  0
  6  2  1  0  0  0  0
  6  8  2  0  0  0  0
  7 22  1  6  0  0  0
  7 19  1  0  0  0  0
  8 12  1  0  0  0  0
  9  7  1  0  0  0  0
 11 21  1  0  0  0  0
 11 10  1  0  0  0  0
 12  5  1  0  0  0  0
 12  1  2  0  0  0  0
 13  9  1  0  0  0  0
 13 16  1  0  0  0  0
 15 14  1  1  0  0  0
 15  4  1  0  0  0  0
 16 14  1  0  0  0  0
 17 10  2  0  0  0  0
 19 15  1  0  0  0  0
 19  6  1  1  0  0  0
 21 20  1  0  0  0  0
 22 23  1  6  0  0  0
 22 28  1  0  0  0  0
 24 25  1  6  0  0  0
 24 23  1  0  0  0  0
 27 24  1  0  0  0  0
 27 26  1  0  0  0  0
 29 28  1  6  0  0  0
 29 31  1  0  0  0  0
 30 31  1  0  0  0  0
 30 33  1  1  0  0  0
 32 29  1  0  0  0  0
 32 30  1  0  0  0  0
M  END
>  <MODEL>
3

>  <REMARK>
 VINA RESULT:      -7.0      3.392      6.392
  Name = 
  7 active torsions:
  status: ('A' for Active; 'I' for Inactive)
    1  A    between atoms: C_4  and  C_7
    2  A    between atoms: C_4  and  C_10
    3  A    between atoms: C_8  and  C_23
    4  A    between atoms: C_10  and  C_24
    5  A    between atoms: O_16  and  C_22
    6  A    between atoms: C_18  and  C_24
    7  A    between atoms: C_23  and  C_24
                            x       y       z     vdW  Elec       q    Type
                         _______ _______ _______ _____ _____    ______ ____

>  <TORSDO>
F 7

$$$$
=
 OpenBabel10232411143D

 33 37  0  0  1  0  0  0  0  0999 V2000
  185.9730  178.6250  143.4780 C   0  0  0  0  0  3  0  0  0  0  0  0
  184.2060  178.7370  139.6630 C   0  0  0  0  0  3  0  0  0  0  0  0
  183.4110  178.8930  140.8040 C   0  0  0  0  0  3  0  0  0  0  0  0
  187.9060  178.3450  141.0020 S   0  0  2  0  0  0  0  0  0  0  0  0
  183.9850  178.8360  142.0820 C   0  0  0  0  0  0  0  0  0  0  0  0
  185.5790  178.4960  139.7900 C   0  0  0  0  0  0  0  0  0  0  0  0
  186.2420  177.1770  137.6710 C   0  0  1  0  0  3  0  0  0  0  0  0
  186.1600  178.4950  141.0480 C   0  0  0  0  0  0  0  0  0  0  0  0
  187.0160  177.2860  136.3470 C   0  0  0  0  0  2  0  0  0  0  0  0
  183.8010  178.9350  144.4970 C   0  0  0  0  0  3  0  0  0  0  0  0
  183.1890  178.9720  143.2330 C   0  0  0  0  0  0  0  0  0  0  0  0
  185.3860  178.6540  142.2080 C   0  0  0  0  0  0  0  0  0  0  0  0
  188.8160  177.0660  136.5410 S   0  0  0  0  0  0  0  0  0  0  0  0
  189.0070  178.9820  138.5540 C   0  0  0  0  0  2  0  0  0  0  0  0
  187.9320  178.1290  139.2160 C   0  0  2  0  0  3  0  0  0  0  0  0
  189.0400  178.8070  137.0360 C   0  0  0  0  0  2  0  0  0  0  0  0
  185.1810  178.7660  144.6170 C   0  0  0  0  0  3  0  0  0  0  0  0
  188.1590  176.9340  141.5150 O   0  0  0  0  0  0  0  0  0  0  0  0
  186.5300  178.3600  138.6240 C   0  0  2  0  0  3  0  0  0  0  0  0
  180.8760  178.5230  144.0000 C   0  0  0  0  0  1  0  0  0  0  0  0
  181.8030  179.1330  143.1090 O   0  0  0  0  0  0  0  0  0  0  0  0
  184.7450  176.9030  137.4310 C   0  0  1  0  0  3  0  0  0  0  0  0
  184.2850  177.1970  136.0070 C   0  0  0  0  0  2  0  0  0  0  0  0
  182.7820  177.0200  135.8580 C   0  0  2  0  0  3  0  0  0  0  0  0
  182.3770  177.1630  134.4010 C   0  0  0  0  0  1  0  0  0  0  0  0
  181.3720  178.9470  135.8510 O   0  0  0  0  0  1  0  0  0  0  0  0
  182.0870  178.0840  136.6830 C   0  0  0  0  0  2  0  0  0  0  0  0
  184.3850  175.4760  137.8250 C   0  0  0  0  0  2  0  0  0  0  0  0
  184.9330  174.4880  136.8040 C   0  0  2  0  0  3  0  0  0  0  0  0
  184.6510  172.5170  137.0430 C   0  0  2  0  0  3  0  0  0  0  0  0
  183.9330  173.5680  136.4430 O   0  0  0  0  0  0  0  0  0  0  0  0
  185.7650  173.4250  137.4720 C   0  0  0  0  0  2  0  0  0  0  0  0
  185.1280  171.5420  135.9780 C   0  0  0  0  0  1  0  0  0  0  0  0
  1 17  1  0  0  0  0
  2  6  1  0  0  0  0
  2  3  2  0  0  0  0
  3  5  1  0  0  0  0
  4  8  1  0  0  0  0
  4 18  2  1  0  0  0
  5 12  1  0  0  0  0
  5 11  2  0  0  0  0
  6  8  2  0  0  0  0
  7 22  1  6  0  0  0
  7 19  1  0  0  0  0
  8 12  1  0  0  0  0
  9 13  1  0  0  0  0
  9  7  1  0  0  0  0
 10 17  2  0  0  0  0
 11 10  1  0  0  0  0
 12  1  2  0  0  0  0
 13 16  1  0  0  0  0
 15 14  1  6  0  0  0
 15  4  1  0  0  0  0
 16 14  1  0  0  0  0
 19 15  1  0  0  0  0
 19  6  1  1  0  0  0
 21 11  1  0  0  0  0
 21 20  1  0  0  0  0
 22 23  1  6  0  0  0
 22 28  1  0  0  0  0
 24 25  1  6  0  0  0
 24 23  1  0  0  0  0
 24 27  1  0  0  0  0
 26 27  1  0  0  0  0
 29 32  1  0  0  0  0
 29 28  1  1  0  0  0
 30 33  1  6  0  0  0
 30 32  1  0  0  0  0
 31 29  1  0  0  0  0
 31 30  1  0  0  0  0
M  END
>  <MODEL>
4

>  <REMARK>
 VINA RESULT:      -6.4      2.697      3.634
  Name = 
  7 active torsions:
  status: ('A' for Active; 'I' for Inactive)
    1  A    between atoms: C_4  and  C_7
    2  A    between atoms: C_4  and  C_10
    3  A    between atoms: C_8  and  C_23
    4  A    between atoms: C_10  and  C_24
    5  A    between atoms: O_16  and  C_22
    6  A    between atoms: C_18  and  C_24
    7  A    between atoms: C_23  and  C_24
                            x       y       z     vdW  Elec       q    Type
                         _______ _______ _______ _____ _____    ______ ____

>  <TORSDO>
F 7

$$$$
=
 OpenBabel10232411143D

 33 37  0  0  1  0  0  0  0  0999 V2000
  188.7440  177.4080  143.5410 C   0  0  0  0  0  3  0  0  0  0  0  0
  185.5790  178.7920  141.1430 C   0  0  0  0  0  3  0  0  0  0  0  0
  185.4090  178.6860  142.5290 C   0  0  0  0  0  3  0  0  0  0  0  0
  189.3080  177.6740  140.4500 S   0  0  2  0  0  0  0  0  0  0  0  0
  186.4500  178.2060  143.3360 C   0  0  0  0  0  0  0  0  0  0  0  0
  186.7820  178.3940  140.5500 C   0  0  0  0  0  0  0  0  0  0  0  0
  186.1590  177.6900  138.1440 C   0  0  1  0  0  3  0  0  0  0  0  0
  187.8330  177.9720  141.3480 C   0  0  0  0  0  0  0  0  0  0  0  0
  186.2910  178.1040  136.6690 C   0  0  0  0  0  2  0  0  0  0  0  0
  187.3520  177.6160  145.5080 C   0  0  0  0  0  3  0  0  0  0  0  0
  186.2790  178.0780  144.7260 C   0  0  0  0  0  0  0  0  0  0  0  0
  187.6900  177.8610  142.7410 C   0  0  0  0  0  0  0  0  0  0  0  0
  187.9010  177.6650  135.9350 S   0  0  0  0  0  0  0  0  0  0  0  0
  189.3570  178.8860  137.9720 C   0  0  0  0  0  2  0  0  0  0  0  0
  188.5130  177.9850  138.8660 C   0  0  2  0  0  3  0  0  0  0  0  0
  188.6930  179.1570  136.6220 C   0  0  0  0  0  2  0  0  0  0  0  0
  188.5740  177.2880  144.9200 C   0  0  0  0  0  3  0  0  0  0  0  0
  189.4400  176.1570  140.4680 O   0  0  0  0  0  0  0  0  0  0  0  0
  187.0820  178.5120  139.0740 C   0  0  2  0  0  3  0  0  0  0  0  0
  184.8460  178.4100  146.7190 C   0  0  0  0  0  1  0  0  0  0  0  0
  185.0480  178.3990  145.3120 O   0  0  0  0  0  0  0  0  0  0  0  0
  184.6860  177.6430  138.5910 C   0  0  1  0  0  3  0  0  0  0  0  0
  184.0520  179.0180  138.7720 C   0  0  0  0  0  2  0  0  0  0  0  0
  182.5350  178.9330  138.8170 C   0  0  2  0  0  3  0  0  0  0  0  0
  181.9220  180.2870  138.5030 C   0  0  0  0  0  1  0  0  0  0  0  0
  181.2130  177.4380  140.1270 O   0  0  0  0  0  1  0  0  0  0  0  0
  182.1170  178.4990  140.2070 C   0  0  0  0  0  2  0  0  0  0  0  0
  183.8560  176.7940  137.6360 C   0  0  0  0  0  2  0  0  0  0  0  0
  183.7940  175.3520  138.1200 C   0  0  2  0  0  3  0  0  0  0  0  0
  183.9750  173.8330  136.8240 C   0  0  2  0  0  3  0  0  0  0  0  0
  184.8640  174.6180  137.5820 O   0  0  0  0  0  0  0  0  0  0  0  0
  182.7720  174.5630  137.3440 C   0  0  0  0  0  2  0  0  0  0  0  0
  183.9950  172.3980  137.3260 C   0  0  0  0  0  1  0  0  0  0  0  0
  1 17  1  0  0  0  0
  2  3  2  0  0  0  0
  3  5  1  0  0  0  0
  4 18  2  6  0  0  0
  4  8  1  0  0  0  0
  5 11  2  0  0  0  0
  6  2  1  0  0  0  0
  6  8  2  0  0  0  0
  7 22  1  1  0  0  0
  7 19  1  0  0  0  0
  8 12  1  0  0  0  0
  9  7  1  0  0  0  0
 11 21  1  0  0  0  0
 11 10  1  0  0  0  0
 12  5  1  0  0  0  0
 12  1  2  0  0  0  0
 13 16  1  0  0  0  0
 13  9  1  0  0  0  0
 15 14  1  1  0  0  0
 15 19  1  0  0  0  0
 15  4  1  0  0  0  0
 16 14  1  0  0  0  0
 17 10  2  0  0  0  0
 19  6  1  1  0  0  0
 21 20  1  0  0  0  0
 22 28  1  6  0  0  0
 22 23  1  0  0  0  0
 23 24  1  0  0  0  0
 24 25  1  1  0  0  0
 24 27  1  0  0  0  0
 26 27  1  0  0  0  0
 29 28  1  6  0  0  0
 30 33  1  1  0  0  0
 30 32  1  0  0  0  0
 30 31  1  0  0  0  0
 31 29  1  0  0  0  0
 32 29  1  0  0  0  0
M  END
>  <MODEL>
5

>  <REMARK>
 VINA RESULT:      -6.2      2.761      3.996
  Name = 
  7 active torsions:
  status: ('A' for Active; 'I' for Inactive)
    1  A    between atoms: C_4  and  C_7
    2  A    between atoms: C_4  and  C_10
    3  A    between atoms: C_8  and  C_23
    4  A    between atoms: C_10  and  C_24
    5  A    between atoms: O_16  and  C_22
    6  A    between atoms: C_18  and  C_24
    7  A    between atoms: C_23  and  C_24
                            x       y       z     vdW  Elec       q    Type
                         _______ _______ _______ _____ _____    ______ ____

>  <TORSDO>
F 7

$$$$
=
 OpenBabel10232411143D

 33 37  0  0  1  0  0  0  0  0999 V2000
  188.7330  177.4170  143.6410 C   0  0  0  0  0  3  0  0  0  0  0  0
  185.5170  178.7970  141.3080 C   0  0  0  0  0  3  0  0  0  0  0  0
  185.3770  178.6930  142.6970 C   0  0  0  0  0  3  0  0  0  0  0  0
  189.2310  177.6770  140.5380 S   0  0  2  0  0  0  0  0  0  0  0  0
  186.4350  178.2140  143.4830 C   0  0  0  0  0  0  0  0  0  0  0  0
  186.7080  178.3980  140.6900 C   0  0  0  0  0  0  0  0  0  0  0  0
  186.0340  177.6890  138.3000 C   0  0  1  0  0  3  0  0  0  0  0  0
  187.7750  177.9760  141.4670 C   0  0  0  0  0  0  0  0  0  0  0  0
  186.1340  178.1000  136.8220 C   0  0  0  0  0  2  0  0  0  0  0  0
  187.3820  177.6290  145.6360 C   0  0  0  0  0  3  0  0  0  0  0  0
  186.2940  178.0890  144.8770 C   0  0  0  0  0  0  0  0  0  0  0  0
  187.6620  177.8680  142.8620 C   0  0  0  0  0  0  0  0  0  0  0  0
  187.7280  177.6590  136.0540 S   0  0  0  0  0  0  0  0  0  0  0  0
  189.2270  178.8840  138.0570 C   0  0  0  0  0  2  0  0  0  0  0  0
  188.4030  177.9840  138.9710 C   0  0  2  0  0  3  0  0  0  0  0  0
  188.5350  179.1520  136.7210 C   0  0  0  0  0  2  0  0  0  0  0  0
  188.5920  177.2990  145.0240 C   0  0  0  0  0  3  0  0  0  0  0  0
  189.3630  176.1600  140.5560 O   0  0  0  0  0  0  0  0  0  0  0  0
  186.9770  178.5120  139.2080 C   0  0  2  0  0  3  0  0  0  0  0  0
  184.8990  178.4110  146.8990 C   0  0  0  0  0  1  0  0  0  0  0  0
  185.0750  178.4120  145.4880 O   0  0  0  0  0  0  0  0  0  0  0  0
  184.5700  177.6430  138.7780 C   0  0  1  0  0  3  0  0  0  0  0  0
  183.6790  178.7020  138.1370 C   0  0  0  0  0  2  0  0  0  0  0  0
  183.0260  179.5910  139.1840 C   0  0  2  0  0  3  0  0  0  0  0  0
  182.1030  178.7710  140.0690 C   0  0  0  0  0  1  0  0  0  0  0  0
  180.8670  180.3400  138.4910 O   0  0  0  0  0  1  0  0  0  0  0  0
  182.2250  180.6630  138.4730 C   0  0  0  0  0  2  0  0  0  0  0  0
  183.9780  176.2530  138.5770 C   0  0  0  0  0  2  0  0  0  0  0  0
  182.9500  176.2700  137.4540 C   0  0  2  0  0  3  0  0  0  0  0  0
  182.0220  174.5810  136.8990 C   0  0  2  0  0  3  0  0  0  0  0  0
  181.7890  175.5870  137.8550 O   0  0  0  0  0  0  0  0  0  0  0  0
  183.2770  175.2380  136.4060 C   0  0  0  0  0  2  0  0  0  0  0  0
  180.9380  174.6200  135.8330 C   0  0  0  0  0  1  0  0  0  0  0  0
  1 17  1  0  0  0  0
  2  3  2  0  0  0  0
  3  5  1  0  0  0  0
  4 18  2  6  0  0  0
  4  8  1  0  0  0  0
  5 11  2  0  0  0  0
  6  2  1  0  0  0  0
  6  8  2  0  0  0  0
  7 22  1  1  0  0  0
  7 19  1  0  0  0  0
  8 12  1  0  0  0  0
  9  7  1  0  0  0  0
 11 21  1  0  0  0  0
 11 10  1  0  0  0  0
 12  5  1  0  0  0  0
 12  1  2  0  0  0  0
 13 16  1  0  0  0  0
 13  9  1  0  0  0  0
 15 14  1  1  0  0  0
 15 19  1  0  0  0  0
 15  4  1  0  0  0  0
 16 14  1  0  0  0  0
 17 10  2  0  0  0  0
 19  6  1  1  0  0  0
 21 20  1  0  0  0  0
 22 23  1  6  0  0  0
 23 24  1  0  0  0  0
 24 25  1  1  0  0  0
 27 26  1  0  0  0  0
 27 24  1  0  0  0  0
 28 22  1  0  0  0  0
 29 31  1  0  0  0  0
 29 28  1  1  0  0  0
 30 33  1  6  0  0  0
 30 31  1  0  0  0  0
 32 30  1  0  0  0  0
 32 29  1  0  0  0  0
M  END
>  <MODEL>
6

>  <REMARK>
 VINA RESULT:      -6.1      3.106      4.317
  Name = 
  7 active torsions:
  status: ('A' for Active; 'I' for Inactive)
    1  A    between atoms: C_4  and  C_7
    2  A    between atoms: C_4  and  C_10
    3  A    between atoms: C_8  and  C_23
    4  A    between atoms: C_10  and  C_24
    5  A    between atoms: O_16  and  C_22
    6  A    between atoms: C_18  and  C_24
    7  A    between atoms: C_23  and  C_24
                            x       y       z     vdW  Elec       q    Type
                         _______ _______ _______ _____ _____    ______ ____

>  <TORSDO>
F 7

$$$$
=
 OpenBabel10232411143D

 33 37  0  0  1  0  0  0  0  0999 V2000
  192.4770  177.6630  141.1180 C   0  0  0  0  0  3  0  0  0  0  0  0
  188.6540  176.4220  142.3520 C   0  0  0  0  0  3  0  0  0  0  0  0
  188.9890  176.4010  140.9930 C   0  0  0  0  0  3  0  0  0  0  0  0
  191.9030  177.6860  144.2180 S   0  0  2  0  0  0  0  0  0  0  0  0
  190.2530  176.8320  140.5680 C   0  0  0  0  0  0  0  0  0  0  0  0
  189.5710  176.9000  143.2950 C   0  0  0  0  0  0  0  0  0  0  0  0
  188.1400  177.7990  145.2480 C   0  0  1  0  0  3  0  0  0  0  0  0
  190.8410  177.2750  142.8860 C   0  0  0  0  0  0  0  0  0  0  0  0
  187.7350  177.5210  146.7040 C   0  0  0  0  0  2  0  0  0  0  0  0
  191.8730  177.2480  138.8130 C   0  0  0  0  0  3  0  0  0  0  0  0
  190.5890  176.8320  139.2020 C   0  0  0  0  0  0  0  0  0  0  0  0
  191.2030  177.2580  141.5300 C   0  0  0  0  0  0  0  0  0  0  0  0
  188.9830  178.0620  147.9190 S   0  0  0  0  0  0  0  0  0  0  0  0
  191.0560  176.7010  146.6520 C   0  0  0  0  0  2  0  0  0  0  0  0
  190.5940  177.4990  145.4390 C   0  0  2  0  0  3  0  0  0  0  0  0
  189.9540  176.5350  147.6970 C   0  0  0  0  0  2  0  0  0  0  0  0
  192.8100  177.6570  139.7630 C   0  0  0  0  0  3  0  0  0  0  0  0
  192.0460  179.1980  144.1100 O   0  0  0  0  0  0  0  0  0  0  0  0
  189.3260  176.9210  144.7860 C   0  0  2  0  0  3  0  0  0  0  0  0
  189.4590  177.1120  137.0150 C   0  0  0  0  0  1  0  0  0  0  0  0
  189.6430  176.4300  138.2490 O   0  0  0  0  0  0  0  0  0  0  0  0
  186.9220  177.7710  144.3050 C   0  0  1  0  0  3  0  0  0  0  0  0
  185.6030  177.4760  145.0110 C   0  0  0  0  0  2  0  0  0  0  0  0
  184.9200  178.7510  145.4760 C   0  0  2  0  0  3  0  0  0  0  0  0
  184.8530  178.7900  146.9930 C   0  0  0  0  0  1  0  0  0  0  0  0
  183.3450  179.9130  144.1080 O   0  0  0  0  0  1  0  0  0  0  0  0
  183.5150  178.7820  144.9070 C   0  0  0  0  0  2  0  0  0  0  0  0
  186.8230  179.0660  143.5080 C   0  0  0  0  0  2  0  0  0  0  0  0
  186.5680  178.7680  142.0370 C   0  0  2  0  0  3  0  0  0  0  0  0
  184.7830  179.1640  141.2130 C   0  0  2  0  0  3  0  0  0  0  0  0
  185.9760  179.8820  141.4170 O   0  0  0  0  0  0  0  0  0  0  0  0
  185.3300  177.9280  141.8620 C   0  0  0  0  0  2  0  0  0  0  0  0
  184.5610  178.9410  139.7260 C   0  0  0  0  0  1  0  0  0  0  0  0
  1 12  1  0  0  0  0
  2  6  1  0  0  0  0
  3  2  2  0  0  0  0
  4 18  2  6  0  0  0
  4 15  1  0  0  0  0
  5  3  1  0  0  0  0
  5 12  2  0  0  0  0
  7 22  1  6  0  0  0
  7  9  1  0  0  0  0
  8  6  2  0  0  0  0
  8  4  1  0  0  0  0
  9 13  1  0  0  0  0
 10 11  2  0  0  0  0
 10 17  1  0  0  0  0
 11  5  1  0  0  0  0
 12  8  1  0  0  0  0
 14 16  1  0  0  0  0
 15 14  1  1  0  0  0
 16 13  1  0  0  0  0
 17  1  2  0  0  0  0
 19  6  1  6  0  0  0
 19  7  1  0  0  0  0
 19 15  1  0  0  0  0
 20 21  1  0  0  0  0
 21 11  1  0  0  0  0
 22 28  1  1  0  0  0
 22 23  1  0  0  0  0
 23 24  1  0  0  0  0
 24 25  1  1  0  0  0
 26 27  1  0  0  0  0
 27 24  1  0  0  0  0
 29 28  1  1  0  0  0
 30 33  1  6  0  0  0
 30 31  1  0  0  0  0
 30 32  1  0  0  0  0
 31 29  1  0  0  0  0
 32 29  1  0  0  0  0
M  END
>  <MODEL>
7

>  <REMARK>
 VINA RESULT:      -6.1      2.681      7.304
  Name = 
  7 active torsions:
  status: ('A' for Active; 'I' for Inactive)
    1  A    between atoms: C_4  and  C_7
    2  A    between atoms: C_4  and  C_10
    3  A    between atoms: C_8  and  C_23
    4  A    between atoms: C_10  and  C_24
    5  A    between atoms: O_16  and  C_22
    6  A    between atoms: C_18  and  C_24
    7  A    between atoms: C_23  and  C_24
                            x       y       z     vdW  Elec       q    Type
                         _______ _______ _______ _____ _____    ______ ____

>  <TORSDO>
F 7

$$$$
=
 OpenBabel10232411143D

 33 37  0  0  1  0  0  0  0  0999 V2000
  185.1260  177.0670  137.4330 C   0  0  0  0  0  3  0  0  0  0  0  0
  186.3330  179.0710  140.9270 C   0  0  0  0  0  3  0  0  0  0  0  0
  187.2670  178.7990  139.9210 C   0  0  0  0  0  3  0  0  0  0  0  0
  182.8890  177.6820  139.5680 S   0  0  2  0  0  0  0  0  0  0  0  0
  186.8820  178.1130  138.7610 C   0  0  0  0  0  0  0  0  0  0  0  0
  185.0090  178.6350  140.7940 C   0  0  0  0  0  0  0  0  0  0  0  0
  184.1450  178.3230  143.2070 C   0  0  1  0  0  3  0  0  0  0  0  0
  184.6100  178.0060  139.6260 C   0  0  0  0  0  0  0  0  0  0  0  0
  183.1880  178.9130  144.2560 C   0  0  0  0  0  2  0  0  0  0  0  0
  187.3940  177.1520  136.5950 C   0  0  0  0  0  3  0  0  0  0  0  0
  187.8200  177.8200  137.7550 C   0  0  0  0  0  0  0  0  0  0  0  0
  185.5270  177.7270  138.5990 C   0  0  0  0  0  0  0  0  0  0  0  0
  181.4510  178.4130  144.0130 S   0  0  0  0  0  0  0  0  0  0  0  0
  181.4190  179.1990  141.3410 C   0  0  0  0  0  2  0  0  0  0  0  0
  182.6290  178.2780  141.2460 C   0  0  2  0  0  3  0  0  0  0  0  0
  181.1850  179.7130  142.7620 C   0  0  0  0  0  2  0  0  0  0  0  0
  186.0580  176.7830  136.4340 C   0  0  0  0  0  3  0  0  0  0  0  0
  182.8020  176.1700  139.7320 O   0  0  0  0  0  0  0  0  0  0  0  0
  183.9160  178.9160  141.7980 C   0  0  2  0  0  3  0  0  0  0  0  0
  190.2070  177.2290  138.0620 C   0  0  0  0  0  1  0  0  0  0  0  0
  189.1620  178.1850  137.9240 O   0  0  0  0  0  0  0  0  0  0  0  0
  185.6080  178.3670  143.6860 C   0  0  1  0  0  3  0  0  0  0  0  0
  185.7960  179.0580  145.0330 C   0  0  0  0  0  2  0  0  0  0  0  0
  186.0340  178.0540  146.1490 C   0  0  2  0  0  3  0  0  0  0  0  0
  184.8550  178.0400  147.1060 C   0  0  0  0  0  1  0  0  0  0  0  0
  188.0930  177.3360  147.1230 O   0  0  0  0  0  1  0  0  0  0  0  0
  187.2890  178.4550  146.8980 C   0  0  0  0  0  2  0  0  0  0  0  0
  186.2110  176.9670  143.7160 C   0  0  0  0  0  2  0  0  0  0  0  0
  187.5180  176.9340  142.9360 C   0  0  2  0  0  3  0  0  0  0  0  0
  189.2490  176.5320  143.8660 C   0  0  2  0  0  3  0  0  0  0  0  0
  188.2370  175.7690  143.2530 O   0  0  0  0  0  0  0  0  0  0  0  0
  188.5510  177.8270  143.5720 C   0  0  0  0  0  2  0  0  0  0  0  0
  190.5370  176.4200  143.0670 C   0  0  0  0  0  1  0  0  0  0  0  0
  1 12  1  0  0  0  0
  3  2  2  0  0  0  0
  4  8  1  0  0  0  0
  4 18  2  1  0  0  0
  4 15  1  0  0  0  0
  5  3  1  0  0  0  0
  6  2  1  0  0  0  0
  7 22  1  1  0  0  0
  7  9  1  0  0  0  0
  8  6  2  0  0  0  0
 10 11  2  0  0  0  0
 11 21  1  0  0  0  0
 11  5  1  0  0  0  0
 12  5  2  0  0  0  0
 12  8  1  0  0  0  0
 13  9  1  0  0  0  0
 14 16  1  0  0  0  0
 15 14  1  6  0  0  0
 15 19  1  0  0  0  0
 16 13  1  0  0  0  0
 17 10  1  0  0  0  0
 17  1  2  0  0  0  0
 19  6  1  6  0  0  0
 19  7  1  0  0  0  0
 21 20  1  0  0  0  0
 22 28  1  1  0  0  0
 22 23  1  0  0  0  0
 23 24  1  0  0  0  0
 24 27  1  0  0  0  0
 24 25  1  1  0  0  0
 27 26  1  0  0  0  0
 29 31  1  0  0  0  0
 29 32  1  0  0  0  0
 29 28  1  1  0  0  0
 30 33  1  6  0  0  0
 31 30  1  0  0  0  0
 32 30  1  0  0  0  0
M  END
>  <MODEL>
8

>  <REMARK>
 VINA RESULT:      -6.0      3.302      8.340
  Name = 
  7 active torsions:
  status: ('A' for Active; 'I' for Inactive)
    1  A    between atoms: C_4  and  C_7
    2  A    between atoms: C_4  and  C_10
    3  A    between atoms: C_8  and  C_23
    4  A    between atoms: C_10  and  C_24
    5  A    between atoms: O_16  and  C_22
    6  A    between atoms: C_18  and  C_24
    7  A    between atoms: C_23  and  C_24
                            x       y       z     vdW  Elec       q    Type
                         _______ _______ _______ _____ _____    ______ ____

>  <TORSDO>
F 7

$$$$
=
 OpenBabel10232411143D

 33 37  0  0  1  0  0  0  0  0999 V2000
  186.6860  177.3320  144.7540 C   0  0  0  0  0  3  0  0  0  0  0  0
  186.6910  179.1110  140.9440 C   0  0  0  0  0  3  0  0  0  0  0  0
  185.6320  179.3550  141.8260 C   0  0  0  0  0  3  0  0  0  0  0  0
  189.1830  176.7570  142.9150 S   0  0  2  0  0  0  0  0  0  0  0  0
  185.6090  178.7500  143.0900 C   0  0  0  0  0  0  0  0  0  0  0  0
  187.7240  178.2400  141.3090 C   0  0  0  0  0  0  0  0  0  0  0  0
  188.6300  177.2830  139.0880 C   0  0  1  0  0  3  0  0  0  0  0  0
  187.7340  177.6840  142.5780 C   0  0  0  0  0  0  0  0  0  0  0  0
  189.8370  177.3170  138.1360 C   0  0  0  0  0  2  0  0  0  0  0  0
  184.5590  178.3730  145.2430 C   0  0  0  0  0  3  0  0  0  0  0  0
  184.5380  178.9750  143.9740 C   0  0  0  0  0  0  0  0  0  0  0  0
  186.6860  177.9170  143.4830 C   0  0  0  0  0  0  0  0  0  0  0  0
  191.2140  176.2500  138.6750 S   0  0  0  0  0  0  0  0  0  0  0  0
  191.2890  177.3470  141.2350 C   0  0  0  0  0  2  0  0  0  0  0  0
  189.8140  176.9640  141.2430 C   0  0  2  0  0  3  0  0  0  0  0  0
  191.8390  177.5260  139.8200 C   0  0  0  0  0  2  0  0  0  0  0  0
  185.6260  177.5620  145.6300 C   0  0  0  0  0  3  0  0  0  0  0  0
  188.6940  175.3140  142.9130 O   0  0  0  0  0  0  0  0  0  0  0  0
  188.9330  177.9460  140.4510 C   0  0  2  0  0  3  0  0  0  0  0  0
  182.1640  179.2640  143.3230 C   0  0  0  0  0  1  0  0  0  0  0  0
  183.4630  179.7830  143.5780 O   0  0  0  0  0  0  0  0  0  0  0  0
  187.3510  177.7970  138.4010 C   0  0  1  0  0  3  0  0  0  0  0  0
  187.6130  178.5810  137.1190 C   0  0  0  0  0  2  0  0  0  0  0  0
  187.6080  177.6760  135.8980 C   0  0  2  0  0  3  0  0  0  0  0  0
  189.0050  177.5720  135.3130 C   0  0  0  0  0  1  0  0  0  0  0  0
  185.8310  177.2720  134.3540 O   0  0  0  0  0  1  0  0  0  0  0  0
  186.6690  178.2650  134.8640 C   0  0  0  0  0  2  0  0  0  0  0  0
  186.3800  176.6520  138.1370 C   0  0  0  0  0  2  0  0  0  0  0  0
  185.0100  177.1940  137.7540 C   0  0  2  0  0  3  0  0  0  0  0  0
  183.3470  176.4310  138.5760 C   0  0  2  0  0  3  0  0  0  0  0  0
  184.2560  177.4530  138.9110 O   0  0  0  0  0  0  0  0  0  0  0  0
  184.0900  176.0820  137.3210 C   0  0  0  0  0  2  0  0  0  0  0  0
  181.9890  177.0320  138.2520 C   0  0  0  0  0  1  0  0  0  0  0  0
  1 17  1  0  0  0  0
  2  6  1  0  0  0  0
  2  3  2  0  0  0  0
  3  5  1  0  0  0  0
  4 18  2  6  0  0  0
  5 12  1  0  0  0  0
  5 11  2  0  0  0  0
  6  8  2  0  0  0  0
  7 22  1  6  0  0  0
  7 19  1  0  0  0  0
  8  4  1  0  0  0  0
  8 12  1  0  0  0  0
  9 13  1  0  0  0  0
  9  7  1  0  0  0  0
 10 17  2  0  0  0  0
 11 10  1  0  0  0  0
 12  1  2  0  0  0  0
 13 16  1  0  0  0  0
 15 14  1  1  0  0  0
 15  4  1  0  0  0  0
 16 14  1  0  0  0  0
 19 15  1  0  0  0  0
 19  6  1  1  0  0  0
 20 21  1  0  0  0  0
 21 11  1  0  0  0  0
 22 23  1  6  0  0  0
 24 25  1  6  0  0  0
 24 23  1  0  0  0  0
 26 27  1  0  0  0  0
 27 24  1  0  0  0  0
 28 22  1  0  0  0  0
 29 28  1  1  0  0  0
 29 31  1  0  0  0  0
 30 33  1  6  0  0  0
 30 31  1  0  0  0  0
 32 29  1  0  0  0  0
 32 30  1  0  0  0  0
M  END
>  <MODEL>
9

>  <REMARK>
 VINA RESULT:      -6.0      1.910      2.778
  Name = 
  7 active torsions:
  status: ('A' for Active; 'I' for Inactive)
    1  A    between atoms: C_4  and  C_7
    2  A    between atoms: C_4  and  C_10
    3  A    between atoms: C_8  and  C_23
    4  A    between atoms: C_10  and  C_24
    5  A    between atoms: O_16  and  C_22
    6  A    between atoms: C_18  and  C_24
    7  A    between atoms: C_23  and  C_24
                            x       y       z     vdW  Elec       q    Type
                         _______ _______ _______ _____ _____    ______ ____

>  <TORSDO>
F 7

$$$$
