=
 OpenBabel10222422133D

 58 62  0  0  1  0  0  0  0  0999 V2000
  185.3370  178.9850  140.3080 C   0  0  2  0  0  3  0  0  0  0  0  0
  188.0390  178.5220  136.5120 C   0  0  0  0  0  1  0  0  0  0  0  0
  188.9790  176.4040  140.4230 O   0  0  0  0  0  1  0  0  0  0  0  0
  186.1730  178.1970  138.1240 C   0  0  2  0  0  3  0  0  0  0  0  0
  183.3710  177.7130  140.7700 O   0  0  0  0  0  0  0  0  0  0  0  0
  187.2740  177.4970  137.3150 C   0  0  2  0  0  3  0  0  0  0  0  0
  183.9890  178.4020  139.9730 C   0  0  0  0  0  0  0  0  0  0  0  0
  186.3790  178.0930  139.6420 C   0  0  1  0  0  3  0  0  0  0  0  0
  188.7940  177.3680  139.4260 C   0  0  1  0  0  0  0  0  0  0  0  0
  183.6680  178.3720  138.5000 C   0  0  1  0  0  3  0  0  0  0  0  0
  184.7880  177.6570  137.7390 C   0  0  0  0  0  2  0  0  0  0  0  0
  188.2110  176.6430  138.1710 C   0  0  0  0  0  2  0  0  0  0  0  0
  187.8270  178.4440  139.9710 C   0  0  0  0  0  2  0  0  0  0  0  0
  181.2920  178.9320  137.7320 C   0  0  0  0  0  1  0  0  0  0  0  0
  182.2840  177.8400  138.1040 C   0  0  1  0  0  3  0  0  0  0  0  0
  182.3290  176.7690  137.0390 C   0  0  0  0  0  2  0  0  0  0  0  0
  181.4860  175.5720  137.4690 C   0  0  0  0  0  2  0  0  0  0  0  0
  180.9440  175.7200  135.0270 C   0  0  0  0  0  1  0  0  0  0  0  0
  180.7680  174.9090  136.2980 C   0  0  0  0  0  3  0  0  0  0  0  0
  181.2490  173.4860  136.0690 C   0  0  0  0  0  1  0  0  0  0  0  0
  190.0300  178.0130  139.1300 O   0  0  0  0  0  0  0  0  0  0  0  0
  190.6570  177.3490  138.0570 C   0  0  0  0  0  2  0  0  0  0  0  0
  192.6940  177.3790  139.9770 S   0  0  0  0  0  1  0  0  0  0  0  0
  191.9390  176.6370  138.4930 C   0  0  2  0  0  3  0  0  0  0  0  0
  192.8870  176.6910  137.3980 N   0  0  0  0  0  2  0  0  0  0  0  0
  192.6850  175.3930  135.3360 C   0  0  0  0  0  2  0  0  0  0  0  0
  192.0720  174.3930  137.6000 C   0  0  0  0  0  2  0  0  0  0  0  0
  191.1600  173.6130  136.6560 C   0  0  0  0  0  2  0  0  0  0  0  0
  191.1680  175.5020  135.0940 C   0  0  0  0  0  2  0  0  0  0  0  0
  190.3460  174.5500  135.8740 N   0  0  1  0  0  0  0  0  0  0  0  0
  192.9930  175.3490  136.8370 C   0  0  2  0  0  3  0  0  0  0  0  0
  188.2200  174.4790  134.7180 C   0  0  0  0  0  2  0  0  0  0  0  0
  188.2360  173.3800  136.9280 F   0  0  0  0  0  0  0  0  0  0  0  0
  189.5590  173.7770  134.9210 C   0  0  2  0  0  3  0  0  0  0  0  0
  188.2880  173.2300  135.5620 C   0  0  2  0  0  0  0  0  0  0  0  0
  187.8100  171.9330  134.9310 C   0  0  0  0  0  2  0  0  0  0  0  0
  186.5090  171.4880  135.5680 C   0  0  0  0  0  2  0  0  0  0  0  0
  185.6050  172.6220  135.6650 N   0  0  0  0  0  2  0  0  0  0  0  0
  184.8100  173.9350  137.5560 C   0  0  0  0  0  1  0  0  0  0  0  0
  184.9570  172.5480  136.9640 C   0  0  0  0  0  2  0  0  0  0  0  0
  185.5990  179.3300  141.7860 C   0  0  0  0  0  2  0  0  0  0  0  0
  185.4060  178.1950  142.7770 C   0  0  0  0  0  2  0  0  0  0  0  0
  184.2700  178.5590  143.6970 C   0  0  0  0  0  2  0  0  0  0  0  0
  184.7250  178.8400  145.0950 C   0  0  0  0  0  0  0  0  0  0  0  0
  183.8730  179.0890  145.9880 O   0  0  0  0  0  0  0  0  0  0  0  0
  186.1140  178.7690  145.4240 N   0  0  0  0  0  2  0  0  0  0  0  0
  186.5960  178.9530  146.7800 C   0  0  0  0  0  2  0  0  0  0  0  0
  187.0600  177.6320  147.3690 C   0  0  0  0  0  2  0  0  0  0  0  0
  189.4560  177.1720  146.5950 N   0  0  0  0  0  0  0  0  0  0  0  0
  189.1820  178.3970  143.7090 C   0  0  0  0  0  1  0  0  0  0  0  0
  188.9330  176.5540  145.3750 C   0  0  0  0  0  2  0  0  0  0  0  0
  191.2210  177.1440  144.3820 C   0  0  1  0  0  3  0  0  0  0  0  0
  188.9710  178.1770  148.6670 O   0  0  0  0  0  0  0  0  0  0  0  0
  191.6710  176.5390  145.7130 C   0  0  0  0  0  2  0  0  0  0  0  0
  191.8910  176.5380  143.3240 O   0  0  0  0  0  1  0  0  0  0  0  0
  190.9000  177.2020  146.8500 C   0  0  0  0  0  2  0  0  0  0  0  0
  189.7020  177.0490  144.1510 C   0  0  2  0  0  3  0  0  0  0  0  0
  188.5380  177.6620  147.5990 C   0  0  0  0  0  0  0  0  0  0  0  0
  1 41  1  1  0  0  0
  4 11  1  1  0  0  0
  4  8  1  0  0  0  0
  6  2  1  1  0  0  0
  6  4  1  0  0  0  0
  6 12  1  0  0  0  0
  7  1  1  0  0  0  0
  7  5  2  0  0  0  0
  8 13  1  6  0  0  0
  8  1  1  0  0  0  0
  9 13  1  0  0  0  0
  9  3  1  1  0  0  0
 10 15  1  1  0  0  0
 10  7  1  0  0  0  0
 11 10  1  0  0  0  0
 12  9  1  0  0  0  0
 15 14  1  6  0  0  0
 16 17  1  0  0  0  0
 16 15  1  0  0  0  0
 18 19  1  0  0  0  0
 19 17  1  0  0  0  0
 20 19  1  0  0  0  0
 21  9  1  0  0  0  0
 22 24  1  0  0  0  0
 22 21  1  0  0  0  0
 24 23  1  1  0  0  0
 25 24  1  0  0  0  0
 26 31  1  0  0  0  0
 28 27  1  0  0  0  0
 29 26  1  0  0  0  0
 30 29  1  6  0  0  0
 30 28  1  0  0  0  0
 31 25  1  1  0  0  0
 31 27  1  0  0  0  0
 32 35  1  0  0  0  0
 34 32  1  6  0  0  0
 34 35  1  0  0  0  0
 34 30  1  0  0  0  0
 35 33  1  1  0  0  0
 36 35  1  0  0  0  0
 36 37  1  0  0  0  0
 37 38  1  0  0  0  0
 38 40  1  0  0  0  0
 40 39  1  0  0  0  0
 41 42  1  0  0  0  0
 42 43  1  0  0  0  0
 43 44  1  0  0  0  0
 44 46  1  0  0  0  0
 44 45  2  0  0  0  0
 46 47  1  0  0  0  0
 47 48  1  0  0  0  0
 48 58  1  0  0  0  0
 49 56  1  0  0  0  0
 49 58  1  0  0  0  0
 51 49  1  0  0  0  0
 52 55  1  6  0  0  0
 52 54  1  0  0  0  0
 54 56  1  0  0  0  0
 57 50  1  1  0  0  0
 57 52  1  0  0  0  0
 57 51  1  0  0  0  0
 58 53  2  0  0  0  0
M  END
>  <MODEL>
1

>  <REMARK>
 VINA RESULT:      -6.6      0.000      0.000
  Name = 
  21 active torsions:
  status: ('A' for Active; 'I' for Inactive)
    1  A    between atoms: C_2  and  C_39
    2  A    between atoms: C_2  and  C_56
    3  A    between atoms: C_3  and  C_23
    4  A    between atoms: C_5  and  C_15
    5  A    between atoms: C_8  and  C_18
    6  A    between atoms: C_15  and  C_45
    7  A    between atoms: C_16  and  C_17
    8  A    between atoms: C_16  and  N_27
    9  A    between atoms: C_17  and  C_51
   10  A    between atoms: C_18  and  C_36
   11  A    between atoms: C_23  and  C_45
   12  A    between atoms: C_24  and  N_32
   13  A    between atoms: O_29  and  C_42
   14  A    between atoms: O_29  and  C_46
   15  A    between atoms: N_32  and  C_39
   16  A    between atoms: C_35  and  N_49
   17  A    between atoms: C_36  and  C_58
   18  A    between atoms: C_44  and  C_58
   19  A    between atoms: C_46  and  C_50
   20  A    between atoms: C_50  and  N_57
   21  A    between atoms: C_54  and  N_57
                            x       y       z     vdW  Elec       q    Type
                         _______ _______ _______ _____ _____    ______ ____

>  <TORSDO>
F 21

$$$$
=
 OpenBabel10222422133D

 58 62  0  0  1  0  0  0  0  0999 V2000
  188.4320  176.4180  137.4150 C   0  0  2  0  0  3  0  0  0  0  0  0
  185.8270  172.5330  137.2360 C   0  0  0  0  0  1  0  0  0  0  0  0
  184.5810  176.3780  135.1550 O   0  0  0  0  0  1  0  0  0  0  0  0
  187.6030  174.1960  136.7310 C   0  0  2  0  0  3  0  0  0  0  0  0
  190.2660  176.9220  135.9730 O   0  0  0  0  0  0  0  0  0  0  0  0
  186.4740  173.3430  136.1390 C   0  0  2  0  0  3  0  0  0  0  0  0
  189.7360  176.1160  136.7220 C   0  0  0  0  0  0  0  0  0  0  0  0
  187.3400  175.7060  136.6250 C   0  0  1  0  0  3  0  0  0  0  0  0
  184.8800  175.4020  136.1130 C   0  0  1  0  0  0  0  0  0  0  0  0
  190.1010  174.6540  136.6850 C   0  0  1  0  0  3  0  0  0  0  0  0
  188.9490  173.8470  136.0790 C   0  0  0  0  0  2  0  0  0  0  0  0
  185.4400  174.1550  135.3580 C   0  0  0  0  0  2  0  0  0  0  0  0
  185.9180  175.9940  137.0950 C   0  0  0  0  0  2  0  0  0  0  0  0
  192.6370  174.9950  136.6770 C   0  0  0  0  0  1  0  0  0  0  0  0
  191.4470  174.2930  136.0400 C   0  0  1  0  0  3  0  0  0  0  0  0
  191.6900  172.8050  135.9400 C   0  0  0  0  0  2  0  0  0  0  0  0
  193.1120  172.5430  135.4540 C   0  0  0  0  0  2  0  0  0  0  0  0
  193.8830  170.1790  135.7560 C   0  0  0  0  0  1  0  0  0  0  0  0
  193.8710  171.5730  136.3540 C   0  0  0  0  0  3  0  0  0  0  0  0
  195.2960  172.0330  136.6120 C   0  0  0  0  0  1  0  0  0  0  0  0
  183.7140  175.0770  136.8670 O   0  0  0  0  0  0  0  0  0  0  0  0
  182.7750  174.4510  136.0230 C   0  0  0  0  0  2  0  0  0  0  0  0
  180.7030  172.5930  136.3280 S   0  0  0  0  0  1  0  0  0  0  0  0
  181.4390  174.2110  136.7300 C   0  0  2  0  0  3  0  0  0  0  0  0
  180.5210  175.2630  136.3390 N   0  0  0  0  0  2  0  0  0  0  0  0
  180.0300  177.4050  137.4100 C   0  0  0  0  0  2  0  0  0  0  0  0
  180.8170  175.3940  138.7640 C   0  0  0  0  0  2  0  0  0  0  0  0
  181.3340  176.5580  139.6050 C   0  0  0  0  0  2  0  0  0  0  0  0
  181.4580  177.9510  137.5920 C   0  0  0  0  0  2  0  0  0  0  0  0
  182.1760  177.4270  138.7760 N   0  0  1  0  0  0  0  0  0  0  0  0
  180.0100  175.8800  137.5580 C   0  0  2  0  0  3  0  0  0  0  0  0
  183.4820  179.4660  138.7430 C   0  0  0  0  0  2  0  0  0  0  0  0
  184.7270  177.4480  139.4260 F   0  0  0  0  0  0  0  0  0  0  0  0
  182.5730  178.5740  139.5830 C   0  0  2  0  0  3  0  0  0  0  0  0
  184.0790  178.5950  139.8210 C   0  0  2  0  0  0  0  0  0  0  0  0
  184.4700  179.2660  141.1250 C   0  0  0  0  0  2  0  0  0  0  0  0
  184.6600  178.2280  142.2140 C   0  0  0  0  0  2  0  0  0  0  0  0
  185.3490  178.8310  143.3420 N   0  0  0  0  0  2  0  0  0  0  0  0
  184.1790  178.8770  145.4790 C   0  0  0  0  0  1  0  0  0  0  0  0
  184.3520  179.5420  144.1280 C   0  0  0  0  0  2  0  0  0  0  0  0
  188.1530  177.8930  137.7610 C   0  0  0  0  0  2  0  0  0  0  0  0
  188.4200  178.2990  139.2000 C   0  0  0  0  0  2  0  0  0  0  0  0
  189.6970  177.6370  139.6480 C   0  0  0  0  0  2  0  0  0  0  0  0
  189.6910  177.2950  141.1060 C   0  0  0  0  0  0  0  0  0  0  0  0
  188.8390  177.8260  141.8660 O   0  0  0  0  0  0  0  0  0  0  0  0
  190.6110  176.3280  141.6170 N   0  0  0  0  0  2  0  0  0  0  0  0
  190.5920  175.9050  143.0050 C   0  0  0  0  0  2  0  0  0  0  0  0
  191.5750  176.7200  143.8280 C   0  0  0  0  0  2  0  0  0  0  0  0
  190.3260  177.1550  146.0180 N   0  0  0  0  0  0  0  0  0  0  0  0
  187.4080  176.9680  144.8550 C   0  0  0  0  0  1  0  0  0  0  0  0
  189.5300  178.1860  145.3490 C   0  0  0  0  0  2  0  0  0  0  0  0
  187.8100  177.7160  147.1910 C   0  0  1  0  0  3  0  0  0  0  0  0
  192.0740  175.5880  145.8540 O   0  0  0  0  0  0  0  0  0  0  0  0
  189.0770  177.8060  148.0430 C   0  0  0  0  0  2  0  0  0  0  0  0
  186.8260  178.5600  147.6950 O   0  0  0  0  0  1  0  0  0  0  0  0
  190.1460  176.8940  147.4510 C   0  0  0  0  0  2  0  0  0  0  0  0
  188.0510  178.0380  145.7050 C   0  0  2  0  0  3  0  0  0  0  0  0
  191.3630  176.4640  145.2860 C   0  0  0  0  0  0  0  0  0  0  0  0
  1 41  1  6  0  0  0
  4 11  1  6  0  0  0
  5  7  2  0  0  0  0
  6  4  1  0  0  0  0
  6  2  1  1  0  0  0
  7  1  1  0  0  0  0
  8  4  1  0  0  0  0
  8 13  1  1  0  0  0
  8  1  1  0  0  0  0
  9  3  1  6  0  0  0
  9 21  1  0  0  0  0
  9 13  1  0  0  0  0
 10 15  1  6  0  0  0
 10  7  1  0  0  0  0
 11 10  1  0  0  0  0
 12  9  1  0  0  0  0
 12  6  1  0  0  0  0
 15 14  1  1  0  0  0
 16 15  1  0  0  0  0
 17 16  1  0  0  0  0
 17 19  1  0  0  0  0
 18 19  1  0  0  0  0
 19 20  1  0  0  0  0
 22 24  1  0  0  0  0
 22 21  1  0  0  0  0
 24 23  1  6  0  0  0
 25 24  1  0  0  0  0
 26 31  1  0  0  0  0
 26 29  1  0  0  0  0
 27 28  1  0  0  0  0
 30 29  1  6  0  0  0
 30 34  1  0  0  0  0
 30 28  1  0  0  0  0
 31 25  1  6  0  0  0
 31 27  1  0  0  0  0
 32 35  1  0  0  0  0
 34 32  1  6  0  0  0
 34 35  1  0  0  0  0
 35 33  1  6  0  0  0
 35 36  1  0  0  0  0
 36 37  1  0  0  0  0
 37 38  1  0  0  0  0
 38 40  1  0  0  0  0
 40 39  1  0  0  0  0
 41 42  1  0  0  0  0
 42 43  1  0  0  0  0
 43 44  1  0  0  0  0
 44 46  1  0  0  0  0
 44 45  2  0  0  0  0
 46 47  1  0  0  0  0
 47 48  1  0  0  0  0
 48 58  1  0  0  0  0
 49 56  1  0  0  0  0
 51 57  1  0  0  0  0
 51 49  1  0  0  0  0
 52 55  1  1  0  0  0
 52 54  1  0  0  0  0
 56 54  1  0  0  0  0
 57 50  1  6  0  0  0
 57 52  1  0  0  0  0
 58 53  2  0  0  0  0
 58 49  1  0  0  0  0
M  END
>  <MODEL>
2

>  <REMARK>
 VINA RESULT:      -6.4      3.065      8.364
  Name = 
  21 active torsions:
  status: ('A' for Active; 'I' for Inactive)
    1  A    between atoms: C_2  and  C_39
    2  A    between atoms: C_2  and  C_56
    3  A    between atoms: C_3  and  C_23
    4  A    between atoms: C_5  and  C_15
    5  A    between atoms: C_8  and  C_18
    6  A    between atoms: C_15  and  C_45
    7  A    between atoms: C_16  and  C_17
    8  A    between atoms: C_16  and  N_27
    9  A    between atoms: C_17  and  C_51
   10  A    between atoms: C_18  and  C_36
   11  A    between atoms: C_23  and  C_45
   12  A    between atoms: C_24  and  N_32
   13  A    between atoms: O_29  and  C_42
   14  A    between atoms: O_29  and  C_46
   15  A    between atoms: N_32  and  C_39
   16  A    between atoms: C_35  and  N_49
   17  A    between atoms: C_36  and  C_58
   18  A    between atoms: C_44  and  C_58
   19  A    between atoms: C_46  and  C_50
   20  A    between atoms: C_50  and  N_57
   21  A    between atoms: C_54  and  N_57
                            x       y       z     vdW  Elec       q    Type
                         _______ _______ _______ _____ _____    ______ ____

>  <TORSDO>
F 21

$$$$
=
 OpenBabel10222422133D

 58 62  0  0  1  0  0  0  0  0999 V2000
  185.4510  178.1900  142.2750 C   0  0  2  0  0  3  0  0  0  0  0  0
  189.3910  175.7020  142.7250 C   0  0  0  0  0  1  0  0  0  0  0  0
  189.0270  179.1410  139.7750 O   0  0  0  0  0  1  0  0  0  0  0  0
  187.6200  177.3950  143.1440 C   0  0  2  0  0  3  0  0  0  0  0  0
  184.8310  180.0570  143.6280 O   0  0  0  0  0  0  0  0  0  0  0  0
  189.1220  177.1750  142.9190 C   0  0  2  0  0  3  0  0  0  0  0  0
  185.2160  178.8980  143.5840 C   0  0  0  0  0  0  0  0  0  0  0  0
  186.9550  178.2140  142.0270 C   0  0  1  0  0  3  0  0  0  0  0  0
  188.8960  177.9120  140.4320 C   0  0  1  0  0  0  0  0  0  0  0  0
  185.8690  178.2440  144.7760 C   0  0  1  0  0  3  0  0  0  0  0  0
  187.3650  178.0540  144.5080 C   0  0  0  0  0  2  0  0  0  0  0  0
  189.6960  178.0050  141.7700 C   0  0  0  0  0  2  0  0  0  0  0  0
  187.3910  177.6550  140.6770 C   0  0  0  0  0  2  0  0  0  0  0  0
  184.3340  178.4210  146.8150 C   0  0  0  0  0  1  0  0  0  0  0  0
  185.6160  178.8910  146.1450 C   0  0  1  0  0  3  0  0  0  0  0  0
  186.7900  178.7820  147.0910 C   0  0  0  0  0  2  0  0  0  0  0  0
  187.2610  177.3340  147.1700 C   0  0  0  0  0  2  0  0  0  0  0  0
  189.6850  176.7070  147.0770 C   0  0  0  0  0  1  0  0  0  0  0  0
  188.5510  177.1790  147.9680 C   0  0  0  0  0  3  0  0  0  0  0  0
  188.9480  178.4700  148.6630 C   0  0  0  0  0  1  0  0  0  0  0  0
  189.3810  176.8580  139.6040 O   0  0  0  0  0  0  0  0  0  0  0  0
  190.3200  177.3780  138.6910 C   0  0  0  0  0  2  0  0  0  0  0  0
  192.6550  177.1830  140.2230 S   0  0  0  0  0  1  0  0  0  0  0  0
  191.6680  176.6600  138.7820 C   0  0  2  0  0  3  0  0  0  0  0  0
  192.4140  176.9320  137.5700 N   0  0  0  0  0  2  0  0  0  0  0  0
  193.2370  174.6380  137.7590 C   0  0  0  0  0  2  0  0  0  0  0  0
  193.3390  175.9070  135.5500 C   0  0  0  0  0  2  0  0  0  0  0  0
  194.5210  174.9510  135.4160 C   0  0  0  0  0  2  0  0  0  0  0  0
  194.7510  174.8990  137.8560 C   0  0  0  0  0  2  0  0  0  0  0  0
  195.4260  175.1250  136.5570 N   0  0  1  0  0  0  0  0  0  0  0  0
  192.5650  175.6730  136.8500 C   0  0  2  0  0  3  0  0  0  0  0  0
  197.6730  174.5970  137.2890 C   0  0  0  0  0  2  0  0  0  0  0  0
  197.5440  175.9720  135.2430 F   0  0  0  0  0  0  0  0  0  0  0  0
  196.4890  174.1340  136.4460 C   0  0  2  0  0  3  0  0  0  0  0  0
  197.7320  174.7220  135.7860 C   0  0  2  0  0  0  0  0  0  0  0  0
  198.5540  173.6920  135.0310 C   0  0  0  0  0  2  0  0  0  0  0  0
  197.6960  172.4930  134.6780 C   0  0  0  0  0  2  0  0  0  0  0  0
  198.3580  171.2780  135.1200 N   0  0  0  0  0  2  0  0  0  0  0  0
  197.6150  170.6640  137.3570 C   0  0  0  0  0  1  0  0  0  0  0  0
  197.3830  170.5010  135.8680 C   0  0  0  0  0  2  0  0  0  0  0  0
  184.5710  178.6170  141.0850 C   0  0  0  0  0  2  0  0  0  0  0  0
  183.1310  178.1350  141.1180 C   0  0  0  0  0  2  0  0  0  0  0  0
  182.9800  177.0300  140.1050 C   0  0  0  0  0  2  0  0  0  0  0  0
  182.0270  177.3800  139.0050 C   0  0  0  0  0  0  0  0  0  0  0  0
  181.3450  178.4360  139.0850 O   0  0  0  0  0  0  0  0  0  0  0  0
  181.9370  176.5500  137.8450 N   0  0  0  0  0  2  0  0  0  0  0  0
  181.0890  176.8890  136.7180 C   0  0  0  0  0  2  0  0  0  0  0  0
  181.8840  176.8670  135.4240 C   0  0  0  0  0  2  0  0  0  0  0  0
  184.2000  175.7860  135.3000 N   0  0  0  0  0  0  0  0  0  0  0  0
  185.5850  177.5620  137.4970 C   0  0  0  0  0  1  0  0  0  0  0  0
  184.8030  177.1140  135.1690 C   0  0  0  0  0  2  0  0  0  0  0  0
  186.9080  175.9880  136.1010 C   0  0  1  0  0  3  0  0  0  0  0  0
  182.2240  174.5180  135.4690 O   0  0  0  0  0  0  0  0  0  0  0  0
  186.5060  174.9480  135.0540 C   0  0  0  0  0  2  0  0  0  0  0  0
  188.2380  176.3570  135.9320 O   0  0  0  0  0  1  0  0  0  0  0  0
  185.0380  174.5830  135.2460 C   0  0  0  0  0  2  0  0  0  0  0  0
  186.0190  177.2440  136.0850 C   0  0  2  0  0  3  0  0  0  0  0  0
  182.7620  175.6580  135.3790 C   0  0  0  0  0  0  0  0  0  0  0  0
  1 41  1  6  0  0  0
  1  7  1  0  0  0  0
  4 11  1  1  0  0  0
  6  2  1  6  0  0  0
  6  4  1  0  0  0  0
  7  5  2  0  0  0  0
  7 10  1  0  0  0  0
  8 13  1  6  0  0  0
  8  1  1  0  0  0  0
  8  4  1  0  0  0  0
  9  3  1  6  0  0  0
  9 13  1  0  0  0  0
  9 12  1  0  0  0  0
 10 15  1  1  0  0  0
 11 10  1  0  0  0  0
 12  6  1  0  0  0  0
 15 14  1  1  0  0  0
 15 16  1  0  0  0  0
 16 17  1  0  0  0  0
 17 19  1  0  0  0  0
 18 19  1  0  0  0  0
 19 20  1  0  0  0  0
 21  9  1  0  0  0  0
 22 24  1  0  0  0  0
 22 21  1  0  0  0  0
 24 23  1  1  0  0  0
 25 24  1  0  0  0  0
 26 29  1  0  0  0  0
 27 31  1  0  0  0  0
 28 27  1  0  0  0  0
 30 28  1  6  0  0  0
 30 29  1  0  0  0  0
 31 25  1  1  0  0  0
 31 26  1  0  0  0  0
 34 30  1  0  0  0  0
 34 32  1  1  0  0  0
 35 33  1  6  0  0  0
 35 34  1  0  0  0  0
 35 32  1  0  0  0  0
 36 35  1  0  0  0  0
 37 36  1  0  0  0  0
 37 38  1  0  0  0  0
 38 40  1  0  0  0  0
 40 39  1  0  0  0  0
 41 42  1  0  0  0  0
 43 42  1  0  0  0  0
 44 45  2  0  0  0  0
 44 43  1  0  0  0  0
 46 44  1  0  0  0  0
 47 46  1  0  0  0  0
 48 47  1  0  0  0  0
 49 58  1  0  0  0  0
 51 49  1  0  0  0  0
 51 57  1  0  0  0  0
 52 55  1  6  0  0  0
 54 56  1  0  0  0  0
 54 52  1  0  0  0  0
 56 49  1  0  0  0  0
 57 52  1  0  0  0  0
 57 50  1  1  0  0  0
 58 48  1  0  0  0  0
 58 53  2  0  0  0  0
M  END
>  <MODEL>
3

>  <REMARK>
 VINA RESULT:      -6.0      3.202      8.656
  Name = 
  21 active torsions:
  status: ('A' for Active; 'I' for Inactive)
    1  A    between atoms: C_2  and  C_39
    2  A    between atoms: C_2  and  C_56
    3  A    between atoms: C_3  and  C_23
    4  A    between atoms: C_5  and  C_15
    5  A    between atoms: C_8  and  C_18
    6  A    between atoms: C_15  and  C_45
    7  A    between atoms: C_16  and  C_17
    8  A    between atoms: C_16  and  N_27
    9  A    between atoms: C_17  and  C_51
   10  A    between atoms: C_18  and  C_36
   11  A    between atoms: C_23  and  C_45
   12  A    between atoms: C_24  and  N_32
   13  A    between atoms: O_29  and  C_42
   14  A    between atoms: O_29  and  C_46
   15  A    between atoms: N_32  and  C_39
   16  A    between atoms: C_35  and  N_49
   17  A    between atoms: C_36  and  C_58
   18  A    between atoms: C_44  and  C_58
   19  A    between atoms: C_46  and  C_50
   20  A    between atoms: C_50  and  N_57
   21  A    between atoms: C_54  and  N_57
                            x       y       z     vdW  Elec       q    Type
                         _______ _______ _______ _____ _____    ______ ____

>  <TORSDO>
F 21

$$$$
=
 OpenBabel10222422133D

 58 62  0  0  1  0  0  0  0  0999 V2000
  184.7670  179.2550  141.9540 C   0  0  2  0  0  3  0  0  0  0  0  0
  180.2150  180.0720  142.6820 C   0  0  0  0  0  1  0  0  0  0  0  0
  181.6670  176.7500  139.9400 O   0  0  0  0  0  1  0  0  0  0  0  0
  182.5360  179.2420  143.0080 C   0  0  2  0  0  3  0  0  0  0  0  0
  186.1740  177.9210  143.3460 O   0  0  0  0  0  0  0  0  0  0  0  0
  181.0550  178.8440  142.9400 C   0  0  2  0  0  3  0  0  0  0  0  0
  185.3630  178.8320  143.2710 C   0  0  0  0  0  0  0  0  0  0  0  0
  183.3790  178.6300  141.8790 C   0  0  1  0  0  3  0  0  0  0  0  0
  181.3560  177.9960  140.4970 C   0  0  1  0  0  0  0  0  0  0  0  0
  184.6010  179.3040  144.4830 C   0  0  1  0  0  3  0  0  0  0  0  0
  183.1350  178.8770  144.3740 C   0  0  0  0  0  2  0  0  0  0  0  0
  180.7650  177.7430  141.9200 C   0  0  0  0  0  2  0  0  0  0  0  0
  182.6540  178.8350  140.5530 C   0  0  0  0  0  2  0  0  0  0  0  0
  184.2910  178.0670  146.7020 C   0  0  0  0  0  1  0  0  0  0  0  0
  185.1950  178.9500  145.8550 C   0  0  1  0  0  3  0  0  0  0  0  0
  186.5910  178.3770  145.7800 C   0  0  0  0  0  2  0  0  0  0  0  0
  187.0620  177.9730  147.1730 C   0  0  0  0  0  2  0  0  0  0  0  0
  189.0780  178.4960  148.5650 C   0  0  0  0  0  1  0  0  0  0  0  0
  188.5800  177.8730  147.2740 C   0  0  0  0  0  3  0  0  0  0  0  0
  189.0630  176.4350  147.1790 C   0  0  0  0  0  1  0  0  0  0  0  0
  180.4320  178.6920  139.6620 O   0  0  0  0  0  0  0  0  0  0  0  0
  180.0010  177.8340  138.6310 C   0  0  0  0  0  2  0  0  0  0  0  0
  180.1450  179.8470  136.6900 S   0  0  0  0  0  1  0  0  0  0  0  0
  180.6320  178.1930  137.2840 C   0  0  2  0  0  3  0  0  0  0  0  0
  180.2280  177.1990  136.3100 N   0  0  0  0  0  2  0  0  0  0  0  0
  181.0750  175.7240  134.5550 C   0  0  0  0  0  2  0  0  0  0  0  0
  182.6320  176.7420  136.2980 C   0  0  0  0  0  2  0  0  0  0  0  0
  183.3590  175.4470  135.9490 C   0  0  0  0  0  2  0  0  0  0  0  0
  181.2200  174.4120  135.3480 C   0  0  0  0  0  2  0  0  0  0  0  0
  182.4580  174.3070  136.1520 N   0  0  1  0  0  0  0  0  0  0  0  0
  181.3730  176.9330  135.4470 C   0  0  2  0  0  3  0  0  0  0  0  0
  182.7210  171.9460  136.6200 C   0  0  0  0  0  2  0  0  0  0  0  0
  184.2480  173.4280  137.8720 F   0  0  0  0  0  0  0  0  0  0  0  0
  183.1520  173.1000  135.7200 C   0  0  2  0  0  3  0  0  0  0  0  0
  184.0820  172.5720  136.8080 C   0  0  2  0  0  0  0  0  0  0  0  0
  185.2800  171.8190  136.2570 C   0  0  0  0  0  2  0  0  0  0  0  0
  186.5660  172.5170  136.6530 C   0  0  0  0  0  2  0  0  0  0  0  0
  187.2960  172.8990  135.4560 N   0  0  0  0  0  2  0  0  0  0  0  0
  187.0280  174.9380  136.7620 C   0  0  0  0  0  1  0  0  0  0  0  0
  187.2860  174.3520  135.3890 C   0  0  0  0  0  2  0  0  0  0  0  0
  185.6480  179.0780  140.7020 C   0  0  0  0  0  2  0  0  0  0  0  0
  185.3140  177.8890  139.8180 C   0  0  0  0  0  2  0  0  0  0  0  0
  185.5250  178.2940  138.3830 C   0  0  0  0  0  2  0  0  0  0  0  0
  186.9730  178.3550  138.0050 C   0  0  0  0  0  0  0  0  0  0  0  0
  187.3210  178.9890  136.9750 O   0  0  0  0  0  0  0  0  0  0  0  0
  187.9570  177.7450  138.8430 N   0  0  0  0  0  2  0  0  0  0  0  0
  189.3780  177.8460  138.5630 C   0  0  0  0  0  2  0  0  0  0  0  0
  190.1640  178.0480  139.8470 C   0  0  0  0  0  2  0  0  0  0  0  0
  190.6950  176.7850  142.0080 N   0  0  0  0  0  0  0  0  0  0  0  0
  190.3950  179.2220  143.9750 C   0  0  0  0  0  1  0  0  0  0  0  0
  191.6750  177.8150  142.3580 C   0  0  0  0  0  2  0  0  0  0  0  0
  191.2750  177.0370  144.7670 C   0  0  1  0  0  3  0  0  0  0  0  0
  189.1520  175.9800  140.4240 O   0  0  0  0  0  0  0  0  0  0  0  0
  191.4330  175.6770  144.0840 C   0  0  0  0  0  2  0  0  0  0  0  0
  192.1270  177.1300  145.8630 O   0  0  0  0  0  1  0  0  0  0  0  0
  190.5080  175.6150  142.8730 C   0  0  0  0  0  2  0  0  0  0  0  0
  191.5210  178.2260  143.8220 C   0  0  2  0  0  3  0  0  0  0  0  0
  189.9830  176.8720  140.7520 C   0  0  0  0  0  0  0  0  0  0  0  0
  1 41  1  6  0  0  0
  1  7  1  0  0  0  0
  4 11  1  1  0  0  0
  6  2  1  6  0  0  0
  6  4  1  0  0  0  0
  7  5  2  0  0  0  0
  7 10  1  0  0  0  0
  8 13  1  6  0  0  0
  8  1  1  0  0  0  0
  8  4  1  0  0  0  0
  9  3  1  6  0  0  0
  9 13  1  0  0  0  0
  9 12  1  0  0  0  0
 10 15  1  1  0  0  0
 11 10  1  0  0  0  0
 12  6  1  0  0  0  0
 15 14  1  6  0  0  0
 16 15  1  0  0  0  0
 16 17  1  0  0  0  0
 17 19  1  0  0  0  0
 19 18  1  0  0  0  0
 20 19  1  0  0  0  0
 21  9  1  0  0  0  0
 22 21  1  0  0  0  0
 24 23  1  6  0  0  0
 24 22  1  0  0  0  0
 25 24  1  0  0  0  0
 26 29  1  0  0  0  0
 26 31  1  0  0  0  0
 28 30  1  0  0  0  0
 28 27  1  0  0  0  0
 30 29  1  6  0  0  0
 31 27  1  0  0  0  0
 31 25  1  1  0  0  0
 32 35  1  0  0  0  0
 34 30  1  0  0  0  0
 34 32  1  1  0  0  0
 34 35  1  0  0  0  0
 35 33  1  1  0  0  0
 36 37  1  0  0  0  0
 36 35  1  0  0  0  0
 38 37  1  0  0  0  0
 40 38  1  0  0  0  0
 40 39  1  0  0  0  0
 42 41  1  0  0  0  0
 43 42  1  0  0  0  0
 44 43  1  0  0  0  0
 44 46  1  0  0  0  0
 45 44  2  0  0  0  0
 47 46  1  0  0  0  0
 47 48  1  0  0  0  0
 48 58  1  0  0  0  0
 49 51  1  0  0  0  0
 49 56  1  0  0  0  0
 51 57  1  0  0  0  0
 52 55  1  1  0  0  0
 53 58  2  0  0  0  0
 54 52  1  0  0  0  0
 56 54  1  0  0  0  0
 57 50  1  6  0  0  0
 57 52  1  0  0  0  0
 58 49  1  0  0  0  0
M  END
>  <MODEL>
4

>  <REMARK>
 VINA RESULT:      -5.9      3.019      7.859
  Name = 
  21 active torsions:
  status: ('A' for Active; 'I' for Inactive)
    1  A    between atoms: C_2  and  C_39
    2  A    between atoms: C_2  and  C_56
    3  A    between atoms: C_3  and  C_23
    4  A    between atoms: C_5  and  C_15
    5  A    between atoms: C_8  and  C_18
    6  A    between atoms: C_15  and  C_45
    7  A    between atoms: C_16  and  C_17
    8  A    between atoms: C_16  and  N_27
    9  A    between atoms: C_17  and  C_51
   10  A    between atoms: C_18  and  C_36
   11  A    between atoms: C_23  and  C_45
   12  A    between atoms: C_24  and  N_32
   13  A    between atoms: O_29  and  C_42
   14  A    between atoms: O_29  and  C_46
   15  A    between atoms: N_32  and  C_39
   16  A    between atoms: C_35  and  N_49
   17  A    between atoms: C_36  and  C_58
   18  A    between atoms: C_44  and  C_58
   19  A    between atoms: C_46  and  C_50
   20  A    between atoms: C_50  and  N_57
   21  A    between atoms: C_54  and  N_57
                            x       y       z     vdW  Elec       q    Type
                         _______ _______ _______ _____ _____    ______ ____

>  <TORSDO>
F 21

$$$$
=
 OpenBabel10222422133D

 58 62  0  0  1  0  0  0  0  0999 V2000
  185.6140  178.3190  140.3900 C   0  0  2  0  0  3  0  0  0  0  0  0
  189.3880  175.9500  138.9530 C   0  0  0  0  0  1  0  0  0  0  0  0
  188.0640  179.8220  136.9730 O   0  0  0  0  0  1  0  0  0  0  0  0
  187.9300  177.4760  140.2680 C   0  0  2  0  0  3  0  0  0  0  0  0
  185.5710  179.9030  142.1760 O   0  0  0  0  0  0  0  0  0  0  0  0
  189.2430  177.3570  139.4820 C   0  0  2  0  0  3  0  0  0  0  0  0
  185.8850  178.7840  141.7970 C   0  0  0  0  0  0  0  0  0  0  0  0
  186.9260  178.4450  139.6250 C   0  0  1  0  0  3  0  0  0  0  0  0
  188.1500  178.4950  137.4110 C   0  0  1  0  0  0  0  0  0  0  0  0
  186.9090  177.9650  142.5410 C   0  0  1  0  0  3  0  0  0  0  0  0
  188.2010  177.8840  141.7240 C   0  0  0  0  0  2  0  0  0  0  0  0
  189.3820  178.3920  138.3650 C   0  0  0  0  0  2  0  0  0  0  0  0
  186.8300  178.1410  138.1340 C   0  0  0  0  0  2  0  0  0  0  0  0
  185.9840  178.1860  144.9170 C   0  0  0  0  0  1  0  0  0  0  0  0
  187.1850  178.3600  143.9990 C   0  0  1  0  0  3  0  0  0  0  0  0
  188.4100  177.6980  144.5840 C   0  0  0  0  0  2  0  0  0  0  0  0
  188.0590  177.0350  145.9120 C   0  0  0  0  0  2  0  0  0  0  0  0
  190.5390  177.2750  146.1660 C   0  0  0  0  0  1  0  0  0  0  0  0
  189.2300  177.0190  146.8890 C   0  0  0  0  0  3  0  0  0  0  0  0
  189.0530  178.0350  148.0050 C   0  0  0  0  0  1  0  0  0  0  0  0
  188.2780  177.6160  136.2950 O   0  0  0  0  0  0  0  0  0  0  0  0
  189.6250  177.5780  135.8850 C   0  0  0  0  0  2  0  0  0  0  0  0
  188.3970  175.5870  134.3460 S   0  0  0  0  0  1  0  0  0  0  0  0
  189.9130  176.3840  134.9720 C   0  0  2  0  0  3  0  0  0  0  0  0
  190.6870  175.4140  135.7210 N   0  0  0  0  0  2  0  0  0  0  0  0
  192.9130  175.8720  134.8200 C   0  0  0  0  0  2  0  0  0  0  0  0
  192.5570  175.3920  137.2990 C   0  0  0  0  0  2  0  0  0  0  0  0
  193.9840  174.8950  137.0860 C   0  0  0  0  0  2  0  0  0  0  0  0
  193.4710  174.4400  134.7330 C   0  0  0  0  0  2  0  0  0  0  0  0
  194.0030  173.9030  136.0050 N   0  0  1  0  0  0  0  0  0  0  0  0
  191.9790  176.0170  136.0260 C   0  0  2  0  0  3  0  0  0  0  0  0
  195.4050  172.2000  135.0060 C   0  0  0  0  0  2  0  0  0  0  0  0
  194.7780  171.7800  137.3570 F   0  0  0  0  0  0  0  0  0  0  0  0
  195.3900  173.5220  135.7670 C   0  0  2  0  0  3  0  0  0  0  0  0
  195.7400  172.2190  136.4780 C   0  0  2  0  0  0  0  0  0  0  0  0
  197.2060  172.1220  136.8610 C   0  0  0  0  0  2  0  0  0  0  0  0
  197.9110  171.1010  135.9910 C   0  0  0  0  0  2  0  0  0  0  0  0
  197.7130  169.7730  136.5460 N   0  0  0  0  0  2  0  0  0  0  0  0
  198.4680  168.2790  138.3170 C   0  0  0  0  0  1  0  0  0  0  0  0
  198.5090  169.6890  137.7600 C   0  0  0  0  0  2  0  0  0  0  0  0
  184.3730  178.9050  139.6900 C   0  0  0  0  0  2  0  0  0  0  0  0
  183.0290  178.4170  140.2020 C   0  0  0  0  0  2  0  0  0  0  0  0
  182.9390  176.9340  139.9520 C   0  0  0  0  0  2  0  0  0  0  0  0
  181.8690  176.5780  138.9660 C   0  0  0  0  0  0  0  0  0  0  0  0
  181.7520  177.2480  137.9070 O   0  0  0  0  0  0  0  0  0  0  0  0
  181.0280  175.4470  139.2020 N   0  0  0  0  0  2  0  0  0  0  0  0
  180.0310  175.0140  138.2400 C   0  0  0  0  0  2  0  0  0  0  0  0
  180.6970  174.5050  136.9720 C   0  0  0  0  0  2  0  0  0  0  0  0
  182.4540  172.6830  136.5950 N   0  0  0  0  0  0  0  0  0  0  0  0
  184.9870  174.4390  137.2240 C   0  0  0  0  0  1  0  0  0  0  0  0
  183.1910  173.5900  135.7130 C   0  0  0  0  0  2  0  0  0  0  0  0
  185.2170  172.1390  136.3110 C   0  0  1  0  0  3  0  0  0  0  0  0
  180.5420  172.3360  137.9230 O   0  0  0  0  0  0  0  0  0  0  0  0
  184.1970  171.0390  136.0110 C   0  0  0  0  0  2  0  0  0  0  0  0
  186.3820  171.9300  135.5800 O   0  0  0  0  0  1  0  0  0  0  0  0
  182.9220  171.3090  136.8030 C   0  0  0  0  0  2  0  0  0  0  0  0
  184.6840  173.5560  136.0370 C   0  0  2  0  0  3  0  0  0  0  0  0
  181.2030  173.1130  137.1790 C   0  0  0  0  0  0  0  0  0  0  0  0
  1 41  1  6  0  0  0
  1  7  1  0  0  0  0
  4 11  1  1  0  0  0
  6  2  1  6  0  0  0
  6  4  1  0  0  0  0
  7  5  2  0  0  0  0
  7 10  1  0  0  0  0
  8 13  1  6  0  0  0
  8  4  1  0  0  0  0
  8  1  1  0  0  0  0
  9  3  1  6  0  0  0
  9 13  1  0  0  0  0
  9 12  1  0  0  0  0
 10 15  1  1  0  0  0
 11 10  1  0  0  0  0
 12  6  1  0  0  0  0
 15 16  1  0  0  0  0
 15 14  1  1  0  0  0
 16 17  1  0  0  0  0
 17 19  1  0  0  0  0
 18 19  1  0  0  0  0
 19 20  1  0  0  0  0
 21  9  1  0  0  0  0
 22 21  1  0  0  0  0
 24 23  1  1  0  0  0
 24 25  1  0  0  0  0
 24 22  1  0  0  0  0
 26 31  1  0  0  0  0
 28 27  1  0  0  0  0
 29 26  1  0  0  0  0
 30 29  1  6  0  0  0
 30 28  1  0  0  0  0
 31 25  1  6  0  0  0
 31 27  1  0  0  0  0
 32 35  1  0  0  0  0
 34 32  1  6  0  0  0
 34 30  1  0  0  0  0
 34 35  1  0  0  0  0
 35 36  1  0  0  0  0
 35 33  1  1  0  0  0
 37 38  1  0  0  0  0
 37 36  1  0  0  0  0
 38 40  1  0  0  0  0
 40 39  1  0  0  0  0
 41 42  1  0  0  0  0
 43 42  1  0  0  0  0
 44 46  1  0  0  0  0
 44 43  1  0  0  0  0
 45 44  2  0  0  0  0
 47 46  1  0  0  0  0
 48 58  1  0  0  0  0
 48 47  1  0  0  0  0
 49 56  1  0  0  0  0
 49 58  1  0  0  0  0
 51 57  1  0  0  0  0
 51 49  1  0  0  0  0
 52 55  1  6  0  0  0
 54 52  1  0  0  0  0
 54 56  1  0  0  0  0
 57 52  1  0  0  0  0
 57 50  1  1  0  0  0
 58 53  2  0  0  0  0
M  END
>  <MODEL>
5

>  <REMARK>
 VINA RESULT:      -5.4      3.477      8.575
  Name = 
  21 active torsions:
  status: ('A' for Active; 'I' for Inactive)
    1  A    between atoms: C_2  and  C_39
    2  A    between atoms: C_2  and  C_56
    3  A    between atoms: C_3  and  C_23
    4  A    between atoms: C_5  and  C_15
    5  A    between atoms: C_8  and  C_18
    6  A    between atoms: C_15  and  C_45
    7  A    between atoms: C_16  and  C_17
    8  A    between atoms: C_16  and  N_27
    9  A    between atoms: C_17  and  C_51
   10  A    between atoms: C_18  and  C_36
   11  A    between atoms: C_23  and  C_45
   12  A    between atoms: C_24  and  N_32
   13  A    between atoms: O_29  and  C_42
   14  A    between atoms: O_29  and  C_46
   15  A    between atoms: N_32  and  C_39
   16  A    between atoms: C_35  and  N_49
   17  A    between atoms: C_36  and  C_58
   18  A    between atoms: C_44  and  C_58
   19  A    between atoms: C_46  and  C_50
   20  A    between atoms: C_50  and  N_57
   21  A    between atoms: C_54  and  N_57
                            x       y       z     vdW  Elec       q    Type
                         _______ _______ _______ _____ _____    ______ ____

>  <TORSDO>
F 21

$$$$
=
 OpenBabel10222422133D

 58 62  0  0  1  0  0  0  0  0999 V2000
  186.2900  178.5770  139.1350 C   0  0  2  0  0  3  0  0  0  0  0  0
  186.0320  177.5680  134.5710 C   0  0  0  0  0  1  0  0  0  0  0  0
  187.2780  174.4790  137.6640 O   0  0  0  0  0  1  0  0  0  0  0  0
  185.3620  177.9670  136.9310 C   0  0  2  0  0  3  0  0  0  0  0  0
  184.4640  178.5190  140.6710 O   0  0  0  0  0  0  0  0  0  0  0  0
  185.3090  176.9790  135.7580 C   0  0  2  0  0  3  0  0  0  0  0  0
  184.8980  178.9150  139.5990 C   0  0  0  0  0  0  0  0  0  0  0  0
  186.1550  177.4350  138.1340 C   0  0  1  0  0  3  0  0  0  0  0  0
  187.2420  175.5800  136.8000 C   0  0  1  0  0  0  0  0  0  0  0  0
  183.9720  179.3920  138.5080 C   0  0  1  0  0  3  0  0  0  0  0  0
  183.9460  178.3710  137.3680 C   0  0  0  0  0  2  0  0  0  0  0  0
  185.8430  175.5890  136.1060 C   0  0  0  0  0  2  0  0  0  0  0  0
  187.4770  176.8570  137.6400 C   0  0  0  0  0  2  0  0  0  0  0  0
  182.3350  181.3090  138.9460 C   0  0  0  0  0  1  0  0  0  0  0  0
  182.5560  179.8040  138.9340 C   0  0  1  0  0  3  0  0  0  0  0  0
  181.4640  179.1060  138.1570 C   0  0  0  0  0  2  0  0  0  0  0  0
  180.4390  178.5140  139.1190 C   0  0  0  0  0  2  0  0  0  0  0  0
  180.7120  178.2970  141.6000 C   0  0  0  0  0  1  0  0  0  0  0  0
  181.0840  177.7180  140.2480 C   0  0  0  0  0  3  0  0  0  0  0  0
  180.7020  176.2480  140.1980 C   0  0  0  0  0  1  0  0  0  0  0  0
  188.2990  175.4930  135.8470 O   0  0  0  0  0  0  0  0  0  0  0  0
  188.0740  174.3870  135.0030 C   0  0  0  0  0  2  0  0  0  0  0  0
  188.7450  171.6940  135.3720 S   0  0  0  0  0  1  0  0  0  0  0  0
  189.2500  173.4090  135.0130 C   0  0  2  0  0  3  0  0  0  0  0  0
  190.1990  173.8460  136.0180 N   0  0  0  0  0  2  0  0  0  0  0  0
  192.1680  173.1920  134.7240 C   0  0  0  0  0  2  0  0  0  0  0  0
  192.2130  175.2100  136.2810 C   0  0  0  0  0  2  0  0  0  0  0  0
  193.6740  174.7680  136.2990 C   0  0  0  0  0  2  0  0  0  0  0  0
  192.9800  172.4680  135.8130 C   0  0  0  0  0  2  0  0  0  0  0  0
  193.7560  173.3610  136.7040 N   0  0  1  0  0  0  0  0  0  0  0  0
  191.3750  174.3580  135.3240 C   0  0  2  0  0  3  0  0  0  0  0  0
  195.3780  171.8020  137.6010 C   0  0  0  0  0  2  0  0  0  0  0  0
  195.1710  173.9200  138.8520 F   0  0  0  0  0  0  0  0  0  0  0  0
  195.1520  172.9470  136.6190 C   0  0  2  0  0  3  0  0  0  0  0  0
  195.8850  173.1840  137.9350 C   0  0  2  0  0  0  0  0  0  0  0  0
  197.3690  173.4470  137.7540 C   0  0  0  0  0  2  0  0  0  0  0  0
  197.5990  174.3720  136.5760 C   0  0  0  0  0  2  0  0  0  0  0  0
  198.9030  175.0010  136.7020 N   0  0  0  0  0  2  0  0  0  0  0  0
  199.5330  175.0900  134.3510 C   0  0  0  0  0  1  0  0  0  0  0  0
  199.7660  174.4160  135.6880 C   0  0  0  0  0  2  0  0  0  0  0  0
  187.3610  178.3870  140.2260 C   0  0  0  0  0  2  0  0  0  0  0  0
  188.4130  177.3270  139.9470 C   0  0  0  0  0  2  0  0  0  0  0  0
  189.7660  177.9890  139.9650 C   0  0  0  0  0  2  0  0  0  0  0  0
  190.7130  177.3440  140.9300 C   0  0  0  0  0  0  0  0  0  0  0  0
  191.9500  177.3740  140.7000 O   0  0  0  0  0  0  0  0  0  0  0  0
  190.2160  176.7510  142.1310 N   0  0  0  0  0  2  0  0  0  0  0  0
  191.1000  176.1850  143.1340 C   0  0  0  0  0  2  0  0  0  0  0  0
  191.5890  177.2630  144.0860 C   0  0  0  0  0  2  0  0  0  0  0  0
  189.9370  177.4660  146.0290 N   0  0  0  0  0  0  0  0  0  0  0  0
  187.3150  176.9110  144.3810 C   0  0  0  0  0  1  0  0  0  0  0  0
  189.1310  178.3950  145.2360 C   0  0  0  0  0  2  0  0  0  0  0  0
  187.2060  177.6460  146.7530 C   0  0  1  0  0  3  0  0  0  0  0  0
  191.8890  176.1580  146.1660 O   0  0  0  0  0  0  0  0  0  0  0  0
  188.2840  177.8870  147.8110 C   0  0  0  0  0  2  0  0  0  0  0  0
  186.0420  178.3330  147.0820 O   0  0  0  0  0  1  0  0  0  0  0  0
  189.5550  177.1460  147.4090 C   0  0  0  0  0  2  0  0  0  0  0  0
  187.6490  178.0370  145.3310 C   0  0  2  0  0  3  0  0  0  0  0  0
  191.1700  176.9430  145.4850 C   0  0  0  0  0  0  0  0  0  0  0  0
  1  7  1  0  0  0  0
  1 41  1  1  0  0  0
  4 11  1  1  0  0  0
  4  8  1  0  0  0  0
  6  2  1  6  0  0  0
  6 12  1  0  0  0  0
  6  4  1  0  0  0  0
  7  5  2  0  0  0  0
  8 13  1  6  0  0  0
  8  1  1  0  0  0  0
  9 13  1  0  0  0  0
  9  3  1  1  0  0  0
 10 15  1  1  0  0  0
 10  7  1  0  0  0  0
 11 10  1  0  0  0  0
 12  9  1  0  0  0  0
 15 14  1  6  0  0  0
 16 15  1  0  0  0  0
 16 17  1  0  0  0  0
 17 19  1  0  0  0  0
 19 18  1  0  0  0  0
 20 19  1  0  0  0  0
 21  9  1  0  0  0  0
 22 24  1  0  0  0  0
 22 21  1  0  0  0  0
 24 23  1  1  0  0  0
 24 25  1  0  0  0  0
 26 31  1  0  0  0  0
 26 29  1  0  0  0  0
 27 28  1  0  0  0  0
 28 30  1  0  0  0  0
 30 29  1  6  0  0  0
 31 25  1  1  0  0  0
 31 27  1  0  0  0  0
 32 35  1  0  0  0  0
 34 30  1  0  0  0  0
 34 32  1  1  0  0  0
 34 35  1  0  0  0  0
 35 33  1  1  0  0  0
 36 35  1  0  0  0  0
 37 38  1  0  0  0  0
 37 36  1  0  0  0  0
 39 40  1  0  0  0  0
 40 38  1  0  0  0  0
 42 43  1  0  0  0  0
 42 41  1  0  0  0  0
 43 44  1  0  0  0  0
 44 46  1  0  0  0  0
 45 44  2  0  0  0  0
 46 47  1  0  0  0  0
 47 48  1  0  0  0  0
 48 58  1  0  0  0  0
 49 56  1  0  0  0  0
 51 57  1  0  0  0  0
 51 49  1  0  0  0  0
 52 55  1  1  0  0  0
 52 54  1  0  0  0  0
 56 54  1  0  0  0  0
 57 50  1  6  0  0  0
 57 52  1  0  0  0  0
 58 49  1  0  0  0  0
 58 53  2  0  0  0  0
M  END
>  <MODEL>
6

>  <REMARK>
 VINA RESULT:      -5.4      3.068      5.824
  Name = 
  21 active torsions:
  status: ('A' for Active; 'I' for Inactive)
    1  A    between atoms: C_2  and  C_39
    2  A    between atoms: C_2  and  C_56
    3  A    between atoms: C_3  and  C_23
    4  A    between atoms: C_5  and  C_15
    5  A    between atoms: C_8  and  C_18
    6  A    between atoms: C_15  and  C_45
    7  A    between atoms: C_16  and  C_17
    8  A    between atoms: C_16  and  N_27
    9  A    between atoms: C_17  and  C_51
   10  A    between atoms: C_18  and  C_36
   11  A    between atoms: C_23  and  C_45
   12  A    between atoms: C_24  and  N_32
   13  A    between atoms: O_29  and  C_42
   14  A    between atoms: O_29  and  C_46
   15  A    between atoms: N_32  and  C_39
   16  A    between atoms: C_35  and  N_49
   17  A    between atoms: C_36  and  C_58
   18  A    between atoms: C_44  and  C_58
   19  A    between atoms: C_46  and  C_50
   20  A    between atoms: C_50  and  N_57
   21  A    between atoms: C_54  and  N_57
                            x       y       z     vdW  Elec       q    Type
                         _______ _______ _______ _____ _____    ______ ____

>  <TORSDO>
F 21

$$$$
=
 OpenBabel10222422133D

 58 62  0  0  1  0  0  0  0  0999 V2000
  185.1120  179.0310  141.5490 C   0  0  2  0  0  3  0  0  0  0  0  0
  180.4950  179.5850  141.0020 C   0  0  0  0  0  1  0  0  0  0  0  0
  182.7510  176.1070  139.1370 O   0  0  0  0  0  1  0  0  0  0  0  0
  182.6860  178.9660  142.0000 C   0  0  2  0  0  3  0  0  0  0  0  0
  186.1670  177.9580  143.4020 O   0  0  0  0  0  0  0  0  0  0  0  0
  181.2920  178.4560  141.6100 C   0  0  2  0  0  3  0  0  0  0  0  0
  185.3650  178.7940  143.0150 C   0  0  0  0  0  0  0  0  0  0  0  0
  183.8190  178.3010  141.2030 C   0  0  1  0  0  3  0  0  0  0  0  0
  182.2520  177.3790  139.4430 C   0  0  1  0  0  0  0  0  0  0  0  0
  184.2950  179.3350  143.9300 C   0  0  1  0  0  3  0  0  0  0  0  0
  182.9270  178.7920  143.5070 C   0  0  0  0  0  2  0  0  0  0  0  0
  181.3240  177.2350  140.6910 C   0  0  0  0  0  2  0  0  0  0  0  0
  183.4540  178.3120  139.7230 C   0  0  0  0  0  2  0  0  0  0  0  0
  183.8450  177.9510  146.0350 C   0  0  0  0  0  1  0  0  0  0  0  0
  184.5280  179.1720  145.4390 C   0  0  1  0  0  3  0  0  0  0  0  0
  185.9860  179.2200  145.8350 C   0  0  0  0  0  2  0  0  0  0  0  0
  186.1480  178.7540  147.2780 C   0  0  0  0  0  2  0  0  0  0  0  0
  187.9430  177.4440  146.1200 C   0  0  0  0  0  1  0  0  0  0  0  0
  187.3310  177.8090  147.4600 C   0  0  0  0  0  3  0  0  0  0  0  0
  188.3980  178.4020  148.3650 C   0  0  0  0  0  1  0  0  0  0  0  0
  181.5460  177.9120  138.3250 O   0  0  0  0  0  0  0  0  0  0  0  0
  180.9480  176.8580  137.6060 C   0  0  0  0  0  2  0  0  0  0  0  0
  180.1520  176.6250  134.9320 S   0  0  0  0  0  1  0  0  0  0  0  0
  181.4800  176.7660  136.1740 C   0  0  2  0  0  3  0  0  0  0  0  0
  182.3440  175.6060  136.0810 N   0  0  0  0  0  2  0  0  0  0  0  0
  183.8140  174.7020  134.3500 C   0  0  0  0  0  2  0  0  0  0  0  0
  184.6160  176.5060  135.9630 C   0  0  0  0  0  2  0  0  0  0  0  0
  185.9180  175.7800  135.6330 C   0  0  0  0  0  2  0  0  0  0  0  0
  184.6570  173.7260  135.1910 C   0  0  0  0  0  2  0  0  0  0  0  0
  185.7740  174.3520  135.9330 N   0  0  1  0  0  0  0  0  0  0  0  0
  183.4350  175.9380  135.1720 C   0  0  2  0  0  3  0  0  0  0  0  0
  187.4160  172.7100  136.6220 C   0  0  0  0  0  2  0  0  0  0  0  0
  187.8950  175.0220  137.3420 F   0  0  0  0  0  0  0  0  0  0  0  0
  186.9990  173.6780  135.5190 C   0  0  2  0  0  3  0  0  0  0  0  0
  188.1610  174.0120  136.4480 C   0  0  2  0  0  0  0  0  0  0  0  0
  189.5130  173.9560  135.7590 C   0  0  0  0  0  2  0  0  0  0  0  0
  190.5880  173.5450  136.7450 C   0  0  0  0  0  2  0  0  0  0  0  0
  191.8970  173.8220  136.1770 N   0  0  0  0  0  2  0  0  0  0  0  0
  193.0630  175.4730  137.5370 C   0  0  0  0  0  1  0  0  0  0  0  0
  192.1500  175.2440  136.3490 C   0  0  0  0  0  2  0  0  0  0  0  0
  186.2930  178.7880  140.5900 C   0  0  0  0  0  2  0  0  0  0  0  0
  185.9830  177.9710  139.3480 C   0  0  0  0  0  2  0  0  0  0  0  0
  186.6300  178.6460  138.1670 C   0  0  0  0  0  2  0  0  0  0  0  0
  188.0950  178.3550  138.0640 C   0  0  0  0  0  0  0  0  0  0  0  0
  188.8210  179.0720  137.3260 O   0  0  0  0  0  0  0  0  0  0  0  0
  188.6730  177.3070  138.8450 N   0  0  0  0  0  2  0  0  0  0  0  0
  190.0990  177.0390  138.8420 C   0  0  0  0  0  2  0  0  0  0  0  0
  190.5270  176.3970  140.1500 C   0  0  0  0  0  2  0  0  0  0  0  0
  191.1960  177.4460  142.3860 N   0  0  0  0  0  0  0  0  0  0  0  0
  191.4860  174.7670  144.0100 C   0  0  0  0  0  1  0  0  0  0  0  0
  190.1610  176.6560  143.0560 C   0  0  0  0  0  2  0  0  0  0  0  0
  191.6090  176.9740  145.1470 C   0  0  1  0  0  3  0  0  0  0  0  0
  192.2200  178.0490  140.3540 O   0  0  0  0  0  0  0  0  0  0  0  0
  191.6060  178.4100  144.6190 C   0  0  0  0  0  2  0  0  0  0  0  0
  191.2230  176.9480  146.4830 O   0  0  0  0  0  1  0  0  0  0  0  0
  192.0050  178.4040  143.1480 C   0  0  0  0  0  2  0  0  0  0  0  0
  190.7120  176.0240  144.3340 C   0  0  2  0  0  3  0  0  0  0  0  0
  191.3480  177.3560  140.9510 C   0  0  0  0  0  0  0  0  0  0  0  0
  1 41  1  6  0  0  0
  1  7  1  0  0  0  0
  4 11  1  1  0  0  0
  6  2  1  6  0  0  0
  6  4  1  0  0  0  0
  7  5  2  0  0  0  0
  7 10  1  0  0  0  0
  8 13  1  6  0  0  0
  8  1  1  0  0  0  0
  8  4  1  0  0  0  0
  9  3  1  6  0  0  0
  9 13  1  0  0  0  0
  9 12  1  0  0  0  0
 10 15  1  1  0  0  0
 11 10  1  0  0  0  0
 12  6  1  0  0  0  0
 15 16  1  0  0  0  0
 15 14  1  6  0  0  0
 16 17  1  0  0  0  0
 17 19  1  0  0  0  0
 18 19  1  0  0  0  0
 19 20  1  0  0  0  0
 21  9  1  0  0  0  0
 22 21  1  0  0  0  0
 24 23  1  6  0  0  0
 24 22  1  0  0  0  0
 25 24  1  0  0  0  0
 26 31  1  0  0  0  0
 26 29  1  0  0  0  0
 28 30  1  0  0  0  0
 28 27  1  0  0  0  0
 30 29  1  6  0  0  0
 31 27  1  0  0  0  0
 31 25  1  1  0  0  0
 34 30  1  0  0  0  0
 34 35  1  0  0  0  0
 34 32  1  1  0  0  0
 35 32  1  0  0  0  0
 35 33  1  1  0  0  0
 36 35  1  0  0  0  0
 36 37  1  0  0  0  0
 38 40  1  0  0  0  0
 38 37  1  0  0  0  0
 40 39  1  0  0  0  0
 42 41  1  0  0  0  0
 43 42  1  0  0  0  0
 44 43  1  0  0  0  0
 44 46  1  0  0  0  0
 45 44  2  0  0  0  0
 47 46  1  0  0  0  0
 47 48  1  0  0  0  0
 48 58  1  0  0  0  0
 49 51  1  0  0  0  0
 49 56  1  0  0  0  0
 51 57  1  0  0  0  0
 52 55  1  1  0  0  0
 53 58  2  0  0  0  0
 54 52  1  0  0  0  0
 56 54  1  0  0  0  0
 57 50  1  6  0  0  0
 57 52  1  0  0  0  0
 58 49  1  0  0  0  0
M  END
>  <MODEL>
7

>  <REMARK>
 VINA RESULT:      -5.3      2.717      7.334
  Name = 
  21 active torsions:
  status: ('A' for Active; 'I' for Inactive)
    1  A    between atoms: C_2  and  C_39
    2  A    between atoms: C_2  and  C_56
    3  A    between atoms: C_3  and  C_23
    4  A    between atoms: C_5  and  C_15
    5  A    between atoms: C_8  and  C_18
    6  A    between atoms: C_15  and  C_45
    7  A    between atoms: C_16  and  C_17
    8  A    between atoms: C_16  and  N_27
    9  A    between atoms: C_17  and  C_51
   10  A    between atoms: C_18  and  C_36
   11  A    between atoms: C_23  and  C_45
   12  A    between atoms: C_24  and  N_32
   13  A    between atoms: O_29  and  C_42
   14  A    between atoms: O_29  and  C_46
   15  A    between atoms: N_32  and  C_39
   16  A    between atoms: C_35  and  N_49
   17  A    between atoms: C_36  and  C_58
   18  A    between atoms: C_44  and  C_58
   19  A    between atoms: C_46  and  C_50
   20  A    between atoms: C_50  and  N_57
   21  A    between atoms: C_54  and  N_57
                            x       y       z     vdW  Elec       q    Type
                         _______ _______ _______ _____ _____    ______ ____

>  <TORSDO>
F 21

$$$$
=
 OpenBabel10222422133D

 58 62  0  0  1  0  0  0  0  0999 V2000
  190.4660  175.6540  138.1120 C   0  0  2  0  0  3  0  0  0  0  0  0
  188.2320  171.9310  136.3600 C   0  0  0  0  0  1  0  0  0  0  0  0
  187.1830  176.1800  135.1320 O   0  0  0  0  0  1  0  0  0  0  0  0
  189.9550  173.6890  136.7090 C   0  0  2  0  0  3  0  0  0  0  0  0
  192.5210  176.5470  137.2900 O   0  0  0  0  0  0  0  0  0  0  0  0
  189.0360  173.0140  135.6810 C   0  0  2  0  0  3  0  0  0  0  0  0
  191.9030  175.5640  137.6680 C   0  0  0  0  0  0  0  0  0  0  0  0
  189.6150  175.1680  136.9440 C   0  0  1  0  0  3  0  0  0  0  0  0
  187.3440  174.9860  135.8440 C   0  0  1  0  0  0  0  0  0  0  0  0
  192.3690  174.1700  137.3330 C   0  0  1  0  0  3  0  0  0  0  0  0
  191.4280  173.5430  136.3000 C   0  0  0  0  0  2  0  0  0  0  0  0
  188.1340  173.9950  134.9320 C   0  0  0  0  0  2  0  0  0  0  0  0
  188.1100  175.3040  137.1490 C   0  0  0  0  0  2  0  0  0  0  0  0
  194.8100  174.1010  138.0970 C   0  0  0  0  0  1  0  0  0  0  0  0
  193.8420  174.0110  136.9280 C   0  0  1  0  0  3  0  0  0  0  0  0
  194.1120  172.7760  136.1000 C   0  0  0  0  0  2  0  0  0  0  0  0
  194.8720  171.7480  136.9320 C   0  0  0  0  0  2  0  0  0  0  0  0
  196.1430  169.8780  135.8520 C   0  0  0  0  0  1  0  0  0  0  0  0
  194.7860  170.3420  136.3500 C   0  0  0  0  0  3  0  0  0  0  0  0
  194.2400  169.3420  137.3560 C   0  0  0  0  0  1  0  0  0  0  0  0
  186.0710  174.4580  136.2120 O   0  0  0  0  0  0  0  0  0  0  0  0
  185.0740  175.4160  135.9410 C   0  0  0  0  0  2  0  0  0  0  0  0
  183.3940  173.2420  135.4010 S   0  0  0  0  0  1  0  0  0  0  0  0
  183.6680  174.8650  136.1860 C   0  0  2  0  0  3  0  0  0  0  0  0
  182.7070  175.8160  135.6620 N   0  0  0  0  0  2  0  0  0  0  0  0
  180.5800  176.8890  136.2080 C   0  0  0  0  0  2  0  0  0  0  0  0
  181.7990  175.4220  137.8990 C   0  0  0  0  0  2  0  0  0  0  0  0
  181.0420  176.3850  138.8090 C   0  0  0  0  0  2  0  0  0  0  0  0
  181.0830  178.0820  137.0410 C   0  0  0  0  0  2  0  0  0  0  0  0
  181.3850  177.7670  138.4560 N   0  0  1  0  0  0  0  0  0  0  0  0
  181.4720  175.6620  136.4230 C   0  0  2  0  0  3  0  0  0  0  0  0
  180.9920  180.0960  138.9880 C   0  0  0  0  0  2  0  0  0  0  0  0
  182.7380  179.0020  140.3470 F   0  0  0  0  0  0  0  0  0  0  0  0
  180.5750  178.6580  139.2790 C   0  0  2  0  0  3  0  0  0  0  0  0
  181.4350  179.4350  140.2700 C   0  0  2  0  0  0  0  0  0  0  0  0
  180.6920  179.8070  141.5420 C   0  0  0  0  0  2  0  0  0  0  0  0
  180.7150  178.6510  142.5210 C   0  0  0  0  0  2  0  0  0  0  0  0
  181.4060  179.0570  143.7330 N   0  0  0  0  0  2  0  0  0  0  0  0
  183.7570  179.5410  144.1480 C   0  0  0  0  0  1  0  0  0  0  0  0
  182.7520  178.5130  143.6670 C   0  0  0  0  0  2  0  0  0  0  0  0
  190.0190  176.9780  138.7610 C   0  0  0  0  0  2  0  0  0  0  0  0
  189.4100  176.8650  140.1470 C   0  0  0  0  0  2  0  0  0  0  0  0
  189.9960  177.9520  141.0090 C   0  0  0  0  0  2  0  0  0  0  0  0
  190.5820  177.4270  142.2840 C   0  0  0  0  0  0  0  0  0  0  0  0
  190.7400  176.1870  142.4310 O   0  0  0  0  0  0  0  0  0  0  0  0
  191.0120  178.3350  143.3000 N   0  0  0  0  0  2  0  0  0  0  0  0
  191.6590  177.8790  144.5170 C   0  0  0  0  0  2  0  0  0  0  0  0
  191.0290  176.5860  145.0060 C   0  0  0  0  0  2  0  0  0  0  0  0
  189.3230  177.5280  146.6650 N   0  0  0  0  0  0  0  0  0  0  0  0
  186.7330  176.7080  145.0770 C   0  0  0  0  0  1  0  0  0  0  0  0
  188.6540  178.2260  145.5660 C   0  0  0  0  0  2  0  0  0  0  0  0
  186.5960  178.1570  147.0920 C   0  0  1  0  0  3  0  0  0  0  0  0
  191.1210  176.1680  147.3420 O   0  0  0  0  0  0  0  0  0  0  0  0
  187.6450  178.6250  148.1020 C   0  0  0  0  0  2  0  0  0  0  0  0
  185.4970  179.0090  147.1060 O   0  0  0  0  0  1  0  0  0  0  0  0
  188.8490  177.6900  148.0440 C   0  0  0  0  0  2  0  0  0  0  0  0
  187.1390  178.0430  145.6570 C   0  0  2  0  0  3  0  0  0  0  0  0
  190.5180  176.7580  146.4010 C   0  0  0  0  0  0  0  0  0  0  0  0
  1 41  1  6  0  0  0
  4 11  1  6  0  0  0
  4  8  1  0  0  0  0
  5  7  2  0  0  0  0
  6  2  1  1  0  0  0
  6  4  1  0  0  0  0
  7  1  1  0  0  0  0
  8 13  1  1  0  0  0
  8  1  1  0  0  0  0
  9  3  1  6  0  0  0
  9 21  1  0  0  0  0
  9 13  1  0  0  0  0
 10 15  1  6  0  0  0
 10  7  1  0  0  0  0
 11 10  1  0  0  0  0
 12  6  1  0  0  0  0
 12  9  1  0  0  0  0
 15 14  1  1  0  0  0
 16 15  1  0  0  0  0
 16 17  1  0  0  0  0
 18 19  1  0  0  0  0
 19 17  1  0  0  0  0
 19 20  1  0  0  0  0
 22 24  1  0  0  0  0
 22 21  1  0  0  0  0
 24 23  1  6  0  0  0
 25 24  1  0  0  0  0
 26 31  1  0  0  0  0
 26 29  1  0  0  0  0
 27 28  1  0  0  0  0
 30 29  1  6  0  0  0
 30 28  1  0  0  0  0
 30 34  1  0  0  0  0
 31 25  1  6  0  0  0
 31 27  1  0  0  0  0
 32 35  1  0  0  0  0
 34 32  1  6  0  0  0
 34 35  1  0  0  0  0
 35 33  1  1  0  0  0
 35 36  1  0  0  0  0
 36 37  1  0  0  0  0
 37 38  1  0  0  0  0
 40 38  1  0  0  0  0
 40 39  1  0  0  0  0
 41 42  1  0  0  0  0
 42 43  1  0  0  0  0
 43 44  1  0  0  0  0
 44 45  2  0  0  0  0
 44 46  1  0  0  0  0
 46 47  1  0  0  0  0
 47 48  1  0  0  0  0
 48 58  1  0  0  0  0
 49 56  1  0  0  0  0
 51 57  1  0  0  0  0
 51 49  1  0  0  0  0
 52 55  1  6  0  0  0
 52 54  1  0  0  0  0
 56 54  1  0  0  0  0
 57 50  1  1  0  0  0
 57 52  1  0  0  0  0
 58 49  1  0  0  0  0
 58 53  2  0  0  0  0
M  END
>  <MODEL>
8

>  <REMARK>
 VINA RESULT:      -5.3      3.287      8.816
  Name = 
  21 active torsions:
  status: ('A' for Active; 'I' for Inactive)
    1  A    between atoms: C_2  and  C_39
    2  A    between atoms: C_2  and  C_56
    3  A    between atoms: C_3  and  C_23
    4  A    between atoms: C_5  and  C_15
    5  A    between atoms: C_8  and  C_18
    6  A    between atoms: C_15  and  C_45
    7  A    between atoms: C_16  and  C_17
    8  A    between atoms: C_16  and  N_27
    9  A    between atoms: C_17  and  C_51
   10  A    between atoms: C_18  and  C_36
   11  A    between atoms: C_23  and  C_45
   12  A    between atoms: C_24  and  N_32
   13  A    between atoms: O_29  and  C_42
   14  A    between atoms: O_29  and  C_46
   15  A    between atoms: N_32  and  C_39
   16  A    between atoms: C_35  and  N_49
   17  A    between atoms: C_36  and  C_58
   18  A    between atoms: C_44  and  C_58
   19  A    between atoms: C_46  and  C_50
   20  A    between atoms: C_50  and  N_57
   21  A    between atoms: C_54  and  N_57
                            x       y       z     vdW  Elec       q    Type
                         _______ _______ _______ _____ _____    ______ ____

>  <TORSDO>
F 21

$$$$
=
 OpenBabel10222422133D

 58 62  0  0  1  0  0  0  0  0999 V2000
  187.9370  178.3960  141.5010 C   0  0  2  0  0  3  0  0  0  0  0  0
  184.2770  179.9910  143.9470 C   0  0  0  0  0  1  0  0  0  0  0  0
  183.7760  177.2450  140.3600 O   0  0  0  0  0  1  0  0  0  0  0  0
  186.2320  178.6110  143.2720 C   0  0  2  0  0  3  0  0  0  0  0  0
  189.2370  176.4730  142.0520 O   0  0  0  0  0  0  0  0  0  0  0  0
  184.7520  178.5830  143.6790 C   0  0  2  0  0  3  0  0  0  0  0  0
  188.7510  177.5290  142.4250 C   0  0  0  0  0  0  0  0  0  0  0  0
  186.4710  178.1360  141.8310 C   0  0  1  0  0  3  0  0  0  0  0  0
  184.0330  178.3440  141.1880 C   0  0  1  0  0  0  0  0  0  0  0  0
  188.5680  177.8330  143.8910 C   0  0  1  0  0  3  0  0  0  0  0  0
  187.0800  177.7840  144.2500 C   0  0  0  0  0  2  0  0  0  0  0  0
  183.8530  177.8730  142.6660 C   0  0  0  0  0  2  0  0  0  0  0  0
  185.4740  178.8300  140.9090 C   0  0  0  0  0  2  0  0  0  0  0  0
  190.7350  177.6800  145.2440 C   0  0  0  0  0  1  0  0  0  0  0  0
  189.4160  177.0170  144.8770 C   0  0  1  0  0  3  0  0  0  0  0  0
  188.6630  176.5940  146.1180 C   0  0  0  0  0  2  0  0  0  0  0  0
  189.5690  176.7070  147.3390 C   0  0  0  0  0  2  0  0  0  0  0  0
  189.7380  178.8610  148.6070 C   0  0  0  0  0  1  0  0  0  0  0  0
  188.9630  177.5670  148.4430 C   0  0  0  0  0  3  0  0  0  0  0  0
  187.4980  177.8760  148.1830 C   0  0  0  0  0  1  0  0  0  0  0  0
  183.1490  179.4170  140.8700 O   0  0  0  0  0  0  0  0  0  0  0  0
  182.5950  179.1990  139.5930 C   0  0  0  0  0  2  0  0  0  0  0  0
  180.3660  180.0480  141.0610 S   0  0  0  0  0  1  0  0  0  0  0  0
  181.0660  179.1580  139.6310 C   0  0  2  0  0  3  0  0  0  0  0  0
  180.6470  177.7710  139.6830 N   0  0  0  0  0  2  0  0  0  0  0  0
  180.3990  175.7900  138.2720 C   0  0  0  0  0  2  0  0  0  0  0  0
  181.5130  177.9100  137.3990 C   0  0  0  0  0  2  0  0  0  0  0  0
  182.2010  176.8300  136.5680 C   0  0  0  0  0  2  0  0  0  0  0  0
  181.8220  175.2090  138.3660 C   0  0  0  0  0  2  0  0  0  0  0  0
  182.8090  175.8370  137.4590 N   0  0  1  0  0  0  0  0  0  0  0  0
  180.4340  177.3210  138.3120 C   0  0  2  0  0  3  0  0  0  0  0  0
  184.1120  173.7980  137.5410 C   0  0  0  0  0  2  0  0  0  0  0  0
  185.4380  175.8680  137.3220 F   0  0  0  0  0  0  0  0  0  0  0  0
  183.3730  174.7750  136.6340 C   0  0  2  0  0  3  0  0  0  0  0  0
  184.8960  174.7710  136.6950 C   0  0  2  0  0  0  0  0  0  0  0  0
  185.5440  174.2330  135.4310 C   0  0  0  0  0  2  0  0  0  0  0  0
  186.9550  173.7620  135.7240 C   0  0  0  0  0  2  0  0  0  0  0  0
  187.8960  174.5260  134.9230 N   0  0  0  0  0  2  0  0  0  0  0  0
  189.3000  173.2940  136.4870 C   0  0  0  0  0  1  0  0  0  0  0  0
  189.2100  173.9320  135.1150 C   0  0  0  0  0  2  0  0  0  0  0  0
  188.3030  178.3550  140.0050 C   0  0  0  0  0  2  0  0  0  0  0  0
  189.7390  177.9830  139.6830 C   0  0  0  0  0  2  0  0  0  0  0  0
  189.7270  176.9860  138.5540 C   0  0  0  0  0  2  0  0  0  0  0  0
  191.0790  176.7910  137.9400 C   0  0  0  0  0  0  0  0  0  0  0  0
  192.1110  176.9620  138.6400 O   0  0  0  0  0  0  0  0  0  0  0  0
  191.1920  176.3560  136.5830 N   0  0  0  0  0  2  0  0  0  0  0  0
  192.4760  176.0760  135.9680 C   0  0  0  0  0  2  0  0  0  0  0  0
  192.7670  174.5850  135.9900 C   0  0  0  0  0  2  0  0  0  0  0  0
  195.2770  174.3700  136.4350 N   0  0  0  0  0  0  0  0  0  0  0  0
  196.1560  177.0570  135.0550 C   0  0  0  0  0  1  0  0  0  0  0  0
  195.5420  174.6380  135.0210 C   0  0  0  0  0  2  0  0  0  0  0  0
  197.8430  175.4110  135.8440 C   0  0  1  0  0  3  0  0  0  0  0  0
  193.6660  174.0440  138.1200 O   0  0  0  0  0  0  0  0  0  0  0  0
  197.7220  174.0990  136.6230 C   0  0  0  0  0  2  0  0  0  0  0  0
  199.0460  175.4500  135.1470 O   0  0  0  0  0  1  0  0  0  0  0  0
  196.3830  174.0720  137.3530 C   0  0  0  0  0  2  0  0  0  0  0  0
  196.6760  175.6510  134.8700 C   0  0  2  0  0  3  0  0  0  0  0  0
  193.9120  174.2970  136.9070 C   0  0  0  0  0  0  0  0  0  0  0  0
  1 41  1  6  0  0  0
  1  8  1  0  0  0  0
  1  7  1  0  0  0  0
  4  6  1  0  0  0  0
  4 11  1  1  0  0  0
  5  7  2  0  0  0  0
  6  2  1  6  0  0  0
  7 10  1  0  0  0  0
  8 13  1  6  0  0  0
  8  4  1  0  0  0  0
  9  3  1  6  0  0  0
  9 12  1  0  0  0  0
 10 11  1  0  0  0  0
 10 15  1  1  0  0  0
 12  6  1  0  0  0  0
 13  9  1  0  0  0  0
 15 14  1  1  0  0  0
 15 16  1  0  0  0  0
 16 17  1  0  0  0  0
 17 19  1  0  0  0  0
 19 18  1  0  0  0  0
 20 19  1  0  0  0  0
 21  9  1  0  0  0  0
 22 24  1  0  0  0  0
 22 21  1  0  0  0  0
 24 25  1  0  0  0  0
 24 23  1  1  0  0  0
 26 31  1  0  0  0  0
 26 29  1  0  0  0  0
 27 31  1  0  0  0  0
 28 27  1  0  0  0  0
 30 28  1  6  0  0  0
 30 29  1  0  0  0  0
 31 25  1  1  0  0  0
 34 35  1  0  0  0  0
 34 30  1  0  0  0  0
 34 32  1  1  0  0  0
 35 33  1  1  0  0  0
 35 32  1  0  0  0  0
 36 37  1  0  0  0  0
 36 35  1  0  0  0  0
 38 40  1  0  0  0  0
 38 37  1  0  0  0  0
 40 39  1  0  0  0  0
 42 41  1  0  0  0  0
 43 42  1  0  0  0  0
 44 43  1  0  0  0  0
 44 45  2  0  0  0  0
 46 44  1  0  0  0  0
 47 48  1  0  0  0  0
 47 46  1  0  0  0  0
 48 58  1  0  0  0  0
 49 58  1  0  0  0  0
 49 56  1  0  0  0  0
 51 49  1  0  0  0  0
 52 55  1  6  0  0  0
 52 54  1  0  0  0  0
 54 56  1  0  0  0  0
 57 51  1  0  0  0  0
 57 50  1  1  0  0  0
 57 52  1  0  0  0  0
 58 53  2  0  0  0  0
M  END
>  <MODEL>
9

>  <REMARK>
 VINA RESULT:      -5.3      3.206      9.479
  Name = 
  21 active torsions:
  status: ('A' for Active; 'I' for Inactive)
    1  A    between atoms: C_2  and  C_39
    2  A    between atoms: C_2  and  C_56
    3  A    between atoms: C_3  and  C_23
    4  A    between atoms: C_5  and  C_15
    5  A    between atoms: C_8  and  C_18
    6  A    between atoms: C_15  and  C_45
    7  A    between atoms: C_16  and  C_17
    8  A    between atoms: C_16  and  N_27
    9  A    between atoms: C_17  and  C_51
   10  A    between atoms: C_18  and  C_36
   11  A    between atoms: C_23  and  C_45
   12  A    between atoms: C_24  and  N_32
   13  A    between atoms: O_29  and  C_42
   14  A    between atoms: O_29  and  C_46
   15  A    between atoms: N_32  and  C_39
   16  A    between atoms: C_35  and  N_49
   17  A    between atoms: C_36  and  C_58
   18  A    between atoms: C_44  and  C_58
   19  A    between atoms: C_46  and  C_50
   20  A    between atoms: C_50  and  N_57
   21  A    between atoms: C_54  and  N_57
                            x       y       z     vdW  Elec       q    Type
                         _______ _______ _______ _____ _____    ______ ____

>  <TORSDO>
F 21

$$$$
