=
 OpenBabel10232410023D

 26 30  0  0  1  0  0  0  0  0999 V2000
  187.7090  177.6280  141.4020 C   0  0  2  0  0  3  0  0  0  0  0  0
  189.8720  178.1550  144.3930 N   0  0  0  0  0  2  0  0  0  0  0  0
  188.9890  176.4850  137.4280 C   0  0  0  0  0  0  0  0  0  0  0  0
  188.5630  176.8990  138.7250 N   0  0  0  0  0  2  0  0  0  0  0  0
  186.1110  179.3930  141.9010 C   0  0  2  0  0  3  0  0  0  0  0  0
  190.3840  175.9570  137.2200 C   0  0  1  0  0  3  0  0  0  0  0  0
  187.5370  179.0570  141.7750 N   0  0  1  0  0  0  0  0  0  0  0  0
  185.3770  178.5980  142.9780 C   0  0  1  0  0  3  0  0  0  0  0  0
  190.9320  176.7750  139.4730 C   0  0  0  0  0  3  0  0  0  0  0  0
  187.8670  178.0510  142.7930 C   0  0  2  0  0  0  0  0  0  0  0  0
  184.0560  178.5140  140.9650 C   0  0  0  0  0  2  0  0  0  0  0  0
  189.5140  177.0050  139.7840 C   0  0  0  0  0  0  0  0  0  0  0  0
  190.0230  177.5020  142.1030 N   0  0  0  0  0  0  0  0  0  0  0  0
  189.1260  177.3580  141.0120 C   0  0  0  0  0  0  0  0  0  0  0  0
  191.3000  176.3360  138.3050 N   0  0  0  0  0  0  0  0  0  0  0  0
  188.1810  176.5250  136.4630 O   0  0  0  0  0  0  0  0  0  0  0  0
  189.3120  177.8780  143.1100 C   0  0  0  0  0  0  0  0  0  0  0  0
  184.3360  177.7710  142.2540 C   0  0  0  0  0  2  0  0  0  0  0  0
  185.3590  179.1920  140.5930 C   0  0  0  0  0  2  0  0  0  0  0  0
  186.5210  177.5200  143.8730 S   0  0  0  0  0  0  0  0  0  0  0  0
  190.3490  174.4970  137.1000 C   0  0  0  0  0  0  0  0  0  0  0  0
  190.3220  173.3440  137.0040 N   0  0  0  0  0  0  0  0  0  0  0  0
  191.2900  177.9990  144.6640 C   0  0  0  0  0  2  0  0  0  0  0  0
  191.5630  176.5850  145.1300 C   0  0  0  0  0  2  0  0  0  0  0  0
  191.9490  176.5730  147.7210 N   0  0  0  0  0  0  0  0  0  0  0  0
  191.7780  176.5780  146.5770 C   0  0  0  0  0  0  0  0  0  0  0  0
  1 14  1  6  0  0  0
  1  7  1  0  0  0  0
  1 10  1  0  0  0  0
  2 23  1  0  0  0  0
  3  4  1  0  0  0  0
  4 12  1  0  0  0  0
  5 19  1  6  0  0  0
  5  8  1  0  0  0  0
  6 21  1  1  0  0  0
  6  3  1  0  0  0  0
  6 15  1  0  0  0  0
  7  5  1  0  0  0  0
  7 10  1  0  0  0  0
  8 20  1  0  0  0  0
  9 12  1  0  0  0  0
 10 17  1  0  0  0  0
 10 20  1  0  0  0  0
 11 18  1  0  0  0  0
 12 14  2  0  0  0  0
 13 17  2  0  0  0  0
 14 13  1  0  0  0  0
 15  9  2  0  0  0  0
 16  3  2  0  0  0  0
 17  2  1  0  0  0  0
 18  8  1  0  0  0  0
 19 11  1  0  0  0  0
 22 21  3  0  0  0  0
 23 24  1  0  0  0  0
 24 26  1  0  0  0  0
 26 25  3  0  0  0  0
M  END
>  <MODEL>
1

>  <REMARK>
 VINA RESULT:      -6.6      0.000      0.000
  Name = 
  4 active torsions:
  status: ('A' for Active; 'I' for Inactive)
    1  A    between atoms: N_2  and  C_4
    2  A    between atoms: C_4  and  C_15
    3  A    between atoms: C_7  and  C_9
    4  A    between atoms: C_15  and  C_26
                            x       y       z     vdW  Elec       q    Type
                         _______ _______ _______ _____ _____    ______ ____

>  <TORSDO>
F 4

$$$$
=
 OpenBabel10232410023D

 26 30  0  0  1  0  0  0  0  0999 V2000
  189.1340  177.4880  142.6170 C   0  0  2  0  0  3  0  0  0  0  0  0
  191.6810  176.8560  139.9690 N   0  0  0  0  0  2  0  0  0  0  0  0
  185.1060  178.9730  142.0580 C   0  0  0  0  0  0  0  0  0  0  0  0
  186.4440  178.5190  142.2540 N   0  0  0  0  0  2  0  0  0  0  0  0
  190.6880  178.2730  144.3150 C   0  0  2  0  0  3  0  0  0  0  0  0
  184.5060  178.9910  140.6770 C   0  0  1  0  0  3  0  0  0  0  0  0
  190.2600  178.4110  142.9150 N   0  0  1  0  0  0  0  0  0  0  0  0
  191.1940  176.8790  144.6770 C   0  0  1  0  0  3  0  0  0  0  0  0
  186.7640  178.5960  139.7880 C   0  0  0  0  0  3  0  0  0  0  0  0
  190.4990  177.1340  142.2310 C   0  0  2  0  0  0  0  0  0  0  0  0
  189.6190  177.5570  146.3690 C   0  0  0  0  0  2  0  0  0  0  0  0
  187.2830  178.2750  141.1260 C   0  0  0  0  0  0  0  0  0  0  0  0
  189.4190  177.5740  140.2140 N   0  0  0  0  0  0  0  0  0  0  0  0
  188.5270  177.8180  141.2910 C   0  0  0  0  0  0  0  0  0  0  0  0
  185.5230  178.9460  139.6170 N   0  0  0  0  0  0  0  0  0  0  0  0
  184.4130  179.3210  143.0490 O   0  0  0  0  0  0  0  0  0  0  0  0
  190.5240  177.1750  140.7420 C   0  0  0  0  0  0  0  0  0  0  0  0
  190.2330  176.3380  145.7140 C   0  0  0  0  0  2  0  0  0  0  0  0
  189.5720  178.6200  145.2910 C   0  0  0  0  0  2  0  0  0  0  0  0
  191.2140  175.8050  143.2210 S   0  0  0  0  0  0  0  0  0  0  0  0
  183.5880  177.8590  140.5190 C   0  0  0  0  0  0  0  0  0  0  0  0
  182.8640  176.9650  140.3940 N   0  0  0  0  0  0  0  0  0  0  0  0
  191.6820  176.9280  138.5180 C   0  0  0  0  0  2  0  0  0  0  0  0
  192.3550  175.6960  137.9520 C   0  0  0  0  0  2  0  0  0  0  0  0
  190.5460  173.8800  137.4100 N   0  0  0  0  0  0  0  0  0  0  0  0
  191.3450  174.6820  137.6490 C   0  0  0  0  0  0  0  0  0  0  0  0
  1 14  1  6  0  0  0
  1  7  1  0  0  0  0
  2 17  1  0  0  0  0
  3  4  1  0  0  0  0
  3 16  2  0  0  0  0
  5  8  1  0  0  0  0
  5 19  1  1  0  0  0
  6 21  1  1  0  0  0
  6  3  1  0  0  0  0
  7  5  1  0  0  0  0
  8 18  1  0  0  0  0
  9 12  1  0  0  0  0
 10  1  1  0  0  0  0
 10  7  1  0  0  0  0
 10 20  1  0  0  0  0
 12 14  2  0  0  0  0
 12  4  1  0  0  0  0
 13 17  2  0  0  0  0
 13 14  1  0  0  0  0
 15  9  2  0  0  0  0
 15  6  1  0  0  0  0
 17 10  1  0  0  0  0
 18 11  1  0  0  0  0
 19 11  1  0  0  0  0
 20  8  1  0  0  0  0
 22 21  3  0  0  0  0
 23  2  1  0  0  0  0
 24 23  1  0  0  0  0
 25 26  3  0  0  0  0
 26 24  1  0  0  0  0
M  END
>  <MODEL>
2

>  <REMARK>
 VINA RESULT:      -6.5      2.554      6.186
  Name = 
  4 active torsions:
  status: ('A' for Active; 'I' for Inactive)
    1  A    between atoms: N_2  and  C_4
    2  A    between atoms: C_4  and  C_15
    3  A    between atoms: C_7  and  C_9
    4  A    between atoms: C_15  and  C_26
                            x       y       z     vdW  Elec       q    Type
                         _______ _______ _______ _____ _____    ______ ____

>  <TORSDO>
F 4

$$$$
=
 OpenBabel10232410023D

 26 30  0  0  1  0  0  0  0  0999 V2000
  187.9480  177.5820  138.4560 C   0  0  2  0  0  3  0  0  0  0  0  0
  184.5340  178.7800  139.3550 N   0  0  0  0  0  2  0  0  0  0  0  0
  191.4450  177.5170  141.0080 C   0  0  0  0  0  0  0  0  0  0  0  0
  190.3070  177.5700  140.1490 N   0  0  0  0  0  2  0  0  0  0  0  0
  187.9160  178.3570  136.1510 C   0  0  2  0  0  3  0  0  0  0  0  0
  191.2840  177.7140  142.4920 C   0  0  1  0  0  3  0  0  0  0  0  0
  187.6750  178.7300  137.5530 N   0  0  1  0  0  0  0  0  0  0  0  0
  187.0290  177.2210  135.6480 C   0  0  1  0  0  3  0  0  0  0  0  0
  188.9930  178.4890  142.0510 C   0  0  0  0  0  3  0  0  0  0  0  0
  186.5760  177.9040  138.0680 C   0  0  2  0  0  0  0  0  0  0  0  0
  189.3020  176.7160  135.0310 C   0  0  0  0  0  2  0  0  0  0  0  0
  189.0500  178.0090  140.6630 C   0  0  0  0  0  0  0  0  0  0  0  0
  186.6930  178.4770  140.3230 N   0  0  0  0  0  0  0  0  0  0  0  0
  187.9670  178.0320  139.8810 C   0  0  0  0  0  0  0  0  0  0  0  0
  190.0190  178.3750  142.8420 N   0  0  0  0  0  0  0  0  0  0  0  0
  192.5790  177.2650  140.5260 O   0  0  0  0  0  0  0  0  0  0  0  0
  185.9060  178.3910  139.3070 C   0  0  0  0  0  0  0  0  0  0  0  0
  187.9610  176.0750  135.3170 C   0  0  0  0  0  2  0  0  0  0  0  0
  189.3620  177.9480  135.9090 C   0  0  0  0  0  2  0  0  0  0  0  0
  185.8450  176.7180  136.9200 S   0  0  0  0  0  0  0  0  0  0  0  0
  191.3630  176.4190  143.1760 C   0  0  0  0  0  0  0  0  0  0  0  0
  191.4260  175.3980  143.7160 N   0  0  0  0  0  0  0  0  0  0  0  0
  183.9150  179.2730  140.5740 C   0  0  0  0  0  2  0  0  0  0  0  0
  183.6020  178.1080  141.4880 C   0  0  0  0  0  2  0  0  0  0  0  0
  184.4550  178.6370  143.9080 N   0  0  0  0  0  0  0  0  0  0  0  0
  184.0780  178.4030  142.8390 C   0  0  0  0  0  0  0  0  0  0  0  0
  1 14  1  1  0  0  0
  2 23  1  0  0  0  0
  3  6  1  0  0  0  0
  4 12  1  0  0  0  0
  4  3  1  0  0  0  0
  5 19  1  1  0  0  0
  5  7  1  0  0  0  0
  6 15  1  0  0  0  0
  6 21  1  1  0  0  0
  7 10  1  0  0  0  0
  7  1  1  0  0  0  0
  8  5  1  0  0  0  0
  8 20  1  0  0  0  0
  9 15  2  0  0  0  0
 10  1  1  0  0  0  0
 10 17  1  0  0  0  0
 11 18  1  0  0  0  0
 11 19  1  0  0  0  0
 12  9  1  0  0  0  0
 14 13  1  0  0  0  0
 14 12  2  0  0  0  0
 16  3  2  0  0  0  0
 17  2  1  0  0  0  0
 17 13  2  0  0  0  0
 18  8  1  0  0  0  0
 20 10  1  0  0  0  0
 21 22  3  0  0  0  0
 23 24  1  0  0  0  0
 24 26  1  0  0  0  0
 26 25  3  0  0  0  0
M  END
>  <MODEL>
3

>  <REMARK>
 VINA RESULT:      -6.2      2.864      6.186
  Name = 
  4 active torsions:
  status: ('A' for Active; 'I' for Inactive)
    1  A    between atoms: N_2  and  C_4
    2  A    between atoms: C_4  and  C_15
    3  A    between atoms: C_7  and  C_9
    4  A    between atoms: C_15  and  C_26
                            x       y       z     vdW  Elec       q    Type
                         _______ _______ _______ _____ _____    ______ ____

>  <TORSDO>
F 4

$$$$
=
 OpenBabel10232410023D

 26 30  0  0  1  0  0  0  0  0999 V2000
  190.3960  177.3010  140.2250 C   0  0  2  0  0  3  0  0  0  0  0  0
  186.9660  178.0410  138.9660 N   0  0  0  0  0  2  0  0  0  0  0  0
  193.7180  175.7040  137.9550 C   0  0  0  0  0  0  0  0  0  0  0  0
  192.6180  176.1950  138.7190 N   0  0  0  0  0  2  0  0  0  0  0  0
  189.7220  176.5430  142.4360 C   0  0  2  0  0  3  0  0  0  0  0  0
  193.6490  175.6840  136.4520 C   0  0  1  0  0  3  0  0  0  0  0  0
  189.4860  176.4090  140.9900 N   0  0  1  0  0  0  0  0  0  0  0  0
  189.4710  177.9470  142.9800 C   0  0  1  0  0  3  0  0  0  0  0  0
  191.2440  176.1570  136.6450 C   0  0  0  0  0  3  0  0  0  0  0  0
  189.0120  177.7010  140.4780 C   0  0  2  0  0  0  0  0  0  0  0  0
  191.6070  177.2010  143.8090 C   0  0  0  0  0  2  0  0  0  0  0  0
  191.3770  176.4770  138.0740 C   0  0  0  0  0  0  0  0  0  0  0  0
  189.0810  177.2530  138.1930 N   0  0  0  0  0  0  0  0  0  0  0  0
  190.3470  176.9700  138.7690 C   0  0  0  0  0  0  0  0  0  0  0  0
  192.2720  175.7730  135.9470 N   0  0  0  0  0  0  0  0  0  0  0  0
  194.7650  175.3230  138.5420 O   0  0  0  0  0  0  0  0  0  0  0  0
  188.3340  177.6790  139.1520 C   0  0  0  0  0  0  0  0  0  0  0  0
  190.8070  178.4460  143.4870 C   0  0  0  0  0  2  0  0  0  0  0  0
  191.1420  176.1510  142.8220 C   0  0  0  0  0  2  0  0  0  0  0  0
  188.8490  179.0390  141.6790 S   0  0  0  0  0  0  0  0  0  0  0  0
  194.4400  176.7910  135.9040 C   0  0  0  0  0  0  0  0  0  0  0  0
  195.0650  177.6630  135.4710 N   0  0  0  0  0  0  0  0  0  0  0  0
  186.3250  177.9870  137.6630 C   0  0  0  0  0  2  0  0  0  0  0  0
  184.8220  178.0380  137.8370 C   0  0  0  0  0  2  0  0  0  0  0  0
  184.2010  179.9130  139.5580 N   0  0  0  0  0  0  0  0  0  0  0  0
  184.4750  179.0850  138.7980 C   0  0  0  0  0  0  0  0  0  0  0  0
  1 14  1  6  0  0  0
  1 10  1  0  0  0  0
  1  7  1  0  0  0  0
  2 17  1  0  0  0  0
  3 16  2  0  0  0  0
  3  4  1  0  0  0  0
  5 19  1  6  0  0  0
  5  8  1  0  0  0  0
  6 21  1  6  0  0  0
  6  3  1  0  0  0  0
  7  5  1  0  0  0  0
  8 18  1  0  0  0  0
  9 12  1  0  0  0  0
 10  7  1  0  0  0  0
 10 20  1  0  0  0  0
 12  4  1  0  0  0  0
 12 14  2  0  0  0  0
 13 14  1  0  0  0  0
 13 17  2  0  0  0  0
 15  6  1  0  0  0  0
 15  9  2  0  0  0  0
 17 10  1  0  0  0  0
 18 11  1  0  0  0  0
 19 11  1  0  0  0  0
 20  8  1  0  0  0  0
 22 21  3  0  0  0  0
 23 24  1  0  0  0  0
 23  2  1  0  0  0  0
 24 26  1  0  0  0  0
 26 25  3  0  0  0  0
M  END
>  <MODEL>
4

>  <REMARK>
 VINA RESULT:      -6.1      2.998      5.999
  Name = 
  4 active torsions:
  status: ('A' for Active; 'I' for Inactive)
    1  A    between atoms: N_2  and  C_4
    2  A    between atoms: C_4  and  C_15
    3  A    between atoms: C_7  and  C_9
    4  A    between atoms: C_15  and  C_26
                            x       y       z     vdW  Elec       q    Type
                         _______ _______ _______ _____ _____    ______ ____

>  <TORSDO>
F 4

$$$$
=
 OpenBabel10232410023D

 26 30  0  0  1  0  0  0  0  0999 V2000
  187.5930  177.8490  141.4210 C   0  0  2  0  0  3  0  0  0  0  0  0
  189.4900  178.5610  138.2910 N   0  0  0  0  0  2  0  0  0  0  0  0
  183.3810  178.5520  142.1340 C   0  0  0  0  0  0  0  0  0  0  0  0
  184.7780  178.3520  141.9200 N   0  0  0  0  0  2  0  0  0  0  0  0
  189.3850  178.4150  142.9660 C   0  0  2  0  0  3  0  0  0  0  0  0
  182.4700  178.8440  140.9710 C   0  0  1  0  0  3  0  0  0  0  0  0
  188.6170  178.8600  141.7930 N   0  0  1  0  0  0  0  0  0  0  0  0
  190.1540  177.1150  142.7490 C   0  0  1  0  0  3  0  0  0  0  0  0
  184.4800  179.2060  139.6020 C   0  0  0  0  0  3  0  0  0  0  0  0
  188.8610  177.9160  140.6950 C   0  0  2  0  0  0  0  0  0  0  0  0
  188.9540  176.9280  144.8290 C   0  0  0  0  0  2  0  0  0  0  0  0
  185.3460  178.6280  140.6400 C   0  0  0  0  0  0  0  0  0  0  0  0
  187.2760  178.6850  139.1710 N   0  0  0  0  0  0  0  0  0  0  0  0
  186.6450  178.4130  140.4140 C   0  0  0  0  0  0  0  0  0  0  0  0
  183.1980  179.3220  139.7880 N   0  0  0  0  0  0  0  0  0  0  0  0
  182.9060  178.4440  143.2940 O   0  0  0  0  0  0  0  0  0  0  0  0
  188.5210  178.3910  139.3250 C   0  0  0  0  0  0  0  0  0  0  0  0
  189.5570  176.1080  143.7080 C   0  0  0  0  0  2  0  0  0  0  0  0
  188.4990  178.2220  144.1890 C   0  0  0  0  0  2  0  0  0  0  0  0
  189.9740  176.5380  141.0430 S   0  0  0  0  0  0  0  0  0  0  0  0
  181.7100  177.6390  140.6220 C   0  0  0  0  0  0  0  0  0  0  0  0
  181.1110  176.6890  140.3460 N   0  0  0  0  0  0  0  0  0  0  0  0
  189.1310  179.0490  136.9710 C   0  0  0  0  0  2  0  0  0  0  0  0
  188.9750  177.8770  136.0240 C   0  0  0  0  0  2  0  0  0  0  0  0
  186.4570  177.6290  135.3430 N   0  0  0  0  0  0  0  0  0  0  0  0
  187.5690  177.7390  135.6440 C   0  0  0  0  0  0  0  0  0  0  0  0
  1 14  1  6  0  0  0
  1  7  1  0  0  0  0
  2 17  1  0  0  0  0
  3 16  2  0  0  0  0
  4  3  1  0  0  0  0
  5 19  1  1  0  0  0
  6 21  1  6  0  0  0
  6  3  1  0  0  0  0
  7  5  1  0  0  0  0
  8  5  1  0  0  0  0
  8 18  1  0  0  0  0
  9 15  2  0  0  0  0
  9 12  1  0  0  0  0
 10 20  1  0  0  0  0
 10  1  1  0  0  0  0
 10  7  1  0  0  0  0
 12  4  1  0  0  0  0
 13 17  2  0  0  0  0
 13 14  1  0  0  0  0
 14 12  2  0  0  0  0
 15  6  1  0  0  0  0
 17 10  1  0  0  0  0
 18 11  1  0  0  0  0
 19 11  1  0  0  0  0
 20  8  1  0  0  0  0
 22 21  3  0  0  0  0
 23  2  1  0  0  0  0
 24 23  1  0  0  0  0
 25 26  3  0  0  0  0
 26 24  1  0  0  0  0
M  END
>  <MODEL>
5

>  <REMARK>
 VINA RESULT:      -5.8      3.269      7.117
  Name = 
  4 active torsions:
  status: ('A' for Active; 'I' for Inactive)
    1  A    between atoms: N_2  and  C_4
    2  A    between atoms: C_4  and  C_15
    3  A    between atoms: C_7  and  C_9
    4  A    between atoms: C_15  and  C_26
                            x       y       z     vdW  Elec       q    Type
                         _______ _______ _______ _____ _____    ______ ____

>  <TORSDO>
F 4

$$$$
=
 OpenBabel10232410023D

 26 30  0  0  1  0  0  0  0  0999 V2000
  187.3950  177.6190  137.9140 C   0  0  2  0  0  3  0  0  0  0  0  0
  183.9390  178.8040  138.6530 N   0  0  0  0  0  2  0  0  0  0  0  0
  190.7500  177.4980  140.6480 C   0  0  0  0  0  0  0  0  0  0  0  0
  189.6600  177.5700  139.7310 N   0  0  0  0  0  2  0  0  0  0  0  0
  187.4870  178.4410  135.6270 C   0  0  2  0  0  3  0  0  0  0  0  0
  190.5100  177.6650  142.1250 C   0  0  1  0  0  3  0  0  0  0  0  0
  187.1710  178.7860  137.0210 N   0  0  1  0  0  0  0  0  0  0  0  0
  186.6280  177.3160  135.0540 C   0  0  1  0  0  3  0  0  0  0  0  0
  188.2470  178.4520  141.5780 C   0  0  0  0  0  3  0  0  0  0  0  0
  186.0450  177.9510  137.4600 C   0  0  2  0  0  0  0  0  0  0  0  0
  188.9300  176.8200  134.5500 C   0  0  0  0  0  2  0  0  0  0  0  0
  188.3770  178.0000  140.1860 C   0  0  0  0  0  0  0  0  0  0  0  0
  186.0430  178.4780  139.7300 N   0  0  0  0  0  0  0  0  0  0  0  0
  187.3380  178.0400  139.3470 C   0  0  0  0  0  0  0  0  0  0  0  0
  189.2290  178.3200  142.4200 N   0  0  0  0  0  0  0  0  0  0  0  0
  191.9090  177.2540  140.2220 O   0  0  0  0  0  0  0  0  0  0  0  0
  185.3110  178.4130  138.6710 C   0  0  0  0  0  0  0  0  0  0  0  0
  187.5760  176.1750  134.7510 C   0  0  0  0  0  2  0  0  0  0  0  0
  188.9440  178.0340  135.4550 C   0  0  0  0  0  2  0  0  0  0  0  0
  185.3770  176.7900  136.2510 S   0  0  0  0  0  0  0  0  0  0  0  0
  190.5520  176.3570  142.7860 C   0  0  0  0  0  0  0  0  0  0  0  0
  190.5850  175.3240  143.3070 N   0  0  0  0  0  0  0  0  0  0  0  0
  183.2560  179.2730  139.8470 C   0  0  0  0  0  2  0  0  0  0  0  0
  181.7860  179.4750  139.5420 C   0  0  0  0  0  2  0  0  0  0  0  0
  181.4800  181.6400  138.0980 N   0  0  0  0  0  0  0  0  0  0  0  0
  181.6150  180.6840  138.7360 C   0  0  0  0  0  0  0  0  0  0  0  0
  1 14  1  1  0  0  0
  2 17  1  0  0  0  0
  2 23  1  0  0  0  0
  3  6  1  0  0  0  0
  4 12  1  0  0  0  0
  4  3  1  0  0  0  0
  5 19  1  1  0  0  0
  5  7  1  0  0  0  0
  6 15  1  0  0  0  0
  6 21  1  1  0  0  0
  7 10  1  0  0  0  0
  7  1  1  0  0  0  0
  8  5  1  0  0  0  0
  8 20  1  0  0  0  0
  9 15  2  0  0  0  0
 10  1  1  0  0  0  0
 10 17  1  0  0  0  0
 11 18  1  0  0  0  0
 11 19  1  0  0  0  0
 12  9  1  0  0  0  0
 14 13  1  0  0  0  0
 14 12  2  0  0  0  0
 16  3  2  0  0  0  0
 17 13  2  0  0  0  0
 18  8  1  0  0  0  0
 20 10  1  0  0  0  0
 21 22  3  0  0  0  0
 24 23  1  0  0  0  0
 25 26  3  0  0  0  0
 26 24  1  0  0  0  0
M  END
>  <MODEL>
6

>  <REMARK>
 VINA RESULT:      -5.8      3.397      7.271
  Name = 
  4 active torsions:
  status: ('A' for Active; 'I' for Inactive)
    1  A    between atoms: N_2  and  C_4
    2  A    between atoms: C_4  and  C_15
    3  A    between atoms: C_7  and  C_9
    4  A    between atoms: C_15  and  C_26
                            x       y       z     vdW  Elec       q    Type
                         _______ _______ _______ _____ _____    ______ ____

>  <TORSDO>
F 4

$$$$
=
 OpenBabel10232410023D

 26 30  0  0  1  0  0  0  0  0999 V2000
  190.9420  175.8410  137.8200 C   0  0  2  0  0  3  0  0  0  0  0  0
  188.7620  176.8430  134.9670 N   0  0  0  0  0  2  0  0  0  0  0  0
  190.6190  177.1500  141.9340 C   0  0  0  0  0  0  0  0  0  0  0  0
  190.7550  176.7430  140.5730 N   0  0  0  0  0  2  0  0  0  0  0  0
  193.0150  175.7150  136.5540 C   0  0  2  0  0  3  0  0  0  0  0  0
  189.3680  177.8500  142.3940 C   0  0  1  0  0  3  0  0  0  0  0  0
  191.8350  176.5380  136.8580 N   0  0  1  0  0  0  0  0  0  0  0  0
  192.6870  174.3710  135.9070 C   0  0  1  0  0  3  0  0  0  0  0  0
  188.7540  178.1170  140.0280 C   0  0  0  0  0  3  0  0  0  0  0  0
  190.6400  175.8240  136.3890 C   0  0  2  0  0  0  0  0  0  0  0  0
  194.2280  173.9680  137.7140 C   0  0  0  0  0  2  0  0  0  0  0  0
  189.8020  177.1770  139.6040 C   0  0  0  0  0  0  0  0  0  0  0  0
  188.9940  177.1870  137.3160 N   0  0  0  0  0  0  0  0  0  0  0  0
  189.8960  176.7770  138.3330 C   0  0  0  0  0  0  0  0  0  0  0  0
  188.6010  178.4280  141.2810 N   0  0  0  0  0  0  0  0  0  0  0  0
  191.5310  176.8850  142.7590 O   0  0  0  0  0  0  0  0  0  0  0  0
  189.4040  176.6390  136.2250 C   0  0  0  0  0  0  0  0  0  0  0  0
  193.1440  173.3110  136.8860 C   0  0  0  0  0  2  0  0  0  0  0  0
  193.8500  175.4320  137.7950 C   0  0  0  0  0  2  0  0  0  0  0  0
  190.9090  174.2200  135.6060 S   0  0  0  0  0  0  0  0  0  0  0  0
  188.5180  176.9140  143.1360 C   0  0  0  0  0  0  0  0  0  0  0  0
  187.8480  176.1750  143.7230 N   0  0  0  0  0  0  0  0  0  0  0  0
  187.5700  177.6630  134.8350 C   0  0  0  0  0  2  0  0  0  0  0  0
  186.3400  176.7810  134.8960 C   0  0  0  0  0  2  0  0  0  0  0  0
  185.0370  177.2460  137.1210 N   0  0  0  0  0  0  0  0  0  0  0  0
  185.6130  177.0400  136.1380 C   0  0  0  0  0  0  0  0  0  0  0  0
  1 14  1  1  0  0  0
  2 17  1  0  0  0  0
  3  6  1  0  0  0  0
  3 16  2  0  0  0  0
  4  3  1  0  0  0  0
  5  7  1  0  0  0  0
  5 19  1  1  0  0  0
  6 21  1  6  0  0  0
  7  1  1  0  0  0  0
  8  5  1  0  0  0  0
  8 18  1  0  0  0  0
  9 15  2  0  0  0  0
 10  7  1  0  0  0  0
 10  1  1  0  0  0  0
 11 19  1  0  0  0  0
 12  9  1  0  0  0  0
 12  4  1  0  0  0  0
 13 14  1  0  0  0  0
 14 12  2  0  0  0  0
 15  6  1  0  0  0  0
 17 10  1  0  0  0  0
 17 13  2  0  0  0  0
 18 11  1  0  0  0  0
 20  8  1  0  0  0  0
 20 10  1  0  0  0  0
 21 22  3  0  0  0  0
 23 24  1  0  0  0  0
 23  2  1  0  0  0  0
 24 26  1  0  0  0  0
 26 25  3  0  0  0  0
M  END
>  <MODEL>
7

>  <REMARK>
 VINA RESULT:      -5.6      3.666      8.236
  Name = 
  4 active torsions:
  status: ('A' for Active; 'I' for Inactive)
    1  A    between atoms: N_2  and  C_4
    2  A    between atoms: C_4  and  C_15
    3  A    between atoms: C_7  and  C_9
    4  A    between atoms: C_15  and  C_26
                            x       y       z     vdW  Elec       q    Type
                         _______ _______ _______ _____ _____    ______ ____

>  <TORSDO>
F 4

$$$$
=
 OpenBabel10232410023D

 26 30  0  0  1  0  0  0  0  0999 V2000
  188.5260  177.0510  139.5550 C   0  0  2  0  0  3  0  0  0  0  0  0
  192.2090  176.8640  139.0100 N   0  0  0  0  0  2  0  0  0  0  0  0
  185.4300  176.8360  136.5380 C   0  0  0  0  0  0  0  0  0  0  0  0
  186.4450  176.9460  137.5340 N   0  0  0  0  0  2  0  0  0  0  0  0
  188.5970  178.6680  141.3710 C   0  0  2  0  0  3  0  0  0  0  0  0
  185.7750  176.3590  135.1520 C   0  0  1  0  0  3  0  0  0  0  0  0
  189.0670  178.3580  140.0130 N   0  0  1  0  0  0  0  0  0  0  0  0
  189.0310  177.6530  142.4270 C   0  0  1  0  0  3  0  0  0  0  0  0
  188.1450  176.6370  135.7440 C   0  0  0  0  0  3  0  0  0  0  0  0
  189.8900  177.1440  140.0740 C   0  0  2  0  0  0  0  0  0  0  0  0
  186.6690  178.0420  142.7000 C   0  0  0  0  0  2  0  0  0  0  0  0
  187.8170  176.8010  137.1680 C   0  0  0  0  0  0  0  0  0  0  0  0
  190.1600  176.7500  137.7940 N   0  0  0  0  0  0  0  0  0  0  0  0
  188.7770  176.8660  138.0940 C   0  0  0  0  0  0  0  0  0  0  0  0
  187.2100  176.4730  134.8550 N   0  0  0  0  0  0  0  0  0  0  0  0
  184.2350  177.1020  136.8320 O   0  0  0  0  0  0  0  0  0  0  0  0
  190.7860  176.8920  138.9110 C   0  0  0  0  0  0  0  0  0  0  0  0
  187.7590  177.0220  142.9510 C   0  0  0  0  0  2  0  0  0  0  0  0
  187.0800  178.7760  141.4400 C   0  0  0  0  0  2  0  0  0  0  0  0
  190.1040  176.3910  141.7000 S   0  0  0  0  0  0  0  0  0  0  0  0
  185.3530  174.9650  134.9870 C   0  0  0  0  0  0  0  0  0  0  0  0
  185.0190  173.8650  134.8580 N   0  0  0  0  0  0  0  0  0  0  0  0
  193.0580  176.6390  137.8520 C   0  0  0  0  0  2  0  0  0  0  0  0
  193.3750  175.1630  137.7370 C   0  0  0  0  0  2  0  0  0  0  0  0
  195.7180  174.6830  138.8080 N   0  0  0  0  0  0  0  0  0  0  0  0
  194.6830  174.8950  138.3350 C   0  0  0  0  0  0  0  0  0  0  0  0
  1 14  1  6  0  0  0
  1  7  1  0  0  0  0
  1 10  1  0  0  0  0
  3 16  2  0  0  0  0
  3  4  1  0  0  0  0
  5 19  1  6  0  0  0
  5  8  1  0  0  0  0
  6 21  1  1  0  0  0
  6  3  1  0  0  0  0
  7 10  1  0  0  0  0
  7  5  1  0  0  0  0
  8 18  1  0  0  0  0
  9 12  1  0  0  0  0
 10 20  1  0  0  0  0
 11 18  1  0  0  0  0
 12  4  1  0  0  0  0
 12 14  2  0  0  0  0
 13 14  1  0  0  0  0
 13 17  2  0  0  0  0
 15  6  1  0  0  0  0
 15  9  2  0  0  0  0
 17  2  1  0  0  0  0
 17 10  1  0  0  0  0
 19 11  1  0  0  0  0
 20  8  1  0  0  0  0
 22 21  3  0  0  0  0
 23  2  1  0  0  0  0
 24 23  1  0  0  0  0
 24 26  1  0  0  0  0
 26 25  3  0  0  0  0
M  END
>  <MODEL>
8

>  <REMARK>
 VINA RESULT:      -5.6      3.086      4.986
  Name = 
  4 active torsions:
  status: ('A' for Active; 'I' for Inactive)
    1  A    between atoms: N_2  and  C_4
    2  A    between atoms: C_4  and  C_15
    3  A    between atoms: C_7  and  C_9
    4  A    between atoms: C_15  and  C_26
                            x       y       z     vdW  Elec       q    Type
                         _______ _______ _______ _____ _____    ______ ____

>  <TORSDO>
F 4

$$$$
=
 OpenBabel10232410023D

 26 30  0  0  1  0  0  0  0  0999 V2000
  189.4450  177.0650  138.2330 C   0  0  2  0  0  3  0  0  0  0  0  0
  192.4340  175.7610  136.4260 N   0  0  0  0  0  2  0  0  0  0  0  0
  188.9970  177.5630  142.5100 C   0  0  0  0  0  0  0  0  0  0  0  0
  189.1220  177.3670  141.1030 N   0  0  0  0  0  2  0  0  0  0  0  0
  187.7790  176.0800  136.7600 C   0  0  2  0  0  3  0  0  0  0  0  0
  190.2110  177.4950  143.3970 C   0  0  1  0  0  3  0  0  0  0  0  0
  188.9920  175.8240  137.5510 N   0  0  1  0  0  0  0  0  0  0  0  0
  187.9650  177.1130  135.6510 C   0  0  1  0  0  3  0  0  0  0  0  0
  191.4410  176.5530  141.4880 C   0  0  0  0  0  3  0  0  0  0  0  0
  190.0860  176.6300  136.9930 C   0  0  2  0  0  0  0  0  0  0  0  0
  185.9700  177.6880  136.8720 C   0  0  0  0  0  2  0  0  0  0  0  0
  190.3590  176.9050  140.5580 C   0  0  0  0  0  0  0  0  0  0  0  0
  191.6980  176.2750  138.6360 N   0  0  0  0  0  0  0  0  0  0  0  0
  190.5030  176.7490  139.2400 C   0  0  0  0  0  0  0  0  0  0  0  0
  191.3380  176.7980  142.7610 N   0  0  0  0  0  0  0  0  0  0  0  0
  187.8710  177.8340  143.0040 O   0  0  0  0  0  0  0  0  0  0  0  0
  191.4680  176.2220  137.3700 C   0  0  0  0  0  0  0  0  0  0  0  0
  187.0610  178.2750  136.0030 C   0  0  0  0  0  2  0  0  0  0  0  0
  186.6190  176.5470  137.6280 C   0  0  0  0  0  2  0  0  0  0  0  0
  189.6870  177.6620  135.5660 S   0  0  0  0  0  0  0  0  0  0  0  0
  190.6270  178.8490  143.7750 C   0  0  0  0  0  0  0  0  0  0  0  0
  190.9560  179.9180  144.0730 N   0  0  0  0  0  0  0  0  0  0  0  0
  193.7670  175.3470  136.8280 C   0  0  0  0  0  2  0  0  0  0  0  0
  193.7870  173.8490  137.0470 C   0  0  0  0  0  2  0  0  0  0  0  0
  195.4980  173.2620  138.9420 N   0  0  0  0  0  0  0  0  0  0  0  0
  194.7420  173.5210  138.1050 C   0  0  0  0  0  0  0  0  0  0  0  0
  1 14  1  1  0  0  0
  2 23  1  0  0  0  0
  2 17  1  0  0  0  0
  3 16  2  0  0  0  0
  3  6  1  0  0  0  0
  4  3  1  0  0  0  0
  5  7  1  0  0  0  0
  5 19  1  1  0  0  0
  6 21  1  6  0  0  0
  7  1  1  0  0  0  0
  8 18  1  0  0  0  0
  8  5  1  0  0  0  0
  9 15  2  0  0  0  0
 10 17  1  0  0  0  0
 10  7  1  0  0  0  0
 10  1  1  0  0  0  0
 11 19  1  0  0  0  0
 12  4  1  0  0  0  0
 12  9  1  0  0  0  0
 13 14  1  0  0  0  0
 14 12  2  0  0  0  0
 15  6  1  0  0  0  0
 17 13  2  0  0  0  0
 18 11  1  0  0  0  0
 20  8  1  0  0  0  0
 20 10  1  0  0  0  0
 21 22  3  0  0  0  0
 23 24  1  0  0  0  0
 24 26  1  0  0  0  0
 26 25  3  0  0  0  0
M  END
>  <MODEL>
9

>  <REMARK>
 VINA RESULT:      -5.5      3.359      6.602
  Name = 
  4 active torsions:
  status: ('A' for Active; 'I' for Inactive)
    1  A    between atoms: N_2  and  C_4
    2  A    between atoms: C_4  and  C_15
    3  A    between atoms: C_7  and  C_9
    4  A    between atoms: C_15  and  C_26
                            x       y       z     vdW  Elec       q    Type
                         _______ _______ _______ _____ _____    ______ ____

>  <TORSDO>
F 4

$$$$
