=
 OpenBabel10232410413D

 50 54  0  0  1  0  0  0  0  0999 V2000
  189.7290  176.0280  138.3450 C   0  0  2  0  0  3  0  0  0  0  0  0
  189.2830  178.3380  139.4040 C   0  0  2  0  0  3  0  0  0  0  0  0
  189.4520  176.8980  137.1210 C   0  0  2  0  0  3  0  0  0  0  0  0
  189.0420  178.6080  137.6200 S   0  0  0  0  0  0  0  0  0  0  0  0
  190.5040  177.0280  139.6450 S   0  0  0  0  0  0  0  0  0  0  0  0
  191.9790  175.1110  137.6400 C   0  0  0  0  0  0  0  0  0  0  0  0
  192.8280  176.5410  137.6890 S   0  0  0  0  0  0  0  0  0  0  0  0
  194.3190  175.9030  137.3210 N   0  0  0  0  0  0  0  0  0  0  0  0
  194.1030  174.5670  137.1600 C   0  0  0  0  0  0  0  0  0  0  0  0
  192.8270  174.1030  137.3570 N   0  0  0  0  0  0  0  0  0  0  0  0
  190.6060  174.9220  137.9820 N   0  0  0  0  0  2  0  0  0  0  0  0
  195.2320  173.6420  136.8890 C   0  0  0  0  0  2  0  0  0  0  0  0
  196.1730  174.2580  135.8620 C   0  0  0  0  0  2  0  0  0  0  0  0
  197.5980  176.0320  136.6480 O   0  0  0  0  0  1  0  0  0  0  0  0
  197.5360  174.6480  136.4570 C   0  0  2  0  0  0  0  0  0  0  0  0
  198.6390  174.2440  135.4790 C   0  0  0  0  0  2  0  0  0  0  0  0
  199.6260  175.2300  135.4100 O   0  0  0  0  0  1  0  0  0  0  0  0
  198.6550  172.8640  137.6480 O   0  0  0  0  0  1  0  0  0  0  0  0
  197.7870  173.9490  137.8050 C   0  0  1  0  0  3  0  0  0  0  0  0
  198.3200  174.8960  138.8730 C   0  0  0  0  0  2  0  0  0  0  0  0
  199.8080  174.6870  139.0540 C   0  0  0  0  0  1  0  0  0  0  0  0
  188.7130  175.8370  135.0940 O   0  0  0  0  0  0  0  0  0  0  0  0
  188.3880  176.3010  136.2250 C   0  0  0  0  0  0  0  0  0  0  0  0
  186.9600  176.3030  136.6010 C   0  0  0  0  0  0  0  0  0  0  0  0
  186.1020  177.3870  136.6090 C   0  0  0  0  0  3  0  0  0  0  0  0
  184.9100  176.8520  137.0560 C   0  0  0  0  0  0  0  0  0  0  0  0
  186.2520  175.1900  137.0210 C   0  0  0  0  0  3  0  0  0  0  0  0
  185.0220  175.5670  137.2800 O   0  0  0  0  0  0  0  0  0  0  0  0
  183.6560  177.6270  137.2860 C   0  0  0  0  0  2  0  0  0  0  0  0
  183.6620  178.3320  138.6360 C   0  0  0  0  0  0  0  0  0  0  0  0
  184.2200  177.4840  139.5790 F   0  0  0  0  0  0  0  0  0  0  0  0
  184.4190  179.4890  138.5660 F   0  0  0  0  0  0  0  0  0  0  0  0
  182.3710  178.6500  139.0190 F   0  0  0  0  0  0  0  0  0  0  0  0
  187.9680  177.9840  140.0880 C   0  0  0  0  0  2  0  0  0  0  0  0
  189.0800  177.2470  142.1330 N   0  0  0  0  0  2  0  0  0  0  0  0
  186.9230  178.2380  143.7730 C   0  0  2  0  0  3  0  0  0  0  0  0
  189.9980  176.1420  143.9600 O   0  0  0  0  0  0  0  0  0  0  0  0
  186.7600  177.9350  142.2840 C   0  0  0  0  0  2  0  0  0  0  0  0
  188.0930  178.1700  141.5940 C   0  0  2  0  0  3  0  0  0  0  0  0
  187.9660  177.3130  144.4380 C   0  0  1  0  0  3  0  0  0  0  0  0
  189.0880  176.8920  143.5220 C   0  0  0  0  0  0  0  0  0  0  0  0
  184.7760  179.3430  144.4050 C   0  0  0  0  0  2  0  0  0  0  0  0
  185.5160  179.0100  145.5510 O   0  0  0  0  0  0  0  0  0  0  0  0
  185.5730  178.0920  144.4810 C   0  0  2  0  0  3  0  0  0  0  0  0
  188.5500  177.9530  145.6960 C   0  0  0  0  0  2  0  0  0  0  0  0
  188.7540  176.9520  146.8180 C   0  0  0  0  0  2  0  0  0  0  0  0
  189.9760  177.3160  147.6490 C   0  0  0  0  0  2  0  0  0  0  0  0
  191.9310  177.2010  146.0870 O   0  0  0  0  0  0  0  0  0  0  0  0
  191.1810  176.6190  147.1190 C   0  0  0  0  0  0  0  0  0  0  0  0
  191.5510  175.5310  147.6330 O   0  0  0  0  0  1  0  0  0  0  0  0
  1 11  1  6  0  0  0
  1  5  1  0  0  0  0
  2  5  1  0  0  0  0
  2 34  1  6  0  0  0
  3 23  1  1  0  0  0
  3  4  1  0  0  0  0
  3  1  1  0  0  0  0
  4  2  1  0  0  0  0
  6  7  1  0  0  0  0
  6 11  1  0  0  0  0
  8  7  1  0  0  0  0
  9  8  2  0  0  0  0
  9 10  1  0  0  0  0
 10  6  2  0  0  0  0
 12  9  1  0  0  0  0
 13 15  1  0  0  0  0
 13 12  1  0  0  0  0
 15 14  1  1  0  0  0
 15 19  1  0  0  0  0
 16 15  1  0  0  0  0
 17 16  1  0  0  0  0
 19 18  1  6  0  0  0
 19 20  1  0  0  0  0
 20 21  1  0  0  0  0
 22 23  2  0  0  0  0
 23 24  1  0  0  0  0
 24 25  1  0  0  0  0
 24 27  2  0  0  0  0
 25 26  2  0  0  0  0
 26 28  1  0  0  0  0
 26 29  1  0  0  0  0
 27 28  1  0  0  0  0
 29 30  1  0  0  0  0
 30 33  1  0  0  0  0
 30 31  1  0  0  0  0
 32 30  1  0  0  0  0
 35 41  1  0  0  0  0
 36 38  1  6  0  0  0
 36 40  1  0  0  0  0
 36 44  1  0  0  0  0
 39 34  1  6  0  0  0
 39 35  1  0  0  0  0
 39 38  1  0  0  0  0
 40 45  1  1  0  0  0
 41 37  2  0  0  0  0
 41 40  1  0  0  0  0
 42 43  1  0  0  0  0
 44 42  1  6  0  0  0
 44 43  1  0  0  0  0
 45 46  1  0  0  0  0
 46 47  1  0  0  0  0
 48 49  2  0  0  0  0
 49 50  1  0  0  0  0
 49 47  1  0  0  0  0
M  END
>  <MODEL>
1

>  <REMARK>
 VINA RESULT:      -7.8      0.000      0.000
  Name = 
  18 active torsions:
  status: ('A' for Active; 'I' for Inactive)
    1  A    between atoms: C_2  and  N_40
    2  A    between atoms: C_3  and  C_25
    3  A    between atoms: C_3  and  C_44
    4  A    between atoms: C_4  and  C_19
    5  A    between atoms: C_4  and  C_35
    6  A    between atoms: C_7  and  C_9
    7  A    between atoms: C_7  and  C_43
    8  A    between atoms: C_10  and  C_17
    9  A    between atoms: C_11  and  C_46
   10  A    between atoms: C_12  and  C_35
   11  A    between atoms: C_13  and  C_37
   12  A    between atoms: C_13  and  C_44
   13  A    between atoms: C_17  and  C_38
   14  A    between atoms: C_18  and  C_44
   15  A    between atoms: C_19  and  C_39
   16  A    between atoms: C_21  and  C_48
   17  A    between atoms: C_24  and  C_48
   18  A    between atoms: C_25  and  C_33
                            x       y       z     vdW  Elec       q    Type
                         _______ _______ _______ _____ _____    ______ ____

>  <TORSDO>
F 18

$$$$
=
 OpenBabel10232410413D

 50 54  0  0  1  0  0  0  0  0999 V2000
  189.4370  176.2290  138.1490 C   0  0  2  0  0  3  0  0  0  0  0  0
  189.0100  178.6050  139.0600 C   0  0  2  0  0  3  0  0  0  0  0  0
  189.2690  177.0430  136.8680 C   0  0  2  0  0  3  0  0  0  0  0  0
  188.8910  178.7890  137.2520 S   0  0  0  0  0  0  0  0  0  0  0  0
  190.1660  177.2700  139.4440 S   0  0  0  0  0  0  0  0  0  0  0  0
  191.7030  175.1970  137.7000 C   0  0  0  0  0  0  0  0  0  0  0  0
  192.6080  176.5890  137.8150 S   0  0  0  0  0  0  0  0  0  0  0  0
  194.0980  175.8760  137.6170 N   0  0  0  0  0  0  0  0  0  0  0  0
  193.8380  174.5480  137.4550 C   0  0  0  0  0  0  0  0  0  0  0  0
  192.5280  174.1460  137.5250 N   0  0  0  0  0  0  0  0  0  0  0  0
  190.2950  175.0780  137.8990 N   0  0  0  0  0  2  0  0  0  0  0  0
  194.9440  173.5680  137.3200 C   0  0  0  0  0  2  0  0  0  0  0  0
  195.8880  173.6830  138.5100 C   0  0  0  0  0  2  0  0  0  0  0  0
  197.1460  175.2420  137.1740 O   0  0  0  0  0  1  0  0  0  0  0  0
  197.2750  174.2230  138.1250 C   0  0  2  0  0  0  0  0  0  0  0  0
  198.0980  173.0910  137.5120 C   0  0  0  0  0  2  0  0  0  0  0  0
  199.1100  173.5990  136.6950 O   0  0  0  0  0  1  0  0  0  0  0  0
  198.7620  175.9160  139.0040 O   0  0  0  0  0  1  0  0  0  0  0  0
  198.0270  174.7780  139.3470 C   0  0  1  0  0  3  0  0  0  0  0  0
  197.1060  175.0830  140.5230 C   0  0  0  0  0  2  0  0  0  0  0  0
  197.9240  175.5170  141.7200 C   0  0  0  0  0  1  0  0  0  0  0  0
  188.3680  176.5830  134.6870 O   0  0  0  0  0  0  0  0  0  0  0  0
  188.2420  176.4350  135.9360 C   0  0  0  0  0  0  0  0  0  0  0  0
  187.0510  175.7250  136.4450 C   0  0  0  0  0  0  0  0  0  0  0  0
  186.9620  174.3900  136.7930 C   0  0  0  0  0  3  0  0  0  0  0  0
  185.6440  174.2440  137.1780 C   0  0  0  0  0  0  0  0  0  0  0  0
  185.8120  176.3070  136.6480 C   0  0  0  0  0  3  0  0  0  0  0  0
  184.9970  175.3790  137.0930 O   0  0  0  0  0  0  0  0  0  0  0  0
  185.0150  172.9620  137.6100 C   0  0  0  0  0  2  0  0  0  0  0  0
  184.7130  172.0490  136.4280 C   0  0  0  0  0  0  0  0  0  0  0  0
  183.7950  171.0920  136.8270 F   0  0  0  0  0  0  0  0  0  0  0  0
  184.1750  172.7840  135.3850 F   0  0  0  0  0  0  0  0  0  0  0  0
  185.8690  171.4190  135.9990 F   0  0  0  0  0  0  0  0  0  0  0  0
  187.6430  178.3310  139.6750 C   0  0  0  0  0  2  0  0  0  0  0  0
  188.4950  177.0520  141.5730 N   0  0  0  0  0  2  0  0  0  0  0  0
  186.5600  178.2360  143.3560 C   0  0  2  0  0  3  0  0  0  0  0  0
  189.0830  175.4980  143.1970 O   0  0  0  0  0  0  0  0  0  0  0  0
  186.3830  178.2140  141.8390 C   0  0  0  0  0  2  0  0  0  0  0  0
  187.7570  178.2470  141.1900 C   0  0  2  0  0  3  0  0  0  0  0  0
  187.3480  177.0070  143.8620 C   0  0  1  0  0  3  0  0  0  0  0  0
  188.3780  176.4920  142.8870 C   0  0  0  0  0  0  0  0  0  0  0  0
  184.6490  179.6720  144.0720 C   0  0  0  0  0  2  0  0  0  0  0  0
  185.2810  179.1000  145.1880 O   0  0  0  0  0  0  0  0  0  0  0  0
  185.1900  178.2890  144.0370 C   0  0  2  0  0  3  0  0  0  0  0  0
  188.0190  177.2950  145.2040 C   0  0  0  0  0  2  0  0  0  0  0  0
  189.3630  177.9840  145.0480 C   0  0  0  0  0  2  0  0  0  0  0  0
  190.2070  177.8050  146.3010 C   0  0  0  0  0  2  0  0  0  0  0  0
  192.1790  176.4580  147.0580 O   0  0  0  0  0  1  0  0  0  0  0  0
  191.3790  176.9340  146.0080 C   0  0  0  0  0  0  0  0  0  0  0  0
  191.6210  176.5870  144.8220 O   0  0  0  0  0  0  0  0  0  0  0  0
  1 11  1  6  0  0  0
  1  5  1  0  0  0  0
  2  5  1  0  0  0  0
  2 34  1  6  0  0  0
  3 23  1  6  0  0  0
  3  4  1  0  0  0  0
  3  1  1  0  0  0  0
  4  2  1  0  0  0  0
  6  7  1  0  0  0  0
  6 11  1  0  0  0  0
  8  7  1  0  0  0  0
  9 10  1  0  0  0  0
  9  8  2  0  0  0  0
 10  6  2  0  0  0  0
 12  9  1  0  0  0  0
 12 13  1  0  0  0  0
 15 14  1  6  0  0  0
 15 13  1  0  0  0  0
 15 19  1  0  0  0  0
 16 15  1  0  0  0  0
 17 16  1  0  0  0  0
 19 18  1  6  0  0  0
 19 20  1  0  0  0  0
 20 21  1  0  0  0  0
 22 23  2  0  0  0  0
 23 24  1  0  0  0  0
 24 27  2  0  0  0  0
 24 25  1  0  0  0  0
 25 26  2  0  0  0  0
 26 29  1  0  0  0  0
 27 28  1  0  0  0  0
 28 26  1  0  0  0  0
 30 31  1  0  0  0  0
 30 29  1  0  0  0  0
 32 30  1  0  0  0  0
 33 30  1  0  0  0  0
 35 41  1  0  0  0  0
 36 38  1  6  0  0  0
 36 40  1  0  0  0  0
 36 44  1  0  0  0  0
 39 34  1  6  0  0  0
 39 35  1  0  0  0  0
 39 38  1  0  0  0  0
 40 45  1  1  0  0  0
 41 37  2  0  0  0  0
 41 40  1  0  0  0  0
 42 43  1  0  0  0  0
 44 42  1  6  0  0  0
 44 43  1  0  0  0  0
 46 45  1  0  0  0  0
 46 47  1  0  0  0  0
 49 47  1  0  0  0  0
 49 48  1  0  0  0  0
 50 49  2  0  0  0  0
M  END
>  <MODEL>
2

>  <REMARK>
 VINA RESULT:      -7.8      2.067      2.633
  Name = 
  18 active torsions:
  status: ('A' for Active; 'I' for Inactive)
    1  A    between atoms: C_2  and  N_40
    2  A    between atoms: C_3  and  C_25
    3  A    between atoms: C_3  and  C_44
    4  A    between atoms: C_4  and  C_19
    5  A    between atoms: C_4  and  C_35
    6  A    between atoms: C_7  and  C_9
    7  A    between atoms: C_7  and  C_43
    8  A    between atoms: C_10  and  C_17
    9  A    between atoms: C_11  and  C_46
   10  A    between atoms: C_12  and  C_35
   11  A    between atoms: C_13  and  C_37
   12  A    between atoms: C_13  and  C_44
   13  A    between atoms: C_17  and  C_38
   14  A    between atoms: C_18  and  C_44
   15  A    between atoms: C_19  and  C_39
   16  A    between atoms: C_21  and  C_48
   17  A    between atoms: C_24  and  C_48
   18  A    between atoms: C_25  and  C_33
                            x       y       z     vdW  Elec       q    Type
                         _______ _______ _______ _____ _____    ______ ____

>  <TORSDO>
F 18

$$$$
=
 OpenBabel10232410413D

 50 54  0  0  1  0  0  0  0  0999 V2000
  188.9370  177.5340  140.2600 C   0  0  2  0  0  3  0  0  0  0  0  0
  191.1580  177.2880  138.9700 C   0  0  2  0  0  3  0  0  0  0  0  0
  189.9740  177.6620  141.3720 C   0  0  2  0  0  3  0  0  0  0  0  0
  191.6660  177.4610  140.7100 S   0  0  0  0  0  0  0  0  0  0  0  0
  189.6140  178.1930  138.7110 S   0  0  0  0  0  0  0  0  0  0  0  0
  186.6220  178.4050  139.7280 C   0  0  0  0  0  0  0  0  0  0  0  0
  186.4630  177.7120  138.2240 S   0  0  0  0  0  0  0  0  0  0  0  0
  184.9030  178.2110  137.9360 N   0  0  0  0  0  0  0  0  0  0  0  0
  184.5490  178.9250  139.0420 C   0  0  0  0  0  0  0  0  0  0  0  0
  185.4690  179.0230  140.0540 N   0  0  0  0  0  0  0  0  0  0  0  0
  187.7270  178.2630  140.6200 N   0  0  0  0  0  2  0  0  0  0  0  0
  183.1790  179.4800  139.1830 C   0  0  0  0  0  2  0  0  0  0  0  0
  182.4740  178.8270  140.3640 C   0  0  0  0  0  2  0  0  0  0  0  0
  180.5830  180.0370  139.4950 O   0  0  0  0  0  1  0  0  0  0  0  0
  180.9430  178.9410  140.2850 C   0  0  2  0  0  0  0  0  0  0  0  0
  180.3860  179.1550  141.6920 C   0  0  0  0  0  2  0  0  0  0  0  0
  181.3290  178.7990  142.6590 O   0  0  0  0  0  1  0  0  0  0  0  0
  179.9820  177.8620  138.3450 O   0  0  0  0  0  1  0  0  0  0  0  0
  180.3090  177.6700  139.6900 C   0  0  1  0  0  3  0  0  0  0  0  0
  181.1940  176.4390  139.8440 C   0  0  0  0  0  2  0  0  0  0  0  0
  181.4020  175.7810  138.4970 C   0  0  0  0  0  1  0  0  0  0  0  0
  190.0980  175.5160  142.4500 O   0  0  0  0  0  0  0  0  0  0  0  0
  189.7010  176.7140  142.5210 C   0  0  0  0  0  0  0  0  0  0  0  0
  188.9200  177.1280  143.7040 C   0  0  0  0  0  0  0  0  0  0  0  0
  187.6090  176.7970  143.9940 C   0  0  0  0  0  3  0  0  0  0  0  0
  187.3670  177.4530  145.1850 C   0  0  0  0  0  0  0  0  0  0  0  0
  189.3950  177.9370  144.7210 C   0  0  0  0  0  3  0  0  0  0  0  0
  188.4280  178.1020  145.5930 O   0  0  0  0  0  0  0  0  0  0  0  0
  186.0640  177.4540  145.9120 C   0  0  0  0  0  2  0  0  0  0  0  0
  185.3670  178.8060  145.8300 C   0  0  0  0  0  0  0  0  0  0  0  0
  184.0120  178.6240  146.0510 F   0  0  0  0  0  0  0  0  0  0  0  0
  185.8710  179.6610  146.7950 F   0  0  0  0  0  0  0  0  0  0  0  0
  185.5520  179.3670  144.5770 F   0  0  0  0  0  0  0  0  0  0  0  0
  190.9960  175.8210  138.5880 C   0  0  0  0  0  2  0  0  0  0  0  0
  193.0290  176.3500  137.3430 N   0  0  0  0  0  2  0  0  0  0  0  0
  193.3690  173.5960  136.5520 C   0  0  2  0  0  3  0  0  0  0  0  0
  194.6860  177.0110  135.8540 O   0  0  0  0  0  0  0  0  0  0  0  0
  192.0300  174.1650  137.0170 C   0  0  0  0  0  2  0  0  0  0  0  0
  192.2970  175.2830  138.0100 C   0  0  2  0  0  3  0  0  0  0  0  0
  194.2310  174.6610  135.8390 C   0  0  1  0  0  3  0  0  0  0  0  0
  194.0300  176.0630  136.3580 C   0  0  0  0  0  0  0  0  0  0  0  0
  193.6590  171.1440  136.1850 C   0  0  0  0  0  2  0  0  0  0  0  0
  194.3770  171.8750  135.2250 O   0  0  0  0  0  0  0  0  0  0  0  0
  193.1310  172.4090  135.6140 C   0  0  2  0  0  3  0  0  0  0  0  0
  195.7160  174.3050  135.9030 C   0  0  0  0  0  2  0  0  0  0  0  0
  196.2300  174.2050  137.3280 C   0  0  0  0  0  2  0  0  0  0  0  0
  197.4800  173.3390  137.3880 C   0  0  0  0  0  2  0  0  0  0  0  0
  199.3360  174.7300  138.3360 O   0  0  0  0  0  1  0  0  0  0  0  0
  198.6960  174.1830  137.2140 C   0  0  0  0  0  0  0  0  0  0  0  0
  199.1730  174.3630  136.0630 O   0  0  0  0  0  0  0  0  0  0  0  0
  1 11  1  1  0  0  0
  1  3  1  0  0  0  0
  2 34  1  1  0  0  0
  2  4  1  0  0  0  0
  3 23  1  1  0  0  0
  4  3  1  0  0  0  0
  5  2  1  0  0  0  0
  5  1  1  0  0  0  0
  6 10  2  0  0  0  0
  6 11  1  0  0  0  0
  7  6  1  0  0  0  0
  8  7  1  0  0  0  0
  8  9  2  0  0  0  0
  9 12  1  0  0  0  0
  9 10  1  0  0  0  0
 12 13  1  0  0  0  0
 15 14  1  6  0  0  0
 15 13  1  0  0  0  0
 15 16  1  0  0  0  0
 16 17  1  0  0  0  0
 19 18  1  6  0  0  0
 19 20  1  0  0  0  0
 19 15  1  0  0  0  0
 21 20  1  0  0  0  0
 22 23  2  0  0  0  0
 23 24  1  0  0  0  0
 24 25  1  0  0  0  0
 24 27  2  0  0  0  0
 25 26  2  0  0  0  0
 26 28  1  0  0  0  0
 26 29  1  0  0  0  0
 27 28  1  0  0  0  0
 30 29  1  0  0  0  0
 30 31  1  0  0  0  0
 30 32  1  0  0  0  0
 33 30  1  0  0  0  0
 35 39  1  0  0  0  0
 36 38  1  6  0  0  0
 37 41  2  0  0  0  0
 38 39  1  0  0  0  0
 39 34  1  6  0  0  0
 40 45  1  1  0  0  0
 40 41  1  0  0  0  0
 40 36  1  0  0  0  0
 41 35  1  0  0  0  0
 43 44  1  0  0  0  0
 43 42  1  0  0  0  0
 44 42  1  1  0  0  0
 44 36  1  0  0  0  0
 45 46  1  0  0  0  0
 46 47  1  0  0  0  0
 49 47  1  0  0  0  0
 49 48  1  0  0  0  0
 50 49  2  0  0  0  0
M  END
>  <MODEL>
3

>  <REMARK>
 VINA RESULT:      -7.7      3.123     11.408
  Name = 
  18 active torsions:
  status: ('A' for Active; 'I' for Inactive)
    1  A    between atoms: C_2  and  N_40
    2  A    between atoms: C_3  and  C_25
    3  A    between atoms: C_3  and  C_44
    4  A    between atoms: C_4  and  C_19
    5  A    between atoms: C_4  and  C_35
    6  A    between atoms: C_7  and  C_9
    7  A    between atoms: C_7  and  C_43
    8  A    between atoms: C_10  and  C_17
    9  A    between atoms: C_11  and  C_46
   10  A    between atoms: C_12  and  C_35
   11  A    between atoms: C_13  and  C_37
   12  A    between atoms: C_13  and  C_44
   13  A    between atoms: C_17  and  C_38
   14  A    between atoms: C_18  and  C_44
   15  A    between atoms: C_19  and  C_39
   16  A    between atoms: C_21  and  C_48
   17  A    between atoms: C_24  and  C_48
   18  A    between atoms: C_25  and  C_33
                            x       y       z     vdW  Elec       q    Type
                         _______ _______ _______ _____ _____    ______ ____

>  <TORSDO>
F 18

$$$$
=
 OpenBabel10232410413D

 50 54  0  0  1  0  0  0  0  0999 V2000
  189.8580  177.0070  138.7930 C   0  0  2  0  0  3  0  0  0  0  0  0
  188.3900  177.9970  136.9170 C   0  0  2  0  0  3  0  0  0  0  0  0
  190.6880  176.7180  137.5450 C   0  0  2  0  0  3  0  0  0  0  0  0
  189.8180  177.2840  136.0410 S   0  0  0  0  0  0  0  0  0  0  0  0
  188.9140  178.5380  138.5600 S   0  0  0  0  0  0  0  0  0  0  0  0
  190.2280  177.2770  141.2810 C   0  0  0  0  0  0  0  0  0  0  0  0
  188.6330  177.2150  141.7520 S   0  0  0  0  0  0  0  0  0  0  0  0
  188.9040  177.2930  143.3910 N   0  0  0  0  0  0  0  0  0  0  0  0
  190.2580  177.3750  143.5240 C   0  0  0  0  0  0  0  0  0  0  0  0
  191.0100  177.3400  142.3770 N   0  0  0  0  0  0  0  0  0  0  0  0
  190.7310  177.1360  139.9530 N   0  0  0  0  0  2  0  0  0  0  0  0
  190.8900  177.3900  144.8670 C   0  0  0  0  0  2  0  0  0  0  0  0
  190.0420  178.2090  145.8310 C   0  0  0  0  0  2  0  0  0  0  0  0
  190.0000  178.3940  148.2310 O   0  0  0  0  0  1  0  0  0  0  0  0
  189.8070  177.4980  147.1740 C   0  0  2  0  0  0  0  0  0  0  0  0
  190.8140  176.3580  147.3160 C   0  0  0  0  0  2  0  0  0  0  0  0
  191.9950  176.8090  147.9100 O   0  0  0  0  0  1  0  0  0  0  0  0
  187.9230  176.9470  148.5870 O   0  0  0  0  0  1  0  0  0  0  0  0
  188.3850  176.9190  147.2680 C   0  0  1  0  0  3  0  0  0  0  0  0
  187.3940  177.6250  146.3500 C   0  0  0  0  0  2  0  0  0  0  0  0
  186.4030  178.4190  147.1730 C   0  0  0  0  0  1  0  0  0  0  0  0
  190.2450  174.3610  137.7200 O   0  0  0  0  0  0  0  0  0  0  0  0
  191.0900  175.2610  137.4510 C   0  0  0  0  0  0  0  0  0  0  0  0
  192.4700  174.8540  137.1170 C   0  0  0  0  0  0  0  0  0  0  0  0
  192.9680  173.5650  137.0630 C   0  0  0  0  0  3  0  0  0  0  0  0
  194.2970  173.7470  136.7310 C   0  0  0  0  0  0  0  0  0  0  0  0
  193.4990  175.7270  136.8070 C   0  0  0  0  0  3  0  0  0  0  0  0
  194.5780  175.0160  136.5780 O   0  0  0  0  0  0  0  0  0  0  0  0
  195.3010  172.6520  136.5880 C   0  0  0  0  0  2  0  0  0  0  0  0
  195.8650  172.2180  137.9360 C   0  0  0  0  0  0  0  0  0  0  0  0
  195.2930  171.0080  138.2900 F   0  0  0  0  0  0  0  0  0  0  0  0
  197.2380  172.0620  137.8490 F   0  0  0  0  0  0  0  0  0  0  0  0
  195.5710  173.1610  138.9060 F   0  0  0  0  0  0  0  0  0  0  0  0
  187.2490  176.9910  137.0160 C   0  0  0  0  0  2  0  0  0  0  0  0
  185.9530  178.5250  138.4060 N   0  0  0  0  0  2  0  0  0  0  0  0
  183.4620  177.5210  137.3520 C   0  0  2  0  0  3  0  0  0  0  0  0
  184.8130  179.7010  140.0550 O   0  0  0  0  0  0  0  0  0  0  0  0
  184.7700  176.7340  137.2790 C   0  0  0  0  0  2  0  0  0  0  0  0
  185.9240  177.7180  137.1950 C   0  0  2  0  0  3  0  0  0  0  0  0
  183.4020  178.4230  138.6040 C   0  0  1  0  0  3  0  0  0  0  0  0
  184.7440  178.9500  139.0480 C   0  0  0  0  0  0  0  0  0  0  0  0
  181.8670  176.1860  135.9710 C   0  0  0  0  0  2  0  0  0  0  0  0
  181.1830  177.1690  136.7040 O   0  0  0  0  0  0  0  0  0  0  0  0
  182.2750  176.5530  137.3510 C   0  0  2  0  0  3  0  0  0  0  0  0
  182.4410  179.5930  138.3960 C   0  0  0  0  0  2  0  0  0  0  0  0
  181.3200  179.6140  139.4180 C   0  0  0  0  0  2  0  0  0  0  0  0
  181.4790  178.4740  140.4130 C   0  0  0  0  0  2  0  0  0  0  0  0
  182.5760  178.8100  142.6410 O   0  0  0  0  0  1  0  0  0  0  0  0
  181.4660  179.0040  141.8060 C   0  0  0  0  0  0  0  0  0  0  0  0
  180.4760  179.6670  142.2140 O   0  0  0  0  0  0  0  0  0  0  0  0
  1 11  1  1  0  0  0
  2 34  1  1  0  0  0
  2  5  1  0  0  0  0
  3 23  1  6  0  0  0
  3  1  1  0  0  0  0
  4  2  1  0  0  0  0
  4  3  1  0  0  0  0
  5  1  1  0  0  0  0
  6  7  1  0  0  0  0
  6 10  2  0  0  0  0
  7  8  1  0  0  0  0
  8  9  2  0  0  0  0
  9 12  1  0  0  0  0
 10  9  1  0  0  0  0
 11  6  1  0  0  0  0
 12 13  1  0  0  0  0
 13 15  1  0  0  0  0
 15 19  1  0  0  0  0
 15 16  1  0  0  0  0
 15 14  1  1  0  0  0
 16 17  1  0  0  0  0
 19 18  1  1  0  0  0
 20 21  1  0  0  0  0
 20 19  1  0  0  0  0
 23 22  2  0  0  0  0
 24 23  1  0  0  0  0
 25 24  1  0  0  0  0
 26 25  2  0  0  0  0
 27 24  2  0  0  0  0
 28 26  1  0  0  0  0
 28 27  1  0  0  0  0
 29 26  1  0  0  0  0
 29 30  1  0  0  0  0
 30 31  1  0  0  0  0
 30 33  1  0  0  0  0
 32 30  1  0  0  0  0
 35 41  1  0  0  0  0
 36 38  1  1  0  0  0
 36 40  1  0  0  0  0
 39 34  1  1  0  0  0
 39 38  1  0  0  0  0
 39 35  1  0  0  0  0
 40 45  1  6  0  0  0
 40 41  1  0  0  0  0
 41 37  2  0  0  0  0
 42 43  1  0  0  0  0
 43 44  1  0  0  0  0
 44 42  1  6  0  0  0
 44 36  1  0  0  0  0
 45 46  1  0  0  0  0
 46 47  1  0  0  0  0
 47 49  1  0  0  0  0
 49 50  2  0  0  0  0
 49 48  1  0  0  0  0
M  END
>  <MODEL>
4

>  <REMARK>
 VINA RESULT:      -7.6      4.161      9.771
  Name = 
  18 active torsions:
  status: ('A' for Active; 'I' for Inactive)
    1  A    between atoms: C_2  and  N_40
    2  A    between atoms: C_3  and  C_25
    3  A    between atoms: C_3  and  C_44
    4  A    between atoms: C_4  and  C_19
    5  A    between atoms: C_4  and  C_35
    6  A    between atoms: C_7  and  C_9
    7  A    between atoms: C_7  and  C_43
    8  A    between atoms: C_10  and  C_17
    9  A    between atoms: C_11  and  C_46
   10  A    between atoms: C_12  and  C_35
   11  A    between atoms: C_13  and  C_37
   12  A    between atoms: C_13  and  C_44
   13  A    between atoms: C_17  and  C_38
   14  A    between atoms: C_18  and  C_44
   15  A    between atoms: C_19  and  C_39
   16  A    between atoms: C_21  and  C_48
   17  A    between atoms: C_24  and  C_48
   18  A    between atoms: C_25  and  C_33
                            x       y       z     vdW  Elec       q    Type
                         _______ _______ _______ _____ _____    ______ ____

>  <TORSDO>
F 18

$$$$
=
 OpenBabel10232410413D

 50 54  0  0  1  0  0  0  0  0999 V2000
  188.4070  176.7280  136.9430 C   0  0  2  0  0  3  0  0  0  0  0  0
  186.3220  177.7260  135.7970 C   0  0  2  0  0  3  0  0  0  0  0  0
  188.7360  176.5550  135.4630 C   0  0  2  0  0  3  0  0  0  0  0  0
  187.3580  177.1470  134.4180 S   0  0  0  0  0  0  0  0  0  0  0  0
  187.3870  178.2100  137.1750 S   0  0  0  0  0  0  0  0  0  0  0  0
  189.6460  177.2480  139.0870 C   0  0  0  0  0  0  0  0  0  0  0  0
  188.3190  177.5360  140.0480 S   0  0  0  0  0  0  0  0  0  0  0  0
  189.1480  177.7760  141.4690 N   0  0  0  0  0  0  0  0  0  0  0  0
  190.4630  177.6300  141.1420 C   0  0  0  0  0  0  0  0  0  0  0  0
  190.7610  177.3120  139.8420 N   0  0  0  0  0  0  0  0  0  0  0  0
  189.6370  176.8480  137.7170 N   0  0  0  0  0  2  0  0  0  0  0  0
  191.5180  177.7050  142.1840 C   0  0  0  0  0  2  0  0  0  0  0  0
  190.9480  178.3160  143.4570 C   0  0  0  0  0  2  0  0  0  0  0  0
  191.8960  177.4810  145.5070 O   0  0  0  0  0  1  0  0  0  0  0  0
  190.8370  177.3050  144.6090 C   0  0  2  0  0  0  0  0  0  0  0  0
  190.9180  175.8890  144.0390 C   0  0  0  0  0  2  0  0  0  0  0  0
  192.1160  175.2730  144.4050 O   0  0  0  0  0  1  0  0  0  0  0  0
  188.4740  176.7990  144.7030 O   0  0  0  0  0  1  0  0  0  0  0  0
  189.5090  177.4570  145.3730 C   0  0  1  0  0  3  0  0  0  0  0  0
  189.5950  176.9700  146.8140 C   0  0  0  0  0  2  0  0  0  0  0  0
  188.5500  177.6690  147.6580 C   0  0  0  0  0  1  0  0  0  0  0  0
  190.1000  174.9200  134.3460 O   0  0  0  0  0  0  0  0  0  0  0  0
  189.1290  175.1320  135.1270 C   0  0  0  0  0  0  0  0  0  0  0  0
  188.3660  173.9730  135.6330 C   0  0  0  0  0  0  0  0  0  0  0  0
  187.0650  173.6300  135.3150 C   0  0  0  0  0  3  0  0  0  0  0  0
  186.8380  172.4930  136.0680 C   0  0  0  0  0  0  0  0  0  0  0  0
  188.8520  173.0380  136.5310 C   0  0  0  0  0  3  0  0  0  0  0  0
  187.9000  172.1650  136.7600 O   0  0  0  0  0  0  0  0  0  0  0  0
  185.5500  171.7430  136.1180 C   0  0  0  0  0  2  0  0  0  0  0  0
  184.5480  172.3950  137.0630 C   0  0  0  0  0  0  0  0  0  0  0  0
  183.9710  173.4780  136.4230 F   0  0  0  0  0  0  0  0  0  0  0  0
  183.5570  171.4910  137.4040 F   0  0  0  0  0  0  0  0  0  0  0  0
  185.1850  172.8330  138.2120 F   0  0  0  0  0  0  0  0  0  0  0  0
  185.3320  176.6510  136.2310 C   0  0  0  0  0  2  0  0  0  0  0  0
  183.9050  176.2540  138.1720 N   0  0  0  0  0  2  0  0  0  0  0  0
  182.1100  178.3770  137.4020 C   0  0  2  0  0  3  0  0  0  0  0  0
  182.4000  175.5290  139.7870 O   0  0  0  0  0  0  0  0  0  0  0  0
  183.0640  177.7010  136.4180 C   0  0  0  0  0  2  0  0  0  0  0  0
  184.2970  177.2410  137.1770 C   0  0  2  0  0  3  0  0  0  0  0  0
  181.6450  177.4080  138.5110 C   0  0  1  0  0  3  0  0  0  0  0  0
  182.6700  176.3680  138.8900 C   0  0  0  0  0  0  0  0  0  0  0  0
  180.9700  180.4020  136.4920 C   0  0  0  0  0  2  0  0  0  0  0  0
  180.1910  179.8070  137.4980 O   0  0  0  0  0  0  0  0  0  0  0  0
  180.8950  178.9270  136.6500 C   0  0  2  0  0  3  0  0  0  0  0  0
  181.2080  178.1690  139.7620 C   0  0  0  0  0  2  0  0  0  0  0  0
  182.2130  179.2260  140.1810 C   0  0  0  0  0  2  0  0  0  0  0  0
  183.2110  178.6520  141.1760 C   0  0  0  0  0  2  0  0  0  0  0  0
  185.5870  179.0780  141.8490 O   0  0  0  0  0  1  0  0  0  0  0  0
  184.5810  179.1580  140.8750 C   0  0  0  0  0  0  0  0  0  0  0  0
  184.8430  179.6120  139.7310 O   0  0  0  0  0  0  0  0  0  0  0  0
  1  5  1  0  0  0  0
  1 11  1  1  0  0  0
  2 34  1  1  0  0  0
  2  5  1  0  0  0  0
  3 23  1  1  0  0  0
  3  1  1  0  0  0  0
  4  3  1  0  0  0  0
  4  2  1  0  0  0  0
  6 10  2  0  0  0  0
  6  7  1  0  0  0  0
  7  8  1  0  0  0  0
  9  8  2  0  0  0  0
  9 12  1  0  0  0  0
 10  9  1  0  0  0  0
 11  6  1  0  0  0  0
 12 13  1  0  0  0  0
 13 15  1  0  0  0  0
 15 19  1  0  0  0  0
 15 14  1  1  0  0  0
 16 17  1  0  0  0  0
 16 15  1  0  0  0  0
 19 18  1  6  0  0  0
 19 20  1  0  0  0  0
 20 21  1  0  0  0  0
 22 23  2  0  0  0  0
 23 24  1  0  0  0  0
 24 27  2  0  0  0  0
 25 24  1  0  0  0  0
 25 26  2  0  0  0  0
 26 29  1  0  0  0  0
 26 28  1  0  0  0  0
 27 28  1  0  0  0  0
 29 30  1  0  0  0  0
 30 32  1  0  0  0  0
 30 33  1  0  0  0  0
 31 30  1  0  0  0  0
 35 41  1  0  0  0  0
 36 38  1  6  0  0  0
 36 40  1  0  0  0  0
 38 39  1  0  0  0  0
 39 34  1  6  0  0  0
 39 35  1  0  0  0  0
 40 41  1  0  0  0  0
 40 45  1  1  0  0  0
 41 37  2  0  0  0  0
 42 43  1  0  0  0  0
 44 42  1  6  0  0  0
 44 36  1  0  0  0  0
 44 43  1  0  0  0  0
 45 46  1  0  0  0  0
 46 47  1  0  0  0  0
 49 47  1  0  0  0  0
 49 48  1  0  0  0  0
 50 49  2  0  0  0  0
M  END
>  <MODEL>
5

>  <REMARK>
 VINA RESULT:      -7.4      4.637      7.830
  Name = 
  18 active torsions:
  status: ('A' for Active; 'I' for Inactive)
    1  A    between atoms: C_2  and  N_40
    2  A    between atoms: C_3  and  C_25
    3  A    between atoms: C_3  and  C_44
    4  A    between atoms: C_4  and  C_19
    5  A    between atoms: C_4  and  C_35
    6  A    between atoms: C_7  and  C_9
    7  A    between atoms: C_7  and  C_43
    8  A    between atoms: C_10  and  C_17
    9  A    between atoms: C_11  and  C_46
   10  A    between atoms: C_12  and  C_35
   11  A    between atoms: C_13  and  C_37
   12  A    between atoms: C_13  and  C_44
   13  A    between atoms: C_17  and  C_38
   14  A    between atoms: C_18  and  C_44
   15  A    between atoms: C_19  and  C_39
   16  A    between atoms: C_21  and  C_48
   17  A    between atoms: C_24  and  C_48
   18  A    between atoms: C_25  and  C_33
                            x       y       z     vdW  Elec       q    Type
                         _______ _______ _______ _____ _____    ______ ____

>  <TORSDO>
F 18

$$$$
=
 OpenBabel10232410413D

 50 54  0  0  1  0  0  0  0  0999 V2000
  189.5010  176.1580  138.0850 C   0  0  2  0  0  3  0  0  0  0  0  0
  189.2170  178.4320  139.2700 C   0  0  2  0  0  3  0  0  0  0  0  0
  189.5120  177.1380  136.9140 C   0  0  2  0  0  3  0  0  0  0  0  0
  189.2630  178.8510  137.4990 S   0  0  0  0  0  0  0  0  0  0  0  0
  190.2120  176.9500  139.5540 S   0  0  0  0  0  0  0  0  0  0  0  0
  191.6860  174.9870  137.5790 C   0  0  0  0  0  0  0  0  0  0  0  0
  192.6970  176.2840  137.8340 S   0  0  0  0  0  0  0  0  0  0  0  0
  194.1290  175.4720  137.5950 N   0  0  0  0  0  0  0  0  0  0  0  0
  193.7660  174.1890  137.3100 C   0  0  0  0  0  0  0  0  0  0  0  0
  192.4270  173.8910  137.3220 N   0  0  0  0  0  0  0  0  0  0  0  0
  190.2680  174.9660  137.7450 N   0  0  0  0  0  2  0  0  0  0  0  0
  194.7930  173.1370  137.1030 C   0  0  0  0  0  2  0  0  0  0  0  0
  196.0810  173.5200  137.8220 C   0  0  0  0  0  2  0  0  0  0  0  0
  196.9460  173.4640  135.5750 O   0  0  0  0  0  1  0  0  0  0  0  0
  197.3220  173.4130  136.9220 C   0  0  2  0  0  0  0  0  0  0  0  0
  198.0120  172.0750  137.1810 C   0  0  0  0  0  2  0  0  0  0  0  0
  197.9010  171.2350  136.0710 O   0  0  0  0  0  1  0  0  0  0  0  0
  197.7730  175.4940  138.0700 O   0  0  0  0  0  1  0  0  0  0  0  0
  198.3230  174.5490  137.2000 C   0  0  1  0  0  3  0  0  0  0  0  0
  199.6550  174.0460  137.7460 C   0  0  0  0  0  2  0  0  0  0  0  0
  199.9430  174.6950  139.0820 C   0  0  0  0  0  1  0  0  0  0  0  0
  188.7780  177.0000  134.6290 O   0  0  0  0  0  0  0  0  0  0  0  0
  188.5140  176.7570  135.8410 C   0  0  0  0  0  0  0  0  0  0  0  0
  187.2010  176.1670  136.1720 C   0  0  0  0  0  0  0  0  0  0  0  0
  186.7490  174.9020  135.8420 C   0  0  0  0  0  3  0  0  0  0  0  0
  185.4710  174.8700  136.3640 C   0  0  0  0  0  0  0  0  0  0  0  0
  186.1990  176.8130  136.8740 C   0  0  0  0  0  3  0  0  0  0  0  0
  185.1780  175.9940  136.9700 O   0  0  0  0  0  0  0  0  0  0  0  0
  184.5240  173.7240  136.2400 C   0  0  0  0  0  2  0  0  0  0  0  0
  184.9430  172.5430  137.1070 C   0  0  0  0  0  0  0  0  0  0  0  0
  185.8710  171.7870  136.4110 F   0  0  0  0  0  0  0  0  0  0  0  0
  185.5190  172.9960  138.2820 F   0  0  0  0  0  0  0  0  0  0  0  0
  183.8470  171.7540  137.4080 F   0  0  0  0  0  0  0  0  0  0  0  0
  187.7850  178.2210  139.7480 C   0  0  0  0  0  2  0  0  0  0  0  0
  186.4980  178.0210  141.8130 N   0  0  0  0  0  2  0  0  0  0  0  0
  188.8990  177.7770  143.3930 C   0  0  2  0  0  3  0  0  0  0  0  0
  185.2220  178.2670  143.7400 O   0  0  0  0  0  0  0  0  0  0  0  0
  188.8880  178.3850  141.9920 C   0  0  0  0  0  2  0  0  0  0  0  0
  187.7790  177.7290  141.1880 C   0  0  2  0  0  3  0  0  0  0  0  0
  187.5690  178.0230  144.1390 C   0  0  1  0  0  3  0  0  0  0  0  0
  186.3600  178.0770  143.2390 C   0  0  0  0  0  0  0  0  0  0  0  0
  191.3760  177.9960  143.6100 C   0  0  0  0  0  2  0  0  0  0  0  0
  190.8450  177.2990  144.7070 O   0  0  0  0  0  0  0  0  0  0  0  0
  190.0630  178.3590  144.2010 C   0  0  2  0  0  3  0  0  0  0  0  0
  187.3440  176.9760  145.2290 C   0  0  0  0  0  2  0  0  0  0  0  0
  187.4750  177.5530  146.6270 C   0  0  0  0  0  2  0  0  0  0  0  0
  188.4380  176.7210  147.4620 C   0  0  0  0  0  2  0  0  0  0  0  0
  189.2200  178.7760  148.6640 O   0  0  0  0  0  1  0  0  0  0  0  0
  189.5310  177.5840  147.9930 C   0  0  0  0  0  0  0  0  0  0  0  0
  190.7300  177.2170  147.8790 O   0  0  0  0  0  0  0  0  0  0  0  0
  1 11  1  6  0  0  0
  1  5  1  0  0  0  0
  2  5  1  0  0  0  0
  2 34  1  6  0  0  0
  3 23  1  6  0  0  0
  3  4  1  0  0  0  0
  3  1  1  0  0  0  0
  4  2  1  0  0  0  0
  6 11  1  0  0  0  0
  6  7  1  0  0  0  0
  8  7  1  0  0  0  0
  9 10  1  0  0  0  0
  9  8  2  0  0  0  0
 10  6  2  0  0  0  0
 12  9  1  0  0  0  0
 12 13  1  0  0  0  0
 15 14  1  6  0  0  0
 15 16  1  0  0  0  0
 15 19  1  0  0  0  0
 15 13  1  0  0  0  0
 17 16  1  0  0  0  0
 19 20  1  0  0  0  0
 19 18  1  1  0  0  0
 20 21  1  0  0  0  0
 22 23  2  0  0  0  0
 23 24  1  0  0  0  0
 24 27  2  0  0  0  0
 25 24  1  0  0  0  0
 25 26  2  0  0  0  0
 26 28  1  0  0  0  0
 27 28  1  0  0  0  0
 29 26  1  0  0  0  0
 29 30  1  0  0  0  0
 30 33  1  0  0  0  0
 30 32  1  0  0  0  0
 31 30  1  0  0  0  0
 35 41  1  0  0  0  0
 36 38  1  6  0  0  0
 36 40  1  0  0  0  0
 36 44  1  0  0  0  0
 39 34  1  6  0  0  0
 39 35  1  0  0  0  0
 39 38  1  0  0  0  0
 40 45  1  1  0  0  0
 41 37  2  0  0  0  0
 41 40  1  0  0  0  0
 42 43  1  0  0  0  0
 44 42  1  6  0  0  0
 44 43  1  0  0  0  0
 45 46  1  0  0  0  0
 46 47  1  0  0  0  0
 47 49  1  0  0  0  0
 49 48  1  0  0  0  0
 50 49  2  0  0  0  0
M  END
>  <MODEL>
6

>  <REMARK>
 VINA RESULT:      -7.2      2.030      3.012
  Name = 
  18 active torsions:
  status: ('A' for Active; 'I' for Inactive)
    1  A    between atoms: C_2  and  N_40
    2  A    between atoms: C_3  and  C_25
    3  A    between atoms: C_3  and  C_44
    4  A    between atoms: C_4  and  C_19
    5  A    between atoms: C_4  and  C_35
    6  A    between atoms: C_7  and  C_9
    7  A    between atoms: C_7  and  C_43
    8  A    between atoms: C_10  and  C_17
    9  A    between atoms: C_11  and  C_46
   10  A    between atoms: C_12  and  C_35
   11  A    between atoms: C_13  and  C_37
   12  A    between atoms: C_13  and  C_44
   13  A    between atoms: C_17  and  C_38
   14  A    between atoms: C_18  and  C_44
   15  A    between atoms: C_19  and  C_39
   16  A    between atoms: C_21  and  C_48
   17  A    between atoms: C_24  and  C_48
   18  A    between atoms: C_25  and  C_33
                            x       y       z     vdW  Elec       q    Type
                         _______ _______ _______ _____ _____    ______ ____

>  <TORSDO>
F 18

$$$$
=
 OpenBabel10232410413D

 50 54  0  0  1  0  0  0  0  0999 V2000
  189.6070  176.1640  138.2000 C   0  0  2  0  0  3  0  0  0  0  0  0
  189.2240  178.4420  139.3490 C   0  0  2  0  0  3  0  0  0  0  0  0
  189.5500  177.1220  137.0120 C   0  0  2  0  0  3  0  0  0  0  0  0
  189.2230  178.8310  137.5710 S   0  0  0  0  0  0  0  0  0  0  0  0
  190.2980  177.0180  139.6430 S   0  0  0  0  0  0  0  0  0  0  0  0
  191.8400  175.0980  137.6730 C   0  0  0  0  0  0  0  0  0  0  0  0
  192.7870  176.4510  137.8810 S   0  0  0  0  0  0  0  0  0  0  0  0
  194.2540  175.7100  137.6290 N   0  0  0  0  0  0  0  0  0  0  0  0
  193.9540  174.4040  137.3780 C   0  0  0  0  0  0  0  0  0  0  0  0
  192.6330  174.0370  137.4240 N   0  0  0  0  0  0  0  0  0  0  0  0
  190.4290  175.0070  137.8690 N   0  0  0  0  0  2  0  0  0  0  0  0
  195.0310  173.4020  137.1730 C   0  0  0  0  0  2  0  0  0  0  0  0
  196.1240  173.5940  138.2160 C   0  0  0  0  0  2  0  0  0  0  0  0
  198.2070  172.6700  137.4390 O   0  0  0  0  0  1  0  0  0  0  0  0
  197.5030  173.8690  137.5940 C   0  0  2  0  0  0  0  0  0  0  0  0
  198.2980  174.7790  138.5290 C   0  0  0  0  0  2  0  0  0  0  0  0
  197.4780  175.2960  139.5350 O   0  0  0  0  0  1  0  0  0  0  0  0
  197.5990  175.9300  136.3310 O   0  0  0  0  0  1  0  0  0  0  0  0
  197.3800  174.5540  136.2210 C   0  0  1  0  0  3  0  0  0  0  0  0
  198.3130  173.9560  135.1750 C   0  0  0  0  0  2  0  0  0  0  0  0
  199.5400  174.8280  135.0190 C   0  0  0  0  0  1  0  0  0  0  0  0
  188.9400  176.5200  134.7650 O   0  0  0  0  0  0  0  0  0  0  0  0
  188.5580  176.6710  135.9610 C   0  0  0  0  0  0  0  0  0  0  0  0
  187.1300  176.4660  136.2760 C   0  0  0  0  0  0  0  0  0  0  0  0
  186.1240  177.4140  136.2410 C   0  0  0  0  0  3  0  0  0  0  0  0
  185.0030  176.7110  136.6380 C   0  0  0  0  0  0  0  0  0  0  0  0
  186.5730  175.2610  136.6700 C   0  0  0  0  0  3  0  0  0  0  0  0
  185.2910  175.4550  136.8730 O   0  0  0  0  0  0  0  0  0  0  0  0
  183.6420  177.2960  136.8090 C   0  0  0  0  0  2  0  0  0  0  0  0
  183.4510  177.8960  138.1970 C   0  0  0  0  0  0  0  0  0  0  0  0
  184.5900  177.6560  138.9470 F   0  0  0  0  0  0  0  0  0  0  0  0
  183.2530  179.2630  138.1010 F   0  0  0  0  0  0  0  0  0  0  0  0
  182.3620  177.3170  138.8260 F   0  0  0  0  0  0  0  0  0  0  0  0
  187.8120  178.1680  139.8530 C   0  0  0  0  0  2  0  0  0  0  0  0
  186.5780  177.9330  141.9470 N   0  0  0  0  0  2  0  0  0  0  0  0
  189.0200  177.7750  143.4740 C   0  0  2  0  0  3  0  0  0  0  0  0
  185.3370  178.1450  143.9000 O   0  0  0  0  0  0  0  0  0  0  0  0
  188.9580  178.3770  142.0720 C   0  0  0  0  0  2  0  0  0  0  0  0
  187.8540  177.6810  141.2940 C   0  0  2  0  0  3  0  0  0  0  0  0
  187.7000  177.9800  144.2480 C   0  0  1  0  0  3  0  0  0  0  0  0
  186.4700  177.9900  143.3750 C   0  0  0  0  0  0  0  0  0  0  0  0
  191.4860  177.8080  143.8600 C   0  0  0  0  0  2  0  0  0  0  0  0
  190.8110  177.3940  145.0200 O   0  0  0  0  0  0  0  0  0  0  0  0
  190.1810  178.3980  144.2540 C   0  0  2  0  0  3  0  0  0  0  0  0
  187.5330  176.9300  145.3460 C   0  0  0  0  0  2  0  0  0  0  0  0
  187.2880  177.5480  146.7100 C   0  0  0  0  0  2  0  0  0  0  0  0
  188.1680  176.8900  147.7630 C   0  0  0  0  0  2  0  0  0  0  0  0
  188.1980  178.4140  149.7520 O   0  0  0  0  0  1  0  0  0  0  0  0
  188.8330  177.9310  148.5980 C   0  0  0  0  0  0  0  0  0  0  0  0
  189.9830  178.3390  148.2900 O   0  0  0  0  0  0  0  0  0  0  0  0
  1 11  1  6  0  0  0
  1  5  1  0  0  0  0
  2  5  1  0  0  0  0
  2 34  1  6  0  0  0
  3 23  1  6  0  0  0
  3  4  1  0  0  0  0
  3  1  1  0  0  0  0
  4  2  1  0  0  0  0
  6 11  1  0  0  0  0
  6  7  1  0  0  0  0
  8  7  1  0  0  0  0
  9 10  1  0  0  0  0
  9  8  2  0  0  0  0
 10  6  2  0  0  0  0
 12  9  1  0  0  0  0
 12 13  1  0  0  0  0
 15 14  1  6  0  0  0
 15 13  1  0  0  0  0
 15 16  1  0  0  0  0
 16 17  1  0  0  0  0
 19 18  1  1  0  0  0
 19 15  1  0  0  0  0
 20 19  1  0  0  0  0
 21 20  1  0  0  0  0
 22 23  2  0  0  0  0
 23 24  1  0  0  0  0
 24 27  2  0  0  0  0
 25 24  1  0  0  0  0
 25 26  2  0  0  0  0
 26 29  1  0  0  0  0
 26 28  1  0  0  0  0
 27 28  1  0  0  0  0
 29 30  1  0  0  0  0
 30 33  1  0  0  0  0
 30 31  1  0  0  0  0
 32 30  1  0  0  0  0
 35 41  1  0  0  0  0
 36 38  1  6  0  0  0
 36 40  1  0  0  0  0
 36 44  1  0  0  0  0
 39 34  1  6  0  0  0
 39 35  1  0  0  0  0
 39 38  1  0  0  0  0
 40 45  1  1  0  0  0
 41 37  2  0  0  0  0
 41 40  1  0  0  0  0
 42 43  1  0  0  0  0
 44 42  1  6  0  0  0
 44 43  1  0  0  0  0
 45 46  1  0  0  0  0
 46 47  1  0  0  0  0
 47 49  1  0  0  0  0
 49 48  1  0  0  0  0
 50 49  2  0  0  0  0
M  END
>  <MODEL>
7

>  <REMARK>
 VINA RESULT:      -7.2      1.338      2.505
  Name = 
  18 active torsions:
  status: ('A' for Active; 'I' for Inactive)
    1  A    between atoms: C_2  and  N_40
    2  A    between atoms: C_3  and  C_25
    3  A    between atoms: C_3  and  C_44
    4  A    between atoms: C_4  and  C_19
    5  A    between atoms: C_4  and  C_35
    6  A    between atoms: C_7  and  C_9
    7  A    between atoms: C_7  and  C_43
    8  A    between atoms: C_10  and  C_17
    9  A    between atoms: C_11  and  C_46
   10  A    between atoms: C_12  and  C_35
   11  A    between atoms: C_13  and  C_37
   12  A    between atoms: C_13  and  C_44
   13  A    between atoms: C_17  and  C_38
   14  A    between atoms: C_18  and  C_44
   15  A    between atoms: C_19  and  C_39
   16  A    between atoms: C_21  and  C_48
   17  A    between atoms: C_24  and  C_48
   18  A    between atoms: C_25  and  C_33
                            x       y       z     vdW  Elec       q    Type
                         _______ _______ _______ _____ _____    ______ ____

>  <TORSDO>
F 18

$$$$
=
 OpenBabel10232410413D

 50 54  0  0  1  0  0  0  0  0999 V2000
  187.9840  176.5640  137.8870 C   0  0  2  0  0  3  0  0  0  0  0  0
  185.9810  177.3260  136.4500 C   0  0  2  0  0  3  0  0  0  0  0  0
  188.4110  176.1410  136.4840 C   0  0  2  0  0  3  0  0  0  0  0  0
  187.1070  176.5280  135.2630 S   0  0  0  0  0  0  0  0  0  0  0  0
  186.9520  178.0530  137.7900 S   0  0  0  0  0  0  0  0  0  0  0  0
  189.0770  177.4500  139.9900 C   0  0  0  0  0  0  0  0  0  0  0  0
  187.6870  177.8710  140.8030 S   0  0  0  0  0  0  0  0  0  0  0  0
  188.4200  178.3550  142.2150 N   0  0  0  0  0  0  0  0  0  0  0  0
  189.7540  178.1780  142.0020 C   0  0  0  0  0  0  0  0  0  0  0  0
  190.1390  177.6540  140.7940 N   0  0  0  0  0  0  0  0  0  0  0  0
  189.1590  176.8300  138.7070 N   0  0  0  0  0  2  0  0  0  0  0  0
  190.7380  178.4400  143.0830 C   0  0  0  0  0  2  0  0  0  0  0  0
  190.0240  178.5320  144.4250 C   0  0  0  0  0  2  0  0  0  0  0  0
  190.4090  176.1560  144.3400 O   0  0  0  0  0  1  0  0  0  0  0  0
  190.0060  177.1960  145.1860 C   0  0  2  0  0  0  0  0  0  0  0  0
  188.5800  176.9100  145.6570 C   0  0  0  0  0  2  0  0  0  0  0  0
  187.7510  178.0100  145.4250 O   0  0  0  0  0  1  0  0  0  0  0  0
  190.1960  177.2140  147.5970 O   0  0  0  0  0  1  0  0  0  0  0  0
  190.9360  177.2290  146.4110 C   0  0  1  0  0  3  0  0  0  0  0  0
  191.9540  176.0940  146.4140 C   0  0  0  0  0  2  0  0  0  0  0  0
  192.3740  175.7810  147.8340 C   0  0  0  0  0  1  0  0  0  0  0  0
  187.9960  173.7880  136.7520 O   0  0  0  0  0  0  0  0  0  0  0  0
  188.8240  174.6850  136.4270 C   0  0  0  0  0  0  0  0  0  0  0  0
  190.1980  174.2790  136.0670 C   0  0  0  0  0  0  0  0  0  0  0  0
  191.3710  174.9440  136.3710 C   0  0  0  0  0  3  0  0  0  0  0  0
  192.3470  174.1600  135.7890 C   0  0  0  0  0  0  0  0  0  0  0  0
  190.5220  173.1430  135.3440 C   0  0  0  0  0  3  0  0  0  0  0  0
  191.8260  173.1110  135.2050 O   0  0  0  0  0  0  0  0  0  0  0  0
  193.8070  174.4680  135.7920 C   0  0  0  0  0  2  0  0  0  0  0  0
  194.3380  174.6920  137.2030 C   0  0  0  0  0  0  0  0  0  0  0  0
  195.7220  174.6830  137.1640 F   0  0  0  0  0  0  0  0  0  0  0  0
  193.9070  175.9160  137.6850 F   0  0  0  0  0  0  0  0  0  0  0  0
  193.9010  173.6860  138.0470 F   0  0  0  0  0  0  0  0  0  0  0  0
  184.9640  176.3320  136.9970 C   0  0  0  0  0  2  0  0  0  0  0  0
  183.3570  175.9740  138.8010 N   0  0  0  0  0  2  0  0  0  0  0  0
  182.4540  178.7100  138.6620 C   0  0  2  0  0  3  0  0  0  0  0  0
  181.5870  175.4320  140.2060 O   0  0  0  0  0  0  0  0  0  0  0  0
  183.1840  178.0200  137.5120 C   0  0  0  0  0  2  0  0  0  0  0  0
  184.1310  176.9830  138.0920 C   0  0  2  0  0  3  0  0  0  0  0  0
  181.6100  177.7150  139.4890 C   0  0  1  0  0  3  0  0  0  0  0  0
  182.1890  176.3240  139.5540 C   0  0  0  0  0  0  0  0  0  0  0  0
  182.0430  181.1680  138.5070 C   0  0  0  0  0  2  0  0  0  0  0  0
  180.9940  180.5350  139.1930 O   0  0  0  0  0  0  0  0  0  0  0  0
  181.5550  179.8220  138.1130 C   0  0  2  0  0  3  0  0  0  0  0  0
  181.3740  178.2340  140.9060 C   0  0  0  0  0  2  0  0  0  0  0  0
  182.6660  178.4200  141.6810 C   0  0  0  0  0  2  0  0  0  0  0  0
  182.3810  178.9420  143.0820 C   0  0  0  0  0  2  0  0  0  0  0  0
  184.8230  178.4480  143.3480 O   0  0  0  0  0  0  0  0  0  0  0  0
  183.6050  178.8350  143.9260 C   0  0  0  0  0  0  0  0  0  0  0  0
  183.5520  179.1400  145.1460 O   0  0  0  0  0  1  0  0  0  0  0  0
  1 11  1  1  0  0  0
  2 34  1  1  0  0  0
  2  5  1  0  0  0  0
  3 23  1  1  0  0  0
  3  1  1  0  0  0  0
  4  2  1  0  0  0  0
  4  3  1  0  0  0  0
  5  1  1  0  0  0  0
  6 10  2  0  0  0  0
  6  7  1  0  0  0  0
  7  8  1  0  0  0  0
  9  8  2  0  0  0  0
  9 12  1  0  0  0  0
 10  9  1  0  0  0  0
 11  6  1  0  0  0  0
 12 13  1  0  0  0  0
 13 15  1  0  0  0  0
 15 14  1  6  0  0  0
 15 16  1  0  0  0  0
 15 19  1  0  0  0  0
 17 16  1  0  0  0  0
 19 20  1  0  0  0  0
 19 18  1  1  0  0  0
 20 21  1  0  0  0  0
 23 22  2  0  0  0  0
 24 25  1  0  0  0  0
 24 23  1  0  0  0  0
 26 29  1  0  0  0  0
 26 25  2  0  0  0  0
 27 24  2  0  0  0  0
 28 27  1  0  0  0  0
 28 26  1  0  0  0  0
 29 30  1  0  0  0  0
 30 32  1  0  0  0  0
 30 33  1  0  0  0  0
 31 30  1  0  0  0  0
 35 41  1  0  0  0  0
 36 38  1  6  0  0  0
 36 40  1  0  0  0  0
 38 39  1  0  0  0  0
 39 34  1  6  0  0  0
 39 35  1  0  0  0  0
 40 41  1  0  0  0  0
 40 45  1  1  0  0  0
 41 37  2  0  0  0  0
 42 43  1  0  0  0  0
 44 42  1  6  0  0  0
 44 36  1  0  0  0  0
 44 43  1  0  0  0  0
 45 46  1  0  0  0  0
 46 47  1  0  0  0  0
 47 49  1  0  0  0  0
 48 49  2  0  0  0  0
 49 50  1  0  0  0  0
M  END
>  <MODEL>
8

>  <REMARK>
 VINA RESULT:      -6.9      4.035      8.489
  Name = 
  18 active torsions:
  status: ('A' for Active; 'I' for Inactive)
    1  A    between atoms: C_2  and  N_40
    2  A    between atoms: C_3  and  C_25
    3  A    between atoms: C_3  and  C_44
    4  A    between atoms: C_4  and  C_19
    5  A    between atoms: C_4  and  C_35
    6  A    between atoms: C_7  and  C_9
    7  A    between atoms: C_7  and  C_43
    8  A    between atoms: C_10  and  C_17
    9  A    between atoms: C_11  and  C_46
   10  A    between atoms: C_12  and  C_35
   11  A    between atoms: C_13  and  C_37
   12  A    between atoms: C_13  and  C_44
   13  A    between atoms: C_17  and  C_38
   14  A    between atoms: C_18  and  C_44
   15  A    between atoms: C_19  and  C_39
   16  A    between atoms: C_21  and  C_48
   17  A    between atoms: C_24  and  C_48
   18  A    between atoms: C_25  and  C_33
                            x       y       z     vdW  Elec       q    Type
                         _______ _______ _______ _____ _____    ______ ____

>  <TORSDO>
F 18

$$$$
=
 OpenBabel10232410413D

 50 54  0  0  1  0  0  0  0  0999 V2000
  184.8890  178.2860  140.3070 C   0  0  2  0  0  3  0  0  0  0  0  0
  184.3070  179.2800  142.6160 C   0  0  2  0  0  3  0  0  0  0  0  0
  183.3820  178.5060  140.1960 C   0  0  2  0  0  3  0  0  0  0  0  0
  182.7040  179.1650  141.7600 S   0  0  0  0  0  0  0  0  0  0  0  0
  185.6130  179.5440  141.3950 S   0  0  0  0  0  0  0  0  0  0  0  0
  186.9130  178.2630  138.7890 C   0  0  0  0  0  0  0  0  0  0  0  0
  188.0610  177.9540  139.9530 S   0  0  0  0  0  0  0  0  0  0  0  0
  189.3640  177.8450  138.9260 N   0  0  0  0  0  0  0  0  0  0  0  0
  188.8540  178.0650  137.6810 C   0  0  0  0  0  0  0  0  0  0  0  0
  187.5020  178.2710  137.5770 N   0  0  0  0  0  0  0  0  0  0  0  0
  185.5020  178.3610  138.9870 N   0  0  0  0  0  2  0  0  0  0  0  0
  189.7200  177.9750  136.4780 C   0  0  0  0  0  2  0  0  0  0  0  0
  189.2420  176.8430  135.5790 C   0  0  0  0  0  2  0  0  0  0  0  0
  190.6970  175.1710  134.6360 O   0  0  0  0  0  1  0  0  0  0  0  0
  190.0140  175.5330  135.8030 C   0  0  2  0  0  0  0  0  0  0  0  0
  189.0220  174.4220  136.1470 C   0  0  0  0  0  2  0  0  0  0  0  0
  187.8050  174.9580  136.5750 O   0  0  0  0  0  1  0  0  0  0  0  0
  190.8260  174.6660  137.9110 O   0  0  0  0  0  1  0  0  0  0  0  0
  191.0300  175.6630  136.9520 C   0  0  1  0  0  3  0  0  0  0  0  0
  192.4760  175.6400  136.4710 C   0  0  0  0  0  2  0  0  0  0  0  0
  193.3260  176.5360  137.3460 C   0  0  0  0  0  1  0  0  0  0  0  0
  181.7950  176.7270  140.5070 O   0  0  0  0  0  0  0  0  0  0  0  0
  182.6540  177.2570  139.7460 C   0  0  0  0  0  0  0  0  0  0  0  0
  182.9640  176.5930  138.4640 C   0  0  0  0  0  0  0  0  0  0  0  0
  183.6450  175.4030  138.2860 C   0  0  0  0  0  3  0  0  0  0  0  0
  183.6780  175.2530  136.9130 C   0  0  0  0  0  0  0  0  0  0  0  0
  182.6160  177.0820  137.2160 C   0  0  0  0  0  3  0  0  0  0  0  0
  183.0620  176.2400  136.3140 O   0  0  0  0  0  0  0  0  0  0  0  0
  184.3470  174.1320  136.1910 C   0  0  0  0  0  2  0  0  0  0  0  0
  184.2860  172.8300  136.9800 C   0  0  0  0  0  0  0  0  0  0  0  0
  184.9450  171.8440  136.2650 F   0  0  0  0  0  0  0  0  0  0  0  0
  184.9070  172.9880  138.2070 F   0  0  0  0  0  0  0  0  0  0  0  0
  182.9710  172.4460  137.1760 F   0  0  0  0  0  0  0  0  0  0  0  0
  184.5810  178.0260  143.4390 C   0  0  0  0  0  2  0  0  0  0  0  0
  186.8400  177.1170  143.2590 N   0  0  0  0  0  2  0  0  0  0  0  0
  187.4530  177.8570  145.9790 C   0  0  2  0  0  3  0  0  0  0  0  0
  188.7910  175.8600  143.1320 O   0  0  0  0  0  0  0  0  0  0  0  0
  186.0230  177.7060  145.4640 C   0  0  0  0  0  2  0  0  0  0  0  0
  186.0010  178.0580  143.9860 C   0  0  2  0  0  3  0  0  0  0  0  0
  188.4290  176.9030  145.2550 C   0  0  1  0  0  3  0  0  0  0  0  0
  188.0620  176.6200  143.8200 C   0  0  0  0  0  0  0  0  0  0  0  0
  187.3160  178.8430  148.2680 C   0  0  0  0  0  2  0  0  0  0  0  0
  188.5850  178.2830  148.0470 O   0  0  0  0  0  0  0  0  0  0  0  0
  187.4910  177.5920  147.4870 C   0  0  2  0  0  3  0  0  0  0  0  0
  189.8630  177.4280  145.3180 C   0  0  0  0  0  2  0  0  0  0  0  0
  190.1230  178.5340  144.3110 C   0  0  0  0  0  2  0  0  0  0  0  0
  191.5630  178.4870  143.8220 C   0  0  0  0  0  2  0  0  0  0  0  0
  191.9800  176.0730  143.2990 O   0  0  0  0  0  1  0  0  0  0  0  0
  191.7350  177.3770  142.8430 C   0  0  0  0  0  0  0  0  0  0  0  0
  191.6120  177.6040  141.6110 O   0  0  0  0  0  0  0  0  0  0  0  0
  1 11  1  6  0  0  0
  1  5  1  0  0  0  0
  2 34  1  6  0  0  0
  3 23  1  1  0  0  0
  3  1  1  0  0  0  0
  3  4  1  0  0  0  0
  4  2  1  0  0  0  0
  5  2  1  0  0  0  0
  6 11  1  0  0  0  0
  6  7  1  0  0  0  0
  8  7  1  0  0  0  0
  9  8  2  0  0  0  0
 10  9  1  0  0  0  0
 10  6  2  0  0  0  0
 12  9  1  0  0  0  0
 13 15  1  0  0  0  0
 13 12  1  0  0  0  0
 15 14  1  6  0  0  0
 15 16  1  0  0  0  0
 15 19  1  0  0  0  0
 16 17  1  0  0  0  0
 19 18  1  1  0  0  0
 20 19  1  0  0  0  0
 20 21  1  0  0  0  0
 23 22  2  0  0  0  0
 24 23  1  0  0  0  0
 25 24  1  0  0  0  0
 26 25  2  0  0  0  0
 27 24  2  0  0  0  0
 28 26  1  0  0  0  0
 28 27  1  0  0  0  0
 29 26  1  0  0  0  0
 29 30  1  0  0  0  0
 30 33  1  0  0  0  0
 30 32  1  0  0  0  0
 31 30  1  0  0  0  0
 35 41  1  0  0  0  0
 35 39  1  0  0  0  0
 36 38  1  6  0  0  0
 36 44  1  0  0  0  0
 37 41  2  0  0  0  0
 39 34  1  6  0  0  0
 39 38  1  0  0  0  0
 40 45  1  6  0  0  0
 40 36  1  0  0  0  0
 41 40  1  0  0  0  0
 43 42  1  0  0  0  0
 44 43  1  0  0  0  0
 44 42  1  1  0  0  0
 46 45  1  0  0  0  0
 47 46  1  0  0  0  0
 49 48  1  0  0  0  0
 49 47  1  0  0  0  0
 50 49  2  0  0  0  0
M  END
>  <MODEL>
9

>  <REMARK>
 VINA RESULT:      -6.9      3.848      5.745
  Name = 
  18 active torsions:
  status: ('A' for Active; 'I' for Inactive)
    1  A    between atoms: C_2  and  N_40
    2  A    between atoms: C_3  and  C_25
    3  A    between atoms: C_3  and  C_44
    4  A    between atoms: C_4  and  C_19
    5  A    between atoms: C_4  and  C_35
    6  A    between atoms: C_7  and  C_9
    7  A    between atoms: C_7  and  C_43
    8  A    between atoms: C_10  and  C_17
    9  A    between atoms: C_11  and  C_46
   10  A    between atoms: C_12  and  C_35
   11  A    between atoms: C_13  and  C_37
   12  A    between atoms: C_13  and  C_44
   13  A    between atoms: C_17  and  C_38
   14  A    between atoms: C_18  and  C_44
   15  A    between atoms: C_19  and  C_39
   16  A    between atoms: C_21  and  C_48
   17  A    between atoms: C_24  and  C_48
   18  A    between atoms: C_25  and  C_33
                            x       y       z     vdW  Elec       q    Type
                         _______ _______ _______ _____ _____    ______ ____

>  <TORSDO>
F 18

$$$$
