=
 OpenBabel10222421473D

 31 35  0  0  1  0  0  0  0  0999 V2000
  185.7970  177.6670  136.5430 C   0  0  1  0  0  3  0  0  0  0  0  0
  183.9000  179.5590  138.8650 C   0  0  2  0  0  3  0  0  0  0  0  0
  186.6620  177.7420  137.7280 C   0  0  2  0  0  0  0  0  0  0  0  0
  183.4910  176.6900  136.7820 C   0  0  0  0  0  2  0  0  0  0  0  0
  181.4560  174.4240  135.0010 N   0  0  0  0  0  0  0  0  0  0  0  0
  181.2110  180.2570  136.2100 C   0  0  2  0  0  3  0  0  0  0  0  0
  181.2370  179.0600  138.3960 C   0  0  0  0  0  0  0  0  0  0  0  0
  183.7560  175.8100  134.4260 C   0  0  0  0  0  2  0  0  0  0  0  0
  184.4220  178.1680  138.5430 C   0  0  2  0  0  3  0  0  0  0  0  0
  186.3460  176.5080  137.1450 O   0  0  0  0  0  0  0  0  0  0  0  0
  180.8880  179.2370  135.1220 C   0  0  0  0  0  2  0  0  0  0  0  0
  180.4250  179.9320  137.4920 C   0  0  1  0  0  3  0  0  0  0  0  0
  185.8740  178.0600  138.9750 C   0  0  0  0  0  2  0  0  0  0  0  0
  180.5040  176.5880  138.7910 C   0  0  0  0  0  3  0  0  0  0  0  0
  182.4010  175.3010  134.9380 C   0  0  0  0  0  0  0  0  0  0  0  0
  182.3880  177.7430  134.7620 O   0  0  0  0  0  0  0  0  0  0  0  0
  183.3640  179.5420  140.0450 O   0  0  0  0  0  0  0  0  0  0  0  0
  180.8670  177.8270  138.6080 C   0  0  0  0  0  0  0  0  0  0  0  0
  182.4350  179.5610  138.9900 N   0  0  0  0  0  0  0  0  0  0  0  0
  184.3710  177.9040  137.0410 C   0  0  1  0  0  3  0  0  0  0  0  0
  183.0210  176.6300  135.3340 C   0  0  1  0  0  0  0  0  0  0  0  0
  188.3440  178.2550  137.4860 Cl  0  0  0  0  0  0  0  0  0  0  0  0
  179.9820  181.1750  138.2540 C   0  0  0  0  0  1  0  0  0  0  0  0
  181.3110  177.9600  135.4910 O   0  0  0  0  0  0  0  0  0  0  0  0
  181.3190  175.6580  139.5750 C   0  0  0  0  0  0  0  0  0  0  0  0
  182.6020  176.0040  139.9820 O   0  0  0  0  0  1  0  0  0  0  0  0
  180.8490  174.5350  139.8900 O   0  0  0  0  0  0  0  0  0  0  0  0
  179.9820  173.7260  136.7850 C   0  0  0  0  0  1  0  0  0  0  0  0
  180.3560  174.6600  135.7890 O   0  0  0  0  0  0  0  0  0  0  0  0
  180.9000  181.5320  135.7250 O   0  0  0  0  0  0  0  0  0  0  0  0
  180.7270  181.3620  134.3500 C   0  0  0  0  0  1  0  0  0  0  0  0
  1 20  1  0  0  0  0
  1 10  1  1  0  0  0
  1  3  1  0  0  0  0
  2 19  1  0  0  0  0
  2 17  1  1  0  0  0
  3 22  1  6  0  0  0
  3 13  1  0  0  0  0
  5 29  1  0  0  0  0
  6 30  1  6  0  0  0
  6 12  1  0  0  0  0
  7 18  2  0  0  0  0
  7 19  1  0  0  0  0
  8 15  1  0  0  0  0
  9  2  1  0  0  0  0
  9 13  1  6  0  0  0
 10  3  1  0  0  0  0
 11 24  1  0  0  0  0
 11  6  1  0  0  0  0
 12 23  1  1  0  0  0
 12  7  1  0  0  0  0
 14 25  1  0  0  0  0
 15  5  2  0  0  0  0
 15 21  1  0  0  0  0
 16 21  1  0  0  0  0
 16 24  1  0  0  0  0
 18 14  2  0  0  0  0
 19 17  1  0  0  0  0
 20  4  1  1  0  0  0
 20  9  1  0  0  0  0
 21  8  1  6  0  0  0
 21  4  1  0  0  0  0
 25 27  2  0  0  0  0
 25 26  1  0  0  0  0
 29 28  1  0  0  0  0
 31 30  1  0  0  0  0
M  END
>  <MODEL>
1

>  <REMARK>
 VINA RESULT:      -3.7      0.000      0.000
  Name = 
  3 active torsions:
  status: ('A' for Active; 'I' for Inactive)
    1  A    between atoms: N_5  and  O_22
    2  A    between atoms: C_6  and  O_19
    3  A    between atoms: C_8  and  C_17
                            x       y       z     vdW  Elec       q    Type
                         _______ _______ _______ _____ _____    ______ ____

>  <TORSDO>
F 3

$$$$
=
 OpenBabel10222421473D

 31 35  0  0  1  0  0  0  0  0999 V2000
  185.9130  177.2570  138.1350 C   0  0  1  0  0  3  0  0  0  0  0  0
  183.7950  176.5750  135.3740 C   0  0  2  0  0  3  0  0  0  0  0  0
  186.6470  177.8020  136.9830 C   0  0  2  0  0  0  0  0  0  0  0  0
  183.5860  178.0910  138.5990 C   0  0  0  0  0  2  0  0  0  0  0  0
  181.7330  179.1220  141.4180 N   0  0  0  0  0  0  0  0  0  0  0  0
  181.4160  174.5480  137.6070 C   0  0  2  0  0  3  0  0  0  0  0  0
  181.1940  176.6340  136.2620 C   0  0  0  0  0  0  0  0  0  0  0  0
  184.0940  177.7680  141.0540 C   0  0  0  0  0  2  0  0  0  0  0  0
  184.3350  177.6780  136.2700 C   0  0  2  0  0  3  0  0  0  0  0  0
  186.3830  178.5930  138.1100 O   0  0  0  0  0  0  0  0  0  0  0  0
  181.2020  174.9120  139.0740 C   0  0  0  0  0  2  0  0  0  0  0  0
  180.4930  175.3920  136.7120 C   0  0  1  0  0  3  0  0  0  0  0  0
  185.7320  178.0640  135.8130 C   0  0  0  0  0  2  0  0  0  0  0  0
  180.3980  178.9510  137.1590 C   0  0  0  0  0  3  0  0  0  0  0  0
  182.6870  178.3770  140.9710 C   0  0  0  0  0  0  0  0  0  0  0  0
  182.7170  176.1450  139.9650 O   0  0  0  0  0  0  0  0  0  0  0  0
  183.1350  177.1160  134.3980 O   0  0  0  0  0  0  0  0  0  0  0  0
  180.7910  177.7970  136.6970 C   0  0  0  0  0  0  0  0  0  0  0  0
  182.3260  176.5460  135.3960 N   0  0  0  0  0  0  0  0  0  0  0  0
  184.4440  177.1980  137.7140 C   0  0  1  0  0  3  0  0  0  0  0  0
  183.2750  177.4330  139.9360 C   0  0  1  0  0  0  0  0  0  0  0  0
  188.3490  177.3370  136.7990 Cl  0  0  0  0  0  0  0  0  0  0  0  0
  179.9820  174.6320  135.4930 C   0  0  0  0  0  1  0  0  0  0  0  0
  181.5700  176.2350  139.3210 O   0  0  0  0  0  0  0  0  0  0  0  0
  181.1150  180.1870  136.8420 C   0  0  0  0  0  0  0  0  0  0  0  0
  181.8610  180.8470  137.8120 O   0  0  0  0  0  1  0  0  0  0  0  0
  181.0620  180.6540  135.6750 O   0  0  0  0  0  0  0  0  0  0  0  0
  179.9820  180.4900  140.4670 C   0  0  0  0  0  1  0  0  0  0  0  0
  180.5570  179.2210  140.7160 O   0  0  0  0  0  0  0  0  0  0  0  0
  181.1710  173.1790  137.4530 O   0  0  0  0  0  0  0  0  0  0  0  0
  182.3910  172.6380  137.0450 C   0  0  0  0  0  1  0  0  0  0  0  0
  1 10  1  1  0  0  0
  2 17  1  6  0  0  0
  2 19  1  0  0  0  0
  2  9  1  0  0  0  0
  3 22  1  6  0  0  0
  3 10  1  0  0  0  0
  3  1  1  0  0  0  0
  6 30  1  1  0  0  0
  6 11  1  0  0  0  0
  7 18  2  0  0  0  0
  7 12  1  0  0  0  0
  9 13  1  6  0  0  0
  9 20  1  0  0  0  0
 11 24  1  0  0  0  0
 12 23  1  6  0  0  0
 12  6  1  0  0  0  0
 13  3  1  0  0  0  0
 15  8  1  0  0  0  0
 15  5  2  0  0  0  0
 17 19  1  0  0  0  0
 18 14  2  0  0  0  0
 19  7  1  0  0  0  0
 20  1  1  0  0  0  0
 20  4  1  1  0  0  0
 21  4  1  6  0  0  0
 21 16  1  0  0  0  0
 21 15  1  0  0  0  0
 21  8  1  0  0  0  0
 24 16  1  0  0  0  0
 25 14  1  0  0  0  0
 25 26  1  0  0  0  0
 27 25  2  0  0  0  0
 28 29  1  0  0  0  0
 29  5  1  0  0  0  0
 31 30  1  0  0  0  0
M  END
>  <MODEL>
2

>  <REMARK>
 VINA RESULT:      -3.6      1.762      5.320
  Name = 
  3 active torsions:
  status: ('A' for Active; 'I' for Inactive)
    1  A    between atoms: N_5  and  O_22
    2  A    between atoms: C_6  and  O_19
    3  A    between atoms: C_8  and  C_17
                            x       y       z     vdW  Elec       q    Type
                         _______ _______ _______ _____ _____    ______ ____

>  <TORSDO>
F 3

$$$$
=
 OpenBabel10222421473D

 31 35  0  0  1  0  0  0  0  0999 V2000
  183.3530  177.3030  140.7290 C   0  0  1  0  0  3  0  0  0  0  0  0
  185.7270  178.3010  138.2910 C   0  0  2  0  0  3  0  0  0  0  0  0
  183.6440  178.7030  141.0700 C   0  0  2  0  0  0  0  0  0  0  0  0
  182.5070  176.7660  138.4220 C   0  0  0  0  0  2  0  0  0  0  0  0
  179.9820  174.7470  137.0090 N   0  0  0  0  0  0  0  0  0  0  0  0
  185.9440  174.7150  136.9290 C   0  0  2  0  0  3  0  0  0  0  0  0
  185.2140  176.9010  135.9810 C   0  0  0  0  0  0  0  0  0  0  0  0
  181.1620  174.9070  139.4840 C   0  0  0  0  0  2  0  0  0  0  0  0
  184.2860  178.4640  138.7470 C   0  0  2  0  0  3  0  0  0  0  0  0
  182.3260  178.2680  140.8770 O   0  0  0  0  0  0  0  0  0  0  0  0
  184.7330  173.7850  136.9480 C   0  0  0  0  0  2  0  0  0  0  0  0
  185.9060  175.6100  135.6790 C   0  0  1  0  0  3  0  0  0  0  0  0
  184.2280  179.4530  139.8990 C   0  0  0  0  0  2  0  0  0  0  0  0
  182.8930  177.3960  134.8960 C   0  0  0  0  0  3  0  0  0  0  0  0
  180.8030  174.9140  137.9910 C   0  0  0  0  0  0  0  0  0  0  0  0
  183.1580  174.3230  138.3040 O   0  0  0  0  0  0  0  0  0  0  0  0
  185.9620  179.1510  137.3410 O   0  0  0  0  0  0  0  0  0  0  0  0
  184.0600  177.1600  135.4300 C   0  0  0  0  0  0  0  0  0  0  0  0
  185.7930  177.8270  136.9010 N   0  0  0  0  0  0  0  0  0  0  0  0
  183.7240  177.1400  139.2550 C   0  0  1  0  0  3  0  0  0  0  0  0
  182.1670  175.2870  138.5460 C   0  0  1  0  0  0  0  0  0  0  0  0
  184.0520  179.0690  142.7580 Cl  0  0  0  0  0  0  0  0  0  0  0  0
  187.2890  175.9000  135.1080 C   0  0  0  0  0  1  0  0  0  0  0  0
  183.5470  174.5100  137.0580 O   0  0  0  0  0  0  0  0  0  0  0  0
  182.1200  178.5900  135.2420 C   0  0  0  0  0  0  0  0  0  0  0  0
  181.7050  178.8160  136.5490 O   0  0  0  0  0  1  0  0  0  0  0  0
  181.8350  179.4240  134.3460 O   0  0  0  0  0  0  0  0  0  0  0  0
  180.8370  173.8940  134.9150 C   0  0  0  0  0  1  0  0  0  0  0  0
  180.4020  174.9740  135.7210 O   0  0  0  0  0  0  0  0  0  0  0  0
  187.1020  173.9310  136.9660 O   0  0  0  0  0  0  0  0  0  0  0  0
  186.6730  172.6750  137.4020 C   0  0  0  0  0  1  0  0  0  0  0  0
  1 10  1  6  0  0  0
  1  3  1  0  0  0  0
  2 17  1  6  0  0  0
  2  9  1  0  0  0  0
  3 22  1  1  0  0  0
  5 15  2  0  0  0  0
  6 11  1  0  0  0  0
  6 30  1  6  0  0  0
  7 19  1  0  0  0  0
  9 20  1  0  0  0  0
  9 13  1  1  0  0  0
 10  3  1  0  0  0  0
 11 24  1  0  0  0  0
 12 23  1  1  0  0  0
 12  7  1  0  0  0  0
 12  6  1  0  0  0  0
 13  3  1  0  0  0  0
 14 25  1  0  0  0  0
 14 18  2  0  0  0  0
 15 21  1  0  0  0  0
 15  8  1  0  0  0  0
 16 21  1  0  0  0  0
 18  7  2  0  0  0  0
 19 17  1  0  0  0  0
 19  2  1  0  0  0  0
 20  4  1  6  0  0  0
 20  1  1  0  0  0  0
 21  4  1  6  0  0  0
 21  8  1  0  0  0  0
 24 16  1  0  0  0  0
 25 26  1  0  0  0  0
 27 25  2  0  0  0  0
 28 29  1  0  0  0  0
 29  5  1  0  0  0  0
 30 31  1  0  0  0  0
M  END
>  <MODEL>
3

>  <REMARK>
 VINA RESULT:      -3.5      2.572      5.466
  Name = 
  3 active torsions:
  status: ('A' for Active; 'I' for Inactive)
    1  A    between atoms: N_5  and  O_22
    2  A    between atoms: C_6  and  O_19
    3  A    between atoms: C_8  and  C_17
                            x       y       z     vdW  Elec       q    Type
                         _______ _______ _______ _____ _____    ______ ____

>  <TORSDO>
F 3

$$$$
=
 OpenBabel10222421473D

 31 35  0  0  1  0  0  0  0  0999 V2000
  183.9510  178.2920  139.7560 C   0  0  1  0  0  3  0  0  0  0  0  0
  181.2340  176.3080  138.6370 C   0  0  2  0  0  3  0  0  0  0  0  0
  183.3920  177.7280  140.9930 C   0  0  2  0  0  0  0  0  0  0  0  0
  184.7100  176.7250  137.9400 C   0  0  0  0  0  2  0  0  0  0  0  0
  187.4930  176.4250  135.7930 N   0  0  0  0  0  0  0  0  0  0  0  0
  181.6920  177.5810  135.0410 C   0  0  2  0  0  3  0  0  0  0  0  0
  181.8550  175.3480  136.1370 C   0  0  0  0  0  0  0  0  0  0  0  0
  186.5050  178.4220  137.3990 C   0  0  0  0  0  2  0  0  0  0  0  0
  182.6370  176.2600  139.2210 C   0  0  2  0  0  3  0  0  0  0  0  0
  184.7540  177.5920  140.6910 O   0  0  0  0  0  0  0  0  0  0  0  0
  183.0730  177.9360  134.4950 C   0  0  0  0  0  2  0  0  0  0  0  0
  181.4370  176.0710  134.8960 C   0  0  1  0  0  3  0  0  0  0  0  0
  182.5690  176.4930  140.7210 C   0  0  0  0  0  2  0  0  0  0  0  0
  183.9200  173.7570  136.0590 C   0  0  0  0  0  3  0  0  0  0  0  0
  186.7350  177.2230  136.4680 C   0  0  0  0  0  0  0  0  0  0  0  0
  184.5950  178.3020  135.9640 O   0  0  0  0  0  0  0  0  0  0  0  0
  180.7460  175.1070  138.6230 O   0  0  0  0  0  0  0  0  0  0  0  0
  182.8790  174.5400  136.1000 C   0  0  0  0  0  0  0  0  0  0  0  0
  181.1630  175.5740  137.3660 N   0  0  0  0  0  0  0  0  0  0  0  0
  183.5100  177.3610  138.6270 C   0  0  1  0  0  3  0  0  0  0  0  0
  185.3700  177.6800  136.9540 C   0  0  1  0  0  0  0  0  0  0  0  0
  183.0480  178.8490  142.3250 Cl  0  0  0  0  0  0  0  0  0  0  0  0
  179.9830  175.7360  134.5820 C   0  0  0  0  0  1  0  0  0  0  0  0
  184.0790  177.3250  135.2440 O   0  0  0  0  0  0  0  0  0  0  0  0
  184.4410  173.1120  137.2660 C   0  0  0  0  0  0  0  0  0  0  0  0
  185.5620  173.6160  137.9160 O   0  0  0  0  0  1  0  0  0  0  0  0
  183.8640  172.0930  137.7230 O   0  0  0  0  0  0  0  0  0  0  0  0
  187.7320  174.3070  134.6540 C   0  0  0  0  0  1  0  0  0  0  0  0
  186.9340  175.3990  135.0720 O   0  0  0  0  0  0  0  0  0  0  0  0
  180.7380  178.3330  134.3470 O   0  0  0  0  0  0  0  0  0  0  0  0
  181.0910  179.6640  134.5780 C   0  0  0  0  0  1  0  0  0  0  0  0
  1 10  1  1  0  0  0
  1  3  1  0  0  0  0
  2 17  1  1  0  0  0
  2  9  1  0  0  0  0
  3 22  1  1  0  0  0
  5 15  2  0  0  0  0
  6 30  1  6  0  0  0
  7 19  1  0  0  0  0
  9 13  1  1  0  0  0
 10  3  1  0  0  0  0
 11  6  1  0  0  0  0
 11 24  1  0  0  0  0
 12 23  1  1  0  0  0
 12  6  1  0  0  0  0
 12  7  1  0  0  0  0
 13  3  1  0  0  0  0
 14 18  2  0  0  0  0
 14 25  1  0  0  0  0
 15 21  1  0  0  0  0
 15  8  1  0  0  0  0
 16 21  1  0  0  0  0
 18  7  2  0  0  0  0
 19 17  1  0  0  0  0
 19  2  1  0  0  0  0
 20  4  1  1  0  0  0
 20  9  1  0  0  0  0
 20  1  1  0  0  0  0
 21  8  1  1  0  0  0
 21  4  1  0  0  0  0
 24 16  1  0  0  0  0
 25 27  2  0  0  0  0
 25 26  1  0  0  0  0
 28 29  1  0  0  0  0
 29  5  1  0  0  0  0
 30 31  1  0  0  0  0
M  END
>  <MODEL>
4

>  <REMARK>
 VINA RESULT:      -1.9      2.732      4.567
  Name = 
  3 active torsions:
  status: ('A' for Active; 'I' for Inactive)
    1  A    between atoms: N_5  and  O_22
    2  A    between atoms: C_6  and  O_19
    3  A    between atoms: C_8  and  C_17
                            x       y       z     vdW  Elec       q    Type
                         _______ _______ _______ _____ _____    ______ ____

>  <TORSDO>
F 3

$$$$
=
 OpenBabel10222421473D

 31 35  0  0  1  0  0  0  0  0999 V2000
  186.6110  177.7840  140.1000 C   0  0  1  0  0  3  0  0  0  0  0  0
  188.4090  175.6540  137.9100 C   0  0  2  0  0  3  0  0  0  0  0  0
  188.0020  178.2430  140.2230 C   0  0  2  0  0  0  0  0  0  0  0  0
  185.5330  177.7660  137.8270 C   0  0  0  0  0  2  0  0  0  0  0  0
  182.4340  178.7210  136.4370 N   0  0  0  0  0  0  0  0  0  0  0  0
  185.2660  173.5400  137.2680 C   0  0  2  0  0  3  0  0  0  0  0  0
  186.7390  174.9560  135.8400 C   0  0  0  0  0  0  0  0  0  0  0  0
  183.3570  178.3170  138.9920 C   0  0  0  0  0  2  0  0  0  0  0  0
  187.8990  177.0720  138.1060 C   0  0  2  0  0  3  0  0  0  0  0  0
  186.9710  179.1420  139.9150 O   0  0  0  0  0  0  0  0  0  0  0  0
  183.8740  174.1680  137.2710 C   0  0  0  0  0  2  0  0  0  0  0  0
  185.9190  173.7060  135.8850 C   0  0  1  0  0  3  0  0  0  0  0  0
  188.8340  177.8230  139.0380 C   0  0  0  0  0  2  0  0  0  0  0  0
  185.9600  176.9470  134.3460 C   0  0  0  0  0  3  0  0  0  0  0  0
  183.0610  178.3030  137.4860 C   0  0  0  0  0  0  0  0  0  0  0  0
  183.7050  176.0690  138.2530 O   0  0  0  0  0  0  0  0  0  0  0  0
  189.1810  175.6280  136.8690 O   0  0  0  0  0  0  0  0  0  0  0  0
  186.3620  175.9490  135.0840 C   0  0  0  0  0  0  0  0  0  0  0  0
  187.9060  175.0780  136.6550 N   0  0  0  0  0  0  0  0  0  0  0  0
  186.5170  177.0670  138.7530 C   0  0  1  0  0  3  0  0  0  0  0  0
  184.0900  177.4150  138.1640 C   0  0  1  0  0  0  0  0  0  0  0  0
  188.6640  178.4260  141.8600 Cl  0  0  0  0  0  0  0  0  0  0  0  0
  186.7880  172.5180  135.4870 C   0  0  0  0  0  1  0  0  0  0  0  0
  183.9460  175.5460  137.0670 O   0  0  0  0  0  0  0  0  0  0  0  0
  186.6600  178.2320  134.3490 C   0  0  0  0  0  0  0  0  0  0  0  0
  188.0500  178.2870  134.3460 O   0  0  0  0  0  1  0  0  0  0  0  0
  185.9960  179.3000  134.3460 O   0  0  0  0  0  0  0  0  0  0  0  0
  181.9710  177.0820  134.7220 C   0  0  0  0  0  1  0  0  0  0  0  0
  182.7220  178.1800  135.2080 O   0  0  0  0  0  0  0  0  0  0  0  0
  185.1410  172.1920  137.6200 O   0  0  0  0  0  0  0  0  0  0  0  0
  183.8120  171.8680  137.3420 C   0  0  0  0  0  1  0  0  0  0  0  0
  1 10  1  6  0  0  0
  1  3  1  0  0  0  0
  2 17  1  6  0  0  0
  2  9  1  0  0  0  0
  3 22  1  1  0  0  0
  5 15  2  0  0  0  0
  6 11  1  0  0  0  0
  6 30  1  6  0  0  0
  7 12  1  0  0  0  0
  7 19  1  0  0  0  0
  9 20  1  0  0  0  0
  9 13  1  1  0  0  0
 10  3  1  0  0  0  0
 12 23  1  1  0  0  0
 12  6  1  0  0  0  0
 13  3  1  0  0  0  0
 14 25  1  0  0  0  0
 14 18  2  0  0  0  0
 15 21  1  0  0  0  0
 15  8  1  0  0  0  0
 18  7  2  0  0  0  0
 19 17  1  0  0  0  0
 19  2  1  0  0  0  0
 20  4  1  6  0  0  0
 20  1  1  0  0  0  0
 21  4  1  6  0  0  0
 21 16  1  0  0  0  0
 21  8  1  0  0  0  0
 24 11  1  0  0  0  0
 24 16  1  0  0  0  0
 26 25  1  0  0  0  0
 27 25  2  0  0  0  0
 28 29  1  0  0  0  0
 29  5  1  0  0  0  0
 31 30  1  0  0  0  0
M  END
>  <MODEL>
5

>  <REMARK>
 VINA RESULT:      -1.5      3.024      6.392
  Name = 
  3 active torsions:
  status: ('A' for Active; 'I' for Inactive)
    1  A    between atoms: N_5  and  O_22
    2  A    between atoms: C_6  and  O_19
    3  A    between atoms: C_8  and  C_17
                            x       y       z     vdW  Elec       q    Type
                         _______ _______ _______ _____ _____    ______ ____

>  <TORSDO>
F 3

$$$$
=
 OpenBabel10222421473D

 31 35  0  0  1  0  0  0  0  0999 V2000
  189.6970  176.9340  140.1540 C   0  0  1  0  0  3  0  0  0  0  0  0
  191.0160  174.3310  138.1400 C   0  0  2  0  0  3  0  0  0  0  0  0
  191.1370  176.9540  140.4490 C   0  0  2  0  0  0  0  0  0  0  0  0
  188.9400  177.2110  137.7720 C   0  0  0  0  0  2  0  0  0  0  0  0
  186.4580  179.0370  136.0530 N   0  0  0  0  0  0  0  0  0  0  0  0
  187.4810  173.2550  137.0880 C   0  0  2  0  0  3  0  0  0  0  0  0
  189.4700  174.1420  135.8750 C   0  0  0  0  0  0  0  0  0  0  0  0
  186.9090  178.4070  138.6880 C   0  0  0  0  0  2  0  0  0  0  0  0
  190.9370  175.8400  138.3080 C   0  0  2  0  0  3  0  0  0  0  0  0
  190.4690  178.1170  140.0430 O   0  0  0  0  0  0  0  0  0  0  0  0
  186.3530  174.2730  136.9440 C   0  0  0  0  0  2  0  0  0  0  0  0
  188.3120  173.1970  135.7950 C   0  0  1  0  0  3  0  0  0  0  0  0
  191.9390  176.2870  139.3590 C   0  0  0  0  0  2  0  0  0  0  0  0
  189.5070  176.2550  134.3460 C   0  0  0  0  0  3  0  0  0  0  0  0
  186.8010  178.4630  137.1570 C   0  0  0  0  0  0  0  0  0  0  0  0
  186.6490  176.1490  137.9430 O   0  0  0  0  0  0  0  0  0  0  0  0
  191.8610  174.0600  137.1950 O   0  0  0  0  0  0  0  0  0  0  0  0
  189.5000  175.1920  135.1020 C   0  0  0  0  0  0  0  0  0  0  0  0
  190.5150  173.9170  136.8220 N   0  0  0  0  0  0  0  0  0  0  0  0
  189.5510  176.2600  138.7900 C   0  0  1  0  0  3  0  0  0  0  0  0
  187.4290  177.3160  137.9300 C   0  0  1  0  0  0  0  0  0  0  0  0
  191.6270  176.9510  142.1550 Cl  0  0  0  0  0  0  0  0  0  0  0  0
  188.8240  171.7980  135.4740 C   0  0  0  0  0  1  0  0  0  0  0  0
  186.8590  175.5620  136.7810 O   0  0  0  0  0  0  0  0  0  0  0  0
  190.5560  177.2690  134.4600 C   0  0  0  0  0  0  0  0  0  0  0  0
  191.8990  176.9080  134.4710 O   0  0  0  0  0  0  0  0  0  0  0  0
  190.2390  178.4830  134.5410 O   0  0  0  0  0  1  0  0  0  0  0  0
  185.8470  177.4000  134.3830 C   0  0  0  0  0  1  0  0  0  0  0  0
  186.7110  178.4170  134.8540 O   0  0  0  0  0  0  0  0  0  0  0  0
  186.9170  172.0120  137.3930 O   0  0  0  0  0  0  0  0  0  0  0  0
  185.5580  172.1510  137.1010 C   0  0  0  0  0  1  0  0  0  0  0  0
  1 10  1  6  0  0  0
  1  3  1  0  0  0  0
  2 17  1  6  0  0  0
  2  9  1  0  0  0  0
  3 22  1  1  0  0  0
  5 15  2  0  0  0  0
  6 30  1  6  0  0  0
  7 19  1  0  0  0  0
  9 20  1  0  0  0  0
  9 13  1  1  0  0  0
 10  3  1  0  0  0  0
 11  6  1  0  0  0  0
 12 23  1  1  0  0  0
 12  7  1  0  0  0  0
 12  6  1  0  0  0  0
 13  3  1  0  0  0  0
 14 25  1  0  0  0  0
 14 18  2  0  0  0  0
 15 21  1  0  0  0  0
 15  8  1  0  0  0  0
 18  7  2  0  0  0  0
 19 17  1  0  0  0  0
 19  2  1  0  0  0  0
 20  4  1  6  0  0  0
 20  1  1  0  0  0  0
 21  4  1  6  0  0  0
 21 16  1  0  0  0  0
 21  8  1  0  0  0  0
 24 11  1  0  0  0  0
 24 16  1  0  0  0  0
 25 26  2  0  0  0  0
 25 27  1  0  0  0  0
 28 29  1  0  0  0  0
 29  5  1  0  0  0  0
 31 30  1  0  0  0  0
M  END
>  <MODEL>
6

>  <REMARK>
 VINA RESULT:      -1.3      5.034      8.455
  Name = 
  3 active torsions:
  status: ('A' for Active; 'I' for Inactive)
    1  A    between atoms: N_5  and  O_22
    2  A    between atoms: C_6  and  O_19
    3  A    between atoms: C_8  and  C_17
                            x       y       z     vdW  Elec       q    Type
                         _______ _______ _______ _____ _____    ______ ____

>  <TORSDO>
F 3

$$$$
=
 OpenBabel10222421473D

 31 35  0  0  1  0  0  0  0  0999 V2000
  185.9600  177.4120  138.8300 C   0  0  1  0  0  3  0  0  0  0  0  0
  184.0730  174.8730  137.2290 C   0  0  2  0  0  3  0  0  0  0  0  0
  186.8970  176.8390  137.8520 C   0  0  2  0  0  0  0  0  0  0  0  0
  183.7690  178.3410  138.0160 C   0  0  0  0  0  2  0  0  0  0  0  0
  181.8180  181.2230  138.5950 N   0  0  0  0  0  0  0  0  0  0  0  0
  181.1580  175.3960  139.6750 C   0  0  2  0  0  3  0  0  0  0  0  0
  181.4380  175.6540  137.2120 C   0  0  0  0  0  0  0  0  0  0  0  0
  183.9450  180.0460  139.8750 C   0  0  0  0  0  2  0  0  0  0  0  0
  184.6890  176.2510  137.0470 C   0  0  2  0  0  3  0  0  0  0  0  0
  186.6480  178.2180  137.8890 O   0  0  0  0  0  0  0  0  0  0  0  0
  180.8490  176.7730  140.2580 C   0  0  0  0  0  2  0  0  0  0  0  0
  180.4930  175.2430  138.2960 C   0  0  1  0  0  3  0  0  0  0  0  0
  186.1720  176.1080  136.7490 C   0  0  0  0  0  2  0  0  0  0  0  0
  180.9480  177.8170  135.8390 C   0  0  0  0  0  3  0  0  0  0  0  0
  182.6770  180.3890  139.0790 C   0  0  0  0  0  0  0  0  0  0  0  0
  182.4430  178.2080  140.1670 O   0  0  0  0  0  0  0  0  0  0  0  0
  183.6240  174.4620  136.0850 O   0  0  0  0  0  0  0  0  0  0  0  0
  181.1900  176.7270  136.5130 C   0  0  0  0  0  0  0  0  0  0  0  0
  182.6270  174.9000  136.9720 N   0  0  0  0  0  0  0  0  0  0  0  0
  184.5580  177.0760  138.3230 C   0  0  1  0  0  3  0  0  0  0  0  0
  183.2070  178.9800  139.2790 C   0  0  1  0  0  0  0  0  0  0  0  0
  188.5070  176.3720  138.4330 Cl  0  0  0  0  0  0  0  0  0  0  0  0
  179.9990  173.8270  138.0240 C   0  0  0  0  0  1  0  0  0  0  0  0
  181.4040  177.7840  139.4740 O   0  0  0  0  0  0  0  0  0  0  0  0
  181.8920  178.3280  134.8440 C   0  0  0  0  0  0  0  0  0  0  0  0
  181.8600  179.6610  134.4490 O   0  0  0  0  0  1  0  0  0  0  0  0
  182.7490  177.5540  134.3460 O   0  0  0  0  0  0  0  0  0  0  0  0
  180.0160  181.6500  137.0420 C   0  0  0  0  0  1  0  0  0  0  0  0
  180.7590  180.7590  137.8540 O   0  0  0  0  0  0  0  0  0  0  0  0
  180.7050  174.4260  140.5750 O   0  0  0  0  0  0  0  0  0  0  0  0
  180.1900  175.1470  141.6540 C   0  0  0  0  0  1  0  0  0  0  0  0
  1 10  1  6  0  0  0
  2 17  1  6  0  0  0
  3 10  1  0  0  0  0
  3 22  1  1  0  0  0
  3  1  1  0  0  0  0
  5 15  2  0  0  0  0
  6 11  1  0  0  0  0
  6 30  1  1  0  0  0
  7 12  1  0  0  0  0
  9 13  1  1  0  0  0
  9  2  1  0  0  0  0
  9 20  1  0  0  0  0
 12 23  1  6  0  0  0
 12  6  1  0  0  0  0
 13  3  1  0  0  0  0
 14 18  2  0  0  0  0
 15 21  1  0  0  0  0
 15  8  1  0  0  0  0
 17 19  1  0  0  0  0
 18  7  2  0  0  0  0
 19  7  1  0  0  0  0
 19  2  1  0  0  0  0
 20  4  1  6  0  0  0
 20  1  1  0  0  0  0
 21  4  1  6  0  0  0
 21  8  1  0  0  0  0
 21 16  1  0  0  0  0
 24 16  1  0  0  0  0
 24 11  1  0  0  0  0
 25 14  1  0  0  0  0
 26 25  1  0  0  0  0
 27 25  2  0  0  0  0
 28 29  1  0  0  0  0
 29  5  1  0  0  0  0
 30 31  1  0  0  0  0
M  END
>  <MODEL>
7

>  <REMARK>
 VINA RESULT:      -1.2      1.818      5.409
  Name = 
  3 active torsions:
  status: ('A' for Active; 'I' for Inactive)
    1  A    between atoms: N_5  and  O_22
    2  A    between atoms: C_6  and  O_19
    3  A    between atoms: C_8  and  C_17
                            x       y       z     vdW  Elec       q    Type
                         _______ _______ _______ _____ _____    ______ ____

>  <TORSDO>
F 3

$$$$
