=
 OpenBabel10232407463D

 25 26  0  0  1  0  0  0  0  0999 V2000
  191.7980  176.9620  145.8690 C   0  0  0  0  0  2  0  0  0  0  0  0
  189.8700  177.2140  144.1720 C   0  0  2  0  0  3  0  0  0  0  0  0
  192.1120  177.1730  148.2100 O   0  0  0  0  0  1  0  0  0  0  0  0
  188.7620  177.0570  146.4500 C   0  0  1  0  0  3  0  0  0  0  0  0
  188.9760  177.9050  145.2090 C   0  0  0  0  0  2  0  0  0  0  0  0
  190.9970  176.3230  144.7300 C   0  0  0  0  0  2  0  0  0  0  0  0
  191.2150  176.6780  147.2600 C   0  0  1  0  0  0  0  0  0  0  0  0
  189.8720  177.3490  147.4280 C   0  0  0  0  0  0  0  0  0  0  0  0
  189.7080  178.1790  148.3120 O   0  0  0  0  0  0  0  0  0  0  0  0
  191.0730  175.1800  147.4860 C   0  0  0  0  0  1  0  0  0  0  0  0
  191.7720  178.4810  143.2290 N   0  0  0  0  0  1  0  0  0  0  0  0
  190.3450  178.2190  143.1170 C   0  0  1  0  0  3  0  0  0  0  0  0
  190.8660  177.0620  140.9830 N   0  0  0  0  0  0  0  0  0  0  0  0
  190.5470  176.6450  139.7300 C   0  0  0  0  0  3  0  0  0  0  0  0
  189.3310  176.9440  139.2020 N   0  0  0  0  0  0  0  0  0  0  0  0
  189.9860  177.7870  141.7280 C   0  0  0  0  0  0  0  0  0  0  0  0
  188.7280  178.0960  141.1990 C   0  0  0  0  0  0  0  0  0  0  0  0
  188.4200  177.6580  139.9120 C   0  0  0  0  0  3  0  0  0  0  0  0
  187.8190  178.8040  141.9130 F   0  0  0  0  0  0  0  0  0  0  0  0
  187.3780  177.3200  147.0340 C   0  0  0  0  0  2  0  0  0  0  0  0
  185.5680  178.8100  146.0760 C   0  0  0  0  0  0  0  0  0  0  0  0
  186.4420  177.6840  145.9790 N   0  0  0  0  0  2  0  0  0  0  0  0
  185.5570  179.5280  147.1120 O   0  0  0  0  0  0  0  0  0  0  0  0
  184.6910  179.1620  144.9280 C   0  0  0  0  0  2  0  0  0  0  0  0
  183.3000  179.0780  145.3330 N   0  0  0  0  0  1  0  0  0  0  0  0
  1  7  1  0  0  0  0
  2 12  1  1  0  0  0
  2  6  1  0  0  0  0
  2  5  1  0  0  0  0
  4 20  1  1  0  0  0
  4  8  1  0  0  0  0
  5  4  1  0  0  0  0
  6  1  1  0  0  0  0
  7  8  1  0  0  0  0
  7 10  1  1  0  0  0
  7  3  1  0  0  0  0
  8  9  2  0  0  0  0
 12 11  1  6  0  0  0
 13 16  1  0  0  0  0
 14 13  2  0  0  0  0
 15 14  1  0  0  0  0
 15 18  2  0  0  0  0
 16 12  1  0  0  0  0
 17 16  2  0  0  0  0
 17 19  1  0  0  0  0
 18 17  1  0  0  0  0
 21 23  2  0  0  0  0
 22 21  1  0  0  0  0
 22 20  1  0  0  0  0
 24 25  1  0  0  0  0
 24 21  1  0  0  0  0
M  END
>  <MODEL>
1

>  <REMARK>
 VINA RESULT:      -8.1      0.000      0.000
  Name = 
  5 active torsions:
  status: ('A' for Active; 'I' for Inactive)
    1  A    between atoms: C_3  and  C_14
    2  A    between atoms: C_4  and  C_13
    3  A    between atoms: C_7  and  C_15
    4  A    between atoms: C_12  and  C_14
    5  A    between atoms: C_15  and  N_17
                            x       y       z     vdW  Elec       q    Type
                         _______ _______ _______ _____ _____    ______ ____

>  <TORSDO>
F 5

$$$$
=
 OpenBabel10232407463D

 25 26  0  0  1  0  0  0  0  0999 V2000
  191.1760  177.7850  141.9980 C   0  0  0  0  0  2  0  0  0  0  0  0
  188.9190  177.2100  140.8890 C   0  0  2  0  0  3  0  0  0  0  0  0
  191.9860  178.2800  144.1720 O   0  0  0  0  0  1  0  0  0  0  0  0
  188.5680  176.8590  143.3780 C   0  0  1  0  0  3  0  0  0  0  0  0
  188.1360  177.6260  142.1400 C   0  0  0  0  0  2  0  0  0  0  0  0
  190.3930  176.8170  141.1070 C   0  0  0  0  0  2  0  0  0  0  0  0
  191.1130  177.4280  143.4900 C   0  0  1  0  0  0  0  0  0  0  0  0
  189.7110  177.5980  144.0260 C   0  0  0  0  0  0  0  0  0  0  0  0
  189.4940  178.3870  144.9360 O   0  0  0  0  0  0  0  0  0  0  0  0
  191.5800  175.9980  143.7190 C   0  0  0  0  0  1  0  0  0  0  0  0
  189.8930  178.3440  138.9190 N   0  0  0  0  0  1  0  0  0  0  0  0
  188.7120  178.2290  139.7630 C   0  0  1  0  0  3  0  0  0  0  0  0
  186.3420  178.6220  139.1380 N   0  0  0  0  0  0  0  0  0  0  0  0
  185.2370  178.3710  138.3890 C   0  0  0  0  0  3  0  0  0  0  0  0
  185.2710  177.4170  137.4220 N   0  0  0  0  0  0  0  0  0  0  0  0
  187.4960  177.9240  138.9440 C   0  0  0  0  0  0  0  0  0  0  0  0
  187.5470  176.9440  137.9470 C   0  0  0  0  0  0  0  0  0  0  0  0
  186.4020  176.7030  137.1890 C   0  0  0  0  0  3  0  0  0  0  0  0
  188.6800  176.2360  137.7130 F   0  0  0  0  0  0  0  0  0  0  0  0
  187.3820  176.6680  144.3170 C   0  0  0  0  0  2  0  0  0  0  0  0
  185.7700  178.5180  144.9450 C   0  0  0  0  0  0  0  0  0  0  0  0
  186.3160  177.6060  143.9900 N   0  0  0  0  0  2  0  0  0  0  0  0
  186.1800  178.5220  146.1370 O   0  0  0  0  0  0  0  0  0  0  0  0
  184.7350  179.4960  144.5190 C   0  0  0  0  0  2  0  0  0  0  0  0
  183.4710  179.1800  145.1600 N   0  0  0  0  0  1  0  0  0  0  0  0
  1  7  1  0  0  0  0
  2 12  1  6  0  0  0
  2  6  1  0  0  0  0
  2  5  1  0  0  0  0
  4  8  1  0  0  0  0
  4 20  1  1  0  0  0
  5  4  1  0  0  0  0
  6  1  1  0  0  0  0
  7 10  1  1  0  0  0
  7  8  1  0  0  0  0
  7  3  1  0  0  0  0
  8  9  2  0  0  0  0
 12 11  1  6  0  0  0
 14 13  2  0  0  0  0
 15 14  1  0  0  0  0
 16 13  1  0  0  0  0
 16 12  1  0  0  0  0
 17 16  2  0  0  0  0
 18 15  2  0  0  0  0
 18 17  1  0  0  0  0
 19 17  1  0  0  0  0
 21 23  2  0  0  0  0
 22 20  1  0  0  0  0
 22 21  1  0  0  0  0
 24 21  1  0  0  0  0
 24 25  1  0  0  0  0
M  END
>  <MODEL>
2

>  <REMARK>
 VINA RESULT:      -7.2      2.555      3.619
  Name = 
  5 active torsions:
  status: ('A' for Active; 'I' for Inactive)
    1  A    between atoms: C_3  and  C_14
    2  A    between atoms: C_4  and  C_13
    3  A    between atoms: C_7  and  C_15
    4  A    between atoms: C_12  and  C_14
    5  A    between atoms: C_15  and  N_17
                            x       y       z     vdW  Elec       q    Type
                         _______ _______ _______ _____ _____    ______ ____

>  <TORSDO>
F 5

$$$$
=
 OpenBabel10232407463D

 25 26  0  0  1  0  0  0  0  0999 V2000
  189.8390  177.2650  145.7530 C   0  0  0  0  0  2  0  0  0  0  0  0
  187.8620  177.8140  144.1880 C   0  0  2  0  0  3  0  0  0  0  0  0
  191.8820  176.0660  145.6410 O   0  0  0  0  0  1  0  0  0  0  0  0
  189.7330  177.0120  142.6720 C   0  0  1  0  0  3  0  0  0  0  0  0
  188.3150  176.7700  143.1600 C   0  0  0  0  0  2  0  0  0  0  0  0
  188.9490  178.3500  145.1390 C   0  0  0  0  0  2  0  0  0  0  0  0
  191.0800  176.9430  144.9070 C   0  0  1  0  0  0  0  0  0  0  0  0
  190.6870  176.3010  143.5980 C   0  0  0  0  0  0  0  0  0  0  0  0
  191.0860  175.1770  143.3210 O   0  0  0  0  0  0  0  0  0  0  0  0
  191.8880  178.2040  144.6390 C   0  0  0  0  0  1  0  0  0  0  0  0
  186.6950  177.5180  146.3480 N   0  0  0  0  0  1  0  0  0  0  0  0
  186.5920  177.3440  144.9060 C   0  0  1  0  0  3  0  0  0  0  0  0
  185.1700  178.1270  143.0270 N   0  0  0  0  0  0  0  0  0  0  0  0
  184.0500  178.7120  142.5280 C   0  0  0  0  0  3  0  0  0  0  0  0
  183.0970  179.1880  143.3700 N   0  0  0  0  0  0  0  0  0  0  0  0
  185.3630  178.0130  144.3710 C   0  0  0  0  0  0  0  0  0  0  0  0
  184.3860  178.4930  145.2490 C   0  0  0  0  0  0  0  0  0  0  0  0
  183.2440  179.0890  144.7160 C   0  0  0  0  0  3  0  0  0  0  0  0
  184.5340  178.3870  146.5930 F   0  0  0  0  0  0  0  0  0  0  0  0
  189.8730  176.5620  141.2210 C   0  0  0  0  0  2  0  0  0  0  0  0
  189.2730  177.5920  138.9870 C   0  0  0  0  0  0  0  0  0  0  0  0
  188.9830  177.3300  140.3620 N   0  0  0  0  0  2  0  0  0  0  0  0
  190.3460  177.1830  138.4680 O   0  0  0  0  0  0  0  0  0  0  0  0
  188.2830  178.3220  138.1530 C   0  0  0  0  0  2  0  0  0  0  0  0
  188.9100  179.4890  137.5590 N   0  0  0  0  0  1  0  0  0  0  0  0
  2 12  1  1  0  0  0
  2  6  1  0  0  0  0
  4 20  1  6  0  0  0
  4  5  1  0  0  0  0
  4  8  1  0  0  0  0
  5  2  1  0  0  0  0
  6  1  1  0  0  0  0
  7 10  1  6  0  0  0
  7  3  1  0  0  0  0
  7  1  1  0  0  0  0
  8  7  1  0  0  0  0
  9  8  2  0  0  0  0
 12 11  1  1  0  0  0
 13 16  1  0  0  0  0
 14 13  2  0  0  0  0
 14 15  1  0  0  0  0
 15 18  2  0  0  0  0
 16 12  1  0  0  0  0
 16 17  2  0  0  0  0
 17 19  1  0  0  0  0
 18 17  1  0  0  0  0
 21 22  1  0  0  0  0
 22 20  1  0  0  0  0
 23 21  2  0  0  0  0
 24 21  1  0  0  0  0
 25 24  1  0  0  0  0
M  END
>  <MODEL>
3

>  <REMARK>
 VINA RESULT:      -7.2      3.029      5.923
  Name = 
  5 active torsions:
  status: ('A' for Active; 'I' for Inactive)
    1  A    between atoms: C_3  and  C_14
    2  A    between atoms: C_4  and  C_13
    3  A    between atoms: C_7  and  C_15
    4  A    between atoms: C_12  and  C_14
    5  A    between atoms: C_15  and  N_17
                            x       y       z     vdW  Elec       q    Type
                         _______ _______ _______ _____ _____    ______ ____

>  <TORSDO>
F 5

$$$$
=
 OpenBabel10232407463D

 25 26  0  0  1  0  0  0  0  0999 V2000
  189.7920  177.7450  146.4820 C   0  0  0  0  0  2  0  0  0  0  0  0
  188.8220  177.4570  144.1080 C   0  0  2  0  0  3  0  0  0  0  0  0
  189.0190  178.4140  148.6230 O   0  0  0  0  0  1  0  0  0  0  0  0
  186.8150  177.5910  145.6570 C   0  0  1  0  0  3  0  0  0  0  0  0
  187.5430  178.2170  144.4810 C   0  0  0  0  0  2  0  0  0  0  0  0
  189.5990  176.8200  145.2760 C   0  0  0  0  0  2  0  0  0  0  0  0
  188.6530  177.6530  147.5090 C   0  0  1  0  0  0  0  0  0  0  0  0
  187.3630  178.1830  146.9310 C   0  0  0  0  0  0  0  0  0  0  0  0
  186.8010  179.1350  147.4550 O   0  0  0  0  0  0  0  0  0  0  0  0
  188.4600  176.2150  147.9680 C   0  0  0  0  0  1  0  0  0  0  0  0
  191.0850  178.3150  143.6050 N   0  0  0  0  0  1  0  0  0  0  0  0
  189.6950  178.3010  143.1740 C   0  0  1  0  0  3  0  0  0  0  0  0
  190.5140  177.0290  141.2050 N   0  0  0  0  0  0  0  0  0  0  0  0
  190.4110  176.6040  139.9190 C   0  0  0  0  0  3  0  0  0  0  0  0
  189.3630  177.0020  139.1510 N   0  0  0  0  0  0  0  0  0  0  0  0
  189.5800  177.8610  141.7470 C   0  0  0  0  0  0  0  0  0  0  0  0
  188.4920  178.2720  140.9690 C   0  0  0  0  0  0  0  0  0  0  0  0
  188.4060  177.8240  139.6530 C   0  0  0  0  0  3  0  0  0  0  0  0
  187.5350  179.0890  141.4750 F   0  0  0  0  0  0  0  0  0  0  0  0
  185.3100  177.7930  145.5120 C   0  0  0  0  0  2  0  0  0  0  0  0
  183.6940  178.5980  143.7370 C   0  0  0  0  0  0  0  0  0  0  0  0
  184.9660  178.0740  144.1250 N   0  0  0  0  0  2  0  0  0  0  0  0
  182.7970  178.8120  144.5950 O   0  0  0  0  0  0  0  0  0  0  0  0
  183.4400  178.9290  142.3100 C   0  0  0  0  0  2  0  0  0  0  0  0
  184.3010  178.1240  141.4610 N   0  0  0  0  0  1  0  0  0  0  0  0
  1  7  1  0  0  0  0
  2 12  1  1  0  0  0
  2  5  1  0  0  0  0
  2  6  1  0  0  0  0
  4 20  1  6  0  0  0
  4  8  1  0  0  0  0
  5  4  1  0  0  0  0
  6  1  1  0  0  0  0
  7 10  1  1  0  0  0
  7  3  1  0  0  0  0
  8  9  2  0  0  0  0
  8  7  1  0  0  0  0
 12 11  1  1  0  0  0
 13 16  1  0  0  0  0
 14 13  2  0  0  0  0
 15 18  2  0  0  0  0
 15 14  1  0  0  0  0
 16 12  1  0  0  0  0
 17 19  1  0  0  0  0
 17 16  2  0  0  0  0
 18 17  1  0  0  0  0
 21 22  1  0  0  0  0
 21 23  2  0  0  0  0
 22 20  1  0  0  0  0
 24 21  1  0  0  0  0
 25 24  1  0  0  0  0
M  END
>  <MODEL>
4

>  <REMARK>
 VINA RESULT:      -7.1      1.646      2.226
  Name = 
  5 active torsions:
  status: ('A' for Active; 'I' for Inactive)
    1  A    between atoms: C_3  and  C_14
    2  A    between atoms: C_4  and  C_13
    3  A    between atoms: C_7  and  C_15
    4  A    between atoms: C_12  and  C_14
    5  A    between atoms: C_15  and  N_17
                            x       y       z     vdW  Elec       q    Type
                         _______ _______ _______ _____ _____    ______ ____

>  <TORSDO>
F 5

$$$$
=
 OpenBabel10232407463D

 25 26  0  0  1  0  0  0  0  0999 V2000
  189.4350  176.5320  147.4700 C   0  0  0  0  0  2  0  0  0  0  0  0
  188.2670  178.0110  145.7080 C   0  0  2  0  0  3  0  0  0  0  0  0
  191.4680  175.3270  147.6790 O   0  0  0  0  0  1  0  0  0  0  0  0
  190.6960  177.8710  144.9830 C   0  0  1  0  0  3  0  0  0  0  0  0
  189.2520  177.5800  144.6140 C   0  0  0  0  0  2  0  0  0  0  0  0
  188.7600  177.8720  147.1610 C   0  0  0  0  0  2  0  0  0  0  0  0
  190.9500  176.5390  147.2140 C   0  0  1  0  0  0  0  0  0  0  0  0
  191.2450  176.6890  145.7400 C   0  0  0  0  0  0  0  0  0  0  0  0
  191.8690  175.8180  145.1480 O   0  0  0  0  0  0  0  0  0  0  0  0
  191.6200  177.6640  147.9900 C   0  0  0  0  0  1  0  0  0  0  0  0
  186.1180  177.2890  146.6940 N   0  0  0  0  0  1  0  0  0  0  0  0
  186.8870  177.3920  145.4630 C   0  0  1  0  0  3  0  0  0  0  0  0
  185.2240  179.0980  144.7620 N   0  0  0  0  0  0  0  0  0  0  0  0
  184.5350  179.7910  143.8180 C   0  0  0  0  0  3  0  0  0  0  0  0
  184.7360  179.5300  142.5000 N   0  0  0  0  0  0  0  0  0  0  0  0
  186.1180  178.1310  144.4110 C   0  0  0  0  0  0  0  0  0  0  0  0
  186.3380  177.8580  143.0570 C   0  0  0  0  0  0  0  0  0  0  0  0
  185.6220  178.5800  142.1050 C   0  0  0  0  0  3  0  0  0  0  0  0
  187.2290  176.9120  142.6650 F   0  0  0  0  0  0  0  0  0  0  0  0
  191.5020  178.1960  143.7300 C   0  0  0  0  0  2  0  0  0  0  0  0
  191.3380  177.4200  141.3260 C   0  0  0  0  0  0  0  0  0  0  0  0
  190.7330  177.8850  142.5340 N   0  0  0  0  0  2  0  0  0  0  0  0
  192.5880  177.2880  141.2430 O   0  0  0  0  0  0  0  0  0  0  0  0
  190.4810  177.0520  140.1680 C   0  0  0  0  0  2  0  0  0  0  0  0
  189.1840  177.6920  140.2970 N   0  0  0  0  0  1  0  0  0  0  0  0
  2 12  1  1  0  0  0
  2  6  1  0  0  0  0
  4 20  1  6  0  0  0
  4  8  1  0  0  0  0
  5  4  1  0  0  0  0
  5  2  1  0  0  0  0
  6  1  1  0  0  0  0
  7  1  1  0  0  0  0
  7  3  1  0  0  0  0
  7 10  1  1  0  0  0
  8  7  1  0  0  0  0
  9  8  2  0  0  0  0
 12 11  1  1  0  0  0
 14 13  2  0  0  0  0
 15 14  1  0  0  0  0
 16 13  1  0  0  0  0
 16 12  1  0  0  0  0
 17 16  2  0  0  0  0
 18 15  2  0  0  0  0
 18 17  1  0  0  0  0
 19 17  1  0  0  0  0
 21 22  1  0  0  0  0
 22 20  1  0  0  0  0
 23 21  2  0  0  0  0
 24 25  1  0  0  0  0
 24 21  1  0  0  0  0
M  END
>  <MODEL>
5

>  <REMARK>
 VINA RESULT:      -7.0      2.225      5.152
  Name = 
  5 active torsions:
  status: ('A' for Active; 'I' for Inactive)
    1  A    between atoms: C_3  and  C_14
    2  A    between atoms: C_4  and  C_13
    3  A    between atoms: C_7  and  C_15
    4  A    between atoms: C_12  and  C_14
    5  A    between atoms: C_15  and  N_17
                            x       y       z     vdW  Elec       q    Type
                         _______ _______ _______ _____ _____    ______ ____

>  <TORSDO>
F 5

$$$$
=
 OpenBabel10232407463D

 25 26  0  0  1  0  0  0  0  0999 V2000
  187.2050  178.4030  145.2670 C   0  0  0  0  0  2  0  0  0  0  0  0
  187.0430  177.2880  142.9450 C   0  0  2  0  0  3  0  0  0  0  0  0
  185.9290  179.9100  146.5810 O   0  0  0  0  0  1  0  0  0  0  0  0
  184.7160  178.1690  143.4460 C   0  0  1  0  0  3  0  0  0  0  0  0
  185.9120  178.2290  142.5120 C   0  0  0  0  0  2  0  0  0  0  0  0
  187.2280  177.0990  144.4630 C   0  0  0  0  0  2  0  0  0  0  0  0
  185.7980  178.8060  145.7340 C   0  0  1  0  0  0  0  0  0  0  0  0
  184.9230  179.1660  144.5570 C   0  0  0  0  0  0  0  0  0  0  0  0
  184.4410  180.2880  144.4720 O   0  0  0  0  0  0  0  0  0  0  0  0
  185.1530  177.6800  146.5290 C   0  0  0  0  0  1  0  0  0  0  0  0
  188.2460  178.9150  141.5230 N   0  0  0  0  0  1  0  0  0  0  0  0
  188.3400  177.6320  142.2040 C   0  0  1  0  0  3  0  0  0  0  0  0
  190.0420  178.7430  143.6310 N   0  0  0  0  0  0  0  0  0  0  0  0
  191.1090  178.7210  144.4710 C   0  0  0  0  0  3  0  0  0  0  0  0
  191.6840  177.5370  144.8100 N   0  0  0  0  0  0  0  0  0  0  0  0
  189.5330  177.5920  143.1100 C   0  0  0  0  0  0  0  0  0  0  0  0
  190.1110  176.3660  143.4570 C   0  0  0  0  0  0  0  0  0  0  0  0
  191.2050  176.3650  144.3200 C   0  0  0  0  0  3  0  0  0  0  0  0
  189.6260  175.1960  142.9710 F   0  0  0  0  0  0  0  0  0  0  0  0
  183.4280  178.4140  142.6660 C   0  0  0  0  0  2  0  0  0  0  0  0
  182.7120  179.0510  140.3220 C   0  0  0  0  0  0  0  0  0  0  0  0
  183.7280  178.7590  141.2830 N   0  0  0  0  0  2  0  0  0  0  0  0
  181.4930  178.9900  140.6370 O   0  0  0  0  0  0  0  0  0  0  0  0
  183.0970  179.4670  138.9480 C   0  0  0  0  0  2  0  0  0  0  0  0
  184.3500  180.2000  138.9920 N   0  0  0  0  0  1  0  0  0  0  0  0
  1  7  1  0  0  0  0
  2 12  1  1  0  0  0
  2  6  1  0  0  0  0
  4 20  1  6  0  0  0
  4  8  1  0  0  0  0
  5  2  1  0  0  0  0
  5  4  1  0  0  0  0
  6  1  1  0  0  0  0
  7 10  1  1  0  0  0
  7  3  1  0  0  0  0
  8  7  1  0  0  0  0
  9  8  2  0  0  0  0
 12 11  1  1  0  0  0
 12 16  1  0  0  0  0
 13 14  1  0  0  0  0
 14 15  2  0  0  0  0
 16 17  1  0  0  0  0
 16 13  2  0  0  0  0
 17 18  2  0  0  0  0
 18 15  1  0  0  0  0
 19 17  1  0  0  0  0
 21 23  2  0  0  0  0
 21 22  1  0  0  0  0
 22 20  1  0  0  0  0
 24 25  1  0  0  0  0
 24 21  1  0  0  0  0
M  END
>  <MODEL>
6

>  <REMARK>
 VINA RESULT:      -6.7      3.187      5.302
  Name = 
  5 active torsions:
  status: ('A' for Active; 'I' for Inactive)
    1  A    between atoms: C_3  and  C_14
    2  A    between atoms: C_4  and  C_13
    3  A    between atoms: C_7  and  C_15
    4  A    between atoms: C_12  and  C_14
    5  A    between atoms: C_15  and  N_17
                            x       y       z     vdW  Elec       q    Type
                         _______ _______ _______ _____ _____    ______ ____

>  <TORSDO>
F 5

$$$$
=
 OpenBabel10232407463D

 25 26  0  0  1  0  0  0  0  0999 V2000
  191.7210  177.4180  141.8270 C   0  0  0  0  0  2  0  0  0  0  0  0
  189.6840  176.9690  140.3070 C   0  0  2  0  0  3  0  0  0  0  0  0
  192.1350  178.3030  143.9880 O   0  0  0  0  0  1  0  0  0  0  0  0
  188.7370  177.3250  142.6350 C   0  0  1  0  0  3  0  0  0  0  0  0
  188.7660  177.8140  141.1970 C   0  0  0  0  0  2  0  0  0  0  0  0
  190.9500  176.4020  140.9790 C   0  0  0  0  0  2  0  0  0  0  0  0
  191.2600  177.4660  143.2910 C   0  0  1  0  0  0  0  0  0  0  0  0
  189.8510  178.0010  143.3940 C   0  0  0  0  0  0  0  0  0  0  0  0
  189.6270  179.0190  144.0340 O   0  0  0  0  0  0  0  0  0  0  0  0
  191.3320  176.0830  143.9220 C   0  0  0  0  0  1  0  0  0  0  0  0
  191.1690  177.1920  138.3420 N   0  0  0  0  0  1  0  0  0  0  0  0
  189.9600  177.6890  138.9830 C   0  0  1  0  0  3  0  0  0  0  0  0
  188.0160  176.4970  138.0000 N   0  0  0  0  0  0  0  0  0  0  0  0
  186.9400  176.4260  137.1740 C   0  0  0  0  0  3  0  0  0  0  0  0
  186.6150  177.4830  136.3850 N   0  0  0  0  0  0  0  0  0  0  0  0
  188.7900  177.6170  138.0490 C   0  0  0  0  0  0  0  0  0  0  0  0
  188.4630  178.7160  137.2470 C   0  0  0  0  0  0  0  0  0  0  0  0
  187.3540  178.6220  136.4080 C   0  0  0  0  0  3  0  0  0  0  0  0
  189.2000  179.8540  137.2760 F   0  0  0  0  0  0  0  0  0  0  0  0
  187.3650  177.5810  143.2490 C   0  0  0  0  0  2  0  0  0  0  0  0
  185.0500  178.2970  142.5130 C   0  0  0  0  0  0  0  0  0  0  0  0
  186.4120  177.9750  142.2210 N   0  0  0  0  0  2  0  0  0  0  0  0
  184.6100  178.2220  143.6910 O   0  0  0  0  0  0  0  0  0  0  0  0
  184.1550  178.7620  141.4210 C   0  0  0  0  0  2  0  0  0  0  0  0
  184.9270  179.4960  140.4350 N   0  0  0  0  0  1  0  0  0  0  0  0
  1  7  1  0  0  0  0
  2 12  1  6  0  0  0
  2  6  1  0  0  0  0
  2  5  1  0  0  0  0
  4 20  1  1  0  0  0
  4  8  1  0  0  0  0
  5  4  1  0  0  0  0
  6  1  1  0  0  0  0
  7  8  1  0  0  0  0
  7 10  1  1  0  0  0
  7  3  1  0  0  0  0
  8  9  2  0  0  0  0
 12 11  1  6  0  0  0
 13 16  1  0  0  0  0
 14 13  2  0  0  0  0
 15 18  2  0  0  0  0
 15 14  1  0  0  0  0
 16 12  1  0  0  0  0
 17 19  1  0  0  0  0
 17 16  2  0  0  0  0
 18 17  1  0  0  0  0
 21 23  2  0  0  0  0
 22 21  1  0  0  0  0
 22 20  1  0  0  0  0
 24 21  1  0  0  0  0
 25 24  1  0  0  0  0
M  END
>  <MODEL>
7

>  <REMARK>
 VINA RESULT:      -6.6      3.166      4.113
  Name = 
  5 active torsions:
  status: ('A' for Active; 'I' for Inactive)
    1  A    between atoms: C_3  and  C_14
    2  A    between atoms: C_4  and  C_13
    3  A    between atoms: C_7  and  C_15
    4  A    between atoms: C_12  and  C_14
    5  A    between atoms: C_15  and  N_17
                            x       y       z     vdW  Elec       q    Type
                         _______ _______ _______ _____ _____    ______ ____

>  <TORSDO>
F 5

$$$$
=
 OpenBabel10232407463D

 25 26  0  0  1  0  0  0  0  0999 V2000
  187.4150  178.4310  145.3620 C   0  0  0  0  0  2  0  0  0  0  0  0
  187.6100  177.6690  142.9040 C   0  0  2  0  0  3  0  0  0  0  0  0
  185.7990  179.4690  146.7530 O   0  0  0  0  0  1  0  0  0  0  0  0
  185.1310  178.0330  143.3140 C   0  0  1  0  0  3  0  0  0  0  0  0
  186.3490  178.4460  142.5070 C   0  0  0  0  0  2  0  0  0  0  0  0
  187.7340  177.2880  144.3920 C   0  0  0  0  0  2  0  0  0  0  0  0
  185.9320  178.5010  145.7550 C   0  0  1  0  0  0  0  0  0  0  0  0
  185.0780  178.8720  144.5660 C   0  0  0  0  0  0  0  0  0  0  0  0
  184.3980  179.8890  144.5930 O   0  0  0  0  0  0  0  0  0  0  0  0
  185.4660  177.1700  146.3280 C   0  0  0  0  0  1  0  0  0  0  0  0
  190.0340  178.0860  143.1550 N   0  0  0  0  0  1  0  0  0  0  0  0
  188.8600  178.3460  142.3340 C   0  0  1  0  0  3  0  0  0  0  0  0
  188.6240  178.7300  139.8920 N   0  0  0  0  0  0  0  0  0  0  0  0
  188.8590  178.4050  138.5940 C   0  0  0  0  0  3  0  0  0  0  0  0
  189.5930  177.3030  138.2900 N   0  0  0  0  0  0  0  0  0  0  0  0
  189.1080  177.9610  140.9080 C   0  0  0  0  0  0  0  0  0  0  0  0
  189.8710  176.8270  140.6080 C   0  0  0  0  0  0  0  0  0  0  0  0
  190.1010  176.5120  139.2700 C   0  0  0  0  0  3  0  0  0  0  0  0
  190.3820  176.0430  141.5900 F   0  0  0  0  0  0  0  0  0  0  0  0
  183.8710  178.1580  142.4660 C   0  0  0  0  0  2  0  0  0  0  0  0
  183.7590  178.2070  139.9360 C   0  0  0  0  0  0  0  0  0  0  0  0
  184.1810  178.7690  141.1800 N   0  0  0  0  0  2  0  0  0  0  0  0
  183.1150  177.1240  139.9060 O   0  0  0  0  0  0  0  0  0  0  0  0
  184.0500  178.9250  138.6680 C   0  0  0  0  0  2  0  0  0  0  0  0
  184.3480  180.3170  138.9520 N   0  0  0  0  0  1  0  0  0  0  0  0
  1  7  1  0  0  0  0
  2 12  1  1  0  0  0
  2  6  1  0  0  0  0
  4 20  1  6  0  0  0
  4  8  1  0  0  0  0
  5  2  1  0  0  0  0
  5  4  1  0  0  0  0
  6  1  1  0  0  0  0
  7 10  1  1  0  0  0
  7  3  1  0  0  0  0
  8  9  2  0  0  0  0
  8  7  1  0  0  0  0
 12 11  1  1  0  0  0
 13 16  1  0  0  0  0
 14 13  2  0  0  0  0
 15 14  1  0  0  0  0
 15 18  2  0  0  0  0
 16 12  1  0  0  0  0
 17 16  2  0  0  0  0
 17 19  1  0  0  0  0
 18 17  1  0  0  0  0
 21 22  1  0  0  0  0
 22 20  1  0  0  0  0
 23 21  2  0  0  0  0
 24 25  1  0  0  0  0
 24 21  1  0  0  0  0
M  END
>  <MODEL>
8

>  <REMARK>
 VINA RESULT:      -6.6      3.112      4.786
  Name = 
  5 active torsions:
  status: ('A' for Active; 'I' for Inactive)
    1  A    between atoms: C_3  and  C_14
    2  A    between atoms: C_4  and  C_13
    3  A    between atoms: C_7  and  C_15
    4  A    between atoms: C_12  and  C_14
    5  A    between atoms: C_15  and  N_17
                            x       y       z     vdW  Elec       q    Type
                         _______ _______ _______ _____ _____    ______ ____

>  <TORSDO>
F 5

$$$$
=
 OpenBabel10232407463D

 25 26  0  0  1  0  0  0  0  0999 V2000
  182.5150  178.9320  141.4150 C   0  0  0  0  0  2  0  0  0  0  0  0
  184.8090  178.0490  142.2000 C   0  0  2  0  0  3  0  0  0  0  0  0
  181.6400  180.1460  139.5750 O   0  0  0  0  0  1  0  0  0  0  0  0
  185.0960  178.6100  139.7410 C   0  0  1  0  0  3  0  0  0  0  0  0
  185.5520  178.8980  141.1610 C   0  0  0  0  0  2  0  0  0  0  0  0
  183.3350  177.7280  141.8890 C   0  0  0  0  0  2  0  0  0  0  0  0
  182.5410  179.1270  139.8920 C   0  0  1  0  0  0  0  0  0  0  0  0
  183.9260  179.5060  139.4220 C   0  0  0  0  0  0  0  0  0  0  0  0
  184.1080  180.5700  138.8450 O   0  0  0  0  0  0  0  0  0  0  0  0
  182.0850  177.8610  139.1810 C   0  0  0  0  0  1  0  0  0  0  0  0
  183.8660  178.4160  144.4560 N   0  0  0  0  0  1  0  0  0  0  0  0
  185.0340  178.6080  143.6090 C   0  0  1  0  0  3  0  0  0  0  0  0
  187.1130  177.2530  143.5340 N   0  0  0  0  0  0  0  0  0  0  0  0
  188.2410  176.7470  144.0960 C   0  0  0  0  0  3  0  0  0  0  0  0
  188.5410  177.0270  145.3920 N   0  0  0  0  0  0  0  0  0  0  0  0
  186.2610  178.0390  144.2510 C   0  0  0  0  0  0  0  0  0  0  0  0
  186.5620  178.3390  145.5840 C   0  0  0  0  0  0  0  0  0  0  0  0
  187.7240  177.8110  146.1420 C   0  0  0  0  0  3  0  0  0  0  0  0
  185.7470  179.1280  146.3290 F   0  0  0  0  0  0  0  0  0  0  0  0
  186.2580  178.7880  138.7700 C   0  0  0  0  0  2  0  0  0  0  0  0
  188.7600  178.4210  138.8870 C   0  0  0  0  0  0  0  0  0  0  0  0
  187.4240  178.0470  139.2300 N   0  0  0  0  0  2  0  0  0  0  0  0
  188.9790  179.4090  138.1370 O   0  0  0  0  0  0  0  0  0  0  0  0
  189.9050  177.6590  139.4540 C   0  0  0  0  0  2  0  0  0  0  0  0
  189.7810  177.5950  140.8990 N   0  0  0  0  0  1  0  0  0  0  0  0
  1  6  1  0  0  0  0
  2 12  1  1  0  0  0
  3  7  1  0  0  0  0
  4 20  1  6  0  0  0
  4  5  1  0  0  0  0
  5  2  1  0  0  0  0
  6  2  1  0  0  0  0
  7 10  1  6  0  0  0
  7  1  1  0  0  0  0
  8  4  1  0  0  0  0
  8  7  1  0  0  0  0
  9  8  2  0  0  0  0
 12 16  1  0  0  0  0
 12 11  1  1  0  0  0
 13 14  2  0  0  0  0
 13 16  1  0  0  0  0
 14 15  1  0  0  0  0
 15 18  2  0  0  0  0
 16 17  2  0  0  0  0
 17 18  1  0  0  0  0
 17 19  1  0  0  0  0
 20 22  1  0  0  0  0
 21 22  1  0  0  0  0
 21 24  1  0  0  0  0
 23 21  2  0  0  0  0
 24 25  1  0  0  0  0
M  END
>  <MODEL>
9

>  <REMARK>
 VINA RESULT:      -6.4      4.283      8.235
  Name = 
  5 active torsions:
  status: ('A' for Active; 'I' for Inactive)
    1  A    between atoms: C_3  and  C_14
    2  A    between atoms: C_4  and  C_13
    3  A    between atoms: C_7  and  C_15
    4  A    between atoms: C_12  and  C_14
    5  A    between atoms: C_15  and  N_17
                            x       y       z     vdW  Elec       q    Type
                         _______ _______ _______ _____ _____    ______ ____

>  <TORSDO>
F 5

$$$$
