=
 OpenBabel10232409183D

 30 33  0  0  1  0  0  0  0  0999 V2000
  189.3950  176.7280  142.1000 C   0  0  0  0  0  0  0  0  0  0  0  0
  188.0290  178.3880  140.9740 C   0  0  0  0  0  3  0  0  0  0  0  0
  188.3270  177.6550  142.1310 C   0  0  0  0  0  0  0  0  0  0  0  0
  189.8230  177.2900  139.7680 C   0  0  0  0  0  0  0  0  0  0  0  0
  188.7690  178.2080  139.8040 C   0  0  0  0  0  3  0  0  0  0  0  0
  190.1320  176.5570  140.9210 C   0  0  0  0  0  3  0  0  0  0  0  0
  185.3590  178.3870  142.0920 C   0  0  0  0  0  3  0  0  0  0  0  0
  185.4530  178.3430  144.4520 C   0  0  0  0  0  0  0  0  0  0  0  0
  185.9880  178.2300  145.6790 C   0  0  0  0  0  0  0  0  0  0  0  0
  184.1560  178.6610  144.5580 C   0  0  0  0  0  0  0  0  0  0  0  0
  183.3920  178.8600  143.4540 N   0  0  0  0  0  0  0  0  0  0  0  0
  188.0950  177.7390  144.6370 C   0  0  0  0  0  3  0  0  0  0  0  0
  183.7820  178.7690  145.9330 N   0  0  0  0  0  0  0  0  0  0  0  0
  183.9800  178.7240  142.2170 C   0  0  0  0  0  3  0  0  0  0  0  0
  187.3390  177.9210  145.8250 C   0  0  0  0  0  3  0  0  0  0  0  0
  186.1230  178.1880  143.2620 C   0  0  0  0  0  0  0  0  0  0  0  0
  187.5030  177.8730  143.3440 C   0  0  0  0  0  0  0  0  0  0  0  0
  184.8760  178.5100  146.6100 C   0  0  0  0  0  3  0  0  0  0  0  0
  190.6050  177.1010  138.5340 C   0  0  0  0  0  0  0  0  0  0  0  0
  191.8930  176.4800  138.5900 N   0  0  0  0  0  2  0  0  0  0  0  0
  190.1410  177.4910  137.4270 O   0  0  0  0  0  0  0  0  0  0  0  0
  192.7020  176.2370  137.4040 C   0  0  0  0  0  2  0  0  0  0  0  0
  193.0570  174.7640  137.3080 C   0  0  0  0  0  2  0  0  0  0  0  0
  195.1320  175.8220  136.7940 O   0  0  0  0  0  1  0  0  0  0  0  0
  194.5530  174.5950  137.1210 C   0  0  1  0  0  3  0  0  0  0  0  0
  195.1630  174.0810  138.4070 C   0  0  0  0  0  1  0  0  0  0  0  0
  189.7970  175.9380  143.3040 C   0  0  0  0  0  2  0  0  0  0  0  0
  191.2840  176.1070  143.5750 C   0  0  0  0  0  2  0  0  0  0  0  0
  191.6710  178.5110  144.1120 C   0  0  0  0  0  1  0  0  0  0  0  0
  191.5080  177.1160  144.6870 C   0  0  0  0  0  2  0  0  0  0  0  0
  1  3  1  0  0  0  0
  1 27  1  0  0  0  0
  2  3  2  0  0  0  0
  3 17  1  0  0  0  0
  4  5  2  0  0  0  0
  4  6  1  0  0  0  0
  5  2  1  0  0  0  0
  6  1  2  0  0  0  0
  7 14  2  0  0  0  0
  7 16  1  0  0  0  0
  8 10  1  0  0  0  0
  8  9  1  0  0  0  0
  9 15  2  0  0  0  0
  9 18  1  0  0  0  0
 10 13  1  0  0  0  0
 11 10  2  0  0  0  0
 12 15  1  0  0  0  0
 13 18  2  0  0  0  0
 14 11  1  0  0  0  0
 16 17  1  0  0  0  0
 16  8  2  0  0  0  0
 17 12  2  0  0  0  0
 19 20  1  0  0  0  0
 19  4  1  0  0  0  0
 21 19  2  0  0  0  0
 22 20  1  0  0  0  0
 23 22  1  0  0  0  0
 24 25  1  0  0  0  0
 25 23  1  0  0  0  0
 25 26  1  1  0  0  0
 27 28  1  0  0  0  0
 28 30  1  0  0  0  0
 29 30  1  0  0  0  0
M  END
>  <MODEL>
1

>  <REMARK>
 VINA RESULT:      -9.1      0.000      0.000
  Name = 
  8 active torsions:
  status: ('A' for Active; 'I' for Inactive)
    1  A    between atoms: C_2  and  C_4
    2  A    between atoms: C_2  and  C_21
    3  A    between atoms: C_3  and  C_9
    4  A    between atoms: C_3  and  C_19
    5  A    between atoms: C_4  and  N_27
    6  A    between atoms: C_11  and  C_19
    7  A    between atoms: C_16  and  C_18
    8  A    between atoms: C_17  and  C_29
                            x       y       z     vdW  Elec       q    Type
                         _______ _______ _______ _____ _____    ______ ____

>  <TORSDO>
F 8

$$$$
=
 OpenBabel10232409183D

 30 33  0  0  1  0  0  0  0  0999 V2000
  187.6540  178.2840  141.7710 C   0  0  0  0  0  0  0  0  0  0  0  0
  186.2690  177.7260  143.6840 C   0  0  0  0  0  3  0  0  0  0  0  0
  187.5410  177.8140  143.1010 C   0  0  0  0  0  0  0  0  0  0  0  0
  185.2350  178.5540  141.6530 C   0  0  0  0  0  0  0  0  0  0  0  0
  185.1280  178.0920  142.9690 C   0  0  0  0  0  3  0  0  0  0  0  0
  186.5020  178.6500  141.0640 C   0  0  0  0  0  3  0  0  0  0  0  0
  187.7050  177.9770  146.1490 C   0  0  0  0  0  3  0  0  0  0  0  0
  189.8660  177.0440  145.9500 C   0  0  0  0  0  0  0  0  0  0  0  0
  190.9680  176.5610  145.3530 C   0  0  0  0  0  0  0  0  0  0  0  0
  190.0500  177.0660  147.2770 C   0  0  0  0  0  0  0  0  0  0  0  0
  189.0880  177.5400  148.1090 N   0  0  0  0  0  0  0  0  0  0  0  0
  189.8770  176.8840  143.2390 C   0  0  0  0  0  3  0  0  0  0  0  0
  191.3480  176.5690  147.6060 N   0  0  0  0  0  0  0  0  0  0  0  0
  187.9110  177.9960  147.5590 C   0  0  0  0  0  3  0  0  0  0  0  0
  191.0200  176.4590  143.9640 C   0  0  0  0  0  3  0  0  0  0  0  0
  188.7280  177.4780  145.3140 C   0  0  0  0  0  0  0  0  0  0  0  0
  188.7200  177.4010  143.8980 C   0  0  0  0  0  0  0  0  0  0  0  0
  191.9030  176.2630  146.4560 C   0  0  0  0  0  3  0  0  0  0  0  0
  184.0310  178.9410  140.8990 C   0  0  0  0  0  0  0  0  0  0  0  0
  182.7500  178.4320  141.2840 N   0  0  0  0  0  2  0  0  0  0  0  0
  184.1280  179.7180  139.9090 O   0  0  0  0  0  0  0  0  0  0  0  0
  181.5190  178.7990  140.5990 C   0  0  0  0  0  2  0  0  0  0  0  0
  180.3450  178.7240  141.5600 C   0  0  0  0  0  2  0  0  0  0  0  0
  180.0840  180.6870  142.8890 O   0  0  0  0  0  1  0  0  0  0  0  0
  180.6850  179.4270  142.8600 C   0  0  1  0  0  3  0  0  0  0  0  0
  180.1770  178.6040  144.0230 C   0  0  0  0  0  1  0  0  0  0  0  0
  188.9780  178.4430  141.0950 C   0  0  0  0  0  2  0  0  0  0  0  0
  188.8140  178.3590  139.5860 C   0  0  0  0  0  2  0  0  0  0  0  0
  190.6890  176.7180  139.6630 C   0  0  0  0  0  1  0  0  0  0  0  0
  189.3260  177.0260  139.0710 C   0  0  0  0  0  2  0  0  0  0  0  0
  1  3  1  0  0  0  0
  3  2  2  0  0  0  0
  3 17  1  0  0  0  0
  4  5  2  0  0  0  0
  5  2  1  0  0  0  0
  6  4  1  0  0  0  0
  6  1  2  0  0  0  0
  7 14  2  0  0  0  0
  8 10  1  0  0  0  0
  9  8  1  0  0  0  0
  9 18  1  0  0  0  0
 10 13  1  0  0  0  0
 10 11  2  0  0  0  0
 12 17  2  0  0  0  0
 12 15  1  0  0  0  0
 14 11  1  0  0  0  0
 15  9  2  0  0  0  0
 16  8  2  0  0  0  0
 16  7  1  0  0  0  0
 17 16  1  0  0  0  0
 18 13  2  0  0  0  0
 19 20  1  0  0  0  0
 19  4  1  0  0  0  0
 21 19  2  0  0  0  0
 22 20  1  0  0  0  0
 22 23  1  0  0  0  0
 23 25  1  0  0  0  0
 25 24  1  0  0  0  0
 25 26  1  1  0  0  0
 27  1  1  0  0  0  0
 28 27  1  0  0  0  0
 30 28  1  0  0  0  0
 30 29  1  0  0  0  0
M  END
>  <MODEL>
2

>  <REMARK>
 VINA RESULT:      -9.0      3.728      7.967
  Name = 
  8 active torsions:
  status: ('A' for Active; 'I' for Inactive)
    1  A    between atoms: C_2  and  C_4
    2  A    between atoms: C_2  and  C_21
    3  A    between atoms: C_3  and  C_9
    4  A    between atoms: C_3  and  C_19
    5  A    between atoms: C_4  and  N_27
    6  A    between atoms: C_11  and  C_19
    7  A    between atoms: C_16  and  C_18
    8  A    between atoms: C_17  and  C_29
                            x       y       z     vdW  Elec       q    Type
                         _______ _______ _______ _____ _____    ______ ____

>  <TORSDO>
F 8

$$$$
=
 OpenBabel10232409183D

 30 33  0  0  1  0  0  0  0  0999 V2000
  187.4800  177.4030  143.1860 C   0  0  0  0  0  0  0  0  0  0  0  0
  186.9950  178.6330  141.1510 C   0  0  0  0  0  3  0  0  0  0  0  0
  186.5780  178.1610  142.4030 C   0  0  0  0  0  0  0  0  0  0  0  0
  189.1720  177.6070  141.4440 C   0  0  0  0  0  0  0  0  0  0  0  0
  188.2780  178.3590  140.6750 C   0  0  0  0  0  3  0  0  0  0  0  0
  188.7660  177.1360  142.6990 C   0  0  0  0  0  3  0  0  0  0  0  0
  184.1000  178.0160  140.6190 C   0  0  0  0  0  3  0  0  0  0  0  0
  182.8540  178.6440  142.5250 C   0  0  0  0  0  0  0  0  0  0  0  0
  182.6120  179.0190  143.7920 C   0  0  0  0  0  0  0  0  0  0  0  0
  181.7010  178.6120  141.8410 C   0  0  0  0  0  0  0  0  0  0  0  0
  181.6780  178.2870  140.5240 N   0  0  0  0  0  0  0  0  0  0  0  0
  184.9710  178.8580  144.2120 C   0  0  0  0  0  3  0  0  0  0  0  0
  180.6120  178.9840  142.6880 N   0  0  0  0  0  0  0  0  0  0  0  0
  182.8680  177.9860  139.9020 C   0  0  0  0  0  3  0  0  0  0  0  0
  183.6670  179.1420  144.6950 C   0  0  0  0  0  3  0  0  0  0  0  0
  184.0860  178.3600  141.9880 C   0  0  0  0  0  0  0  0  0  0  0  0
  185.2010  178.4680  142.8580 C   0  0  0  0  0  0  0  0  0  0  0  0
  181.1520  179.2280  143.8590 C   0  0  0  0  0  3  0  0  0  0  0  0
  190.5260  177.3190  140.9420 C   0  0  0  0  0  0  0  0  0  0  0  0
  190.7310  177.0370  139.5530 N   0  0  0  0  0  2  0  0  0  0  0  0
  191.5070  177.3160  141.7360 O   0  0  0  0  0  0  0  0  0  0  0  0
  192.0470  176.7730  138.9900 C   0  0  0  0  0  2  0  0  0  0  0  0
  191.9190  175.9090  137.7480 C   0  0  0  0  0  2  0  0  0  0  0  0
  193.9880  176.9330  137.1510 O   0  0  0  0  0  1  0  0  0  0  0  0
  193.2720  175.7370  137.0850 C   0  0  1  0  0  3  0  0  0  0  0  0
  194.0460  174.6510  137.8010 C   0  0  0  0  0  1  0  0  0  0  0  0
  187.1220  176.8990  144.5470 C   0  0  0  0  0  2  0  0  0  0  0  0
  188.0900  177.4460  145.5850 C   0  0  0  0  0  2  0  0  0  0  0  0
  188.3300  177.9500  148.0140 C   0  0  0  0  0  1  0  0  0  0  0  0
  187.3520  177.7930  146.8650 C   0  0  0  0  0  2  0  0  0  0  0  0
  1 27  1  0  0  0  0
  2  3  1  0  0  0  0
  3 17  1  0  0  0  0
  3  1  2  0  0  0  0
  4  6  2  0  0  0  0
  5  2  2  0  0  0  0
  5  4  1  0  0  0  0
  6  1  1  0  0  0  0
  7 16  1  0  0  0  0
  8  9  1  0  0  0  0
  9 18  1  0  0  0  0
  9 15  2  0  0  0  0
 10  8  1  0  0  0  0
 10 13  1  0  0  0  0
 11 10  2  0  0  0  0
 12 15  1  0  0  0  0
 13 18  2  0  0  0  0
 14 11  1  0  0  0  0
 14  7  2  0  0  0  0
 16  8  2  0  0  0  0
 16 17  1  0  0  0  0
 17 12  2  0  0  0  0
 19  4  1  0  0  0  0
 19 21  2  0  0  0  0
 20 19  1  0  0  0  0
 22 20  1  0  0  0  0
 23 22  1  0  0  0  0
 25 24  1  0  0  0  0
 25 23  1  0  0  0  0
 25 26  1  1  0  0  0
 27 28  1  0  0  0  0
 28 30  1  0  0  0  0
 30 29  1  0  0  0  0
M  END
>  <MODEL>
3

>  <REMARK>
 VINA RESULT:      -8.5      1.918      3.061
  Name = 
  8 active torsions:
  status: ('A' for Active; 'I' for Inactive)
    1  A    between atoms: C_2  and  C_4
    2  A    between atoms: C_2  and  C_21
    3  A    between atoms: C_3  and  C_9
    4  A    between atoms: C_3  and  C_19
    5  A    between atoms: C_4  and  N_27
    6  A    between atoms: C_11  and  C_19
    7  A    between atoms: C_16  and  C_18
    8  A    between atoms: C_17  and  C_29
                            x       y       z     vdW  Elec       q    Type
                         _______ _______ _______ _____ _____    ______ ____

>  <TORSDO>
F 8

$$$$
=
 OpenBabel10232409183D

 30 33  0  0  1  0  0  0  0  0999 V2000
  187.5920  178.3590  141.3820 C   0  0  0  0  0  0  0  0  0  0  0  0
  189.5200  176.9410  141.7850 C   0  0  0  0  0  3  0  0  0  0  0  0
  188.4060  177.6330  142.2820 C   0  0  0  0  0  0  0  0  0  0  0  0
  189.0270  177.6870  139.5310 C   0  0  0  0  0  0  0  0  0  0  0  0
  189.8280  176.9680  140.4240 C   0  0  0  0  0  3  0  0  0  0  0  0
  187.9090  178.3760  140.0180 C   0  0  0  0  0  3  0  0  0  0  0  0
  190.5510  177.3080  144.4370 C   0  0  0  0  0  3  0  0  0  0  0  0
  188.7980  177.4480  146.0140 C   0  0  0  0  0  0  0  0  0  0  0  0
  187.5430  177.5450  146.4820 C   0  0  0  0  0  0  0  0  0  0  0  0
  189.6480  177.3130  147.0420 C   0  0  0  0  0  0  0  0  0  0  0  0
  190.9810  177.1680  146.8330 N   0  0  0  0  0  0  0  0  0  0  0  0
  186.7850  177.6970  144.2080 C   0  0  0  0  0  3  0  0  0  0  0  0
  188.9350  177.3210  148.2800 N   0  0  0  0  0  0  0  0  0  0  0  0
  191.4450  177.1650  145.5370 C   0  0  0  0  0  3  0  0  0  0  0  0
  186.4760  177.6740  145.5930 C   0  0  0  0  0  3  0  0  0  0  0  0
  189.1700  177.4550  144.6920 C   0  0  0  0  0  0  0  0  0  0  0  0
  188.1290  177.5840  143.7370 C   0  0  0  0  0  0  0  0  0  0  0  0
  187.6720  177.4600  147.9500 C   0  0  0  0  0  3  0  0  0  0  0  0
  189.3520  177.7130  138.0950 C   0  0  0  0  0  0  0  0  0  0  0  0
  189.8790  176.5450  137.4580 N   0  0  0  0  0  2  0  0  0  0  0  0
  189.1700  178.7680  137.4260 O   0  0  0  0  0  0  0  0  0  0  0  0
  190.1920  176.4970  136.0360 C   0  0  0  0  0  2  0  0  0  0  0  0
  191.4600  175.6930  135.8090 C   0  0  0  0  0  2  0  0  0  0  0  0
  192.4320  174.3390  137.5160 O   0  0  0  0  0  1  0  0  0  0  0  0
  192.2940  175.6570  137.0750 C   0  0  1  0  0  3  0  0  0  0  0  0
  193.6630  176.2340  136.7900 C   0  0  0  0  0  1  0  0  0  0  0  0
  186.3660  179.0880  141.8300 C   0  0  0  0  0  2  0  0  0  0  0  0
  185.2280  178.8650  140.8470 C   0  0  0  0  0  2  0  0  0  0  0  0
  183.7030  178.7980  142.8190 C   0  0  0  0  0  1  0  0  0  0  0  0
  184.0890  178.1190  141.5180 C   0  0  0  0  0  2  0  0  0  0  0  0
  1 27  1  0  0  0  0
  1  3  1  0  0  0  0
  2  3  2  0  0  0  0
  3 17  1  0  0  0  0
  4  6  1  0  0  0  0
  4  5  2  0  0  0  0
  5  2  1  0  0  0  0
  6  1  2  0  0  0  0
  7 16  1  0  0  0  0
  7 14  2  0  0  0  0
  8  9  1  0  0  0  0
  8 10  1  0  0  0  0
  9 18  1  0  0  0  0
 10 13  1  0  0  0  0
 11 10  2  0  0  0  0
 12 15  1  0  0  0  0
 14 11  1  0  0  0  0
 15  9  2  0  0  0  0
 16  8  2  0  0  0  0
 17 12  2  0  0  0  0
 17 16  1  0  0  0  0
 18 13  2  0  0  0  0
 19  4  1  0  0  0  0
 20 19  1  0  0  0  0
 21 19  2  0  0  0  0
 22 20  1  0  0  0  0
 23 22  1  0  0  0  0
 23 25  1  0  0  0  0
 25 26  1  6  0  0  0
 25 24  1  0  0  0  0
 28 30  1  0  0  0  0
 28 27  1  0  0  0  0
 30 29  1  0  0  0  0
M  END
>  <MODEL>
4

>  <REMARK>
 VINA RESULT:      -8.5      2.261      4.366
  Name = 
  8 active torsions:
  status: ('A' for Active; 'I' for Inactive)
    1  A    between atoms: C_2  and  C_4
    2  A    between atoms: C_2  and  C_21
    3  A    between atoms: C_3  and  C_9
    4  A    between atoms: C_3  and  C_19
    5  A    between atoms: C_4  and  N_27
    6  A    between atoms: C_11  and  C_19
    7  A    between atoms: C_16  and  C_18
    8  A    between atoms: C_17  and  C_29
                            x       y       z     vdW  Elec       q    Type
                         _______ _______ _______ _____ _____    ______ ____

>  <TORSDO>
F 8

$$$$
=
 OpenBabel10232409183D

 30 33  0  0  1  0  0  0  0  0999 V2000
  187.2140  178.4820  141.7770 C   0  0  0  0  0  0  0  0  0  0  0  0
  185.8750  177.7190  143.6520 C   0  0  0  0  0  3  0  0  0  0  0  0
  187.1360  177.9320  143.0780 C   0  0  0  0  0  0  0  0  0  0  0  0
  184.7820  178.5790  141.6660 C   0  0  0  0  0  0  0  0  0  0  0  0
  184.7090  178.0380  142.9540 C   0  0  0  0  0  3  0  0  0  0  0  0
  186.0380  178.8010  141.0870 C   0  0  0  0  0  3  0  0  0  0  0  0
  187.3230  178.0390  146.1280 C   0  0  0  0  0  3  0  0  0  0  0  0
  189.5270  177.2240  145.8890 C   0  0  0  0  0  0  0  0  0  0  0  0
  190.6460  176.8110  145.2720 C   0  0  0  0  0  0  0  0  0  0  0  0
  189.7240  177.2270  147.2140 C   0  0  0  0  0  0  0  0  0  0  0  0
  188.7470  177.6330  148.0650 N   0  0  0  0  0  0  0  0  0  0  0  0
  189.5190  177.1220  143.1750 C   0  0  0  0  0  3  0  0  0  0  0  0
  191.0490  176.7910  147.5210 N   0  0  0  0  0  0  0  0  0  0  0  0
  187.5430  178.0390  147.5360 C   0  0  0  0  0  3  0  0  0  0  0  0
  190.6900  176.7420  143.8800 C   0  0  0  0  0  3  0  0  0  0  0  0
  188.3620  177.6120  145.2730 C   0  0  0  0  0  0  0  0  0  0  0  0
  188.3430  177.5640  143.8550 C   0  0  0  0  0  0  0  0  0  0  0  0
  191.6070  176.5390  146.3600 C   0  0  0  0  0  3  0  0  0  0  0  0
  183.5510  178.9170  140.9300 C   0  0  0  0  0  0  0  0  0  0  0  0
  183.6340  179.4690  139.6120 N   0  0  0  0  0  2  0  0  0  0  0  0
  182.4230  178.7240  141.4620 O   0  0  0  0  0  0  0  0  0  0  0  0
  182.4570  179.7970  138.8200 C   0  0  0  0  0  2  0  0  0  0  0  0
  182.2700  181.3020  138.7630 C   0  0  0  0  0  2  0  0  0  0  0  0
  180.9370  182.9810  137.7170 O   0  0  0  0  0  1  0  0  0  0  0  0
  180.9410  181.6430  138.1150 C   0  0  1  0  0  3  0  0  0  0  0  0
  180.7340  180.7600  136.9040 C   0  0  0  0  0  1  0  0  0  0  0  0
  188.5220  178.7750  141.1150 C   0  0  0  0  0  2  0  0  0  0  0  0
  188.4820  178.3520  139.6550 C   0  0  0  0  0  2  0  0  0  0  0  0
  190.6890  177.1940  139.6090 C   0  0  0  0  0  1  0  0  0  0  0  0
  189.1880  177.0210  139.4700 C   0  0  0  0  0  2  0  0  0  0  0  0
  1  3  1  0  0  0  0
  3  2  2  0  0  0  0
  3 17  1  0  0  0  0
  4  5  2  0  0  0  0
  5  2  1  0  0  0  0
  6  4  1  0  0  0  0
  6  1  2  0  0  0  0
  7 14  2  0  0  0  0
  8 10  1  0  0  0  0
  9  8  2  0  0  0  0
  9 18  1  0  0  0  0
 10 13  1  0  0  0  0
 10 11  2  0  0  0  0
 12 17  1  0  0  0  0
 12 15  2  0  0  0  0
 14 11  1  0  0  0  0
 15  9  1  0  0  0  0
 16  8  1  0  0  0  0
 16  7  1  0  0  0  0
 17 16  2  0  0  0  0
 18 13  2  0  0  0  0
 19 21  2  0  0  0  0
 19  4  1  0  0  0  0
 20 19  1  0  0  0  0
 22 20  1  0  0  0  0
 23 22  1  0  0  0  0
 24 25  1  0  0  0  0
 25 26  1  6  0  0  0
 25 23  1  0  0  0  0
 27  1  1  0  0  0  0
 28 27  1  0  0  0  0
 30 29  1  0  0  0  0
 30 28  1  0  0  0  0
M  END
>  <MODEL>
5

>  <REMARK>
 VINA RESULT:      -8.4      4.123      7.695
  Name = 
  8 active torsions:
  status: ('A' for Active; 'I' for Inactive)
    1  A    between atoms: C_2  and  C_4
    2  A    between atoms: C_2  and  C_21
    3  A    between atoms: C_3  and  C_9
    4  A    between atoms: C_3  and  C_19
    5  A    between atoms: C_4  and  N_27
    6  A    between atoms: C_11  and  C_19
    7  A    between atoms: C_16  and  C_18
    8  A    between atoms: C_17  and  C_29
                            x       y       z     vdW  Elec       q    Type
                         _______ _______ _______ _____ _____    ______ ____

>  <TORSDO>
F 8

$$$$
=
 OpenBabel10232409183D

 30 33  0  0  1  0  0  0  0  0999 V2000
  187.6230  178.3840  141.4840 C   0  0  0  0  0  0  0  0  0  0  0  0
  189.5450  176.9540  141.8660 C   0  0  0  0  0  3  0  0  0  0  0  0
  188.4460  177.6580  142.3760 C   0  0  0  0  0  0  0  0  0  0  0  0
  189.0240  177.6890  139.6150 C   0  0  0  0  0  0  0  0  0  0  0  0
  189.8320  176.9690  140.5000 C   0  0  0  0  0  3  0  0  0  0  0  0
  187.9190  178.3910  140.1150 C   0  0  0  0  0  3  0  0  0  0  0  0
  190.6240  177.3560  144.5000 C   0  0  0  0  0  3  0  0  0  0  0  0
  188.8950  177.5050  146.1030 C   0  0  0  0  0  0  0  0  0  0  0  0
  187.6470  177.6020  146.5890 C   0  0  0  0  0  0  0  0  0  0  0  0
  189.7610  177.3810  147.1190 C   0  0  0  0  0  0  0  0  0  0  0  0
  191.0910  177.2370  146.8900 N   0  0  0  0  0  0  0  0  0  0  0  0
  186.8540  177.7340  144.3260 C   0  0  0  0  0  3  0  0  0  0  0  0
  189.0670  177.3970  148.3670 N   0  0  0  0  0  0  0  0  0  0  0  0
  191.5350  177.2250  145.5880 C   0  0  0  0  0  3  0  0  0  0  0  0
  186.5670  177.7220  145.7160 C   0  0  0  0  0  3  0  0  0  0  0  0
  189.2470  177.5020  144.7750 C   0  0  0  0  0  0  0  0  0  0  0  0
  188.1910  177.6200  143.8350 C   0  0  0  0  0  0  0  0  0  0  0  0
  187.7990  177.5310  148.0560 C   0  0  0  0  0  3  0  0  0  0  0  0
  189.3260  177.7040  138.1740 C   0  0  0  0  0  0  0  0  0  0  0  0
  190.0090  176.5980  137.5740 N   0  0  0  0  0  2  0  0  0  0  0  0
  188.9870  178.6930  137.4680 O   0  0  0  0  0  0  0  0  0  0  0  0
  190.3110  176.5380  136.1510 C   0  0  0  0  0  2  0  0  0  0  0  0
  189.5660  175.3820  135.5080 C   0  0  0  0  0  2  0  0  0  0  0  0
  187.2520  175.8740  135.8150 O   0  0  0  0  0  1  0  0  0  0  0  0
  188.2800  175.8750  134.8710 C   0  0  1  0  0  3  0  0  0  0  0  0
  188.4850  177.2830  134.3560 C   0  0  0  0  0  1  0  0  0  0  0  0
  186.4110  179.1270  141.9470 C   0  0  0  0  0  2  0  0  0  0  0  0
  185.2340  178.8450  141.0260 C   0  0  0  0  0  2  0  0  0  0  0  0
  183.6840  178.7790  142.9770 C   0  0  0  0  0  1  0  0  0  0  0  0
  184.1770  178.0330  141.7510 C   0  0  0  0  0  2  0  0  0  0  0  0
  1 27  1  0  0  0  0
  1  3  1  0  0  0  0
  2  3  2  0  0  0  0
  3 17  1  0  0  0  0
  4  6  1  0  0  0  0
  4  5  2  0  0  0  0
  5  2  1  0  0  0  0
  6  1  2  0  0  0  0
  7 16  1  0  0  0  0
  7 14  2  0  0  0  0
  8  9  1  0  0  0  0
  8 10  1  0  0  0  0
  9 18  1  0  0  0  0
 10 13  1  0  0  0  0
 11 10  2  0  0  0  0
 12 15  1  0  0  0  0
 14 11  1  0  0  0  0
 15  9  2  0  0  0  0
 16  8  2  0  0  0  0
 17 12  2  0  0  0  0
 17 16  1  0  0  0  0
 18 13  2  0  0  0  0
 19  4  1  0  0  0  0
 20 19  1  0  0  0  0
 21 19  2  0  0  0  0
 22 20  1  0  0  0  0
 23 22  1  0  0  0  0
 25 26  1  1  0  0  0
 25 23  1  0  0  0  0
 25 24  1  0  0  0  0
 28 30  1  0  0  0  0
 28 27  1  0  0  0  0
 30 29  1  0  0  0  0
M  END
>  <MODEL>
6

>  <REMARK>
 VINA RESULT:      -8.3      2.912      4.969
  Name = 
  8 active torsions:
  status: ('A' for Active; 'I' for Inactive)
    1  A    between atoms: C_2  and  C_4
    2  A    between atoms: C_2  and  C_21
    3  A    between atoms: C_3  and  C_9
    4  A    between atoms: C_3  and  C_19
    5  A    between atoms: C_4  and  N_27
    6  A    between atoms: C_11  and  C_19
    7  A    between atoms: C_16  and  C_18
    8  A    between atoms: C_17  and  C_29
                            x       y       z     vdW  Elec       q    Type
                         _______ _______ _______ _____ _____    ______ ____

>  <TORSDO>
F 8

$$$$
=
 OpenBabel10232409183D

 30 33  0  0  1  0  0  0  0  0999 V2000
  187.3450  177.6740  143.9860 C   0  0  0  0  0  0  0  0  0  0  0  0
  186.7590  178.7400  141.8860 C   0  0  0  0  0  3  0  0  0  0  0  0
  187.7100  178.0880  142.6840 C   0  0  0  0  0  0  0  0  0  0  0  0
  185.1080  178.5820  143.6540 C   0  0  0  0  0  0  0  0  0  0  0  0
  185.4720  178.9850  142.3660 C   0  0  0  0  0  3  0  0  0  0  0  0
  186.0500  177.9240  144.4560 C   0  0  0  0  0  3  0  0  0  0  0  0
  188.2870  177.2930  139.7880 C   0  0  0  0  0  3  0  0  0  0  0  0
  190.5760  177.3590  140.3660 C   0  0  0  0  0  0  0  0  0  0  0  0
  191.6660  177.4940  141.1390 C   0  0  0  0  0  0  0  0  0  0  0  0
  190.9490  177.0150  139.1250 C   0  0  0  0  0  0  0  0  0  0  0  0
  190.0260  176.7900  138.1550 N   0  0  0  0  0  0  0  0  0  0  0  0
  190.2110  178.0200  142.9750 C   0  0  0  0  0  3  0  0  0  0  0  0
  192.3710  176.9110  139.0450 N   0  0  0  0  0  0  0  0  0  0  0  0
  188.6940  176.9280  138.4720 C   0  0  0  0  0  3  0  0  0  0  0  0
  191.5290  177.8330  142.4840 C   0  0  0  0  0  3  0  0  0  0  0  0
  189.2730  177.5180  140.7720 C   0  0  0  0  0  0  0  0  0  0  0  0
  189.0670  177.8620  142.1330 C   0  0  0  0  0  0  0  0  0  0  0  0
  192.8070  177.1980  140.2490 C   0  0  0  0  0  3  0  0  0  0  0  0
  183.7490  178.8390  144.1600 C   0  0  0  0  0  0  0  0  0  0  0  0
  182.6310  178.7850  143.2690 N   0  0  0  0  0  2  0  0  0  0  0  0
  183.5700  179.1130  145.3790 O   0  0  0  0  0  0  0  0  0  0  0  0
  181.2600  179.0000  143.7110 C   0  0  0  0  0  2  0  0  0  0  0  0
  180.2930  178.6740  142.5870 C   0  0  0  0  0  2  0  0  0  0  0  0
  180.8620  177.5770  140.5480 O   0  0  0  0  0  1  0  0  0  0  0  0
  180.9910  178.7790  141.2450 C   0  0  1  0  0  3  0  0  0  0  0  0
  180.3630  179.8950  140.4390 C   0  0  0  0  0  1  0  0  0  0  0  0
  188.2910  176.9390  144.8810 C   0  0  0  0  0  2  0  0  0  0  0  0
  188.3760  177.6220  146.2370 C   0  0  0  0  0  2  0  0  0  0  0  0
  190.7590  176.9140  146.4240 C   0  0  0  0  0  1  0  0  0  0  0  0
  189.4070  176.9330  147.1130 C   0  0  0  0  0  2  0  0  0  0  0  0
  1  6  1  0  0  0  0
  1 27  1  0  0  0  0
  2  5  2  0  0  0  0
  2  3  1  0  0  0  0
  3  1  2  0  0  0  0
  4 19  1  0  0  0  0
  4  6  2  0  0  0  0
  5  4  1  0  0  0  0
  7 16  1  0  0  0  0
  8 16  2  0  0  0  0
  8  9  1  0  0  0  0
  9 15  2  0  0  0  0
 10  8  1  0  0  0  0
 11 14  1  0  0  0  0
 11 10  2  0  0  0  0
 13 10  1  0  0  0  0
 13 18  2  0  0  0  0
 14  7  2  0  0  0  0
 15 12  1  0  0  0  0
 16 17  1  0  0  0  0
 17  3  1  0  0  0  0
 17 12  2  0  0  0  0
 18  9  1  0  0  0  0
 19 21  2  0  0  0  0
 20 22  1  0  0  0  0
 20 19  1  0  0  0  0
 23 22  1  0  0  0  0
 24 25  1  0  0  0  0
 25 26  1  6  0  0  0
 25 23  1  0  0  0  0
 27 28  1  0  0  0  0
 28 30  1  0  0  0  0
 29 30  1  0  0  0  0
M  END
>  <MODEL>
7

>  <REMARK>
 VINA RESULT:      -8.3      3.744      8.406
  Name = 
  8 active torsions:
  status: ('A' for Active; 'I' for Inactive)
    1  A    between atoms: C_2  and  C_4
    2  A    between atoms: C_2  and  C_21
    3  A    between atoms: C_3  and  C_9
    4  A    between atoms: C_3  and  C_19
    5  A    between atoms: C_4  and  N_27
    6  A    between atoms: C_11  and  C_19
    7  A    between atoms: C_16  and  C_18
    8  A    between atoms: C_17  and  C_29
                            x       y       z     vdW  Elec       q    Type
                         _______ _______ _______ _____ _____    ______ ____

>  <TORSDO>
F 8

$$$$
=
 OpenBabel10232409183D

 30 33  0  0  1  0  0  0  0  0999 V2000
  189.4100  177.0030  141.4490 C   0  0  0  0  0  0  0  0  0  0  0  0
  188.7930  178.1070  139.3780 C   0  0  0  0  0  3  0  0  0  0  0  0
  189.6980  177.3160  140.1000 C   0  0  0  0  0  0  0  0  0  0  0  0
  187.3400  178.2820  141.3100 C   0  0  0  0  0  0  0  0  0  0  0  0
  187.6270  178.5860  139.9760 C   0  0  0  0  0  3  0  0  0  0  0  0
  188.2350  177.4870  142.0380 C   0  0  0  0  0  3  0  0  0  0  0  0
  189.7350  175.3080  137.7950 C   0  0  0  0  0  3  0  0  0  0  0  0
  192.0820  175.5790  137.7730 C   0  0  0  0  0  0  0  0  0  0  0  0
  193.2920  176.0210  138.1520 C   0  0  0  0  0  0  0  0  0  0  0  0
  192.2200  174.7120  136.7600 C   0  0  0  0  0  0  0  0  0  0  0  0
  191.1410  174.0990  136.2110 N   0  0  0  0  0  0  0  0  0  0  0  0
  192.2030  177.3350  139.8410 C   0  0  0  0  0  3  0  0  0  0  0  0
  193.6000  174.5560  136.4260 N   0  0  0  0  0  0  0  0  0  0  0  0
  189.8940  174.3890  136.7180 C   0  0  0  0  0  3  0  0  0  0  0  0
  193.4040  176.9240  139.2080 C   0  0  0  0  0  3  0  0  0  0  0  0
  190.8800  175.9270  138.3410 C   0  0  0  0  0  0  0  0  0  0  0  0
  190.9280  176.8430  139.4230 C   0  0  0  0  0  0  0  0  0  0  0  0
  194.2480  175.3390  137.2570 C   0  0  0  0  0  3  0  0  0  0  0  0
  186.1090  178.7860  141.9420 C   0  0  0  0  0  0  0  0  0  0  0  0
  185.7910  178.4180  143.2880 N   0  0  0  0  0  2  0  0  0  0  0  0
  185.3300  179.5400  141.2940 O   0  0  0  0  0  0  0  0  0  0  0  0
  184.6060  178.9060  143.9790 C   0  0  0  0  0  2  0  0  0  0  0  0
  184.6300  178.4630  145.4310 C   0  0  0  0  0  2  0  0  0  0  0  0
  185.6460  179.3920  147.3790 O   0  0  0  0  0  1  0  0  0  0  0  0
  185.9170  178.9120  146.0960 C   0  0  1  0  0  3  0  0  0  0  0  0
  186.8670  177.7390  146.1910 C   0  0  0  0  0  1  0  0  0  0  0  0
  190.3060  176.1330  142.2710 C   0  0  0  0  0  2  0  0  0  0  0  0
  190.5400  176.7580  143.6380 C   0  0  0  0  0  2  0  0  0  0  0  0
  191.0710  179.1520  144.0850 C   0  0  0  0  0  1  0  0  0  0  0  0
  191.6050  177.8360  143.5510 C   0  0  0  0  0  2  0  0  0  0  0  0
  1  6  1  0  0  0  0
  1 27  1  0  0  0  0
  2  5  2  0  0  0  0
  2  3  1  0  0  0  0
  3  1  2  0  0  0  0
  4 19  1  0  0  0  0
  4  6  2  0  0  0  0
  5  4  1  0  0  0  0
  7 16  1  0  0  0  0
  8  9  2  0  0  0  0
  8 16  1  0  0  0  0
  9 15  1  0  0  0  0
 10  8  1  0  0  0  0
 11 14  1  0  0  0  0
 11 10  2  0  0  0  0
 13 10  1  0  0  0  0
 13 18  2  0  0  0  0
 14  7  2  0  0  0  0
 15 12  2  0  0  0  0
 16 17  2  0  0  0  0
 17 12  1  0  0  0  0
 17  3  1  0  0  0  0
 18  9  1  0  0  0  0
 19 20  1  0  0  0  0
 20 22  1  0  0  0  0
 21 19  2  0  0  0  0
 22 23  1  0  0  0  0
 23 25  1  0  0  0  0
 25 26  1  1  0  0  0
 25 24  1  0  0  0  0
 27 28  1  0  0  0  0
 30 28  1  0  0  0  0
 30 29  1  0  0  0  0
M  END
>  <MODEL>
8

>  <REMARK>
 VINA RESULT:      -8.2      2.791      8.524
  Name = 
  8 active torsions:
  status: ('A' for Active; 'I' for Inactive)
    1  A    between atoms: C_2  and  C_4
    2  A    between atoms: C_2  and  C_21
    3  A    between atoms: C_3  and  C_9
    4  A    between atoms: C_3  and  C_19
    5  A    between atoms: C_4  and  N_27
    6  A    between atoms: C_11  and  C_19
    7  A    between atoms: C_16  and  C_18
    8  A    between atoms: C_17  and  C_29
                            x       y       z     vdW  Elec       q    Type
                         _______ _______ _______ _____ _____    ______ ____

>  <TORSDO>
F 8

$$$$
=
 OpenBabel10232409183D

 30 33  0  0  1  0  0  0  0  0999 V2000
  186.6750  177.8350  143.4670 C   0  0  0  0  0  0  0  0  0  0  0  0
  188.7240  178.1680  142.2100 C   0  0  0  0  0  3  0  0  0  0  0  0
  188.0880  177.8490  143.4180 C   0  0  0  0  0  0  0  0  0  0  0  0
  186.5810  178.4650  141.1150 C   0  0  0  0  0  0  0  0  0  0  0  0
  187.9790  178.4740  141.0700 C   0  0  0  0  0  3  0  0  0  0  0  0
  185.9380  178.1410  142.3160 C   0  0  0  0  0  3  0  0  0  0  0  0
  190.5460  176.0310  143.3750 C   0  0  0  0  0  3  0  0  0  0  0  0
  190.7830  176.5190  145.6730 C   0  0  0  0  0  0  0  0  0  0  0  0
  190.4930  177.0430  146.8760 C   0  0  0  0  0  0  0  0  0  0  0  0
  191.8740  175.7480  145.7740 C   0  0  0  0  0  0  0  0  0  0  0  0
  192.3600  175.0790  144.6970 N   0  0  0  0  0  0  0  0  0  0  0  0
  188.5980  178.1200  145.8690 C   0  0  0  0  0  3  0  0  0  0  0  0
  192.3590  175.7460  147.1180 N   0  0  0  0  0  0  0  0  0  0  0  0
  191.7080  175.2140  143.4930 C   0  0  0  0  0  3  0  0  0  0  0  0
  189.3810  177.8710  147.0260 C   0  0  0  0  0  3  0  0  0  0  0  0
  190.0690  176.7110  144.5160 C   0  0  0  0  0  0  0  0  0  0  0  0
  188.9240  177.5440  144.6030 C   0  0  0  0  0  0  0  0  0  0  0  0
  191.5350  176.5210  147.7840 C   0  0  0  0  0  3  0  0  0  0  0  0
  185.7950  178.7870  139.9110 C   0  0  0  0  0  0  0  0  0  0  0  0
  184.5820  179.5380  140.0280 N   0  0  0  0  0  2  0  0  0  0  0  0
  186.1890  178.3970  138.7770 O   0  0  0  0  0  0  0  0  0  0  0  0
  183.7750  179.9140  138.8750 C   0  0  0  0  0  2  0  0  0  0  0  0
  182.7060  178.8660  138.6240 C   0  0  0  0  0  2  0  0  0  0  0  0
  180.7530  179.2100  139.9490 O   0  0  0  0  0  1  0  0  0  0  0  0
  181.3270  179.4920  138.7080 C   0  0  1  0  0  3  0  0  0  0  0  0
  181.4470  180.9910  138.5420 C   0  0  0  0  0  1  0  0  0  0  0  0
  185.9260  177.4660  144.7070 C   0  0  0  0  0  2  0  0  0  0  0  0
  184.8870  178.5270  145.0330 C   0  0  0  0  0  2  0  0  0  0  0  0
  185.7970  179.0550  147.2930 C   0  0  0  0  0  1  0  0  0  0  0  0
  184.5950  178.5410  146.5230 C   0  0  0  0  0  2  0  0  0  0  0  0
  1 27  1  0  0  0  0
  2  3  2  0  0  0  0
  3  1  1  0  0  0  0
  3 17  1  0  0  0  0
  4  6  1  0  0  0  0
  5  4  2  0  0  0  0
  5  2  1  0  0  0  0
  6  1  2  0  0  0  0
  7 14  2  0  0  0  0
  7 16  1  0  0  0  0
  8 10  1  0  0  0  0
  8  9  1  0  0  0  0
  9 15  2  0  0  0  0
  9 18  1  0  0  0  0
 10 13  1  0  0  0  0
 11 10  2  0  0  0  0
 12 15  1  0  0  0  0
 13 18  2  0  0  0  0
 14 11  1  0  0  0  0
 16 17  1  0  0  0  0
 16  8  2  0  0  0  0
 17 12  2  0  0  0  0
 19 20  1  0  0  0  0
 19  4  1  0  0  0  0
 21 19  2  0  0  0  0
 22 20  1  0  0  0  0
 23 25  1  0  0  0  0
 23 22  1  0  0  0  0
 25 26  1  1  0  0  0
 25 24  1  0  0  0  0
 27 28  1  0  0  0  0
 28 30  1  0  0  0  0
 30 29  1  0  0  0  0
M  END
>  <MODEL>
9

>  <REMARK>
 VINA RESULT:      -8.1      3.736      7.551
  Name = 
  8 active torsions:
  status: ('A' for Active; 'I' for Inactive)
    1  A    between atoms: C_2  and  C_4
    2  A    between atoms: C_2  and  C_21
    3  A    between atoms: C_3  and  C_9
    4  A    between atoms: C_3  and  C_19
    5  A    between atoms: C_4  and  N_27
    6  A    between atoms: C_11  and  C_19
    7  A    between atoms: C_16  and  C_18
    8  A    between atoms: C_17  and  C_29
                            x       y       z     vdW  Elec       q    Type
                         _______ _______ _______ _____ _____    ______ ____

>  <TORSDO>
F 8

$$$$
