=
 OpenBabel10232409123D

 59 67  0  0  1  0  0  0  0  0999 V2000
  182.7650  177.7750  139.6480 C   0  0  0  0  0  0  0  0  0  0  0  0
  184.1500  177.3100  135.8190 C   0  0  0  0  0  0  0  0  0  0  0  0
  187.0570  177.4280  138.0340 C   0  0  2  0  0  3  0  0  0  0  0  0
  185.0400  177.4060  136.8790 C   0  0  0  0  0  0  0  0  0  0  0  0
  183.3590  177.7520  141.0050 C   0  0  0  0  0  1  0  0  0  0  0  0
  188.2850  176.3020  135.2640 C   0  0  2  0  0  3  0  0  0  0  0  0
  182.4130  177.9590  137.3850 C   0  0  0  0  0  0  0  0  0  0  0  0
  186.8430  176.7060  135.4940 C   0  0  0  0  0  0  0  0  0  0  0  0
  188.3360  174.7960  135.0320 C   0  0  0  0  0  1  0  0  0  0  0  0
  189.1380  178.1830  136.7250 C   0  0  0  0  0  2  0  0  0  0  0  0
  184.6390  176.8990  134.6160 N   0  0  0  0  0  0  0  0  0  0  0  0
  184.7630  177.8140  138.0960 C   0  0  0  0  0  0  0  0  0  0  0  0
  188.1240  178.5150  137.8460 C   0  0  2  0  0  3  0  0  0  0  0  0
  185.9420  176.6070  134.4600 N   0  0  0  0  0  0  0  0  0  0  0  0
  189.2390  176.6870  136.4060 C   0  0  2  0  0  3  0  0  0  0  0  0
  183.4110  178.3810  138.4380 C   0  0  0  0  0  0  0  0  0  0  0  0
  181.3800  177.4020  137.9970 C   0  0  0  0  0  0  0  0  0  0  0  0
  186.3540  177.1170  136.7380 C   0  0  0  0  0  0  0  0  0  0  0  0
  185.9550  177.9170  138.8790 N   0  0  0  0  0  2  0  0  0  0  0  0
  181.6010  177.2690  139.3940 N   0  0  0  0  0  2  0  0  0  0  0  0
  180.3780  176.6520  137.3150 N   0  0  0  0  0  1  0  0  0  0  0  0
  182.8450  177.5680  136.0120 C   0  0  0  0  0  3  0  0  0  0  0  0
  190.5960  176.3470  136.0550 N   0  0  0  0  0  0  0  0  0  0  0  0
  191.4290  175.9920  136.9650 C   0  0  0  0  0  3  0  0  0  0  0  0
  192.8270  175.6230  136.6030 C   0  0  0  0  0  2  0  0  0  0  0  0
  193.4070  174.8540  137.6440 O   0  0  0  0  0  0  0  0  0  0  0  0
  195.4030  174.9830  138.8020 N   0  0  0  0  0  0  0  0  0  0  0  0
  194.9960  173.3850  135.3530 C   0  0  0  0  0  2  0  0  0  0  0  0
  199.5920  174.6300  139.2930 C   0  0  0  0  0  3  0  0  0  0  0  0
  195.0590  172.3680  136.4840 C   0  0  0  0  0  2  0  0  0  0  0  0
  198.8030  175.1460  140.3300 C   0  0  0  0  0  3  0  0  0  0  0  0
  197.5980  174.2620  137.9670 C   0  0  0  0  0  0  0  0  0  0  0  0
  197.4190  175.2510  140.1760 C   0  0  0  0  0  3  0  0  0  0  0  0
  196.8140  174.8130  138.9940 C   0  0  0  0  0  0  0  0  0  0  0  0
  194.7720  174.5550  137.7500 C   0  0  0  0  0  0  0  0  0  0  0  0
  195.5610  173.7760  136.7010 C   0  0  0  0  0  0  0  0  0  0  0  0
  198.9890  174.1870  138.1090 C   0  0  0  0  0  3  0  0  0  0  0  0
  196.9830  173.8130  136.7980 O   0  0  0  0  0  0  0  0  0  0  0  0
  188.7660  178.7240  139.0920 O   0  0  0  0  0  0  0  0  0  0  0  0
  190.2430  177.7010  140.6030 O   0  0  0  0  0  0  0  0  0  0  0  0
  188.9500  177.3710  141.0650 C   0  0  2  0  0  3  0  0  0  0  0  0
  189.2550  177.5020  139.6120 C   0  0  1  0  0  3  0  0  0  0  0  0
  188.3540  178.5180  141.6110 O   0  0  0  0  0  0  0  0  0  0  0  0
  187.5130  178.0250  142.6080 C   0  0  0  0  0  2  0  0  0  0  0  0
  188.1870  176.8770  143.3380 C   0  0  0  0  0  2  0  0  0  0  0  0
  188.3330  177.2030  144.8260 C   0  0  2  0  0  3  0  0  0  0  0  0
  187.4930  178.5080  146.8440 C   0  0  0  0  0  1  0  0  0  0  0  0
  187.2540  178.1450  145.3830 C   0  0  2  0  0  3  0  0  0  0  0  0
  185.9220  177.7180  145.0970 O   0  0  0  0  0  0  0  0  0  0  0  0
  184.0220  178.8880  144.3070 C   0  0  0  0  0  2  0  0  0  0  0  0
  184.8210  178.5490  145.3110 C   0  0  0  0  0  3  0  0  0  0  0  0
  189.7470  177.6750  145.2020 C   0  0  2  0  0  3  0  0  0  0  0  0
  191.5270  179.1710  144.1870 C   0  0  0  0  0  1  0  0  0  0  0  0
  190.7080  177.9020  144.0070 C   0  0  0  0  0  3  0  0  0  0  0  0
  191.6160  176.7150  143.7220 C   0  0  0  0  0  1  0  0  0  0  0  0
  190.3100  176.9050  146.3680 C   0  0  0  0  0  0  0  0  0  0  0  0
  189.5230  176.2410  147.0980 O   0  0  0  0  0  0  0  0  0  0  0  0
  191.6820  176.8910  146.6240 O   0  0  0  0  0  0  0  0  0  0  0  0
  192.2700  175.9070  147.4650 C   0  0  0  0  0  1  0  0  0  0  0  0
  1  5  1  0  0  0  0
  2 22  2  0  0  0  0
  2  4  1  0  0  0  0
  3 18  1  6  0  0  0
  3 19  1  0  0  0  0
  4 12  2  0  0  0  0
  6  9  1  1  0  0  0
  6  8  1  0  0  0  0
  6 15  1  0  0  0  0
  7 17  2  0  0  0  0
  7 16  1  0  0  0  0
  8 18  2  0  0  0  0
 10 13  1  0  0  0  0
 11  2  1  0  0  0  0
 12 16  1  0  0  0  0
 12 19  1  0  0  0  0
 13  3  1  0  0  0  0
 13 39  1  1  0  0  0
 14 11  2  0  0  0  0
 14  8  1  0  0  0  0
 15 23  1  6  0  0  0
 15 10  1  0  0  0  0
 16  1  2  0  0  0  0
 17 20  1  0  0  0  0
 18  4  1  0  0  0  0
 20  1  1  0  0  0  0
 21 17  1  0  0  0  0
 22  7  1  0  0  0  0
 23 24  2  0  0  0  0
 25 24  1  0  0  0  0
 25 26  1  0  0  0  0
 26 35  1  0  0  0  0
 27 34  1  0  0  0  0
 28 30  1  0  0  0  0
 28 36  1  0  0  0  0
 29 31  1  0  0  0  0
 30 36  1  0  0  0  0
 32 37  1  0  0  0  0
 32 34  2  0  0  0  0
 33 31  2  0  0  0  0
 34 33  1  0  0  0  0
 35 27  2  0  0  0  0
 36 38  1  0  0  0  0
 36 35  1  0  0  0  0
 37 29  2  0  0  0  0
 38 32  1  0  0  0  0
 40 41  1  0  0  0  0
 41 43  1  1  0  0  0
 42 39  1  1  0  0  0
 42 40  1  0  0  0  0
 42 41  1  0  0  0  0
 43 44  1  0  0  0  0
 44 45  1  0  0  0  0
 46 45  1  6  0  0  0
 46 52  1  0  0  0  0
 46 48  1  0  0  0  0
 48 47  1  1  0  0  0
 49 51  1  0  0  0  0
 49 48  1  0  0  0  0
 50 51  2  0  0  0  0
 52 54  1  6  0  0  0
 52 56  1  0  0  0  0
 54 53  1  0  0  0  0
 55 54  1  0  0  0  0
 56 58  1  0  0  0  0
 56 57  2  0  0  0  0
 58 59  1  0  0  0  0
M  END
>  <MODEL>
1

>  <REMARK>
 VINA RESULT:      -8.5      0.000      0.000
  Name = 
  17 active torsions:
  status: ('A' for Active; 'I' for Inactive)
    1  A    between atoms: O_3  and  C_44
    2  A    between atoms: C_4  and  O_26
    3  A    between atoms: C_4  and  C_35
    4  A    between atoms: O_7  and  C_13
    5  A    between atoms: O_7  and  C_57
    6  A    between atoms: C_13  and  C_27
    7  A    between atoms: C_14  and  C_27
    8  A    between atoms: C_14  and  C_44
    9  A    between atoms: C_14  and  C_53
   10  A    between atoms: C_16  and  O_26
   11  A    between atoms: C_18  and  O_50
   12  A    between atoms: C_27  and  C_35
   13  A    between atoms: O_31  and  C_38
   14  A    between atoms: O_31  and  C_51
   15  A    between atoms: C_36  and  O_50
   16  A    between atoms: N_42  and  C_43
   17  A    between atoms: C_51  and  C_54
                            x       y       z     vdW  Elec       q    Type
                         _______ _______ _______ _____ _____    ______ ____

>  <TORSDO>
F 17

$$$$
=
 OpenBabel10232409123D

 59 67  0  0  1  0  0  0  0  0999 V2000
  184.7020  179.0200  144.3810 C   0  0  0  0  0  0  0  0  0  0  0  0
  188.2380  177.2050  145.3780 C   0  0  0  0  0  0  0  0  0  0  0  0
  188.3990  178.0510  141.8240 C   0  0  2  0  0  3  0  0  0  0  0  0
  188.0080  177.6220  144.0750 C   0  0  0  0  0  0  0  0  0  0  0  0
  184.1650  179.7250  143.1940 C   0  0  0  0  0  1  0  0  0  0  0  0
  191.4730  177.3760  142.5620 C   0  0  2  0  0  3  0  0  0  0  0  0
  185.8950  177.6680  145.8060 C   0  0  0  0  0  0  0  0  0  0  0  0
  190.2960  177.2920  143.5110 C   0  0  0  0  0  0  0  0  0  0  0  0
  192.3900  178.5020  143.0240 C   0  0  0  0  0  1  0  0  0  0  0  0
  190.0860  176.5240  140.6250 C   0  0  0  0  0  2  0  0  0  0  0  0
  189.5110  176.8500  145.7140 N   0  0  0  0  0  0  0  0  0  0  0  0
  186.8510  177.9670  143.5590 C   0  0  0  0  0  0  0  0  0  0  0  0
  188.6050  176.9460  140.7780 C   0  0  2  0  0  3  0  0  0  0  0  0
  190.5050  176.8930  144.8100 N   0  0  0  0  0  0  0  0  0  0  0  0
  191.0840  177.5900  141.0900 C   0  0  2  0  0  3  0  0  0  0  0  0
  185.5720  177.8000  144.3350 C   0  0  0  0  0  0  0  0  0  0  0  0
  185.1720  178.5570  146.4670 C   0  0  0  0  0  0  0  0  0  0  0  0
  188.9970  177.6680  143.1530 C   0  0  0  0  0  0  0  0  0  0  0  0
  186.9720  178.2010  142.1540 N   0  0  0  0  0  2  0  0  0  0  0  0
  184.4470  179.4080  145.5890 N   0  0  0  0  0  2  0  0  0  0  0  0
  185.4090  178.9020  147.8290 N   0  0  0  0  0  1  0  0  0  0  0  0
  187.2350  177.2100  146.2720 C   0  0  0  0  0  3  0  0  0  0  0  0
  192.2610  177.5620  140.2570 N   0  0  0  0  0  0  0  0  0  0  0  0
  192.2870  176.8360  139.1980 C   0  0  0  0  0  3  0  0  0  0  0  0
  193.4950  176.8190  138.3260 C   0  0  0  0  0  2  0  0  0  0  0  0
  193.2160  176.1090  137.1310 O   0  0  0  0  0  0  0  0  0  0  0  0
  194.3920  174.1450  137.4500 N   0  0  0  0  0  0  0  0  0  0  0  0
  191.0800  174.4070  135.5580 C   0  0  0  0  0  2  0  0  0  0  0  0
  195.2640  170.0460  136.8520 C   0  0  0  0  0  3  0  0  0  0  0  0
  190.9220  173.8790  136.9760 C   0  0  0  0  0  2  0  0  0  0  0  0
  196.0970  170.8330  137.6590 C   0  0  0  0  0  3  0  0  0  0  0  0
  193.8040  171.9490  136.5160 C   0  0  0  0  0  0  0  0  0  0  0  0
  195.8040  172.1820  137.8690 C   0  0  0  0  0  3  0  0  0  0  0  0
  194.6600  172.7440  137.2960 C   0  0  0  0  0  0  0  0  0  0  0  0
  193.3230  174.7190  136.9850 C   0  0  0  0  0  0  0  0  0  0  0  0
  192.2730  173.8470  136.3010 C   0  0  0  0  0  0  0  0  0  0  0  0
  194.1150  170.6050  136.2800 C   0  0  0  0  0  3  0  0  0  0  0  0
  192.6550  172.5160  135.9620 O   0  0  0  0  0  0  0  0  0  0  0  0
  188.0550  177.3920  139.5510 O   0  0  0  0  0  0  0  0  0  0  0  0
  188.2130  175.8080  137.8250 O   0  0  0  0  0  0  0  0  0  0  0  0
  188.0760  177.0550  137.1750 C   0  0  2  0  0  3  0  0  0  0  0  0
  188.8200  176.9160  138.4600 C   0  0  1  0  0  3  0  0  0  0  0  0
  186.7620  177.5150  137.3440 O   0  0  0  0  0  0  0  0  0  0  0  0
  186.2650  177.6150  136.0450 C   0  0  0  0  0  2  0  0  0  0  0  0
  185.1280  176.6280  135.8450 C   0  0  0  0  0  2  0  0  0  0  0  0
  184.7050  176.0230  137.1840 C   0  0  2  0  0  3  0  0  0  0  0  0
  185.7180  173.9250  136.1560 C   0  0  0  0  0  1  0  0  0  0  0  0
  184.8450  174.4940  137.2690 C   0  0  2  0  0  3  0  0  0  0  0  0
  183.6000  173.8170  137.4400 O   0  0  0  0  0  0  0  0  0  0  0  0
  182.0100  172.3040  136.5530 C   0  0  0  0  0  2  0  0  0  0  0  0
  183.2750  172.6770  136.7030 C   0  0  0  0  0  3  0  0  0  0  0  0
  183.3150  176.4910  137.6450 C   0  0  2  0  0  3  0  0  0  0  0  0
  181.5050  176.1550  135.8990 C   0  0  0  0  0  1  0  0  0  0  0  0
  182.4460  177.1580  136.5480 C   0  0  0  0  0  3  0  0  0  0  0  0
  181.6750  178.3750  137.0390 C   0  0  0  0  0  1  0  0  0  0  0  0
  183.3670  177.2000  138.9720 C   0  0  0  0  0  0  0  0  0  0  0  0
  182.5150  176.9060  139.8560 O   0  0  0  0  0  0  0  0  0  0  0  0
  184.3590  178.1450  139.2430 O   0  0  0  0  0  0  0  0  0  0  0  0
  184.0410  179.5130  139.4660 C   0  0  0  0  0  1  0  0  0  0  0  0
  1 20  1  0  0  0  0
  2 11  1  0  0  0  0
  2 22  2  0  0  0  0
  3 19  1  1  0  0  0
  3 18  1  0  0  0  0
  4  2  1  0  0  0  0
  5  1  1  0  0  0  0
  6  9  1  1  0  0  0
  6  8  1  0  0  0  0
  7 22  1  0  0  0  0
  7 17  2  0  0  0  0
  8 14  1  0  0  0  0
 10 13  1  0  0  0  0
 10 15  1  0  0  0  0
 12  4  2  0  0  0  0
 12 16  1  0  0  0  0
 13 39  1  6  0  0  0
 13  3  1  0  0  0  0
 14 11  2  0  0  0  0
 15 23  1  6  0  0  0
 15  6  1  0  0  0  0
 16  1  2  0  0  0  0
 16  7  1  0  0  0  0
 17 21  1  0  0  0  0
 18  8  2  0  0  0  0
 18  4  1  0  0  0  0
 19 12  1  0  0  0  0
 20 17  1  0  0  0  0
 24 23  2  0  0  0  0
 25 24  1  0  0  0  0
 26 25  1  0  0  0  0
 28 36  1  0  0  0  0
 28 30  1  0  0  0  0
 29 31  1  0  0  0  0
 31 33  2  0  0  0  0
 32 34  2  0  0  0  0
 34 27  1  0  0  0  0
 34 33  1  0  0  0  0
 35 26  1  0  0  0  0
 35 27  2  0  0  0  0
 36 30  1  0  0  0  0
 36 35  1  0  0  0  0
 37 32  1  0  0  0  0
 37 29  2  0  0  0  0
 38 36  1  0  0  0  0
 38 32  1  0  0  0  0
 40 42  1  0  0  0  0
 41 43  1  1  0  0  0
 41 40  1  0  0  0  0
 41 42  1  0  0  0  0
 42 39  1  1  0  0  0
 44 43  1  0  0  0  0
 45 44  1  0  0  0  0
 46 45  1  6  0  0  0
 46 48  1  0  0  0  0
 46 52  1  0  0  0  0
 48 47  1  6  0  0  0
 48 49  1  0  0  0  0
 50 51  2  0  0  0  0
 51 49  1  0  0  0  0
 52 54  1  6  0  0  0
 52 56  1  0  0  0  0
 53 54  1  0  0  0  0
 54 55  1  0  0  0  0
 56 58  1  0  0  0  0
 56 57  2  0  0  0  0
 58 59  1  0  0  0  0
M  END
>  <MODEL>
2

>  <REMARK>
 VINA RESULT:      -8.0      3.346      7.657
  Name = 
  17 active torsions:
  status: ('A' for Active; 'I' for Inactive)
    1  A    between atoms: O_3  and  C_44
    2  A    between atoms: C_4  and  O_26
    3  A    between atoms: C_4  and  C_35
    4  A    between atoms: O_7  and  C_13
    5  A    between atoms: O_7  and  C_57
    6  A    between atoms: C_13  and  C_27
    7  A    between atoms: C_14  and  C_27
    8  A    between atoms: C_14  and  C_44
    9  A    between atoms: C_14  and  C_53
   10  A    between atoms: C_16  and  O_26
   11  A    between atoms: C_18  and  O_50
   12  A    between atoms: C_27  and  C_35
   13  A    between atoms: O_31  and  C_38
   14  A    between atoms: O_31  and  C_51
   15  A    between atoms: C_36  and  O_50
   16  A    between atoms: N_42  and  C_43
   17  A    between atoms: C_51  and  C_54
                            x       y       z     vdW  Elec       q    Type
                         _______ _______ _______ _____ _____    ______ ____

>  <TORSDO>
F 17

$$$$
=
 OpenBabel10232409123D

 59 67  0  0  1  0  0  0  0  0999 V2000
  185.3670  179.1110  144.2890 C   0  0  0  0  0  0  0  0  0  0  0  0
  188.7480  176.7950  144.3320 C   0  0  0  0  0  0  0  0  0  0  0  0
  188.3460  178.0920  140.9370 C   0  0  2  0  0  3  0  0  0  0  0  0
  188.3340  177.4080  143.1580 C   0  0  0  0  0  0  0  0  0  0  0  0
  184.7160  180.0250  143.3230 C   0  0  0  0  0  1  0  0  0  0  0  0
  191.3840  176.9860  140.9490 C   0  0  2  0  0  3  0  0  0  0  0  0
  186.6140  177.4540  145.2800 C   0  0  0  0  0  0  0  0  0  0  0  0
  190.4070  176.9060  142.1040 C   0  0  0  0  0  0  0  0  0  0  0  0
  192.5160  177.9300  141.3360 C   0  0  0  0  0  1  0  0  0  0  0  0
  189.5520  176.5640  139.2560 C   0  0  0  0  0  2  0  0  0  0  0  0
  190.0010  176.2590  144.3590 N   0  0  0  0  0  0  0  0  0  0  0  0
  187.1580  177.9470  142.9320 C   0  0  0  0  0  0  0  0  0  0  0  0
  188.1980  177.1230  139.7550 C   0  0  2  0  0  3  0  0  0  0  0  0
  190.8020  176.3140  143.2810 N   0  0  0  0  0  0  0  0  0  0  0  0
  190.7560  177.4390  139.6210 C   0  0  2  0  0  3  0  0  0  0  0  0
  186.0390  177.8190  143.9310 C   0  0  0  0  0  0  0  0  0  0  0  0
  186.1570  178.3200  146.1700 C   0  0  0  0  0  0  0  0  0  0  0  0
  189.1280  177.4690  142.0650 C   0  0  0  0  0  0  0  0  0  0  0  0
  187.0410  178.3530  141.5670 N   0  0  0  0  0  2  0  0  0  0  0  0
  185.4010  179.3570  145.5590 N   0  0  0  0  0  2  0  0  0  0  0  0
  186.6930  178.4480  147.4840 N   0  0  0  0  0  1  0  0  0  0  0  0
  187.9430  176.7900  145.4080 C   0  0  0  0  0  3  0  0  0  0  0  0
  191.7380  177.3940  138.5670 N   0  0  0  0  0  0  0  0  0  0  0  0
  192.0000  176.2860  137.9730 C   0  0  0  0  0  3  0  0  0  0  0  0
  193.0020  176.2400  136.8720 C   0  0  0  0  0  2  0  0  0  0  0  0
  194.2420  175.7640  137.3690 O   0  0  0  0  0  0  0  0  0  0  0  0
  194.0180  173.5620  136.7060 N   0  0  0  0  0  0  0  0  0  0  0  0
  196.1120  174.7270  139.6840 C   0  0  0  0  0  2  0  0  0  0  0  0
  194.4620  169.3690  137.0830 C   0  0  0  0  0  3  0  0  0  0  0  0
  196.9430  174.4230  138.4470 C   0  0  0  0  0  2  0  0  0  0  0  0
  193.7600  169.9080  135.9960 C   0  0  0  0  0  3  0  0  0  0  0  0
  194.9490  171.6080  137.8700 C   0  0  0  0  0  0  0  0  0  0  0  0
  193.6240  171.2910  135.8620 C   0  0  0  0  0  3  0  0  0  0  0  0
  194.2140  172.1440  136.8000 C   0  0  0  0  0  0  0  0  0  0  0  0
  194.5770  174.4120  137.5150 C   0  0  0  0  0  0  0  0  0  0  0  0
  195.5410  173.8770  138.5710 C   0  0  0  0  0  0  0  0  0  0  0  0
  195.0580  170.2210  138.0220 C   0  0  0  0  0  3  0  0  0  0  0  0
  195.5470  172.4680  138.7910 O   0  0  0  0  0  0  0  0  0  0  0  0
  187.4910  177.7890  138.7240 O   0  0  0  0  0  0  0  0  0  0  0  0
  186.8000  176.0460  137.3110 O   0  0  0  0  0  0  0  0  0  0  0  0
  186.4710  177.2350  136.6240 C   0  0  2  0  0  3  0  0  0  0  0  0
  187.6850  177.1350  137.4840 C   0  0  1  0  0  3  0  0  0  0  0  0
  185.3860  177.8470  137.2670 O   0  0  0  0  0  0  0  0  0  0  0  0
  184.4140  176.8490  137.3250 C   0  0  0  0  0  2  0  0  0  0  0  0
  183.1030  177.3650  136.7600 C   0  0  0  0  0  2  0  0  0  0  0  0
  182.0270  177.3920  137.8470 C   0  0  2  0  0  3  0  0  0  0  0  0
  180.7470  175.6380  139.1770 C   0  0  0  0  0  1  0  0  0  0  0  0
  181.0370  176.2170  137.7980 C   0  0  2  0  0  3  0  0  0  0  0  0
  181.3620  175.2390  136.8100 O   0  0  0  0  0  0  0  0  0  0  0  0
  182.6440  173.2570  136.9850 C   0  0  0  0  0  2  0  0  0  0  0  0
  181.4830  173.8850  137.1260 C   0  0  0  0  0  3  0  0  0  0  0  0
  181.2990  178.7430  137.9400 C   0  0  2  0  0  3  0  0  0  0  0  0
  180.1340  178.8590  135.6890 C   0  0  0  0  0  1  0  0  0  0  0  0
  181.1610  179.5130  136.6010 C   0  0  0  0  0  3  0  0  0  0  0  0
  180.8540  180.9920  136.7780 C   0  0  0  0  0  1  0  0  0  0  0  0
  181.7560  179.5520  139.1250 C   0  0  0  0  0  0  0  0  0  0  0  0
  182.9090  180.0660  139.1070 O   0  0  0  0  0  0  0  0  0  0  0  0
  180.9130  179.7660  140.2170 O   0  0  0  0  0  0  0  0  0  0  0  0
  180.9880  178.9570  141.3840 C   0  0  0  0  0  1  0  0  0  0  0  0
  1 20  1  0  0  0  0
  2 11  1  0  0  0  0
  2 22  2  0  0  0  0
  3 19  1  1  0  0  0
  3 18  1  0  0  0  0
  4  2  1  0  0  0  0
  5  1  1  0  0  0  0
  6  9  1  1  0  0  0
  6  8  1  0  0  0  0
  7 22  1  0  0  0  0
  7 17  2  0  0  0  0
  8 14  1  0  0  0  0
 10 15  1  0  0  0  0
 10 13  1  0  0  0  0
 12  4  2  0  0  0  0
 12 16  1  0  0  0  0
 13 39  1  6  0  0  0
 13  3  1  0  0  0  0
 14 11  2  0  0  0  0
 15 23  1  6  0  0  0
 15  6  1  0  0  0  0
 16  1  2  0  0  0  0
 16  7  1  0  0  0  0
 17 21  1  0  0  0  0
 18  8  2  0  0  0  0
 18  4  1  0  0  0  0
 19 12  1  0  0  0  0
 20 17  1  0  0  0  0
 24 23  2  0  0  0  0
 25 26  1  0  0  0  0
 25 24  1  0  0  0  0
 26 35  1  0  0  0  0
 27 34  1  0  0  0  0
 27 35  2  0  0  0  0
 29 37  1  0  0  0  0
 30 36  1  0  0  0  0
 30 28  1  0  0  0  0
 31 29  2  0  0  0  0
 32 37  2  0  0  0  0
 32 38  1  0  0  0  0
 33 31  1  0  0  0  0
 33 34  2  0  0  0  0
 34 32  1  0  0  0  0
 35 36  1  0  0  0  0
 36 38  1  0  0  0  0
 36 28  1  0  0  0  0
 40 42  1  0  0  0  0
 41 43  1  1  0  0  0
 41 40  1  0  0  0  0
 41 42  1  0  0  0  0
 42 39  1  1  0  0  0
 43 44  1  0  0  0  0
 45 44  1  0  0  0  0
 46 45  1  6  0  0  0
 46 52  1  0  0  0  0
 48 46  1  0  0  0  0
 48 47  1  1  0  0  0
 49 51  1  0  0  0  0
 49 48  1  0  0  0  0
 50 51  2  0  0  0  0
 52 54  1  6  0  0  0
 52 56  1  0  0  0  0
 53 54  1  0  0  0  0
 54 55  1  0  0  0  0
 56 58  1  0  0  0  0
 57 56  2  0  0  0  0
 58 59  1  0  0  0  0
M  END
>  <MODEL>
3

>  <REMARK>
 VINA RESULT:      -8.0      3.220      7.766
  Name = 
  17 active torsions:
  status: ('A' for Active; 'I' for Inactive)
    1  A    between atoms: O_3  and  C_44
    2  A    between atoms: C_4  and  O_26
    3  A    between atoms: C_4  and  C_35
    4  A    between atoms: O_7  and  C_13
    5  A    between atoms: O_7  and  C_57
    6  A    between atoms: C_13  and  C_27
    7  A    between atoms: C_14  and  C_27
    8  A    between atoms: C_14  and  C_44
    9  A    between atoms: C_14  and  C_53
   10  A    between atoms: C_16  and  O_26
   11  A    between atoms: C_18  and  O_50
   12  A    between atoms: C_27  and  C_35
   13  A    between atoms: O_31  and  C_38
   14  A    between atoms: O_31  and  C_51
   15  A    between atoms: C_36  and  O_50
   16  A    between atoms: N_42  and  C_43
   17  A    between atoms: C_51  and  C_54
                            x       y       z     vdW  Elec       q    Type
                         _______ _______ _______ _____ _____    ______ ____

>  <TORSDO>
F 17

$$$$
=
 OpenBabel10232409123D

 59 67  0  0  1  0  0  0  0  0999 V2000
  193.1610  172.8390  134.9010 C   0  0  0  0  0  0  0  0  0  0  0  0
  193.5570  175.8820  137.6170 C   0  0  0  0  0  0  0  0  0  0  0  0
  189.9800  175.3480  137.0770 C   0  0  2  0  0  3  0  0  0  0  0  0
  192.2970  175.4710  137.2040 C   0  0  0  0  0  0  0  0  0  0  0  0
  192.0410  172.0360  134.3580 C   0  0  0  0  0  1  0  0  0  0  0  0
  190.0590  177.1740  139.7430 C   0  0  2  0  0  3  0  0  0  0  0  0
  194.4540  174.4880  135.8450 C   0  0  0  0  0  0  0  0  0  0  0  0
  191.2630  176.7270  138.9400 C   0  0  0  0  0  0  0  0  0  0  0  0
  190.1060  176.4960  141.1070 C   0  0  0  0  0  1  0  0  0  0  0  0
  188.6680  177.4840  137.6520 C   0  0  0  0  0  2  0  0  0  0  0  0
  193.6310  176.7050  138.7010 N   0  0  0  0  0  0  0  0  0  0  0  0
  192.0250  174.7120  136.1680 C   0  0  0  0  0  0  0  0  0  0  0  0
  189.1020  176.4910  136.5480 C   0  0  2  0  0  3  0  0  0  0  0  0
  192.5200  177.1130  139.3390 N   0  0  0  0  0  0  0  0  0  0  0  0
  188.7080  176.8930  139.0660 C   0  0  2  0  0  3  0  0  0  0  0  0
  193.1010  174.3080  135.1950 C   0  0  2  0  0  3  0  0  0  0  0  0
  195.1200  173.3510  135.7280 C   0  0  0  0  0  0  0  0  0  0  0  0
  191.1710  175.8750  137.8350 C   0  0  0  0  0  0  0  0  0  0  0  0
  190.6130  174.6160  135.9670 N   0  0  0  0  0  2  0  0  0  0  0  0
  194.3180  172.3230  135.1620 N   0  0  0  0  0  0  0  0  0  0  0  0
  196.3150  173.0660  136.4510 N   0  0  0  0  0  1  0  0  0  0  0  0
  194.6530  175.4270  136.9860 C   0  0  0  0  0  3  0  0  0  0  0  0
  187.6330  177.4360  139.8590 N   0  0  0  0  0  0  0  0  0  0  0  0
  187.8470  178.4280  140.6460 C   0  0  0  0  0  3  0  0  0  0  0  0
  186.7340  179.0020  141.4540 C   0  0  0  0  0  2  0  0  0  0  0  0
  186.2660  178.0380  142.3830 O   0  0  0  0  0  0  0  0  0  0  0  0
  187.6340  177.8850  144.2390 N   0  0  0  0  0  0  0  0  0  0  0  0
  183.8690  178.5350  144.3680 C   0  0  0  0  0  2  0  0  0  0  0  0
  188.4840  177.6320  148.3780 C   0  0  0  0  0  3  0  0  0  0  0  0
  184.7040  179.7930  144.5580 C   0  0  0  0  0  2  0  0  0  0  0  0
  189.5230  177.5600  147.4400 C   0  0  0  0  0  3  0  0  0  0  0  0
  186.8940  177.9640  146.5810 C   0  0  0  0  0  0  0  0  0  0  0  0
  189.2480  177.6570  146.0740 C   0  0  0  0  0  3  0  0  0  0  0  0
  187.9330  177.8550  145.6420 C   0  0  0  0  0  0  0  0  0  0  0  0
  186.4440  178.1150  143.7700 C   0  0  0  0  0  0  0  0  0  0  0  0
  185.3270  178.4320  144.7600 C   0  0  0  0  0  0  0  0  0  0  0  0
  187.1670  177.8350  147.9470 C   0  0  0  0  0  3  0  0  0  0  0  0
  185.5880  178.1790  146.1380 O   0  0  0  0  0  0  0  0  0  0  0  0
  187.9880  175.9210  135.8840 O   0  0  0  0  0  0  0  0  0  0  0  0
  186.1830  175.0540  137.1100 O   0  0  0  0  0  0  0  0  0  0  0  0
  186.2750  174.2410  135.9590 C   0  0  2  0  0  3  0  0  0  0  0  0
  187.4840  174.8170  136.6140 C   0  0  1  0  0  3  0  0  0  0  0  0
  185.8450  174.9780  134.8460 O   0  0  0  0  0  0  0  0  0  0  0  0
  184.6080  174.4200  134.5230 C   0  0  0  0  0  2  0  0  0  0  0  0
  183.4920  175.3830  134.8890 C   0  0  0  0  0  2  0  0  0  0  0  0
  182.6590  174.8210  136.0420 C   0  0  2  0  0  3  0  0  0  0  0  0
  180.3890  173.7000  135.7660 C   0  0  0  0  0  1  0  0  0  0  0  0
  181.9020  173.5240  135.7130 C   0  0  2  0  0  3  0  0  0  0  0  0
  182.3840  172.3860  136.4270 O   0  0  0  0  0  0  0  0  0  0  0  0
  183.5080  170.3140  136.2090 C   0  0  0  0  0  2  0  0  0  0  0  0
  182.5550  171.1460  135.8090 C   0  0  0  0  0  3  0  0  0  0  0  0
  181.7350  175.8690  136.6840 C   0  0  2  0  0  3  0  0  0  0  0  0
  180.4190  177.4690  135.2180 C   0  0  0  0  0  1  0  0  0  0  0  0
  181.7170  177.2520  135.9820 C   0  0  0  0  0  3  0  0  0  0  0  0
  181.9850  178.4160  136.9250 C   0  0  0  0  0  1  0  0  0  0  0  0
  181.8580  175.8890  138.1850 C   0  0  0  0  0  0  0  0  0  0  0  0
  182.9920  175.7060  138.7070 O   0  0  0  0  0  0  0  0  0  0  0  0
  180.7480  176.1410  138.9930 O   0  0  0  0  0  0  0  0  0  0  0  0
  180.3100  175.2020  139.9660 C   0  0  0  0  0  1  0  0  0  0  0  0
  1 20  2  0  0  0  0
  2 11  1  0  0  0  0
  3 19  1  6  0  0  0
  3 18  1  0  0  0  0
  4  2  1  0  0  0  0
  4 18  1  0  0  0  0
  5  1  1  0  0  0  0
  6  9  1  1  0  0  0
  7 22  1  0  0  0  0
  8 14  1  0  0  0  0
  8  6  1  0  0  0  0
 10 15  1  0  0  0  0
 11 14  2  0  0  0  0
 12  4  2  0  0  0  0
 13 39  1  1  0  0  0
 13  3  1  0  0  0  0
 13 10  1  0  0  0  0
 15  6  1  0  0  0  0
 15 23  1  1  0  0  0
 16  1  1  1  0  0  0
 16  7  1  0  0  0  0
 16 12  1  0  0  0  0
 17  7  2  0  0  0  0
 17 21  1  0  0  0  0
 18  8  2  0  0  0  0
 19 12  1  0  0  0  0
 20 17  1  0  0  0  0
 22  2  2  0  0  0  0
 23 24  2  0  0  0  0
 24 25  1  0  0  0  0
 25 26  1  0  0  0  0
 26 35  1  0  0  0  0
 27 34  1  0  0  0  0
 28 30  1  0  0  0  0
 28 36  1  0  0  0  0
 30 36  1  0  0  0  0
 31 29  2  0  0  0  0
 32 37  2  0  0  0  0
 33 31  1  0  0  0  0
 34 33  2  0  0  0  0
 34 32  1  0  0  0  0
 35 27  2  0  0  0  0
 35 36  1  0  0  0  0
 36 38  1  0  0  0  0
 37 29  1  0  0  0  0
 38 32  1  0  0  0  0
 41 43  1  6  0  0  0
 41 42  1  0  0  0  0
 41 40  1  0  0  0  0
 42 39  1  6  0  0  0
 42 40  1  0  0  0  0
 44 43  1  0  0  0  0
 44 45  1  0  0  0  0
 46 45  1  6  0  0  0
 46 52  1  0  0  0  0
 48 47  1  1  0  0  0
 48 46  1  0  0  0  0
 48 49  1  0  0  0  0
 51 50  2  0  0  0  0
 51 49  1  0  0  0  0
 52 54  1  6  0  0  0
 52 56  1  0  0  0  0
 53 54  1  0  0  0  0
 54 55  1  0  0  0  0
 56 57  2  0  0  0  0
 56 58  1  0  0  0  0
 58 59  1  0  0  0  0
M  END
>  <MODEL>
4

>  <REMARK>
 VINA RESULT:      -7.6      3.316     10.771
  Name = 
  17 active torsions:
  status: ('A' for Active; 'I' for Inactive)
    1  A    between atoms: O_3  and  C_44
    2  A    between atoms: C_4  and  O_26
    3  A    between atoms: C_4  and  C_35
    4  A    between atoms: O_7  and  C_13
    5  A    between atoms: O_7  and  C_57
    6  A    between atoms: C_13  and  C_27
    7  A    between atoms: C_14  and  C_27
    8  A    between atoms: C_14  and  C_44
    9  A    between atoms: C_14  and  C_53
   10  A    between atoms: C_16  and  O_26
   11  A    between atoms: C_18  and  O_50
   12  A    between atoms: C_27  and  C_35
   13  A    between atoms: O_31  and  C_38
   14  A    between atoms: O_31  and  C_51
   15  A    between atoms: C_36  and  O_50
   16  A    between atoms: N_42  and  C_43
   17  A    between atoms: C_51  and  C_54
                            x       y       z     vdW  Elec       q    Type
                         _______ _______ _______ _____ _____    ______ ____

>  <TORSDO>
F 17

$$$$
=
 OpenBabel10232409123D

 59 67  0  0  1  0  0  0  0  0999 V2000
  182.9870  178.7950  140.5460 C   0  0  0  0  0  0  0  0  0  0  0  0
  183.3440  177.6200  136.6360 C   0  0  0  0  0  0  0  0  0  0  0  0
  186.6880  177.5590  138.1130 C   0  0  2  0  0  3  0  0  0  0  0  0
  184.4670  177.7090  137.4460 C   0  0  0  0  0  0  0  0  0  0  0  0
  183.8810  178.8530  141.7250 C   0  0  0  0  0  1  0  0  0  0  0  0
  187.0650  175.9000  135.3640 C   0  0  2  0  0  3  0  0  0  0  0  0
  182.1280  178.7360  138.4150 C   0  0  0  0  0  0  0  0  0  0  0  0
  185.7830  176.5560  135.8340 C   0  0  0  0  0  0  0  0  0  0  0  0
  186.8700  174.3890  135.3760 C   0  0  0  0  0  1  0  0  0  0  0  0
  188.4730  177.7950  136.2750 C   0  0  0  0  0  2  0  0  0  0  0  0
  183.4750  176.9820  135.4380 N   0  0  0  0  0  0  0  0  0  0  0  0
  184.5430  178.3110  138.6110 C   0  0  0  0  0  0  0  0  0  0  0  0
  187.8070  178.4280  137.5210 C   0  0  2  0  0  3  0  0  0  0  0  0
  184.6560  176.4680  135.0520 N   0  0  0  0  0  0  0  0  0  0  0  0
  188.3060  176.2740  136.1910 C   0  0  2  0  0  3  0  0  0  0  0  0
  183.3950  179.1270  139.1420 C   0  0  0  0  0  0  0  0  0  0  0  0
  181.2110  178.4360  139.3200 C   0  0  0  0  0  0  0  0  0  0  0  0
  185.6620  177.1990  137.0700 C   0  0  0  0  0  0  0  0  0  0  0  0
  185.8910  178.3230  139.0870 N   0  0  0  0  0  2  0  0  0  0  0  0
  181.7420  178.4530  140.6380 N   0  0  0  0  0  2  0  0  0  0  0  0
  179.9890  177.7740  139.0060 N   0  0  0  0  0  1  0  0  0  0  0  0
  182.1660  178.1060  137.0640 C   0  0  0  0  0  3  0  0  0  0  0  0
  189.4850  175.6780  135.6130 N   0  0  0  0  0  0  0  0  0  0  0  0
  190.3100  176.3970  134.9410 C   0  0  0  0  0  3  0  0  0  0  0  0
  191.5380  175.7880  134.3570 C   0  0  0  0  0  2  0  0  0  0  0  0
  192.6810  176.5170  134.7730 O   0  0  0  0  0  0  0  0  0  0  0  0
  194.9110  175.9340  134.9370 N   0  0  0  0  0  0  0  0  0  0  0  0
  192.2890  175.2550  137.6340 C   0  0  0  0  0  2  0  0  0  0  0  0
  198.2690  174.0290  136.6730 C   0  0  0  0  0  3  0  0  0  0  0  0
  193.1660  176.4610  137.9380 C   0  0  0  0  0  2  0  0  0  0  0  0
  198.4030  174.7320  135.4670 C   0  0  0  0  0  3  0  0  0  0  0  0
  195.9340  174.6660  136.7760 C   0  0  0  0  0  0  0  0  0  0  0  0
  197.3000  175.3730  134.8990 C   0  0  0  0  0  3  0  0  0  0  0  0
  196.0630  175.3380  135.5500 C   0  0  0  0  0  0  0  0  0  0  0  0
  193.7450  175.9800  135.5090 C   0  0  0  0  0  0  0  0  0  0  0  0
  193.6140  175.4320  136.9270 C   0  0  0  0  0  0  0  0  0  0  0  0
  197.0320  173.9970  137.3290 C   0  0  0  0  0  3  0  0  0  0  0  0
  194.6990  174.6510  137.4250 O   0  0  0  0  0  0  0  0  0  0  0  0
  188.7500  178.6920  138.5450 O   0  0  0  0  0  0  0  0  0  0  0  0
  190.5130  177.7550  139.7790 O   0  0  0  0  0  0  0  0  0  0  0  0
  189.3350  177.3010  140.4120 C   0  0  2  0  0  3  0  0  0  0  0  0
  189.4080  177.5010  138.9360 C   0  0  1  0  0  3  0  0  0  0  0  0
  188.7370  178.3760  141.0860 O   0  0  0  0  0  0  0  0  0  0  0  0
  189.5640  178.5900  142.1890 C   0  0  0  0  0  2  0  0  0  0  0  0
  189.4360  177.4350  143.1670 C   0  0  0  0  0  2  0  0  0  0  0  0
  189.3700  177.9580  144.6040 C   0  0  2  0  0  3  0  0  0  0  0  0
  191.9020  178.2250  144.6190 C   0  0  0  0  0  1  0  0  0  0  0  0
  190.6700  177.7930  145.4060 C   0  0  2  0  0  3  0  0  0  0  0  0
  190.7950  176.5160  146.0320 O   0  0  0  0  0  0  0  0  0  0  0  0
  192.4460  175.5140  147.4020 C   0  0  0  0  0  2  0  0  0  0  0  0
  192.0350  175.8960  146.1990 C   0  0  0  0  0  3  0  0  0  0  0  0
  188.1530  177.4300  145.3810 C   0  0  2  0  0  3  0  0  0  0  0  0
  186.2880  177.4190  143.6610 C   0  0  0  0  0  1  0  0  0  0  0  0
  186.7880  178.0320  144.9600 C   0  0  0  0  0  3  0  0  0  0  0  0
  185.7210  177.9370  146.0410 C   0  0  0  0  0  1  0  0  0  0  0  0
  188.4160  177.3550  146.8620 C   0  0  0  0  0  0  0  0  0  0  0  0
  188.7210  176.2410  147.3730 O   0  0  0  0  0  0  0  0  0  0  0  0
  188.3590  178.4980  147.6600 O   0  0  0  0  0  0  0  0  0  0  0  0
  188.3560  178.4140  149.0790 C   0  0  0  0  0  1  0  0  0  0  0  0
  1 20  1  0  0  0  0
  1  5  1  0  0  0  0
  2 22  2  0  0  0  0
  2  4  1  0  0  0  0
  3 18  1  6  0  0  0
  3 19  1  0  0  0  0
  4 12  2  0  0  0  0
  6  9  1  1  0  0  0
  6  8  1  0  0  0  0
  6 15  1  0  0  0  0
  7 16  1  0  0  0  0
  7 17  2  0  0  0  0
  8 18  2  0  0  0  0
 10 13  1  0  0  0  0
 11  2  1  0  0  0  0
 12 19  1  0  0  0  0
 12 16  1  0  0  0  0
 13  3  1  0  0  0  0
 13 39  1  1  0  0  0
 14 11  2  0  0  0  0
 14  8  1  0  0  0  0
 15 23  1  6  0  0  0
 15 10  1  0  0  0  0
 16  1  2  0  0  0  0
 17 20  1  0  0  0  0
 18  4  1  0  0  0  0
 21 17  1  0  0  0  0
 22  7  1  0  0  0  0
 24 23  2  0  0  0  0
 25 26  1  0  0  0  0
 25 24  1  0  0  0  0
 26 35  1  0  0  0  0
 27 35  2  0  0  0  0
 27 34  1  0  0  0  0
 28 30  1  0  0  0  0
 29 37  1  0  0  0  0
 31 29  2  0  0  0  0
 32 37  2  0  0  0  0
 32 38  1  0  0  0  0
 33 31  1  0  0  0  0
 33 34  2  0  0  0  0
 34 32  1  0  0  0  0
 35 36  1  0  0  0  0
 36 38  1  0  0  0  0
 36 28  1  0  0  0  0
 36 30  1  0  0  0  0
 40 41  1  0  0  0  0
 41 43  1  1  0  0  0
 42 39  1  1  0  0  0
 42 40  1  0  0  0  0
 42 41  1  0  0  0  0
 43 44  1  0  0  0  0
 44 45  1  0  0  0  0
 46 45  1  6  0  0  0
 46 52  1  0  0  0  0
 46 48  1  0  0  0  0
 48 47  1  6  0  0  0
 48 49  1  0  0  0  0
 49 51  1  0  0  0  0
 51 50  2  0  0  0  0
 52 54  1  1  0  0  0
 52 56  1  0  0  0  0
 53 54  1  0  0  0  0
 54 55  1  0  0  0  0
 56 57  2  0  0  0  0
 56 58  1  0  0  0  0
 58 59  1  0  0  0  0
M  END
>  <MODEL>
5

>  <REMARK>
 VINA RESULT:      -7.6      1.599      3.128
  Name = 
  17 active torsions:
  status: ('A' for Active; 'I' for Inactive)
    1  A    between atoms: O_3  and  C_44
    2  A    between atoms: C_4  and  O_26
    3  A    between atoms: C_4  and  C_35
    4  A    between atoms: O_7  and  C_13
    5  A    between atoms: O_7  and  C_57
    6  A    between atoms: C_13  and  C_27
    7  A    between atoms: C_14  and  C_27
    8  A    between atoms: C_14  and  C_44
    9  A    between atoms: C_14  and  C_53
   10  A    between atoms: C_16  and  O_26
   11  A    between atoms: C_18  and  O_50
   12  A    between atoms: C_27  and  C_35
   13  A    between atoms: O_31  and  C_38
   14  A    between atoms: O_31  and  C_51
   15  A    between atoms: C_36  and  O_50
   16  A    between atoms: N_42  and  C_43
   17  A    between atoms: C_51  and  C_54
                            x       y       z     vdW  Elec       q    Type
                         _______ _______ _______ _____ _____    ______ ____

>  <TORSDO>
F 17

$$$$
=
 OpenBabel10232409123D

 59 67  0  0  1  0  0  0  0  0999 V2000
  184.8480  179.1580  144.3680 C   0  0  0  0  0  0  0  0  0  0  0  0
  188.3610  177.2650  145.3030 C   0  0  0  0  0  0  0  0  0  0  0  0
  188.4940  178.1440  141.7560 C   0  0  2  0  0  3  0  0  0  0  0  0
  188.1220  177.6990  144.0070 C   0  0  0  0  0  0  0  0  0  0  0  0
  184.3110  179.8850  143.1950 C   0  0  0  0  0  1  0  0  0  0  0  0
  191.5630  177.4030  142.4480 C   0  0  2  0  0  3  0  0  0  0  0  0
  186.0320  177.7690  145.7650 C   0  0  0  0  0  0  0  0  0  0  0  0
  190.3960  177.3320  143.4110 C   0  0  0  0  0  0  0  0  0  0  0  0
  192.5080  178.5060  142.9110 C   0  0  0  0  0  1  0  0  0  0  0  0
  190.1360  176.5970  140.5210 C   0  0  0  0  0  2  0  0  0  0  0  0
  189.6300  176.8820  145.6200 N   0  0  0  0  0  0  0  0  0  0  0  0
  186.9660  178.0720  143.5090 C   0  0  0  0  0  0  0  0  0  0  0  0
  188.6660  177.0460  140.6970 C   0  0  2  0  0  3  0  0  0  0  0  0
  190.6130  176.9150  144.7040 N   0  0  0  0  0  0  0  0  0  0  0  0
  191.1610  177.6390  140.9840 C   0  0  2  0  0  3  0  0  0  0  0  0
  185.6940  177.9220  144.3000 C   0  0  0  0  0  0  0  0  0  0  0  0
  185.3340  178.6650  146.4440 C   0  0  0  0  0  0  0  0  0  0  0  0
  189.1010  177.7360  143.0740 C   0  0  0  0  0  0  0  0  0  0  0  0
  187.0740  178.3180  142.1050 N   0  0  0  0  0  2  0  0  0  0  0  0
  184.6160  179.5390  145.5840 N   0  0  0  0  0  2  0  0  0  0  0  0
  185.5950  178.9910  147.8060 N   0  0  0  0  0  1  0  0  0  0  0  0
  187.3690  177.2800  146.2100 C   0  0  0  0  0  3  0  0  0  0  0  0
  192.3260  177.5970  140.1360 N   0  0  0  0  0  0  0  0  0  0  0  0
  192.3320  176.8670  139.0790 C   0  0  0  0  0  3  0  0  0  0  0  0
  193.5290  176.8350  138.1920 C   0  0  0  0  0  2  0  0  0  0  0  0
  194.0280  175.5110  138.1050 O   0  0  0  0  0  0  0  0  0  0  0  0
  196.2530  174.8870  138.0940 N   0  0  0  0  0  0  0  0  0  0  0  0
  194.1490  175.4680  134.9560 C   0  0  0  0  0  2  0  0  0  0  0  0
  200.0230  174.1220  136.3270 C   0  0  0  0  0  3  0  0  0  0  0  0
  194.3230  173.9960  135.2990 C   0  0  0  0  0  2  0  0  0  0  0  0
  199.8620  174.0210  137.7160 C   0  0  0  0  0  3  0  0  0  0  0  0
  197.6670  174.6390  136.1000 C   0  0  0  0  0  0  0  0  0  0  0  0
  198.6170  174.2590  138.3010 C   0  0  0  0  0  3  0  0  0  0  0  0
  197.5170  174.5720  137.4950 C   0  0  0  0  0  0  0  0  0  0  0  0
  195.1820  175.1380  137.4030 C   0  0  0  0  0  0  0  0  0  0  0  0
  195.2600  175.0270  135.8830 C   0  0  0  0  0  0  0  0  0  0  0  0
  198.9230  174.4320  135.5180 C   0  0  0  0  0  3  0  0  0  0  0  0
  196.5600  174.9360  135.3040 O   0  0  0  0  0  0  0  0  0  0  0  0
  188.1090  177.5150  139.4810 O   0  0  0  0  0  0  0  0  0  0  0  0
  188.7080  176.2520  137.5950 O   0  0  0  0  0  0  0  0  0  0  0  0
  188.3630  177.5260  137.0940 C   0  0  2  0  0  3  0  0  0  0  0  0
  189.0290  177.3550  138.4170 C   0  0  1  0  0  3  0  0  0  0  0  0
  186.9740  177.6930  137.1930 O   0  0  0  0  0  0  0  0  0  0  0  0
  186.5440  177.7690  135.8680 C   0  0  0  0  0  2  0  0  0  0  0  0
  185.1200  177.2550  135.7520 C   0  0  0  0  0  2  0  0  0  0  0  0
  184.7640  176.3930  136.9640 C   0  0  2  0  0  3  0  0  0  0  0  0
  185.3710  174.5250  135.3440 C   0  0  0  0  0  1  0  0  0  0  0  0
  185.0400  174.8910  136.7860 C   0  0  2  0  0  3  0  0  0  0  0  0
  184.0540  174.0540  137.3900 O   0  0  0  0  0  0  0  0  0  0  0  0
  183.1610  171.8900  137.0470 C   0  0  0  0  0  2  0  0  0  0  0  0
  183.3010  173.1460  136.6440 C   0  0  0  0  0  3  0  0  0  0  0  0
  183.3410  176.6490  137.4880 C   0  0  2  0  0  3  0  0  0  0  0  0
  181.4080  176.2890  135.8840 C   0  0  0  0  0  1  0  0  0  0  0  0
  182.3720  177.3080  136.4730 C   0  0  0  0  0  3  0  0  0  0  0  0
  181.6130  178.4980  137.0410 C   0  0  0  0  0  1  0  0  0  0  0  0
  183.3450  177.2330  138.8760 C   0  0  0  0  0  0  0  0  0  0  0  0
  184.1150  178.2010  139.1290 O   0  0  0  0  0  0  0  0  0  0  0  0
  182.4900  176.7430  139.8640 O   0  0  0  0  0  0  0  0  0  0  0  0
  181.6190  175.6460  139.6160 C   0  0  0  0  0  1  0  0  0  0  0  0
  1 20  1  0  0  0  0
  2 11  1  0  0  0  0
  2 22  2  0  0  0  0
  3 19  1  1  0  0  0
  3 18  1  0  0  0  0
  4  2  1  0  0  0  0
  5  1  1  0  0  0  0
  6  9  1  1  0  0  0
  6  8  1  0  0  0  0
  7 22  1  0  0  0  0
  7 17  2  0  0  0  0
  8 14  1  0  0  0  0
 10 13  1  0  0  0  0
 10 15  1  0  0  0  0
 12  4  2  0  0  0  0
 12 16  1  0  0  0  0
 13 39  1  6  0  0  0
 13  3  1  0  0  0  0
 14 11  2  0  0  0  0
 15 23  1  6  0  0  0
 15  6  1  0  0  0  0
 16  1  2  0  0  0  0
 16  7  1  0  0  0  0
 17 21  1  0  0  0  0
 18  8  2  0  0  0  0
 18  4  1  0  0  0  0
 19 12  1  0  0  0  0
 20 17  1  0  0  0  0
 24 23  2  0  0  0  0
 25 24  1  0  0  0  0
 26 25  1  0  0  0  0
 28 30  1  0  0  0  0
 28 36  1  0  0  0  0
 29 31  1  0  0  0  0
 30 36  1  0  0  0  0
 31 33  2  0  0  0  0
 32 34  2  0  0  0  0
 34 27  1  0  0  0  0
 34 33  1  0  0  0  0
 35 27  2  0  0  0  0
 35 26  1  0  0  0  0
 36 35  1  0  0  0  0
 37 32  1  0  0  0  0
 37 29  2  0  0  0  0
 38 36  1  0  0  0  0
 38 32  1  0  0  0  0
 40 42  1  0  0  0  0
 41 43  1  1  0  0  0
 41 40  1  0  0  0  0
 41 42  1  0  0  0  0
 42 39  1  1  0  0  0
 44 43  1  0  0  0  0
 45 44  1  0  0  0  0
 46 45  1  6  0  0  0
 46 52  1  0  0  0  0
 48 47  1  6  0  0  0
 48 46  1  0  0  0  0
 48 49  1  0  0  0  0
 51 50  2  0  0  0  0
 51 49  1  0  0  0  0
 52 54  1  6  0  0  0
 52 56  1  0  0  0  0
 53 54  1  0  0  0  0
 54 55  1  0  0  0  0
 56 57  2  0  0  0  0
 56 58  1  0  0  0  0
 59 58  1  0  0  0  0
M  END
>  <MODEL>
6

>  <REMARK>
 VINA RESULT:      -7.5      3.108      7.513
  Name = 
  17 active torsions:
  status: ('A' for Active; 'I' for Inactive)
    1  A    between atoms: O_3  and  C_44
    2  A    between atoms: C_4  and  O_26
    3  A    between atoms: C_4  and  C_35
    4  A    between atoms: O_7  and  C_13
    5  A    between atoms: O_7  and  C_57
    6  A    between atoms: C_13  and  C_27
    7  A    between atoms: C_14  and  C_27
    8  A    between atoms: C_14  and  C_44
    9  A    between atoms: C_14  and  C_53
   10  A    between atoms: C_16  and  O_26
   11  A    between atoms: C_18  and  O_50
   12  A    between atoms: C_27  and  C_35
   13  A    between atoms: O_31  and  C_38
   14  A    between atoms: O_31  and  C_51
   15  A    between atoms: C_36  and  O_50
   16  A    between atoms: N_42  and  C_43
   17  A    between atoms: C_51  and  C_54
                            x       y       z     vdW  Elec       q    Type
                         _______ _______ _______ _____ _____    ______ ____

>  <TORSDO>
F 17

$$$$
=
 OpenBabel10232409123D

 59 67  0  0  1  0  0  0  0  0999 V2000
  183.6560  178.7800  140.8120 C   0  0  0  0  0  0  0  0  0  0  0  0
  183.9500  177.5580  136.9120 C   0  0  0  0  0  0  0  0  0  0  0  0
  187.3060  177.4390  138.3580 C   0  0  2  0  0  3  0  0  0  0  0  0
  185.0820  177.6310  137.7100 C   0  0  0  0  0  0  0  0  0  0  0  0
  184.5620  178.8310  141.9830 C   0  0  0  0  0  1  0  0  0  0  0  0
  187.6210  175.7450  135.6230 C   0  0  2  0  0  3  0  0  0  0  0  0
  182.7760  178.7190  138.6900 C   0  0  0  0  0  0  0  0  0  0  0  0
  186.3580  176.4330  136.0980 C   0  0  0  0  0  0  0  0  0  0  0  0
  187.3930  174.2380  135.6530 C   0  0  0  0  0  1  0  0  0  0  0  0
  189.0780  177.6170  136.5020 C   0  0  0  0  0  2  0  0  0  0  0  0
  184.0560  176.9060  135.7190 N   0  0  0  0  0  0  0  0  0  0  0  0
  185.1830  178.2430  138.8680 C   0  0  0  0  0  0  0  0  0  0  0  0
  188.4380  178.2770  137.7470 C   0  0  2  0  0  3  0  0  0  0  0  0
  185.2210  176.3620  135.3280 N   0  0  0  0  0  0  0  0  0  0  0  0
  188.8770  176.0990  136.4350 C   0  0  2  0  0  3  0  0  0  0  0  0
  184.0570  179.0880  139.4010 C   0  0  0  0  0  0  0  0  0  0  0  0
  181.8610  178.4480  139.6070 C   0  0  0  0  0  0  0  0  0  0  0  0
  186.2620  177.0910  137.3290 C   0  0  0  0  0  0  0  0  0  0  0  0
  186.5350  178.2300  139.3310 N   0  0  0  0  0  2  0  0  0  0  0  0
  182.4050  178.4660  140.9190 N   0  0  0  0  0  2  0  0  0  0  0  0
  180.6220  177.8090  139.3100 N   0  0  0  0  0  1  0  0  0  0  0  0
  182.7870  178.0740  137.3450 C   0  0  0  0  0  3  0  0  0  0  0  0
  190.0380  175.4730  135.8520 N   0  0  0  0  0  0  0  0  0  0  0  0
  191.2070  175.7030  136.3310 C   0  0  0  0  0  3  0  0  0  0  0  0
  192.4060  175.0440  135.7420 C   0  0  0  0  0  2  0  0  0  0  0  0
  193.3940  174.8590  136.7420 O   0  0  0  0  0  0  0  0  0  0  0  0
  193.6590  172.5990  136.3400 N   0  0  0  0  0  0  0  0  0  0  0  0
  195.4870  174.5430  139.0770 C   0  0  0  0  0  2  0  0  0  0  0  0
  195.0400  168.6830  137.1640 C   0  0  0  0  0  3  0  0  0  0  0  0
  196.3450  174.2860  137.8460 C   0  0  0  0  0  2  0  0  0  0  0  0
  194.2160  168.9210  136.0540 C   0  0  0  0  0  3  0  0  0  0  0  0
  195.0240  171.0520  137.6740 C   0  0  0  0  0  0  0  0  0  0  0  0
  193.7700  170.2140  135.7720 C   0  0  0  0  0  3  0  0  0  0  0  0
  194.1700  171.2810  136.5830 C   0  0  0  0  0  0  0  0  0  0  0  0
  194.0270  173.6410  137.0240 C   0  0  0  0  0  0  0  0  0  0  0  0
  195.1030  173.4620  138.0910 C   0  0  0  0  0  0  0  0  0  0  0  0
  195.4440  169.7510  137.9750 C   0  0  0  0  0  3  0  0  0  0  0  0
  195.4290  172.1260  138.4660 O   0  0  0  0  0  0  0  0  0  0  0  0
  189.3950  178.5310  138.7600 O   0  0  0  0  0  0  0  0  0  0  0  0
  191.0880  177.5700  140.0730 O   0  0  0  0  0  0  0  0  0  0  0  0
  189.8860  176.9820  140.5260 C   0  0  2  0  0  3  0  0  0  0  0  0
  190.0920  177.3450  139.0950 C   0  0  1  0  0  3  0  0  0  0  0  0
  189.1510  177.9400  141.2390 O   0  0  0  0  0  0  0  0  0  0  0  0
  189.8400  178.0730  142.4450 C   0  0  0  0  0  2  0  0  0  0  0  0
  188.9970  177.5370  143.5880 C   0  0  0  0  0  2  0  0  0  0  0  0
  189.4500  178.1470  144.9160 C   0  0  2  0  0  3  0  0  0  0  0  0
  191.9660  178.5330  144.8450 C   0  0  0  0  0  1  0  0  0  0  0  0
  190.8320  177.6770  145.3980 C   0  0  2  0  0  3  0  0  0  0  0  0
  191.0370  176.2720  145.2560 O   0  0  0  0  0  0  0  0  0  0  0  0
  192.1200  175.8310  147.3150 C   0  0  0  0  0  2  0  0  0  0  0  0
  191.9860  175.5860  146.0170 C   0  0  0  0  0  3  0  0  0  0  0  0
  188.3920  178.0270  146.0260 C   0  0  2  0  0  3  0  0  0  0  0  0
  189.6980  178.4330  148.1630 C   0  0  0  0  0  1  0  0  0  0  0  0
  188.8990  177.4190  147.3590 C   0  0  0  0  0  3  0  0  0  0  0  0
  187.7940  176.8120  148.2100 C   0  0  0  0  0  1  0  0  0  0  0  0
  187.0850  177.4890  145.5060 C   0  0  0  0  0  0  0  0  0  0  0  0
  187.1020  176.5280  144.6880 O   0  0  0  0  0  0  0  0  0  0  0  0
  185.8680  178.0150  145.9430 O   0  0  0  0  0  0  0  0  0  0  0  0
  185.5520  179.3910  145.7800 C   0  0  0  0  0  1  0  0  0  0  0  0
  1 20  1  0  0  0  0
  1  5  1  0  0  0  0
  2 22  2  0  0  0  0
  2  4  1  0  0  0  0
  3 18  1  6  0  0  0
  3 19  1  0  0  0  0
  4 12  2  0  0  0  0
  6  9  1  1  0  0  0
  6  8  1  0  0  0  0
  6 15  1  0  0  0  0
  7 16  1  0  0  0  0
  7 17  2  0  0  0  0
  8 18  2  0  0  0  0
 10 13  1  0  0  0  0
 11  2  1  0  0  0  0
 12 19  1  0  0  0  0
 12 16  1  0  0  0  0
 13  3  1  0  0  0  0
 13 39  1  1  0  0  0
 14 11  2  0  0  0  0
 14  8  1  0  0  0  0
 15 23  1  6  0  0  0
 15 10  1  0  0  0  0
 16  1  2  0  0  0  0
 17 20  1  0  0  0  0
 18  4  1  0  0  0  0
 21 17  1  0  0  0  0
 22  7  1  0  0  0  0
 23 24  2  0  0  0  0
 25 24  1  0  0  0  0
 25 26  1  0  0  0  0
 26 35  1  0  0  0  0
 27 34  1  0  0  0  0
 27 35  2  0  0  0  0
 29 37  1  0  0  0  0
 30 36  1  0  0  0  0
 30 28  1  0  0  0  0
 31 29  2  0  0  0  0
 32 37  2  0  0  0  0
 32 38  1  0  0  0  0
 33 31  1  0  0  0  0
 33 34  2  0  0  0  0
 34 32  1  0  0  0  0
 35 36  1  0  0  0  0
 36 38  1  0  0  0  0
 36 28  1  0  0  0  0
 40 41  1  0  0  0  0
 41 43  1  1  0  0  0
 42 39  1  1  0  0  0
 42 40  1  0  0  0  0
 42 41  1  0  0  0  0
 43 44  1  0  0  0  0
 44 45  1  0  0  0  0
 46 45  1  6  0  0  0
 46 48  1  0  0  0  0
 46 52  1  0  0  0  0
 48 47  1  6  0  0  0
 49 48  1  0  0  0  0
 49 51  1  0  0  0  0
 51 50  2  0  0  0  0
 52 56  1  6  0  0  0
 52 54  1  0  0  0  0
 54 53  1  0  0  0  0
 54 55  1  0  0  0  0
 56 58  1  0  0  0  0
 57 56  2  0  0  0  0
 59 58  1  0  0  0  0
M  END
>  <MODEL>
7

>  <REMARK>
 VINA RESULT:      -7.5      1.564      3.629
  Name = 
  17 active torsions:
  status: ('A' for Active; 'I' for Inactive)
    1  A    between atoms: O_3  and  C_44
    2  A    between atoms: C_4  and  O_26
    3  A    between atoms: C_4  and  C_35
    4  A    between atoms: O_7  and  C_13
    5  A    between atoms: O_7  and  C_57
    6  A    between atoms: C_13  and  C_27
    7  A    between atoms: C_14  and  C_27
    8  A    between atoms: C_14  and  C_44
    9  A    between atoms: C_14  and  C_53
   10  A    between atoms: C_16  and  O_26
   11  A    between atoms: C_18  and  O_50
   12  A    between atoms: C_27  and  C_35
   13  A    between atoms: O_31  and  C_38
   14  A    between atoms: O_31  and  C_51
   15  A    between atoms: C_36  and  O_50
   16  A    between atoms: N_42  and  C_43
   17  A    between atoms: C_51  and  C_54
                            x       y       z     vdW  Elec       q    Type
                         _______ _______ _______ _____ _____    ______ ____

>  <TORSDO>
F 17

$$$$
=
 OpenBabel10232409123D

 59 67  0  0  1  0  0  0  0  0999 V2000
  184.8840  178.8340  144.5490 C   0  0  0  0  0  0  0  0  0  0  0  0
  188.5340  177.3410  145.6640 C   0  0  0  0  0  0  0  0  0  0  0  0
  188.6560  177.9700  142.0640 C   0  0  2  0  0  3  0  0  0  0  0  0
  188.2830  177.6580  144.3370 C   0  0  0  0  0  0  0  0  0  0  0  0
  184.3060  179.4220  143.3190 C   0  0  0  0  0  1  0  0  0  0  0  0
  191.7660  177.5640  142.8480 C   0  0  2  0  0  3  0  0  0  0  0  0
  186.1620  177.6630  146.0590 C   0  0  0  0  0  0  0  0  0  0  0  0
  190.5920  177.4570  143.7990 C   0  0  0  0  0  0  0  0  0  0  0  0
  192.5980  178.7800  143.2390 C   0  0  0  0  0  1  0  0  0  0  0  0
  190.4540  176.4940  140.9670 C   0  0  0  0  0  2  0  0  0  0  0  0
  189.8270  177.1000  146.0240 N   0  0  0  0  0  0  0  0  0  0  0  0
  187.1070  177.8870  143.7990 C   0  0  0  0  0  0  0  0  0  0  0  0
  188.9460  176.8190  141.0910 C   0  0  2  0  0  3  0  0  0  0  0  0
  190.8200  177.1570  145.1210 N   0  0  0  0  0  0  0  0  0  0  0  0
  191.3710  177.6560  141.3650 C   0  0  2  0  0  3  0  0  0  0  0  0
  185.8390  177.6780  144.5820 C   0  0  0  0  0  0  0  0  0  0  0  0
  185.3730  178.5390  146.6610 C   0  0  0  0  0  0  0  0  0  0  0  0
  189.2720  177.7160  143.4160 C   0  0  0  0  0  0  0  0  0  0  0  0
  187.2200  178.0380  142.3820 N   0  0  0  0  0  2  0  0  0  0  0  0
  184.5950  179.2780  145.7300 N   0  0  0  0  0  2  0  0  0  0  0  0
  185.5780  178.9850  147.9990 N   0  0  0  0  0  1  0  0  0  0  0  0
  187.5280  177.3320  146.5550 C   0  0  0  0  0  3  0  0  0  0  0  0
  192.5520  177.6600  140.5370 N   0  0  0  0  0  0  0  0  0  0  0  0
  192.6130  176.9130  139.4940 C   0  0  0  0  0  3  0  0  0  0  0  0
  193.8250  176.9280  138.6270 C   0  0  0  0  0  2  0  0  0  0  0  0
  194.5960  175.7600  138.8580 O   0  0  0  0  0  0  0  0  0  0  0  0
  193.5690  174.3030  137.3870 N   0  0  0  0  0  0  0  0  0  0  0  0
  197.2220  174.0580  138.4880 C   0  0  0  0  0  2  0  0  0  0  0  0
  193.2780  170.8160  135.0050 C   0  0  0  0  0  3  0  0  0  0  0  0
  197.0500  174.6770  137.1090 C   0  0  0  0  0  2  0  0  0  0  0  0
  192.1910  171.6950  135.1020 C   0  0  0  0  0  3  0  0  0  0  0  0
  194.5880  172.2920  136.4100 C   0  0  0  0  0  0  0  0  0  0  0  0
  192.2890  172.8530  135.8760 C   0  0  0  0  0  3  0  0  0  0  0  0
  193.4860  173.1520  136.5340 C   0  0  0  0  0  0  0  0  0  0  0  0
  194.6640  174.6640  137.9880 C   0  0  0  0  0  0  0  0  0  0  0  0
  195.9340  173.8620  137.7190 C   0  0  0  0  0  0  0  0  0  0  0  0
  194.4790  171.1150  135.6600 C   0  0  0  0  0  3  0  0  0  0  0  0
  195.7830  172.6080  137.0580 O   0  0  0  0  0  0  0  0  0  0  0  0
  188.3730  177.1450  139.8380 O   0  0  0  0  0  0  0  0  0  0  0  0
  189.7380  178.3990  138.3960 O   0  0  0  0  0  0  0  0  0  0  0  0
  188.4140  178.6930  138.0040 C   0  0  2  0  0  3  0  0  0  0  0  0
  188.7730  178.4400  139.4280 C   0  0  1  0  0  3  0  0  0  0  0  0
  187.8680  177.5710  137.3630 O   0  0  0  0  0  0  0  0  0  0  0  0
  186.6830  178.0420  136.7980 C   0  0  0  0  0  2  0  0  0  0  0  0
  185.4890  177.3880  137.4700 C   0  0  0  0  0  2  0  0  0  0  0  0
  184.8680  176.3360  136.5490 C   0  0  2  0  0  3  0  0  0  0  0  0
  183.9060  177.1760  134.3460 C   0  0  0  0  0  1  0  0  0  0  0  0
  185.1150  176.5720  135.0500 C   0  0  2  0  0  3  0  0  0  0  0  0
  185.6780  175.4440  134.3810 O   0  0  0  0  0  0  0  0  0  0  0  0
  187.6450  174.4650  135.2640 C   0  0  0  0  0  2  0  0  0  0  0  0
  187.0560  175.2210  134.3460 C   0  0  0  0  0  3  0  0  0  0  0  0
  183.3810  176.0790  136.8450 C   0  0  2  0  0  3  0  0  0  0  0  0
  181.5650  177.5610  137.8160 C   0  0  0  0  0  1  0  0  0  0  0  0
  182.8320  176.7740  138.1170 C   0  0  0  0  0  3  0  0  0  0  0  0
  182.6050  175.8210  139.2820 C   0  0  0  0  0  1  0  0  0  0  0  0
  183.0110  174.6300  136.6690 C   0  0  0  0  0  0  0  0  0  0  0  0
  181.7930  174.3200  136.5540 O   0  0  0  0  0  0  0  0  0  0  0  0
  183.9940  173.6420  136.5960 O   0  0  0  0  0  0  0  0  0  0  0  0
  184.7300  173.2400  137.7450 C   0  0  0  0  0  1  0  0  0  0  0  0
  1 16  2  0  0  0  0
  1 20  1  0  0  0  0
  2 11  1  0  0  0  0
  2 22  2  0  0  0  0
  3 19  1  1  0  0  0
  3 18  1  0  0  0  0
  4  2  1  0  0  0  0
  5  1  1  0  0  0  0
  6  9  1  1  0  0  0
  6  8  1  0  0  0  0
  7 22  1  0  0  0  0
  7 17  2  0  0  0  0
  8 14  1  0  0  0  0
 10 13  1  0  0  0  0
 10 15  1  0  0  0  0
 12  4  2  0  0  0  0
 12 16  1  0  0  0  0
 13 39  1  6  0  0  0
 13  3  1  0  0  0  0
 14 11  2  0  0  0  0
 15 23  1  6  0  0  0
 15  6  1  0  0  0  0
 16  7  1  0  0  0  0
 17 21  1  0  0  0  0
 18  8  2  0  0  0  0
 18  4  1  0  0  0  0
 19 12  1  0  0  0  0
 20 17  1  0  0  0  0
 24 23  2  0  0  0  0
 25 26  1  0  0  0  0
 25 24  1  0  0  0  0
 27 35  2  0  0  0  0
 29 31  2  0  0  0  0
 29 37  1  0  0  0  0
 30 36  1  0  0  0  0
 30 28  1  0  0  0  0
 31 33  1  0  0  0  0
 32 34  1  0  0  0  0
 32 38  1  0  0  0  0
 33 34  2  0  0  0  0
 34 27  1  0  0  0  0
 35 26  1  0  0  0  0
 36 35  1  0  0  0  0
 36 28  1  0  0  0  0
 37 32  2  0  0  0  0
 38 36  1  0  0  0  0
 40 42  1  0  0  0  0
 41 43  1  6  0  0  0
 41 40  1  0  0  0  0
 41 42  1  0  0  0  0
 42 39  1  6  0  0  0
 44 43  1  0  0  0  0
 44 45  1  0  0  0  0
 46 52  1  0  0  0  0
 46 45  1  1  0  0  0
 48 47  1  6  0  0  0
 48 46  1  0  0  0  0
 49 48  1  0  0  0  0
 51 49  1  0  0  0  0
 51 50  2  0  0  0  0
 52 56  1  1  0  0  0
 52 54  1  0  0  0  0
 53 54  1  0  0  0  0
 54 55  1  0  0  0  0
 57 56  2  0  0  0  0
 58 56  1  0  0  0  0
 58 59  1  0  0  0  0
M  END
>  <MODEL>
8

>  <REMARK>
 VINA RESULT:      -7.4      3.239      8.071
  Name = 
  17 active torsions:
  status: ('A' for Active; 'I' for Inactive)
    1  A    between atoms: O_3  and  C_44
    2  A    between atoms: C_4  and  O_26
    3  A    between atoms: C_4  and  C_35
    4  A    between atoms: O_7  and  C_13
    5  A    between atoms: O_7  and  C_57
    6  A    between atoms: C_13  and  C_27
    7  A    between atoms: C_14  and  C_27
    8  A    between atoms: C_14  and  C_44
    9  A    between atoms: C_14  and  C_53
   10  A    between atoms: C_16  and  O_26
   11  A    between atoms: C_18  and  O_50
   12  A    between atoms: C_27  and  C_35
   13  A    between atoms: O_31  and  C_38
   14  A    between atoms: O_31  and  C_51
   15  A    between atoms: C_36  and  O_50
   16  A    between atoms: N_42  and  C_43
   17  A    between atoms: C_51  and  C_54
                            x       y       z     vdW  Elec       q    Type
                         _______ _______ _______ _____ _____    ______ ____

>  <TORSDO>
F 17

$$$$
=
 OpenBabel10232409123D

 59 67  0  0  1  0  0  0  0  0999 V2000
  194.0040  174.5620  137.3880 C   0  0  0  0  0  0  0  0  0  0  0  0
  190.1790  174.0010  136.0300 C   0  0  0  0  0  0  0  0  0  0  0  0
  190.1190  176.8250  138.3510 C   0  0  2  0  0  3  0  0  0  0  0  0
  190.4560  175.0030  136.9480 C   0  0  0  0  0  0  0  0  0  0  0  0
  194.7050  175.5800  138.2040 C   0  0  0  0  0  1  0  0  0  0  0  0
  187.2670  177.0470  136.8460 C   0  0  2  0  0  3  0  0  0  0  0  0
  192.4320  173.1910  136.4250 C   0  0  0  0  0  0  0  0  0  0  0  0
  188.3070  175.9690  136.6190 C   0  0  0  0  0  0  0  0  0  0  0  0
  187.1580  177.8910  135.5820 C   0  0  0  0  0  1  0  0  0  0  0  0
  187.7570  177.1200  139.3270 C   0  0  0  0  0  2  0  0  0  0  0  0
  188.9610  174.0210  135.4180 N   0  0  0  0  0  2  0  0  0  0  0  0
  191.5530  175.1290  137.6580 C   0  0  0  0  0  0  0  0  0  0  0  0
  189.2390  176.7700  139.6080 C   0  0  2  0  0  3  0  0  0  0  0  0
  188.0570  174.9740  135.7040 N   0  0  0  0  0  0  0  0  0  0  0  0
  187.5490  177.9520  138.0560 C   0  0  2  0  0  3  0  0  0  0  0  0
  192.6150  174.0620  137.6460 C   0  0  0  0  0  0  0  0  0  0  0  0
  193.5860  173.1380  135.7810 C   0  0  0  0  0  0  0  0  0  0  0  0
  189.5560  175.9670  137.2480 C   0  0  0  0  0  0  0  0  0  0  0  0
  191.4270  176.1970  138.6000 N   0  0  0  0  0  2  0  0  0  0  0  0
  194.5560  173.9990  136.3610 N   0  0  0  0  0  0  0  0  0  0  0  0
  193.7200  172.6330  134.4550 N   0  0  0  0  0  1  0  0  0  0  0  0
  191.1150  173.0840  135.7330 C   0  0  0  0  0  3  0  0  0  0  0  0
  186.4610  178.8800  138.2460 N   0  0  0  0  0  0  0  0  0  0  0  0
  185.5120  178.6050  139.0650 C   0  0  0  0  0  3  0  0  0  0  0  0
  184.3960  179.5700  139.2760 C   0  0  0  0  0  2  0  0  0  0  0  0
  183.2550  179.1540  138.5430 O   0  0  0  0  0  0  0  0  0  0  0  0
  183.5120  176.9960  137.7570 N   0  0  0  0  0  0  0  0  0  0  0  0
  180.5160  178.2210  139.7910 C   0  0  0  0  0  2  0  0  0  0  0  0
  182.2750  173.0350  136.9270 C   0  0  0  0  0  3  0  0  0  0  0  0
  181.5240  177.4350  140.6180 C   0  0  0  0  0  2  0  0  0  0  0  0
  183.5430  173.4760  136.5230 C   0  0  0  0  0  3  0  0  0  0  0  0
  181.8630  175.1860  137.9600 C   0  0  0  0  0  0  0  0  0  0  0  0
  183.9590  174.7780  136.8080 C   0  0  0  0  0  3  0  0  0  0  0  0
  183.1190  175.6370  137.5230 C   0  0  0  0  0  0  0  0  0  0  0  0
  182.8020  177.8310  138.4560 C   0  0  0  0  0  0  0  0  0  0  0  0
  181.5230  177.3190  139.1120 C   0  0  0  0  0  0  0  0  0  0  0  0
  181.4330  173.8920  137.6470 C   0  0  0  0  0  3  0  0  0  0  0  0
  181.0400  176.0470  138.6880 O   0  0  0  0  0  0  0  0  0  0  0  0
  189.8070  177.6270  140.5820 O   0  0  0  0  0  0  0  0  0  0  0  0
  191.9970  177.8050  141.4090 O   0  0  0  0  0  0  0  0  0  0  0  0
  191.1790  177.6590  142.5510 C   0  0  2  0  0  3  0  0  0  0  0  0
  190.8620  176.9750  141.2650 C   0  0  1  0  0  3  0  0  0  0  0  0
  190.4500  178.8420  142.7430 O   0  0  0  0  0  0  0  0  0  0  0  0
  190.5190  179.0660  144.1180 C   0  0  0  0  0  2  0  0  0  0  0  0
  190.2590  177.7740  144.8710 C   0  0  0  0  0  2  0  0  0  0  0  0
  189.0390  177.9230  145.7820 C   0  0  2  0  0  3  0  0  0  0  0  0
  189.3730  178.4130  148.2580 C   0  0  0  0  0  1  0  0  0  0  0  0
  189.2170  177.3360  147.1910 C   0  0  2  0  0  3  0  0  0  0  0  0
  190.1980  176.3010  147.2570 O   0  0  0  0  0  0  0  0  0  0  0  0
  192.4850  175.7410  147.4970 C   0  0  0  0  0  2  0  0  0  0  0  0
  191.4570  176.5140  147.8220 C   0  0  0  0  0  3  0  0  0  0  0  0
  187.7350  177.4390  145.1260 C   0  0  2  0  0  3  0  0  0  0  0  0
  187.8110  175.7770  143.2100 C   0  0  0  0  0  1  0  0  0  0  0  0
  187.8000  177.2500  143.5880 C   0  0  0  0  0  3  0  0  0  0  0  0
  186.7000  177.9870  142.8380 C   0  0  0  0  0  1  0  0  0  0  0  0
  186.5300  178.1700  145.6540 C   0  0  0  0  0  0  0  0  0  0  0  0
  186.6980  179.1050  146.4860 O   0  0  0  0  0  0  0  0  0  0  0  0
  185.2450  177.8510  145.2110 O   0  0  0  0  0  0  0  0  0  0  0  0
  184.1790  178.7890  145.2880 C   0  0  0  0  0  1  0  0  0  0  0  0
  1 16  1  0  0  0  0
  1  5  1  0  0  0  0
  2  4  1  0  0  0  0
  3 18  1  6  0  0  0
  3 19  1  0  0  0  0
  3 13  1  0  0  0  0
  4 18  2  0  0  0  0
  4 12  1  0  0  0  0
  6  9  1  6  0  0  0
  6 15  1  0  0  0  0
  7 16  1  0  0  0  0
  8  6  1  0  0  0  0
  8 18  1  0  0  0  0
 10 13  1  0  0  0  0
 11 14  1  0  0  0  0
 11  2  1  0  0  0  0
 12 19  1  0  0  0  0
 13 39  1  1  0  0  0
 14  8  2  0  0  0  0
 15 23  1  1  0  0  0
 15 10  1  0  0  0  0
 16 12  2  0  0  0  0
 17 20  1  0  0  0  0
 17  7  2  0  0  0  0
 20  1  2  0  0  0  0
 21 17  1  0  0  0  0
 22  2  2  0  0  0  0
 22  7  1  0  0  0  0
 23 24  2  0  0  0  0
 24 25  1  0  0  0  0
 26 25  1  0  0  0  0
 27 35  2  0  0  0  0
 28 30  1  0  0  0  0
 29 37  1  0  0  0  0
 31 33  1  0  0  0  0
 31 29  2  0  0  0  0
 32 38  1  0  0  0  0
 33 34  2  0  0  0  0
 34 27  1  0  0  0  0
 34 32  1  0  0  0  0
 35 26  1  0  0  0  0
 35 36  1  0  0  0  0
 36 28  1  0  0  0  0
 36 30  1  0  0  0  0
 37 32  2  0  0  0  0
 38 36  1  0  0  0  0
 40 41  1  0  0  0  0
 41 43  1  6  0  0  0
 42 39  1  6  0  0  0
 42 40  1  0  0  0  0
 42 41  1  0  0  0  0
 43 44  1  0  0  0  0
 44 45  1  0  0  0  0
 46 45  1  6  0  0  0
 46 48  1  0  0  0  0
 48 49  1  0  0  0  0
 48 47  1  1  0  0  0
 49 51  1  0  0  0  0
 50 51  2  0  0  0  0
 52 54  1  6  0  0  0
 52 56  1  0  0  0  0
 52 46  1  0  0  0  0
 53 54  1  0  0  0  0
 55 54  1  0  0  0  0
 56 57  2  0  0  0  0
 58 59  1  0  0  0  0
 58 56  1  0  0  0  0
M  END
>  <MODEL>
9

>  <REMARK>
 VINA RESULT:      -7.3      2.349      9.145
  Name = 
  17 active torsions:
  status: ('A' for Active; 'I' for Inactive)
    1  A    between atoms: O_3  and  C_44
    2  A    between atoms: C_4  and  O_26
    3  A    between atoms: C_4  and  C_35
    4  A    between atoms: O_7  and  C_13
    5  A    between atoms: O_7  and  C_57
    6  A    between atoms: C_13  and  C_27
    7  A    between atoms: C_14  and  C_27
    8  A    between atoms: C_14  and  C_44
    9  A    between atoms: C_14  and  C_53
   10  A    between atoms: C_16  and  O_26
   11  A    between atoms: C_18  and  O_50
   12  A    between atoms: C_27  and  C_35
   13  A    between atoms: O_31  and  C_38
   14  A    between atoms: O_31  and  C_51
   15  A    between atoms: C_36  and  O_50
   16  A    between atoms: N_42  and  C_43
   17  A    between atoms: C_51  and  C_54
                            x       y       z     vdW  Elec       q    Type
                         _______ _______ _______ _____ _____    ______ ____

>  <TORSDO>
F 17

$$$$
