=
 OpenBabel10232411383D

 27 30  0  0  1  0  0  0  0  0999 V2000
  191.0090  178.9090  143.0790 C   0  0  0  0  0  3  0  0  0  0  0  0
  187.1810  177.6640  143.3480 C   0  0  1  0  0  3  0  0  0  0  0  0
  184.3060  178.6340  146.0160 N   0  0  0  0  0  0  0  0  0  0  0  0
  184.0730  179.0140  144.7220 C   0  0  0  0  0  0  0  0  0  0  0  0
  189.7850  178.3860  142.9060 N   0  0  0  0  0  0  0  0  0  0  0  0
  187.5230  178.3250  142.1210 N   0  0  0  0  0  2  0  0  0  0  0  0
  188.2080  176.9930  144.2130 C   0  0  2  0  0  3  0  0  0  0  0  0
  186.1400  177.9930  144.0880 C   0  0  0  0  0  0  0  0  0  0  0  0
  191.4900  178.6210  144.3110 N   0  0  0  0  0  0  0  0  0  0  0  0
  187.5680  177.1090  145.5720 C   0  0  0  0  0  2  0  0  0  0  0  0
  185.4410  177.9720  146.3830 C   0  0  0  0  0  3  0  0  0  0  0  0
  189.4810  177.7640  144.0540 C   0  0  0  0  0  0  0  0  0  0  0  0
  185.0040  178.7100  143.7150 C   0  0  0  0  0  3  0  0  0  0  0  0
  190.5350  177.8880  144.9310 C   0  0  0  0  0  3  0  0  0  0  0  0
  186.3710  177.6530  145.3980 C   0  0  0  0  0  0  0  0  0  0  0  0
  188.9320  178.4110  141.7100 C   0  0  2  0  0  3  0  0  0  0  0  0
  181.8040  178.7640  143.8010 C   0  0  0  0  0  1  0  0  0  0  0  0
  182.8170  179.7350  144.3750 C   0  0  0  0  0  2  0  0  0  0  0  0
  189.2790  177.2390  140.7740 C   0  0  1  0  0  3  0  0  0  0  0  0
  188.6080  177.3370  139.4020 C   0  0  0  0  0  2  0  0  0  0  0  0
  188.4940  178.6660  138.9870 O   0  0  0  0  0  1  0  0  0  0  0  0
  190.7820  176.9560  140.6720 C   0  0  0  0  0  2  0  0  0  0  0  0
  191.2360  176.5850  139.2660 C   0  0  0  0  0  2  0  0  0  0  0  0
  192.5810  176.9090  139.0980 O   0  0  0  0  0  0  0  0  0  0  0  0
  194.1670  176.5190  136.8540 O   0  0  0  0  0  0  0  0  0  0  0  0
  192.4180  174.6700  137.4660 O   0  0  0  0  0  0  0  0  0  0  0  0
  193.0740  176.0000  137.7600 P   0  0  0  0  0  0  0  0  0  0  0  0
  1  9  2  0  0  0  0
  2  6  1  1  0  0  0
  2  8  1  0  0  0  0
  2  7  1  0  0  0  0
  3 11  1  0  0  0  0
  4  3  2  0  0  0  0
  5  1  1  0  0  0  0
  5 12  1  0  0  0  0
  7 10  1  1  0  0  0
  8 15  1  0  0  0  0
  9 14  1  0  0  0  0
 12  7  1  0  0  0  0
 12 14  2  0  0  0  0
 13  8  2  0  0  0  0
 13  4  1  0  0  0  0
 15 10  1  0  0  0  0
 15 11  2  0  0  0  0
 16 19  1  6  0  0  0
 16  6  1  0  0  0  0
 16  5  1  0  0  0  0
 17 18  1  0  0  0  0
 18  4  1  0  0  0  0
 19 20  1  6  0  0  0
 21 20  1  0  0  0  0
 22 19  1  0  0  0  0
 23 22  1  0  0  0  0
 24 23  1  0  0  0  0
 25 27  2  0  0  0  0
 26 27  2  0  0  0  0
 27 24  1  0  0  0  0
M  END
>  <MODEL>
1

>  <REMARK>
 VINA RESULT:      -7.8      0.000      0.000
  Name = 
  7 active torsions:
  status: ('A' for Active; 'I' for Inactive)
    1  A    between atoms: C_1  and  C_26
    2  A    between atoms: C_5  and  C_15
    3  A    between atoms: O_10  and  P_24
    4  A    between atoms: O_10  and  C_27
    5  A    between atoms: C_22  and  C_26
    6  A    between atoms: C_22  and  C_27
    7  A    between atoms: C_25  and  C_26
                            x       y       z     vdW  Elec       q    Type
                         _______ _______ _______ _____ _____    ______ ____

>  <TORSDO>
F 7

$$$$
=
 OpenBabel10232411383D

 27 30  0  0  1  0  0  0  0  0999 V2000
  188.4190  176.1560  143.6730 C   0  0  0  0  0  3  0  0  0  0  0  0
  185.3480  178.5950  142.7240 C   0  0  1  0  0  3  0  0  0  0  0  0
  182.9800  178.6510  139.4510 N   0  0  0  0  0  0  0  0  0  0  0  0
  182.3580  178.3570  140.6340 C   0  0  0  0  0  0  0  0  0  0  0  0
  187.4190  177.0510  143.6330 N   0  0  0  0  0  0  0  0  0  0  0  0
  185.1810  177.8460  143.9370 N   0  0  0  0  0  2  0  0  0  0  0  0
  186.7000  178.8980  142.1470 C   0  0  2  0  0  3  0  0  0  0  0  0
  184.4480  178.6330  141.7610 C   0  0  0  0  0  0  0  0  0  0  0  0
  189.2270  176.2810  142.5940 N   0  0  0  0  0  0  0  0  0  0  0  0
  186.3740  179.0130  140.6810 C   0  0  0  0  0  2  0  0  0  0  0  0
  184.3190  178.9060  139.3810 C   0  0  0  0  0  3  0  0  0  0  0  0
  187.5920  177.7500  142.5010 C   0  0  0  0  0  0  0  0  0  0  0  0
  183.0900  178.3280  141.8330 C   0  0  0  0  0  3  0  0  0  0  0  0
  188.7180  177.2940  141.8530 C   0  0  0  0  0  3  0  0  0  0  0  0
  185.0590  178.8920  140.5590 C   0  0  0  0  0  0  0  0  0  0  0  0
  186.3610  177.2970  144.6210 C   0  0  2  0  0  3  0  0  0  0  0  0
  180.3430  178.3190  142.0480 C   0  0  0  0  0  1  0  0  0  0  0  0
  180.8930  178.0860  140.6550 C   0  0  0  0  0  2  0  0  0  0  0  0
  186.8470  178.2800  145.7010 C   0  0  1  0  0  3  0  0  0  0  0  0
  185.7770  179.2820  146.1390 C   0  0  0  0  0  2  0  0  0  0  0  0
  184.9380  178.7350  147.1120 O   0  0  0  0  0  1  0  0  0  0  0  0
  187.5330  177.5980  146.8910 C   0  0  0  0  0  2  0  0  0  0  0  0
  189.0520  177.7000  146.8560 C   0  0  0  0  0  2  0  0  0  0  0  0
  189.6200  176.5490  147.4010 O   0  0  0  0  0  0  0  0  0  0  0  0
  191.6100  176.6690  145.4710 O   0  0  0  0  0  0  0  0  0  0  0  0
  192.3320  176.6210  147.9870 O   0  0  0  0  0  0  0  0  0  0  0  0
  191.2450  176.6170  146.9370 P   0  0  0  0  0  0  0  0  0  0  0  0
  2  8  1  6  0  0  0
  2  6  1  0  0  0  0
  3  4  1  0  0  0  0
  4 18  1  0  0  0  0
  4 13  2  0  0  0  0
  5  1  1  0  0  0  0
  5 16  1  0  0  0  0
  6 16  1  0  0  0  0
  7 10  1  6  0  0  0
  7 12  1  0  0  0  0
  7  2  1  0  0  0  0
  8 13  1  0  0  0  0
  9  1  2  0  0  0  0
 11  3  2  0  0  0  0
 11 15  1  0  0  0  0
 12  5  1  0  0  0  0
 14 12  2  0  0  0  0
 14  9  1  0  0  0  0
 15 10  1  0  0  0  0
 15  8  2  0  0  0  0
 16 19  1  1  0  0  0
 18 17  1  0  0  0  0
 19 20  1  1  0  0  0
 19 22  1  0  0  0  0
 20 21  1  0  0  0  0
 23 22  1  0  0  0  0
 23 24  1  0  0  0  0
 25 27  2  0  0  0  0
 27 24  1  0  0  0  0
 27 26  2  0  0  0  0
M  END
>  <MODEL>
2

>  <REMARK>
 VINA RESULT:      -7.6      4.293      5.933
  Name = 
  7 active torsions:
  status: ('A' for Active; 'I' for Inactive)
    1  A    between atoms: C_1  and  C_26
    2  A    between atoms: C_5  and  C_15
    3  A    between atoms: O_10  and  P_24
    4  A    between atoms: O_10  and  C_27
    5  A    between atoms: C_22  and  C_26
    6  A    between atoms: C_22  and  C_27
    7  A    between atoms: C_25  and  C_26
                            x       y       z     vdW  Elec       q    Type
                         _______ _______ _______ _____ _____    ______ ____

>  <TORSDO>
F 7

$$$$
=
 OpenBabel10232411383D

 27 30  0  0  1  0  0  0  0  0999 V2000
  191.5130  177.8940  141.1020 C   0  0  0  0  0  3  0  0  0  0  0  0
  187.6510  177.2550  142.0780 C   0  0  1  0  0  3  0  0  0  0  0  0
  185.5860  178.3250  145.3820 N   0  0  0  0  0  0  0  0  0  0  0  0
  185.1760  178.8990  144.2080 C   0  0  0  0  0  0  0  0  0  0  0  0
  190.2040  177.6000  141.1500 N   0  0  0  0  0  0  0  0  0  0  0  0
  187.8600  178.0030  140.8710 N   0  0  0  0  0  2  0  0  0  0  0  0
  188.6870  176.3240  142.6360 C   0  0  2  0  0  3  0  0  0  0  0  0
  186.8550  177.6500  143.0520 C   0  0  0  0  0  0  0  0  0  0  0  0
  192.1670  177.3780  142.1690 N   0  0  0  0  0  0  0  0  0  0  0  0
  188.3600  176.3660  144.1050 C   0  0  0  0  0  2  0  0  0  0  0  0
  186.6300  177.4480  145.4320 C   0  0  0  0  0  3  0  0  0  0  0  0
  190.0230  176.8940  142.2760 C   0  0  0  0  0  0  0  0  0  0  0  0
  185.8190  178.5800  143.0000 C   0  0  0  0  0  3  0  0  0  0  0  0
  191.2340  176.7340  142.9110 C   0  0  0  0  0  3  0  0  0  0  0  0
  187.2730  177.1120  144.2450 C   0  0  0  0  0  0  0  0  0  0  0  0
  189.1510  177.9140  140.1750 C   0  0  2  0  0  3  0  0  0  0  0  0
  182.7270  179.0910  144.0690 C   0  0  0  0  0  1  0  0  0  0  0  0
  184.0310  179.8510  144.2090 C   0  0  0  0  0  2  0  0  0  0  0  0
  189.0870  176.8310  139.0830 C   0  0  1  0  0  3  0  0  0  0  0  0
  187.8730  176.9680  138.1610 C   0  0  0  0  0  2  0  0  0  0  0  0
  187.8590  178.2100  137.5230 O   0  0  0  0  0  1  0  0  0  0  0  0
  190.3970  176.6610  138.3050 C   0  0  0  0  0  2  0  0  0  0  0  0
  190.5350  175.2960  137.6420 C   0  0  0  0  0  2  0  0  0  0  0  0
  191.7090  174.6770  138.0680 O   0  0  0  0  0  0  0  0  0  0  0  0
  193.8110  176.3840  138.6730 O   0  0  0  0  0  0  0  0  0  0  0  0
  193.1690  176.0620  136.1560 O   0  0  0  0  0  0  0  0  0  0  0  0
  192.9410  175.7440  137.6160 P   0  0  0  0  0  0  0  0  0  0  0  0
  1  5  1  0  0  0  0
  1  9  2  0  0  0  0
  2  6  1  1  0  0  0
  2  7  1  0  0  0  0
  2  8  1  0  0  0  0
  3 11  1  0  0  0  0
  4 18  1  0  0  0  0
  4  3  2  0  0  0  0
  5 12  1  0  0  0  0
  7 10  1  1  0  0  0
  8 15  1  0  0  0  0
  9 14  1  0  0  0  0
 10 15  1  0  0  0  0
 12  7  1  0  0  0  0
 12 14  2  0  0  0  0
 13  8  2  0  0  0  0
 13  4  1  0  0  0  0
 15 11  2  0  0  0  0
 16 19  1  6  0  0  0
 16  6  1  0  0  0  0
 16  5  1  0  0  0  0
 17 18  1  0  0  0  0
 19 20  1  6  0  0  0
 21 20  1  0  0  0  0
 22 19  1  0  0  0  0
 23 24  1  0  0  0  0
 23 22  1  0  0  0  0
 26 27  2  0  0  0  0
 27 24  1  0  0  0  0
 27 25  2  0  0  0  0
M  END
>  <MODEL>
3

>  <REMARK>
 VINA RESULT:      -6.9      1.385      1.785
  Name = 
  7 active torsions:
  status: ('A' for Active; 'I' for Inactive)
    1  A    between atoms: C_1  and  C_26
    2  A    between atoms: C_5  and  C_15
    3  A    between atoms: O_10  and  P_24
    4  A    between atoms: O_10  and  C_27
    5  A    between atoms: C_22  and  C_26
    6  A    between atoms: C_22  and  C_27
    7  A    between atoms: C_25  and  C_26
                            x       y       z     vdW  Elec       q    Type
                         _______ _______ _______ _____ _____    ______ ____

>  <TORSDO>
F 7

$$$$
=
 OpenBabel10232411383D

 27 30  0  0  1  0  0  0  0  0999 V2000
  191.1970  178.9970  143.8390 C   0  0  0  0  0  3  0  0  0  0  0  0
  187.4170  177.5850  143.8310 C   0  0  1  0  0  3  0  0  0  0  0  0
  184.1590  178.8470  145.8590 N   0  0  0  0  0  0  0  0  0  0  0  0
  184.0980  178.9660  144.4960 C   0  0  0  0  0  0  0  0  0  0  0  0
  190.0290  178.3750  143.6080 N   0  0  0  0  0  0  0  0  0  0  0  0
  187.9060  178.0280  142.5560 N   0  0  0  0  0  2  0  0  0  0  0  0
  188.3350  177.1510  144.9370 C   0  0  2  0  0  3  0  0  0  0  0  0
  186.2710  177.9790  144.3490 C   0  0  0  0  0  0  0  0  0  0  0  0
  191.5080  178.9730  145.1560 N   0  0  0  0  0  0  0  0  0  0  0  0
  187.5050  177.4750  146.1510 C   0  0  0  0  0  2  0  0  0  0  0  0
  185.2540  178.3370  146.4930 C   0  0  0  0  0  3  0  0  0  0  0  0
  189.5880  177.9580  144.8040 C   0  0  0  0  0  0  0  0  0  0  0  0
  185.1740  178.5410  143.6990 C   0  0  0  0  0  3  0  0  0  0  0  0
  190.5020  178.3080  145.7720 C   0  0  0  0  0  3  0  0  0  0  0  0
  186.3250  177.9010  145.7190 C   0  0  0  0  0  0  0  0  0  0  0  0
  189.3550  178.1250  142.3270 C   0  0  2  0  0  3  0  0  0  0  0  0
  181.7080  178.5870  144.0480 C   0  0  0  0  0  1  0  0  0  0  0  0
  182.8790  179.5300  143.8540 C   0  0  0  0  0  2  0  0  0  0  0  0
  189.8750  176.8260  141.6870 C   0  0  1  0  0  3  0  0  0  0  0  0
  189.9480  175.6510  142.6660 C   0  0  0  0  0  2  0  0  0  0  0  0
  191.2350  175.5090  143.1920 O   0  0  0  0  0  1  0  0  0  0  0  0
  189.1640  176.4550  140.3800 C   0  0  0  0  0  2  0  0  0  0  0  0
  188.9860  177.6340  139.4320 C   0  0  0  0  0  2  0  0  0  0  0  0
  188.4520  177.1940  138.2210 O   0  0  0  0  0  0  0  0  0  0  0  0
  188.9700  179.8320  137.5320 O   0  0  0  0  0  0  0  0  0  0  0  0
  189.2150  178.0000  135.6770 O   0  0  0  0  0  0  0  0  0  0  0  0
  188.8960  178.3840  137.1040 P   0  0  0  0  0  0  0  0  0  0  0  0
  1  9  2  0  0  0  0
  2  6  1  1  0  0  0
  2  8  1  0  0  0  0
  2  7  1  0  0  0  0
  3 11  1  0  0  0  0
  4  3  2  0  0  0  0
  5  1  1  0  0  0  0
  5 12  1  0  0  0  0
  7 10  1  1  0  0  0
  8 15  1  0  0  0  0
  9 14  1  0  0  0  0
 12  7  1  0  0  0  0
 12 14  2  0  0  0  0
 13  8  2  0  0  0  0
 13  4  1  0  0  0  0
 15 10  1  0  0  0  0
 15 11  2  0  0  0  0
 16 19  1  1  0  0  0
 16  6  1  0  0  0  0
 16  5  1  0  0  0  0
 18 17  1  0  0  0  0
 18  4  1  0  0  0  0
 19 22  1  6  0  0  0
 19 20  1  0  0  0  0
 20 21  1  0  0  0  0
 23 22  1  0  0  0  0
 24 23  1  0  0  0  0
 26 27  2  0  0  0  0
 27 25  2  0  0  0  0
 27 24  1  0  0  0  0
M  END
>  <MODEL>
4

>  <REMARK>
 VINA RESULT:      -6.8      2.022      2.527
  Name = 
  7 active torsions:
  status: ('A' for Active; 'I' for Inactive)
    1  A    between atoms: C_1  and  C_26
    2  A    between atoms: C_5  and  C_15
    3  A    between atoms: O_10  and  P_24
    4  A    between atoms: O_10  and  C_27
    5  A    between atoms: C_22  and  C_26
    6  A    between atoms: C_22  and  C_27
    7  A    between atoms: C_25  and  C_26
                            x       y       z     vdW  Elec       q    Type
                         _______ _______ _______ _____ _____    ______ ____

>  <TORSDO>
F 7

$$$$
=
 OpenBabel10232411383D

 27 30  0  0  1  0  0  0  0  0999 V2000
  187.9550  176.5390  146.8290 C   0  0  0  0  0  3  0  0  0  0  0  0
  188.6830  177.9780  143.1310 C   0  0  1  0  0  3  0  0  0  0  0  0
  191.7590  177.2570  140.6130 N   0  0  0  0  0  0  0  0  0  0  0  0
  190.5270  176.8370  140.1870 C   0  0  0  0  0  0  0  0  0  0  0  0
  187.9250  177.1140  145.6160 N   0  0  0  0  0  0  0  0  0  0  0  0
  187.4530  177.2530  143.2720 N   0  0  0  0  0  2  0  0  0  0  0  0
  189.3680  178.6330  144.2940 C   0  0  2  0  0  3  0  0  0  0  0  0
  189.5720  177.7300  142.1890 C   0  0  0  0  0  0  0  0  0  0  0  0
  189.0950  176.8530  147.4870 N   0  0  0  0  0  0  0  0  0  0  0  0
  190.8050  178.6030  143.8440 C   0  0  0  0  0  2  0  0  0  0  0  0
  191.9370  177.8770  141.8140 C   0  0  0  0  0  3  0  0  0  0  0  0
  189.0740  177.7960  145.4990 C   0  0  0  0  0  0  0  0  0  0  0  0
  189.3900  177.0550  140.9830 C   0  0  0  0  0  3  0  0  0  0  0  0
  189.8040  177.6560  146.6580 C   0  0  0  0  0  3  0  0  0  0  0  0
  190.8210  178.1110  142.6120 C   0  0  0  0  0  0  0  0  0  0  0  0
  186.8590  177.0820  144.6060 C   0  0  2  0  0  3  0  0  0  0  0  0
  191.7190  176.1730  138.1380 C   0  0  0  0  0  1  0  0  0  0  0  0
  190.3890  176.1640  138.8660 C   0  0  0  0  0  2  0  0  0  0  0  0
  185.8300  178.1960  144.8700 C   0  0  1  0  0  3  0  0  0  0  0  0
  186.1770  179.0710  146.0780 C   0  0  0  0  0  2  0  0  0  0  0  0
  185.2320  178.9260  147.0960 O   0  0  0  0  0  1  0  0  0  0  0  0
  185.4850  179.0240  143.6270 C   0  0  0  0  0  2  0  0  0  0  0  0
  184.0680  178.7940  143.1190 C   0  0  0  0  0  2  0  0  0  0  0  0
  184.0790  177.8570  142.0870 O   0  0  0  0  0  0  0  0  0  0  0  0
  185.2320  179.5380  140.2040 O   0  0  0  0  0  0  0  0  0  0  0  0
  182.7250  178.8590  139.8800 O   0  0  0  0  0  0  0  0  0  0  0  0
  184.0100  178.7830  140.6730 P   0  0  0  0  0  0  0  0  0  0  0  0
  1  9  2  0  0  0  0
  2  8  1  1  0  0  0
  2  6  1  0  0  0  0
  2  7  1  0  0  0  0
  3 11  1  0  0  0  0
  4  3  2  0  0  0  0
  4 13  1  0  0  0  0
  5  1  1  0  0  0  0
  6 16  1  0  0  0  0
  7 10  1  6  0  0  0
  7 12  1  0  0  0  0
  8 15  1  0  0  0  0
 11 15  2  0  0  0  0
 12  5  1  0  0  0  0
 12 14  2  0  0  0  0
 13  8  2  0  0  0  0
 14  9  1  0  0  0  0
 15 10  1  0  0  0  0
 16 19  1  1  0  0  0
 16  5  1  0  0  0  0
 17 18  1  0  0  0  0
 18  4  1  0  0  0  0
 19 22  1  6  0  0  0
 19 20  1  0  0  0  0
 20 21  1  0  0  0  0
 23 22  1  0  0  0  0
 24 23  1  0  0  0  0
 25 27  2  0  0  0  0
 26 27  2  0  0  0  0
 27 24  1  0  0  0  0
M  END
>  <MODEL>
5

>  <REMARK>
 VINA RESULT:      -6.7      3.979      6.944
  Name = 
  7 active torsions:
  status: ('A' for Active; 'I' for Inactive)
    1  A    between atoms: C_1  and  C_26
    2  A    between atoms: C_5  and  C_15
    3  A    between atoms: O_10  and  P_24
    4  A    between atoms: O_10  and  C_27
    5  A    between atoms: C_22  and  C_26
    6  A    between atoms: C_22  and  C_27
    7  A    between atoms: C_25  and  C_26
                            x       y       z     vdW  Elec       q    Type
                         _______ _______ _______ _____ _____    ______ ____

>  <TORSDO>
F 7

$$$$
=
 OpenBabel10232411383D

 27 30  0  0  1  0  0  0  0  0999 V2000
  188.9600  174.8980  135.9360 C   0  0  0  0  0  3  0  0  0  0  0  0
  190.2030  177.0060  139.1450 C   0  0  1  0  0  3  0  0  0  0  0  0
  188.2230  178.0350  142.5130 N   0  0  0  0  0  0  0  0  0  0  0  0
  189.2860  177.1890  142.6790 C   0  0  0  0  0  0  0  0  0  0  0  0
  189.6350  175.5660  136.8860 N   0  0  0  0  0  0  0  0  0  0  0  0
  190.9480  175.8100  138.8740 N   0  0  0  0  0  2  0  0  0  0  0  0
  189.4220  177.7240  138.0830 C   0  0  2  0  0  3  0  0  0  0  0  0
  189.6950  177.2980  140.3260 C   0  0  0  0  0  0  0  0  0  0  0  0
  187.8520  175.5780  135.5600 N   0  0  0  0  0  0  0  0  0  0  0  0
  188.3430  178.3790  138.9030 C   0  0  0  0  0  2  0  0  0  0  0  0
  187.8530  178.5000  141.2850 C   0  0  0  0  0  3  0  0  0  0  0  0
  188.9350  176.6850  137.1230 C   0  0  0  0  0  0  0  0  0  0  0  0
  190.0500  176.7840  141.5720 C   0  0  0  0  0  3  0  0  0  0  0  0
  187.8340  176.7140  136.2970 C   0  0  0  0  0  3  0  0  0  0  0  0
  188.6030  178.1170  140.1770 C   0  0  0  0  0  0  0  0  0  0  0  0
  190.9090  175.2180  137.5300 C   0  0  2  0  0  3  0  0  0  0  0  0
  188.6540  177.2430  145.0570 C   0  0  0  0  0  1  0  0  0  0  0  0
  189.6480  176.7120  144.0430 C   0  0  0  0  0  2  0  0  0  0  0  0
  192.0950  175.7320  136.6940 C   0  0  1  0  0  3  0  0  0  0  0  0
  193.1130  176.5330  137.5090 C   0  0  0  0  0  2  0  0  0  0  0  0
  194.2040  176.9130  136.7250 O   0  0  0  0  0  1  0  0  0  0  0  0
  192.7550  174.6520  135.8300 C   0  0  0  0  0  2  0  0  0  0  0  0
  193.4110  173.5430  136.6430 C   0  0  0  0  0  2  0  0  0  0  0  0
  194.7950  173.5890  136.4820 O   0  0  0  0  0  0  0  0  0  0  0  0
  196.0120  174.7760  138.6750 O   0  0  0  0  0  0  0  0  0  0  0  0
  195.3560  172.2480  138.8460 O   0  0  0  0  0  0  0  0  0  0  0  0
  195.4080  173.5360  138.0570 P   0  0  0  0  0  0  0  0  0  0  0  0
  1  5  1  0  0  0  0
  2  6  1  6  0  0  0
  2  8  1  0  0  0  0
  3  4  1  0  0  0  0
  4 18  1  0  0  0  0
  5 12  1  0  0  0  0
  5 16  1  0  0  0  0
  7 10  1  1  0  0  0
  7  2  1  0  0  0  0
  8 13  1  0  0  0  0
  9  1  2  0  0  0  0
  9 14  1  0  0  0  0
 10 15  1  0  0  0  0
 11  3  2  0  0  0  0
 12  7  1  0  0  0  0
 13  4  2  0  0  0  0
 14 12  2  0  0  0  0
 15  8  2  0  0  0  0
 15 11  1  0  0  0  0
 16 19  1  6  0  0  0
 16  6  1  0  0  0  0
 18 17  1  0  0  0  0
 19 22  1  1  0  0  0
 19 20  1  0  0  0  0
 21 20  1  0  0  0  0
 22 23  1  0  0  0  0
 24 23  1  0  0  0  0
 24 27  1  0  0  0  0
 27 25  2  0  0  0  0
 27 26  2  0  0  0  0
M  END
>  <MODEL>
6

>  <REMARK>
 VINA RESULT:      -6.6      3.227      6.153
  Name = 
  7 active torsions:
  status: ('A' for Active; 'I' for Inactive)
    1  A    between atoms: C_1  and  C_26
    2  A    between atoms: C_5  and  C_15
    3  A    between atoms: O_10  and  P_24
    4  A    between atoms: O_10  and  C_27
    5  A    between atoms: C_22  and  C_26
    6  A    between atoms: C_22  and  C_27
    7  A    between atoms: C_25  and  C_26
                            x       y       z     vdW  Elec       q    Type
                         _______ _______ _______ _____ _____    ______ ____

>  <TORSDO>
F 7

$$$$
=
 OpenBabel10232411383D

 27 30  0  0  1  0  0  0  0  0999 V2000
  188.7190  178.9060  139.8400 C   0  0  0  0  0  3  0  0  0  0  0  0
  188.0080  177.3660  143.5010 C   0  0  1  0  0  3  0  0  0  0  0  0
  190.5030  176.8340  146.6340 N   0  0  0  0  0  0  0  0  0  0  0  0
  189.4800  177.7230  146.8290 C   0  0  0  0  0  0  0  0  0  0  0  0
  188.2060  178.4160  140.9800 N   0  0  0  0  0  0  0  0  0  0  0  0
  187.2290  178.5240  143.1630 N   0  0  0  0  0  2  0  0  0  0  0  0
  188.6070  176.4690  142.4580 C   0  0  2  0  0  3  0  0  0  0  0  0
  188.6990  177.2530  144.6180 C   0  0  0  0  0  0  0  0  0  0  0  0
  189.7530  178.1470  139.4070 N   0  0  0  0  0  0  0  0  0  0  0  0
  189.8050  175.9250  143.1920 C   0  0  0  0  0  2  0  0  0  0  0  0
  190.6710  176.1710  145.4530 C   0  0  0  0  0  3  0  0  0  0  0  0
  188.9350  177.3310  141.2790 C   0  0  0  0  0  0  0  0  0  0  0  0
  188.5480  177.9670  145.8060 C   0  0  0  0  0  3  0  0  0  0  0  0
  189.8890  177.1420  140.3050 C   0  0  0  0  0  3  0  0  0  0  0  0
  189.7520  176.3920  144.4320 C   0  0  0  0  0  0  0  0  0  0  0  0
  187.0520  178.8940  141.7520 C   0  0  2  0  0  3  0  0  0  0  0  0
  188.0310  178.0330  148.7940 C   0  0  0  0  0  1  0  0  0  0  0  0
  189.3420  178.4190  148.1370 C   0  0  0  0  0  2  0  0  0  0  0  0
  185.7470  178.2840  141.2080 C   0  0  1  0  0  3  0  0  0  0  0  0
  184.6920  178.0390  142.2900 C   0  0  0  0  0  2  0  0  0  0  0  0
  183.4000  178.1860  141.7800 O   0  0  0  0  0  1  0  0  0  0  0  0
  185.1790  179.0270  139.9930 C   0  0  0  0  0  2  0  0  0  0  0  0
  185.1810  178.1940  138.7180 C   0  0  0  0  0  2  0  0  0  0  0  0
  186.0450  178.7600  137.7810 O   0  0  0  0  0  0  0  0  0  0  0  0
  186.4720  177.3630  135.4220 O   0  0  0  0  0  0  0  0  0  0  0  0
  187.3930  176.3370  137.6470 O   0  0  0  0  0  0  0  0  0  0  0  0
  186.6600  177.4400  136.9200 P   0  0  0  0  0  0  0  0  0  0  0  0
  1  5  1  0  0  0  0
  2  6  1  6  0  0  0
  2  8  1  0  0  0  0
  3  4  1  0  0  0  0
  4 18  1  0  0  0  0
  5 12  1  0  0  0  0
  5 16  1  0  0  0  0
  7 10  1  1  0  0  0
  7  2  1  0  0  0  0
  8 13  1  0  0  0  0
  9  1  2  0  0  0  0
  9 14  1  0  0  0  0
 10 15  1  0  0  0  0
 11  3  2  0  0  0  0
 12  7  1  0  0  0  0
 13  4  2  0  0  0  0
 14 12  2  0  0  0  0
 15  8  2  0  0  0  0
 15 11  1  0  0  0  0
 16 19  1  6  0  0  0
 16  6  1  0  0  0  0
 18 17  1  0  0  0  0
 19 22  1  6  0  0  0
 19 20  1  0  0  0  0
 21 20  1  0  0  0  0
 23 22  1  0  0  0  0
 24 23  1  0  0  0  0
 25 27  2  0  0  0  0
 27 26  2  0  0  0  0
 27 24  1  0  0  0  0
M  END
>  <MODEL>
7

>  <REMARK>
 VINA RESULT:      -6.5      3.135      5.095
  Name = 
  7 active torsions:
  status: ('A' for Active; 'I' for Inactive)
    1  A    between atoms: C_1  and  C_26
    2  A    between atoms: C_5  and  C_15
    3  A    between atoms: O_10  and  P_24
    4  A    between atoms: O_10  and  C_27
    5  A    between atoms: C_22  and  C_26
    6  A    between atoms: C_22  and  C_27
    7  A    between atoms: C_25  and  C_26
                            x       y       z     vdW  Elec       q    Type
                         _______ _______ _______ _____ _____    ______ ____

>  <TORSDO>
F 7

$$$$
=
 OpenBabel10232411383D

 27 30  0  0  1  0  0  0  0  0999 V2000
  185.0190  179.7820  144.2980 C   0  0  0  0  0  3  0  0  0  0  0  0
  183.4740  178.8950  140.6780 C   0  0  1  0  0  3  0  0  0  0  0  0
  180.0250  180.0970  138.9510 N   0  0  0  0  0  0  0  0  0  0  0  0
  181.1770  180.5120  138.3380 C   0  0  0  0  0  0  0  0  0  0  0  0
  184.7670  179.3770  143.0420 N   0  0  0  0  0  0  0  0  0  0  0  0
  184.7580  179.5350  140.6530 N   0  0  0  0  0  2  0  0  0  0  0  0
  182.9840  178.1220  141.8670 C   0  0  2  0  0  3  0  0  0  0  0  0
  182.4380  179.3110  139.9760 C   0  0  0  0  0  0  0  0  0  0  0  0
  184.0110  179.4370  145.1310 N   0  0  0  0  0  0  0  0  0  0  0  0
  181.4930  178.2810  141.7270 C   0  0  0  0  0  2  0  0  0  0  0  0
  180.0410  179.3290  140.0780 C   0  0  0  0  0  3  0  0  0  0  0  0
  183.5710  178.7730  143.0800 C   0  0  0  0  0  0  0  0  0  0  0  0
  182.4290  180.1340  138.8510 C   0  0  0  0  0  3  0  0  0  0  0  0
  183.0950  178.7880  144.3730 C   0  0  0  0  0  3  0  0  0  0  0  0
  181.2720  178.9360  140.5960 C   0  0  0  0  0  0  0  0  0  0  0  0
  185.6130  179.4950  141.8480 C   0  0  2  0  0  3  0  0  0  0  0  0
  181.0190  182.8160  137.4880 C   0  0  0  0  0  1  0  0  0  0  0  0
  181.1020  181.3510  137.1100 C   0  0  0  0  0  2  0  0  0  0  0  0
  186.5890  178.3070  141.7570 C   0  0  1  0  0  3  0  0  0  0  0  0
  187.8440  178.6120  140.9370 C   0  0  0  0  0  2  0  0  0  0  0  0
  187.6170  178.4190  139.5720 O   0  0  0  0  0  1  0  0  0  0  0  0
  186.9150  177.6720  143.1130 C   0  0  0  0  0  2  0  0  0  0  0  0
  187.9710  176.5770  143.0320 C   0  0  0  0  0  2  0  0  0  0  0  0
  189.0120  176.8530  143.9180 O   0  0  0  0  0  0  0  0  0  0  0  0
  190.4290  176.1720  141.6310 O   0  0  0  0  0  0  0  0  0  0  0  0
  191.5990  175.8500  143.9510 O   0  0  0  0  0  0  0  0  0  0  0  0
  190.3960  176.2730  143.1390 P   0  0  0  0  0  0  0  0  0  0  0  0
  1  9  2  0  0  0  0
  2  8  1  1  0  0  0
  2  7  1  0  0  0  0
  3 11  1  0  0  0  0
  4 13  1  0  0  0  0
  4  3  2  0  0  0  0
  5 12  1  0  0  0  0
  5  1  1  0  0  0  0
  6  2  1  0  0  0  0
  6 16  1  0  0  0  0
  7 10  1  1  0  0  0
  7 12  1  0  0  0  0
  8 15  1  0  0  0  0
 11 15  2  0  0  0  0
 12 14  2  0  0  0  0
 13  8  2  0  0  0  0
 14  9  1  0  0  0  0
 15 10  1  0  0  0  0
 16 19  1  6  0  0  0
 16  5  1  0  0  0  0
 18 17  1  0  0  0  0
 18  4  1  0  0  0  0
 19 20  1  1  0  0  0
 19 22  1  0  0  0  0
 21 20  1  0  0  0  0
 23 22  1  0  0  0  0
 23 24  1  0  0  0  0
 25 27  2  0  0  0  0
 27 24  1  0  0  0  0
 27 26  2  0  0  0  0
M  END
>  <MODEL>
8

>  <REMARK>
 VINA RESULT:      -6.4      4.057      6.042
  Name = 
  7 active torsions:
  status: ('A' for Active; 'I' for Inactive)
    1  A    between atoms: C_1  and  C_26
    2  A    between atoms: C_5  and  C_15
    3  A    between atoms: O_10  and  P_24
    4  A    between atoms: O_10  and  C_27
    5  A    between atoms: C_22  and  C_26
    6  A    between atoms: C_22  and  C_27
    7  A    between atoms: C_25  and  C_26
                            x       y       z     vdW  Elec       q    Type
                         _______ _______ _______ _____ _____    ______ ____

>  <TORSDO>
F 7

$$$$
=
 OpenBabel10232411383D

 27 30  0  0  1  0  0  0  0  0999 V2000
  181.1010  176.4730  139.9150 C   0  0  0  0  0  3  0  0  0  0  0  0
  183.9160  178.5460  141.9290 C   0  0  1  0  0  3  0  0  0  0  0  0
  184.9220  178.4520  145.8410 N   0  0  0  0  0  0  0  0  0  0  0  0
  185.8850  178.0290  144.9650 C   0  0  0  0  0  0  0  0  0  0  0  0
  182.1280  177.2360  140.3210 N   0  0  0  0  0  0  0  0  0  0  0  0
  184.4100  177.7290  140.8570 N   0  0  0  0  0  2  0  0  0  0  0  0
  182.5000  179.0430  141.9740 C   0  0  2  0  0  3  0  0  0  0  0  0
  184.4030  178.5150  143.1540 C   0  0  0  0  0  0  0  0  0  0  0  0
  179.9820  176.7470  140.6240 N   0  0  0  0  0  0  0  0  0  0  0  0
  182.2850  179.1820  143.4580 C   0  0  0  0  0  2  0  0  0  0  0  0
  183.6960  178.8760  145.4180 C   0  0  0  0  0  3  0  0  0  0  0  0
  181.6530  178.0010  141.3140 C   0  0  0  0  0  0  0  0  0  0  0  0
  185.6400  178.0380  143.5820 C   0  0  0  0  0  3  0  0  0  0  0  0
  180.3180  177.7200  141.5040 C   0  0  0  0  0  3  0  0  0  0  0  0
  183.4380  178.9020  144.0510 C   0  0  0  0  0  0  0  0  0  0  0  0
  183.4960  177.3020  139.7880 C   0  0  2  0  0  3  0  0  0  0  0  0
  188.1490  177.3070  144.3220 C   0  0  0  0  0  1  0  0  0  0  0  0
  187.2070  177.5750  145.4800 C   0  0  0  0  0  2  0  0  0  0  0  0
  183.5690  178.2880  138.6090 C   0  0  1  0  0  3  0  0  0  0  0  0
  184.6060  179.3970  138.8060 C   0  0  0  0  0  2  0  0  0  0  0  0
  184.0000  180.6550  138.8480 O   0  0  0  0  0  1  0  0  0  0  0  0
  183.6940  177.6060  137.2420 C   0  0  0  0  0  2  0  0  0  0  0  0
  185.1020  177.6640  136.6610 C   0  0  0  0  0  2  0  0  0  0  0  0
  185.7790  176.4770  136.9330 O   0  0  0  0  0  0  0  0  0  0  0  0
  188.5170  176.5780  136.4920 O   0  0  0  0  0  0  0  0  0  0  0  0
  187.5620  177.7910  138.6060 O   0  0  0  0  0  0  0  0  0  0  0  0
  187.3410  176.9670  137.3580 P   0  0  0  0  0  0  0  0  0  0  0  0
  1  5  1  0  0  0  0
  1  9  2  0  0  0  0
  2  6  1  1  0  0  0
  2  7  1  0  0  0  0
  2  8  1  0  0  0  0
  4 18  1  0  0  0  0
  4  3  2  0  0  0  0
  5 12  1  0  0  0  0
  7 10  1  1  0  0  0
  8 13  2  0  0  0  0
  8 15  1  0  0  0  0
  9 14  1  0  0  0  0
 10 15  1  0  0  0  0
 11  3  1  0  0  0  0
 12 14  2  0  0  0  0
 12  7  1  0  0  0  0
 13  4  1  0  0  0  0
 15 11  2  0  0  0  0
 16 19  1  6  0  0  0
 16  5  1  0  0  0  0
 16  6  1  0  0  0  0
 17 18  1  0  0  0  0
 19 22  1  6  0  0  0
 19 20  1  0  0  0  0
 20 21  1  0  0  0  0
 23 24  1  0  0  0  0
 23 22  1  0  0  0  0
 24 27  1  0  0  0  0
 25 27  2  0  0  0  0
 27 26  2  0  0  0  0
M  END
>  <MODEL>
9

>  <REMARK>
 VINA RESULT:      -6.4      3.594      6.356
  Name = 
  7 active torsions:
  status: ('A' for Active; 'I' for Inactive)
    1  A    between atoms: C_1  and  C_26
    2  A    between atoms: C_5  and  C_15
    3  A    between atoms: O_10  and  P_24
    4  A    between atoms: O_10  and  C_27
    5  A    between atoms: C_22  and  C_26
    6  A    between atoms: C_22  and  C_27
    7  A    between atoms: C_25  and  C_26
                            x       y       z     vdW  Elec       q    Type
                         _______ _______ _______ _____ _____    ______ ____

>  <TORSDO>
F 7

$$$$
